drugbank_target|Q92781 11-cis retinol dehydrogenase (DB00157; DB00162)
 OpenBabel12092119343D

  0  0  0     0  0            999 V3000
M  V30 BEGIN CTAB
M  V30 COUNTS 4994 5054 0 0 0
M  V30 BEGIN ATOM
M  V30 1 H -0.908 1.98254 -0.117106 0
M  V30 2 N 0 1.576 0 0
M  V30 3 C 0.933 2.03868 1.02534 0
M  V30 4 C 1.911 0.928543 1.3348 0
M  V30 5 O 3.095 1.19667 1.45644 0
M  V30 6 C 0.222 2.43627 2.35294 0
M  V30 7 C -0.732 3.65373 2.2001 0
M  V30 8 S 0.101 5.13292 1.52614 0
M  V30 9 C 1.257 5.56322 2.86805 0
M  V30 10 H 1.49 2.90518 0.631377 0
M  V30 11 H -0.977 1.52953 0.210867 0
M  V30 12 H 0.981 2.67203 3.11629 0
M  V30 13 H -0.358 1.57376 2.7183 0
M  V30 14 H -1.165 3.90944 3.18086 0
M  V30 15 H -1.563 3.418 1.51819 0
M  V30 16 H 0.729 5.58782 3.83104 0
M  V30 17 H 1.672 6.56266 2.65933 0
M  V30 18 H 2.08 4.83886 2.90714 0
M  V30 19 N 1.4781 -0.272755 1.55222 0
M  V30 20 C 2.7241 -1.00172 1.77023 0
M  V30 21 C 3.0791 -1.83928 0.564633 0
M  V30 22 O 2.3721 -1.86416 -0.442674 0
M  V30 23 C 2.5661 -1.91642 3.01675 0
M  V30 24 C 2.3951 -1.16888 4.34243 0
M  V30 25 C 1.1651 -0.884464 4.97499 0
M  V30 26 C 3.3631 -0.55919 5.11251 0
M  V30 27 N 1.3451 -0.11015 6.13801 0
M  V30 28 C 2.7161 0.0809469 6.19947 0
M  V30 29 C 4.7711 -0.467058 4.95705 0
M  V30 30 C 3.4741 0.804335 7.14789 0
M  V30 31 C 5.5001 0.242739 5.90902 0
M  V30 32 C 4.8621 0.871613 6.98987 0
M  V30 33 H 0.9611 -0.348529 0.700037 0
M  V30 34 H 3.5451 -0.277365 1.92714 0
M  V30 35 H 1.7161 -2.61303 2.87359 0
M  V30 36 H 3.4481 -2.57901 3.1188 0
M  V30 37 H 0.2031 -1.18979 4.58411 0
M  V30 38 H 0.6271 0.264344 6.76484 0
M  V30 39 H 5.2691 -0.93894 4.12242 0
M  V30 40 H 2.9871 1.2879 7.97771 0
M  V30 41 H 6.5731 0.314347 5.8095 0
M  V30 42 H 5.4531 1.4121 7.71381 0
M  V30 43 N 2.9562 -1.48159 -0.537278 0
M  V30 44 C 3.8862 -1.65029 -1.6519 0
M  V30 45 C 4.8672 -0.499281 -1.62607 0
M  V30 46 O 6.0522 -0.730972 -1.79918 0
M  V30 47 C 3.1822 -1.68303 -3.03795 0
M  V30 48 C 2.1362 -2.8283 -3.21234 0
M  V30 49 C 1.4622 -2.71189 -4.60826 0
M  V30 50 C 2.7622 -4.24211 -3.04701 0
M  V30 51 H 4.4562 -2.58341 -1.51328 0
M  V30 52 H 2.0022 -1.24325 -0.726585 0
M  V30 53 H 3.9552 -1.78693 -3.81637 0
M  V30 54 H 2.6792 -0.715635 -3.18663 0
M  V30 55 H 1.3382 -2.71983 -2.45807 0
M  V30 56 H 0.9862 -1.72435 -4.7252 0
M  V30 57 H 0.6862 -3.48035 -4.7344 0
M  V30 58 H 2.2102 -2.83537 -5.40777 0
M  V30 59 H 3.6242 -4.3593 -3.72341 0
M  V30 60 H 2.0212 -5.01998 -3.28813 0
M  V30 61 H 3.0912 -4.41184 -2.01209 0
M  V30 62 N 4.4343 0.785586 -1.36625 0
M  V30 63 C 5.8453 1.36101 -1.27803 0
M  V30 64 C 6.1963 1.96035 0.0804875 0
M  V30 65 O 5.3213 1.92834 0.982042 0
M  V30 66 C 5.9163 2.47442 -2.31426 0
M  V30 67 C 4.4753 3.00789 -2.26281 0
M  V30 68 C 3.6223 1.73896 -2.15999 0
M  V30 69 H 6.5733 0.586928 -1.47448 0
M  V30 70 H 6.5943 3.2656 -1.95291 0
M  V30 71 H 6.1063 2.03791 -3.30289 0
M  V30 72 H 4.2073 3.48851 -1.30896 0
M  V30 73 H 4.3203 3.57343 -3.19128 0
M  V30 74 H 2.6843 1.9628 -1.62316 0
M  V30 75 H 3.4673 1.32368 -3.16755 0
M  V30 76 N 5.9124 1.20967 1.01018 0
M  V30 77 C 6.8424 0.988272 2.11555 0
M  V30 78 C 7.8234 -0.0849778 1.69888 0
M  V30 79 O 9.0084 0.0738202 1.9406 0
M  V30 80 C 6.1384 0.546528 3.42973 0
M  V30 81 C 5.0924 1.56375 3.9841 0
M  V30 82 C 4.4184 0.97842 5.25672 0
M  V30 83 C 5.7184 2.94922 4.31066 0
M  V30 84 H 7.4124 1.91276 2.30334 0
M  V30 85 H 4.9584 0.921073 1.1069 0
M  V30 86 H 6.9114 0.378839 4.19694 0
M  V30 87 H 5.6354 -0.413598 3.23971 0
M  V30 88 H 4.2944 1.71891 3.23804 0
M  V30 89 H 3.9424 0.0101688 5.02999 0
M  V30 90 H 3.6424 1.65784 5.63728 0
M  V30 91 H 5.1664 0.821939 6.05043 0
M  V30 92 H 6.5804 2.8288 4.9865 0
M  V30 93 H 4.9774 3.5983 4.80253 0
M  V30 94 H 6.0474 3.4616 3.39561 0
M  V30 95 N 7.3905 -1.2043 1.01659 0
M  V30 96 C 8.3205 -2.25466 0.607226 0
M  V30 97 C 9.3015 -1.65853 -0.377716 0
M  V30 98 O 10.4865 -1.92409 -0.263149 0
M  V30 99 C 7.6165 -3.47256 -0.0552949 0
M  V30 100 C 6.5705 -4.19462 0.850632 0
M  V30 101 C 5.8965 -5.34673 0.0538859 0
M  V30 102 C 7.1965 -4.75603 2.15868 0
M  V30 103 H 8.8905 -2.59962 1.48526 0
M  V30 104 H 6.4365 -1.2496 0.715605 0
M  V30 105 H 8.3895 -4.19917 -0.353233 0
M  V30 106 H 7.1135 -3.11924 -0.968045 0
M  V30 107 H 5.7725 -3.48667 1.13257 0
M  V30 108 H 5.4205 -4.95585 -0.860514 0
M  V30 109 H 5.1205 -5.83913 0.657192 0
M  V30 110 H 6.6445 -6.10138 -0.237598 0
M  V30 111 H 8.0585 -5.40083 1.92311 0
M  V30 112 H 6.4555 -5.3528 2.71284 0
M  V30 113 H 7.5255 -3.94346 2.82169 0
M  V30 114 N 8.8686 -0.792821 -1.36206 0
M  V30 115 C 9.7986 -0.207853 -2.32573 0
M  V30 116 C 10.7796 0.659055 -1.56813 0
M  V30 117 O 11.9646 0.592176 -1.84951 0
M  V30 118 C 9.0946 0.655449 -3.41059 0
M  V30 119 C 8.0486 -0.111842 -4.27854 0
M  V30 120 C 7.3746 0.872274 -5.27537 0
M  V30 121 C 8.6746 -1.30299 -5.05786 0
M  V30 122 H 10.3686 -1.01294 -2.81744 0
M  V30 123 H 7.9146 -0.48854 -1.3546 0
M  V30 124 H 9.8676 1.07464 -4.07467 0
M  V30 125 H 8.5916 1.49328 -2.90463 0
M  V30 126 H 7.2506 -0.512053 -3.63006 0
M  V30 127 H 6.8986 1.70523 -4.73214 0
M  V30 128 H 6.5986 0.363291 -5.86476 0
M  V30 129 H 8.1226 1.28996 -5.96818 0
M  V30 130 H 9.5366 -0.959379 -5.65216 0
M  V30 131 H 7.9336 -1.7455 -5.74154 0
M  V30 132 H 9.0036 -2.09663 -4.37229 0
M  V30 133 N 10.3467 1.47872 -0.545128 0
M  V30 134 C 11.5947 2.02093 -0.016553 0
M  V30 135 C 11.9157 1.42305 1.3332 0
M  V30 136 O 11.1857 0.593853 1.86682 0
M  V30 137 H 9.7657 0.746993 -0.00313038 0
M  V30 138 H 12.4277 1.81414 -0.712397 0
M  V30 139 H 11.5237 3.11996 0.0805422 0
M  V30 140 N 11.8248 0.280983 1.55075 0
M  V30 141 C 12.7878 -0.590896 2.21452 0
M  V30 142 C 13.7878 -1.07682 1.19421 0
M  V30 143 O 14.9778 -0.97605 1.44288 0
M  V30 144 C 12.1098 -1.81587 2.88511 0
M  V30 145 H 13.3028 -0.0112554 2.99898 0
M  V30 146 H 10.8558 0.0316438 1.56268 0
M  V30 147 H 11.5908 -2.43587 2.14093 0
M  V30 148 H 11.3758 -1.4753 3.63287 0
M  V30 149 H 12.8658 -2.43575 3.39206 0
M  V30 150 N 13.3029 -1.57598 0.00835791 0
M  V30 151 C 14.2329 -2.1198 -0.979113 0
M  V30 152 C 15.2139 -1.03091 -1.35301 0
M  V30 153 O 16.3989 -1.30818 -1.43528 0
M  V30 154 C 13.5289 -2.62995 -2.26828 0
M  V30 155 C 12.4829 -3.76485 -2.03576 0
M  V30 156 C 11.8089 -4.13846 -3.38579 0
M  V30 157 C 13.1089 -5.0342 -1.39161 0
M  V30 158 H 14.8029 -2.94738 -0.526281 0
M  V30 159 H 12.3489 -1.41783 -0.251704 0
M  V30 160 H 14.3019 -2.99669 -2.96271 0
M  V30 161 H 13.0259 -1.7737 -2.7424 0
M  V30 162 H 11.6849 -3.40217 -1.36557 0
M  V30 163 H 11.3329 -3.25232 -3.83709 0
M  V30 164 H 11.0329 -4.90312 -3.23834 0
M  V30 165 H 12.5569 -4.53086 -4.09323 0
M  V30 166 H 13.9709 -5.37812 -1.98573 0
M  V30 167 H 12.3679 -5.84746 -1.34878 0
M  V30 168 H 13.4379 -4.83548 -0.361868 0
M  V30 169 N 14.781 0.264519 -1.55364 0
M  V30 170 C 15.711 1.33121 -1.91836 0
M  V30 171 C 16.692 1.51101 -0.781192 0
M  V30 172 O 17.877 1.64003 -1.04003 0
M  V30 173 C 15.007 2.68921 -2.19769 0
M  V30 174 C 13.961 2.65661 -3.35571 0
M  V30 175 C 13.287 4.05093 -3.49004 0
M  V30 176 C 14.587 2.24187 -4.71739 0
M  V30 177 H 16.281 1.02844 -2.81182 0
M  V30 178 H 13.827 0.493286 -1.35287 0
M  V30 179 H 15.78 3.43663 -2.43872 0
M  V30 180 H 14.504 3.00799 -1.27231 0
M  V30 181 H 13.163 1.93377 -3.1145 0
M  V30 182 H 12.811 4.34206 -2.53917 0
M  V30 183 H 12.511 4.03804 -4.26868 0
M  V30 184 H 14.035 4.81561 -3.75408 0
M  V30 185 H 15.449 2.88654 -4.9533 0
M  V30 186 H 13.846 2.34044 -5.52579 0
M  V30 187 H 14.916 1.19327 -4.69988 0
M  V30 188 N 16.2591 1.48442 0.529413 0
M  V30 189 C 17.5051 1.57699 1.28463 0
M  V30 190 C 17.8601 0.247913 1.90796 0
M  V30 191 O 17.1531 -0.749279 1.76342 0
M  V30 192 C 17.3471 2.6523 2.39558 0
M  V30 193 C 17.1761 4.08464 1.88114 0
M  V30 194 C 15.9461 4.75596 1.70693 0
M  V30 195 C 18.1441 4.94613 1.40935 0
M  V30 196 N 16.1261 6.03245 1.13881 0
M  V30 197 C 17.4971 6.12511 0.960734 0
M  V30 198 C 19.5521 4.80833 1.29243 0
M  V30 199 C 18.2551 7.18149 0.406792 0
M  V30 200 C 20.2811 5.86593 0.752487 0
M  V30 201 C 19.6431 7.037 0.313946 0
M  V30 202 H 15.7421 0.631608 0.46108 0
M  V30 203 H 18.3261 1.85325 0.596886 0
M  V30 204 H 16.4971 2.39425 3.05827 0
M  V30 205 H 18.2291 2.64169 3.06589 0
M  V30 206 H 14.9841 4.31938 1.94232 0
M  V30 207 H 15.4081 6.71324 0.874831 0
M  V30 208 H 20.0501 3.90635 1.61754 0
M  V30 209 H 17.7681 8.0807 0.0693671 0
M  V30 210 H 21.3541 5.77985 0.665192 0
M  V30 211 H 20.2341 7.8414 -0.0973632 0
M  V30 212 N 17.7372 -0.778329 1.37039 0
M  V30 213 C 18.7002 -1.87301 1.32102 0
M  V30 214 C 19.7002 -1.59198 0.226405 0
M  V30 215 O 20.8902 -1.67403 0.481861 0
M  V30 216 C 18.0222 -3.24309 1.05055 0
M  V30 217 H 19.2152 -1.93093 2.29467 0
M  V30 218 H 16.7682 -0.977358 1.21973 0
M  V30 219 H 17.5032 -3.24196 0.0819373 0
M  V30 220 H 17.2882 -3.46098 1.84279 0
M  V30 221 H 18.7782 -4.04382 1.04234 0
M  V30 222 N 19.2153 -1.21501 -1.00376 0
M  V30 223 C 20.4613 -1.03452 -1.74429 0
M  V30 224 C 20.7943 0.430764 -1.89362 0
M  V30 225 O 20.0693 1.31962 -1.42886 0
M  V30 226 C 20.3523 -1.73375 -3.15615 0
M  V30 227 C 20.2053 -3.27431 -3.08397 0
M  V30 228 C 21.5243 -1.47732 -4.14564 0
M  V30 229 H 18.6433 -0.377226 -0.633143 0
M  V30 230 H 21.2853 -1.49693 -1.17013 0
M  V30 231 H 19.4353 -1.34064 -3.64636 0
M  V30 232 H 21.1073 -3.76119 -2.67081 0
M  V30 233 H 19.3503 -3.5767 -2.45468 0
M  V30 234 H 20.0213 -3.71524 -4.08258 0
M  V30 235 H 22.4973 -1.8186 -3.74254 0
M  V30 236 H 21.3733 -1.99169 -5.11491 0
M  V30 237 H 21.6343 -0.407589 -4.40217 0
M  V30 238 N 20.6934 1.19889 -1.02296 0
M  V30 239 C 21.6234 2.25141 -0.619174 0
M  V30 240 C 22.6044 1.66051 0.368915 0
M  V30 241 O 23.7894 1.92546 0.252941 0
M  V30 242 C 20.9194 3.4728 0.0368783 0
M  V30 243 C 19.8734 4.19005 -0.872865 0
M  V30 244 C 19.1994 5.34637 -0.0822402 0
M  V30 245 C 20.4994 4.74452 -2.18387 0
M  V30 246 H 22.1934 2.59171 -1.49903 0
M  V30 247 H 19.7394 1.24579 -0.722222 0
M  V30 248 H 21.6924 4.20098 0.330958 0
M  V30 249 H 20.4164 3.12433 0.95149 0
M  V30 250 H 19.0754 3.48061 -1.15105 0
M  V30 251 H 18.7234 4.96034 0.83422 0
M  V30 252 H 18.4234 5.83557 -0.688149 0
M  V30 253 H 19.9474 6.10255 0.205238 0
M  V30 254 H 21.3614 5.39055 -1.95172 0
M  V30 255 H 19.7584 5.33834 -2.74119 0
M  V30 256 H 20.8284 3.92844 -2.84257 0
M  V30 257 N 22.1715 0.800033 1.35784 0
M  V30 258 C 23.4175 0.38701 1.99684 0
M  V30 259 C 23.7725 -1.03268 1.62338 0
M  V30 260 O 23.0655 -1.70543 0.87325 0
M  V30 261 C 23.2595 0.500276 3.53881 0
M  V30 262 C 23.0885 1.92942 4.06206 0
M  V30 263 C 21.8585 2.55637 4.35865 0
M  V30 264 C 24.0565 2.89307 4.25213 0
M  V30 265 N 22.0385 3.9003 4.74078 0
M  V30 266 C 23.4095 4.08556 4.66349 0
M  V30 267 C 25.4645 2.86225 4.07406 0
M  V30 268 C 24.1675 5.25146 4.91543 0
M  V30 269 C 26.1935 4.02011 4.33752 0
M  V30 270 C 25.5555 5.20007 4.75155 0
M  V30 271 H 21.6545 0.189252 0.758754 0
M  V30 272 H 24.2385 1.03988 1.64604 0
M  V30 273 H 22.4095 -0.122568 3.88207 0
M  V30 274 H 24.1415 0.0624733 4.04652 0
M  V30 275 H 20.8965 2.07039 4.25948 0
M  V30 276 H 21.3205 4.59205 4.97454 0
M  V30 277 H 25.9625 1.96154 3.74544 0
M  V30 278 H 23.6805 6.15794 5.23281 0
M  V30 279 H 27.2665 4.00999 4.21534 0
M  V30 280 H 26.1465 6.08113 4.95145 0
M  V30 281 N 23.6496 -1.47581 0.552962 0
M  V30 282 C 24.5796 -2.32762 -0.185451 0
M  V30 283 C 25.5606 -1.43527 -0.912905 0
M  V30 284 O 26.7456 -1.72388 -0.894201 0
M  V30 285 C 23.8756 -3.25219 -1.21859 0
M  V30 286 C 22.8296 -4.23661 -0.607864 0
M  V30 287 C 22.1556 -5.05413 -1.74533 0
M  V30 288 C 23.4556 -5.20481 0.435582 0
M  V30 289 H 25.1496 -2.94749 0.525684 0
M  V30 290 H 22.6956 -1.41738 0.254251 0
M  V30 291 H 24.6486 -3.8365 -1.7433 0
M  V30 292 H 23.3726 -2.61279 -1.95961 0
M  V30 293 H 22.0316 -3.66451 -0.104489 0
M  V30 294 H 21.6796 -4.3788 -2.47529 0
M  V30 295 H 21.3796 -5.72059 -1.34249 0
M  V30 296 H 22.9036 -5.66701 -2.27338 0
M  V30 297 H 24.3176 -5.733 -0.00290157 0
M  V30 298 H 22.7146 -5.95305 0.757067 0
M  V30 299 H 23.7846 -4.66217 1.33303 0
M  V30 300 N 25.1277 -0.289203 -1.54924 0
M  V30 301 C 26.0577 0.58549 -2.2604 0
M  V30 302 C 27.0387 1.14753 -1.25562 0
M  V30 303 O 28.2237 1.17906 -1.54311 0
M  V30 304 C 25.3537 1.76305 -2.99222 0
M  V30 305 C 24.3077 1.33191 -4.06748 0
M  V30 306 C 23.6337 2.5937 -4.6758 0
M  V30 307 C 24.9337 0.471775 -5.20165 0
M  V30 308 H 26.6277 -0.00763532 -2.99399 0
M  V30 309 H 24.1737 -0.00511229 -1.43999 0
M  V30 310 H 26.1267 2.38097 -3.47689 0
M  V30 311 H 24.8507 2.38223 -2.23422 0
M  V30 312 H 23.5097 0.737121 -3.59113 0
M  V30 313 H 23.1577 3.19576 -3.88433 0
M  V30 314 H 22.8577 2.31228 -5.40192 0
M  V30 315 H 24.3817 3.21985 -5.18804 0
M  V30 316 H 25.7957 0.995056 -5.64599 0
M  V30 317 H 24.1927 0.284639 -5.99425 0
M  V30 318 H 25.2627 -0.506041 -4.82252 0
M  V30 319 N 26.6058 1.57591 -0.0167156 0
M  V30 320 C 28.0218 1.55946 0.339557 0
M  V30 321 C 28.2218 1.02109 1.73713 0
M  V30 322 O 27.2778 0.662303 2.43659 0
M  V30 323 C 28.5908 3.00037 0.199499 0
M  V30 324 C 30.1388 3.11805 0.273193 0
M  V30 325 C 30.6138 4.57713 0.162068 0
M  V30 326 N 32.1048 4.6268 0.219444 0
M  V30 327 C 32.8398 5.73185 0.157054 0
M  V30 328 N 32.3358 6.92786 0.0442936 0
M  V30 329 N 34.1288 5.61707 0.21014 0
M  V30 330 H 26.2798 1.90921 -0.930758 0
M  V30 331 H 28.5428 0.877674 -0.358319 0
M  V30 332 H 28.2488 3.4333 -0.76273 0
M  V30 333 H 28.1228 3.64387 0.974786 0
M  V30 334 H 30.5098 2.68433 1.22587 0
M  V30 335 H 30.5908 2.50201 -0.532256 0
M  V30 336 H 30.2348 5.01763 -0.78714 0
M  V30 337 H 30.1648 5.17283 0.986222 0
M  V30 338 H 32.6558 3.76649 0.307246 0
M  V30 339 H 32.9688 7.728 0.00304069 0
M  V30 340 H 31.3138 6.94999 0.00968457 0
M  V30 341 H 34.5048 4.6716 0.296546 0
M  V30 342 H 34.6778 6.47807 0.158054 0
M  V30 343 N 28.0839 -0.256276 1.55502 0
M  V30 344 C 29.3609 -1.00789 1.67633 0
M  V30 345 C 29.7409 -2.03706 0.553826 0
M  V30 346 O 29.0889 -2.24145 -0.443969 0
M  V30 347 C 29.2989 -1.64968 3.07549 0
M  V30 348 C 30.6469 -2.15505 3.65845 0
M  V30 349 O 31.6709 -1.74925 3.1029 0
M  V30 350 O 30.5299 -2.89986 4.63217 0
M  V30 351 H 27.6239 -0.468553 0.681459 0
M  V30 352 H 30.1699 -0.250806 1.67836 0
M  V30 353 H 28.9419 -0.904785 3.80696 0
M  V30 354 H 28.5649 -2.47321 3.11317 0
M  V30 355 N 29.562 -1.4872 -0.521534 0
M  V30 356 C 30.978 -1.35028 -0.850855 0
M  V30 357 C 31.178 -0.367712 -1.98116 0
M  V30 358 O 30.234 0.208037 -2.51642 0
M  V30 359 C 31.547 -2.75263 -1.21041 0
M  V30 360 C 33.095 -2.83813 -1.31981 0
M  V30 361 C 33.57 -4.24769 -1.71276 0
M  V30 362 N 35.061 -4.27482 -1.78363 0
M  V30 363 C 35.796 -5.33494 -2.1017 0
M  V30 364 N 35.292 -6.49775 -2.40343 0
M  V30 365 N 37.085 -5.20894 -2.11248 0
M  V30 366 H 29.236 -2.11214 0.22413 0
M  V30 367 H 31.499 -0.947252 0.0376439 0
M  V30 368 H 31.205 -3.48765 -0.453415 0
M  V30 369 H 31.079 -3.09327 -2.15863 0
M  V30 370 H 33.466 -2.10561 -2.06756 0
M  V30 371 H 33.547 -2.53358 -0.352596 0
M  V30 372 H 33.191 -4.9854 -0.970588 0
M  V30 373 H 33.121 -4.52673 -2.69062 0
M  V30 374 H 35.612 -3.43611 -1.57288 0
M  V30 375 H 35.925 -7.26402 -2.63743 0
M  V30 376 H 34.27 -6.53035 -2.37844 0
M  V30 377 H 37.461 -4.29065 -1.87139 0
M  V30 378 H 37.634 -6.03612 -2.35704 0
M  V30 379 N 31.0401 0.771051 -1.3745 0
M  V30 380 C 31.9721 1.89352 -1.29146 0
M  V30 381 C 32.9851 1.61477 -0.207124 0
M  V30 382 O 34.1741 1.72382 -0.463324 0
M  V30 383 C 31.2741 3.24596 -0.974195 0
M  V30 384 C 30.4471 3.80111 -2.16413 0
M  V30 385 C 29.5061 4.93832 -1.81703 0
M  V30 386 O 28.5321 5.09382 -2.54006 0
M  V30 387 N 29.7341 5.75483 -0.761573 0
M  V30 388 H 32.4991 1.96991 -2.25864 0
M  V30 389 H 30.0601 0.950191 -1.31084 0
M  V30 390 H 32.0521 3.98193 -0.722828 0
M  V30 391 H 30.6221 3.12454 -0.0955527 0
M  V30 392 H 29.8421 2.98284 -2.57721 0
M  V30 393 H 31.1301 4.13932 -2.95867 0
M  V30 394 H 30.5281 5.65469 -0.161609 0
M  V30 395 H 29.0851 6.49302 -0.570064 0
M  V30 396 N 32.5182 1.22032 0.997298 0
M  V30 397 C 33.7432 1.06921 1.77715 0
M  V30 398 C 34.1682 -0.376226 1.84299 0
M  V30 399 O 33.5262 -1.27165 1.29223 0
M  V30 400 C 33.5742 1.67996 3.19076 0
M  V30 401 O 32.6782 0.930653 4.01762 0
M  V30 402 H 32.0192 0.375814 0.547412 0
M  V30 403 H 34.5492 1.61737 1.25309 0
M  V30 404 H 34.5592 1.72538 3.69723 0
M  V30 405 H 33.2342 2.73182 3.13599 0
M  V30 406 H 31.8112 0.960917 3.60307 0
M  V30 407 N 33.9963 -1.19345 1.0293 0
M  V30 408 C 34.9263 -2.2481 0.631105 0
M  V30 409 C 35.9073 -1.66245 -0.360104 0
M  V30 410 O 37.0923 -1.92677 -0.242726 0
M  V30 411 C 34.2223 -3.47295 -0.0184607 0
M  V30 412 C 33.1763 -4.18536 0.895073 0
M  V30 413 C 32.5023 -5.34586 0.110592 0
M  V30 414 C 33.8023 -4.73287 2.209 0
M  V30 415 H 35.4963 -2.58372 1.51275 0
M  V30 416 H 33.0423 -1.24194 0.728818 0
M  V30 417 H 34.9953 -4.20268 -0.308675 0
M  V30 418 H 33.7193 -3.12933 -0.934907 0
M  V30 419 H 32.3783 -3.47446 1.16949 0
M  V30 420 H 32.0263 -4.96469 -0.807902 0
M  V30 421 H 31.7263 -5.83183 0.719087 0
M  V30 422 H 33.2503 -6.10355 -0.172871 0
M  V30 423 H 34.6643 -5.38013 1.98028 0
M  V30 424 H 33.0613 -5.32373 2.76946 0
M  V30 425 H 34.1313 -3.91331 2.86336 0
M  V30 426 N 35.4744 -0.807222 -1.35358 0
M  V30 427 C 36.8854 -0.44876 -1.81226 0
M  V30 428 C 37.2364 1.02929 -1.67033 0
M  V30 429 O 36.3614 1.79991 -1.20133 0
M  V30 430 C 36.9564 -0.807774 -3.2903 0
M  V30 431 C 35.5154 -0.501901 -3.73039 0
M  V30 432 C 34.6624 -1.03304 -2.57339 0
M  V30 433 H 37.6134 -0.998808 -1.23327 0
M  V30 434 H 37.6344 -0.10554 -3.80354 0
M  V30 435 H 37.1464 -1.88357 -3.39328 0
M  V30 436 H 35.2474 0.565128 -3.68289 0
M  V30 437 H 35.3604 -1.03497 -4.67787 0
M  V30 438 H 33.7244 -0.455339 -2.50597 0
M  V30 439 H 34.5074 -2.11496 -2.70415 0
M  V30 440 N 36.9525 1.47285 -0.560781 0
M  V30 441 C 37.9155 2.28535 0.174488 0
M  V30 442 C 38.9155 1.37153 0.839388 0
M  V30 443 O 40.1055 1.59748 0.694702 0
M  V30 444 C 37.2375 3.16934 1.25561 0
M  V30 445 H 38.4305 2.95012 -0.539262 0
M  V30 446 H 35.9835 1.53034 -0.317865 0
M  V30 447 H 36.7185 2.55157 2.00164 0
M  V30 448 H 36.5035 3.8419 0.783604 0
M  V30 449 H 37.9935 3.78143 1.77193 0
M  V30 450 N 38.4306 0.297415 1.54768 0
M  V30 451 C 39.6556 -0.318435 2.04941 0
M  V30 452 C 40.0806 -1.4701 1.17345 0
M  V30 453 O 39.4386 -1.80436 0.176758 0
M  V30 454 C 39.4866 -0.755749 3.52592 0
M  V30 455 O 38.5906 -1.86088 3.68028 0
M  V30 456 H 37.9316 -0.062421 0.661059 0
M  V30 457 H 40.4616 0.438215 1.99852 0
M  V30 458 H 40.4716 -1.04552 3.94376 0
M  V30 459 H 39.1466 0.0867233 4.1581 0
M  V30 460 H 37.7236 -1.57193 3.38149 0
M  V30 461 N 39.9087 -1.5758 0.0250728 0
M  V30 462 C 40.8567 -2.11125 -0.97617 0
M  V30 463 C 41.8507 -1.03689 -1.33959 0
M  V30 464 O 43.0567 -1.22128 -1.3223 0
M  V30 465 H 39.4317 -0.674468 -0.332561 0
M  V30 466 H 41.4027 -2.94194 -0.499223 0
M  V30 467 C 40.1517 -2.65017 -2.2508 0
M  V30 468 H 39.4747 -3.47333 -1.9799 0
M  V30 469 H 40.9147 -3.06133 -2.93357 0
M  V30 470 C 39.3737 -1.57574 -2.97779 0
M  V30 471 O 39.9037 -0.973203 -3.89733 0
M  V30 472 N 38.1097 -1.29716 -2.60043 0
M  V30 473 H 37.6567 -1.789 -1.85345 0
M  V30 474 H 37.6147 -0.58051 -3.08994 0
M  V30 475 N 41.3868 0.248026 -1.55636 0
M  V30 476 C 42.3498 1.29044 -1.89421 0
M  V30 477 C 43.3498 1.41134 -0.770581 0
M  V30 478 O 44.5398 1.39854 -1.03858 0
M  V30 479 C 41.6718 2.66831 -2.12165 0
M  V30 480 H 42.8648 1.00305 -2.82629 0
M  V30 481 H 40.4178 0.487265 -1.48511 0
M  V30 482 H 41.1528 3.00711 -1.21422 0
M  V30 483 H 40.9378 2.59438 -2.93997 0
M  V30 484 H 42.4278 3.42103 -2.3949 0
M  V30 485 N 42.8649 1.48995 0.513639 0
M  V30 486 C 44.1119 1.57843 1.26854 0
M  V30 487 C 44.4399 0.259501 1.92761 0
M  V30 488 O 43.6949 -0.75159 1.80692 0
M  V30 489 C 43.9939 2.67756 2.36731 0
M  V30 490 C 43.6599 4.09669 1.88368 0
M  V30 491 C 42.3219 4.48291 1.74896 0
M  V30 492 C 44.6739 4.98537 1.52021 0
M  V30 493 C 42.0019 5.73568 1.23438 0
M  V30 494 C 44.3539 6.24319 1.0202 0
M  V30 495 C 43.0179 6.61783 0.871778 0
M  V30 496 H 42.2879 0.577587 0.464192 0
M  V30 497 H 44.9349 1.82778 0.571366 0
M  V30 498 H 43.2399 2.36743 3.12185 0
M  V30 499 H 44.9369 2.71813 2.9482 0
M  V30 500 H 41.5269 3.79176 1.99808 0
M  V30 501 H 45.7109 4.69363 1.61281 0
M  V30 502 H 40.9669 6.01304 1.10648 0
M  V30 503 H 45.1409 6.92566 0.729722 0
M  V30 504 H 42.7679 7.5874 0.470852 0
M  V30 505 N 44.343 -0.763751 1.37857 0
M  V30 506 C 45.589 -1.52483 1.33704 0
M  V30 507 C 45.922 -1.94051 -0.0759612 0
M  V30 508 O 45.197 -1.64675 -1.03501 0
M  V30 509 C 45.48 -2.78441 2.28348 0
M  V30 510 C 45.333 -2.43075 3.78463 0
M  V30 511 C 46.652 -3.80415 2.21298 0
M  V30 512 H 43.771 -0.553169 0.487005 0
M  V30 513 H 46.413 -0.875562 1.68624 0
M  V30 514 H 44.563 -3.33842 1.987 0
M  V30 515 H 46.235 -1.93527 4.18742 0
M  V30 516 H 44.478 -1.75666 3.96641 0
M  V30 517 H 45.149 -3.33149 4.40132 0
M  V30 518 H 47.625 -3.34527 2.47449 0
M  V30 519 H 46.501 -4.66257 2.89647 0
M  V30 520 H 46.762 -4.25262 1.20849 0
M  V30 521 N 45.8211 -1.22559 -0.990812 0
M  V30 522 C 47.0681 -1.05141 -1.73065 0
M  V30 523 C 47.3961 0.413191 -1.9006 0
M  V30 524 O 46.6511 1.32257 -1.44245 0
M  V30 525 C 46.9501 -1.71011 -3.13831 0
M  V30 526 C 46.6161 -3.20911 -3.16745 0
M  V30 527 C 45.2781 -3.61812 -3.17247 0
M  V30 528 C 47.6301 -4.16846 -3.12872 0
M  V30 529 C 44.9581 -4.97127 -3.1158 0
M  V30 530 C 47.3101 -5.5214 -3.08746 0
M  V30 531 C 45.9741 -5.92419 -3.07565 0
M  V30 532 H 45.2441 -0.384738 -0.633291 0
M  V30 533 H 47.8911 -1.5235 -1.16025 0
M  V30 534 H 46.1961 -1.16133 -3.74193 0
M  V30 535 H 47.8931 -1.55023 -3.69823 0
M  V30 536 H 44.4831 -2.88344 -3.17105 0
M  V30 537 H 48.6671 -3.86263 -3.11632 0
M  V30 538 H 43.9231 -5.27562 -3.09012 0
M  V30 539 H 48.0971 -6.26201 -3.04705 0
M  V30 540 H 45.7241 -6.97236 -3.02929 0
M  V30 541 N 47.2992 1.18797 -1.03562 0
M  V30 542 C 48.5482 1.87978 -0.731235 0
M  V30 543 C 48.8612 1.80911 0.743671 0
M  V30 544 O 50.0672 2.45407 1.16137 0
M  V30 545 C 48.5232 3.3721 -1.25768 0
M  V30 546 C 48.1312 3.52818 -2.76085 0
M  V30 547 C 49.8752 4.11825 -1.0296 0
M  V30 548 C 47.7822 4.9598 -3.22114 0
M  V30 549 H 46.7122 0.704063 -0.269835 0
M  V30 550 H 49.3632 1.34266 -1.25079 0
M  V30 551 H 47.7452 3.90359 -0.666011 0
M  V30 552 H 48.9192 3.09965 -3.40966 0
M  V30 553 H 47.2342 2.91602 -2.97249 0
M  V30 554 H 49.8312 5.17411 -1.34869 0
M  V30 555 H 50.1742 4.16287 0.0333546 0
M  V30 556 H 50.7072 3.64833 -1.58562 0
M  V30 557 H 47.4462 4.96684 -4.27768 0
M  V30 558 H 46.9662 5.39569 -2.61965 0
M  V30 559 H 48.6452 5.6467 -3.15844 0
M  V30 560 N 48.7773 0.814389 1.34928 0
M  V30 561 C 50.0053 0.411136 2.02774 0
M  V30 562 C 50.4203 -0.980316 1.61354 0
M  V30 563 O 49.7773 -1.63299 0.814847 0
M  V30 564 C 49.8283 0.493865 3.58111 0
M  V30 565 O 49.5493 1.83047 3.98027 0
M  V30 566 C 51.0503 0.0844174 4.4322 0
M  V30 567 H 48.2703 0.166037 0.650133 0
M  V30 568 H 50.8143 1.10018 1.72384 0
M  V30 569 H 48.9693 -0.147006 3.87121 0
M  V30 570 H 49.3833 1.79872 4.92693 0
M  V30 571 H 50.8573 0.193404 5.51661 0
M  V30 572 H 51.3343 -0.97113 4.28329 0
M  V30 573 H 51.9403 0.69875 4.19521 0
M  V30 574 N 50.2554 -1.46986 0.568584 0
M  V30 575 C 51.5034 -2.02041 0.0487022 0
M  V30 576 C 51.8244 -1.44408 -1.31039 0
M  V30 577 O 51.0944 -0.623477 -1.85714 0
M  V30 578 H 49.6744 -0.746849 0.015014 0
M  V30 579 H 52.3364 -1.80257 0.741168 0
M  V30 580 H 51.4324 -3.12085 -0.0308961 0
M  V30 581 N 51.7335 -0.305618 -1.54608 0
M  V30 582 C 52.9735 0.303114 -2.0214 0
M  V30 583 C 53.3375 1.50737 -1.18921 0
M  V30 584 O 54.5385 2.18778 -1.56172 0
M  V30 585 C 52.8095 0.646332 -3.51507 0
M  V30 586 S 54.3685 1.23727 -4.20995 0
M  V30 587 H 51.1865 0.0927643 -0.704923 0
M  V30 588 H 53.7885 -0.434566 -1.90609 0
M  V30 589 H 52.4925 -0.238541 -4.09706 0
M  V30 590 H 52.0235 1.41468 -3.67084 0
M  V30 591 H 54.0385 2.52489 -4.27158 0
M  V30 592 N 53.2116 1.57565 -0.0334293 0
M  V30 593 C 54.4886 1.83282 0.683163 0
M  V30 594 C 54.8686 0.91823 1.90084 0
M  V30 595 O 54.2166 -0.025113 2.28486 0
M  V30 596 C 54.4266 3.32599 1.0573 0
M  V30 597 C 55.7746 3.99179 1.44711 0
M  V30 598 O 56.7986 3.3712 1.15015 0
M  V30 599 O 55.6576 5.08565 2.0006 0
M  V30 600 H 52.7516 0.755869 0.335546 0
M  V30 601 H 55.2976 1.69589 -0.0614402 0
M  V30 602 H 54.0696 3.90834 0.190828 0
M  V30 603 H 53.6926 3.51415 1.85993 0
M  V30 604 N 54.6897 -0.239769 1.55765 0
M  V30 605 C 55.9147 -0.988373 1.82335 0
M  V30 606 C 56.3397 -1.77886 0.611421 0
M  V30 607 O 55.6977 -1.75889 -0.439639 0
M  V30 608 C 55.7457 -1.89627 3.06715 0
M  V30 609 O 54.8497 -2.98904 2.84131 0
M  V30 610 H 54.1907 -0.280858 0.601677 0
M  V30 611 H 56.7207 -0.258597 2.02959 0
M  V30 612 H 56.7307 -2.30957 3.36338 0
M  V30 613 H 55.4057 -1.31511 3.9456 0
M  V30 614 H 53.9827 -2.61651 2.65694 0
M  V30 615 N 56.1678 -1.49265 -0.50573 0
M  V30 616 C 57.4158 -1.582 -1.25766 0
M  V30 617 C 57.7368 -0.268482 -1.93143 0
M  V30 618 O 57.0068 0.711833 -1.8251 0
M  V30 619 H 55.5868 -0.582873 -0.467191 0
M  V30 620 H 58.2488 -1.85865 -0.586525 0
M  V30 621 H 57.3448 -2.37563 -2.02412 0
M  V30 622 N 57.6459 0.756429 -1.3826 0
M  V30 623 C 58.8929 1.51547 -1.34312 0
M  V30 624 C 59.2209 1.94382 0.0677144 0
M  V30 625 O 58.4759 1.65514 1.04421 0
M  V30 626 C 58.7749 2.78313 -2.24224 0
M  V30 627 C 58.4409 2.54455 -3.72241 0
M  V30 628 C 57.1029 2.47657 -4.12576 0
M  V30 629 C 59.4549 2.3354 -4.65949 0
M  V30 630 C 56.7829 2.17956 -5.44713 0
M  V30 631 C 59.1349 2.05359 -5.9834 0
M  V30 632 C 57.7989 1.97016 -6.37762 0
M  V30 633 H 57.0689 0.55455 -0.491482 0
M  V30 634 H 59.7159 0.870039 -1.70595 0
M  V30 635 H 58.0209 3.47492 -1.80987 0
M  V30 636 H 59.7179 3.36259 -2.18474 0
M  V30 637 H 56.3079 2.60616 -3.40261 0
M  V30 638 H 60.4919 2.37772 -4.35635 0
M  V30 639 H 55.7479 2.10003 -5.74203 0
M  V30 640 H 59.9219 1.88179 -6.70494 0
M  V30 641 H 57.5489 1.73766 -7.40074 0
M  V30 642 N 59.124 1.23083 0.984299 0
M  V30 643 C 60.372 1.05848 1.72165 0
M  V30 644 C 60.693 -0.406049 1.90726 0
M  V30 645 O 59.963 -1.29139 1.47309 0
M  V30 646 H 58.543 0.388685 0.637913 0
M  V30 647 H 61.205 1.54736 1.18503 0
M  V30 648 H 60.301 1.54327 2.71274 0
M  V30 649 N 60.6021 -1.18246 1.0419 0
M  V30 650 C 62.0181 -1.40269 0.761366 0
M  V30 651 C 62.2181 -1.90777 -0.648578 0
M  V30 652 O 61.2741 -2.0929 -1.41258 0
M  V30 653 C 62.5871 -2.40237 1.8085 0
M  V30 654 C 64.1351 -2.53961 1.82955 0
M  V30 655 C 64.6101 -3.57194 2.86664 0
M  V30 656 N 66.1011 -3.64702 2.85563 0
M  V30 657 C 66.8361 -4.44309 3.6246 0
M  V30 658 N 66.3321 -5.27514 4.49111 0
M  V30 659 N 68.1251 -4.39084 3.50944 0
M  V30 660 H 60.2761 -0.837882 1.95175 0
M  V30 661 H 62.5391 -0.430608 0.84456 0
M  V30 662 H 62.2451 -2.10176 2.81991 0
M  V30 663 H 62.1191 -3.39601 1.64168 0
M  V30 664 H 64.5061 -2.83338 0.824855 0
M  V30 665 H 64.5871 -1.54706 2.03715 0
M  V30 666 H 64.2311 -3.28558 3.87314 0
M  V30 667 H 64.1611 -4.5613 2.6316 0
M  V30 668 H 66.6521 -3.05289 2.22727 0
M  V30 669 H 66.9651 -5.85411 5.04493 0
M  V30 670 H 65.3101 -5.2693 4.53178 0
M  V30 671 H 68.5011 -3.7313 2.82651 0
M  V30 672 H 68.6741 -5.00883 4.11121 0
M  V30 673 N 62.0802 -0.821533 -1.34494 0
M  V30 674 C 63.0102 -0.257138 -2.3208 0
M  V30 675 C 63.9912 0.625645 -1.58176 0
M  V30 676 O 65.1762 0.552811 -1.86166 0
M  V30 677 C 62.3062 0.582958 -3.42372 0
M  V30 678 C 61.2602 -0.202571 -4.2752 0
M  V30 679 C 60.5862 0.760179 -5.29269 0
M  V30 680 C 61.8862 -1.40998 -5.02908 0
M  V30 681 H 63.5802 -1.07247 -2.79532 0
M  V30 682 H 61.1262 -0.517163 -1.34393 0
M  V30 683 H 63.0792 0.987972 -4.09655 0
M  V30 684 H 61.8032 1.43133 -2.93565 0
M  V30 685 H 60.4622 -0.588936 -3.61838 0
M  V30 686 H 60.1102 1.60447 -4.76724 0
M  V30 687 H 59.8102 0.238809 -5.87115 0
M  V30 688 H 61.3342 1.16308 -5.9942 0
M  V30 689 H 62.7482 -1.07905 -5.63054 0
M  V30 690 H 61.1452 -1.86689 -5.70322 0
M  V30 691 H 62.2152 -2.1889 -4.32684 0
M  V30 692 N 63.5583 1.46682 -0.576371 0
M  V30 693 C 64.4883 2.33028 0.148397 0
M  V30 694 C 65.4693 1.44961 0.889956 0
M  V30 695 O 66.6543 1.73789 0.866662 0
M  V30 696 C 63.7843 3.27117 1.1667 0
M  V30 697 C 62.7383 4.24575 0.540386 0
M  V30 698 C 62.0643 5.08126 1.6647 0
M  V30 699 C 63.3643 5.19722 -0.518331 0
M  V30 700 H 65.0583 2.93875 -0.572509 0
M  V30 701 H 62.6043 1.41315 -0.276768 0
M  V30 702 H 64.5573 3.86374 1.68204 0
M  V30 703 H 63.2813 2.64364 1.9178 0
M  V30 704 H 61.9403 3.66571 0.0461769 0
M  V30 705 H 61.5883 4.41762 2.40531 0
M  V30 706 H 61.2883 5.74122 1.25131 0
M  V30 707 H 62.8123 5.70246 2.18293 0
M  V30 708 H 64.2263 5.73232 -0.0883058 0
M  V30 709 H 62.6233 5.94026 -0.851679 0
M  V30 710 H 63.6933 4.64037 -1.40703 0
M  V30 711 N 65.0364 0.313813 1.54444 0
M  V30 712 C 65.9994 -0.54379 2.22656 0
M  V30 713 C 66.9994 -1.05124 1.21678 0
M  V30 714 O 68.1894 -0.945225 1.46325 0
M  V30 715 C 65.3214 -1.75427 2.92298 0
M  V30 716 H 66.5144 0.0523599 2.99854 0
M  V30 717 H 64.0674 0.0647834 1.56166 0
M  V30 718 H 64.8024 -2.38991 2.19211 0
M  V30 719 H 64.5874 -1.39791 3.66334 0
M  V30 720 H 66.0774 -2.36325 3.44297 0
M  V30 721 N 66.5145 -1.57545 0.0417849 0
M  V30 722 C 67.4445 -2.14009 -0.933929 0
M  V30 723 C 68.4255 -1.05938 -1.33083 0
M  V30 724 O 69.6105 -1.33833 -1.40721 0
M  V30 725 C 66.7405 -2.67747 -2.21199 0
M  V30 726 C 65.6945 -3.80718 -1.95544 0
M  V30 727 C 65.0205 -4.20935 -3.29724 0
M  V30 728 C 66.3205 -5.06258 -1.28452 0
M  V30 729 H 68.0145 -2.95788 -0.463645 0
M  V30 730 H 65.5605 -1.42285 -0.221573 0
M  V30 731 H 67.5135 -3.05886 -2.89848 0
M  V30 732 H 66.2375 -1.83147 -2.70416 0
M  V30 733 H 64.8965 -3.43037 -1.2931 0
M  V30 734 H 64.5445 -3.33298 -3.76724 0
M  V30 735 H 64.2445 -4.9707 -3.13361 0
M  V30 736 H 65.7685 -4.61666 -3.9962 0
M  V30 737 H 67.1825 -5.41903 -1.8712 0
M  V30 738 H 65.5795 -5.87475 -1.22445 0
M  V30 739 H 66.6495 -4.84207 -0.259219 0
M  V30 740 N 67.9926 0.231505 -1.5589 0
M  V30 741 C 68.9246 1.31006 -1.8807 0
M  V30 742 C 69.9376 1.43539 -0.768145 0
M  V30 743 O 71.1266 1.44614 -1.04638 0
M  V30 744 C 68.2266 2.68688 -2.06543 0
M  V30 745 C 67.3996 2.78228 -3.37502 0
M  V30 746 C 66.4586 3.96857 -3.4553 0
M  V30 747 O 65.4846 3.85662 -4.18633 0
M  V30 748 N 66.6866 5.1072 -2.75944 0
M  V30 749 H 69.4516 1.03731 -2.81176 0
M  V30 750 H 67.0126 0.421573 -1.56315 0
M  V30 751 H 69.0046 3.46412 -2.09239 0
M  V30 752 H 67.5746 2.88605 -1.20109 0
M  V30 753 H 66.7946 1.87059 -3.46991 0
M  V30 754 H 68.0826 2.81564 -4.23791 0
M  V30 755 H 67.4806 5.2271 -2.16311 0
M  V30 756 H 66.0376 5.86523 -2.84314 0
M  V30 757 N 69.4707 1.49531 0.497807 0
M  V30 758 C 70.4007 1.6935 1.60757 0
M  V30 759 C 71.3817 0.542218 1.61227 0
M  V30 760 O 72.5667 0.778417 1.77917 0
M  V30 761 C 69.6967 1.76298 2.99226 0
M  V30 762 C 68.6507 2.91248 3.13622 0
M  V30 763 C 67.9767 2.83312 4.53474 0
M  V30 764 C 69.2767 4.3214 2.93346 0
M  V30 765 H 70.9707 2.62263 1.44425 0
M  V30 766 H 68.5167 1.26208 0.693367 0
M  V30 767 H 70.4697 1.88749 3.76765 0
M  V30 768 H 69.1937 0.799871 3.16654 0
M  V30 769 H 67.8527 2.78404 2.38509 0
M  V30 770 H 67.5007 1.84902 4.67782 0
M  V30 771 H 67.2007 3.60465 4.64046 0
M  V30 772 H 68.7247 2.97775 5.33069 0
M  V30 773 H 70.1387 4.45649 3.60652 0
M  V30 774 H 68.5357 5.1054 3.15387 0
M  V30 775 H 69.6057 4.46363 1.89441 0
M  V30 776 N 70.9488 -0.749086 1.3866 0
M  V30 777 C 72.2258 -1.4992 1.25632 0
M  V30 778 C 72.6058 -2.10633 -0.140317 0
M  V30 779 O 71.9538 -1.97437 -1.15025 0
M  V30 780 C 72.1638 -2.56195 2.36992 0
M  V30 781 C 73.5118 -3.22972 2.75634 0
M  V30 782 O 74.5358 -2.66502 2.36337 0
M  V30 783 O 73.3948 -4.25122 3.43415 0
M  V30 784 H 70.4888 -0.665067 0.491544 0
M  V30 785 H 73.0348 -0.784113 1.50498 0
M  V30 786 H 71.8068 -2.09612 3.30422 0
M  V30 787 H 71.4298 -3.35279 2.13714 0
M  V30 788 N 72.4269 -1.23603 -0.977757 0
M  V30 789 C 73.3589 -0.977369 -2.07317 0
M  V30 790 C 74.3719 0.0495845 -1.62724 0
M  V30 791 O 75.5609 -0.186261 -1.77526 0
M  V30 792 C 72.6609 -0.451216 -3.35883 0
M  V30 793 C 71.8339 -1.53896 -4.09432 0
M  V30 794 C 70.8929 -1.01721 -5.16274 0
M  V30 795 O 69.9189 -1.70676 -5.43009 0
M  V30 796 N 71.1209 0.153594 -5.80297 0
M  V30 797 H 73.8859 -1.92047 -2.30082 0
M  V30 798 H 71.4469 -1.14497 -1.14465 0
M  V30 799 H 73.4389 -0.0871574 -4.04606 0
M  V30 800 H 72.0089 0.397368 -3.10064 0
M  V30 801 H 71.2289 -2.07566 -3.35127 0
M  V30 802 H 72.5169 -2.27037 -4.55337 0
M  V30 803 H 71.9149 0.730323 -5.60966 0
M  V30 804 H 70.4719 0.458892 -6.50183 0
M  V30 805 N 73.905 1.17692 -1.04816 0
M  V30 806 C 75.321 1.39863 -0.768794 0
M  V30 807 C 75.521 1.91118 0.638451 0
M  V30 808 O 74.577 2.10036 1.40146 0
M  V30 809 C 75.89 2.39274 -1.82122 0
M  V30 810 C 77.438 2.52987 -1.843 0
M  V30 811 C 77.913 3.55669 -2.88555 0
M  V30 812 N 79.404 3.63183 -2.87493 0
M  V30 813 C 80.139 4.42381 -3.64811 0
M  V30 814 N 79.635 5.25125 -4.51903 0
M  V30 815 N 81.428 4.37217 -3.53267 0
M  V30 816 H 73.579 0.82752 -1.95617 0
M  V30 817 H 75.842 0.426123 -0.846831 0
M  V30 818 H 75.548 2.08678 -2.83102 0
M  V30 819 H 75.422 3.38725 -1.65967 0
M  V30 820 H 77.809 2.82896 -0.839869 0
M  V30 821 H 77.89 1.53623 -2.04532 0
M  V30 822 H 77.534 3.26499 -3.89051 0
M  V30 823 H 77.464 4.54728 -2.65575 0
M  V30 824 H 79.955 3.04103 -2.24343 0
M  V30 825 H 80.268 5.82728 -5.07591 0
M  V30 826 H 78.613 5.24519 -4.55966 0
M  V30 827 H 81.804 3.71626 -2.84625 0
M  V30 828 H 81.977 4.98696 -4.13771 0
M  V30 829 N 75.3831 0.828654 1.34056 0
M  V30 830 C 76.6311 0.41863 1.97717 0
M  V30 831 C 76.9521 -1.02314 1.66002 0
M  V30 832 O 76.2221 -1.71119 0.953683 0
M  V30 833 H 74.8021 0.151809 0.731412 0
M  V30 834 H 77.4641 1.05936 1.63596 0
M  V30 835 H 76.5601 0.542318 3.07352 0
M  V30 836 N 76.8612 -1.46375 0.584142 0
M  V30 837 C 78.1082 -2.02378 0.0702675 0
M  V30 838 C 78.4362 -1.45545 -1.29023 0
M  V30 839 O 77.6912 -0.610967 -1.85918 0
M  V30 840 C 77.9902 -3.57373 -0.0439342 0
M  V30 841 C 77.6562 -4.33252 1.24915 0
M  V30 842 C 76.3182 -4.53701 1.60341 0
M  V30 843 C 78.6702 -4.7681 2.1048 0
M  V30 844 C 75.9982 -5.1496 2.81128 0
M  V30 845 C 78.3502 -5.39404 3.30494 0
M  V30 846 C 77.0142 -5.5808 3.66201 0
M  V30 847 H 76.2842 -0.740554 0.0257127 0
M  V30 848 H 78.9312 -1.75727 0.761065 0
M  V30 849 H 77.2362 -3.83169 -0.817869 0
M  V30 850 H 78.9332 -3.98384 -0.457318 0
M  V30 851 H 75.5232 -4.17633 0.963364 0
M  V30 852 H 79.7072 -4.60766 1.84414 0
M  V30 853 H 74.9632 -5.27611 3.08928 0
M  V30 854 H 79.1372 -5.72114 3.97063 0
M  V30 855 H 76.7642 -6.05318 4.59885 0
M  V30 856 N 78.3393 -0.321999 -1.54275 0
M  V30 857 C 79.7553 0.0306999 -1.5957 0
M  V30 858 C 79.9553 1.50614 -1.33857 0
M  V30 859 O 79.0113 2.2619 -1.12223 0
M  V30 860 C 80.3243 -0.386122 -2.98211 0
M  V30 861 C 81.8723 -0.336647 -3.11184 0
M  V30 862 C 82.3473 -0.728607 -4.52167 0
M  V30 863 N 83.8383 -0.681952 -4.58152 0
M  V30 864 C 84.5733 -0.957449 -5.6535 0
M  V30 865 N 84.0693 -1.3 -6.80494 0
M  V30 866 N 85.8623 -0.883113 -5.55119 0
M  V30 867 H 78.0133 -1.28332 -1.69247 0
M  V30 868 H 80.2763 -0.521716 -0.791528 0
M  V30 869 H 79.9823 -1.41404 -3.22022 0
M  V30 870 H 79.8563 0.249662 -3.76373 0
M  V30 871 H 82.2433 0.682058 -2.8711 0
M  V30 872 H 82.3243 -1.00734 -2.3513 0
M  V30 873 H 81.9683 -1.74522 -4.76974 0
M  V30 874 H 81.8983 -0.0356152 -5.26588 0
M  V30 875 H 84.3893 -0.428985 -3.75457 0
M  V30 876 H 84.7023 -1.49563 -7.58189 0
M  V30 877 H 83.0473 -1.33824 -6.81994 0
M  V30 878 H 86.2383 -0.615001 -4.64042 0
M  V30 879 H 86.4113 -1.10118 -6.38575 0
M  V30 880 N 79.8174 1.5752 -0.0501392 0
M  V30 881 C 81.0634 1.92936 0.624798 0
M  V30 882 C 81.3964 0.928685 1.70555 0
M  V30 883 O 80.6714 -0.0454779 1.94447 0
M  V30 884 C 80.9544 3.38737 1.22185 0
M  V30 885 C 80.8074 4.49552 0.149218 0
M  V30 886 C 82.1264 3.84913 2.13378 0
M  V30 887 H 79.2454 0.701604 0.225657 0
M  V30 888 H 81.8874 1.89671 -0.111693 0
M  V30 889 H 80.0374 3.4165 1.84953 0
M  V30 890 H 81.7094 4.58768 -0.482648 0
M  V30 891 H 79.9524 4.30638 -0.522841 0
M  V30 892 H 80.6234 5.48653 0.606966 0
M  V30 893 H 83.0994 3.8387 1.60572 0
M  V30 894 H 81.9754 4.87584 2.52097 0
M  V30 895 H 82.2364 3.21611 3.03346 0
M  V30 896 N 81.2955 -0.223234 1.56011 0
M  V30 897 C 82.2255 -1.27988 1.95298 0
M  V30 898 C 83.2065 -1.48976 0.820979 0
M  V30 899 O 84.3915 -1.61188 1.08315 0
M  V30 900 C 81.5215 -2.63 2.26822 0
M  V30 901 C 80.4755 -2.56671 3.42497 0
M  V30 902 C 79.8015 -3.95697 3.59622 0
M  V30 903 C 81.1015 -2.11601 4.77517 0
M  V30 904 H 82.7955 -0.953525 2.8381 0
M  V30 905 H 80.3415 -0.457244 1.36548 0
M  V30 906 H 82.2945 -3.37077 2.52898 0
M  V30 907 H 81.0185 -2.9732 1.35161 0
M  V30 908 H 79.6775 -1.85051 3.16467 0
M  V30 909 H 79.3255 -4.27322 2.6534 0
M  V30 910 H 79.0255 -3.92345 4.37424 0
M  V30 911 H 80.5495 -4.71438 3.88044 0
M  V30 912 H 81.9635 -2.7542 5.02809 0
M  V30 913 H 80.3605 -2.19311 5.5859 0
M  V30 914 H 81.4305 -1.06824 4.72987 0
M  V30 915 N 82.7736 -1.49793 -0.48987 0
M  V30 916 C 83.7366 -1.66752 -1.57246 0
M  V30 917 C 84.7366 -0.538867 -1.51502 0
M  V30 918 O 85.9266 -0.805545 -1.54456 0
M  V30 919 C 83.0586 -1.67528 -2.96896 0
M  V30 920 H 84.2516 -2.63321 -1.43534 0
M  V30 921 H 81.8046 -1.38992 -0.714914 0
M  V30 922 H 82.5396 -0.725837 -3.16073 0
M  V30 923 H 82.3246 -2.49504 -3.02473 0
M  V30 924 H 83.8146 -1.82667 -3.7553 0
M  V30 925 N 84.2517 0.741722 -1.39055 0
M  V30 926 C 85.4767 1.53607 -1.39354 0
M  V30 927 C 85.9017 1.88096 0.0116905 0
M  V30 928 O 85.2597 1.5143 0.996924 0
M  V30 929 C 85.3077 2.80441 -2.26682 0
M  V30 930 O 84.4117 3.76088 -1.69208 0
M  V30 931 H 83.7527 0.464142 -0.474835 0
M  V30 932 H 86.2827 0.915665 -1.82967 0
M  V30 933 H 86.2927 3.29246 -2.40959 0
M  V30 934 H 84.9677 2.5467 -3.2881 0
M  V30 935 H 83.5447 3.34833 -1.64138 0
M  V30 936 N 85.7298 1.2412 0.971189 0
M  V30 937 C 86.9698 1.09066 1.7287 0
M  V30 938 C 87.3338 -0.364794 1.88503 0
M  V30 939 O 88.5348 -0.636748 2.61149 0
M  V30 940 C 86.8058 1.80629 3.08396 0
M  V30 941 S 88.3648 1.81263 3.99611 0
M  V30 942 H 85.1828 0.390145 0.594397 0
M  V30 943 H 87.7848 1.57397 1.15959 0
M  V30 944 H 86.4888 2.85647 2.94676 0
M  V30 945 H 86.0198 1.32617 3.70373 0
M  V30 946 H 88.0348 0.877804 4.88374 0
M  V30 947 N 87.2079 -1.17134 1.05439 0
M  V30 948 C 88.1379 -2.2342 0.678649 0
M  V30 949 C 89.1189 -1.66971 -0.32476 0
M  V30 950 O 90.3039 -1.93149 -0.201802 0
M  V30 951 C 87.4339 -3.47256 0.0552099 0
M  V30 952 C 86.3879 -4.16543 0.98365 0
M  V30 953 C 85.7139 -5.34231 0.223961 0
M  V30 954 C 87.0139 -4.68495 2.3089 0
M  V30 955 H 88.7079 -2.55105 1.56722 0
M  V30 956 H 86.2539 -1.2262 0.754998 0
M  V30 957 H 88.2069 -4.20828 -0.21946 0
M  V30 958 H 86.9309 -3.14846 -0.868319 0
M  V30 959 H 85.5899 -3.44887 1.24293 0
M  V30 960 H 85.2379 -4.98071 -0.702412 0
M  V30 961 H 84.9379 -5.81527 0.842627 0
M  V30 962 H 86.4619 -6.10585 -0.0433671 0
M  V30 963 H 87.8759 -5.33691 2.09396 0
M  V30 964 H 86.2729 -5.26379 2.88176 0
M  V30 965 H 87.3429 -3.85169 2.94572 0
M  V30 966 N 88.686 -0.835752 -1.33615 0
M  V30 967 C 89.914 -0.443344 -2.02094 0
M  V30 968 C 90.329 0.954522 -1.62894 0
M  V30 969 O 89.686 1.61982 -0.840723 0
M  V30 970 C 89.737 -0.550775 -3.5728 0
M  V30 971 O 89.458 -1.89356 -3.95065 0
M  V30 972 C 90.959 -0.154919 -4.43029 0
M  V30 973 H 88.179 -0.176359 -0.647409 0
M  V30 974 H 90.723 -1.12746 -1.70612 0
M  V30 975 H 88.878 0.0853997 -3.87306 0
M  V30 976 H 89.292 -1.87687 -4.89769 0
M  V30 977 H 90.766 -0.281144 -5.51284 0
M  V30 978 H 91.243 0.902863 -4.2982 0
M  V30 979 H 91.849 -0.765404 -4.18356 0
M  V30 980 N 90.1641 1.46063 -0.591896 0
M  V30 981 C 91.5751 1.85944 -0.167822 0
M  V30 982 C 91.9261 1.49429 1.27143 0
M  V30 983 O 91.0511 0.913515 1.96173 0
M  V30 984 C 91.6461 3.37489 -0.297794 0
M  V30 985 C 90.2051 3.76332 0.0714732 0
M  V30 986 C 89.3521 2.7006 -0.629509 0
M  V30 987 H 92.3031 1.37087 -0.799555 0
M  V30 988 H 92.3241 3.77532 0.474349 0
M  V30 989 H 91.8361 3.64034 -1.3454 0
M  V30 990 H 89.9371 3.55405 1.11886 0
M  V30 991 H 90.0501 4.78088 -0.311245 0
M  V30 992 H 88.4141 2.54607 -0.0687867 0
M  V30 993 H 89.1971 2.99444 -1.67894 0
M  V30 994 N 91.6422 0.330177 1.54103 0
M  V30 995 C 92.8672 -0.274893 2.0557 0
M  V30 996 C 93.2922 -1.44487 1.20437 0
M  V30 997 O 92.6502 -1.80021 0.214991 0
M  V30 998 C 92.6982 -0.68079 3.54115 0
M  V30 999 O 91.8022 -1.7824 3.71893 0
M  V30 1000 H 91.1432 -0.0483849 0.662235 0
M  V30 1001 H 93.6732 0.480508 1.98878 0
M  V30 1002 H 93.6832 -0.961635 3.96505 0
M  V30 1003 H 92.3582 0.174903 4.15532 0
M  V30 1004 H 90.9352 -1.49985 3.41407 0
M  V30 1005 N 93.1203 -1.57491 0.0584922 0
M  V30 1006 C 94.3683 -1.92597 -0.612436 0
M  V30 1007 C 94.6893 -0.938162 -1.70949 0
M  V30 1008 O 93.9593 0.0158301 -1.95894 0
M  V30 1009 H 92.5393 -0.710964 -0.229214 0
M  V30 1010 H 95.2013 -1.94571 0.113218 0
M  V30 1011 H 94.2973 -2.94038 -1.04633 0
M  V30 1012 N 94.5984 0.214957 -1.56127 0
M  V30 1013 C 95.5614 1.24997 -1.92116 0
M  V30 1014 C 96.5614 1.39467 -0.800344 0
M  V30 1015 O 97.7514 1.37619 -1.06802 0
M  V30 1016 C 94.8834 2.62271 -2.17777 0
M  V30 1017 H 96.0764 0.942875 -2.84693 0
M  V30 1018 H 93.6294 0.455654 -1.49511 0
M  V30 1019 H 94.3644 2.98068 -1.27773 0
M  V30 1020 H 94.1494 2.53143 -2.99434 0
M  V30 1021 H 95.6394 3.36946 -2.46693 0
M  V30 1022 N 96.0765 1.50051 0.48192 0
M  V30 1023 C 96.9865 1.7089 1.60728 0
M  V30 1024 C 98.0025 0.591788 1.63627 0
M  V30 1025 O 99.1785 0.868817 1.81696 0
M  V30 1026 C 96.2435 1.78855 2.97005 0
M  V30 1027 C 95.3045 3.02537 3.04581 0
M  V30 1028 C 94.5375 3.10112 4.34357 0
M  V30 1029 O 94.7605 2.24765 5.24249 0
M  V30 1030 O 93.6945 4.02747 4.47301 0
M  V30 1031 H 97.5205 2.66264 1.46072 0
M  V30 1032 H 95.1055 1.34018 0.660264 0
M  V30 1033 H 96.9875 1.86336 3.77964 0
M  V30 1034 H 95.6625 0.866628 3.11883 0
M  V30 1035 H 94.5695 3.00563 2.22739 0
M  V30 1036 H 95.9025 3.94272 2.94636 0
M  V30 1037 N 97.5546 -0.734337 1.39446 0
M  V30 1038 C 98.8316 -1.48579 1.27215 0
M  V30 1039 C 99.2116 -2.1077 -0.117968 0
M  V30 1040 O 98.5596 -1.98646 -1.12924 0
M  V30 1041 C 98.7696 -2.53667 2.39696 0
M  V30 1042 C 100.118 -3.20031 2.79044 0
M  V30 1043 O 101.142 -2.6398 2.39151 0
M  V30 1044 O 100.001 -4.21455 3.47905 0
M  V30 1045 H 97.0946 -0.659816 0.49857 0
M  V30 1046 H 99.6406 -0.768106 1.51322 0
M  V30 1047 H 98.4126 -2.06096 3.32626 0
M  V30 1048 H 98.0356 -3.32994 2.17258 0
M  V30 1049 N 99.0327 -1.24633 -0.964593 0
M  V30 1050 C 99.9627 -1.06611 -2.07741 0
M  V30 1051 C 100.944 0.0218666 -1.70086 0
M  V30 1052 O 102.129 -0.145793 -1.93652 0
M  V30 1053 C 99.2587 -0.673444 -3.40708 0
M  V30 1054 C 98.2127 -1.71054 -3.92332 0
M  V30 1055 C 97.5387 -1.17285 -5.21678 0
M  V30 1056 C 98.8387 -3.10718 -4.19824 0
M  V30 1057 H 100.533 -1.99693 -2.23076 0
M  V30 1058 H 98.0787 -0.96152 -1.07195 0
M  V30 1059 H 100.032 -0.534345 -4.17998 0
M  V30 1060 H 98.7557 0.293073 -3.25282 0
M  V30 1061 H 97.4147 -1.83791 -3.17201 0
M  V30 1062 H 97.0627 -0.196847 -5.02615 0
M  V30 1063 H 96.7627 -1.86592 -5.57187 0
M  V30 1064 H 98.2867 -1.04593 -6.01575 0
M  V30 1065 H 99.7007 -3.01192 -4.87808 0
M  V30 1066 H 98.0977 -3.77406 -4.66567 0
M  V30 1067 H 99.1677 -3.58524 -3.26479 0
M  V30 1068 N 100.511 1.16574 -1.06058 0
M  V30 1069 C 101.443 2.2045 -0.627239 0
M  V30 1070 C 102.456 1.59752 0.313534 0
M  V30 1071 O 103.645 1.78192 0.104896 0
M  V30 1072 C 100.745 3.3875 0.100974 0
M  V30 1073 C 99.9178 4.29008 -0.852687 0
M  V30 1074 C 98.9768 5.25944 -0.164152 0
M  V30 1075 O 98.0028 5.63535 -0.801047 0
M  V30 1076 N 99.2048 5.70075 1.09518 0
M  V30 1077 H 101.97 2.58249 -1.52077 0
M  V30 1078 H 99.5308 1.3156 -0.943594 0
M  V30 1079 H 101.523 4.00638 0.57194 0
M  V30 1080 H 100.093 2.99476 0.89628 0
M  V30 1081 H 99.3128 3.64419 -1.50308 0
M  V30 1082 H 100.601 4.86195 -1.49972 0
M  V30 1083 H 99.9988 5.41624 1.6328 0
M  V30 1084 H 98.5558 6.34067 1.51006 0
M  V30 1085 N 101.989 0.842826 1.3317 0
M  V30 1086 C 103.405 0.531128 1.50503 0
M  V30 1087 C 103.605 -0.940734 1.78192 0
M  V30 1088 O 102.661 -1.72436 1.84451 0
M  V30 1089 C 103.974 1.40789 2.65705 0
M  V30 1090 C 105.522 1.40708 2.79589 0
M  V30 1091 C 105.997 2.26878 3.97857 0
M  V30 1092 N 107.488 2.24609 4.05099 0
M  V30 1093 C 108.223 2.88019 4.95815 0
M  V30 1094 N 107.719 3.60496 5.9162 0
M  V30 1095 N 109.512 2.77469 4.88843 0
M  V30 1096 H 101.663 1.79557 1.1346 0
M  V30 1097 H 103.926 0.766267 0.558156 0
M  V30 1098 H 103.632 2.454 2.51936 0
M  V30 1099 H 103.506 1.08677 3.61205 0
M  V30 1100 H 105.893 0.368668 2.92788 0
M  V30 1101 H 105.974 1.76829 1.84838 0
M  V30 1102 H 105.618 3.3078 3.85418 0
M  V30 1103 H 105.548 1.88096 4.91861 0
M  V30 1104 H 108.039 1.71906 3.36536 0
M  V30 1105 H 108.352 4.06076 6.57512 0
M  V30 1106 H 106.697 3.64604 5.91683 0
M  V30 1107 H 109.888 2.20406 4.12963 0
M  V30 1108 H 110.061 3.2717 5.59342 0
M  V30 1109 N 103.467 -1.45747 0.599634 0
M  V30 1110 C 104.713 -2.02592 0.0918643 0
M  V30 1111 C 105.046 -1.46806 -1.27128 0
M  V30 1112 O 104.321 -0.639658 -1.83681 0
M  V30 1113 C 104.604 -3.60073 0.0443398 0
M  V30 1114 C 104.457 -4.26208 1.43759 0
M  V30 1115 C 105.776 -4.35309 -0.647608 0
M  V30 1116 H 102.895 -0.736175 0.034857 0
M  V30 1117 H 105.537 -1.73694 0.770081 0
M  V30 1118 H 103.687 -3.84823 -0.533224 0
M  V30 1119 H 105.359 -4.12668 2.06162 0
M  V30 1120 H 103.602 -3.84916 2.00056 0
M  V30 1121 H 104.273 -5.35069 1.35665 0
M  V30 1122 H 106.749 -4.15805 -0.156776 0
M  V30 1123 H 105.625 -5.45038 -0.649942 0
M  V30 1124 H 105.886 -4.07598 -1.71219 0
M  V30 1125 N 104.945 -0.338344 -1.53925 0
M  V30 1126 C 105.908 0.508299 -2.23493 0
M  V30 1127 C 106.908 1.03175 -1.23335 0
M  V30 1128 O 108.098 0.921826 -1.47811 0
M  V30 1129 C 105.23 1.70754 -2.95052 0
M  V30 1130 H 106.423 -0.100058 -2.99733 0
M  V30 1131 H 103.976 -0.0896198 -1.56043 0
M  V30 1132 H 104.711 2.35474 -2.22986 0
M  V30 1133 H 104.496 1.33946 -3.68512 0
M  V30 1134 H 105.986 2.30818 -3.48013 0
M  V30 1135 N 106.423 1.57458 -0.0668435 0
M  V30 1136 C 107.648 1.9804 0.616027 0
M  V30 1137 C 108.073 0.944771 1.62652 0
M  V30 1138 O 107.431 -0.0902094 1.81075 0
M  V30 1139 C 107.479 3.37665 1.26549 0
M  V30 1140 O 106.583 3.36701 2.38131 0
M  V30 1141 H 105.924 0.644719 0.158849 0
M  V30 1142 H 108.454 2.04121 -0.139891 0
M  V30 1143 H 108.464 3.7474 1.6135 0
M  V30 1144 H 107.139 4.12573 0.525016 0
M  V30 1145 H 105.716 3.1139 2.0516 0
M  V30 1146 N 107.901 -0.206675 1.56239 0
M  V30 1147 C 109.126 -0.949474 1.8439 0
M  V30 1148 C 109.551 -1.76549 0.649016 0
M  V30 1149 O 108.909 -1.76782 -0.402231 0
M  V30 1150 C 108.957 -1.83078 3.10668 0
M  V30 1151 O 108.061 -2.9281 2.90407 0
M  V30 1152 H 107.402 -0.268033 0.607499 0
M  V30 1153 H 109.932 -0.215488 2.03462 0
M  V30 1154 H 109.942 -2.2377 3.41161 0
M  V30 1155 H 108.617 -1.23112 3.97261 0
M  V30 1156 H 107.194 -2.55956 2.71184 0
M  V30 1157 N 109.379 -1.50304 -0.473955 0
M  V30 1158 C 110.795 -1.37667 -0.807466 0
M  V30 1159 C 110.995 -0.430555 -1.96846 0
M  V30 1160 O 110.051 0.127874 -2.52176 0
M  V30 1161 C 111.364 -2.78974 -1.12223 0
M  V30 1162 C 112.912 -2.87868 -1.22885 0
M  V30 1163 C 113.387 -4.30003 -1.57676 0
M  V30 1164 N 114.878 -4.3294 -1.64673 0
M  V30 1165 C 115.613 -5.3991 -1.93091 0
M  V30 1166 N 115.109 -6.57092 -2.1955 0
M  V30 1167 N 116.902 -5.27351 -1.94569 0
M  V30 1168 H 109.053 -2.10394 0.291212 0
M  V30 1169 H 111.316 -0.945575 0.0677609 0
M  V30 1170 H 111.022 -3.50031 -0.342229 0
M  V30 1171 H 110.896 -3.16038 -2.05913 0
M  V30 1172 H 113.283 -2.17032 -1.99953 0
M  V30 1173 H 113.364 -2.54352 -0.271814 0
M  V30 1174 H 113.008 -5.01375 -0.81149 0
M  V30 1175 H 112.938 -4.61004 -2.54525 0
M  V30 1176 H 115.429 -3.48441 -1.46277 0
M  V30 1177 H 115.742 -7.34425 -2.405 0
M  V30 1178 H 114.087 -6.60272 -2.16948 0
M  V30 1179 H 117.278 -4.34801 -1.73394 0
M  V30 1180 H 117.451 -6.10805 -2.16381 0
M  V30 1181 N 110.857 0.726932 -1.39834 0
M  V30 1182 C 111.787 1.85405 -1.41941 0
M  V30 1183 C 112.768 1.67751 -0.281728 0
M  V30 1184 O 113.953 1.8795 -0.488717 0
M  V30 1185 C 111.083 3.23243 -1.2701 0
M  V30 1186 C 110.037 3.55549 -2.38262 0
M  V30 1187 C 109.363 4.9241 -2.08415 0
M  V30 1188 C 110.663 3.577 -3.80589 0
M  V30 1189 H 112.357 1.83899 -2.36266 0
M  V30 1190 H 109.903 0.883349 -1.13723 0
M  V30 1191 H 111.856 4.01775 -1.27103 0
M  V30 1192 H 110.58 3.25296 -0.291564 0
M  V30 1193 H 109.239 2.79351 -2.37399 0
M  V30 1194 H 108.887 4.91052 -1.0898 0
M  V30 1195 H 108.587 5.14992 -2.82943 0
M  V30 1196 H 110.111 5.73289 -2.10171 0
M  V30 1197 H 111.525 4.26293 -3.83337 0
M  V30 1198 H 109.922 3.91804 -4.54543 0
M  V30 1199 H 110.992 2.57328 -4.10987 0
M  V30 1200 N 112.336 1.25143 0.95797 0
M  V30 1201 C 113.286 1.01924 2.0395 0
M  V30 1202 C 114.27 -0.0427175 1.60843 0
M  V30 1203 O 115.462 0.17221 1.7616 0
M  V30 1204 C 112.591 0.636373 3.3735 0
M  V30 1205 C 111.677 1.73492 3.8699 0
M  V30 1206 N 112.068 2.96945 4.0946 0
M  V30 1207 C 110.366 1.61467 4.15746 0
M  V30 1208 C 111.067 3.68228 4.50315 0
M  V30 1209 N 110.043 2.95833 4.56053 0
M  V30 1210 H 113.845 1.95653 2.19311 0
M  V30 1211 H 111.359 1.15413 1.14253 0
M  V30 1212 H 113.356 0.451233 4.14451 0
M  V30 1213 H 112.016 -0.293621 3.2337 0
M  V30 1214 H 113.027 3.33025 3.96629 0
M  V30 1215 H 109.704 0.753394 4.10646 0
M  V30 1216 H 111.094 4.74178 4.76031 0
M  V30 1217 N 113.814 -1.1601 1.06675 0
M  V30 1218 C 115.042 -1.90527 0.806667 0
M  V30 1219 C 115.457 -1.77643 -0.639396 0
M  V30 1220 O 114.814 -1.12369 -1.43803 0
M  V30 1221 C 114.865 -3.41106 1.19705 0
M  V30 1222 O 114.586 -3.53608 2.58636 0
M  V30 1223 C 116.087 -4.32663 0.965266 0
M  V30 1224 H 113.307 -0.604053 0.292166 0
M  V30 1225 H 115.851 -1.47026 1.4214 0
M  V30 1226 H 114.006 -3.82296 0.626774 0
M  V30 1227 H 114.42 -4.47011 2.74375 0
M  V30 1228 H 115.894 -5.36763 1.288 0
M  V30 1229 H 116.371 -4.39089 -0.0987936 0
M  V30 1230 H 116.977 -3.97206 1.52011 0
M  V30 1231 N 115.292 -0.849877 -1.32721 0
M  V30 1232 C 116.52 -0.464754 -2.01613 0
M  V30 1233 C 116.935 0.937191 -1.63897 0
M  V30 1234 O 116.292 1.61081 -0.857856 0
M  V30 1235 C 116.343 -0.588638 -3.56675 0
M  V30 1236 O 116.064 -1.93535 -3.93034 0
M  V30 1237 C 117.565 -0.2019 -4.4284 0
M  V30 1238 H 114.785 -0.183215 -0.645502 0
M  V30 1239 H 117.329 -1.1455 -1.69407 0
M  V30 1240 H 115.484 0.0443159 -3.87375 0
M  V30 1241 H 115.898 -1.92871 -4.87751 0
M  V30 1242 H 117.372 -0.339599 -5.50954 0
M  V30 1243 H 117.849 0.857224 -4.30753 0
M  V30 1244 H 118.455 -0.809733 -4.17521 0
M  V30 1245 N 116.77 1.45427 -0.607355 0
M  V30 1246 C 117.7 2.3329 0.0989352 0
M  V30 1247 C 118.681 1.46816 0.859007 0
M  V30 1248 O 119.866 1.75588 0.829604 0
M  V30 1249 C 116.996 3.29518 1.09705 0
M  V30 1250 C 115.95 4.25626 0.450206 0
M  V30 1251 C 115.276 5.11542 1.55655 0
M  V30 1252 C 116.576 5.18505 -0.628455 0
M  V30 1253 H 118.27 2.92595 -0.634716 0
M  V30 1254 H 115.816 1.40696 -0.306681 0
M  V30 1255 H 117.769 3.89855 1.59971 0
M  V30 1256 H 116.493 2.68372 1.86129 0
M  V30 1257 H 115.152 3.66586 -0.0315886 0
M  V30 1258 H 114.8 4.46765 2.31107 0
M  V30 1259 H 114.5 5.76647 1.12925 0
M  V30 1260 H 116.024 5.74748 2.06148 0
M  V30 1261 H 117.438 5.72916 -0.209877 0
M  V30 1262 H 115.835 5.92085 -0.977489 0
M  V30 1263 H 116.905 4.60948 -1.50514 0
M  V30 1264 N 118.248 0.346503 1.53744 0
M  V30 1265 C 119.178 -0.501193 2.28058 0
M  V30 1266 C 120.159 -1.10014 1.29734 0
M  V30 1267 O 121.344 -1.12097 1.58581 0
M  V30 1268 C 118.474 -1.65078 3.05559 0
M  V30 1269 C 117.428 -1.18003 4.11411 0
M  V30 1270 C 116.754 -2.41837 4.76884 0
M  V30 1271 C 118.054 -0.278394 5.21558 0
M  V30 1272 H 119.748 0.11875 2.99164 0
M  V30 1273 H 117.294 0.0585531 1.43881 0
M  V30 1274 H 119.247 -2.25028 3.56287 0
M  V30 1275 H 117.971 -2.29767 2.32109 0
M  V30 1276 H 116.63 -0.603331 3.61601 0
M  V30 1277 H 116.278 -3.0494 4.00026 0
M  V30 1278 H 115.978 -2.1102 5.48402 0
M  V30 1279 H 117.502 -3.02508 5.30397 0
M  V30 1280 H 118.916 -0.784823 5.67903 0
M  V30 1281 H 117.313 -0.0619707 6.00068 0
M  V30 1282 H 118.383 0.684677 4.80042 0
M  V30 1283 N 119.726 -1.57421 0.075193 0
M  V30 1284 C 121.003 -1.85029 -0.634329 0
M  V30 1285 C 121.383 -0.968305 -1.87582 0
M  V30 1286 O 120.731 -0.0354749 -2.28472 0
M  V30 1287 C 120.941 -3.35286 -0.968742 0
M  V30 1288 C 122.289 -4.02875 -1.34077 0
M  V30 1289 O 123.313 -3.40051 -1.06037 0
M  V30 1290 O 122.172 -5.13691 -1.86506 0
M  V30 1291 H 119.266 -0.7645 -0.315387 0
M  V30 1292 H 121.812 -1.69366 0.106382 0
M  V30 1293 H 120.584 -3.91203 -0.0871376 0
M  V30 1294 H 120.207 -3.56223 -1.7661 0
M  V30 1295 N 121.204 0.198386 -1.56346 0
M  V30 1296 C 122.453 0.917451 -1.79627 0
M  V30 1297 C 122.766 1.8456 -0.64784 0
M  V30 1298 O 123.972 2.60504 -0.764859 0
M  V30 1299 C 122.428 1.68175 -3.18191 0
M  V30 1300 C 122.036 0.798589 -4.40825 0
M  V30 1301 C 123.78 2.39065 -3.50782 0
M  V30 1302 C 121.687 1.56157 -5.70411 0
M  V30 1303 H 120.617 0.346317 -0.669762 0
M  V30 1304 H 123.268 0.170801 -1.82703 0
M  V30 1305 H 121.65 2.47216 -3.09354 0
M  V30 1306 H 122.824 0.0470665 -4.60776 0
M  V30 1307 H 121.139 0.200686 -4.15916 0
M  V30 1308 H 123.736 2.96692 -4.44835 0
M  V30 1309 H 124.079 3.13091 -2.74371 0
M  V30 1310 H 124.612 1.66993 -3.61052 0
M  V30 1311 H 121.351 0.864142 -6.49779 0
M  V30 1312 H 120.871 2.2871 -5.54483 0
M  V30 1313 H 122.55 2.11622 -6.11412 0
M  V30 1314 N 122.682 1.50554 0.465978 0
M  V30 1315 C 123.91 1.65563 1.24083 0
M  V30 1316 C 124.325 0.341051 1.85694 0
M  V30 1317 O 123.682 -0.677543 1.69457 0
M  V30 1318 C 123.733 2.75051 2.34583 0
M  V30 1319 O 123.454 4.01413 1.75497 0
M  V30 1320 C 124.955 3.01078 3.25372 0
M  V30 1321 H 122.175 0.55638 0.375077 0
M  V30 1322 H 124.719 1.96807 0.555624 0
M  V30 1323 H 122.874 2.46486 2.9887 0
M  V30 1324 H 123.288 4.62002 2.48303 0
M  V30 1325 H 124.762 3.81339 3.99105 0
M  V30 1326 H 125.239 2.12349 3.84453 0
M  V30 1327 H 125.845 3.31194 2.66816 0
M  V30 1328 N 124.16 -0.719506 1.40217 0
M  V30 1329 C 125.437 -1.47221 1.28784 0
M  V30 1330 C 125.817 -2.10883 -0.0956067 0
M  V30 1331 O 125.165 -1.99833 -1.10811 0
M  V30 1332 C 125.375 -2.5111 2.42373 0
M  V30 1333 C 126.723 -3.17053 2.82423 0
M  V30 1334 O 127.747 -2.61429 2.41937 0
M  V30 1335 O 126.606 -4.17742 3.52355 0
M  V30 1336 H 123.7 -0.654491 0.50554 0
M  V30 1337 H 126.246 -0.752014 1.52128 0
M  V30 1338 H 125.018 -2.02556 3.34793 0
M  V30 1339 H 124.641 -3.3067 2.20778 0
M  V30 1340 N 125.638 -1.25649 -0.95132 0
M  V30 1341 C 127.049 -1.09654 -1.51106 0
M  V30 1342 C 127.4 0.326615 -1.93462 0
M  V30 1343 O 126.525 1.21697 -1.78938 0
M  V30 1344 C 127.12 -1.98437 -2.74605 0
M  V30 1345 C 125.679 -1.86618 -3.2688 0
M  V30 1346 C 124.826 -1.9239 -1.99703 0
M  V30 1347 H 127.777 -1.38887 -0.767865 0
M  V30 1348 H 127.798 -1.5263 -3.48546 0
M  V30 1349 H 127.31 -3.02009 -2.43746 0
M  V30 1350 H 125.411 -0.859421 -3.62553 0
M  V30 1351 H 125.524 -2.71607 -3.94673 0
M  V30 1352 H 123.888 -1.36317 -2.15151 0
M  V30 1353 H 124.671 -2.97573 -1.71188 0
M  V30 1354 N 127.117 1.15442 -1.07289 0
M  V30 1355 C 128.049 2.19773 -0.650585 0
M  V30 1356 C 129.062 1.60076 0.296572 0
M  V30 1357 O 130.251 1.78293 0.0859905 0
M  V30 1358 C 127.351 3.38838 0.0650398 0
M  V30 1359 C 126.524 4.2808 -0.898141 0
M  V30 1360 C 125.583 5.2574 -0.219926 0
M  V30 1361 O 124.609 5.62654 -0.860773 0
M  V30 1362 N 125.811 5.71205 1.03466 0
M  V30 1363 H 128.576 2.56622 -1.54808 0
M  V30 1364 H 126.137 1.30551 -0.957494 0
M  V30 1365 H 128.129 4.01222 0.529415 0
M  V30 1366 H 126.699 3.00409 0.864466 0
M  V30 1367 H 125.919 3.62804 -1.54165 0
M  V30 1368 H 127.207 4.84577 -1.5512 0
M  V30 1369 H 126.605 5.43325 1.57526 0
M  V30 1370 H 125.162 6.35633 1.44272 0
M  V30 1371 N 128.595 0.856903 1.32268 0
M  V30 1372 C 129.82 0.474569 2.01897 0
M  V30 1373 C 130.245 -0.921766 1.63967 0
M  V30 1374 O 129.603 -1.60589 0.84148 0
M  V30 1375 C 129.651 0.623799 3.55164 0
M  V30 1376 O 128.755 -0.342459 4.10976 0
M  V30 1377 H 128.096 0.190422 0.63611 0
M  V30 1378 H 130.626 1.15672 1.68764 0
M  V30 1379 H 130.636 0.512169 4.04773 0
M  V30 1380 H 129.311 1.64202 3.82113 0
M  V30 1381 H 127.888 -0.18688 3.72431 0
M  V30 1382 N 130.073 -1.45103 0.615059 0
M  V30 1383 C 131.319 -2.02483 0.113347 0
M  V30 1384 C 131.652 -1.48146 -1.25564 0
M  V30 1385 O 130.927 -0.659104 -1.82992 0
M  V30 1386 C 131.21 -3.60005 0.0825278 0
M  V30 1387 C 131.063 -4.2466 1.48271 0
M  V30 1388 C 132.382 -4.35972 -0.601401 0
M  V30 1389 H 129.501 -0.735764 0.0426632 0
M  V30 1390 H 132.143 -1.72868 0.788461 0
M  V30 1391 H 130.293 -3.85367 -0.492378 0
M  V30 1392 H 131.965 -4.10458 2.10527 0
M  V30 1393 H 130.208 -3.82772 2.04127 0
M  V30 1394 H 130.879 -5.336 1.41332 0
M  V30 1395 H 133.355 -4.15947 -0.112666 0
M  V30 1396 H 132.231 -5.45697 -0.592097 0
M  V30 1397 H 132.492 -4.09391 -1.66887 0
M  V30 1398 N 131.551 -0.354651 -1.53558 0
M  V30 1399 C 132.483 0.5315 -2.22952 0
M  V30 1400 C 133.496 1.05503 -1.23988 0
M  V30 1401 O 134.685 0.963279 -1.50277 0
M  V30 1402 C 131.785 1.74538 -2.90499 0
M  V30 1403 C 130.958 1.35524 -4.15875 0
M  V30 1404 C 130.017 2.42999 -4.66731 0
M  V30 1405 O 129.043 2.05844 -5.30676 0
M  V30 1406 N 130.245 3.74423 -4.43608 0
M  V30 1407 H 133.01 -0.0628615 -2.99634 0
M  V30 1408 H 130.571 -0.179302 -1.60904 0
M  V30 1409 H 132.563 2.45892 -3.21433 0
M  V30 1410 H 131.133 2.24686 -2.17336 0
M  V30 1411 H 130.353 0.471998 -3.91364 0
M  V30 1412 H 131.641 1.07071 -4.97406 0
M  V30 1413 H 131.039 4.07391 -3.92491 0
M  V30 1414 H 129.596 4.41913 -4.7912 0
M  V30 1415 N 133.029 1.57378 -0.0835403 0
M  V30 1416 C 133.961 2.10389 0.909338 0
M  V30 1417 C 134.974 1.03858 1.25369 0
M  V30 1418 O 136.163 1.31338 1.20882 0
M  V30 1419 C 133.263 2.55908 2.2218 0
M  V30 1420 C 132.436 3.86145 2.05453 0
M  V30 1421 C 131.495 4.17633 3.20108 0
M  V30 1422 O 130.521 4.87043 2.94581 0
M  V30 1423 N 131.723 3.72113 4.45547 0
M  V30 1424 H 134.488 2.962 0.456657 0
M  V30 1425 H 132.049 1.61579 0.101877 0
M  V30 1426 H 134.041 2.74027 2.97811 0
M  V30 1427 H 132.611 1.75171 2.58909 0
M  V30 1428 H 131.831 3.7729 1.1422 0
M  V30 1429 H 133.119 4.7137 1.91541 0
M  V30 1430 H 132.517 3.16062 4.69171 0
M  V30 1431 H 131.074 3.95409 5.18165 0
M  V30 1432 N 134.507 -0.190092 1.56449 0
M  V30 1433 C 135.47 -1.21925 1.9408 0
M  V30 1434 C 136.47 -1.38176 0.822431 0
M  V30 1435 O 137.66 -1.35903 1.08977 0
M  V30 1436 C 134.792 -2.58773 2.21922 0
M  V30 1437 H 135.985 -0.897464 2.86157 0
M  V30 1438 H 133.538 -0.43181 1.50217 0
M  V30 1439 H 134.273 -2.95998 1.32499 0
M  V30 1440 H 134.058 -2.48348 3.03424 0
M  V30 1441 H 135.548 -3.32978 2.52022 0
M  V30 1442 N 135.985 -1.50799 -0.457987 0
M  V30 1443 C 136.948 -1.7005 -1.53674 0
M  V30 1444 C 137.948 -0.570881 -1.50325 0
M  V30 1445 O 139.138 -0.838126 -1.52712 0
M  V30 1446 C 136.27 -1.73788 -2.93276 0
M  V30 1447 H 137.463 -2.66306 -1.37917 0
M  V30 1448 H 135.016 -1.40477 -0.685271 0
M  V30 1449 H 135.751 -0.792717 -3.14462 0
M  V30 1450 H 135.536 -2.55864 -2.97113 0
M  V30 1451 H 137.026 -1.90591 -3.71571 0
M  V30 1452 N 137.463 0.71206 -1.40597 0
M  V30 1453 C 138.41 1.82613 -1.41142 0
M  V30 1454 C 139.38 1.63925 -0.267903 0
M  V30 1455 O 140.565 1.85009 -0.466495 0
M  V30 1456 C 137.705 3.20354 -1.28324 0
M  V30 1457 C 136.818 3.50589 -2.52411 0
M  V30 1458 C 135.953 4.77855 -2.32009 0
M  V30 1459 C 134.992 5.01005 -3.51654 0
M  V30 1460 N 134.129 6.19487 -3.30425 0
M  V30 1461 H 138.969 1.81482 -2.36365 0
M  V30 1462 H 136.506 0.886475 -1.17388 0
M  V30 1463 H 138.464 3.99899 -1.18899 0
M  V30 1464 H 137.094 3.20705 -0.367189 0
M  V30 1465 H 136.146 2.65573 -2.72351 0
M  V30 1466 H 137.458 3.63604 -3.41458 0
M  V30 1467 H 136.612 5.65424 -2.19956 0
M  V30 1468 H 135.351 4.67056 -1.40392 0
M  V30 1469 H 134.356 4.1189 -3.64179 0
M  V30 1470 H 135.581 5.13674 -4.44202 0
M  V30 1471 H 133.527 6.09932 -2.41494 0
M  V30 1472 H 133.444 6.33194 -4.13039 0
M  V30 1473 H 134.712 7.09834 -3.22113 0
M  V30 1474 N 138.941 1.26152 0.944643 0
M  V30 1475 C 140.187 1.12665 1.69346 0
M  V30 1476 C 140.542 -0.3273 1.89596 0
M  V30 1477 O 139.835 -1.23717 1.46303 0
M  V30 1478 C 140.029 1.82541 3.07268 0
M  V30 1479 C 139.858 3.34582 3.00475 0
M  V30 1480 C 138.628 4.03863 3.03681 0
M  V30 1481 C 140.826 4.30828 2.80877 0
M  V30 1482 N 138.808 5.42603 2.87151 0
M  V30 1483 C 140.179 5.5672 2.7288 0
M  V30 1484 C 142.234 4.21122 2.65633 0
M  V30 1485 C 140.937 6.74013 2.51196 0
M  V30 1486 C 142.963 5.38118 2.45323 0
M  V30 1487 C 142.325 6.62955 2.38055 0
M  V30 1488 H 138.424 0.467041 0.627214 0
M  V30 1489 H 141.008 1.59391 1.11815 0
M  V30 1490 H 139.179 1.38296 3.62945 0
M  V30 1491 H 140.911 1.61708 3.70989 0
M  V30 1492 H 137.666 3.55198 3.1326 0
M  V30 1493 H 138.09 6.15443 2.82063 0
M  V30 1494 H 142.732 3.25344 2.70021 0
M  V30 1495 H 140.45 7.6989 2.4555 0
M  V30 1496 H 144.036 5.32475 2.34439 0
M  V30 1497 H 142.916 7.51959 2.22546 0
M  V30 1498 N 140.419 -1.14872 1.07899 0
M  V30 1499 C 141.665 -1.86064 0.806725 0
M  V30 1500 C 141.998 -1.82434 -0.665706 0
M  V30 1501 O 141.273 -1.25138 -1.48899 0
M  V30 1502 C 141.556 -3.34929 1.32267 0
M  V30 1503 C 141.409 -3.47161 2.86006 0
M  V30 1504 C 142.728 -4.29863 0.943717 0
M  V30 1505 H 139.847 -0.675591 0.294526 0
M  V30 1506 H 142.489 -1.34925 1.33773 0
M  V30 1507 H 140.639 -3.78611 0.870974 0
M  V30 1508 H 142.311 -3.12302 3.39507 0
M  V30 1509 H 140.554 -2.88539 3.23925 0
M  V30 1510 H 141.225 -4.51777 3.17177 0
M  V30 1511 H 143.701 -3.9417 1.33302 0
M  V30 1512 H 142.577 -5.32494 1.33198 0
M  V30 1513 H 142.838 -4.41846 -0.149796 0
M  V30 1514 N 141.898 -0.863906 -1.31812 0
M  V30 1515 C 142.808 -0.318461 -2.32428 0
M  V30 1516 C 143.824 0.568496 -1.64451 0
M  V30 1517 O 145 0.46666 -1.95919 0
M  V30 1518 C 142.065 0.476355 -3.43412 0
M  V30 1519 C 141.126 -0.43784 -4.27061 0
M  V30 1520 C 140.359 0.319138 -5.32745 0
M  V30 1521 O 140.582 1.54799 -5.48993 0
M  V30 1522 O 139.516 -0.319861 -6.01049 0
M  V30 1523 H 143.342 -1.15229 -2.80991 0
M  V30 1524 H 140.927 -0.627103 -1.35602 0
M  V30 1525 H 142.809 0.927156 -4.11074 0
M  V30 1526 H 141.484 1.28683 -2.97022 0
M  V30 1527 H 140.391 -0.937013 -3.62175 0
M  V30 1528 H 141.724 -1.21375 -4.77 0
M  V30 1529 N 143.376 1.44774 -0.622745 0
M  V30 1530 C 144.309 2.27792 0.136329 0
M  V30 1531 C 145.287 1.38041 0.859264 0
M  V30 1532 O 146.471 1.67478 0.86506 0
M  V30 1533 C 143.598 3.16776 1.19878 0
M  V30 1534 C 142.644 4.22575 0.57731 0
M  V30 1535 S 143.477 5.31825 -0.626294 0
M  V30 1536 C 144.633 6.24377 0.436378 0
M  V30 1537 H 144.866 2.91824 -0.567967 0
M  V30 1538 H 142.399 1.48838 -0.410677 0
M  V30 1539 H 144.357 3.68596 1.80686 0
M  V30 1540 H 143.018 2.5198 1.87523 0
M  V30 1541 H 142.211 4.84818 1.37721 0
M  V30 1542 H 141.813 3.73974 0.0440439 0
M  V30 1543 H 144.105 6.64689 1.31128 0
M  V30 1544 H 145.048 7.07941 -0.150271 0
M  V30 1545 H 145.456 5.59381 0.758513 0
M  V30 1546 N 144.854 0.36279 1.53368 0
M  V30 1547 C 145.804 -0.501391 2.22419 0
M  V30 1548 C 146.788 -1.0509 1.2184 0
M  V30 1549 O 147.98 -0.981404 1.47301 0
M  V30 1550 C 145.109 -1.64201 3.01484 0
M  V30 1551 C 144.195 -1.10552 4.09438 0
M  V30 1552 N 144.586 -0.291788 5.04958 0
M  V30 1553 C 142.884 -1.3806 4.24094 0
M  V30 1554 C 143.585 0.00162655 5.817 0
M  V30 1555 N 142.561 -0.595244 5.40331 0
M  V30 1556 H 146.363 0.127159 2.93625 0
M  V30 1557 H 143.877 0.170658 1.61501 0
M  V30 1558 H 145.874 -2.27326 3.49469 0
M  V30 1559 H 144.534 -2.27365 2.31809 0
M  V30 1560 H 145.545 0.0687731 5.17854 0
M  V30 1561 H 142.222 -2.01522 3.65644 0
M  V30 1562 H 143.612 0.659278 6.68658 0
M  V30 1563 N 146.332 -1.57332 0.0918853 0
M  V30 1564 C 147.578 -1.94524 -0.573425 0
M  V30 1565 C 147.911 -0.973578 -1.68033 0
M  V30 1566 O 147.186 -0.00609226 -1.94499 0
M  V30 1567 C 147.469 -3.41858 -1.13161 0
M  V30 1568 C 147.322 -4.4979 -0.0299747 0
M  V30 1569 C 148.641 -3.90435 -2.03098 0
M  V30 1570 H 145.76 -0.70734 -0.206975 0
M  V30 1571 H 148.402 -1.89309 0.161942 0
M  V30 1572 H 146.552 -3.46433 -1.7583 0
M  V30 1573 H 148.224 -4.57327 0.604112 0
M  V30 1574 H 146.467 -4.291 0.636833 0
M  V30 1575 H 147.138 -5.50069 -0.461287 0
M  V30 1576 H 149.614 -3.87992 -1.50338 0
M  V30 1577 H 148.49 -4.94097 -2.39081 0
M  V30 1578 H 148.751 -3.29541 -2.94712 0
M  V30 1579 N 147.81 0.181792 -1.56548 0
M  V30 1580 C 148.757 1.22521 -1.95595 0
M  V30 1581 C 149.727 1.4454 -0.818373 0
M  V30 1582 O 150.912 1.57454 -1.07763 0
M  V30 1583 C 148.052 2.56193 -2.31212 0
M  V30 1584 C 147.165 2.41641 -3.58097 0
M  V30 1585 C 146.3 3.68108 -3.82975 0
M  V30 1586 C 145.339 3.48445 -5.03242 0
M  V30 1587 N 144.476 4.66956 -5.24306 0
M  V30 1588 H 149.316 0.885226 -2.84548 0
M  V30 1589 H 146.853 0.425718 -1.40805 0
M  V30 1590 H 148.811 3.34088 -2.49882 0
M  V30 1591 H 147.441 2.88208 -1.45382 0
M  V30 1592 H 146.493 1.54976 -3.474 0
M  V30 1593 H 147.805 2.23052 -4.46149 0
M  V30 1594 H 146.959 4.54441 -4.01956 0
M  V30 1595 H 145.698 3.89666 -2.93278 0
M  V30 1596 H 144.703 2.60499 -4.8417 0
M  V30 1597 H 145.928 3.2832 -5.9446 0
M  V30 1598 H 143.874 4.88752 -4.37559 0
M  V30 1599 H 143.791 4.51242 -6.06561 0
M  V30 1600 H 145.059 5.54602 -5.47756 0
M  V30 1601 N 149.288 1.51039 0.449983 0
M  V30 1602 C 150.198 1.74261 1.57067 0
M  V30 1603 C 151.214 0.626363 1.62335 0
M  V30 1604 O 152.39 0.907162 1.79812 0
M  V30 1605 C 149.455 1.85114 2.93144 0
M  V30 1606 C 148.516 3.0893 2.98095 0
M  V30 1607 C 147.749 3.19256 4.27681 0
M  V30 1608 O 147.972 2.35835 5.19363 0
M  V30 1609 O 146.906 4.12144 4.38658 0
M  V30 1610 H 150.732 2.69303 1.40391 0
M  V30 1611 H 148.317 1.35389 0.631688 0
M  V30 1612 H 150.199 1.94311 3.73926 0
M  V30 1613 H 148.874 0.932588 3.09975 0
M  V30 1614 H 147.781 3.0522 2.16314 0
M  V30 1615 H 149.114 4.00433 2.86206 0
M  V30 1616 N 150.766 -0.704594 1.40972 0
M  V30 1617 C 151.729 -1.80035 1.41845 0
M  V30 1618 C 152.729 -1.57774 0.310474 0
M  V30 1619 O 153.919 -1.64613 0.56992 0
M  V30 1620 C 151.051 -3.18284 1.22098 0
M  V30 1621 H 152.244 -1.80658 2.3938 0
M  V30 1622 H 149.797 -0.911329 1.26982 0
M  V30 1623 H 150.532 -3.23306 0.253672 0
M  V30 1624 H 150.317 -3.35843 2.02366 0
M  V30 1625 H 151.807 -3.98289 1.25522 0
M  V30 1626 N 152.244 -1.26651 -0.937939 0
M  V30 1627 C 153.492 -1.12165 -1.68118 0
M  V30 1628 C 153.813 0.334983 -1.92101 0
M  V30 1629 O 153.083 1.23583 -1.52 0
M  V30 1630 H 151.663 -0.412093 -0.623048 0
M  V30 1631 H 154.325 -1.59027 -1.12678 0
M  V30 1632 H 153.421 -1.64289 -2.6536 0
M  V30 1633 N 153.722 1.14298 -1.08507 0
M  V30 1634 C 154.652 2.21542 -0.737646 0
M  V30 1635 C 155.633 1.67773 0.280377 0
M  V30 1636 O 156.818 1.93616 0.150521 0
M  V30 1637 C 153.948 3.46988 -0.147259 0
M  V30 1638 C 152.902 4.13789 -1.09374 0
M  V30 1639 C 152.228 5.33449 -0.365524 0
M  V30 1640 C 153.528 4.62208 -2.4323 0
M  V30 1641 H 155.222 2.5086 -1.6343 0
M  V30 1642 H 152.768 1.20576 -0.787243 0
M  V30 1643 H 154.721 4.21262 0.107808 0
M  V30 1644 H 153.445 3.17037 0.784538 0
M  V30 1645 H 152.104 3.4147 -1.33393 0
M  V30 1646 H 151.752 4.99759 0.57011 0
M  V30 1647 H 151.452 5.79088 -0.996512 0
M  V30 1648 H 152.976 6.10485 -0.118534 0
M  V30 1649 H 154.39 5.27952 -2.23472 0
M  V30 1650 H 152.787 5.18553 -3.02031 0
M  V30 1651 H 153.857 3.77224 -3.04681 0
M  V30 1652 N 155.201 0.870884 1.31352 0
M  V30 1653 C 156.448 0.482273 1.96673 0
M  V30 1654 C 156.776 -0.965638 1.68836 0
M  V30 1655 O 156.031 -1.69514 0.977937 0
M  V30 1656 C 156.33 0.687157 3.50732 0
M  V30 1657 C 155.996 2.108 3.9859 0
M  V30 1658 C 154.658 2.49656 4.1137 0
M  V30 1659 C 157.01 3.03459 4.23748 0
M  V30 1660 C 154.338 3.80412 4.46659 0
M  V30 1661 C 156.69 4.3373 4.60501 0
M  V30 1662 C 155.354 4.725 4.71487 0
M  V30 1663 H 154.624 0.176476 0.719679 0
M  V30 1664 H 157.271 1.10405 1.56471 0
M  V30 1665 H 155.576 -0.0177476 3.91796 0
M  V30 1666 H 157.273 0.366284 3.99324 0
M  V30 1667 H 153.863 1.79633 3.8914 0
M  V30 1668 H 158.047 2.74665 4.13368 0
M  V30 1669 H 153.303 4.1021 4.53362 0
M  V30 1670 H 157.477 5.05578 4.78919 0
M  V30 1671 H 155.104 5.73859 4.98588 0
M  V30 1672 N 156.679 -1.44442 0.630414 0
M  V30 1673 C 157.927 -2.01653 0.134351 0
M  V30 1674 C 158.248 -1.49836 -1.24796 0
M  V30 1675 O 157.518 -0.701684 -1.82902 0
M  V30 1676 H 156.098 -0.74554 0.0466769 0
M  V30 1677 H 158.76 -1.76952 0.816955 0
M  V30 1678 H 157.856 -3.11935 0.101498 0
M  V30 1679 N 158.157 -0.370918 -1.53173 0
M  V30 1680 C 159.087 0.464847 -2.28826 0
M  V30 1681 C 160.068 1.07936 -1.31468 0
M  V30 1682 O 161.253 1.0956 -1.60344 0
M  V30 1683 C 158.383 1.60196 -3.08147 0
M  V30 1684 C 157.337 1.11443 -4.13237 0
M  V30 1685 C 156.663 2.3422 -4.80672 0
M  V30 1686 C 157.963 0.195384 -5.21934 0
M  V30 1687 H 159.657 -0.166329 -2.98938 0
M  V30 1688 H 157.203 -0.0814359 -1.4377 0
M  V30 1689 H 159.156 2.19332 -3.59822 0
M  V30 1690 H 157.88 2.26045 -2.35735 0
M  V30 1691 H 156.539 0.545727 -3.62515 0
M  V30 1692 H 156.187 2.98537 -4.04827 0
M  V30 1693 H 155.887 2.02269 -5.51689 0
M  V30 1694 H 157.411 2.94032 -5.35143 0
M  V30 1695 H 158.825 0.694375 -5.69079 0
M  V30 1696 H 157.222 -0.0335027 -6.00091 0
M  V30 1697 H 158.292 -0.760961 -4.78892 0
M  V30 1698 N 159.635 1.57281 -0.100228 0
M  V30 1699 C 160.881 1.94826 0.563101 0
M  V30 1700 C 161.214 0.982475 1.67514 0
M  V30 1701 O 160.489 0.0164069 1.94493 0
M  V30 1702 C 160.772 3.42453 1.11346 0
M  V30 1703 C 160.625 4.498 0.00612081 0
M  V30 1704 C 161.944 3.91506 2.01024 0
M  V30 1705 H 159.063 0.708428 0.203221 0
M  V30 1706 H 161.705 1.8922 -0.171979 0
M  V30 1707 H 159.855 3.47361 1.7399 0
M  V30 1708 H 161.527 4.57 -0.628357 0
M  V30 1709 H 159.77 4.28756 -0.659581 0
M  V30 1710 H 160.441 5.50306 0.432109 0
M  V30 1711 H 162.917 3.88784 1.48278 0
M  V30 1712 H 161.793 4.95358 2.36457 0
M  V30 1713 H 162.054 3.31099 2.92961 0
M  V30 1714 N 161.113 -0.173488 1.56642 0
M  V30 1715 C 162.061 -1.23417 1.97157 0
M  V30 1716 C 163.055 -1.45946 0.860013 0
M  V30 1717 O 164.261 -1.46551 1.04512 0
M  V30 1718 H 160.636 -0.414818 0.62724 0
M  V30 1719 H 162.607 -0.865582 2.8557 0
M  V30 1720 C 161.356 -2.5665 2.34576 0
M  V30 1721 H 160.679 -2.40137 3.19647 0
M  V30 1722 H 162.119 -3.2956 2.6677 0
M  V30 1723 C 160.578 -3.15245 1.18836 0
M  V30 1724 O 161.108 -3.98883 0.474869 0
M  V30 1725 N 159.314 -2.74303 0.959497 0
M  V30 1726 H 158.861 -2.0639 1.54146 0
M  V30 1727 H 158.819 -3.13844 0.186932 0
M  V30 1728 N 162.591 -1.51276 -0.441967 0
M  V30 1729 C 163.539 -1.72823 -1.55676 0
M  V30 1730 C 164.533 -0.59445 -1.58627 0
M  V30 1731 O 165.739 -0.775715 -1.62427 0
M  V30 1732 H 162.114 -0.545983 -0.517113 0
M  V30 1733 H 164.085 -2.6628 -1.34675 0
M  V30 1734 C 162.834 -1.86619 -2.93375 0
M  V30 1735 H 162.157 -2.73264 -2.91834 0
M  V30 1736 H 163.597 -2.05709 -3.70756 0
M  V30 1737 C 162.056 -0.624842 -3.31055 0
M  V30 1738 O 162.586 0.222636 -4.01083 0
M  V30 1739 N 160.792 -0.470288 -2.86769 0
M  V30 1740 H 160.339 -1.161 -2.29953 0
M  V30 1741 H 160.297 0.359051 -3.12343 0
M  V30 1742 N 164.069 0.697108 -1.41344 0
M  V30 1743 C 165.032 1.79281 -1.42797 0
M  V30 1744 C 166.032 1.57607 -0.318837 0
M  V30 1745 O 167.222 1.64309 -0.578642 0
M  V30 1746 C 164.354 3.17632 -1.23785 0
M  V30 1747 H 165.547 1.79385 -2.40335 0
M  V30 1748 H 163.1 0.904582 -1.27464 0
M  V30 1749 H 163.835 3.23167 -0.270814 0
M  V30 1750 H 163.62 3.34765 -2.04144 0
M  V30 1751 H 165.11 3.97617 -1.27633 0
M  V30 1752 N 165.547 1.27147 0.931209 0
M  V30 1753 C 166.795 1.13055 1.6752 0
M  V30 1754 C 167.116 -0.324791 1.92276 0
M  V30 1755 O 166.386 -1.22775 1.52654 0
M  V30 1756 H 164.966 0.415391 0.620854 0
M  V30 1757 H 167.628 1.59623 1.11833 0
M  V30 1758 H 166.724 1.65694 2.64485 0
M  V30 1759 N 167.025 -1.13721 1.09112 0
M  V30 1760 C 168.271 -1.85198 0.826414 0
M  V30 1761 C 168.604 -1.83129 -0.646319 0
M  V30 1762 O 167.879 -1.2671 -1.47563 0
M  V30 1763 C 168.162 -3.33507 1.35812 0
M  V30 1764 C 168.015 -3.44108 2.89672 0
M  V30 1765 C 169.334 -4.28838 0.989256 0
M  V30 1766 H 166.453 -0.67243 0.301675 0
M  V30 1767 H 169.095 -1.33499 1.35197 0
M  V30 1768 H 167.245 -3.77666 0.911082 0
M  V30 1769 H 168.917 -3.08684 3.428 0
M  V30 1770 H 167.16 -2.85087 3.26967 0
M  V30 1771 H 167.831 -4.48388 3.21951 0
M  V30 1772 H 170.307 -3.92734 1.37475 0
M  V30 1773 H 169.183 -5.31051 1.38838 0
M  V30 1774 H 169.444 -4.4198 -0.102924 0
M  V30 1775 N 168.503 -0.877838 -1.30888 0
M  V30 1776 C 169.466 -0.344265 -2.266 0
M  V30 1777 C 170.466 0.50922 -1.52524 0
M  V30 1778 O 171.656 0.317398 -1.71284 0
M  V30 1779 C 168.788 0.510198 -3.37061 0
M  V30 1780 H 169.981 -1.1893 -2.7531 0
M  V30 1781 H 167.534 -0.654088 -1.41956 0
M  V30 1782 H 168.269 1.37612 -2.93655 0
M  V30 1783 H 168.054 -0.101047 -3.9197 0
M  V30 1784 H 169.544 0.875537 -4.08319 0
M  V30 1785 N 169.982 1.44106 -0.638065 0
M  V30 1786 C 171.23 2.01579 -0.145043 0
M  V30 1787 C 171.551 1.50496 1.24 0
M  V30 1788 O 170.821 0.711374 1.82527 0
M  V30 1789 H 169.401 0.745282 -0.05063 0
M  V30 1790 H 172.063 1.76516 -0.826327 0
M  V30 1791 H 171.159 3.11877 -0.118039 0
M  V30 1792 N 171.46 0.379036 1.52974 0
M  V30 1793 C 172.709 -0.207612 2.00629 0
M  V30 1794 C 173.022 -1.48758 1.27006 0
M  V30 1795 O 174.228 -2.15365 1.65318 0
M  V30 1796 C 172.684 -0.42053 3.57435 0
M  V30 1797 C 172.292 0.845587 4.39948 0
M  V30 1798 C 174.036 -0.964102 4.13407 0
M  V30 1799 C 171.943 0.601513 5.88333 0
M  V30 1800 H 170.873 -0.0813591 0.749598 0
M  V30 1801 H 173.524 0.499853 1.76561 0
M  V30 1802 H 171.906 -1.18959 3.7771 0
M  V30 1803 H 173.08 1.61848 4.31442 0
M  V30 1804 H 171.395 1.31336 3.95145 0
M  V30 1805 H 173.992 -1.16225 5.21916 0
M  V30 1806 H 174.335 -1.93019 3.68849 0
M  V30 1807 H 174.868 -0.25487 3.96983 0
M  V30 1808 H 171.607 1.53831 6.37194 0
M  V30 1809 H 171.127 -0.132628 5.99653 0
M  V30 1810 H 172.806 0.232134 6.46583 0
M  V30 1811 N 172.938 -1.57226 0.108567 0
M  V30 1812 C 174.187 -1.94008 -0.551703 0
M  V30 1813 C 174.5 -0.993442 -1.68494 0
M  V30 1814 O 175.706 -1.25551 -2.40726 0
M  V30 1815 C 174.162 -3.44763 -1.03279 0
M  V30 1816 C 173.77 -4.47943 0.0714193 0
M  V30 1817 C 175.514 -3.90483 -1.66503 0
M  V30 1818 C 173.421 -5.89865 -0.425779 0
M  V30 1819 H 172.351 -0.724206 -0.209863 0
M  V30 1820 H 175.002 -1.82547 0.186741 0
M  V30 1821 H 173.384 -3.51422 -1.82533 0
M  V30 1822 H 174.558 -4.52942 0.847365 0
M  V30 1823 H 172.873 -4.11913 0.609669 0
M  V30 1824 H 175.47 -4.93925 -2.04798 0
M  V30 1825 H 175.813 -3.29877 -2.53942 0
M  V30 1826 H 176.346 -3.86581 -0.938074 0
M  V30 1827 H 173.085 -6.54202 0.412316 0
M  V30 1828 H 172.605 -5.88309 -1.16843 0
M  V30 1829 H 174.284 -6.40844 -0.890397 0
M  V30 1830 N 174.416 0.165178 -1.56732 0
M  V30 1831 C 175.664 0.879068 -1.8198 0
M  V30 1832 C 175.985 1.82514 -0.686561 0
M  V30 1833 O 175.255 1.93694 0.293146 0
M  V30 1834 H 173.835 0.327608 -0.671329 0
M  V30 1835 H 176.497 0.163526 -1.94213 0
M  V30 1836 H 175.593 1.45228 -2.76252 0
M  V30 1837 N 175.894 1.51508 0.433938 0
M  V30 1838 C 177.305 1.56784 1.01369 0
M  V30 1839 C 177.656 0.393349 1.92217 0
M  V30 1840 O 176.781 -0.489441 2.10792 0
M  V30 1841 C 177.376 2.84144 1.8452 0
M  V30 1842 C 175.935 2.9198 2.37539 0
M  V30 1843 C 175.082 2.51482 1.16843 0
M  V30 1844 H 178.033 1.57236 0.215081 0
M  V30 1845 H 178.054 2.68098 2.70007 0
M  V30 1846 H 177.566 3.69607 1.18373 0
M  V30 1847 H 175.667 2.10955 3.0713 0
M  V30 1848 H 175.78 3.95704 2.70103 0
M  V30 1849 H 174.144 2.04758 1.51481 0
M  V30 1850 H 174.927 3.39293 0.523015 0
M  V30 1851 N 177.372 -0.689602 1.41712 0
M  V30 1852 C 178.6 -1.47827 1.44758 0
M  V30 1853 C 179.015 -1.88721 0.0545703 0
M  V30 1854 O 178.372 -1.57176 -0.927463 0
M  V30 1855 C 178.423 -2.73698 2.3616 0
M  V30 1856 O 178.144 -2.34524 3.7004 0
M  V30 1857 C 179.645 -3.67389 2.48072 0
M  V30 1858 H 176.865 -0.455357 0.49284 0
M  V30 1859 H 179.409 -0.848574 1.86063 0
M  V30 1860 H 177.564 -3.32891 1.98148 0
M  V30 1861 H 177.978 -3.15701 4.18847 0
M  V30 1862 H 179.452 -4.52475 3.16181 0
M  V30 1863 H 179.929 -4.12284 1.51388 0
M  V30 1864 H 180.535 -3.14097 2.86746 0
M  V30 1865 N 178.85 -1.27639 -0.924453 0
M  V30 1866 C 180.261 -1.12834 -1.48746 0
M  V30 1867 C 180.612 0.285505 -1.94112 0
M  V30 1868 O 179.737 1.17874 -1.81479 0
M  V30 1869 C 180.332 -2.04217 -2.70334 0
M  V30 1870 C 178.891 -1.93509 -3.22848 0
M  V30 1871 C 178.038 -1.96583 -1.95577 0
M  V30 1872 H 180.989 -1.40484 -0.738233 0
M  V30 1873 H 181.01 -1.59989 -3.4523 0
M  V30 1874 H 180.522 -3.07111 -2.37285 0
M  V30 1875 H 178.623 -0.936131 -3.60649 0
M  V30 1876 H 178.736 -2.79917 -3.88823 0
M  V30 1877 H 177.1 -1.4085 -2.12211 0
M  V30 1878 H 177.883 -3.01137 -1.64837 0
M  V30 1879 N 180.328 1.1314 -1.09713 0
M  V30 1880 C 181.574 1.84967 -0.846104 0
M  V30 1881 C 181.929 1.82082 0.621601 0
M  V30 1882 O 181.222 1.2501 1.452 0
M  V30 1883 C 181.416 3.32167 -1.3191 0
M  V30 1884 C 181.245 3.49386 -2.83125 0
M  V30 1885 C 180.015 3.63456 -3.51038 0
M  V30 1886 C 182.213 3.45179 -3.81256 0
M  V30 1887 N 180.195 3.68966 -4.9065 0
M  V30 1888 C 181.566 3.57094 -5.06837 0
M  V30 1889 C 183.621 3.28598 -3.74069 0
M  V30 1890 C 182.324 3.5414 -6.26081 0
M  V30 1891 C 184.35 3.26953 -4.92804 0
M  V30 1892 C 183.712 3.39422 -6.17229 0
M  V30 1893 H 179.811 0.692899 -0.362512 0
M  V30 1894 H 182.395 1.35506 -1.39808 0
M  V30 1895 H 180.566 3.80186 -0.794535 0
M  V30 1896 H 182.298 3.91815 -1.01308 0
M  V30 1897 H 179.053 3.65256 -3.01471 0
M  V30 1898 H 179.477 3.75404 -5.63383 0
M  V30 1899 H 184.119 3.17858 -2.78794 0
M  V30 1900 H 181.837 3.63653 -7.21653 0
M  V30 1901 H 185.423 3.15316 -4.88945 0
M  V30 1902 H 184.303 3.38114 -7.07565 0
M  V30 1903 N 181.806 0.884767 1.30421 0
M  V30 1904 C 182.736 0.367574 2.30589 0
M  V30 1905 C 183.717 -0.549464 1.60981 0
M  V30 1906 O 184.902 -0.46336 1.88591 0
M  V30 1907 C 182.032 -0.418944 3.44764 0
M  V30 1908 C 180.986 0.406316 4.26067 0
M  V30 1909 C 180.312 -0.506793 5.32293 0
M  V30 1910 C 181.612 1.64832 4.95608 0
M  V30 1911 H 183.306 1.20462 2.74097 0
M  V30 1912 H 180.852 0.580695 1.31772 0
M  V30 1913 H 182.805 -0.791395 4.13902 0
M  V30 1914 H 181.529 -1.28964 3.0006 0
M  V30 1915 H 180.188 0.760903 3.58617 0
M  V30 1916 H 179.836 -1.37519 4.83836 0
M  V30 1917 H 179.536 0.0415828 5.87585 0
M  V30 1918 H 181.06 -0.875764 6.04287 0
M  V30 1919 H 182.474 1.34646 5.57264 0
M  V30 1920 H 180.871 2.13688 5.60765 0
M  V30 1921 H 181.941 2.39284 4.21748 0
M  V30 1922 N 183.284 -1.43765 0.645699 0
M  V30 1923 C 184.512 -2.06253 0.163556 0
M  V30 1924 C 184.927 -1.48352 -1.16778 0
M  V30 1925 O 184.284 -0.611932 -1.71935 0
M  V30 1926 C 184.335 -3.61453 0.0583186 0
M  V30 1927 O 184.056 -4.172 1.33702 0
M  V30 1928 C 185.557 -4.41002 -0.450795 0
M  V30 1929 H 182.777 -0.665413 0.0864077 0
M  V30 1930 H 185.321 -1.84396 0.884222 0
M  V30 1931 H 183.476 -3.82522 -0.612865 0
M  V30 1932 H 183.89 -5.10791 1.19131 0
M  V30 1933 H 185.364 -5.49966 -0.473403 0
M  V30 1934 H 185.841 -4.13488 -1.48068 0
M  V30 1935 H 186.447 -4.24886 0.187637 0
M  V30 1936 N 184.763 -0.387143 -1.52771 0
M  V30 1937 C 186.179 -0.037007 -1.59557 0
M  V30 1938 C 186.379 1.44801 -1.40124 0
M  V30 1939 O 185.435 2.21227 -1.21716 0
M  V30 1940 C 186.748 -0.512256 -2.96305 0
M  V30 1941 C 188.296 -0.468328 -3.09476 0
M  V30 1942 C 188.771 -0.919731 -4.4867 0
M  V30 1943 N 190.262 -0.875656 -4.54848 0
M  V30 1944 C 190.997 -1.19637 -5.6078 0
M  V30 1945 N 190.493 -1.58745 -6.74368 0
M  V30 1946 N 192.286 -1.11776 -5.50874 0
M  V30 1947 H 184.437 -1.35395 -1.63652 0
M  V30 1948 H 186.7 -0.554818 -0.768688 0
M  V30 1949 H 186.406 -1.54935 -3.15734 0
M  V30 1950 H 186.28 0.089805 -3.77093 0
M  V30 1951 H 188.667 0.559671 -2.89744 0
M  V30 1952 H 188.748 -1.10616 -2.30646 0
M  V30 1953 H 188.392 -1.94595 -4.69143 0
M  V30 1954 H 188.322 -0.258927 -5.25963 0
M  V30 1955 H 190.813 -0.587843 -3.733 0
M  V30 1956 H 191.126 -1.81586 -7.51163 0
M  V30 1957 H 189.471 -1.6263 -6.75705 0
M  V30 1958 H 192.662 -0.811264 -4.61016 0
M  V30 1959 H 192.835 -1.37103 -6.3333 0
M  V30 1960 N 186.241 1.57166 -0.116904 0
M  V30 1961 C 187.518 1.86645 0.585049 0
M  V30 1962 C 187.898 1.0177 1.84949 0
M  V30 1963 O 187.246 0.0960379 2.28298 0
M  V30 1964 C 187.456 3.37736 0.879507 0
M  V30 1965 C 188.804 4.06289 1.23348 0
M  V30 1966 O 189.828 3.42743 0.969836 0
M  V30 1967 O 188.687 5.18455 1.7282 0
M  V30 1968 H 185.781 0.772593 0.295007 0
M  V30 1969 H 188.327 1.69025 -0.151249 0
M  V30 1970 H 187.099 3.91296 -0.0166136 0
M  V30 1971 H 186.722 3.6078 1.67103 0
M  V30 1972 N 187.719 -0.156864 1.56817 0
M  V30 1973 C 188.996 -0.899244 1.73704 0
M  V30 1974 C 189.376 -1.99771 0.682254 0
M  V30 1975 O 188.724 -2.26515 -0.300522 0
M  V30 1976 C 188.934 -1.45075 3.17418 0
M  V30 1977 C 190.282 -1.91802 3.7881 0
M  V30 1978 O 191.306 -1.54838 3.20786 0
M  V30 1979 O 190.165 -2.5994 4.80722 0
M  V30 1980 H 187.259 -0.424267 0.709878 0
M  V30 1981 H 189.805 -0.143561 1.69092 0
M  V30 1982 H 188.577 -0.660846 3.85679 0
M  V30 1983 H 188.2 -2.27021 3.26416 0
M  V30 1984 N 189.197 -1.51736 -0.425897 0
M  V30 1985 C 190.444 -1.6497 -1.17436 0
M  V30 1986 C 190.772 -0.371445 -1.9092 0
M  V30 1987 O 190.027 0.644963 -1.84767 0
M  V30 1988 C 190.326 -2.81103 -2.20717 0
M  V30 1989 C 189.992 -4.19954 -1.64162 0
M  V30 1990 C 188.654 -4.57725 -1.48462 0
M  V30 1991 C 191.006 -5.06552 -1.22696 0
M  V30 1992 C 188.334 -5.79789 -0.897873 0
M  V30 1993 C 190.686 -6.29205 -0.654464 0
M  V30 1994 C 189.35 -6.6574 -0.484456 0
M  V30 1995 H 188.62 -0.603668 -0.429727 0
M  V30 1996 H 191.267 -1.85798 -0.463829 0
M  V30 1997 H 189.572 -2.54542 -2.97852 0
M  V30 1998 H 191.269 -2.8854 -2.78471 0
M  V30 1999 H 187.859 -3.90181 -1.77361 0
M  V30 2000 H 192.043 -4.77968 -1.33642 0
M  V30 2001 H 187.299 -6.06733 -0.75402 0
M  V30 2002 H 191.473 -6.95643 -0.324694 0
M  V30 2003 H 189.1 -7.60195 -0.0276833 0
M  V30 2004 N 190.675 0.682077 -1.42076 0
M  V30 2005 C 191.607 1.80755 -1.40926 0
M  V30 2006 C 192.62 1.59833 -0.309398 0
M  V30 2007 O 193.809 1.69087 -0.572014 0
M  V30 2008 C 190.909 3.17744 -1.17865 0
M  V30 2009 C 190.082 3.65578 -2.40149 0
M  V30 2010 C 189.141 4.81277 -2.12742 0
M  V30 2011 O 188.167 4.92197 -2.85887 0
M  V30 2012 N 189.369 5.69474 -1.12602 0
M  V30 2013 H 192.134 1.82229 -2.37935 0
M  V30 2014 H 189.695 0.864903 -1.36861 0
M  V30 2015 H 191.687 3.9279 -0.9746 0
M  V30 2016 H 190.257 3.11214 -0.294068 0
M  V30 2017 H 189.477 2.81291 -2.76169 0
M  V30 2018 H 190.765 3.94278 -3.21593 0
M  V30 2019 H 190.163 5.63297 -0.520899 0
M  V30 2020 H 188.72 6.44363 -0.981842 0
M  V30 2021 N 192.153 1.28127 0.917671 0
M  V30 2022 C 193.569 1.05749 1.19538 0
M  V30 2023 C 193.769 -0.202633 2.00479 0
M  V30 2024 O 192.825 -0.905382 2.3571 0
M  V30 2025 C 194.138 2.30273 1.93378 0
M  V30 2026 C 195.686 2.35412 2.06277 0
M  V30 2027 C 196.161 3.59692 2.83524 0
M  V30 2028 N 197.652 3.60309 2.91087 0
M  V30 2029 C 198.387 4.53147 3.51348 0
M  V30 2030 N 197.883 5.563 4.12919 0
M  V30 2031 N 199.676 4.40751 3.48849 0
M  V30 2032 H 191.827 2.09024 0.377184 0
M  V30 2033 H 194.09 0.919798 0.22951 0
M  V30 2034 H 193.796 3.22055 1.41328 0
M  V30 2035 H 193.67 2.36378 2.93947 0
M  V30 2036 H 196.057 1.4413 2.57508 0
M  V30 2037 H 196.138 2.33304 1.04895 0
M  V30 2038 H 195.782 4.51316 2.32973 0
M  V30 2039 H 195.712 3.59054 3.85211 0
M  V30 2040 H 198.203 2.85714 2.47338 0
M  V30 2041 H 198.516 6.2329 4.56869 0
M  V30 2042 H 196.861 5.60131 4.11435 0
M  V30 2043 H 200.052 3.59367 2.99955 0
M  V30 2044 H 200.225 5.13291 3.9552 0
M  V30 2045 N 193.631 -1.12557 1.10312 0
M  V30 2046 C 194.877 -1.84311 0.846011 0
M  V30 2047 C 195.21 -1.83805 -0.626859 0
M  V30 2048 O 194.485 -1.28268 -1.46211 0
M  V30 2049 C 194.768 -3.32048 1.39341 0
M  V30 2050 C 194.621 -3.41016 2.93305 0
M  V30 2051 C 195.94 -4.27764 1.03468 0
M  V30 2052 H 193.059 -0.669192 0.30879 0
M  V30 2053 H 195.701 -1.32057 1.36605 0
M  V30 2054 H 193.851 -3.76678 0.951087 0
M  V30 2055 H 195.523 -3.05031 3.46055 0
M  V30 2056 H 193.766 -2.81603 3.29973 0
M  V30 2057 H 194.437 -4.44948 3.26689 0
M  V30 2058 H 196.913 -3.91253 1.41633 0
M  V30 2059 H 195.789 -5.29549 1.44463 0
M  V30 2060 H 196.05 -4.42064 -0.0560404 0
M  V30 2061 N 195.109 -0.891671 -1.2995 0
M  V30 2062 C 196.039 -0.379797 -2.30391 0
M  V30 2063 C 197.02 0.540919 -1.6127 0
M  V30 2064 O 198.205 0.453352 -1.88834 0
M  V30 2065 C 195.335 0.400654 -3.44981 0
M  V30 2066 C 194.289 -0.428905 -4.25846 0
M  V30 2067 C 193.615 0.478557 -5.32554 0
M  V30 2068 C 194.915 -1.67458 -4.94727 0
M  V30 2069 H 196.609 -1.21914 -2.73454 0
M  V30 2070 H 194.155 -0.587675 -1.31462 0
M  V30 2071 H 196.108 0.769434 -4.14316 0
M  V30 2072 H 194.832 1.27371 -3.0074 0
M  V30 2073 H 193.491 -0.779911 -3.58208 0
M  V30 2074 H 193.139 1.34951 -4.84559 0
M  V30 2075 H 192.839 -0.0727433 -5.87555 0
M  V30 2076 H 194.363 0.843705 -6.04743 0
M  V30 2077 H 195.777 -1.376 -5.56542 0
M  V30 2078 H 194.174 -2.16659 -5.59624 0
M  V30 2079 H 195.244 -2.41518 -4.20473 0
M  V30 2080 N 196.587 1.43421 -0.653314 0
M  V30 2081 C 197.535 2.32546 0.0501531 0
M  V30 2082 C 198.529 1.48617 0.812985 0
M  V30 2083 O 199.735 1.64825 0.723375 0
M  V30 2084 H 196.11 0.751185 0.0350032 0
M  V30 2085 H 198.081 2.89602 -0.719261 0
M  V30 2086 C 196.83 3.32925 1.00279 0
M  V30 2087 H 196.153 3.97532 0.425236 0
M  V30 2088 H 197.593 3.9792 1.46409 0
M  V30 2089 C 196.052 2.63532 2.09886 0
M  V30 2090 O 196.582 2.45092 3.18265 0
M  V30 2091 N 194.788 2.22905 1.86445 0
M  V30 2092 H 194.335 2.38103 0.98309 0
M  V30 2093 H 194.293 1.76805 2.59976 0
M  V30 2094 N 198.065 0.39524 1.52563 0
M  V30 2095 C 199.311 -0.185318 2.01952 0
M  V30 2096 C 199.644 -1.45964 1.28095 0
M  V30 2097 O 198.919 -1.90689 0.38315 0
M  V30 2098 C 199.202 -0.447193 3.57312 0
M  V30 2099 C 199.055 0.842828 4.41833 0
M  V30 2100 C 200.374 -1.23529 4.22408 0
M  V30 2101 H 197.493 -0.0658788 0.73405 0
M  V30 2102 H 200.135 0.525975 1.82575 0
M  V30 2103 H 198.285 -1.05312 3.73954 0
M  V30 2104 H 199.957 1.4795 4.36931 0
M  V30 2105 H 198.2 1.45686 4.08605 0
M  V30 2106 H 198.871 0.614165 5.48573 0
M  V30 2107 H 201.347 -0.722445 4.0978 0
M  V30 2108 H 200.223 -1.38727 5.3108 0
M  V30 2109 H 200.484 -2.25213 3.80436 0
M  V30 2110 N 199.544 -1.57102 0.125237 0
M  V30 2111 C 200.492 -2.16905 -0.839927 0
M  V30 2112 C 201.486 -1.11998 -1.27094 0
M  V30 2113 O 202.692 -1.3029 -1.24195 0
M  V30 2114 H 199.067 -0.694252 -0.288995 0
M  V30 2115 H 201.038 -2.96774 -0.311115 0
M  V30 2116 C 199.787 -2.78795 -2.07771 0
M  V30 2117 H 199.11 -3.59221 -1.755 0
M  V30 2118 H 200.55 -3.2417 -2.73295 0
M  V30 2119 C 199.009 -1.76193 -2.87155 0
M  V30 2120 O 199.539 -1.21909 -3.82755 0
M  V30 2121 N 197.745 -1.45991 -2.51267 0
M  V30 2122 H 197.292 -1.90325 -1.73592 0
M  V30 2123 H 197.25 -0.775844 -3.04677 0
M  V30 2124 N 201.022 0.148545 -1.56898 0
M  V30 2125 C 202.25 0.876389 -1.87422 0
M  V30 2126 C 202.665 1.74809 -0.713256 0
M  V30 2127 O 202.022 1.79725 0.317025 0
M  V30 2128 C 202.073 1.73438 -3.17178 0
M  V30 2129 O 201.794 0.897809 -4.28802 0
M  V30 2130 C 203.295 2.56993 -3.61205 0
M  V30 2131 H 200.515 0.253489 -0.621277 0
M  V30 2132 H 203.059 0.141798 -2.04008 0
M  V30 2133 H 201.214 2.42205 -3.0235 0
M  V30 2134 H 201.628 1.48672 -5.02988 0
M  V30 2135 H 203.102 3.12773 -4.54838 0
M  V30 2136 H 203.579 3.32958 -2.86419 0
M  V30 2137 H 204.185 1.9352 -3.78722 0
M  V30 2138 N 202.5 1.5196 0.417844 0
M  V30 2139 C 203.433 1.69387 1.52916 0
M  V30 2140 C 204.411 0.541419 1.53321 0
M  V30 2141 O 205.595 0.767695 1.72159 0
M  V30 2142 C 202.722 1.72525 2.91467 0
M  V30 2143 C 201.768 2.93967 3.09008 0
M  V30 2144 S 202.601 4.54461 2.83242 0
M  V30 2145 C 203.757 4.60372 4.24038 0
M  V30 2146 H 203.99 2.63382 1.37903 0
M  V30 2147 H 201.523 1.41889 0.608845 0
M  V30 2148 H 203.481 1.75018 3.7132 0
M  V30 2149 H 202.142 0.796733 3.03827 0
M  V30 2150 H 201.335 2.92619 4.10353 0
M  V30 2151 H 200.937 2.89316 2.37007 0
M  V30 2152 H 203.229 4.37213 5.17544 0
M  V30 2153 H 204.172 5.62273 4.30412 0
M  V30 2154 H 204.58 3.89492 4.08602 0
M  V30 2155 N 203.978 -0.674533 1.42435 0
M  V30 2156 C 205.226 -1.43175 1.42637 0
M  V30 2157 C 205.547 -1.94951 0.0438992 0
M  V30 2158 O 204.817 -1.7308 -0.917607 0
M  V30 2159 H 203.397 -0.531307 0.525092 0
M  V30 2160 H 206.059 -0.797006 1.77859 0
M  V30 2161 H 205.155 -2.28463 2.12629 0
M  V30 2162 N 205.456 -1.28612 -0.910864 0
M  V30 2163 C 206.867 -1.14406 -1.47541 0
M  V30 2164 C 207.218 0.264901 -1.94403 0
M  V30 2165 O 206.343 1.15942 -1.82719 0
M  V30 2166 C 206.938 -2.07073 -2.68153 0
M  V30 2167 C 205.497 -1.96923 -3.20778 0
M  V30 2168 C 204.644 -1.98646 -1.93481 0
M  V30 2169 H 207.595 -1.41259 -0.723291 0
M  V30 2170 H 207.616 -1.63642 -3.43514 0
M  V30 2171 H 207.128 -3.09611 -2.34015 0
M  V30 2172 H 205.229 -0.97433 -3.59635 0
M  V30 2173 H 205.342 -2.84026 -3.85832 0
M  V30 2174 H 203.706 -1.43093 -2.10705 0
M  V30 2175 H 204.489 -3.02868 -1.61634 0
M  V30 2176 N 206.934 1.1197 -1.10907 0
M  V30 2177 C 208.183 1.82947 -0.849302 0
M  V30 2178 C 208.496 1.85275 0.627112 0
M  V30 2179 O 209.702 2.52296 1.00295 0
M  V30 2180 C 208.158 3.28529 -1.46959 0
M  V30 2181 C 207.766 3.34546 -2.97965 0
M  V30 2182 C 209.51 4.04443 -1.28942 0
M  V30 2183 C 207.417 4.74491 -3.53004 0
M  V30 2184 H 206.347 0.685477 -0.314065 0
M  V30 2185 H 208.998 1.2604 -1.33365 0
M  V30 2186 H 207.38 3.85333 -0.912917 0
M  V30 2187 H 208.554 2.87654 -3.59989 0
M  V30 2188 H 206.869 2.72108 -3.15192 0
M  V30 2189 H 209.466 5.07787 -1.67502 0
M  V30 2190 H 209.809 4.15656 -0.231456 0
M  V30 2191 H 210.342 3.5401 -1.81443 0
M  V30 2192 H 207.081 4.68474 -4.58489 0
M  V30 2193 H 206.601 5.21816 -2.9575 0
M  V30 2194 H 208.28 5.4344 -3.51115 0
M  V30 2195 N 208.412 0.89855 1.29475 0
M  V30 2196 C 209.66 0.522847 1.9522 0
M  V30 2197 C 209.981 -0.93371 1.71192 0
M  V30 2198 O 209.251 -1.65823 1.04305 0
M  V30 2199 H 207.831 0.190366 0.722336 0
M  V30 2200 H 210.493 1.14459 1.5775 0
M  V30 2201 H 209.589 0.704476 3.04045 0
M  V30 2202 N 209.89 -1.43072 0.660911 0
M  V30 2203 C 211.136 -2.0202 0.177708 0
M  V30 2204 C 211.469 -1.52066 -1.20787 0
M  V30 2205 O 210.744 -0.716987 -1.80802 0
M  V30 2206 C 211.027 -3.59561 0.197019 0
M  V30 2207 C 210.88 -4.19727 1.61706 0
M  V30 2208 C 212.199 -4.37664 -0.462396 0
M  V30 2209 H 209.318 -0.734034 0.0660494 0
M  V30 2210 H 211.96 -1.70272 0.843058 0
M  V30 2211 H 210.11 -3.86739 -0.369527 0
M  V30 2212 H 211.782 -4.03553 2.23479 0
M  V30 2213 H 210.025 -3.76084 2.16201 0
M  V30 2214 H 210.696 -5.28834 1.58237 0
M  V30 2215 H 213.172 -4.16095 0.0197215 0
M  V30 2216 H 212.048 -5.47305 -0.418188 0
M  V30 2217 H 212.309 -4.14493 -1.53778 0
M  V30 2218 N 211.368 -0.403325 -1.52352 0
M  V30 2219 C 212.596 0.174012 -2.06167 0
M  V30 2220 C 213.011 1.39347 -1.27388 0
M  V30 2221 O 212.368 1.79597 -0.324201 0
M  V30 2222 C 212.419 0.530223 -3.5759 0
M  V30 2223 O 212.14 -0.640806 -4.33388 0
M  V30 2224 C 213.641 1.16192 -4.27802 0
M  V30 2225 H 210.861 0.0229464 -0.670608 0
M  V30 2226 H 213.405 -0.572604 -1.9632 0
M  V30 2227 H 211.56 1.22673 -3.67464 0
M  V30 2228 H 211.974 -0.344851 -5.23365 0
M  V30 2229 H 213.448 1.36141 -5.34948 0
M  V30 2230 H 213.925 2.13335 -3.83907 0
M  V30 2231 H 214.531 0.505775 -4.22282 0
M  V30 2232 N 212.846 1.57033 -0.133567 0
M  V30 2233 C 213.776 2.1909 0.807567 0
M  V30 2234 C 214.757 1.13517 1.26681 0
M  V30 2235 O 215.942 1.41809 1.32679 0
M  V30 2236 C 213.072 2.80188 2.05212 0
M  V30 2237 C 212.026 3.91471 1.73015 0
M  V30 2238 C 211.352 4.39443 3.04622 0
M  V30 2239 C 212.652 5.12886 0.987168 0
M  V30 2240 H 214.346 2.97988 0.290403 0
M  V30 2241 H 211.892 1.43335 0.138239 0
M  V30 2242 H 213.845 3.22264 2.71521 0
M  V30 2243 H 212.569 1.98601 2.59278 0
M  V30 2244 H 211.228 3.49993 1.0909 0
M  V30 2245 H 210.876 3.54695 3.56651 0
M  V30 2246 H 210.576 5.14495 2.83847 0
M  V30 2247 H 212.1 4.8418 3.72024 0
M  V30 2248 H 213.514 5.51891 1.55208 0
M  V30 2249 H 211.911 5.93615 0.87985 0
M  V30 2250 H 212.981 4.84894 -0.0235286 0
M  V30 2251 N 214.325 -0.140222 1.56975 0
M  V30 2252 C 215.288 -1.15689 1.97861 0
M  V30 2253 C 216.288 -1.3549 0.865974 0
M  V30 2254 O 217.478 -1.32367 1.13246 0
M  V30 2255 C 214.61 -2.51582 2.30042 0
M  V30 2256 H 215.803 -0.805971 2.88867 0
M  V30 2257 H 213.356 -0.383801 1.51515 0
M  V30 2258 H 214.091 -2.91632 1.41849 0
M  V30 2259 H 213.876 -2.38569 3.11171 0
M  V30 2260 H 215.366 -3.24792 2.62488 0
M  V30 2261 N 215.803 -1.52179 -0.40978 0
M  V30 2262 C 216.733 -1.78435 -1.5061 0
M  V30 2263 C 217.714 -0.635295 -1.57791 0
M  V30 2264 O 218.899 -0.880823 -1.73076 0
M  V30 2265 C 216.029 -1.93444 -2.88439 0
M  V30 2266 C 214.983 -3.09038 -2.96108 0
M  V30 2267 C 214.309 -3.09268 -4.36185 0
M  V30 2268 C 215.609 -4.48508 -2.67652 0
M  V30 2269 H 217.303 -2.70237 -1.28889 0
M  V30 2270 H 214.849 -1.30036 -0.618605 0
M  V30 2271 H 216.802 -2.10394 -3.65119 0
M  V30 2272 H 215.526 -0.983129 -3.11452 0
M  V30 2273 H 214.185 -2.91837 -2.21872 0
M  V30 2274 H 213.833 -2.11861 -4.56206 0
M  V30 2275 H 213.533 -3.86907 -4.42241 0
M  V30 2276 H 215.057 -3.28348 -5.14801 0
M  V30 2277 H 216.471 -4.65918 -3.34056 0
M  V30 2278 H 214.868 -5.28059 -2.85085 0
M  V30 2279 H 215.938 -4.56649 -1.63095 0
M  V30 2280 N 217.281 0.66697 -1.42791 0
M  V30 2281 C 218.211 1.79218 -1.49677 0
M  V30 2282 C 219.192 1.66405 -0.352623 0
M  V30 2283 O 220.377 1.85708 -0.567993 0
M  V30 2284 C 217.507 3.17565 -1.40605 0
M  V30 2285 C 216.461 3.45124 -2.53127 0
M  V30 2286 C 215.787 4.83127 -2.29112 0
M  V30 2287 C 217.087 3.41236 -3.95418 0
M  V30 2288 H 218.781 1.73713 -2.43853 0
M  V30 2289 H 216.327 0.83432 -1.17367 0
M  V30 2290 H 218.28 3.96022 -1.44029 0
M  V30 2291 H 217.004 3.23767 -0.429271 0
M  V30 2292 H 215.663 2.69031 -2.49034 0
M  V30 2293 H 215.311 4.85988 -1.29709 0
M  V30 2294 H 215.011 5.02528 -3.04531 0
M  V30 2295 H 216.535 5.63859 -2.34297 0
M  V30 2296 H 217.949 4.09651 -4.01073 0
M  V30 2297 H 216.346 3.72173 -4.70752 0
M  V30 2298 H 217.416 2.39665 -4.21532 0
M  V30 2299 N 218.759 1.29093 0.90403 0
M  V30 2300 C 220.17 1.15186 1.46932 0
M  V30 2301 C 220.521 -0.254587 1.94541 0
M  V30 2302 O 219.646 -1.14972 1.83332 0
M  V30 2303 C 220.241 2.08492 2.67051 0
M  V30 2304 C 218.8 1.98621 3.19729 0
M  V30 2305 C 217.947 1.9967 1.92425 0
M  V30 2306 H 220.898 1.41641 0.715789 0
M  V30 2307 H 220.919 1.65461 3.42641 0
M  V30 2308 H 220.431 3.10847 2.3237 0
M  V30 2309 H 218.532 0.993389 3.59114 0
M  V30 2310 H 218.645 2.86068 3.8432 0
M  V30 2311 H 217.009 1.44208 2.09943 0
M  V30 2312 H 217.792 3.03721 1.60026 0
M  V30 2313 N 220.237 -1.11381 1.11499 0
M  V30 2314 C 221.167 -2.19509 0.796125 0
M  V30 2315 C 222.148 -1.68458 -0.235796 0
M  V30 2316 O 223.333 -1.93947 -0.0991344 0
M  V30 2317 C 220.463 -3.46475 0.239205 0
M  V30 2318 C 219.417 -4.10744 1.20307 0
M  V30 2319 C 218.743 -5.32293 0.50683 0
M  V30 2320 C 220.043 -4.55597 2.55399 0
M  V30 2321 H 221.737 -2.46439 1.70024 0
M  V30 2322 H 219.283 -1.18446 0.818935 0
M  V30 2323 H 221.236 -4.214 0.00392006 0
M  V30 2324 H 219.96 -3.19006 -0.700206 0
M  V30 2325 H 218.619 -3.37813 1.42399 0
M  V30 2326 H 218.267 -5.01095 -0.437408 0
M  V30 2327 H 217.967 -5.76243 1.1497 0
M  V30 2328 H 219.491 -6.09956 0.280351 0
M  V30 2329 H 220.905 -5.21841 2.37391 0
M  V30 2330 H 219.302 -5.10363 3.15673 0
M  V30 2331 H 220.372 -3.69013 3.14575 0
M  V30 2332 N 221.715 -0.905404 -1.28997 0
M  V30 2333 C 222.645 -0.404212 -2.29975 0
M  V30 2334 C 223.626 0.523784 -1.61835 0
M  V30 2335 O 224.811 0.433298 -1.89304 0
M  V30 2336 C 221.941 0.364042 -3.45387 0
M  V30 2337 C 220.895 -0.474048 -4.25367 0
M  V30 2338 C 220.221 0.422045 -5.33032 0
M  V30 2339 C 221.521 -1.72696 -4.92923 0
M  V30 2340 H 223.215 -1.24807 -2.72146 0
M  V30 2341 H 220.761 -0.601585 -1.30832 0
M  V30 2342 H 222.714 0.725447 -4.15109 0
M  V30 2343 H 221.438 1.24174 -3.02074 0
M  V30 2344 H 220.097 -0.81786 -3.57361 0
M  V30 2345 H 219.745 1.29804 -4.85963 0
M  V30 2346 H 219.445 -0.135057 -5.87445 0
M  V30 2347 H 220.969 0.779517 -6.05604 0
M  V30 2348 H 222.383 -1.43495 -5.55051 0
M  V30 2349 H 220.78 -2.22582 -5.57295 0
M  V30 2350 H 221.85 -2.45964 -4.17887 0
M  V30 2351 N 223.193 1.4272 -0.668489 0
M  V30 2352 C 224.125 2.2914 0.052613 0
M  V30 2353 C 225.138 1.43339 0.771857 0
M  V30 2354 O 226.327 1.67123 0.627067 0
M  V30 2355 C 223.427 3.20618 1.09804 0
M  V30 2356 C 222.6 4.35039 0.45389 0
M  V30 2357 C 221.659 5.07282 1.39825 0
M  V30 2358 O 220.685 5.62024 0.900978 0
M  V30 2359 N 221.887 5.12206 2.73176 0
M  V30 2360 H 224.652 2.91668 -0.689209 0
M  V30 2361 H 222.213 1.53577 -0.512422 0
M  V30 2362 H 224.205 3.65815 1.73094 0
M  V30 2363 H 222.775 2.59585 1.74167 0
M  V30 2364 H 221.995 3.92567 -0.358396 0
M  V30 2365 H 223.283 5.088 0.00486972 0
M  V30 2366 H 222.681 4.6913 3.16122 0
M  V30 2367 H 221.238 5.61069 3.31729 0
M  V30 2368 N 224.671 0.411399 1.52136 0
M  V30 2369 C 225.603 -0.448386 2.24771 0
M  V30 2370 C 226.616 -1.00828 1.27818 0
M  V30 2371 O 227.805 -0.906841 1.53749 0
M  V30 2372 C 224.905 -1.63636 2.96777 0
M  V30 2373 C 224.078 -1.19995 4.20618 0
M  V30 2374 C 223.137 -2.25509 4.75428 0
M  V30 2375 O 222.163 -1.86007 5.3795 0
M  V30 2376 N 223.365 -3.577 4.57199 0
M  V30 2377 H 226.13 0.174025 2.99194 0
M  V30 2378 H 223.691 0.238897 1.60128 0
M  V30 2379 H 225.683 -2.33793 3.30338 0
M  V30 2380 H 224.253 -2.16465 2.25526 0
M  V30 2381 H 223.473 -0.326421 3.92846 0
M  V30 2382 H 224.761 -0.885365 5.01038 0
M  V30 2383 H 224.159 -3.92543 4.07341 0
M  V30 2384 H 222.716 -4.23827 4.95191 0
M  V30 2385 N 226.149 -1.5696 0.141893 0
M  V30 2386 C 227.112 -2.15316 -0.785587 0
M  V30 2387 C 228.112 -1.09366 -1.1788 0
M  V30 2388 O 229.302 -1.35031 -1.10056 0
M  V30 2389 C 226.434 -2.71211 -2.06537 0
M  V30 2390 H 227.627 -2.98608 -0.278041 0
M  V30 2391 H 225.18 -1.5593 -0.107519 0
M  V30 2392 H 225.915 -1.91571 -2.6167 0
M  V30 2393 H 225.7 -3.4872 -1.79268 0
M  V30 2394 H 227.19 -3.16189 -2.72789 0
M  V30 2395 N 227.627 0.131896 -1.57047 0
M  V30 2396 C 229.043 0.485031 -1.52051 0
M  V30 2397 C 229.243 1.82563 -0.85281 0
M  V30 2398 O 228.299 2.48817 -0.429694 0
M  V30 2399 C 229.612 0.481409 -2.96821 0
M  V30 2400 C 231.16 0.565868 -3.07842 0
M  V30 2401 C 231.635 0.592762 -4.54148 0
M  V30 2402 N 233.126 0.654564 -4.58552 0
M  V30 2403 C 233.861 0.696608 -5.69153 0
M  V30 2404 N 233.357 0.697078 -6.89284 0
M  V30 2405 N 235.15 0.738639 -5.57226 0
M  V30 2406 H 227.301 -0.746664 -1.98843 0
M  V30 2407 H 229.564 -0.273999 -0.90754 0
M  V30 2408 H 229.27 -0.435731 -3.4899 0
M  V30 2409 H 229.144 1.3139 -3.53577 0
M  V30 2410 H 231.531 1.47343 -2.55684 0
M  V30 2411 H 231.612 -0.29406 -2.54104 0
M  V30 2412 H 231.256 -0.310701 -5.06949 0
M  V30 2413 H 231.186 1.46939 -5.05684 0
M  V30 2414 H 233.677 0.660887 -3.72076 0
M  V30 2415 H 233.99 0.731426 -7.69331 0
M  V30 2416 H 232.335 0.66471 -6.91814 0
M  V30 2417 H 235.526 0.735545 -4.62285 0
M  V30 2418 H 235.699 0.767938 -6.43434 0
M  V30 2419 N 229.106 1.52395 0.401703 0
M  V30 2420 C 230.354 1.66488 1.14569 0
M  V30 2421 C 230.675 0.400897 1.90835 0
M  V30 2422 O 229.945 -0.584415 1.8698 0
M  V30 2423 H 228.525 0.613672 0.425929 0
M  V30 2424 H 231.187 1.89464 0.457093 0
M  V30 2425 H 230.283 2.50942 1.85566 0
M  V30 2426 N 230.584 -0.659388 1.43143 0
M  V30 2427 C 232 -0.974337 1.26407 0
M  V30 2428 C 232.2 -2.007 0.179341 0
M  V30 2429 O 231.256 -2.4856 -0.444295 0
M  V30 2430 C 232.569 -1.46447 2.62628 0
M  V30 2431 C 234.117 -1.58144 2.7011 0
M  V30 2432 C 234.592 -2.1055 4.06734 0
M  V30 2433 N 236.083 -2.17861 4.08767 0
M  V30 2434 C 236.818 -2.59519 5.1131 0
M  V30 2435 N 236.314 -3.00518 6.24228 0
M  V30 2436 N 238.107 -2.59404 4.98664 0
M  V30 2437 H 230.258 0.0240528 2.12386 0
M  V30 2438 H 232.521 -0.0518065 0.946583 0
M  V30 2439 H 232.227 -0.780123 3.42939 0
M  V30 2440 H 232.101 -2.44058 2.87603 0
M  V30 2441 H 234.488 -2.25682 1.90136 0
M  V30 2442 H 234.569 -0.589828 2.48907 0
M  V30 2443 H 234.213 -1.43616 4.87172 0
M  V30 2444 H 234.143 -3.10531 4.25298 0
M  V30 2445 H 236.634 -1.88975 3.27257 0
M  V30 2446 H 236.947 -3.31036 6.98309 0
M  V30 2447 H 235.292 -2.98337 6.2771 0
M  V30 2448 H 238.483 -2.26747 4.09516 0
M  V30 2449 H 238.656 -2.91548 5.78709 0
M  V30 2450 N 232.062 -1.29571 -0.897171 0
M  V30 2451 C 233.308 -1.17863 -1.65034 0
M  V30 2452 C 233.641 0.268729 -1.92332 0
M  V30 2453 O 232.916 1.19378 -1.53555 0
M  V30 2454 C 233.199 -1.995 -2.99786 0
M  V30 2455 C 233.052 -3.5239 -2.79538 0
M  V30 2456 C 234.371 -1.82335 -4.00552 0
M  V30 2457 H 231.49 -0.429528 -0.598895 0
M  V30 2458 H 234.132 -1.59072 -1.03905 0
M  V30 2459 H 232.282 -1.64485 -3.51962 0
M  V30 2460 H 233.954 -3.97401 -2.34244 0
M  V30 2461 H 232.197 -3.77187 -2.14273 0
M  V30 2462 H 232.868 -4.04787 -3.75302 0
M  V30 2463 H 235.344 -2.12924 -3.57495 0
M  V30 2464 H 234.22 -2.41801 -4.92771 0
M  V30 2465 H 234.481 -0.779209 -4.35179 0
M  V30 2466 N 233.54 1.10788 -1.12088 0
M  V30 2467 C 234.789 1.82036 -0.868659 0
M  V30 2468 C 235.102 1.85929 0.607426 0
M  V30 2469 O 236.308 2.53346 0.97613 0
M  V30 2470 C 234.764 3.26951 -1.50435 0
M  V30 2471 C 234.372 3.31367 -3.01496 0
M  V30 2472 C 236.116 4.03053 -1.33225 0
M  V30 2473 C 234.023 4.7072 -3.58017 0
M  V30 2474 H 232.953 0.682108 -0.321318 0
M  V30 2475 H 235.604 1.24618 -1.34694 0
M  V30 2476 H 233.986 3.84343 -0.953735 0
M  V30 2477 H 235.16 2.83819 -3.6302 0
M  V30 2478 H 233.475 2.6875 -3.18061 0
M  V30 2479 H 236.072 5.05981 -1.72878 0
M  V30 2480 H 236.415 4.15387 -0.275529 0
M  V30 2481 H 236.948 3.52066 -1.85188 0
M  V30 2482 H 233.687 4.63585 -4.63432 0
M  V30 2483 H 233.207 5.1865 -3.01268 0
M  V30 2484 H 234.886 5.39685 -3.56859 0
M  V30 2485 N 235.018 0.912232 1.28515 0
M  V30 2486 C 235.966 0.389597 2.29314 0
M  V30 2487 C 236.96 -0.517915 1.61289 0
M  V30 2488 O 238.166 -0.399328 1.75515 0
M  V30 2489 H 234.541 0.107386 0.744293 0
M  V30 2490 H 236.512 1.25286 2.70825 0
M  V30 2491 C 235.261 -0.356496 3.45868 0
M  V30 2492 H 234.584 0.332608 3.98414 0
M  V30 2493 H 236.024 -0.686851 4.184 0
M  V30 2494 C 234.483 -1.56383 2.98406 0
M  V30 2495 O 235.013 -2.66294 3.00749 0
M  V30 2496 N 233.219 -1.41029 2.54085 0
M  V30 2497 H 232.766 -0.516089 2.52377 0
M  V30 2498 H 232.724 -2.21939 2.22689 0
M  V30 2499 N 236.496 -1.42363 0.676048 0
M  V30 2500 C 237.745 -2.00745 0.196037 0
M  V30 2501 C 238.058 -1.54083 -1.20489 0
M  V30 2502 O 239.264 -2.04891 -1.78134 0
M  V30 2503 C 237.72 -3.58651 0.299616 0
M  V30 2504 C 237.328 -4.143 1.70468 0
M  V30 2505 C 239.072 -4.24326 -0.121619 0
M  V30 2506 C 236.979 -5.64574 1.76096 0
M  V30 2507 H 235.909 -0.750787 0.0695301 0
M  V30 2508 H 238.56 -1.63072 0.841412 0
M  V30 2509 H 236.942 -3.93833 -0.413673 0
M  V30 2510 H 238.116 -3.90575 2.44515 0
M  V30 2511 H 236.431 -3.61081 2.07387 0
M  V30 2512 H 239.028 -5.34607 -0.0997362 0
M  V30 2513 H 239.371 -3.99897 -1.15708 0
M  V30 2514 H 239.904 -3.94108 0.540706 0
M  V30 2515 H 236.643 -5.93804 2.77628 0
M  V30 2516 H 236.163 -5.90286 1.06406 0
M  V30 2517 H 237.842 -6.29013 1.51496 0
M  V30 2518 N 237.974 -0.419461 -1.51915 0
M  V30 2519 C 239.202 0.152136 -2.0634 0
M  V30 2520 C 239.617 1.37988 -1.28859 0
M  V30 2521 O 238.974 1.79243 -0.343232 0
M  V30 2522 C 239.025 0.492266 -3.58133 0
M  V30 2523 O 238.746 -0.686736 -4.32684 0
M  V30 2524 C 240.247 1.11648 -4.2901 0
M  V30 2525 H 237.467 0.0158325 -0.670813 0
M  V30 2526 H 240.011 -0.593394 -1.95702 0
M  V30 2527 H 238.166 1.18769 -3.68745 0
M  V30 2528 H 238.58 -0.400341 -5.2297 0
M  V30 2529 H 240.054 1.3046 -5.36362 0
M  V30 2530 H 240.531 2.09251 -3.86148 0
M  V30 2531 H 241.137 0.460958 -4.22795 0
M  V30 2532 N 239.452 1.56882 -0.150215 0
M  V30 2533 C 240.677 2.01027 0.510184 0
M  V30 2534 C 241.102 1.02966 1.57415 0
M  V30 2535 O 240.46 0.00590158 1.81299 0
M  V30 2536 C 240.508 3.43899 1.08472 0
M  V30 2537 O 239.612 3.4885 2.19948 0
M  V30 2538 H 238.953 0.652233 0.124451 0
M  V30 2539 H 241.483 2.03093 -0.247894 0
M  V30 2540 H 241.493 3.82766 1.41259 0
M  V30 2541 H 240.168 4.14776 0.305582 0
M  V30 2542 H 238.745 3.21827 1.88366 0
M  V30 2543 N 240.93 -0.123565 1.57115 0
M  V30 2544 C 242.176 -0.833386 1.84885 0
M  V30 2545 C 242.509 -1.79742 0.735292 0
M  V30 2546 O 241.784 -1.92764 -0.25925 0
M  V30 2547 C 242.067 -1.5873 3.23228 0
M  V30 2548 C 241.92 -0.643183 4.45178 0
M  V30 2549 C 243.239 -2.54453 3.59085 0
M  V30 2550 H 240.358 -0.301518 0.6725 0
M  V30 2551 H 243 -0.097778 1.89748 0
M  V30 2552 H 241.15 -2.21438 3.19214 0
M  V30 2553 H 242.822 -0.0253015 4.61293 0
M  V30 2554 H 241.065 0.0456139 4.33776 0
M  V30 2555 H 241.736 -1.20724 5.38637 0
M  V30 2556 H 244.212 -2.01853 3.63861 0
M  V30 2557 H 243.088 -3.04238 4.5687 0
M  V30 2558 H 243.349 -3.36906 2.86264 0
M  V30 2559 N 242.408 -1.52605 -0.393616 0
M  V30 2560 C 243.338 -1.80022 -1.48709 0
M  V30 2561 C 244.319 -0.651995 -1.57108 0
M  V30 2562 O 245.504 -0.89913 -1.72132 0
M  V30 2563 C 242.634 -1.96492 -2.86371 0
M  V30 2564 C 241.588 -3.12161 -2.92813 0
M  V30 2565 C 240.914 -3.13877 -4.3288 0
M  V30 2566 C 242.214 -4.51322 -2.6288 0
M  V30 2567 H 243.908 -2.71589 -1.26015 0
M  V30 2568 H 241.454 -1.30684 -0.604778 0
M  V30 2569 H 243.407 -2.14255 -3.62867 0
M  V30 2570 H 242.131 -1.01611 -3.10391 0
M  V30 2571 H 240.79 -2.94173 -2.18764 0
M  V30 2572 H 240.438 -2.16687 -4.53933 0
M  V30 2573 H 240.138 -3.91576 -4.38112 0
M  V30 2574 H 241.662 -3.33789 -5.1129 0
M  V30 2575 H 243.076 -4.69435 -3.29096 0
M  V30 2576 H 241.473 -5.31053 -2.79468 0
M  V30 2577 H 242.543 -4.58353 -1.58242 0
M  V30 2578 N 243.887 0.651787 -1.4349 0
M  V30 2579 C 245.135 1.40888 -1.44897 0
M  V30 2580 C 245.456 1.94856 -0.0749086 0
M  V30 2581 O 244.726 1.74518 0.889956 0
M  V30 2582 H 243.306 0.522887 -0.533478 0
M  V30 2583 H 245.968 0.768609 -1.79104 0
M  V30 2584 H 245.064 2.25052 -2.16236 0
M  V30 2585 N 245.365 1.30045 0.890287 0
M  V30 2586 C 246.781 1.08261 1.17268 0
M  V30 2587 C 246.981 -0.160063 2.00863 0
M  V30 2588 O 246.037 -0.855181 2.37577 0
M  V30 2589 C 247.35 2.34323 1.8845 0
M  V30 2590 C 248.898 2.39735 2.01237 0
M  V30 2591 C 249.373 3.65625 2.7583 0
M  V30 2592 N 250.864 3.66402 2.83379 0
M  V30 2593 C 251.599 4.60498 3.41657 0
M  V30 2594 N 251.095 5.64933 4.01026 0
M  V30 2595 N 252.888 4.48051 3.39421 0
M  V30 2596 H 245.039 2.09777 0.332762 0
M  V30 2597 H 247.302 0.92446 0.209948 0
M  V30 2598 H 247.008 3.2498 1.34465 0
M  V30 2599 H 246.882 2.4256 2.88867 0
M  V30 2600 H 249.269 1.4956 2.54393 0
M  V30 2601 H 249.35 2.35476 0.999232 0
M  V30 2602 H 248.994 4.56156 2.23347 0
M  V30 2603 H 248.924 3.67144 3.77509 0
M  V30 2604 H 251.415 2.90896 2.41222 0
M  V30 2605 H 251.728 6.32841 4.43545 0
M  V30 2606 H 250.073 5.68732 3.99461 0
M  V30 2607 H 253.264 3.65649 2.92264 0
M  V30 2608 H 253.437 5.21565 3.84544 0
M  V30 2609 N 246.843 -1.10192 1.12674 0
M  V30 2610 C 247.773 -2.18652 0.819362 0
M  V30 2611 C 248.754 -1.68698 -0.217915 0
M  V30 2612 O 249.939 -1.94041 -0.0785581 0
M  V30 2613 C 247.069 -3.46202 0.27594 0
M  V30 2614 C 246.023 -4.09444 1.24656 0
M  V30 2615 C 245.349 -5.31725 0.563258 0
M  V30 2616 C 246.649 -4.52863 2.60217 0
M  V30 2617 H 248.343 -2.44622 1.72628 0
M  V30 2618 H 245.889 -1.17571 0.831451 0
M  V30 2619 H 247.842 -4.21372 0.0486149 0
M  V30 2620 H 246.566 -3.1973 -0.666331 0
M  V30 2621 H 245.225 -3.36284 1.45974 0
M  V30 2622 H 244.873 -5.0153 -0.384235 0
M  V30 2623 H 244.573 -5.74991 1.21075 0
M  V30 2624 H 246.097 -6.09624 0.34503 0
M  V30 2625 H 247.511 -5.19294 2.42913 0
M  V30 2626 H 245.908 -5.06986 3.21068 0
M  V30 2627 H 246.978 -3.65656 3.18471 0
M  V30 2628 N 248.321 -0.919034 -1.28029 0
M  V30 2629 C 249.284 -0.416182 -2.2539 0
M  V30 2630 C 250.284 0.460438 -1.54067 0
M  V30 2631 O 251.474 0.262744 -1.72207 0
M  V30 2632 C 248.606 0.402707 -3.38513 0
M  V30 2633 H 249.799 -1.27629 -2.71387 0
M  V30 2634 H 247.352 -0.698919 -1.39803 0
M  V30 2635 H 248.087 1.282 -2.97885 0
M  V30 2636 H 247.872 -0.225698 -3.9145 0
M  V30 2637 H 249.362 0.745191 -4.10897 0
M  V30 2638 N 249.799 1.42003 -0.683588 0
M  V30 2639 C 250.762 2.29191 -0.0198243 0
M  V30 2640 C 251.762 1.43773 0.72013 0
M  V30 2641 O 252.952 1.65061 0.556815 0
M  V30 2642 C 250.084 3.26435 0.982487 0
M  V30 2643 H 251.277 2.8938 -0.787345 0
M  V30 2644 H 248.83 1.49789 -0.446418 0
M  V30 2645 H 249.565 2.71203 1.77819 0
M  V30 2646 H 249.35 3.89449 0.455182 0
M  V30 2647 H 250.84 3.918 1.44508 0
M  V30 2648 N 251.277 0.427512 1.51691 0
M  V30 2649 C 252.225 -0.403359 2.29076 0
M  V30 2650 C 253.219 -1.02962 1.34518 0
M  V30 2651 O 254.425 -0.965715 1.51901 0
M  V30 2652 H 250.8 -0.148879 0.737115 0
M  V30 2653 H 252.771 0.270295 2.97173 0
M  V30 2654 C 251.52 -1.49763 3.13794 0
M  V30 2655 H 250.843 -1.02508 3.86435 0
M  V30 2656 H 252.283 -2.05244 3.71014 0
M  V30 2657 C 250.742 -2.47536 2.28533 0
M  V30 2658 O 251.272 -3.51848 1.93819 0
M  V30 2659 N 249.478 -2.18187 1.91945 0
M  V30 2660 H 249.025 -1.33389 2.20375 0
M  V30 2661 H 248.983 -2.83848 1.35195 0
M  V30 2662 N 252.755 -1.56801 0.158532 0
M  V30 2663 C 254.003 -1.96102 -0.488712 0
M  V30 2664 C 254.324 -1.04498 -1.64636 0
M  V30 2665 O 253.594 -0.108783 -1.95598 0
M  V30 2666 H 252.174 -0.724102 -0.183535 0
M  V30 2667 H 254.836 -1.93457 0.236728 0
M  V30 2668 H 253.932 -3.00097 -0.857219 0
M  V30 2669 N 254.233 0.115231 -1.57178 0
M  V30 2670 C 255.481 0.820727 -1.84685 0
M  V30 2671 C 255.802 1.80237 -0.744279 0
M  V30 2672 O 255.072 1.94529 0.231375 0
M  V30 2673 H 253.652 0.306084 -0.681411 0
M  V30 2674 H 256.314 0.101656 -1.94635 0
M  V30 2675 H 255.41 1.36366 -2.80733 0
M  V30 2676 N 255.711 1.52812 0.385517 0
M  V30 2677 C 256.959 1.67694 1.12797 0
M  V30 2678 C 257.28 0.421115 1.90399 0
M  V30 2679 O 256.55 -0.564551 1.87589 0
M  V30 2680 H 255.13 0.618155 0.419396 0
M  V30 2681 H 257.792 1.89938 0.436972 0
M  V30 2682 H 256.888 2.52896 1.82894 0
M  V30 2683 N 257.189 -0.644168 1.43834 0
M  V30 2684 C 258.419 -1.42939 1.49171 0
M  V30 2685 C 258.827 -1.88874 0.111048 0
M  V30 2686 O 258.17 -1.60656 -0.8908 0
M  V30 2687 C 258.232 -2.69151 2.38324 0
M  V30 2688 C 257.896 -2.45097 3.85715 0
M  V30 2689 C 258.893 -2.07747 4.76589 0
M  V30 2690 C 256.578 -2.59141 4.30292 0
M  V30 2691 C 258.572 -1.8475 6.10038 0
M  V30 2692 C 256.259 -2.35759 5.63792 0
M  V30 2693 C 257.257 -1.9862 6.53482 0
M  V30 2694 O 256.945 -1.75489 7.84512 0
M  V30 2695 H 256.677 -0.445271 0.508635 0
M  V30 2696 H 259.231 -0.79621 1.8934 0
M  V30 2697 H 257.461 -3.3506 1.93058 0
M  V30 2698 H 259.15 -3.31123 2.3476 0
M  V30 2699 H 259.916 -1.96465 4.43426 0
M  V30 2700 H 255.795 -2.87022 3.60749 0
M  V30 2701 H 259.339 -1.55686 6.80006 0
M  V30 2702 H 255.236 -2.46646 5.9652 0
M  V30 2703 H 256.004 -1.89841 7.9618 0
M  V30 2704 N 258.668 -1.30515 -0.883378 0
M  V30 2705 C 259.908 -1.20716 -1.64946 0
M  V30 2706 C 260.272 0.234072 -1.90568 0
M  V30 2707 O 261.473 0.455335 -2.64915 0
M  V30 2708 C 259.744 -2.01444 -2.9522 0
M  V30 2709 S 261.303 -2.0836 -3.86175 0
M  V30 2710 H 258.121 -0.430165 -0.566109 0
M  V30 2711 H 260.723 -1.65011 -1.04841 0
M  V30 2712 H 259.427 -3.05268 -2.74298 0
M  V30 2713 H 258.958 -1.57817 -3.60357 0
M  V30 2714 H 260.973 -1.21215 -4.81167 0
M  V30 2715 N 260.146 1.09593 -1.13257 0
M  V30 2716 C 261.392 1.82003 -0.89458 0
M  V30 2717 C 261.725 1.85402 0.577906 0
M  V30 2718 O 261 1.32099 1.42759 0
M  V30 2719 C 261.283 3.28237 -1.48096 0
M  V30 2720 C 261.136 3.3312 -3.02244 0
M  V30 2721 C 262.455 4.24871 -1.14774 0
M  V30 2722 H 259.574 0.66077 -0.326424 0
M  V30 2723 H 262.216 1.28389 -1.40058 0
M  V30 2724 H 260.366 3.74024 -1.05062 0
M  V30 2725 H 262.038 2.95748 -3.54021 0
M  V30 2726 H 260.281 2.72756 -3.37323 0
M  V30 2727 H 260.952 4.3613 -3.38371 0
M  V30 2728 H 263.428 3.87361 -1.51957 0
M  V30 2729 H 262.304 5.25532 -1.58452 0
M  V30 2730 H 262.565 4.42058 -0.0611849 0
M  V30 2731 N 261.624 0.925811 1.2754 0
M  V30 2732 C 262.849 0.580924 1.99098 0
M  V30 2733 C 263.274 -0.833555 1.68622 0
M  V30 2734 O 262.632 -1.55903 0.925422 0
M  V30 2735 C 262.68 0.811186 3.51358 0
M  V30 2736 O 261.784 -0.124129 4.12213 0
M  V30 2737 H 261.125 0.223873 0.625122 0
M  V30 2738 H 263.655 1.24455 1.62395 0
M  V30 2739 H 263.665 0.72601 4.01489 0
M  V30 2740 H 262.34 1.84227 3.72872 0
M  V30 2741 H 260.917 0.0108006 3.72898 0
M  V30 2742 N 263.102 -1.41638 0.69111 0
M  V30 2743 C 264.049 -2.30789 0.0229705 0
M  V30 2744 C 265.019 -1.46863 -0.775911 0
M  V30 2745 O 266.204 -1.75661 -0.74485 0
M  V30 2746 C 263.344 -3.32868 -0.910666 0
M  V30 2747 C 262.457 -4.31875 -0.103874 0
M  V30 2748 C 261.592 -5.21024 -1.03475 0
M  V30 2749 C 260.631 -6.11702 -0.220598 0
M  V30 2750 N 259.768 -6.93349 -1.10504 0
M  V30 2751 H 264.608 -2.87366 0.788978 0
M  V30 2752 H 262.145 -1.41535 0.400794 0
M  V30 2753 H 264.103 -3.90596 -1.46597 0
M  V30 2754 H 262.733 -2.77851 -1.64312 0
M  V30 2755 H 261.785 -3.76131 0.568285 0
M  V30 2756 H 263.097 -4.96003 0.527504 0
M  V30 2757 H 262.251 -5.83565 -1.65943 0
M  V30 2758 H 260.99 -4.57112 -1.69999 0
M  V30 2759 H 259.995 -5.48215 0.417187 0
M  V30 2760 H 261.22 -6.77668 0.440784 0
M  V30 2761 H 259.166 -6.3205 -1.75638 0
M  V30 2762 H 259.083 -7.54146 -0.529125 0
M  V30 2763 H 260.351 -7.60362 -1.71667 0
M  V30 2764 N 264.58 -0.43555 -1.51462 0
M  V30 2765 C 265.827 0.131514 -2.02072 0
M  V30 2766 C 266.155 1.42868 -1.31981 0
M  V30 2767 O 265.41 1.91076 -0.422883 0
M  V30 2768 C 265.709 0.39942 -3.55161 0
M  V30 2769 C 265.375 -0.81172 -4.43533 0
M  V30 2770 C 264.037 -1.14387 -4.67407 0
M  V30 2771 C 266.389 -1.61976 -4.95392 0
M  V30 2772 C 263.717 -2.28477 -5.40384 0
M  V30 2773 C 266.069 -2.75164 -5.6962 0
M  V30 2774 C 264.733 -3.08835 -5.91758 0
M  V30 2775 H 264.003 0.0481244 -0.739436 0
M  V30 2776 H 266.65 -0.58238 -1.8243 0
M  V30 2777 H 264.955 1.19519 -3.73125 0
M  V30 2778 H 266.652 0.85157 -3.91854 0
M  V30 2779 H 263.242 -0.542898 -4.25148 0
M  V30 2780 H 267.426 -1.37637 -4.76833 0
M  V30 2781 H 262.682 -2.5488 -5.55739 0
M  V30 2782 H 266.856 -3.38147 -6.08793 0
M  V30 2783 H 264.483 -3.97353 -6.48086 0
M  V30 2784 N 266.058 1.56714 -0.166846 0
M  V30 2785 C 267.306 1.96358 0.478305 0
M  V30 2786 C 267.627 1.0537 1.6408 0
M  V30 2787 O 266.897 0.119154 1.95537 0
M  V30 2788 H 265.477 0.725065 0.179692 0
M  V30 2789 H 268.139 1.93329 -0.246985 0
M  V30 2790 H 267.235 3.00547 0.841292 0
M  V30 2791 N 267.536 -0.106894 1.57237 0
M  V30 2792 C 268.466 -1.13148 2.04254 0
M  V30 2793 C 269.447 -1.42476 0.929224 0
M  V30 2794 O 270.632 -1.52709 1.19973 0
M  V30 2795 C 267.762 -2.4545 2.45706 0
M  V30 2796 C 266.716 -2.30558 3.60592 0
M  V30 2797 C 266.042 -3.67931 3.87983 0
M  V30 2798 C 267.342 -1.75597 4.91897 0
M  V30 2799 H 269.036 -0.740374 2.90101 0
M  V30 2800 H 266.582 -0.354696 1.39563 0
M  V30 2801 H 268.535 -3.17389 2.77205 0
M  V30 2802 H 267.259 -2.86475 1.56843 0
M  V30 2803 H 265.918 -1.61067 3.29322 0
M  V30 2804 H 265.566 -4.06462 2.96306 0
M  V30 2805 H 265.266 -3.58817 4.65322 0
M  V30 2806 H 266.79 -4.41356 4.21945 0
M  V30 2807 H 268.204 -2.37364 5.21854 0
M  V30 2808 H 266.601 -1.77272 5.73319 0
M  V30 2809 H 267.671 -0.714451 4.79608 0
M  V30 2810 N 269.014 -1.53014 -0.377408 0
M  V30 2811 C 269.924 -1.81557 -1.48574 0
M  V30 2812 C 270.94 -0.703102 -1.59162 0
M  V30 2813 O 272.116 -0.99192 -1.75279 0
M  V30 2814 C 269.181 -1.9889 -2.83978 0
M  V30 2815 C 268.242 -3.22801 -2.83016 0
M  V30 2816 C 267.475 -3.39298 -4.11962 0
M  V30 2817 O 267.698 -2.60345 -5.0752 0
M  V30 2818 O 266.632 -4.32604 -4.18494 0
M  V30 2819 H 270.458 -2.75695 -1.27382 0
M  V30 2820 H 268.043 -1.38248 -0.566373 0
M  V30 2821 H 269.925 -2.11931 -3.6423 0
M  V30 2822 H 268.6 -1.07942 -3.05172 0
M  V30 2823 H 267.507 -3.15193 -2.01505 0
M  V30 2824 H 268.84 -4.13632 -2.66775 0
M  V30 2825 N 270.492 0.636531 -1.44174 0
M  V30 2826 C 271.455 1.73063 -1.50273 0
M  V30 2827 C 272.455 1.56113 -0.385397 0
M  V30 2828 O 273.645 1.61707 -0.64781 0
M  V30 2829 C 270.777 3.12096 -1.37145 0
M  V30 2830 H 271.97 1.69031 -2.47727 0
M  V30 2831 H 269.523 0.849706 -1.31186 0
M  V30 2832 H 270.258 3.21728 -0.407636 0
M  V30 2833 H 270.043 3.25805 -2.18159 0
M  V30 2834 H 271.533 3.91846 -1.44382 0
M  V30 2835 N 271.97 1.30982 0.876444 0
M  V30 2836 C 273.217 1.20296 1.62896 0
M  V30 2837 C 273.545 -0.240395 1.93009 0
M  V30 2838 O 272.8 -1.18733 1.55567 0
M  V30 2839 C 273.099 1.98572 2.9716 0
M  V30 2840 C 272.765 3.48125 2.86566 0
M  V30 2841 C 271.427 3.88905 2.83383 0
M  V30 2842 C 273.779 4.43322 2.74071 0
M  V30 2843 C 271.107 5.2316 2.65556 0
M  V30 2844 C 273.459 5.77695 2.57781 0
M  V30 2845 C 272.123 6.17704 2.52979 0
M  V30 2846 H 271.393 0.440193 0.59608 0
M  V30 2847 H 274.04 1.62177 1.01837 0
M  V30 2848 H 272.345 1.49352 3.62217 0
M  V30 2849 H 274.042 1.8769 3.54364 0
M  V30 2850 H 270.632 3.15723 2.89856 0
M  V30 2851 H 274.816 4.12752 2.75589 0
M  V30 2852 H 270.072 5.53241 2.60259 0
M  V30 2853 H 274.246 6.51091 2.47089 0
M  V30 2854 H 271.873 7.21678 2.38924 0
M  V30 2855 N 273.449 -1.08991 1.13837 0
M  V30 2856 C 274.674 -1.85551 0.926585 0
M  V30 2857 C 275.099 -1.80782 -0.519566 0
M  V30 2858 O 274.457 -1.18855 -1.36906 0
M  V30 2859 C 274.505 -3.31266 1.42462 0
M  V30 2860 O 273.609 -4.07822 0.612789 0
M  V30 2861 H 272.95 -0.575192 0.331738 0
M  V30 2862 H 275.48 -1.37604 1.51414 0
M  V30 2863 H 275.49 -3.82112 1.43019 0
M  V30 2864 H 274.165 -3.34052 2.47754 0
M  V30 2865 H 272.742 -3.66731 0.675463 0
M  V30 2866 N 274.927 -0.932562 -1.27047 0
M  V30 2867 C 276.204 -0.49377 -1.89265 0
M  V30 2868 C 276.584 1.02833 -1.8436 0
M  V30 2869 O 275.932 1.88461 -1.29209 0
M  V30 2870 C 276.142 -1.04536 -3.32976 0
M  V30 2871 C 277.49 -1.10879 -4.09867 0
M  V30 2872 O 278.514 -0.995327 -3.42011 0
M  V30 2873 O 277.373 -1.28417 -5.31198 0
M  V30 2874 H 274.467 -0.159596 -0.811454 0
M  V30 2875 H 277.013 -1.02457 -1.3528 0
M  V30 2876 H 275.785 -2.08913 -3.30864 0
M  V30 2877 H 275.408 -0.496494 -3.94488 0
M  V30 2878 N 276.405 1.4127 -0.698611 0
M  V30 2879 C 277.63 2.06024 -0.238512 0
M  V30 2880 C 278.055 1.5224 1.10475 0
M  V30 2881 O 277.413 0.650623 1.69223 0
M  V30 2882 C 277.461 3.59988 -0.209952 0
M  V30 2883 O 276.565 4.04282 0.814235 0
M  V30 2884 H 275.906 0.653829 -0.115775 0
M  V30 2885 H 278.436 1.8098 -0.954326 0
M  V30 2886 H 278.446 4.07979 -0.0418436 0
M  V30 2887 H 277.121 3.98503 -1.1903 0
M  V30 2888 H 275.698 3.6779 0.615234 0
M  V30 2889 N 277.883 0.443576 1.51229 0
M  V30 2890 C 278.813 -0.355142 2.30783 0
M  V30 2891 C 279.794 -1.0154 1.36468 0
M  V30 2892 O 280.979 -1.01785 1.65389 0
M  V30 2893 C 278.109 -1.45312 3.15439 0
M  V30 2894 C 277.063 -0.916002 4.18083 0
M  V30 2895 C 276.389 -2.1102 4.91299 0
M  V30 2896 C 277.689 0.0538602 5.22272 0
M  V30 2897 H 279.383 0.308767 2.97804 0
M  V30 2898 H 276.929 0.149937 1.43217 0
M  V30 2899 H 278.882 -2.01914 3.69876 0
M  V30 2900 H 277.606 -2.14541 2.46252 0
M  V30 2901 H 276.265 -0.372145 3.64706 0
M  V30 2902 H 275.913 -2.78882 4.18609 0
M  V30 2903 H 275.613 -1.75717 5.60712 0
M  V30 2904 H 277.137 -2.68164 5.48562 0
M  V30 2905 H 278.551 -0.422069 5.71744 0
M  V30 2906 H 276.948 0.319776 5.99247 0
M  V30 2907 H 278.018 0.98858 4.74716 0
M  V30 2908 N 279.361 -1.56624 0.175154 0
M  V30 2909 C 280.777 -1.58571 -0.180966 0
M  V30 2910 C 280.977 -1.19065 -1.6256 0
M  V30 2911 O 280.033 -0.904044 -2.35761 0
M  V30 2912 C 281.346 -3.00522 0.103326 0
M  V30 2913 C 282.894 -3.12972 0.0418426 0
M  V30 2914 C 283.369 -4.57022 0.299175 0
M  V30 2915 N 284.86 -4.62541 0.247086 0
M  V30 2916 C 285.595 -5.71857 0.420318 0
M  V30 2917 N 285.091 -6.89717 0.652816 0
M  V30 2918 N 286.884 -5.60972 0.355957 0
M  V30 2919 H 279.035 -1.80589 1.11809 0
M  V30 2920 H 281.298 -0.837178 0.444788 0
M  V30 2921 H 281.004 -3.33916 1.10422 0
M  V30 2922 H 280.878 -3.72344 -0.603299 0
M  V30 2923 H 283.265 -2.79403 -0.949636 0
M  V30 2924 H 283.346 -2.43578 0.781238 0
M  V30 2925 H 282.99 -4.913 1.28788 0
M  V30 2926 H 282.92 -5.24579 -0.460876 0
M  V30 2927 H 285.411 -3.77829 0.0731895 0
M  V30 2928 H 285.724 -7.68911 0.774347 0
M  V30 2929 H 284.069 -6.91572 0.689476 0
M  V30 2930 H 287.26 -4.67773 0.174882 0
M  V30 2931 H 287.433 -6.46111 0.494388 0
M  V30 2932 N 280.839 0.0985539 -1.57292 0
M  V30 2933 C 282.255 0.45267 -1.53046 0
M  V30 2934 C 282.455 1.80713 -0.891342 0
M  V30 2935 O 281.511 2.4785 -0.482375 0
M  V30 2936 C 282.824 0.418341 -2.97776 0
M  V30 2937 C 284.372 0.500443 -3.08973 0
M  V30 2938 C 284.847 0.496297 -4.55303 0
M  V30 2939 N 286.338 0.557151 -4.59837 0
M  V30 2940 C 287.073 0.575726 -5.70502 0
M  V30 2941 N 286.569 0.550714 -6.90608 0
M  V30 2942 N 288.362 0.620277 -5.58667 0
M  V30 2943 H 280.513 -0.788673 -1.97215 0
M  V30 2944 H 282.776 -0.293188 -0.901524 0
M  V30 2945 H 282.482 -0.509659 -3.47988 0
M  V30 2946 H 282.356 1.2386 -3.56284 0
M  V30 2947 H 284.743 1.41886 -2.58751 0
M  V30 2948 H 284.824 -0.347894 -2.53423 0
M  V30 2949 H 284.468 -0.418162 -5.06176 0
M  V30 2950 H 284.398 1.3618 -5.08687 0
M  V30 2951 H 286.889 0.581816 -3.73394 0
M  V30 2952 H 287.202 0.568075 -7.70709 0
M  V30 2953 H 285.547 0.517816 -6.93068 0
M  V30 2954 H 288.738 0.637322 -4.63741 0
M  V30 2955 H 288.911 0.631283 -6.44918 0
M  V30 2956 N 282.317 1.53212 0.369288 0
M  V30 2957 C 283.594 1.59815 1.12776 0
M  V30 2958 C 283.974 0.403402 2.0721 0
M  V30 2959 O 283.322 -0.606667 2.20299 0
M  V30 2960 C 283.532 2.94664 1.87013 0
M  V30 2961 C 284.88 3.49109 2.41677 0
M  V30 2962 O 285.904 2.96669 1.97144 0
M  V30 2963 O 284.763 4.40775 3.23079 0
M  V30 2964 H 281.857 0.645376 0.517125 0
M  V30 2965 H 284.403 1.65553 0.37285 0
M  V30 2966 H 283.175 3.73061 1.18071 0
M  V30 2967 H 282.798 2.92401 2.69421 0
M  V30 2968 N 283.795 -0.628877 1.44509 0
M  V30 2969 C 285.041 -1.39045 1.47629 0
M  V30 2970 C 285.374 -1.93892 0.109343 0
M  V30 2971 O 284.649 -1.7379 -0.87334 0
M  V30 2972 C 284.932 -2.55408 2.53848 0
M  V30 2973 C 284.785 -2.05896 3.99909 0
M  V30 2974 C 286.104 -3.5759 2.56549 0
M  V30 2975 H 283.223 -0.504232 0.537512 0
M  V30 2976 H 285.865 -0.710854 1.76201 0
M  V30 2977 H 284.015 -3.13384 2.29615 0
M  V30 2978 H 285.687 -1.52734 4.35282 0
M  V30 2979 H 283.93 -1.37061 4.11578 0
M  V30 2980 H 284.601 -2.89681 4.69882 0
M  V30 2981 H 287.077 -3.09419 2.78207 0
M  V30 2982 H 285.953 -4.36527 3.32769 0
M  V30 2983 H 286.214 -4.11808 1.60832 0
M  V30 2984 N 285.273 -1.31445 -0.869486 0
M  V30 2985 C 286.236 -1.19094 -1.9583 0
M  V30 2986 C 287.236 -0.117906 -1.60367 0
M  V30 2987 O 288.426 -0.367208 -1.70286 0
M  V30 2988 C 285.558 -0.828165 -3.30688 0
M  V30 2989 H 286.751 -2.15842 -2.08212 0
M  V30 2990 H 284.304 -1.15063 -1.05784 0
M  V30 2991 H 285.039 0.138142 -3.24006 0
M  V30 2992 H 284.824 -1.6038 -3.578 0
M  V30 2993 H 286.314 -0.765658 -4.10521 0
M  V30 2994 N 286.751 1.08385 -1.14413 0
M  V30 2995 C 287.701 2.13509 -0.79987 0
M  V30 2996 C 288.685 1.5951 0.211059 0
M  V30 2997 O 289.877 1.76995 0.0133694 0
M  V30 2998 C 287.006 3.42162 -0.279297 0
M  V30 2999 C 286.092 4.03042 -1.31976 0
M  V30 3000 N 286.483 4.38327 -2.52395 0
M  V30 3001 C 284.781 4.30379 -1.17004 0
M  V30 3002 C 285.482 4.86428 -3.19003 0
M  V30 3003 N 284.458 4.84547 -2.46405 0
M  V30 3004 H 288.26 2.38609 -1.7159 0
M  V30 3005 H 285.774 1.2572 -1.02802 0
M  V30 3006 H 287.771 4.16898 -0.0143688 0
M  V30 3007 H 286.431 3.18511 0.630923 0
M  V30 3008 H 287.442 4.29349 -2.89621 0
M  V30 3009 H 284.119 4.16281 -0.318854 0
M  V30 3010 H 285.509 5.23107 -4.21674 0
M  V30 3011 N 288.23 0.939286 1.26551 0
M  V30 3012 C 289.477 0.585847 1.9384 0
M  V30 3013 C 289.805 -0.874784 1.73718 0
M  V30 3014 O 289.06 -1.64092 1.06642 0
M  V30 3015 C 289.359 0.872106 3.46596 0
M  V30 3016 C 289.025 2.31632 3.86856 0
M  V30 3017 C 287.687 2.71111 3.97558 0
M  V30 3018 C 290.039 3.25494 4.07066 0
M  V30 3019 C 287.367 4.03553 4.25866 0
M  V30 3020 C 289.719 4.57531 4.36862 0
M  V30 3021 C 288.383 4.96828 4.45778 0
M  V30 3022 H 287.653 0.214377 0.709312 0
M  V30 3023 H 290.3 1.18544 1.50398 0
M  V30 3024 H 288.605 0.18996 3.91339 0
M  V30 3025 H 290.302 0.577442 3.96821 0
M  V30 3026 H 286.892 2.00008 3.79071 0
M  V30 3027 H 291.076 2.9619 3.98227 0
M  V30 3028 H 286.332 4.33665 4.30981 0
M  V30 3029 H 290.506 5.30254 4.51446 0
M  V30 3030 H 288.133 5.99482 4.67468 0
M  V30 3031 N 289.708 -1.40897 0.706093 0
M  V30 3032 C 290.956 -2.00657 0.241054 0
M  V30 3033 C 291.277 -1.56241 -1.16678 0
M  V30 3034 O 290.547 -0.79765 -1.78926 0
M  V30 3035 H 289.127 -0.742018 0.0861308 0
M  V30 3036 H 291.789 -1.72372 0.909604 0
M  V30 3037 H 290.885 -3.10958 0.266705 0
M  V30 3038 N 291.186 -0.45159 -1.50991 0
M  V30 3039 C 292.435 0.111653 -2.01391 0
M  V30 3040 C 292.748 1.42529 -1.33959 0
M  V30 3041 O 293.954 2.07232 -1.75405 0
M  V30 3042 C 292.41 0.249514 -3.59034 0
M  V30 3043 C 292.018 -1.05453 -4.35412 0
M  V30 3044 C 293.762 0.765762 -4.17536 0
M  V30 3045 C 291.669 -0.881529 -5.84793 0
M  V30 3046 H 290.599 0.0455022 -0.752626 0
M  V30 3047 H 293.25 -0.583524 -1.73975 0
M  V30 3048 H 291.632 1.00803 -3.82955 0
M  V30 3049 H 292.806 -1.82248 -4.23229 0
M  V30 3050 H 291.121 -1.50039 -3.88429 0
M  V30 3051 H 293.718 0.911913 -5.26866 0
M  V30 3052 H 294.061 1.75201 -3.77638 0
M  V30 3053 H 294.594 0.0651744 -3.97747 0
M  V30 3054 H 291.333 -1.84057 -6.29129 0
M  V30 3055 H 290.853 -0.153625 -5.99603 0
M  V30 3056 H 292.532 -0.540363 -6.4474 0
M  V30 3057 N 292.664 1.56529 -0.183458 0
M  V30 3058 C 294.08 1.58664 0.172554 0
M  V30 3059 C 294.28 1.19925 1.61926 0
M  V30 3060 O 293.336 0.916534 2.35278 0
M  V30 3061 C 294.649 3.00463 -0.119262 0
M  V30 3062 C 296.197 3.12945 -0.0584396 0
M  V30 3063 C 296.672 4.56857 -0.323408 0
M  V30 3064 N 298.163 4.62403 -0.271612 0
M  V30 3065 C 298.898 5.71626 -0.450639 0
M  V30 3066 N 298.394 6.89362 -0.689384 0
M  V30 3067 N 300.187 5.60775 -0.385701 0
M  V30 3068 H 292.338 1.79994 -1.12765 0
M  V30 3069 H 294.601 0.834808 -0.449222 0
M  V30 3070 H 294.307 3.33326 -1.12192 0
M  V30 3071 H 294.181 3.72659 0.583544 0
M  V30 3072 H 296.568 2.79902 0.934805 0
M  V30 3073 H 296.649 2.4316 -0.794144 0
M  V30 3074 H 296.293 4.9061 -1.31392 0
M  V30 3075 H 296.223 5.24816 0.43305 0
M  V30 3076 H 298.714 3.77785 -0.0932256 0
M  V30 3077 H 299.027 7.68489 -0.815113 0
M  V30 3078 H 297.372 6.91196 -0.726142 0
M  V30 3079 H 300.563 4.67674 -0.199687 0
M  V30 3080 H 300.736 6.4584 -0.528646 0
M  V30 3081 N 294.142 -0.090211 1.57342 0
M  V30 3082 C 295.388 -0.793982 1.86611 0
M  V30 3083 C 295.721 -1.78142 0.773252 0
M  V30 3084 O 294.996 -1.93271 -0.218304 0
M  V30 3085 C 295.279 -1.51839 3.26523 0
M  V30 3086 C 295.132 -0.548609 4.46442 0
M  V30 3087 C 296.451 -2.46779 3.64401 0
M  V30 3088 H 293.57 -0.287186 0.678744 0
M  V30 3089 H 296.212 -0.0575076 1.89913 0
M  V30 3090 H 294.362 -2.14617 3.23839 0
M  V30 3091 H 296.034 0.0725513 4.61243 0
M  V30 3092 H 294.277 0.137614 4.33582 0
M  V30 3093 H 294.948 -1.09271 5.41076 0
M  V30 3094 H 297.424 -1.94089 3.68061 0
M  V30 3095 H 296.3 -2.94479 4.63221 0
M  V30 3096 H 296.561 -3.30758 2.93346 0
M  V30 3097 N 295.62 -1.53406 -0.361157 0
M  V30 3098 C 296.845 -1.74024 -1.12829 0
M  V30 3099 C 297.27 -0.470069 -1.82132 0
M  V30 3100 O 296.628 0.57619 -1.719 0
M  V30 3101 C 296.676 -2.90903 -2.13091 0
M  V30 3102 O 295.78 -2.59821 -3.20261 0
M  V30 3103 H 295.121 -0.577804 -0.327168 0
M  V30 3104 H 297.651 -2.00307 -0.41693 0
M  V30 3105 H 297.661 -3.17194 -2.56616 0
M  V30 3106 H 296.336 -3.83034 -1.62042 0
M  V30 3107 H 294.913 -2.44362 -2.81677 0
M  V30 3108 N 297.098 0.621204 -1.44841 0
M  V30 3109 C 298.347 1.37658 -1.47422 0
M  V30 3110 C 298.66 1.95264 -0.114629 0
M  V30 3111 O 299.866 2.71494 -0.0180199 0
M  V30 3112 C 298.322 2.49285 -2.59586 0
M  V30 3113 C 297.93 1.98149 -4.01797 0
M  V30 3114 C 299.674 3.26409 -2.71399 0
M  V30 3115 C 297.581 3.07178 -5.05367 0
M  V30 3116 H 296.511 0.517344 -0.548517 0
M  V30 3117 H 299.162 0.667257 -1.70938 0
M  V30 3118 H 297.544 3.22839 -2.29328 0
M  V30 3119 H 298.718 1.31395 -4.41669 0
M  V30 3120 H 297.033 1.33812 -3.94314 0
M  V30 3121 H 299.63 4.07706 -3.45948 0
M  V30 3122 H 299.973 3.76535 -1.77559 0
M  V30 3123 H 300.506 2.5995 -3.01116 0
M  V30 3124 H 297.245 2.61985 -6.00869 0
M  V30 3125 H 296.765 3.72542 -4.70077 0
M  V30 3126 H 298.444 3.71789 -5.29511 0
M  V30 3127 N 298.576 1.31904 0.862503 0
M  V30 3128 C 299.822 1.22197 1.61851 0
M  V30 3129 C 300.155 -0.217641 1.92977 0
M  V30 3130 O 299.43 -1.15264 1.56666 0
M  V30 3131 C 299.713 2.07378 2.94391 0
M  V30 3132 C 299.566 3.59678 2.70096 0
M  V30 3133 C 300.885 1.92891 3.95577 0
M  V30 3134 H 298.004 0.445255 0.587296 0
M  V30 3135 H 300.646 1.6177 0.99651 0
M  V30 3136 H 298.796 1.73758 3.47477 0
M  V30 3137 H 300.468 4.03472 2.23625 0
M  V30 3138 H 298.711 3.82735 2.04197 0
M  V30 3139 H 299.382 4.14595 3.64438 0
M  V30 3140 H 301.858 2.22327 3.51724 0
M  V30 3141 H 300.734 2.54781 4.86187 0
M  V30 3142 H 300.995 0.894315 4.3296 0
M  V30 3143 N 300.054 -1.07777 1.14986 0
M  V30 3144 C 300.964 -2.18404 0.856546 0
M  V30 3145 C 301.98 -1.73211 -0.165485 0
M  V30 3146 O 303.156 -2.01399 0.00755219 0
M  V30 3147 C 300.221 -3.44977 0.34526 0
M  V30 3148 C 299.282 -4.0476 1.43065 0
M  V30 3149 C 298.515 -5.25291 0.943663 0
M  V30 3150 O 298.738 -5.70004 -0.212426 0
M  V30 3151 O 297.672 -5.76638 1.72547 0
M  V30 3152 H 301.498 -2.45978 1.78125 0
M  V30 3153 H 299.083 -1.17033 0.928631 0
M  V30 3154 H 300.965 -4.21348 0.0663671 0
M  V30 3155 H 299.64 -3.18965 -0.551631 0
M  V30 3156 H 298.547 -3.29949 1.76309 0
M  V30 3157 H 299.88 -4.35035 2.30229 0
M  V30 3158 N 301.532 -0.945985 -1.26051 0
M  V30 3159 C 302.943 -0.638096 -1.75457 0
M  V30 3160 C 303.294 0.846672 -1.76991 0
M  V30 3161 O 302.419 1.66262 -1.38513 0
M  V30 3162 C 303.014 -1.15157 -3.18629 0
M  V30 3163 C 301.573 -0.894004 -3.65629 0
M  V30 3164 C 300.72 -1.29967 -2.44957 0
M  V30 3165 H 303.671 -1.12376 -1.1206 0
M  V30 3166 H 303.692 -0.507615 -3.77099 0
M  V30 3167 H 303.204 -2.23222 -3.1748 0
M  V30 3168 H 301.305 0.172057 -3.72203 0
M  V30 3169 H 301.418 -1.52439 -4.54202 0
M  V30 3170 H 299.782 -0.718078 -2.44368 0
M  V30 3171 H 300.565 -2.38935 -2.46505 0
M  V30 3172 N 303.011 1.40521 -0.713556 0
M  V30 3173 C 304.259 2.00527 -0.251692 0
M  V30 3174 C 304.58 1.56857 1.15848 0
M  V30 3175 O 303.85 0.807127 1.785 0
M  V30 3176 H 302.43 0.741551 -0.0900646 0
M  V30 3177 H 305.092 1.71887 -0.918733 0
M  V30 3178 H 304.188 3.10813 -0.283192 0
M  V30 3179 N 304.489 0.459591 1.5075 0
M  V30 3180 C 305.736 -0.0993495 2.02256 0
M  V30 3181 C 306.064 -1.40751 1.34237 0
M  V30 3182 O 305.319 -1.90379 0.453228 0
M  V30 3183 C 305.618 -0.342866 3.55752 0
M  V30 3184 C 305.284 0.88218 4.42186 0
M  V30 3185 C 303.946 1.21808 4.65528 0
M  V30 3186 C 306.298 1.69837 4.92752 0
M  V30 3187 C 303.626 2.37045 5.36681 0
M  V30 3188 C 305.978 2.84192 5.65171 0
M  V30 3189 C 304.642 3.1821 5.8677 0
M  V30 3190 H 303.912 -0.0363545 0.740108 0
M  V30 3191 H 306.559 0.611329 1.8148 0
M  V30 3192 H 304.864 -1.13567 3.7498 0
M  V30 3193 H 306.561 -0.789121 3.93159 0
M  V30 3194 H 303.151 0.610467 4.2423 0
M  V30 3195 H 307.335 1.45205 4.74583 0
M  V30 3196 H 302.591 2.63689 5.51614 0
M  V30 3197 H 306.765 3.4779 6.03337 0
M  V30 3198 H 304.392 4.07613 6.41682 0
M  V30 3199 N 305.967 -1.56429 0.191757 0
M  V30 3200 C 307.214 -1.97485 -0.447891 0
M  V30 3201 C 307.542 -1.07852 -1.61859 0
M  V30 3202 O 306.797 -0.116903 -1.95351 0
M  V30 3203 C 307.096 -3.44449 -0.953384 0
M  V30 3204 C 306.762 -4.50781 0.103586 0
M  V30 3205 C 305.424 -4.79584 0.394023 0
M  V30 3206 C 307.776 -5.1471 0.819946 0
M  V30 3207 C 305.104 -5.69607 1.40585 0
M  V30 3208 C 307.456 -6.05827 1.8209 0
M  V30 3209 C 306.12 -6.32987 2.11857 0
M  V30 3210 H 305.39 -0.722648 -0.163895 0
M  V30 3211 H 308.037 -1.89322 0.28802 0
M  V30 3212 H 306.342 -3.49666 -1.76751 0
M  V30 3213 H 308.039 -3.73569 -1.45765 0
M  V30 3214 H 304.629 -4.28394 -0.132951 0
M  V30 3215 H 308.813 -4.92552 0.608789 0
M  V30 3216 H 304.069 -5.88926 1.64243 0
M  V30 3217 H 308.243 -6.54424 2.38123 0
M  V30 3218 H 305.87 -7.02544 2.90407 0
M  V30 3219 N 307.445 0.0818655 -1.57387 0
M  V30 3220 C 308.861 0.436412 -1.53517 0
M  V30 3221 C 309.061 1.79758 -0.910459 0
M  V30 3222 O 308.117 2.47324 -0.508636 0
M  V30 3223 C 309.43 0.386734 -2.98203 0
M  V30 3224 C 310.978 0.467644 -3.09487 0
M  V30 3225 C 311.453 0.447978 -4.55804 0
M  V30 3226 N 312.944 0.508348 -4.60402 0
M  V30 3227 C 313.679 0.515184 -5.71081 0
M  V30 3228 N 313.175 0.477435 -6.91153 0
M  V30 3229 N 314.968 0.560988 -5.59294 0
M  V30 3230 H 307.119 -0.809546 -1.96367 0
M  V30 3231 H 309.382 -0.302733 -0.898363 0
M  V30 3232 H 309.088 -0.546539 -3.47427 0
M  V30 3233 H 308.962 1.20075 -3.57578 0
M  V30 3234 H 311.349 1.39134 -2.60242 0
M  V30 3235 H 311.43 -0.374753 -2.5304 0
M  V30 3236 H 311.074 -0.471826 -5.05704 0
M  V30 3237 H 311.004 1.30777 -5.10103 0
M  V30 3238 H 313.495 0.54218 -3.7399 0
M  V30 3239 H 313.808 0.486299 -7.71268 0
M  V30 3240 H 312.153 0.444278 -6.93579 0
M  V30 3241 H 315.344 0.5881 -4.64391 0
M  V30 3242 H 315.517 0.562846 -6.45551 0
M  V30 3243 N 308.923 1.53595 0.353017 0
M  V30 3244 C 310.151 1.74311 1.1146 0
M  V30 3245 C 310.566 0.477854 1.82653 0
M  V30 3246 O 309.923 -0.549977 1.74016 0
M  V30 3247 C 309.974 2.91694 2.13534 0
M  V30 3248 O 309.695 4.13325 1.45238 0
M  V30 3249 C 311.196 3.24384 3.02142 0
M  V30 3250 H 308.416 0.582669 0.332773 0
M  V30 3251 H 310.96 2.00386 0.408107 0
M  V30 3252 H 309.115 2.67977 2.79763 0
M  V30 3253 H 309.529 4.79148 2.13349 0
M  V30 3254 H 311.003 4.09893 3.69718 0
M  V30 3255 H 311.48 2.40282 3.67643 0
M  V30 3256 H 312.086 3.50073 2.41514 0
M  V30 3257 N 310.401 -0.613514 1.45168 0
M  V30 3258 C 311.812 -1.19539 1.43413 0
M  V30 3259 C 312.163 -1.95558 0.158632 0
M  V30 3260 O 311.288 -2.0335 -0.740119 0
M  V30 3261 C 311.883 -2.17445 2.59813 0
M  V30 3262 C 310.442 -2.71022 2.61197 0
M  V30 3263 C 309.589 -1.46323 2.35552 0
M  V30 3264 H 312.54 -0.403163 1.53494 0
M  V30 3265 H 312.561 -3.00373 2.33574 0
M  V30 3266 H 312.073 -1.62089 3.52631 0
M  V30 3267 H 310.174 -3.30332 1.7237 0
M  V30 3268 H 310.287 -3.15859 3.60236 0
M  V30 3269 H 308.651 -1.75072 1.84992 0
M  V30 3270 H 309.434 -0.92844 3.30507 0
M  V30 3271 N 311.879 -1.3236 -0.855495 0
M  V30 3272 C 313.125 -1.23054 -1.612 0
M  V30 3273 C 313.458 0.207404 -1.93089 0
M  V30 3274 O 312.733 1.14432 -1.57275 0
M  V30 3275 C 313.016 -2.08937 -2.93287 0
M  V30 3276 C 312.869 -3.61105 -2.68185 0
M  V30 3277 C 314.188 -1.94986 -3.94549 0
M  V30 3278 H 311.307 -0.448364 -0.584926 0
M  V30 3279 H 313.949 -1.62297 -0.987917 0
M  V30 3280 H 312.099 -1.75599 -3.46551 0
M  V30 3281 H 313.771 -4.04652 -2.21483 0
M  V30 3282 H 312.014 -3.83813 -2.02164 0
M  V30 3283 H 312.685 -4.16522 -3.62234 0
M  V30 3284 H 315.161 -2.24189 -3.5054 0
M  V30 3285 H 314.037 -2.57356 -4.84829 0
M  V30 3286 H 314.298 -0.917263 -4.3248 0
M  V30 3287 N 313.357 1.07166 -1.15556 0
M  V30 3288 C 314.585 1.83514 -0.955519 0
M  V30 3289 C 315 1.82163 0.49621 0
M  V30 3290 O 314.357 1.23441 1.34419 0
M  V30 3291 C 314.408 3.30515 -1.46432 0
M  V30 3292 O 314.129 3.31937 -2.85918 0
M  V30 3293 C 315.63 4.23625 -1.30603 0
M  V30 3294 H 312.85 0.578926 -0.339244 0
M  V30 3295 H 315.394 1.35265 -1.53374 0
M  V30 3296 H 313.549 3.76106 -0.928584 0
M  V30 3297 H 313.963 4.23794 -3.09029 0
M  V30 3298 H 315.437 5.24831 -1.71047 0
M  V30 3299 H 315.914 4.38485 -0.250441 0
M  V30 3300 H 316.52 3.83871 -1.83094 0
M  V30 3301 N 314.835 0.952656 1.25548 0
M  V30 3302 C 315.783 0.462354 2.27958 0
M  V30 3303 C 316.777 -0.46634 1.62855 0
M  V30 3304 O 317.983 -0.343287 1.76696 0
M  V30 3305 H 314.358 0.13101 0.7405 0
M  V30 3306 H 316.329 1.33839 2.66702 0
M  V30 3307 C 315.078 -0.24628 3.46827 0
M  V30 3308 H 314.401 0.459192 3.97154 0
M  V30 3309 H 315.841 -0.553393 4.20373 0
M  V30 3310 C 314.3 -1.4681 3.0323 0
M  V30 3311 O 314.83 -2.56591 3.09069 0
M  V30 3312 N 313.036 -1.32874 2.58443 0
M  V30 3313 H 312.583 -0.435536 2.53891 0
M  V30 3314 H 312.541 -2.14742 2.29637 0
M  V30 3315 N 316.313 -1.40141 0.720998 0
M  V30 3316 C 317.243 -2.33339 0.0867621 0
M  V30 3317 C 318.224 -1.53178 -0.739622 0
M  V30 3318 O 319.409 -1.81625 -0.687449 0
M  V30 3319 C 316.539 -3.37194 -0.831728 0
M  V30 3320 C 315.493 -4.27857 -0.110558 0
M  V30 3321 C 314.819 -5.22294 -1.14513 0
M  V30 3322 C 316.119 -5.11872 1.0385 0
M  V30 3323 H 317.813 -2.86626 0.865219 0
M  V30 3324 H 315.359 -1.37814 0.417516 0
M  V30 3325 H 317.312 -4.01335 -1.28485 0
M  V30 3326 H 316.036 -2.82314 -1.64214 0
M  V30 3327 H 314.695 -3.65176 0.322797 0
M  V30 3328 H 314.343 -4.63717 -1.94874 0
M  V30 3329 H 314.043 -5.83797 -0.667446 0
M  V30 3330 H 315.567 -5.89312 -1.59824 0
M  V30 3331 H 316.981 -5.69436 0.664482 0
M  V30 3332 H 315.378 -5.82445 1.4449 0
M  V30 3333 H 316.448 -4.4753 1.86668 0
M  V30 3334 N 317.792 -0.46758 -1.50504 0
M  V30 3335 C 318.702 0.33382 -2.32213 0
M  V30 3336 C 319.718 0.999323 -1.42441 0
M  V30 3337 O 320.894 0.988068 -1.75497 0
M  V30 3338 C 317.959 1.4035 -3.17022 0
M  V30 3339 C 317.02 0.754961 -4.2261 0
M  V30 3340 C 316.253 1.77367 -5.03365 0
M  V30 3341 O 316.476 2.99976 -4.8515 0
M  V30 3342 O 315.41 1.34744 -5.86624 0
M  V30 3343 H 319.236 -0.334067 -3.01857 0
M  V30 3344 H 316.821 -0.229496 -1.47627 0
M  V30 3345 H 318.703 2.02318 -3.69656 0
M  V30 3346 H 317.378 2.05492 -2.5011 0
M  V30 3347 H 316.285 0.0964244 -3.73976 0
M  V30 3348 H 317.618 0.146545 -4.91982 0
M  V30 3349 N 319.27 1.56325 -0.20005 0
M  V30 3350 C 320.495 2.02548 0.44597 0
M  V30 3351 C 320.92 1.07922 1.5406 0
M  V30 3352 O 320.278 0.0635775 1.81188 0
M  V30 3353 C 320.326 3.47175 0.974761 0
M  V30 3354 O 319.43 3.55671 2.08739 0
M  V30 3355 H 318.771 0.655862 0.103638 0
M  V30 3356 H 321.301 2.02201 -0.312381 0
M  V30 3357 H 321.311 3.87067 1.2901 0
M  V30 3358 H 319.986 4.15538 0.17347 0
M  V30 3359 H 318.563 3.27657 1.78032 0
M  V30 3360 N 320.748 -0.0735177 1.57428 0
M  V30 3361 C 321.678 -1.0879 2.06608 0
M  V30 3362 C 322.659 -1.40473 0.959237 0
M  V30 3363 O 323.844 -1.5013 1.23185 0
M  V30 3364 C 320.974 -2.40183 2.50857 0
M  V30 3365 C 319.928 -2.22858 3.65402 0
M  V30 3366 C 319.254 -3.59619 3.957 0
M  V30 3367 C 320.554 -1.65123 4.95511 0
M  V30 3368 H 322.248 -0.678673 2.91607 0
M  V30 3369 H 319.794 -0.325013 1.40284 0
M  V30 3370 H 321.747 -3.11437 2.83874 0
M  V30 3371 H 320.471 -2.83083 1.62885 0
M  V30 3372 H 319.13 -1.54045 3.32664 0
M  V30 3373 H 318.778 -4.00086 3.04861 0
M  V30 3374 H 318.478 -3.48866 4.72828 0
M  V30 3375 H 320.002 -4.32306 4.31212 0
M  V30 3376 H 321.416 -2.26241 5.26771 0
M  V30 3377 H 319.813 -1.65071 5.7695 0
M  V30 3378 H 320.883 -0.612559 4.81015 0
M  V30 3379 N 322.226 -1.5378 -0.344866 0
M  V30 3380 C 323.136 -1.84667 -1.4469 0
M  V30 3381 C 324.152 -0.736704 -1.57635 0
M  V30 3382 O 325.328 -1.02888 -1.73136 0
M  V30 3383 C 322.393 -2.04869 -2.79696 0
M  V30 3384 C 321.454 -3.28731 -2.76106 0
M  V30 3385 C 320.687 -3.4796 -4.04673 0
M  V30 3386 O 320.91 -2.71052 -5.01883 0
M  V30 3387 O 319.844 -4.41383 -4.09224 0
M  V30 3388 H 323.67 -2.78334 -1.21506 0
M  V30 3389 H 321.255 -1.39418 -0.536921 0
M  V30 3390 H 323.137 -2.19609 -3.59652 0
M  V30 3391 H 321.812 -1.14391 -3.02814 0
M  V30 3392 H 320.719 -3.19396 -1.94774 0
M  V30 3393 H 322.052 -4.19198 -2.57941 0
M  V30 3394 N 323.704 0.605807 -1.45491 0
M  V30 3395 C 324.651 1.7164 -1.54299 0
M  V30 3396 C 325.621 1.61486 -0.388761 0
M  V30 3397 O 326.806 1.81039 -0.602445 0
M  V30 3398 C 323.946 3.09953 -1.51734 0
M  V30 3399 C 323.059 3.309 -2.77721 0
M  V30 3400 C 322.194 4.59329 -2.66816 0
M  V30 3401 C 321.233 4.7354 -3.87848 0
M  V30 3402 N 320.37 5.9327 -3.75467 0
M  V30 3403 H 325.21 1.63449 -2.49176 0
M  V30 3404 H 322.747 0.796957 -1.23641 0
M  V30 3405 H 324.705 3.89977 -1.48235 0
M  V30 3406 H 323.335 3.17098 -0.604068 0
M  V30 3407 H 322.387 2.44639 -2.913 0
M  V30 3408 H 323.699 3.37274 -3.67488 0
M  V30 3409 H 322.853 5.4755 -2.61292 0
M  V30 3410 H 321.592 4.55355 -1.74651 0
M  V30 3411 H 320.597 3.83741 -3.93729 0
M  V30 3412 H 321.822 4.79309 -4.81082 0
M  V30 3413 H 319.768 5.90338 -2.86072 0
M  V30 3414 H 319.685 6.00811 -4.5887 0
M  V30 3415 H 320.953 6.83984 -3.73879 0
M  V30 3416 N 325.182 1.32811 0.848464 0
M  V30 3417 C 326.41 1.26739 1.63538 0
M  V30 3418 C 326.825 -0.163484 1.88091 0
M  V30 3419 O 326.182 -1.10258 1.45429 0
M  V30 3420 C 326.233 2.03013 2.99112 0
M  V30 3421 O 325.954 3.40518 2.75643 0
M  V30 3422 C 327.455 2.04038 3.93552 0
M  V30 3423 H 324.675 0.437024 0.509167 0
M  V30 3424 H 327.219 1.75033 1.05753 0
M  V30 3425 H 325.374 1.58426 3.53525 0
M  V30 3426 H 325.788 3.79635 3.61908 0
M  V30 3427 H 327.262 2.61877 4.85926 0
M  V30 3428 H 327.739 1.0282 4.26995 0
M  V30 3429 H 328.345 2.486 3.45077 0
M  V30 3430 N 326.66 -1.06551 1.16123 0
M  V30 3431 C 327.59 -2.15935 0.88851 0
M  V30 3432 C 328.571 -1.69306 -0.164135 0
M  V30 3433 O 329.756 -1.94193 -0.0167857 0
M  V30 3434 C 326.886 -3.45149 0.385942 0
M  V30 3435 C 325.84 -4.05271 1.3762 0
M  V30 3436 C 325.166 -5.29664 0.732137 0
M  V30 3437 C 326.466 -4.44355 2.74493 0
M  V30 3438 H 328.16 -2.39006 1.80323 0
M  V30 3439 H 325.706 -1.14866 0.868435 0
M  V30 3440 H 327.659 -4.21004 0.182647 0
M  V30 3441 H 326.383 -3.21689 -0.564274 0
M  V30 3442 H 325.042 -3.3147 1.56599 0
M  V30 3443 H 324.69 -5.02499 -0.224483 0
M  V30 3444 H 324.39 -5.70848 1.39307 0
M  V30 3445 H 325.914 -6.08218 0.538802 0
M  V30 3446 H 327.328 -5.11303 2.59311 0
M  V30 3447 H 325.725 -4.96515 3.37035 0
M  V30 3448 H 326.795 -3.55339 3.29943 0
M  V30 3449 N 328.138 -0.959301 -1.25041 0
M  V30 3450 C 329.07 -0.440543 -2.24926 0
M  V30 3451 C 330.083 0.446131 -1.56568 0
M  V30 3452 O 331.272 0.253657 -1.76689 0
M  V30 3453 C 328.372 0.38412 -3.36716 0
M  V30 3454 C 327.545 -0.490658 -4.34639 0
M  V30 3455 C 326.604 0.276587 -5.25473 0
M  V30 3456 O 325.63 -0.326614 -5.68262 0
M  V30 3457 N 326.832 1.56844 -5.5891 0
M  V30 3458 H 329.597 -1.29931 -2.70071 0
M  V30 3459 H 327.158 -0.830181 -1.38995 0
M  V30 3460 H 329.15 0.905228 -3.94446 0
M  V30 3461 H 327.72 1.14377 -2.90924 0
M  V30 3462 H 326.94 -1.19282 -3.7572 0
M  V30 3463 H 328.228 -1.08756 -4.97041 0
M  V30 3464 H 327.626 2.08036 -5.26059 0
M  V30 3465 H 326.183 2.03541 -6.19205 0
M  V30 3466 N 329.616 1.39756 -0.72842 0
M  V30 3467 C 330.579 2.29012 -0.0927297 0
M  V30 3468 C 331.579 1.45992 0.674025 0
M  V30 3469 O 332.769 1.66749 0.50402 0
M  V30 3470 C 329.901 3.29396 0.878137 0
M  V30 3471 H 331.094 2.86729 -0.879011 0
M  V30 3472 H 328.647 1.48293 -0.493847 0
M  V30 3473 H 329.382 2.76722 1.69101 0
M  V30 3474 H 329.167 3.907 0.331051 0
M  V30 3475 H 330.657 3.96199 1.3197 0
M  V30 3476 N 331.094 0.475555 1.50254 0
M  V30 3477 C 332.334 -0.0765802 2.04256 0
M  V30 3478 C 332.698 -1.36587 1.34937 0
M  V30 3479 O 333.899 -2.00066 1.79519 0
M  V30 3480 C 332.17 -0.251668 3.56513 0
M  V30 3481 S 333.729 -0.761716 4.32138 0
M  V30 3482 H 330.547 -0.0138456 0.710865 0
M  V30 3483 H 333.149 0.643714 1.84598 0
M  V30 3484 H 331.853 0.692404 4.04517 0
M  V30 3485 H 331.384 -0.997946 3.80532 0
M  V30 3486 H 333.399 -2.03451 4.52573 0
M  V30 3487 N 332.573 -1.56217 0.208337 0
M  V30 3488 C 333.819 -1.98998 -0.42086 0
M  V30 3489 C 334.174 -1.09331 -1.58317 0
M  V30 3490 O 333.467 -0.140466 -1.91084 0
M  V30 3491 C 333.661 -3.45441 -0.916797 0
M  V30 3492 C 333.49 -4.49273 0.195925 0
M  V30 3493 C 332.26 -5.00998 0.657956 0
M  V30 3494 C 334.458 -5.04294 1.00956 0
M  V30 3495 N 332.44 -5.88514 1.74712 0
M  V30 3496 C 333.811 -5.88607 1.94785 0
M  V30 3497 C 335.866 -4.86692 1.05049 0
M  V30 3498 C 334.569 -6.572 2.9237 0
M  V30 3499 C 336.595 -5.56034 2.01446 0
M  V30 3500 C 335.957 -6.40105 2.94016 0
M  V30 3501 H 332.056 -0.772574 -0.121048 0
M  V30 3502 H 334.64 -1.92101 0.317075 0
M  V30 3503 H 332.811 -3.52812 -1.62413 0
M  V30 3504 H 334.543 -3.75164 -1.51771 0
M  V30 3505 H 331.298 -4.72945 0.248912 0
M  V30 3506 H 331.722 -6.36975 2.2933 0
M  V30 3507 H 336.364 -4.21359 0.348759 0
M  V30 3508 H 334.082 -7.21723 3.63512 0
M  V30 3509 H 337.668 -5.44385 2.0527 0
M  V30 3510 H 336.548 -6.92816 3.6739 0
M  V30 3511 N 334.051 0.0651679 -1.57465 0
M  V30 3512 C 335.014 1.06117 -2.03155 0
M  V30 3513 C 336.014 1.31204 -0.929632 0
M  V30 3514 O 337.204 1.26813 -1.19432 0
M  V30 3515 C 334.336 2.4032 -2.41783 0
M  V30 3516 H 335.529 0.667231 -2.92383 0
M  V30 3517 H 333.082 0.311075 -1.53173 0
M  V30 3518 H 333.817 2.84532 -1.55601 0
M  V30 3519 H 333.602 2.23451 -3.22199 0
M  V30 3520 H 335.092 3.11898 -2.77685 0
M  V30 3521 N 335.529 1.53961 0.336706 0
M  V30 3522 C 336.945 1.44378 0.680241 0
M  V30 3523 C 337.145 0.606034 1.9217 0
M  V30 3524 O 336.201 0.099688 2.52303 0
M  V30 3525 C 337.514 2.87945 0.8665 0
M  V30 3526 C 339.062 2.97763 0.964682 0
M  V30 3527 C 339.537 4.42453 1.18321 0
M  V30 3528 N 341.028 4.46008 1.25025 0
M  V30 3529 C 341.763 5.55102 1.43697 0
M  V30 3530 N 341.259 6.7419 1.59498 0
M  V30 3531 N 343.052 5.42727 1.463 0
M  V30 3532 H 335.203 2.06918 -0.479455 0
M  V30 3533 H 337.466 0.935634 -0.152619 0
M  V30 3534 H 337.172 3.51691 0.0256937 0
M  V30 3535 H 337.046 3.33293 1.76623 0
M  V30 3536 H 339.433 2.34153 1.796 0
M  V30 3537 H 339.514 2.55766 0.041708 0
M  V30 3538 H 339.158 5.06645 0.356788 0
M  V30 3539 H 339.088 4.82048 2.11985 0
M  V30 3540 H 341.579 3.60196 1.14312 0
M  V30 3541 H 341.892 7.53095 1.734 0
M  V30 3542 H 340.237 6.77123 1.56621 0
M  V30 3543 H 343.428 4.48647 1.33543 0
M  V30 3544 H 343.601 6.27806 1.6051 0
M  V30 3545 N 337.007 -0.598083 1.45811 0
M  V30 3546 C 337.937 -1.71873 1.58057 0
M  V30 3547 C 338.918 -1.64533 0.431615 0
M  V30 3548 O 340.103 -1.82787 0.65595 0
M  V30 3549 C 337.233 -3.10495 1.55597 0
M  V30 3550 C 336.187 -3.32654 2.69305 0
M  V30 3551 C 335.513 -4.71646 2.51902 0
M  V30 3552 C 336.813 -3.21981 4.11248 0
M  V30 3553 H 338.507 -1.61881 2.51863 0
M  V30 3554 H 336.053 -0.777372 1.21214 0
M  V30 3555 H 338.006 -3.88699 1.6276 0
M  V30 3556 H 336.73 -3.2135 0.583255 0
M  V30 3557 H 335.389 -2.56843 2.61586 0
M  V30 3558 H 335.037 -4.79246 1.52748 0
M  V30 3559 H 334.737 -4.87426 3.2816 0
M  V30 3560 H 336.261 -5.52038 2.60933 0
M  V30 3561 H 337.675 -3.90049 4.20161 0
M  V30 3562 H 336.072 -3.49289 4.87972 0
M  V30 3563 H 337.142 -2.1928 4.32486 0
M  V30 3564 N 338.485 -1.33259 -0.841409 0
M  V30 3565 C 339.896 -1.22066 -1.41269 0
M  V30 3566 C 340.247 0.161479 -1.95534 0
M  V30 3567 O 339.372 1.06094 -1.88608 0
M  V30 3568 C 339.967 -2.20996 -2.568 0
M  V30 3569 C 338.526 -2.13649 -3.09888 0
M  V30 3570 C 337.673 -2.08623 -1.82679 0
M  V30 3571 H 340.624 -1.44895 -0.647395 0
M  V30 3572 H 340.645 -1.81621 -3.34356 0
M  V30 3573 H 340.157 -3.2158 -2.17274 0
M  V30 3574 H 338.258 -1.16359 -3.53965 0
M  V30 3575 H 338.371 -3.04079 -3.70234 0
M  V30 3576 H 336.735 -1.54061 -2.02824 0
M  V30 3577 H 337.518 -3.1101 -1.45353 0
M  V30 3578 N 339.963 1.05934 -1.16686 0
M  V30 3579 C 341.374 1.60263 -0.957745 0
M  V30 3580 C 341.725 1.89789 0.49745 0
M  V30 3581 O 340.85 1.67401 1.37135 0
M  V30 3582 C 341.445 2.91172 -1.73218 0
M  V30 3583 C 340.004 3.42188 -1.56794 0
M  V30 3584 C 339.151 2.16028 -1.73859 0
M  V30 3585 H 342.102 0.888392 -1.31504 0
M  V30 3586 H 342.123 3.60744 -1.21014 0
M  V30 3587 H 341.635 2.6965 -2.79124 0
M  V30 3588 H 339.736 3.68762 -0.533437 0
M  V30 3589 H 339.849 4.17273 -2.35414 0
M  V30 3590 H 338.213 2.26426 -1.16633 0
M  V30 3591 H 338.996 1.96985 -2.81161 0
M  V30 3592 N 341.441 0.965919 1.2453 0
M  V30 3593 C 342.404 0.499547 2.2369 0
M  V30 3594 C 343.404 -0.40294 1.5567 0
M  V30 3595 O 344.594 -0.19865 1.73064 0
M  V30 3596 C 341.726 -0.276792 3.39774 0
M  V30 3597 H 342.919 1.37613 2.66463 0
M  V30 3598 H 340.472 0.750324 1.37112 0
M  V30 3599 H 341.207 -1.17055 3.02438 0
M  V30 3600 H 340.992 0.370826 3.90343 0
M  V30 3601 H 342.482 -0.592175 4.1338 0
M  V30 3602 N 342.919 -1.39368 0.735821 0
M  V30 3603 C 344.147 -2.04795 0.294393 0
M  V30 3604 C 344.562 -1.55478 -1.07107 0
M  V30 3605 O 343.919 -0.720038 -1.67695 0
M  V30 3606 C 343.97 -3.6035 0.288071 0
M  V30 3607 O 343.691 -4.07852 1.59963 0
M  V30 3608 C 345.192 -4.42976 -0.169422 0
M  V30 3609 H 342.412 -0.658571 0.128551 0
M  V30 3610 H 344.956 -1.78399 0.999701 0
M  V30 3611 H 343.111 -3.85645 -0.368355 0
M  V30 3612 H 343.525 -5.02181 1.51375 0
M  V30 3613 H 344.999 -5.51864 -0.122687 0
M  V30 3614 H 345.476 -4.22068 -1.21472 0
M  V30 3615 H 346.082 -4.22832 0.457469 0
M  V30 3616 N 344.397 -0.483516 -1.5 0
M  V30 3617 C 345.329 0.340634 -2.26655 0
M  V30 3618 C 346.342 0.946152 -1.32483 0
M  V30 3619 O 347.531 0.832453 -1.579 0
M  V30 3620 C 344.631 1.4929 -3.04246 0
M  V30 3621 C 343.804 0.997903 -4.25865 0
M  V30 3622 C 342.863 2.02569 -4.85646 0
M  V30 3623 O 341.889 1.60128 -5.46212 0
M  V30 3624 N 343.091 3.3548 -4.73744 0
M  V30 3625 H 345.856 -0.316577 -2.98023 0
M  V30 3626 H 343.417 -0.315024 -1.58806 0
M  V30 3627 H 345.409 2.17766 -3.41116 0
M  V30 3628 H 343.979 2.05458 -2.35597 0
M  V30 3629 H 343.199 0.138617 -3.93956 0
M  V30 3630 H 344.487 0.645305 -5.04691 0
M  V30 3631 H 343.885 3.72661 -4.25605 0
M  V30 3632 H 342.442 3.99718 -5.14848 0
M  V30 3633 N 345.875 1.56104 -0.216619 0
M  V30 3634 C 346.838 2.18819 0.681962 0
M  V30 3635 C 347.838 1.14866 1.12528 0
M  V30 3636 O 349.028 1.40128 1.03488 0
M  V30 3637 C 346.16 2.80756 1.93362 0
M  V30 3638 H 347.353 2.99595 0.135254 0
M  V30 3639 H 344.906 1.56265 0.0330003 0
M  V30 3640 H 345.641 2.03837 2.52232 0
M  V30 3641 H 345.426 3.56876 1.62426 0
M  V30 3642 H 346.916 3.28844 2.57393 0
M  V30 3643 N 347.353 -0.0568162 1.57498 0
M  V30 3644 C 348.303 -1.07315 2.01166 0
M  V30 3645 C 349.287 -1.33632 0.896171 0
M  V30 3646 O 350.479 -1.33682 1.16009 0
M  V30 3647 C 347.608 -2.38257 2.47161 0
M  V30 3648 C 346.694 -2.1515 3.65474 0
M  V30 3649 N 347.085 -1.62014 4.7915 0
M  V30 3650 C 345.383 -2.45559 3.72313 0
M  V30 3651 C 346.084 -1.54069 5.60926 0
M  V30 3652 N 345.06 -2.00652 5.05213 0
M  V30 3653 H 348.862 -0.655878 2.86488 0
M  V30 3654 H 346.376 -0.263635 1.60246 0
M  V30 3655 H 348.373 -3.11845 2.76691 0
M  V30 3656 H 347.033 -2.80687 1.63232 0
M  V30 3657 H 348.044 -1.30667 5.01145 0
M  V30 3658 H 344.721 -2.91253 2.99129 0
M  V30 3659 H 346.111 -1.13712 6.62208 0
M  V30 3660 N 348.832 -1.54138 -0.328536 0
M  V30 3661 C 350.062 -1.75807 -1.08516 0
M  V30 3662 C 350.47 -0.50428 -1.82356 0
M  V30 3663 O 349.813 0.534451 -1.75754 0
M  V30 3664 C 349.875 -2.89423 -2.13248 0
M  V30 3665 C 349.539 -4.28504 -1.5885 0
M  V30 3666 C 350.536 -5.09536 -1.03289 0
M  V30 3667 C 348.221 -4.75034 -1.63243 0
M  V30 3668 C 350.215 -6.35206 -0.52845 0
M  V30 3669 C 347.902 -6.00672 -1.12411 0
M  V30 3670 C 348.9 -6.80592 -0.573062 0
M  V30 3671 O 348.588 -8.03867 -0.0723692 0
M  V30 3672 H 348.32 -0.590633 -0.328829 0
M  V30 3673 H 350.874 -2.01819 -0.381868 0
M  V30 3674 H 349.104 -2.5897 -2.87178 0
M  V30 3675 H 350.793 -2.98921 -2.74592 0
M  V30 3676 H 351.559 -4.74745 -0.99206 0
M  V30 3677 H 347.438 -4.12875 -2.05074 0
M  V30 3678 H 350.982 -6.97532 -0.0976774 0
M  V30 3679 H 346.879 -6.34955 -1.162 0
M  V30 3680 H 347.647 -8.18283 -0.188258 0
M  V30 3681 N 350.31 0.590341 -1.46126 0
M  V30 3682 C 351.558 1.34616 -1.50742 0
M  V30 3683 C 351.879 1.94363 -0.157486 0
M  V30 3684 O 351.149 1.78136 0.815136 0
M  V30 3685 H 349.729 0.499789 -0.555175 0
M  V30 3686 H 352.391 0.691953 -1.82203 0
M  V30 3687 H 351.487 2.15678 -2.25587 0
M  V30 3688 N 351.788 1.33704 0.83433 0
M  V30 3689 C 353.036 1.25169 1.58673 0
M  V30 3690 C 353.357 -0.18127 1.94156 0
M  V30 3691 O 352.627 -1.11113 1.6134 0
M  V30 3692 H 351.207 0.4603 0.58833 0
M  V30 3693 H 353.869 1.67478 0.996847 0
M  V30 3694 H 352.965 1.84856 2.51465 0
M  V30 3695 N 353.266 -1.05314 1.17247 0
M  V30 3696 C 354.229 -2.112 0.890357 0
M  V30 3697 C 355.229 -1.60359 -0.118943 0
M  V30 3698 O 356.419 -1.73833 0.113086 0
M  V30 3699 C 353.551 -3.39266 0.333422 0
M  V30 3700 H 354.744 -2.37659 1.82916 0
M  V30 3701 H 352.297 -1.21538 0.982758 0
M  V30 3702 H 353.032 -3.18462 -0.612587 0
M  V30 3703 H 352.817 -3.77477 1.06082 0
M  V30 3704 H 354.307 -4.17315 0.154322 0
M  V30 3705 N 354.744 -0.972509 -1.24016 0
M  V30 3706 C 355.991 -0.637034 -1.92219 0
M  V30 3707 C 356.319 0.828418 -1.75976 0
M  V30 3708 O 355.574 1.61206 -1.10955 0
M  V30 3709 C 355.873 -0.963694 -3.44162 0
M  V30 3710 C 355.539 -2.41807 -3.80579 0
M  V30 3711 C 354.201 -2.81556 -3.9023 0
M  V30 3712 C 356.553 -3.36172 -3.98293 0
M  V30 3713 C 353.881 -4.14702 -4.15017 0
M  V30 3714 C 356.233 -4.68952 -4.24578 0
M  V30 3715 C 354.897 -5.08472 -4.32449 0
M  V30 3716 H 354.167 -0.233107 -0.703379 0
M  V30 3717 H 356.814 -1.2249 -1.47202 0
M  V30 3718 H 355.119 -0.29365 -3.90698 0
M  V30 3719 H 356.816 -0.682449 -3.9515 0
M  V30 3720 H 353.406 -2.09988 -3.73635 0
M  V30 3721 H 357.59 -3.06644 -3.90234 0
M  V30 3722 H 352.846 -4.4494 -4.19331 0
M  V30 3723 H 357.02 -5.42037 -4.37229 0
M  V30 3724 H 354.647 -6.11665 -4.51409 0
M  V30 3725 N 356.222 1.38976 -0.743202 0
M  V30 3726 C 357.152 2.33171 -0.123873 0
M  V30 3727 C 358.133 1.54336 0.71516 0
M  V30 3728 O 359.318 1.82696 0.658467 0
M  V30 3729 C 356.448 3.38474 0.777978 0
M  V30 3730 C 355.402 4.27979 0.0424758 0
M  V30 3731 C 354.728 5.2405 1.06189 0
M  V30 3732 C 356.028 5.10155 -1.1198 0
M  V30 3733 H 357.722 2.85213 -0.910709 0
M  V30 3734 H 355.268 1.37133 -0.439388 0
M  V30 3735 H 357.221 4.03328 1.22084 0
M  V30 3736 H 355.945 2.84891 1.59702 0
M  V30 3737 H 354.604 3.64616 -0.380853 0
M  V30 3738 H 354.252 4.66758 1.87472 0
M  V30 3739 H 353.952 5.84785 0.574485 0
M  V30 3740 H 355.476 5.9178 1.50428 0
M  V30 3741 H 356.89 5.68307 -0.75499 0
M  V30 3742 H 355.287 5.80073 -1.53738 0
M  V30 3743 H 356.357 4.44504 -1.93764 0
M  V30 3744 N 357.7 0.491464 1.49741 0
M  V30 3745 C 358.928 -0.0535151 2.06831 0
M  V30 3746 C 359.343 -1.31683 1.35296 0
M  V30 3747 O 358.7 -1.77402 0.42836 0
M  V30 3748 C 358.751 -0.320835 3.60073 0
M  V30 3749 O 358.472 0.892394 4.28915 0
M  V30 3750 C 359.973 -0.910519 4.33848 0
M  V30 3751 H 357.193 0.0161909 0.670805 0
M  V30 3752 H 359.737 0.68609 1.92647 0
M  V30 3753 H 357.892 -1.0104 3.73991 0
M  V30 3754 H 358.306 0.649401 5.20464 0
M  V30 3755 H 359.78 -1.04721 5.41976 0
M  V30 3756 H 360.257 -1.90589 3.95692 0
M  V30 3757 H 360.863 -0.258712 4.24512 0
M  V30 3758 N 359.178 -1.55987 0.224894 0
M  V30 3759 C 360.125 -2.20436 -0.68385 0
M  V30 3760 C 361.095 -1.16102 -1.18783 0
M  V30 3761 O 362.28 -1.4447 -1.24632 0
M  V30 3762 C 359.42 -2.89076 -1.88491 0
M  V30 3763 C 358.533 -4.08012 -1.41951 0
M  V30 3764 C 357.668 -4.64426 -2.5784 0
M  V30 3765 C 356.707 -5.75656 -2.08053 0
M  V30 3766 N 355.844 -6.26347 -3.17227 0
M  V30 3767 H 360.684 -2.97727 -0.12754 0
M  V30 3768 H 358.221 -1.47011 -0.0511978 0
M  V30 3769 H 360.179 -3.27059 -2.59014 0
M  V30 3770 H 358.809 -2.14298 -2.41405 0
M  V30 3771 H 357.861 -3.75492 -0.609095 0
M  V30 3772 H 359.173 -4.88375 -1.01447 0
M  V30 3773 H 358.327 -5.04869 -3.3644 0
M  V30 3774 H 357.066 -3.83233 -3.01635 0
M  V30 3775 H 356.071 -5.34712 -1.27916 0
M  V30 3776 H 357.296 -6.58686 -1.65255 0
M  V30 3777 H 355.242 -5.48067 -3.60497 0
M  V30 3778 H 355.159 -7.01843 -2.80986 0
M  V30 3779 H 356.427 -6.71447 -3.95953 0
M  V30 3780 N 360.656 0.0484629 -1.57525 0
M  V30 3781 C 361.886 0.754326 -1.92337 0
M  V30 3782 C 362.294 1.70443 -0.82132 0
M  V30 3783 O 361.637 1.82466 0.21254 0
M  V30 3784 C 361.699 1.58231 -3.22805 0
M  V30 3785 C 361.363 0.799074 -4.4996 0
M  V30 3786 C 362.36 0.1079 -5.19788 0
M  V30 3787 C 360.045 0.759345 -4.96527 0
M  V30 3788 C 362.039 -0.612516 -6.3445 0
M  V30 3789 C 359.726 0.0351713 -6.1109 0
M  V30 3790 C 360.724 -0.649537 -6.79904 0
M  V30 3791 O 360.412 -1.36199 -7.92278 0
M  V30 3792 H 360.144 0.218257 -0.639797 0
M  V30 3793 H 362.698 0.0159295 -2.05394 0
M  V30 3794 H 360.928 2.36406 -3.06021 0
M  V30 3795 H 362.617 2.16898 -3.43089 0
M  V30 3796 H 363.383 0.129748 -4.84826 0
M  V30 3797 H 359.262 1.28177 -4.42822 0
M  V30 3798 H 362.806 -1.14751 -6.88097 0
M  V30 3799 H 358.703 0.0113314 -6.45499 0
M  V30 3800 H 359.471 -1.27366 -8.0853 0
M  V30 3801 N 362.134 1.5431 0.320358 0
M  V30 3802 C 363.064 1.86912 1.3995 0
M  V30 3803 C 364.045 0.726211 1.53819 0
M  V30 3804 O 365.23 0.980233 1.67646 0
M  V30 3805 C 362.36 2.09932 2.7667 0
M  V30 3806 C 361.314 3.25776 2.77586 0
M  V30 3807 C 360.64 3.34173 4.17412 0
M  V30 3808 C 361.94 4.6335 2.41048 0
M  V30 3809 H 363.634 2.77292 1.12914 0
M  V30 3810 H 361.18 1.33421 0.541738 0
M  V30 3811 H 363.133 2.31324 3.52232 0
M  V30 3812 H 361.857 1.16304 3.0519 0
M  V30 3813 H 360.516 3.04276 2.04479 0
M  V30 3814 H 360.164 2.38098 4.43078 0
M  V30 3815 H 359.864 4.12033 4.18931 0
M  V30 3816 H 361.388 3.57803 4.94782 0
M  V30 3817 H 362.802 4.84602 3.06324 0
M  V30 3818 H 361.199 5.43782 2.53813 0
M  V30 3819 H 362.269 4.65381 1.36193 0
M  V30 3820 N 363.613 -0.582584 1.46437 0
M  V30 3821 C 364.56 -1.69164 1.5701 0
M  V30 3822 C 365.53 -1.60847 0.414403 0
M  V30 3823 O 366.715 -1.80058 0.631171 0
M  V30 3824 C 363.855 -3.075 1.56646 0
M  V30 3825 C 362.968 -3.2644 2.82951 0
M  V30 3826 C 362.103 -4.55026 2.7409 0
M  V30 3827 C 361.142 -4.6731 3.95333 0
M  V30 3828 N 360.279 -5.87221 3.84858 0
M  V30 3829 H 365.119 -1.59464 2.51744 0
M  V30 3830 H 362.656 -0.777186 1.24893 0
M  V30 3831 H 364.614 -3.8757 1.5442 0
M  V30 3832 H 363.244 -3.16096 0.654439 0
M  V30 3833 H 362.296 -2.39974 2.95155 0
M  V30 3834 H 363.608 -3.31385 3.72808 0
M  V30 3835 H 362.762 -5.43324 2.6997 0
M  V30 3836 H 361.501 -4.52519 1.81873 0
M  V30 3837 H 360.506 -3.77429 3.99784 0
M  V30 3838 H 361.731 -4.71595 4.88646 0
M  V30 3839 H 359.677 -5.85712 2.95427 0
M  V30 3840 H 359.594 -5.93435 4.6837 0
M  V30 3841 H 360.862 -6.7795 3.84713 0
M  V30 3842 N 365.091 -1.34144 -0.827227 0
M  V30 3843 C 366.024 -1.19707 -1.94282 0
M  V30 3844 C 367.002 -0.0897256 -1.62352 0
M  V30 3845 O 368.186 -0.254095 -1.8678 0
M  V30 3846 C 365.313 -0.838646 -3.28153 0
M  V30 3847 C 364.359 -1.95514 -3.79047 0
M  V30 3848 S 365.192 -3.56793 -3.99323 0
M  V30 3849 C 366.348 -3.22983 -5.36127 0
M  V30 3850 H 366.581 -2.1414 -2.06231 0
M  V30 3851 H 364.114 -1.19121 -0.982321 0
M  V30 3852 H 366.072 -0.638637 -4.05502 0
M  V30 3853 H 364.733 0.0872776 -3.13979 0
M  V30 3854 H 363.926 -1.658 -4.75948 0
M  V30 3855 H 363.528 -2.11241 -3.08631 0
M  V30 3856 H 365.82 -2.74531 -6.19386 0
M  V30 3857 H 366.763 -4.19008 -5.70822 0
M  V30 3858 H 367.171 -2.59276 -5.01434 0
M  V30 3859 N 366.569 1.04691 -1.17803 0
M  V30 3860 C 367.501 2.12571 -0.857097 0
M  V30 3861 C 368.514 1.62174 0.142647 0
M  V30 3862 O 369.703 1.78301 -0.0843387 0
M  V30 3863 C 366.803 3.37915 -0.258216 0
M  V30 3864 C 365.976 4.1757 -1.30207 0
M  V30 3865 C 365.035 5.2125 -0.720029 0
M  V30 3866 O 364.061 5.51888 -1.39314 0
M  V30 3867 N 365.263 5.78466 0.485507 0
M  V30 3868 H 368.028 2.40698 -1.78562 0
M  V30 3869 H 365.589 1.20831 -1.07757 0
M  V30 3870 H 367.581 4.04442 0.144584 0
M  V30 3871 H 366.151 3.07281 0.574199 0
M  V30 3872 H 365.371 3.46458 -1.88043 0
M  V30 3873 H 366.659 4.67586 -2.00601 0
M  V30 3874 H 366.057 5.55866 1.05022 0
M  V30 3875 H 364.614 6.4649 0.830307 0
M  V30 3876 N 368.047 0.979072 1.23499 0
M  V30 3877 C 368.979 0.476271 2.24197 0
M  V30 3878 C 369.992 -0.421166 1.57258 0
M  V30 3879 O 371.181 -0.225515 1.7707 0
M  V30 3880 C 368.281 -0.330503 3.37285 0
M  V30 3881 C 367.454 0.559744 4.33804 0
M  V30 3882 C 366.513 -0.192954 5.25846 0
M  V30 3883 O 365.539 0.416978 5.67671 0
M  V30 3884 N 366.741 -1.47932 5.61334 0
M  V30 3885 H 369.506 1.34211 2.67969 0
M  V30 3886 H 367.067 0.852189 1.37657 0
M  V30 3887 H 369.059 -0.842361 3.95836 0
M  V30 3888 H 367.629 -1.09734 2.92707 0
M  V30 3889 H 366.849 1.25245 3.73775 0
M  V30 3890 H 368.137 1.1665 4.95248 0
M  V30 3891 H 367.535 -1.9964 5.29302 0
M  V30 3892 H 366.092 -1.93664 6.22364 0
M  V30 3893 N 369.525 -1.3858 0.750561 0
M  V30 3894 C 370.941 -1.53759 0.427824 0
M  V30 3895 C 371.141 -1.71401 -1.05943 0
M  V30 3896 O 370.197 -1.72331 -1.84549 0
M  V30 3897 C 371.51 -2.74642 1.22443 0
M  V30 3898 C 373.058 -2.88489 1.2142 0
M  V30 3899 C 373.533 -4.12329 1.9937 0
M  V30 3900 N 375.024 -4.194 1.96616 0
M  V30 3901 C 375.759 -5.14209 2.53727 0
M  V30 3902 N 375.255 -6.14709 3.19539 0
M  V30 3903 N 377.048 -5.06537 2.43673 0
M  V30 3904 H 369.199 -1.25377 1.71447 0
M  V30 3905 H 371.462 -0.608844 0.726645 0
M  V30 3906 H 371.168 -2.68 2.27747 0
M  V30 3907 H 371.042 -3.67745 0.839273 0
M  V30 3908 H 373.429 -2.94614 0.169232 0
M  V30 3909 H 373.51 -1.96406 1.63885 0
M  V30 3910 H 373.154 -4.06966 3.03877 0
M  V30 3911 H 373.084 -5.03486 1.54302 0
M  V30 3912 H 375.575 -3.47421 1.48684 0
M  V30 3913 H 375.888 -6.8354 3.60545 0
M  V30 3914 H 374.233 -6.1505 3.23633 0
M  V30 3915 H 377.424 -4.26962 1.91889 0
M  V30 3916 H 377.597 -5.80245 2.88479 0
M  V30 3917 N 371.003 -0.499398 -1.49478 0
M  V30 3918 C 372.252 0.0475259 -2.01644 0
M  V30 3919 C 372.565 1.38195 -1.38425 0
M  V30 3920 O 373.771 2.01547 -1.8191 0
M  V30 3921 C 372.227 0.135164 -3.59646 0
M  V30 3922 C 371.835 -1.19252 -4.31837 0
M  V30 3923 C 373.579 0.632538 -4.19761 0
M  V30 3924 C 371.486 -1.06713 -5.81693 0
M  V30 3925 H 370.416 0.0215349 -0.753692 0
M  V30 3926 H 373.067 -0.638577 -1.7203 0
M  V30 3927 H 371.449 0.885681 -3.85969 0
M  V30 3928 H 372.623 -1.9562 -4.17216 0
M  V30 3929 H 370.938 -1.62321 -3.83459 0
M  V30 3930 H 373.535 0.743833 -5.29501 0
M  V30 3931 H 373.878 1.63098 -3.83021 0
M  V30 3932 H 374.411 -0.0613987 -3.97753 0
M  V30 3933 H 371.15 -2.03979 -6.22955 0
M  V30 3934 H 370.67 -0.344307 -5.98811 0
M  V30 3935 H 372.349 -0.745208 -6.42694 0
M  V30 3936 N 372.481 1.55866 -0.233164 0
M  V30 3937 C 373.414 2.16794 0.712442 0
M  V30 3938 C 374.392 1.1158 1.18273 0
M  V30 3939 O 375.576 1.39897 1.26337 0
M  V30 3940 C 372.703 2.75757 1.96661 0
M  V30 3941 C 371.749 3.93902 1.63533 0
M  V30 3942 S 372.582 5.30223 0.74995 0
M  V30 3943 C 373.738 5.92631 2.01343 0
M  V30 3944 H 373.971 2.96662 0.194617 0
M  V30 3945 H 371.504 1.5439 -0.0177425 0
M  V30 3946 H 373.462 3.10367 2.68668 0
M  V30 3947 H 372.123 1.9586 2.45556 0
M  V30 3948 H 371.316 4.33702 2.56747 0
M  V30 3949 H 370.918 3.60499 0.995804 0
M  V30 3950 H 373.21 6.09312 2.96219 0
M  V30 3951 H 374.153 6.88388 1.65915 0
M  V30 3952 H 374.561 5.21571 2.15925 0
M  V30 3953 N 373.959 -0.0401083 1.57549 0
M  V30 3954 C 374.907 -1.06264 2.06908 0
M  V30 3955 C 375.901 -1.38132 0.980608 0
M  V30 3956 O 377.107 -1.37167 1.16556 0
M  V30 3957 H 373.482 -0.360166 0.660139 0
M  V30 3958 H 375.453 -0.620445 2.91878 0
M  V30 3959 C 374.202 -2.35846 2.55483 0
M  V30 3960 H 373.525 -2.12183 3.38849 0
M  V30 3961 H 374.965 -3.05765 2.93741 0
M  V30 3962 C 373.424 -3.0404 1.45126 0
M  V30 3963 O 373.954 -3.93424 0.811216 0
M  V30 3964 N 372.16 -2.65184 1.18852 0
M  V30 3965 H 371.707 -1.92584 1.71083 0
M  V30 3966 H 371.665 -3.1113 0.452244 0
M  V30 3967 N 375.437 -1.54477 -0.31217 0
M  V30 3968 C 376.367 -1.87652 -1.38957 0
M  V30 3969 C 377.348 -0.734358 -1.53431 0
M  V30 3970 O 378.533 -0.98911 -1.67123 0
M  V30 3971 C 375.663 -2.11396 -2.75552 0
M  V30 3972 C 374.617 -3.27243 -2.75855 0
M  V30 3973 C 373.943 -3.36382 -4.15633 0
M  V30 3974 C 375.243 -4.64622 -2.38587 0
M  V30 3975 H 376.937 -2.77887 -1.11442 0
M  V30 3976 H 374.483 -1.33707 -0.534655 0
M  V30 3977 H 376.436 -2.33189 -3.51 0
M  V30 3978 H 375.16 -1.17921 -3.04569 0
M  V30 3979 H 373.819 -3.05356 -2.02863 0
M  V30 3980 H 373.467 -2.40445 -4.41809 0
M  V30 3981 H 373.167 -4.14249 -4.1674 0
M  V30 3982 H 374.691 -3.60422 -4.92877 0
M  V30 3983 H 376.105 -4.86219 -3.03749 0
M  V30 3984 H 374.502 -5.45121 -2.50925 0
M  V30 3985 H 375.572 -4.66097 -1.33723 0
M  V30 3986 N 376.915 0.57481 -1.46744 0
M  V30 3987 C 378.164 1.32898 -1.51727 0
M  V30 3988 C 378.477 1.948 -0.176692 0
M  V30 3989 O 379.683 2.71299 -0.104385 0
M  V30 3990 C 378.139 2.40901 -2.67385 0
M  V30 3991 C 377.747 1.85266 -4.07898 0
M  V30 3992 C 379.491 3.17609 -2.81646 0
M  V30 3993 C 377.398 2.90945 -5.14883 0
M  V30 3994 H 376.328 0.499631 -0.564699 0
M  V30 3995 H 378.979 0.612536 -1.72975 0
M  V30 3996 H 377.361 3.15379 -2.39483 0
M  V30 3997 H 378.535 1.17278 -4.45626 0
M  V30 3998 H 376.85 1.21199 -3.98371 0
M  V30 3999 H 379.447 3.96493 -3.58744 0
M  V30 4000 H 379.79 3.70696 -1.89448 0
M  V30 4001 H 380.323 2.50239 -3.09233 0
M  V30 4002 H 377.062 2.42736 -6.089 0
M  V30 4003 H 376.582 3.57398 -4.81691 0
M  V30 4004 H 378.261 3.54755 -5.41071 0
M  V30 4005 N 378.394 1.34581 0.820102 0
M  V30 4006 C 379.634 1.28448 1.58998 0
M  V30 4007 C 379.998 -0.142883 1.91468 0
M  V30 4008 O 381.199 -0.328422 2.66786 0
M  V30 4009 C 379.47 2.153 2.85273 0
M  V30 4010 S 381.029 2.26548 3.75794 0
M  V30 4011 H 377.847 0.456685 0.54494 0
M  V30 4012 H 380.449 1.69825 0.968487 0
M  V30 4013 H 379.153 3.18008 2.59421 0
M  V30 4014 H 378.684 1.7483 3.52417 0
M  V30 4015 H 380.699 1.44034 4.74835 0
M  V30 4016 N 379.872 -1.04064 1.18357 0
M  V30 4017 C 381.149 -1.74252 0.888581 0
M  V30 4018 C 381.529 -2.02138 -0.60856 0
M  V30 4019 O 380.877 -1.66656 -1.56327 0
M  V30 4020 C 381.087 -3.0277 1.73584 0
M  V30 4021 C 382.435 -3.76506 1.96286 0
M  V30 4022 O 383.459 -3.12668 1.70637 0
M  V30 4023 O 382.318 -4.91243 2.39464 0
M  V30 4024 H 379.412 -0.758271 0.330082 0
M  V30 4025 H 381.958 -1.1013 1.2911 0
M  V30 4026 H 380.73 -2.78299 2.75073 0
M  V30 4027 H 380.353 -3.74631 1.33183 0
M  V30 4028 N 381.35 -0.985608 -1.22978 0
M  V30 4029 C 382.761 -0.693593 -1.73338 0
M  V30 4030 C 383.112 0.789935 -1.79595 0
M  V30 4031 O 382.237 1.61771 -1.43733 0
M  V30 4032 C 382.832 -1.25235 -3.14804 0
M  V30 4033 C 381.391 -1.00987 -3.626 0
M  V30 4034 C 380.538 -1.37695 -2.40698 0
M  V30 4035 H 383.489 -1.15884 -1.08428 0
M  V30 4036 H 383.51 -0.627329 -3.75293 0
M  V30 4037 H 383.022 -2.33209 -3.10218 0
M  V30 4038 H 381.123 0.0535565 -3.72562 0
M  V30 4039 H 381.236 -1.66812 -4.49122 0
M  V30 4040 H 379.6 -0.795459 -2.4196 0
M  V30 4041 H 380.383 -2.46657 -2.38779 0
M  V30 4042 N 382.828 1.3818 -0.7579 0
M  V30 4043 C 384.105 1.94106 -0.241306 0
M  V30 4044 C 384.485 1.69282 1.26122 0
M  V30 4045 O 383.833 1.03378 2.03777 0
M  V30 4046 C 384.043 3.43809 -0.59967 0
M  V30 4047 C 385.391 4.20868 -0.561717 0
M  V30 4048 O 386.415 3.5211 -0.538222 0
M  V30 4049 O 385.274 5.43451 -0.576478 0
M  V30 4050 H 382.368 0.825376 -0.0518042 0
M  V30 4051 H 384.914 1.47548 -0.838315 0
M  V30 4052 H 383.686 3.55403 -1.6372 0
M  V30 4053 H 383.309 3.97592 0.0251197 0
M  V30 4054 N 384.306 0.507319 1.49211 0
M  V30 4055 C 385.236 -0.256939 2.32082 0
M  V30 4056 C 386.217 -0.956609 1.40652 0
M  V30 4057 O 387.402 -0.946788 1.69557 0
M  V30 4058 C 384.532 -1.31802 3.21318 0
M  V30 4059 C 383.486 -0.737855 4.21592 0
M  V30 4060 C 382.812 -1.89992 4.99807 0
M  V30 4061 C 384.112 0.275325 5.21574 0
M  V30 4062 H 385.806 0.434798 2.96226 0
M  V30 4063 H 383.352 0.210546 1.42452 0
M  V30 4064 H 385.305 -1.86045 3.78107 0
M  V30 4065 H 384.029 -2.03903 2.5513 0
M  V30 4066 H 382.688 -0.217126 3.65956 0
M  V30 4067 H 382.336 -2.60877 4.30061 0
M  V30 4068 H 382.036 -1.51777 5.6766 0
M  V30 4069 H 383.56 -2.44657 5.59442 0
M  V30 4070 H 384.974 -0.179193 5.7302 0
M  V30 4071 H 383.371 0.573649 5.97352 0
M  V30 4072 H 384.441 1.18903 4.70096 0
M  V30 4073 N 385.784 -1.5574 0.241426 0
M  V30 4074 C 387.012 -2.03208 -0.389134 0
M  V30 4075 C 387.427 -1.12082 -1.51931 0
M  V30 4076 O 386.784 -0.134183 -1.82006 0
M  V30 4077 C 386.835 -3.50064 -0.902087 0
M  V30 4078 O 386.556 -4.37717 0.18305 0
M  V30 4079 C 388.057 -4.13268 -1.60389 0
M  V30 4080 H 385.277 -0.664509 -0.0931053 0
M  V30 4081 H 387.821 -2.0124 0.36369 0
M  V30 4082 H 385.976 -3.52583 -1.60511 0
M  V30 4083 H 386.39 -5.24097 -0.205579 0
M  V30 4084 H 387.864 -5.17733 -1.91458 0
M  V30 4085 H 388.341 -3.59434 -2.52397 0
M  V30 4086 H 388.947 -4.14655 -0.945576 0
M  V30 4087 N 387.262 0.0317525 -1.57568 0
M  V30 4088 C 388.209 1.0332 -2.06382 0
M  V30 4089 C 389.179 1.36082 -0.952414 0
M  V30 4090 O 390.364 1.46466 -1.2228 0
M  V30 4091 C 387.504 2.32989 -2.54578 0
M  V30 4092 C 386.617 2.0641 -3.79498 0
M  V30 4093 C 385.752 3.2993 -4.16317 0
M  V30 4094 C 384.791 2.98893 -5.34162 0
M  V30 4095 N 383.928 4.14857 -5.66426 0
M  V30 4096 H 388.768 0.609982 -2.9169 0
M  V30 4097 H 386.305 0.289573 -1.44222 0
M  V30 4098 H 388.263 3.0875 -2.80587 0
M  V30 4099 H 386.893 2.73039 -1.7219 0
M  V30 4100 H 385.945 1.21158 -3.6059 0
M  V30 4101 H 387.257 1.79513 -4.65378 0
M  V30 4102 H 386.411 4.1406 -4.4344 0
M  V30 4103 H 385.15 3.59938 -3.29083 0
M  V30 4104 H 384.155 2.13164 -5.06795 0
M  V30 4105 H 385.38 2.70165 -6.23047 0
M  V30 4106 H 383.326 4.44821 -4.82151 0
M  V30 4107 H 383.243 3.91374 -6.4681 0
M  V30 4108 H 384.511 4.99868 -5.98124 0
M  V30 4109 N 388.74 1.54641 0.303973 0
M  V30 4110 C 389.986 1.74038 1.04109 0
M  V30 4111 C 390.319 0.523051 1.87024 0
M  V30 4112 O 389.594 -0.479874 1.88487 0
M  V30 4113 C 389.877 3.02761 1.94955 0
M  V30 4114 C 389.73 4.34787 1.1524 0
M  V30 4115 C 391.049 3.27336 2.94175 0
M  V30 4116 H 388.168 0.63323 0.377079 0
M  V30 4117 H 390.81 1.87354 0.316001 0
M  V30 4118 H 388.96 2.9154 2.56782 0
M  V30 4119 H 390.632 4.57922 0.557236 0
M  V30 4120 H 388.875 4.31407 0.455053 0
M  V30 4121 H 389.546 5.21116 1.8205 0
M  V30 4122 H 392.022 3.38148 2.42477 0
M  V30 4123 H 390.898 4.18726 3.54908 0
M  V30 4124 H 391.159 2.45491 3.67677 0
M  V30 4125 N 390.218 -0.567019 1.47046 0
M  V30 4126 C 391.443 -1.3551 1.57009 0
M  V30 4127 C 391.868 -1.86841 0.217259 0
M  V30 4128 O 391.226 -1.62435 -0.805268 0
M  V30 4129 C 391.274 -2.50777 2.5912 0
M  V30 4130 O 390.378 -3.52706 2.13711 0
M  V30 4131 H 389.719 -0.402919 0.52778 0
M  V30 4132 H 392.249 -0.686241 1.92748 0
M  V30 4133 H 392.259 -2.97481 2.79229 0
M  V30 4134 H 390.934 -2.12771 3.57353 0
M  V30 4135 H 389.511 -3.12374 2.03659 0
M  V30 4136 N 391.696 -1.35014 -0.812953 0
M  V30 4137 C 393.112 -1.14914 -1.10757 0
M  V30 4138 C 393.312 0.0426818 -2.01455 0
M  V30 4139 O 392.368 0.715212 -2.42159 0
M  V30 4140 C 393.681 -2.44911 -1.74468 0
M  V30 4141 C 395.229 -2.5106 -1.86917 0
M  V30 4142 C 395.704 -3.81085 -2.54044 0
M  V30 4143 N 397.195 -3.82301 -2.61535 0
M  V30 4144 C 397.93 -4.79634 -3.14227 0
M  V30 4145 N 397.426 -5.87353 -3.67407 0
M  V30 4146 N 399.219 -4.67078 -3.12721 0
M  V30 4147 H 391.37 -2.1136 -0.20989 0
M  V30 4148 H 393.633 -0.935128 -0.155692 0
M  V30 4149 H 393.339 -3.32267 -1.15289 0
M  V30 4150 H 393.213 -2.58989 -2.74234 0
M  V30 4151 H 395.6 -1.64137 -2.45241 0
M  V30 4152 H 395.681 -2.40901 -0.860242 0
M  V30 4153 H 395.325 -4.68402 -1.96372 0
M  V30 4154 H 395.255 -3.88529 -3.55461 0
M  V30 4155 H 397.746 -3.04465 -2.23851 0
M  V30 4156 H 398.059 -6.57624 -4.05894 0
M  V30 4157 H 396.404 -5.91054 -3.65623 0
M  V30 4158 H 399.595 -3.82067 -2.70449 0
M  V30 4159 H 399.768 -5.43098 -3.53481 0
M  V30 4160 N 393.175 1.03435 -1.18907 0
M  V30 4161 C 394.415 1.78302 -0.999391 0
M  V30 4162 C 394.779 1.86353 0.462219 0
M  V30 4163 O 395.98 2.57489 0.771543 0
M  V30 4164 C 394.251 3.17362 -1.64365 0
M  V30 4165 S 395.81 4.08488 -1.6026 0
M  V30 4166 H 392.628 0.613861 -0.358742 0
M  V30 4167 H 395.23 1.23979 -1.51161 0
M  V30 4168 H 393.934 3.09116 -2.69955 0
M  V30 4169 H 393.465 3.76762 -1.13199 0
M  V30 4170 H 395.48 4.92274 -0.622932 0
M  V30 4171 N 394.653 0.992116 1.22453 0
M  V30 4172 C 395.583 0.561677 2.26644 0
M  V30 4173 C 396.564 -0.411055 1.65059 0
M  V30 4174 O 397.749 -0.301861 1.9184 0
M  V30 4175 C 394.879 -0.125247 3.47074 0
M  V30 4176 C 393.833 0.765948 4.21091 0
M  V30 4177 C 393.159 -0.0538484 5.34673 0
M  V30 4178 C 394.459 2.06242 4.79856 0
M  V30 4179 H 396.153 1.43259 2.62902 0
M  V30 4180 H 393.699 0.690283 1.26377 0
M  V30 4181 H 395.652 -0.437764 4.1912 0
M  V30 4182 H 394.376 -1.03069 3.0991 0
M  V30 4183 H 393.035 1.0621 3.50878 0
M  V30 4184 H 392.683 -0.960188 4.9375 0
M  V30 4185 H 392.383 0.539415 5.85119 0
M  V30 4186 H 393.907 -0.360477 6.09535 0
M  V30 4187 H 395.321 1.8139 5.43848 0
M  V30 4188 H 393.718 2.60444 5.40638 0
M  V30 4189 H 394.788 2.74167 3.99951 0
M  V30 4190 N 396.131 -1.37776 0.765217 0
M  V30 4191 C 397.041 -2.34135 0.147666 0
M  V30 4192 C 398.057 -1.59854 -0.687215 0
M  V30 4193 O 399.233 -1.91983 -0.608659 0
M  V30 4194 C 396.298 -3.3901 -0.72617 0
M  V30 4195 C 395.359 -4.2912 0.124417 0
M  V30 4196 C 394.592 -5.28986 -0.707807 0
M  V30 4197 O 394.815 -5.36205 -1.94525 0
M  V30 4198 O 393.749 -6.01779 -0.12046 0
M  V30 4199 H 397.575 -2.88664 0.943758 0
M  V30 4200 H 395.16 -1.39824 0.526277 0
M  V30 4201 H 397.042 -4.03195 -1.22524 0
M  V30 4202 H 395.717 -2.86819 -1.50056 0
M  V30 4203 H 394.624 -3.68057 0.669696 0
M  V30 4204 H 395.957 -4.84598 0.861736 0
M  V30 4205 N 397.609 -0.515225 -1.4894 0
M  V30 4206 C 398.559 0.275113 -2.26334 0
M  V30 4207 C 399.543 0.923007 -1.31793 0
M  V30 4208 O 400.735 0.828254 -1.56426 0
M  V30 4209 C 397.864 1.33041 -3.16473 0
M  V30 4210 C 396.95 0.688051 -4.18481 0
M  V30 4211 N 397.341 -0.217638 -5.05332 0
M  V30 4212 C 395.639 0.94699 -4.3583 0
M  V30 4213 C 396.34 -0.58676 -5.78733 0
M  V30 4214 N 395.316 0.0486966 -5.43578 0
M  V30 4215 H 399.118 -0.421876 -2.90856 0
M  V30 4216 H 396.632 -0.332249 -1.58965 0
M  V30 4217 H 398.629 1.9102 -3.70563 0
M  V30 4218 H 397.289 2.02894 -2.53504 0
M  V30 4219 H 398.3 -0.589343 -5.14536 0
M  V30 4220 H 394.977 1.63719 -3.8406 0
M  V30 4221 H 396.367 -1.32855 -6.58634 0
M  V30 4222 N 399.087 1.5561 -0.249682 0
M  V30 4223 C 400.05 2.20217 0.635394 0
M  V30 4224 C 401.05 1.17227 1.10066 0
M  V30 4225 O 402.24 1.42292 1.00492 0
M  V30 4226 C 399.372 2.84794 1.87363 0
M  V30 4227 H 400.565 2.99814 0.0716752 0
M  V30 4228 H 398.118 1.563 -0.000153234 0
M  V30 4229 H 398.853 2.09142 2.47851 0
M  V30 4230 H 398.638 3.60241 1.5482 0
M  V30 4231 H 400.128 3.3423 2.5036 0
M  V30 4232 N 400.565 -0.0233959 1.57583 0
M  V30 4233 C 401.495 -1.02162 2.09965 0
M  V30 4234 C 402.476 -1.3735 1.00344 0
M  V30 4235 O 403.661 -1.46135 1.27899 0
M  V30 4236 C 400.791 -2.32081 2.58371 0
M  V30 4237 C 399.745 -2.1112 3.72307 0
M  V30 4238 C 399.071 -3.46848 4.06941 0
M  V30 4239 C 400.371 -1.49276 5.00514 0
M  V30 4240 H 402.065 -0.585557 2.93618 0
M  V30 4241 H 399.611 -0.280218 1.41247 0
M  V30 4242 H 401.564 -3.02249 2.93639 0
M  V30 4243 H 400.288 -2.77758 1.71808 0
M  V30 4244 H 398.947 -1.43384 3.37397 0
M  V30 4245 H 398.595 -3.90184 3.17436 0
M  V30 4246 H 398.295 -3.33646 4.83688 0
M  V30 4247 H 399.819 -4.18369 4.44747 0
M  V30 4248 H 401.233 -2.09368 5.33702 0
M  V30 4249 H 399.63 -1.46632 5.8191 0
M  V30 4250 H 400.7 -0.459217 4.82721 0
M  V30 4251 N 402.043 -1.548 -0.295768 0
M  V30 4252 C 403.271 -1.78327 -1.04914 0
M  V30 4253 C 403.686 -0.545316 -1.80753 0
M  V30 4254 O 403.043 0.485013 -1.75937 0
M  V30 4255 C 403.094 -2.99418 -2.02561 0
M  V30 4256 O 402.815 -4.18431 -1.29798 0
M  V30 4257 C 404.316 -3.35375 -2.89895 0
M  V30 4258 H 401.536 -0.594618 -0.310918 0
M  V30 4259 H 404.08 -2.01763 -0.333454 0
M  V30 4260 H 402.235 -2.78175 -2.69624 0
M  V30 4261 H 402.649 -4.86736 -1.95419 0
M  V30 4262 H 404.123 -4.23332 -3.54251 0
M  V30 4263 H 404.6 -2.53761 -3.58472 0
M  V30 4264 H 405.206 -3.58796 -2.28355 0
M  V30 4265 N 403.521 0.559213 -1.47345 0
M  V30 4266 C 404.484 1.64854 -1.59235 0
M  V30 4267 C 405.484 1.53851 -0.467607 0
M  V30 4268 O 406.674 1.58045 -0.732617 0
M  V30 4269 C 403.806 3.04388 -1.53496 0
M  V30 4270 H 404.999 1.55662 -2.56339 0
M  V30 4271 H 402.552 0.778973 -1.35505 0
M  V30 4272 H 403.287 3.19115 -0.577604 0
M  V30 4273 H 403.072 3.13783 -2.35123 0
M  V30 4274 H 404.562 3.83642 -1.6495 0
M  V30 4275 N 404.999 1.35443 0.805782 0
M  V30 4276 C 406.415 1.15499 1.10146 0
M  V30 4277 C 406.615 -0.0319975 2.01475 0
M  V30 4278 O 405.671 -0.70236 2.42535 0
M  V30 4279 C 406.984 2.45833 1.73166 0
M  V30 4280 C 408.532 2.52047 1.85583 0
M  V30 4281 C 409.007 3.82427 2.52019 0
M  V30 4282 N 410.498 3.83682 2.59504 0
M  V30 4283 C 411.233 4.81294 3.11679 0
M  V30 4284 N 410.729 5.89294 3.64287 0
M  V30 4285 N 412.522 4.6873 3.1024 0
M  V30 4286 H 404.673 2.11469 0.198678 0
M  V30 4287 H 406.936 0.93594 0.150731 0
M  V30 4288 H 406.642 3.32874 1.13526 0
M  V30 4289 H 406.516 2.6044 2.72857 0
M  V30 4290 H 408.903 1.65435 2.44367 0
M  V30 4291 H 408.984 2.41354 0.847455 0
M  V30 4292 H 408.628 4.69437 1.93885 0
M  V30 4293 H 408.558 3.90409 3.53395 0
M  V30 4294 H 411.049 3.05648 2.22234 0
M  V30 4295 H 411.362 6.59768 4.02401 0
M  V30 4296 H 409.707 5.92985 3.62483 0
M  V30 4297 H 412.898 3.83496 2.68419 0
M  V30 4298 H 413.071 5.44965 3.50596 0
M  V30 4299 N 406.477 -1.02803 1.19454 0
M  V30 4300 C 407.427 -2.0945 0.900827 0
M  V30 4301 C 408.411 -1.60335 -0.134715 0
M  V30 4302 O 409.603 -1.76857 0.0710924 0
M  V30 4303 C 406.732 -3.4044 0.442229 0
M  V30 4304 C 405.818 -3.96286 1.51056 0
M  V30 4305 N 406.209 -4.25785 2.73021 0
M  V30 4306 C 404.507 -4.24307 1.37404 0
M  V30 4307 C 405.208 -4.70654 3.41848 0
M  V30 4308 N 404.184 -4.72238 2.69243 0
M  V30 4309 H 407.986 -2.3015 1.82779 0
M  V30 4310 H 405.5 -1.20672 1.08683 0
M  V30 4311 H 407.497 -4.16354 0.21326 0
M  V30 4312 H 406.157 -3.21159 -0.478238 0
M  V30 4313 H 407.168 -4.15041 3.09776 0
M  V30 4314 H 403.845 -4.14285 0.517103 0
M  V30 4315 H 405.235 -5.02392 4.46152 0
M  V30 4316 N 407.956 -0.998596 -1.21925 0
M  V30 4317 C 409.367 -0.711939 -1.72593 0
M  V30 4318 C 409.718 0.770842 -1.80423 0
M  V30 4319 O 408.843 1.60237 -1.4544 0
M  V30 4320 C 409.438 -1.28567 -3.13458 0
M  V30 4321 C 407.997 -1.04828 -3.61508 0
M  V30 4322 C 407.144 -1.4024 -2.39224 0
M  V30 4323 H 410.095 -1.17027 -1.07193 0
M  V30 4324 H 410.116 -0.667098 -3.74607 0
M  V30 4325 H 409.628 -2.36486 -3.07727 0
M  V30 4326 H 407.729 0.0140383 -3.72597 0
M  V30 4327 H 407.842 -1.71566 -4.47328 0
M  V30 4328 H 406.206 -0.821077 -2.41103 0
M  V30 4329 H 406.989 -2.49176 -2.36149 0
M  V30 4330 N 409.434 1.37368 -0.772513 0
M  V30 4331 C 410.85 1.53059 -0.452231 0
M  V30 4332 C 411.05 1.73065 1.03203 0
M  V30 4333 O 410.106 1.75245 1.81784 0
M  V30 4334 C 411.419 2.72659 -1.26797 0
M  V30 4335 C 412.967 2.86521 -1.25995 0
M  V30 4336 C 413.442 4.09105 -2.05905 0
M  V30 4337 N 414.933 4.16219 -2.03263 0
M  V30 4338 C 415.668 5.10107 -2.61875 0
M  V30 4339 N 415.164 6.09547 -3.29278 0
M  V30 4340 N 416.957 5.02596 -2.51701 0
M  V30 4341 H 409.108 1.22634 -1.7342 0
M  V30 4342 H 411.371 0.597206 -0.736239 0
M  V30 4343 H 411.077 2.64343 -2.31982 0
M  V30 4344 H 410.951 3.66363 -0.897672 0
M  V30 4345 H 413.338 2.94308 -0.216081 0
M  V30 4346 H 413.419 1.93774 -1.66989 0
M  V30 4347 H 413.063 4.0208 -3.10313 0
M  V30 4348 H 412.993 5.00968 -1.62292 0
M  V30 4349 H 415.484 3.45012 -1.54192 0
M  V30 4350 H 415.797 6.77718 -3.71374 0
M  V30 4351 H 414.142 6.09824 -3.33377 0
M  V30 4352 H 417.333 4.23855 -1.98657 0
M  V30 4353 H 417.506 5.75582 -2.97673 0
M  V30 4354 N 410.912 0.523116 1.48665 0
M  V30 4355 C 412.14 -0.0096312 2.06898 0
M  V30 4356 C 412.555 -1.28784 1.38059 0
M  V30 4357 O 411.912 -1.76453 0.465893 0
M  V30 4358 C 411.963 -0.244386 3.60673 0
M  V30 4359 O 411.684 0.983172 4.26925 0
M  V30 4360 C 413.185 -0.818289 4.35682 0
M  V30 4361 H 410.405 0.0304161 0.67031 0
M  V30 4362 H 412.949 0.726799 1.91149 0
M  V30 4363 H 411.104 -0.930847 3.76051 0
M  V30 4364 H 411.518 0.759653 5.1897 0
M  V30 4365 H 412.992 -0.93201 5.44075 0
M  V30 4366 H 413.469 -1.82153 3.99646 0
M  V30 4367 H 414.075 -0.168609 4.24966 0
M  V30 4368 N 412.39 -1.55475 0.257931 0
M  V30 4369 C 413.806 -1.59307 -0.0966563 0
M  V30 4370 C 414.006 -1.27514 -1.5602 0
M  V30 4371 O 413.062 -1.02774 -2.30637 0
M  V30 4372 C 414.375 -2.99552 0.262481 0
M  V30 4373 C 415.923 -3.1231 0.207683 0
M  V30 4374 C 416.398 -4.54793 0.541012 0
M  V30 4375 N 417.889 -4.6058 0.491921 0
M  V30 4376 C 418.624 -5.68825 0.722857 0
M  V30 4377 N 418.12 -6.85287 1.0175 0
M  V30 4378 N 419.913 -5.58296 0.652815 0
M  V30 4379 H 412.064 -1.74409 1.21224 0
M  V30 4380 H 414.327 -0.812424 0.48854 0
M  V30 4381 H 414.033 -3.27593 1.27967 0
M  V30 4382 H 413.907 -3.75019 -0.40508 0
M  V30 4383 H 416.294 -2.84044 -0.800195 0
M  V30 4384 H 416.375 -2.39095 0.909255 0
M  V30 4385 H 416.019 -4.83783 1.5465 0
M  V30 4386 H 415.949 -5.26285 -0.18216 0
M  V30 4387 H 418.44 -3.7691 0.273366 0
M  V30 4388 H 418.753 -7.63725 1.18084 0
M  V30 4389 H 417.098 -6.86945 1.05509 0
M  V30 4390 H 420.289 -4.66189 0.422592 0
M  V30 4391 H 420.462 -6.42582 0.836182 0
M  V30 4392 N 413.868 0.0150385 -1.57593 0
M  V30 4393 C 415.098 0.713359 -1.93894 0
M  V30 4394 C 415.506 1.68663 -0.857289 0
M  V30 4395 O 414.849 1.82876 0.173788 0
M  V30 4396 C 414.911 1.51348 -3.26089 0
M  V30 4397 C 414.575 0.703451 -4.51554 0
M  V30 4398 C 415.572 -0.00237924 -5.199 0
M  V30 4399 C 413.257 0.653854 -4.98026 0
M  V30 4400 C 415.251 -0.746955 -6.33008 0
M  V30 4401 C 412.938 -0.0944578 -6.11027 0
M  V30 4402 C 413.936 -0.793609 -6.78374 0
M  V30 4403 O 413.624 -1.52974 -7.89211 0
M  V30 4404 H 413.356 0.204637 -0.644282 0
M  V30 4405 H 415.91 -0.0276411 -2.05381 0
M  V30 4406 H 414.14 2.29862 -3.10967 0
M  V30 4407 H 415.829 2.09572 -3.47612 0
M  V30 4408 H 416.595 0.0268803 -4.84993 0
M  V30 4409 H 412.474 1.18756 -4.45441 0
M  V30 4410 H 416.018 -1.2932 -6.85509 0
M  V30 4411 H 411.915 -0.125591 -6.45378 0
M  V30 4412 H 412.683 -1.44488 -8.05646 0
M  V30 4413 N 415.346 1.54954 0.287554 0
M  V30 4414 C 416.571 1.79209 1.04397 0
M  V30 4415 C 416.996 0.556431 1.79682 0
M  V30 4416 O 416.354 -0.493518 1.74454 0
M  V30 4417 C 416.402 3.00739 1.98969 0
M  V30 4418 O 415.506 2.74805 3.075 0
M  V30 4419 H 414.847 0.592755 0.299227 0
M  V30 4420 H 417.377 2.02068 0.320886 0
M  V30 4421 H 417.387 3.29077 2.4119 0
M  V30 4422 H 416.062 3.90329 1.43582 0
M  V30 4423 H 414.639 2.57523 2.69697 0
M  V30 4424 N 416.824 -0.551391 1.4764 0
M  V30 4425 C 418.235 -1.13349 1.48354 0
M  V30 4426 C 418.586 -1.94709 0.241432 0
M  V30 4427 O 417.711 -2.06306 -0.653205 0
M  V30 4428 C 418.306 -2.0623 2.68802 0
M  V30 4429 C 416.865 -2.597 2.72457 0
M  V30 4430 C 416.012 -1.36201 2.41546 0
M  V30 4431 H 418.963 -0.337698 1.55065 0
M  V30 4432 H 418.984 -2.90196 2.46103 0
M  V30 4433 H 418.496 -1.46987 3.59188 0
M  V30 4434 H 416.597 -3.22724 1.86225 0
M  V30 4435 H 416.71 -3.00296 3.73308 0
M  V30 4436 H 415.074 -1.67068 1.9225 0
M  V30 4437 H 415.857 -0.787425 3.34147 0
M  V30 4438 N 418.302 -1.35869 -0.798587 0
M  V30 4439 C 419.55 -1.29332 -1.55298 0
M  V30 4440 C 419.871 0.129729 -1.94568 0
M  V30 4441 O 419.141 1.06796 -1.6423 0
M  V30 4442 H 417.721 -0.475737 -0.57592 0
M  V30 4443 H 420.383 -1.70062 -0.952093 0
M  V30 4444 H 419.479 -1.91458 -2.46476 0
M  V30 4445 N 419.78 1.02168 -1.19998 0
M  V30 4446 C 421.026 1.7606 -1.01855 0
M  V30 4447 C 421.381 1.87178 0.445222 0
M  V30 4448 O 420.674 1.3828 1.32624 0
M  V30 4449 C 420.868 3.18081 -1.62969 0
M  V30 4450 C 420.697 3.20809 -3.15137 0
M  V30 4451 C 419.467 3.28342 -3.84083 0
M  V30 4452 C 421.665 3.07268 -4.1242 0
M  V30 4453 N 419.647 3.2052 -5.23584 0
M  V30 4454 C 421.018 3.0716 -5.38566 0
M  V30 4455 C 423.073 2.91448 -4.03686 0
M  V30 4456 C 421.776 2.92853 -6.56985 0
M  V30 4457 C 423.802 2.78494 -5.21723 0
M  V30 4458 C 423.164 2.79046 -6.46771 0
M  V30 4459 H 419.263 0.655192 -0.426905 0
M  V30 4460 H 421.847 1.21564 -1.52087 0
M  V30 4461 H 420.018 3.70882 -1.15329 0
M  V30 4462 H 421.75 3.80375 -1.38192 0
M  V30 4463 H 418.505 3.34859 -3.34913 0
M  V30 4464 H 418.929 3.19997 -5.96599 0
M  V30 4465 H 423.571 2.89838 -3.07821 0
M  V30 4466 H 421.289 2.93213 -7.53028 0
M  V30 4467 H 424.875 2.67278 -5.16773 0
M  V30 4468 H 423.755 2.69134 -7.36571 0
M  V30 4469 N 421.258 1.00505 1.21394 0
M  V30 4470 C 422.535 0.603277 1.86064 0
M  V30 4471 C 422.915 -0.919095 1.90042 0
M  V30 4472 O 422.263 -1.80607 1.39977 0
M  V30 4473 C 422.473 1.23772 3.26315 0
M  V30 4474 C 423.821 1.34586 4.02705 0
M  V30 4475 O 424.845 1.19304 3.35626 0
M  V30 4476 O 423.704 1.59169 5.22807 0
M  V30 4477 H 420.798 0.206634 0.800769 0
M  V30 4478 H 423.344 1.1017 1.29076 0
M  V30 4479 H 422.116 2.27848 3.18121 0
M  V30 4480 H 421.739 0.725648 3.90922 0
M  V30 4481 N 422.737 -1.36956 0.779787 0
M  V30 4482 C 423.7 -2.2851 0.177662 0
M  V30 4483 C 424.7 -1.48393 -0.619377 0
M  V30 4484 O 425.89 -1.68505 -0.441785 0
M  V30 4485 C 423.022 -3.32428 -0.755279 0
M  V30 4486 H 424.215 -2.83269 0.984823 0
M  V30 4487 H 421.768 -1.46358 0.548544 0
M  V30 4488 H 422.503 -2.82808 -1.58714 0
M  V30 4489 H 422.288 -3.91659 -0.185817 0
M  V30 4490 H 423.778 -4.00824 -1.17174 0
M  V30 4491 N 424.215 -0.530993 -1.48385 0
M  V30 4492 C 425.162 0.231223 -2.29639 0
M  V30 4493 C 426.132 0.932864 -1.37429 0
M  V30 4494 O 427.317 0.933692 -1.66394 0
M  V30 4495 C 424.457 1.27155 -3.2082 0
M  V30 4496 C 423.57 0.578655 -4.28107 0
M  V30 4497 C 422.705 1.602 -5.06467 0
M  V30 4498 C 421.744 0.892625 -6.05556 0
M  V30 4499 N 420.881 1.86157 -6.76971 0
M  V30 4500 H 425.721 -0.467848 -2.94305 0
M  V30 4501 H 423.258 -0.242556 -1.45086 0
M  V30 4502 H 425.216 1.88703 -3.72085 0
M  V30 4503 H 423.846 1.939 -2.58075 0
M  V30 4504 H 422.898 -0.150782 -3.80101 0
M  V30 4505 H 424.21 0.0217065 -4.98795 0
M  V30 4506 H 423.364 2.29173 -5.61751 0
M  V30 4507 H 422.103 2.19285 -4.35621 0
M  V30 4508 H 421.108 0.188829 -5.49476 0
M  V30 4509 H 422.333 0.307878 -6.78402 0
M  V30 4510 H 420.279 2.44147 -6.08875 0
M  V30 4511 H 420.196 1.35608 -7.43738 0
M  V30 4512 H 421.464 2.54325 -7.36844 0
M  V30 4513 N 425.693 1.55336 -0.266172 0
M  V30 4514 C 426.623 2.25146 0.618981 0
M  V30 4515 C 427.604 1.23845 1.16604 0
M  V30 4516 O 428.789 1.52544 1.20183 0
M  V30 4517 C 425.919 2.96572 1.80728 0
M  V30 4518 C 424.873 4.04726 1.39215 0
M  V30 4519 C 424.199 4.63678 2.66283 0
M  V30 4520 C 425.499 5.19407 0.548942 0
M  V30 4521 H 427.193 2.99377 0.0368116 0
M  V30 4522 H 424.739 1.43991 0.0162651 0
M  V30 4523 H 426.692 3.44116 2.43232 0
M  V30 4524 H 425.416 2.19861 2.41514 0
M  V30 4525 H 424.075 3.57979 0.790351 0
M  V30 4526 H 423.723 3.83646 3.25308 0
M  V30 4527 H 423.423 5.367 2.39222 0
M  V30 4528 H 424.947 5.13967 3.29651 0
M  V30 4529 H 426.361 5.63059 1.07876 0
M  V30 4530 H 424.758 5.98936 0.373593 0
M  V30 4531 H 425.828 4.8295 -0.434394 0
M  V30 4532 N 427.171 -0.0066808 1.57599 0
M  V30 4533 C 428.101 -0.999296 2.11036 0
M  V30 4534 C 429.082 -1.36278 1.01795 0
M  V30 4535 O 430.267 -1.4477 1.29442 0
M  V30 4536 C 427.397 -2.29328 2.60818 0
M  V30 4537 C 426.351 -2.07159 3.74525 0
M  V30 4538 C 425.677 -3.42512 4.10596 0
M  V30 4539 C 426.977 -1.43959 5.02069 0
M  V30 4540 H 428.671 -0.554382 2.94223 0
M  V30 4541 H 426.217 -0.265221 1.41536 0
M  V30 4542 H 428.17 -2.99117 2.96828 0
M  V30 4543 H 426.894 -2.7592 1.74745 0
M  V30 4544 H 425.553 -1.39797 3.38899 0
M  V30 4545 H 425.201 -3.86795 3.21556 0
M  V30 4546 H 424.901 -3.28498 4.87199 0
M  V30 4547 H 426.425 -4.13628 4.4916 0
M  V30 4548 H 427.839 -2.03696 5.35893 0
M  V30 4549 H 426.236 -1.40452 5.83432 0
M  V30 4550 H 427.306 -0.407992 4.83181 0
M  V30 4551 N 428.649 -1.55105 -0.279332 0
M  V30 4552 C 429.895 -1.76597 -1.00921 0
M  V30 4553 C 430.25 -0.556831 -1.84166 0
M  V30 4554 O 429.543 0.450573 -1.86227 0
M  V30 4555 C 429.737 -3.0086 -1.92919 0
M  V30 4556 C 429.566 -4.33744 -1.18728 0
M  V30 4557 C 428.336 -4.9712 -0.905545 0
M  V30 4558 C 430.534 -5.11009 -0.580857 0
M  V30 4559 N 428.516 -6.13749 -0.136169 0
M  V30 4560 C 429.887 -6.19976 0.0546661 0
M  V30 4561 C 431.942 -4.95502 -0.488067 0
M  V30 4562 C 430.645 -7.15123 0.774028 0
M  V30 4563 C 432.671 -5.90999 0.217688 0
M  V30 4564 C 432.033 -6.9935 0.841975 0
M  V30 4565 H 428.132 -0.698553 -0.351493 0
M  V30 4566 H 430.716 -1.92595 -0.285531 0
M  V30 4567 H 428.887 -2.86249 -2.62519 0
M  V30 4568 H 430.619 -3.10784 -2.59221 0
M  V30 4569 H 427.374 -4.57903 -1.20921 0
M  V30 4570 H 427.798 -6.7659 0.235665 0
M  V30 4571 H 432.44 -4.11841 -0.956406 0
M  V30 4572 H 430.158 -7.9831 1.25407 0
M  V30 4573 H 433.744 -5.81078 0.289717 0
M  V30 4574 H 432.624 -7.71973 1.37939 0
M  V30 4575 N 430.127 0.543554 -1.4793 0
M  V30 4576 C 431.057 1.65888 -1.64327 0
M  V30 4577 C 432.038 1.62818 -0.492383 0
M  V30 4578 O 433.223 1.80226 -0.723338 0
M  V30 4579 C 430.353 3.04506 -1.67013 0
M  V30 4580 C 429.307 3.2243 -2.81466 0
M  V30 4581 C 428.633 4.61972 -2.69233 0
M  V30 4582 C 429.933 3.06496 -4.22915 0
M  V30 4583 H 431.627 1.52421 -2.57698 0
M  V30 4584 H 429.173 0.731849 -1.24016 0
M  V30 4585 H 431.126 3.82391 -1.77074 0
M  V30 4586 H 429.85 3.18964 -0.70212 0
M  V30 4587 H 428.509 2.46957 -2.70938 0
M  V30 4588 H 428.157 4.73247 -1.7043 0
M  V30 4589 H 427.857 4.74911 -3.46025 0
M  V30 4590 H 429.381 5.41974 -2.81242 0
M  V30 4591 H 430.795 3.74186 -4.34348 0
M  V30 4592 H 429.192 3.30938 -5.006 0
M  V30 4593 H 430.262 2.03077 -4.40327 0
M  V30 4594 N 431.605 1.3629 0.791371 0
M  V30 4595 C 433.016 1.27225 1.36641 0
M  V30 4596 C 433.367 -0.0887968 1.95999 0
M  V30 4597 O 432.492 -0.990207 1.92416 0
M  V30 4598 C 433.087 2.30375 2.48421 0
M  V30 4599 C 431.646 2.25004 3.01746 0
M  V30 4600 C 430.793 2.15259 1.7481 0
M  V30 4601 H 433.744 1.47198 0.593173 0
M  V30 4602 H 433.765 1.93905 3.27385 0
M  V30 4603 H 433.277 3.29422 2.05189 0
M  V30 4604 H 431.378 1.29417 3.49403 0
M  V30 4605 H 431.491 3.1761 3.58693 0
M  V30 4606 H 429.855 1.61482 1.96966 0
M  V30 4607 H 430.638 3.16191 1.33709 0
M  V30 4608 N 433.083 -1.0153 1.20538 0
M  V30 4609 C 434.046 -2.0826 0.957098 0
M  V30 4610 C 435.046 -1.60657 -0.0678655 0
M  V30 4611 O 436.236 -1.73385 0.168332 0
M  V30 4612 C 433.368 -3.38033 0.441188 0
M  V30 4613 H 434.561 -2.31719 1.90384 0
M  V30 4614 H 432.114 -1.1835 1.02093 0
M  V30 4615 H 432.849 -3.20249 -0.510961 0
M  V30 4616 H 432.634 -3.73911 1.18038 0
M  V30 4617 H 434.124 -4.16613 0.287009 0
M  V30 4618 N 434.561 -1.01147 -1.20859 0
M  V30 4619 C 435.786 -0.716698 -1.94623 0
M  V30 4620 C 436.211 0.715415 -1.73964 0
M  V30 4621 O 435.569 1.49157 -1.03062 0
M  V30 4622 C 435.617 -1.0513 -3.44935 0
M  V30 4623 O 434.721 -0.160131 -4.12089 0
M  V30 4624 H 434.062 -0.266404 -0.608214 0
M  V30 4625 H 436.592 -1.35346 -1.53436 0
M  V30 4626 H 436.602 -1.00086 -3.95533 0
M  V30 4627 H 435.277 -2.09475 -3.59295 0
M  V30 4628 H 433.854 -0.267657 -3.71938 0
M  V30 4629 N 436.039 1.36541 -0.78704 0
M  V30 4630 C 437.269 2.03266 -0.369662 0
M  V30 4631 C 437.677 1.59481 1.01796 0
M  V30 4632 O 437.02 0.778612 1.66383 0
M  V30 4633 C 437.082 3.57779 -0.351371 0
M  V30 4634 C 436.746 4.24756 -1.68617 0
M  V30 4635 C 437.743 4.47811 -2.64124 0
M  V30 4636 C 435.428 4.62277 -1.96481 0
M  V30 4637 C 437.422 5.07464 -3.85693 0
M  V30 4638 C 435.109 5.21649 -3.18317 0
M  V30 4639 C 436.107 5.44182 -4.12741 0
M  V30 4640 O 435.795 6.02307 -5.32429 0
M  V30 4641 H 435.527 0.658977 -0.150751 0
M  V30 4642 H 438.081 1.75548 -1.0664 0
M  V30 4643 H 436.311 3.84606 0.401847 0
M  V30 4644 H 438 4.05879 0.0410147 0
M  V30 4645 H 438.766 4.19221 -2.43883 0
M  V30 4646 H 434.645 4.44065 -1.23805 0
M  V30 4647 H 438.189 5.24968 -4.59407 0
M  V30 4648 H 434.086 5.49664 -3.38437 0
M  V30 4649 H 434.854 6.20775 -5.33461 0
M  V30 4650 N 437.518 0.538854 1.48102 0
M  V30 4651 C 438.448 -0.207654 2.32575 0
M  V30 4652 C 439.429 -0.926559 1.4265 0
M  V30 4653 O 440.614 -0.91061 1.71527 0
M  V30 4654 C 437.744 -1.24957 3.24042 0
M  V30 4655 C 436.698 -0.648263 4.23062 0
M  V30 4656 C 436.024 -1.79348 5.03725 0
M  V30 4657 C 437.324 0.385897 5.20872 0
M  V30 4658 H 439.018 0.497534 2.95237 0
M  V30 4659 H 436.564 0.240715 1.41974 0
M  V30 4660 H 438.517 -1.77983 3.81969 0
M  V30 4661 H 437.241 -1.98446 2.59397 0
M  V30 4662 H 435.9 -0.139452 3.66335 0
M  V30 4663 H 435.548 -2.51696 4.35498 0
M  V30 4664 H 435.248 -1.39702 5.70751 0
M  V30 4665 H 436.772 -2.32735 5.64506 0
M  V30 4666 H 438.186 -0.057607 5.73271 0
M  V30 4667 H 436.583 0.700227 5.96001 0
M  V30 4668 H 437.653 1.28848 4.67468 0
M  V30 4669 N 438.996 -1.55193 0.274407 0
M  V30 4670 C 440.407 -1.85358 -0.223488 0
M  V30 4671 C 440.758 -1.19642 -1.555 0
M  V30 4672 O 439.883 -0.484498 -2.10907 0
M  V30 4673 C 440.478 -3.36282 -0.412285 0
M  V30 4674 C 439.037 -3.66574 -0.854413 0
M  V30 4675 C 438.184 -2.7725 0.0527056 0
M  V30 4676 H 441.135 -1.50743 0.496215 0
M  V30 4677 H 441.156 -3.59349 -1.25094 0
M  V30 4678 H 440.668 -3.84083 0.556965 0
M  V30 4679 H 438.769 -3.24273 -1.83516 0
M  V30 4680 H 438.882 -4.74073 -0.692226 0
M  V30 4681 H 437.246 -2.50447 -0.463484 0
M  V30 4682 H 438.029 -3.27865 1.01783 0
M  V30 4683 N 440.474 -0.00167713 -1.576 0
M  V30 4684 C 441.437 0.974046 -2.07473 0
M  V30 4685 C 442.437 1.27143 -0.984444 0
M  V30 4686 O 443.627 1.21633 -1.24703 0
M  V30 4687 C 440.759 2.29849 -2.51759 0
M  V30 4688 H 441.952 0.54262 -2.9495 0
M  V30 4689 H 439.505 0.245829 -1.54355 0
M  V30 4690 H 440.24 2.77677 -1.67529 0
M  V30 4691 H 440.025 2.09584 -3.31386 0
M  V30 4692 H 441.515 2.9984 -2.90664 0
M  V30 4693 N 441.952 1.55251 0.271103 0
M  V30 4694 C 443.177 1.80306 1.02491 0
M  V30 4695 C 443.602 0.575457 1.79081 0
M  V30 4696 O 442.96 -0.474987 1.74967 0
M  V30 4697 C 443.008 3.02832 1.95768 0
M  V30 4698 O 442.112 2.78051 3.04568 0
M  V30 4699 H 441.453 0.595896 0.292923 0
M  V30 4700 H 443.983 2.02397 0.299436 0
M  V30 4701 H 443.993 3.31616 2.37686 0
M  V30 4702 H 442.668 3.9183 1.39434 0
M  V30 4703 H 441.245 2.60369 2.66951 0
M  V30 4704 N 443.43 -0.535701 1.48216 0
M  V30 4705 C 444.36 -1.65014 1.65204 0
M  V30 4706 C 445.341 -1.62554 0.501011 0
M  V30 4707 O 446.526 -1.7984 0.732886 0
M  V30 4708 C 443.656 -3.03616 1.68626 0
M  V30 4709 C 442.61 -3.20932 2.83172 0
M  V30 4710 C 441.936 -4.60537 2.71679 0
M  V30 4711 C 443.236 -3.04249 4.24535 0
M  V30 4712 H 444.93 -1.51053 2.58502 0
M  V30 4713 H 442.476 -0.725262 1.24402 0
M  V30 4714 H 444.429 -3.81446 1.79099 0
M  V30 4715 H 443.153 -3.18587 0.719026 0
M  V30 4716 H 441.812 -2.45517 2.72244 0
M  V30 4717 H 441.46 -4.72336 1.72937 0
M  V30 4718 H 441.16 -4.73069 3.48538 0
M  V30 4719 H 442.684 -5.40475 2.84112 0
M  V30 4720 H 444.098 -3.71877 4.36326 0
M  V30 4721 H 442.495 -3.28278 5.02348 0
M  V30 4722 H 443.565 -2.00739 4.41397 0
M  V30 4723 N 444.908 -1.36708 -0.784132 0
M  V30 4724 C 446.154 -1.31426 -1.54451 0
M  V30 4725 C 446.487 0.10476 -1.93917 0
M  V30 4726 O 445.762 1.05934 -1.6312 0
M  V30 4727 C 446.045 -2.24189 -2.818 0
M  V30 4728 C 445.898 -3.74813 -2.48667 0
M  V30 4729 C 447.217 -2.15626 -3.83658 0
M  V30 4730 H 444.336 -0.478739 -0.560337 0
M  V30 4731 H 446.978 -1.67305 -0.900498 0
M  V30 4732 H 445.128 -1.93722 -3.36755 0
M  V30 4733 H 446.8 -4.15823 -1.99722 0
M  V30 4734 H 445.043 -3.93989 -1.81535 0
M  V30 4735 H 445.714 -4.35138 -3.39646 0
M  V30 4736 H 448.19 -2.42456 -3.38163 0
M  V30 4737 H 447.066 -2.82694 -4.70506 0
M  V30 4738 H 447.327 -1.14522 -4.27009 0
M  V30 4739 N 446.386 1.0089 -1.21074 0
M  V30 4740 C 447.663 1.71834 -0.934469 0
M  V30 4741 C 448.043 2.0368 0.554753 0
M  V30 4742 O 447.391 1.70742 1.51854 0
M  V30 4743 C 447.601 2.98061 -1.8155 0
M  V30 4744 C 448.949 3.7117 -2.06199 0
M  V30 4745 O 449.973 3.08034 -1.78867 0
M  V30 4746 O 448.832 4.84721 -2.52404 0
M  V30 4747 H 445.926 0.749253 -0.35007 0
M  V30 4748 H 448.472 1.06668 -1.31985 0
M  V30 4749 H 447.244 2.70908 -2.82355 0
M  V30 4750 H 446.867 3.70968 -1.43068 0
M  V30 4751 N 447.864 1.01787 1.20321 0
M  V30 4752 C 448.827 0.593972 2.2137 0
M  V30 4753 C 449.827 -0.336553 1.57239 0
M  V30 4754 O 451.017 -0.125069 1.7375 0
M  V30 4755 C 448.149 -0.132433 3.40643 0
M  V30 4756 H 449.342 1.48791 2.60387 0
M  V30 4757 H 446.895 0.807803 1.33807 0
M  V30 4758 H 447.63 -1.04123 3.0713 0
M  V30 4759 H 447.415 0.53605 3.88418 0
M  V30 4760 H 448.905 -0.416314 4.1552 0
M  V30 4761 N 449.342 -1.36122 0.79427 0
M  V30 4762 C 450.588 -1.99406 0.369452 0
M  V30 4763 C 450.921 -1.62886 -1.05743 0
M  V30 4764 O 450.196 -0.886053 -1.73145 0
M  V30 4765 C 450.479 -3.56046 0.538833 0
M  V30 4766 C 450.332 -4.02404 2.00976 0
M  V30 4767 C 451.651 -4.40079 -0.0431359 0
M  V30 4768 H 448.77 -0.724397 0.135712 0
M  V30 4769 H 451.412 -1.61461 1.00151 0
M  V30 4770 H 449.562 -3.885 0.000771004 0
M  V30 4771 H 451.234 -3.80415 2.60926 0
M  V30 4772 H 449.477 -3.53765 2.51063 0
M  V30 4773 H 450.148 -5.11344 2.07922 0
M  V30 4774 H 452.624 -4.14013 0.416228 0
M  V30 4775 H 451.5 -5.48799 0.105374 0
M  V30 4776 H 451.761 -4.27264 -1.13571 0
M  V30 4777 N 450.82 -0.546701 -1.47814 0
M  V30 4778 C 451.75 0.195317 -2.32682 0
M  V30 4779 C 452.731 0.918981 -1.43139 0
M  V30 4780 O 453.916 0.901501 -1.72008 0
M  V30 4781 C 451.046 1.23237 -3.247 0
M  V30 4782 C 450 0.625818 -4.234 0
M  V30 4783 C 449.326 1.76674 -5.04669 0
M  V30 4784 C 450.626 -0.413515 -5.2066 0
M  V30 4785 H 452.32 -0.513184 -2.94969 0
M  V30 4786 H 449.866 -0.248241 -1.41844 0
M  V30 4787 H 451.819 1.75955 -3.82907 0
M  V30 4788 H 450.543 1.97067 -2.60446 0
M  V30 4789 H 449.202 0.120023 -3.66403 0
M  V30 4790 H 448.85 2.49383 -4.36826 0
M  V30 4791 H 448.55 1.36673 -5.71484 0
M  V30 4792 H 450.074 2.29738 -5.65732 0
M  V30 4793 H 451.488 0.0272042 -5.73294 0
M  V30 4794 H 449.885 -0.731825 -5.95621 0
M  V30 4795 H 450.955 -1.31325 -4.66778 0
M  V30 4796 N 452.299 1.55045 -0.282633 0
M  V30 4797 C 453.527 2.04168 0.33512 0
M  V30 4798 C 453.942 1.16071 1.48906 0
M  V30 4799 O 453.299 0.182391 1.81586 0
M  V30 4800 C 453.35 3.52332 0.808957 0
M  V30 4801 O 453.071 4.37078 -0.299038 0
M  V30 4802 C 454.572 4.17375 1.49375 0
M  V30 4803 H 451.792 0.666744 0.0754543 0
M  V30 4804 H 454.336 2.00205 -0.416918 0
M  V30 4805 H 452.491 3.56715 1.51106 0
M  V30 4806 H 452.905 5.24458 0.0665514 0
M  V30 4807 H 454.379 5.22627 1.77664 0
M  V30 4808 H 454.856 3.65999 2.42778 0
M  V30 4809 H 455.462 4.17016 0.835305 0
M  V30 4810 N 453.777 0.010035 1.57597 0
M  V30 4811 C 455.023 -0.668011 1.92118 0
M  V30 4812 C 455.378 -1.70821 0.885328 0
M  V30 4813 O 454.671 -1.91333 -0.101187 0
M  V30 4814 C 454.865 -1.34434 3.31153 0
M  V30 4815 C 454.694 -0.371176 4.48166 0
M  V30 4816 C 453.464 0.0220686 5.05295 0
M  V30 4817 C 455.662 0.366731 5.12991 0
M  V30 4818 N 453.644 0.9924 6.05826 0
M  V30 4819 C 455.015 1.19142 6.08445 0
M  V30 4820 C 457.07 0.429489 4.96044 0
M  V30 4821 C 455.773 2.07317 6.88776 0
M  V30 4822 C 457.799 1.2985 5.76969 0
M  V30 4823 C 457.161 2.11101 6.72023 0
M  V30 4824 H 453.26 -0.217337 0.751192 0
M  V30 4825 H 455.844 0.0727375 1.94564 0
M  V30 4826 H 454.015 -2.05533 3.29561 0
M  V30 4827 H 455.747 -1.97789 3.53075 0
M  V30 4828 H 452.502 -0.348409 4.72317 0
M  V30 4829 H 452.926 1.47324 6.60776 0
M  V30 4830 H 457.568 -0.18442 4.22398 0
M  V30 4831 H 455.286 2.69771 7.61741 0
M  V30 4832 H 458.872 1.3511 5.65894 0
M  V30 4833 H 457.752 2.77257 7.33552 0
M  V30 4834 N 455.255 -1.55392 -0.262866 0
M  V30 4835 C 456.501 -1.76737 -0.99458 0
M  V30 4836 C 456.834 -0.572453 -1.85571 0
M  V30 4837 O 456.109 0.429732 -1.89693 0
M  V30 4838 C 456.392 -3.07824 -1.8686 0
M  V30 4839 C 456.245 -4.3769 -1.03672 0
M  V30 4840 C 457.564 -3.35021 -2.85393 0
M  V30 4841 H 454.683 -0.643005 -0.360157 0
M  V30 4842 H 457.325 -1.88126 -0.266216 0
M  V30 4843 H 455.475 -2.98245 -2.48962 0
M  V30 4844 H 457.147 -4.59238 -0.43563 0
M  V30 4845 H 455.39 -4.32461 -0.340513 0
M  V30 4846 H 456.061 -5.25759 -1.6817 0
M  V30 4847 H 458.537 -3.44458 -2.33426 0
M  V30 4848 H 457.413 -4.27989 -3.43681 0
M  V30 4849 H 457.674 -2.55153 -3.61039 0
M  V30 4850 N 456.733 0.527833 -1.48498 0
M  V30 4851 C 457.663 1.64136 -1.66077 0
M  V30 4852 C 458.644 1.62286 -0.509625 0
M  V30 4853 O 459.829 1.79449 -0.742413 0
M  V30 4854 C 456.959 3.02717 -1.70234 0
M  V30 4855 C 455.913 3.19426 -2.8487 0
M  V30 4856 C 455.239 4.5909 -2.74118 0
M  V30 4857 C 456.539 3.01993 -4.26142 0
M  V30 4858 H 458.233 1.4968 -2.593 0
M  V30 4859 H 455.779 0.718654 -1.24785 0
M  V30 4860 H 457.732 3.80491 -1.8112 0
M  V30 4861 H 456.456 3.18201 -0.735911 0
M  V30 4862 H 455.115 2.4407 -2.73542 0
M  V30 4863 H 454.763 4.71413 -1.7544 0
M  V30 4864 H 454.463 4.71214 -3.51042 0
M  V30 4865 H 455.987 5.3896 -2.86974 0
M  V30 4866 H 457.401 3.69558 -4.38292 0
M  V30 4867 H 455.798 3.2561 -5.04082 0
M  V30 4868 H 456.868 1.98396 -4.42456 0
M  V30 4869 N 458.211 1.37122 0.776871 0
M  V30 4870 C 459.622 1.28667 1.35284 0
M  V30 4871 C 459.973 -0.0680035 1.96082 0
M  V30 4872 O 459.098 -0.969743 1.93455 0
M  V30 4873 C 459.693 2.32997 2.45963 0
M  V30 4874 C 458.252 2.28191 2.99342 0
M  V30 4875 C 457.399 2.17101 1.72517 0
M  V30 4876 H 460.35 1.47819 0.577527 0
M  V30 4877 H 460.371 1.97366 3.2531 0
M  V30 4878 H 459.883 3.3158 2.01684 0
M  V30 4879 H 457.984 1.33115 3.4801 0
M  V30 4880 H 458.097 3.21397 3.55304 0
M  V30 4881 H 456.461 1.63562 1.95242 0
M  V30 4882 H 457.244 3.17591 1.30348 0
M  V30 4883 N 459.689 -1.00246 1.21608 0
M  V30 4884 C 460.636 -2.09073 0.977613 0
M  V30 4885 C 461.606 -1.65815 -0.097297 0
M  V30 4886 O 462.791 -1.90734 0.0503445 0
M  V30 4887 C 459.931 -3.40671 0.551133 0
M  V30 4888 C 459.044 -3.97326 1.69576 0
M  V30 4889 C 458.179 -5.17043 1.2182 0
M  V30 4890 C 457.218 -5.65813 2.335 0
M  V30 4891 N 456.355 -6.76778 1.86859 0
M  V30 4892 H 461.195 -2.28806 1.90924 0
M  V30 4893 H 458.732 -1.12186 0.951452 0
M  V30 4894 H 460.69 -4.16225 0.285097 0
M  V30 4895 H 459.32 -3.20967 -0.343489 0
M  V30 4896 H 458.372 -3.18734 2.07637 0
M  V30 4897 H 459.684 -4.29511 2.53617 0
M  V30 4898 H 458.838 -5.99852 0.908975 0
M  V30 4899 H 457.577 -4.86458 0.347869 0
M  V30 4900 H 456.582 -4.81599 2.65222 0
M  V30 4901 H 457.807 -5.98427 3.21033 0
M  V30 4902 H 455.753 -6.47994 1.02174 0
M  V30 4903 H 455.67 -7.08231 2.64471 0
M  V30 4904 H 456.938 -7.63116 1.58978 0
M  V30 4905 N 461.167 -1.02423 -1.1978 0
M  V30 4906 C 462.578 -0.748389 -1.71044 0
M  V30 4907 C 462.929 0.732398 -1.82017 0
M  V30 4908 O 462.054 1.57116 -1.48807 0
M  V30 4909 C 462.649 -1.35187 -3.1066 0
M  V30 4910 C 461.208 -1.12472 -3.59203 0
M  V30 4911 C 460.355 -1.45283 -2.36195 0
M  V30 4912 H 463.306 -1.19275 -1.04686 0
M  V30 4913 H 463.327 -0.746408 -3.73107 0
M  V30 4914 H 462.839 -2.4296 -3.02642 0
M  V30 4915 H 460.94 -0.0649983 -3.72543 0
M  V30 4916 H 461.053 -1.81016 -4.43588 0
M  V30 4917 H 459.417 -0.872034 -2.39307 0
M  V30 4918 H 460.2 -2.54129 -2.30811 0
M  V30 4919 N 462.645 1.35699 -0.801477 0
M  V30 4920 C 463.608 2.28199 -0.213994 0
M  V30 4921 C 464.608 1.49359 0.595691 0
M  V30 4922 O 465.798 1.69186 0.414921 0
M  V30 4923 C 462.93 3.33587 0.702297 0
M  V30 4924 H 464.123 2.81666 -1.02976 0
M  V30 4925 H 461.676 1.45467 -0.571759 0
M  V30 4926 H 462.411 2.85297 1.54195 0
M  V30 4927 H 462.196 3.91906 0.123484 0
M  V30 4928 H 463.686 4.02638 1.10783 0
M  V30 4929 N 464.123 0.554532 1.47522 0
M  V30 4930 C 465.055 -0.232106 2.28022 0
M  V30 4931 C 466.068 -0.881865 1.36847 0
M  V30 4932 O 467.257 -0.756168 1.61692 0
M  V30 4933 C 464.357 -1.34604 3.11022 0
M  V30 4934 C 463.53 -0.793582 4.30141 0
M  V30 4935 C 462.589 -1.79168 4.94758 0
M  V30 4936 O 461.615 -1.33886 5.5323 0
M  V30 4937 N 462.817 -3.12495 4.89211 0
M  V30 4938 H 465.582 0.458407 2.96173 0
M  V30 4939 H 463.143 0.390433 1.57122 0
M  V30 4940 H 465.135 -2.01243 3.51118 0
M  V30 4941 H 463.705 -1.93983 2.45131 0
M  V30 4942 H 462.925 0.0495025 3.94169 0
M  V30 4943 H 464.213 -0.403776 5.07195 0
M  V30 4944 H 463.611 -3.51931 4.42901 0
M  V30 4945 H 462.168 -3.74698 5.33333 0
M  V30 4946 N 465.601 -1.54893 0.290851 0
M  V30 4947 C 466.564 -2.21824 -0.576784 0
M  V30 4948 C 467.564 -1.20104 -1.06919 0
M  V30 4949 O 468.754 -1.44906 -0.966843 0
M  V30 4950 C 465.886 -2.89662 -1.79747 0
M  V30 4951 H 467.079 -2.99899 0.00784051 0
M  V30 4952 H 464.632 -1.56245 0.0415934 0
M  V30 4953 H 465.367 -2.15639 -2.42219 0
M  V30 4954 H 465.152 -3.64219 -1.45214 0
M  V30 4955 H 466.642 -3.4075 -2.4141 0
M  V30 4956 N 467.08 -0.0183926 -1.57589 0
M  V30 4957 C 468.326 0.663543 -1.91638 0
M  V30 4958 C 468.659 1.72392 -0.894134 0
M  V30 4959 O 467.934 1.94316 0.0846449 0
M  V30 4960 C 468.217 1.28984 -3.36207 0
M  V30 4961 C 468.07 0.239761 -4.49161 0
M  V30 4962 C 469.389 2.2109 -3.80536 0
M  V30 4963 H 466.508 0.239746 -0.696915 0
M  V30 4964 H 469.15 -0.073456 -1.89858 0
M  V30 4965 H 467.3 1.91799 -3.37854 0
M  V30 4966 H 468.972 -0.390119 -4.59647 0
M  V30 4967 H 467.215 -0.435972 -4.31604 0
M  V30 4968 H 467.886 0.717383 -5.47319 0
M  V30 4969 H 470.362 1.68273 -3.80557 0
M  V30 4970 H 469.238 2.61869 -4.82406 0
M  V30 4971 H 469.499 3.09764 -3.15434 0
M  V30 4972 N 468.558 1.5553 0.254621 0
M  V30 4973 C 469.788 1.80784 1.00004 0
M  V30 4974 C 470.196 0.59071 1.79742 0
M  V30 4975 O 469.539 -0.449988 1.78103 0
M  V30 4976 C 469.601 2.99268 1.99196 0
M  V30 4977 C 469.265 4.35595 1.38224 0
M  V30 4978 C 470.262 5.13884 0.788611 0
M  V30 4979 C 467.947 4.82281 1.40393 0
M  V30 4980 C 469.941 6.37004 0.224783 0
M  V30 4981 C 467.628 6.05351 0.836243 0
M  V30 4982 C 468.626 6.82551 0.24769 0
M  V30 4983 O 468.314 8.03297 -0.311249 0
M  V30 4984 H 468.046 0.60565 0.300274 0
M  V30 4985 H 470.6 2.03411 0.285143 0
M  V30 4986 H 468.83 2.72377 2.74496 0
M  V30 4987 H 470.519 3.11682 2.60018 0
M  V30 4988 H 471.285 4.78938 0.764423 0
M  V30 4989 H 467.164 4.22189 1.85142 0
M  V30 4990 H 470.708 6.97203 -0.235235 0
M  V30 4991 H 466.605 6.39776 0.857733 0
M  V30 4992 H 467.373 8.1825 -0.20237 0
M  V30 4993 O 470.075 -0.400303 1.5646 0
M  V30 4994 H 470.766 -1.05256 1.62607 0
M  V30 END ATOM
M  V30 BEGIN BOND
M  V30 END BOND
M  V30 END CTAB
M  END
$$$$
