drugbank_target|Q92731 Estrogen receptor beta (DB00255; DB00286; DB00396; DB00481; DB00655; DB00675; DB00783; DB01108; DB01196; DB01428; DB01645; DB01708; DB01878; DB02746; DB02757; DB02983; DB03467; DB03860; DB03882; DB04020; DB04216; DB04468; DB04573; DB04574; DB05052; DB05882; DB05966; DB06202; DB06249; DB06401; DB06832; DB06875; DB06927; DB06937; DB07009; DB07032; DB07036; DB07119; DB07150; DB07198; DB07230; DB07236; DB07638; DB07702; DB07757; DB07933; DB08020; DB09086; DB09535; DB11219; DB11674; DB13869; DB13952; DB13953; DB13954; DB13955; DB13956; DB14641; DB15690)
 OpenBabel12092119403D

  0  0  0     0  0            999 V3000
M  V30 BEGIN CTAB
M  V30 COUNTS 8289 8380 0 0 0
M  V30 BEGIN ATOM
M  V30 1 H -0.908 1.98254 -0.117106 0
M  V30 2 N 0 1.576 0 0
M  V30 3 C 0.933 2.03868 1.02534 0
M  V30 4 C 1.911 0.928543 1.3348 0
M  V30 5 O 3.095 1.19667 1.45644 0
M  V30 6 C 0.222 2.43627 2.35294 0
M  V30 7 C -0.732 3.65373 2.2001 0
M  V30 8 S 0.101 5.13292 1.52614 0
M  V30 9 C 1.257 5.56322 2.86805 0
M  V30 10 H 1.49 2.90518 0.631377 0
M  V30 11 H -0.977 1.52953 0.210867 0
M  V30 12 H 0.981 2.67203 3.11629 0
M  V30 13 H -0.358 1.57376 2.7183 0
M  V30 14 H -1.165 3.90944 3.18086 0
M  V30 15 H -1.563 3.418 1.51819 0
M  V30 16 H 0.729 5.58782 3.83104 0
M  V30 17 H 1.672 6.56266 2.65933 0
M  V30 18 H 2.08 4.83886 2.90714 0
M  V30 19 N 1.4781 -0.272755 1.55222 0
M  V30 20 C 2.7551 -1.02562 1.66555 0
M  V30 21 C 3.1351 -2.04282 0.532189 0
M  V30 22 O 2.4831 -2.23662 -0.467717 0
M  V30 23 C 2.6931 -1.6822 3.05782 0
M  V30 24 C 4.0411 -2.19373 3.63539 0
M  V30 25 O 5.0651 -1.78206 3.08417 0
M  V30 26 O 3.9241 -2.94883 4.60115 0
M  V30 27 H 1.0181 -0.475755 0.676451 0
M  V30 28 H 3.5641 -0.268593 1.67561 0
M  V30 29 H 2.3361 -0.945112 3.79715 0
M  V30 30 H 1.9591 -2.50609 3.08676 0
M  V30 31 N 2.9562 -1.48159 -0.537278 0
M  V30 32 C 4.2052 -1.5506 -1.28993 0
M  V30 33 C 4.5182 -0.226211 -1.94288 0
M  V30 34 O 5.7242 -0.173395 -2.70946 0
M  V30 35 C 4.1802 -2.73429 -2.34018 0
M  V30 36 C 3.7882 -4.1248 -1.74825 0
M  V30 37 C 5.5322 -2.89638 -3.10339 0
M  V30 38 C 3.4392 -5.22121 -2.77747 0
M  V30 39 H 2.3692 -0.577231 -0.485098 0
M  V30 40 H 5.0202 -1.74478 -0.568317 0
M  V30 41 H 3.4022 -2.47431 -3.09182 0
M  V30 42 H 4.5762 -4.48466 -1.05899 0
M  V30 43 H 2.8912 -4.01327 -1.11022 0
M  V30 44 H 5.4882 -3.68718 -3.87235 0
M  V30 45 H 5.8312 -1.9882 -3.65754 0
M  V30 46 H 6.3642 -3.15502 -2.42288 0
M  V30 47 H 3.1032 -6.1488 -2.27161 0
M  V30 48 H 2.6232 -4.90631 -3.45024 0
M  V30 49 H 4.3022 -5.49924 -3.4087 0
M  V30 50 N 4.4343 0.785586 -1.36625 0
M  V30 51 C 5.3813 1.89838 -1.31264 0
M  V30 52 C 6.3513 1.65115 -0.180633 0
M  V30 53 O 7.5363 1.87222 -0.36777 0
M  V30 54 C 4.6763 3.26706 -1.11163 0
M  V30 55 C 3.7893 3.63476 -2.33472 0
M  V30 56 C 2.9243 4.89481 -2.06353 0
M  V30 57 C 1.9633 5.18941 -3.24602 0
M  V30 58 N 1.1003 6.36131 -2.97123 0
M  V30 59 H 5.9403 1.93756 -2.26413 0
M  V30 60 H 3.4773 0.947454 -1.12524 0
M  V30 61 H 5.4353 4.05639 -0.975337 0
M  V30 62 H 4.0653 3.222 -0.196674 0
M  V30 63 H 3.1173 2.79636 -2.57891 0
M  V30 64 H 4.4293 3.81193 -3.21704 0
M  V30 65 H 3.5833 5.76288 -1.89675 0
M  V30 66 H 2.3223 4.73841 -1.15437 0
M  V30 67 H 1.3273 4.30615 -3.41834 0
M  V30 68 H 2.5523 5.36498 -4.16349 0
M  V30 69 H 0.4983 6.21875 -2.08823 0
M  V30 70 H 0.4153 6.54198 -3.78894 0
M  V30 71 H 1.6833 7.2591 -2.84033 0
M  V30 72 N 5.9124 1.20967 1.01018 0
M  V30 73 C 6.8604 0.961223 2.1181 0
M  V30 74 C 7.8544 -0.0897034 1.69162 0
M  V30 75 O 9.0604 0.0612271 1.79896 0
M  V30 76 H 5.4354 0.29355 0.692338 0
M  V30 77 H 7.4064 1.90178 2.29946 0
M  V30 78 C 6.1554 0.536854 3.4353 0
M  V30 79 H 5.4784 1.33713 3.76777 0
M  V30 80 H 6.9184 0.402286 4.22087 0
M  V30 81 C 5.3774 -0.751574 3.2841 0
M  V30 82 O 5.9074 -1.80841 3.58691 0
M  V30 83 N 4.1134 -0.716079 2.81639 0
M  V30 84 H 3.6604 0.144236 2.57196 0
M  V30 85 H 3.6184 -1.57847 2.71904 0
M  V30 86 N 7.3905 -1.2043 1.01659 0
M  V30 87 C 8.6155 -1.94318 0.724942 0
M  V30 88 C 9.0405 -1.74266 -0.708034 0
M  V30 89 O 8.3985 -1.03694 -1.48719 0
M  V30 90 C 8.4465 -3.44486 1.06591 0
M  V30 91 O 7.5505 -4.12017 0.177599 0
M  V30 92 H 6.8915 -0.60708 0.26898 0
M  V30 93 H 9.4215 -1.52861 1.35995 0
M  V30 94 H 9.4315 -3.95106 1.01762 0
M  V30 95 H 8.1065 -3.58404 2.10997 0
M  V30 96 H 6.6835 -3.71821 0.283421 0
M  V30 97 N 8.8686 -0.792821 -1.36206 0
M  V30 98 C 10.2796 -0.429513 -1.81692 0
M  V30 99 C 10.6306 1.04695 -1.65932 0
M  V30 100 O 9.7556 1.81256 -1.18218 0
M  V30 101 C 10.3506 -0.772831 -3.29868 0
M  V30 102 C 8.9096 -0.462307 -3.7355 0
M  V30 103 C 8.0566 -1.00569 -2.5842 0
M  V30 104 H 11.0076 -0.985672 -1.24379 0
M  V30 105 H 11.0286 -0.0651928 -3.80444 0
M  V30 106 H 10.5406 -1.84747 -3.41307 0
M  V30 107 H 8.6416 0.604158 -3.67669 0
M  V30 108 H 8.7546 -0.985299 -4.68859 0
M  V30 109 H 7.1186 -0.428734 -2.51066 0
M  V30 110 H 7.9016 -2.08616 -2.72643 0
M  V30 111 N 10.3467 1.47872 -0.545128 0
M  V30 112 C 11.5717 2.07391 -0.0190611 0
M  V30 113 C 11.9967 1.39688 1.25971 0
M  V30 114 O 11.3547 0.467816 1.7516 0
M  V30 115 C 11.4027 3.60188 0.172335 0
M  V30 116 O 10.5067 3.9339 1.23766 0
M  V30 117 H 9.8477 0.662411 -0.0459059 0
M  V30 118 H 12.3777 1.90066 -0.757365 0
M  V30 119 H 12.3877 4.06129 0.390305 0
M  V30 120 H 11.0627 4.08865 -0.761725 0
M  V30 121 H 9.6397 3.5921 1.00114 0
M  V30 122 N 11.8248 0.280983 1.55075 0
M  V30 123 C 13.0498 -0.340154 2.04592 0
M  V30 124 C 13.4748 -1.48246 1.15779 0
M  V30 125 O 12.8328 -1.80614 0.15761 0
M  V30 126 C 12.8808 -0.793104 3.5177 0
M  V30 127 O 11.9848 -1.89981 3.66034 0
M  V30 128 H 11.3258 -0.0694289 0.66036 0
M  V30 129 H 13.8558 0.416993 2.00306 0
M  V30 130 H 13.8658 -1.08729 3.93245 0
M  V30 131 H 12.5408 0.0426163 4.15878 0
M  V30 132 H 11.1178 -1.60771 3.36463 0
M  V30 133 N 13.3029 -1.57598 0.00835791 0
M  V30 134 C 14.2329 -2.1198 -0.979113 0
M  V30 135 C 15.2139 -1.03091 -1.35301 0
M  V30 136 O 16.3989 -1.30818 -1.43528 0
M  V30 137 C 13.5289 -2.62995 -2.26828 0
M  V30 138 C 12.4829 -3.76485 -2.03576 0
M  V30 139 C 11.8089 -4.13846 -3.38579 0
M  V30 140 C 13.1089 -5.0342 -1.39161 0
M  V30 141 H 14.8029 -2.94738 -0.526281 0
M  V30 142 H 12.3489 -1.41783 -0.251704 0
M  V30 143 H 14.3019 -2.99669 -2.96271 0
M  V30 144 H 13.0259 -1.7737 -2.7424 0
M  V30 145 H 11.6849 -3.40217 -1.36557 0
M  V30 146 H 11.3329 -3.25232 -3.83709 0
M  V30 147 H 11.0329 -4.90312 -3.23834 0
M  V30 148 H 12.5569 -4.53086 -4.09323 0
M  V30 149 H 13.9709 -5.37812 -1.98573 0
M  V30 150 H 12.3679 -5.84746 -1.34878 0
M  V30 151 H 13.4379 -4.83548 -0.361868 0
M  V30 152 N 14.781 0.264519 -1.55364 0
M  V30 153 C 15.729 1.34702 -1.89626 0
M  V30 154 C 16.723 1.50712 -0.773459 0
M  V30 155 O 17.929 1.52395 -0.957897 0
M  V30 156 H 14.304 0.450682 -0.601988 0
M  V30 157 H 16.275 1.0306 -2.80038 0
M  V30 158 C 15.024 2.6989 -2.19214 0
M  V30 159 H 14.347 2.58365 -3.05103 0
M  V30 160 H 15.787 3.44553 -2.47102 0
M  V30 161 C 14.246 3.21637 -1.00254 0
M  V30 162 O 14.776 4.00973 -0.241501 0
M  V30 163 N 12.982 2.7943 -0.797938 0
M  V30 164 H 12.529 2.15026 -1.4185 0
M  V30 165 H 12.487 3.144 -0.00363422 0
M  V30 166 N 16.2591 1.48442 0.529413 0
M  V30 167 C 17.4841 1.60406 1.31471 0
M  V30 168 C 17.9091 0.264738 1.86228 0
M  V30 169 O 17.2671 -0.763668 1.64432 0
M  V30 170 C 17.3151 2.65419 2.44101 0
M  V30 171 O 16.4191 2.22618 3.47153 0
M  V30 172 H 15.7601 0.537863 0.389357 0
M  V30 173 H 18.2901 1.94432 0.636965 0
M  V30 174 H 18.3001 2.86709 2.90279 0
M  V30 175 H 16.9751 3.62652 2.03608 0
M  V30 176 H 15.5521 2.11543 3.0709 0
M  V30 177 N 17.7372 -0.778329 1.37039 0
M  V30 178 C 19.1482 -1.35421 1.28523 0
M  V30 179 C 19.4992 -1.96075 -0.0700901 0
M  V30 180 O 18.6242 -1.93352 -0.971801 0
M  V30 181 C 19.2192 -2.46211 2.32735 0
M  V30 182 C 17.7782 -2.99585 2.27873 0
M  V30 183 C 16.9252 -1.72748 2.16918 0
M  V30 184 H 19.8762 -0.5791 1.47757 0
M  V30 185 H 19.8972 -3.2552 1.9702 0
M  V30 186 H 19.4092 -2.02036 3.31365 0
M  V30 187 H 17.5102 -3.48152 1.32745 0
M  V30 188 H 17.6232 -3.55646 3.21018 0
M  V30 189 H 15.9872 -1.95416 1.63354 0
M  V30 190 H 16.7702 -1.30686 3.17452 0
M  V30 191 N 19.2153 -1.21501 -1.00376 0
M  V30 192 C 20.4403 -1.05977 -1.78279 0
M  V30 193 C 20.8653 0.385994 -1.84097 0
M  V30 194 O 20.2233 1.27849 -1.28547 0
M  V30 195 C 20.2713 -1.66302 -3.19963 0
M  V30 196 O 19.3753 -0.909333 -4.0225 0
M  V30 197 H 18.7163 -0.372906 -0.549397 0
M  V30 198 H 21.2463 -1.6107 -1.26165 0
M  V30 199 H 21.2563 -1.70574 -3.70632 0
M  V30 200 H 19.9313 -2.71515 -3.15043 0
M  V30 201 H 18.5083 -0.941795 -3.60811 0
M  V30 202 N 20.6934 1.19889 -1.02296 0
M  V30 203 C 21.9184 1.9393 -0.735237 0
M  V30 204 C 22.3434 1.74639 0.698782 0
M  V30 205 O 21.7014 1.04481 1.48167 0
M  V30 206 C 21.7494 3.43916 -1.08417 0
M  V30 207 O 20.8534 4.11917 -0.199446 0
M  V30 208 H 20.1944 0.605645 -0.272196 0
M  V30 209 H 22.7244 1.52137 -1.36804 0
M  V30 210 H 22.7344 3.9456 -1.03856 0
M  V30 211 H 21.4094 3.5728 -2.12894 0
M  V30 212 H 19.9864 3.71666 -0.303136 0
M  V30 213 N 22.1715 0.800033 1.35784 0
M  V30 214 C 23.4015 0.389041 2.02904 0
M  V30 215 C 23.8095 -1.0027 1.60445 0
M  V30 216 O 23.1525 -1.65633 0.794453 0
M  V30 217 C 23.2145 0.385495 3.57427 0
M  V30 218 C 22.8785 1.72662 4.23127 0
M  V30 219 C 23.8755 2.68385 4.4527 0
M  V30 220 C 21.5605 2.00883 4.60381 0
M  V30 221 C 23.5545 3.90517 5.03761 0
M  V30 222 C 21.2415 3.2328 5.18588 0
M  V30 223 C 22.2395 4.17915 5.40218 0
M  V30 224 O 21.9275 5.38153 5.97199 0
M  V30 225 H 21.6595 0.157032 0.657508 0
M  V30 226 H 24.2135 1.08311 1.74522 0
M  V30 227 H 22.4435 -0.365128 3.84972 0
M  V30 228 H 24.1325 -0.00228296 4.059 0
M  V30 229 H 24.8985 2.47872 4.16874 0
M  V30 230 H 20.7775 1.28037 4.42863 0
M  V30 231 H 24.3215 4.64395 5.2056 0
M  V30 232 H 20.2185 3.43667 5.4641 0
M  V30 233 H 20.9865 5.3936 6.15656 0
M  V30 234 N 23.6496 -1.47581 0.552962 0
M  V30 235 C 24.5976 -2.31648 -0.21023 0
M  V30 236 C 25.5916 -1.42663 -0.913432 0
M  V30 237 O 26.7976 -1.5945 -0.835201 0
M  V30 238 H 23.1726 -0.746989 -0.0866676 0
M  V30 239 H 25.1436 -2.93869 0.518051 0
M  V30 240 C 23.8926 -3.25226 -1.22976 0
M  V30 241 H 23.2156 -3.93658 -0.698077 0
M  V30 242 H 24.6556 -3.86889 -1.73473 0
M  V30 243 C 23.1146 -2.48448 -2.27542 0
M  V30 244 O 23.6446 -2.22585 -3.34393 0
M  V30 245 N 21.8506 -2.09532 -2.01357 0
M  V30 246 H 21.3976 -2.30765 -1.14478 0
M  V30 247 H 21.3556 -1.58476 -2.71538 0
M  V30 248 N 25.1277 -0.289203 -1.54924 0
M  V30 249 C 26.3677 0.324536 -2.01807 0
M  V30 250 C 26.7317 1.5199 -1.17316 0
M  V30 251 O 27.9327 2.20422 -1.53843 0
M  V30 252 C 26.2037 0.683578 -3.50802 0
M  V30 253 S 27.7627 1.28185 -4.19659 0
M  V30 254 H 24.5807 0.100236 -0.703899 0
M  V30 255 H 27.1827 -0.414325 -1.91059 0
M  V30 256 H 25.8867 -0.195073 -4.09936 0
M  V30 257 H 25.4177 1.45354 -3.65562 0
M  V30 258 H 27.4327 2.57006 -4.24456 0
M  V30 259 N 26.6058 1.57591 -0.0167156 0
M  V30 260 C 27.8308 1.9598 0.67872 0
M  V30 261 C 28.2558 0.892546 1.65575 0
M  V30 262 O 27.6138 -0.147772 1.80697 0
M  V30 263 C 27.6618 3.33468 1.37227 0
M  V30 264 O 26.7658 3.28954 2.48722 0
M  V30 265 H 26.1068 0.639339 0.17928 0
M  V30 266 H 28.6368 2.04463 -0.0748802 0
M  V30 267 H 28.6468 3.69417 1.7319 0
M  V30 268 H 27.3218 4.10694 0.656007 0
M  V30 269 H 25.8988 3.04705 2.14963 0
M  V30 270 N 28.0839 -0.256276 1.55502 0
M  V30 271 C 29.0159 -1.33981 1.85962 0
M  V30 272 C 30.0289 -1.44743 0.745212 0
M  V30 273 O 31.2179 -1.4626 1.02324 0
M  V30 274 C 28.3179 -2.7194 2.02242 0
M  V30 275 C 27.4909 -2.83562 3.33033 0
M  V30 276 C 26.5499 -4.02304 3.39172 0
M  V30 277 O 25.5759 -3.92273 4.12444 0
M  V30 278 N 26.7779 -5.15045 2.67784 0
M  V30 279 H 29.5429 -1.08191 2.7949 0
M  V30 280 H 27.1039 -0.446388 1.55624 0
M  V30 281 H 29.0959 -3.49697 2.03701 0
M  V30 282 H 27.6659 -2.90479 1.15502 0
M  V30 283 H 26.8859 -1.92555 3.43971 0
M  V30 284 H 28.1739 -2.88271 4.19258 0
M  V30 285 H 27.5719 -5.26085 2.07968 0
M  V30 286 H 26.1289 -5.90972 2.74947 0
M  V30 287 N 29.562 -1.4872 -0.521534 0
M  V30 288 C 30.787 -1.61101 -1.30618 0
M  V30 289 C 31.212 -0.274611 -1.86085 0
M  V30 290 O 30.57 0.754937 -1.64834 0
M  V30 291 C 30.618 -2.66709 -2.4269 0
M  V30 292 O 29.722 -2.24456 -3.45967 0
M  V30 293 H 29.063 -0.539921 -0.386499 0
M  V30 294 H 31.593 -1.94767 -0.626645 0
M  V30 295 H 31.603 -2.88245 -2.88754 0
M  V30 296 H 30.278 -3.63727 -2.01682 0
M  V30 297 H 28.855 -2.13168 -3.05964 0
M  V30 298 N 31.0401 0.771051 -1.3745 0
M  V30 299 C 32.2891 1.52491 -1.3202 0
M  V30 300 C 32.6021 1.9538 0.0927347 0
M  V30 301 O 33.8081 2.70159 0.269503 0
M  V30 302 C 32.2641 2.75366 -2.31736 0
M  V30 303 C 31.8721 2.39573 -3.78562 0
M  V30 304 C 33.6161 3.53307 -2.35318 0
M  V30 305 C 31.5231 3.58954 -4.70007 0
M  V30 306 H 30.4531 0.572506 -0.490666 0
M  V30 307 H 33.1041 0.844474 -1.62914 0
M  V30 308 H 31.4861 3.45303 -1.93861 0
M  V30 309 H 32.6601 1.77415 -4.25277 0
M  V30 310 H 30.9751 1.74805 -3.77932 0
M  V30 311 H 33.5721 4.42039 -3.00842 0
M  V30 312 H 33.9151 3.93217 -1.36698 0
M  V30 313 H 34.4481 2.90367 -2.71904 0
M  V30 314 H 31.1871 3.24125 -5.69757 0
M  V30 315 H 30.7071 4.20214 -4.27996 0
M  V30 316 H 32.3861 4.25758 -4.87175 0
M  V30 317 N 32.5182 1.22032 0.997298 0
M  V30 318 C 33.4482 1.01065 2.10495 0
M  V30 319 C 34.4292 -0.0669542 1.69968 0
M  V30 320 O 35.6142 0.0943987 1.9397 0
M  V30 321 C 32.7442 0.582874 3.42374 0
M  V30 322 C 31.6982 1.60592 3.96729 0
M  V30 323 C 31.0242 1.03412 5.24605 0
M  V30 324 C 32.3242 2.99478 4.27914 0
M  V30 325 H 34.0182 1.93708 2.28292 0
M  V30 326 H 31.5642 0.932761 1.09707 0
M  V30 327 H 33.5172 0.423332 4.19268 0
M  V30 328 H 32.2412 -0.379213 3.24391 0
M  V30 329 H 30.9002 1.75316 3.21963 0
M  V30 330 H 30.5482 0.063518 5.0296 0
M  V30 331 H 30.2482 1.71754 5.61938 0
M  V30 332 H 31.7722 0.886066 6.04137 0
M  V30 333 H 33.1862 2.88153 4.95622 0
M  V30 334 H 31.5832 3.64903 4.76409 0
M  V30 335 H 32.6532 3.49742 3.3587 0
M  V30 336 N 33.9963 -1.19345 1.0293 0
M  V30 337 C 35.4073 -1.70725 0.755633 0
M  V30 338 C 35.7583 -1.82326 -0.724676 0
M  V30 339 O 34.8833 -1.49471 -1.56484 0
M  V30 340 C 35.4783 -3.10084 1.36503 0
M  V30 341 C 34.0373 -3.58723 1.13994 0
M  V30 342 C 33.1843 -2.35577 1.46283 0
M  V30 343 H 36.1353 -1.0418 1.19718 0
M  V30 344 H 36.1563 -3.72787 0.762217 0
M  V30 345 H 35.6683 -3.01609 2.44241 0
M  V30 346 H 33.7693 -3.72512 0.0807901 0
M  V30 347 H 33.8823 -4.42816 1.82894 0
M  V30 348 H 32.2463 -2.38935 0.88217 0
M  V30 349 H 33.0293 -2.29731 2.55105 0
M  V30 350 N 35.4744 -0.807222 -1.35358 0
M  V30 351 C 36.4044 -0.232509 -2.3234 0
M  V30 352 C 37.3854 0.642386 -1.57504 0
M  V30 353 O 38.5704 0.572526 -1.85569 0
M  V30 354 C 35.7004 0.619238 -3.41735 0
M  V30 355 C 34.6544 -0.157215 -4.27711 0
M  V30 356 C 33.9804 0.816273 -5.28433 0
M  V30 357 C 35.2804 -1.35656 -5.04376 0
M  V30 358 H 36.9744 -1.04276 -2.80654 0
M  V30 359 H 34.5204 -0.50288 -1.34934 0
M  V30 360 H 36.4734 1.03137 -4.08584 0
M  V30 361 H 35.1974 1.46239 -2.92031 0
M  V30 362 H 33.8564 -0.550525 -3.62443 0
M  V30 363 H 33.5044 1.65494 -4.74996 0
M  V30 364 H 33.2044 0.301067 -5.86828 0
M  V30 365 H 34.7284 1.22659 -5.98153 0
M  V30 366 H 36.1424 -1.01927 -5.64166 0
M  V30 367 H 34.5394 -1.8063 -5.7227 0
M  V30 368 H 35.6094 -2.14288 -4.34981 0
M  V30 369 N 36.9525 1.47285 -0.560781 0
M  V30 370 C 37.8625 2.33846 0.187954 0
M  V30 371 C 38.8785 1.48412 0.908293 0
M  V30 372 O 40.0545 1.81332 0.876388 0
M  V30 373 C 37.1195 3.25178 1.2025 0
M  V30 374 C 36.1805 4.26504 0.489208 0
M  V30 375 C 35.4135 5.13472 1.45542 0
M  V30 376 O 35.6365 5.02959 2.6905 0
M  V30 377 O 34.5705 5.93902 0.977963 0
M  V30 378 H 38.3965 2.99177 -0.522177 0
M  V30 379 H 35.9815 1.45903 -0.321364 0
M  V30 380 H 37.8635 3.81584 1.78805 0
M  V30 381 H 36.5385 2.6247 1.89449 0
M  V30 382 H 35.4455 3.73847 -0.137627 0
M  V30 383 H 36.7785 4.91935 -0.161399 0
M  V30 384 N 38.4306 0.297415 1.54768 0
M  V30 385 C 39.3806 -0.595275 2.20092 0
M  V30 386 C 40.3646 -1.10163 1.17273 0
M  V30 387 O 41.5566 -1.043 1.43006 0
M  V30 388 C 38.6856 -1.7684 2.94249 0
M  V30 389 C 37.7716 -1.27818 4.0438 0
M  V30 390 N 38.1626 -0.505695 5.03266 0
M  V30 391 C 36.4606 -1.55923 4.17857 0
M  V30 392 C 37.1616 -0.245094 5.81183 0
M  V30 393 N 36.1376 -0.823881 5.3732 0
M  V30 394 H 39.9396 0.00250837 2.939 0
M  V30 395 H 37.4536 0.102007 1.62079 0
M  V30 396 H 39.4506 -2.41944 3.39513 0
M  V30 397 H 38.1106 -2.36992 2.21957 0
M  V30 398 H 39.1216 -0.150928 5.1768 0
M  V30 399 H 35.7986 -2.16849 3.56767 0
M  V30 400 H 37.1886 0.375084 6.70852 0
M  V30 401 N 39.9087 -1.5758 0.0250728 0
M  V30 402 C 41.1567 -1.91255 -0.653151 0
M  V30 403 C 41.4777 -0.901691 -1.729 0
M  V30 404 O 40.7477 0.0573785 -1.95816 0
M  V30 405 H 39.3277 -0.705942 -0.244243 0
M  V30 406 H 41.9897 -1.94767 0.0719209 0
M  V30 407 H 41.0857 -2.91752 -1.10847 0
M  V30 408 N 41.3868 0.248026 -1.55636 0
M  V30 409 C 42.6118 0.998028 -1.81808 0
M  V30 410 C 43.0368 1.78207 -0.601979 0
M  V30 411 O 42.3948 1.75653 0.448961 0
M  V30 412 C 42.4428 1.9125 -3.05705 0
M  V30 413 O 41.5468 3.00406 -2.82542 0
M  V30 414 H 40.8878 0.284045 -0.600179 0
M  V30 415 H 43.4178 0.269357 -2.02819 0
M  V30 416 H 43.4278 2.32737 -3.35108 0
M  V30 417 H 42.1028 1.33602 -3.93857 0
M  V30 418 H 40.6798 2.63056 -2.64303 0
M  V30 419 N 42.8649 1.48995 0.513639 0
M  V30 420 C 44.1139 1.57093 1.2651 0
M  V30 421 C 44.4269 0.257091 1.93903 0
M  V30 422 O 45.6329 0.216478 2.70636 0
M  V30 423 C 44.0889 2.77118 2.29638 0
M  V30 424 C 43.6969 4.15209 1.68241 0
M  V30 425 C 45.4409 2.94538 3.05692 0
M  V30 426 C 43.3479 5.26474 2.69406 0
M  V30 427 H 42.2779 0.584876 0.475854 0
M  V30 428 H 44.9289 1.7536 0.540487 0
M  V30 429 H 43.3109 2.52319 3.05207 0
M  V30 430 H 44.4849 4.50094 0.987505 0
M  V30 431 H 42.7999 4.03042 1.04623 0
M  V30 432 H 45.3969 3.74832 3.8132 0
M  V30 433 H 45.7399 2.04614 3.62545 0
M  V30 434 H 46.2729 3.19316 2.37238 0
M  V30 435 H 43.0119 6.18417 2.17351 0
M  V30 436 H 42.5319 4.96058 3.37175 0
M  V30 437 H 44.2109 5.55277 3.32078 0
M  V30 438 N 44.343 -0.763751 1.37857 0
M  V30 439 C 45.573 -1.55067 1.3652 0
M  V30 440 C 45.981 -1.89135 -0.0494227 0
M  V30 441 O 45.324 -1.52529 -1.02375 0
M  V30 442 C 45.386 -2.8838 2.14656 0
M  V30 443 C 45.05 -2.76905 3.63555 0
M  V30 444 C 46.047 -2.4739 4.57268 0
M  V30 445 C 43.732 -2.94676 4.06781 0
M  V30 446 C 45.726 -2.35786 5.92186 0
M  V30 447 C 43.413 -2.82692 5.41782 0
M  V30 448 C 44.411 -2.53289 6.34298 0
M  V30 449 O 44.099 -2.41345 7.66817 0
M  V30 450 H 43.831 -0.486776 0.469069 0
M  V30 451 H 46.385 -0.953812 1.81911 0
M  V30 452 H 44.615 -3.50217 1.63967 0
M  V30 453 H 46.304 -3.49828 2.05852 0
M  V30 454 H 47.07 -2.33339 4.2518 0
M  V30 455 H 42.949 -3.16563 3.35126 0
M  V30 456 H 46.493 -2.12757 6.64365 0
M  V30 457 H 42.39 -2.96314 5.7347 0
M  V30 458 H 43.158 -2.56634 7.77226 0
M  V30 459 N 45.8211 -1.22559 -0.990812 0
M  V30 460 C 47.0701 -1.04553 -1.72486 0
M  V30 461 C 47.3831 0.419349 -1.91052 0
M  V30 462 O 48.5891 0.719121 -2.61803 0
M  V30 463 C 47.0451 -1.82231 -3.10355 0
M  V30 464 C 46.6531 -3.32981 -2.99713 0
M  V30 465 C 48.3971 -1.7268 -3.87791 0
M  V30 466 C 46.3041 -4.03091 -4.32748 0
M  V30 467 H 45.2341 -0.387614 -0.646739 0
M  V30 468 H 47.8851 -1.46429 -1.10593 0
M  V30 469 H 46.2671 -1.33155 -3.72942 0
M  V30 470 H 47.4411 -3.89466 -2.46278 0
M  V30 471 H 45.7561 -3.43231 -2.35758 0
M  V30 472 H 48.3531 -2.22381 -4.86262 0
M  V30 473 H 48.6961 -0.687607 -4.10582 0
M  V30 474 H 49.2291 -2.1931 -3.31885 0
M  V30 475 H 45.9681 -5.07273 -4.15156 0
M  V30 476 H 45.4881 -3.51394 -4.86089 0
M  V30 477 H 47.1671 -4.08804 -5.01486 0
M  V30 478 N 47.2992 1.18797 -1.03562 0
M  V30 479 C 48.7102 1.70322 -0.764676 0
M  V30 480 C 49.0612 1.82708 0.714996 0
M  V30 481 O 48.1862 1.50299 1.55689 0
M  V30 482 C 48.7812 3.09356 -1.38145 0
M  V30 483 C 47.3402 3.58114 -1.15895 0
M  V30 484 C 46.4872 2.34798 -1.4753 0
M  V30 485 H 49.4382 1.03543 -1.20268 0
M  V30 486 H 49.4592 3.72378 -0.781977 0
M  V30 487 H 48.9712 3.00309 -2.45837 0
M  V30 488 H 47.0722 3.72464 -0.100544 0
M  V30 489 H 47.1852 4.4184 -1.8524 0
M  V30 490 H 45.5492 2.38464 -0.894829 0
M  V30 491 H 46.3322 2.28375 -2.56319 0
M  V30 492 N 48.7773 0.814389 1.34928 0
M  V30 493 C 50.0023 0.410097 2.03305 0
M  V30 494 C 50.4273 -0.973464 1.60951 0
M  V30 495 O 49.7853 -1.63185 0.789964 0
M  V30 496 C 49.8333 0.51049 3.56968 0
M  V30 497 O 48.9373 -0.473035 4.09678 0
M  V30 498 H 48.2783 0.170088 0.641846 0
M  V30 499 H 50.8083 1.10244 1.72358 0
M  V30 500 H 50.8183 0.383135 4.06197 0
M  V30 501 H 49.4933 1.51963 3.87144 0
M  V30 502 H 48.0703 -0.305272 3.71648 0
M  V30 503 N 50.2554 -1.46986 0.568584 0
M  V30 504 C 51.4804 -2.07335 0.0520528 0
M  V30 505 C 51.9054 -1.41675 -1.23733 0
M  V30 506 O 51.2634 -0.495623 -1.74394 0
M  V30 507 C 51.3114 -3.60417 -0.11501 0
M  V30 508 O 50.4154 -3.95309 -1.17492 0
M  V30 509 H 49.7564 -0.661597 0.0564385 0
M  V30 510 H 52.2864 -1.88837 0.787507 0
M  V30 511 H 52.2964 -4.06698 -0.325644 0
M  V30 512 H 50.9714 -4.07601 0.826675 0
M  V30 513 H 49.5484 -3.60757 -0.943869 0
M  V30 514 N 51.7335 -0.305618 -1.54608 0
M  V30 515 C 52.9635 0.304333 -2.04346 0
M  V30 516 C 53.3715 1.47715 -1.18224 0
M  V30 517 O 52.7145 1.82591 -0.201577 0
M  V30 518 C 52.7765 0.819031 -3.50046 0
M  V30 519 C 52.4405 -0.22912 -4.56425 0
M  V30 520 C 53.4375 -1.05914 -5.08997 0
M  V30 521 C 51.1225 -0.372148 -5.0092 0
M  V30 522 C 53.1165 -2.01809 -6.04609 0
M  V30 523 C 50.8035 -1.33454 -5.9635 0
M  V30 524 C 51.8015 -2.15599 -6.48079 0
M  V30 525 O 51.4895 -3.10205 -7.41639 0
M  V30 526 H 51.2215 0.0693996 -0.672428 0
M  V30 527 H 53.7755 -0.444548 -2.00532 0
M  V30 528 H 52.0055 1.61852 -3.51199 0
M  V30 529 H 53.6945 1.34537 -3.82955 0
M  V30 530 H 54.4605 -0.959538 -4.75413 0
M  V30 531 H 50.3395 0.257304 -4.60281 0
M  V30 532 H 53.8835 -2.65966 -6.44909 0
M  V30 533 H 49.7805 -1.43485 -6.29351 0
M  V30 534 H 50.5485 -3.05237 -7.59455 0
M  V30 535 N 53.2116 1.57565 -0.0334293 0
M  V30 536 C 54.4576 1.92262 0.645226 0
M  V30 537 C 54.7906 0.910543 1.71531 0
M  V30 538 O 54.0656 -0.066099 1.94388 0
M  V30 539 C 54.3486 3.37422 1.2577 0
M  V30 540 C 54.2016 4.49369 0.196891 0
M  V30 541 C 55.5206 3.82628 2.17449 0
M  V30 542 H 52.6396 0.699171 0.233085 0
M  V30 543 H 55.2816 1.89779 -0.0915694 0
M  V30 544 H 53.4316 3.39669 1.88566 0
M  V30 545 H 55.1036 4.59254 -0.433962 0
M  V30 546 H 53.3466 4.31168 -0.477137 0
M  V30 547 H 54.0176 5.47978 0.665124 0
M  V30 548 H 56.4936 3.82145 1.64634 0
M  V30 549 H 55.3696 4.84883 2.57254 0
M  V30 550 H 55.6306 3.18376 3.0674 0
M  V30 551 N 54.6897 -0.239769 1.55765 0
M  V30 552 C 55.9667 -0.990056 1.68693 0
M  V30 553 C 56.3467 -2.03107 0.5754 0
M  V30 554 O 55.6947 -2.24604 -0.42017 0
M  V30 555 C 55.9047 -1.61696 3.09282 0
M  V30 556 C 57.2527 -2.11613 3.6811 0
M  V30 557 O 58.2767 -1.71624 3.12127 0
M  V30 558 O 57.1357 -2.85057 4.66267 0
M  V30 559 H 54.2297 -0.461299 0.686391 0
M  V30 560 H 56.7757 -0.232991 1.68093 0
M  V30 561 H 55.5477 -0.864357 3.81634 0
M  V30 562 H 55.1707 -2.44005 3.13923 0
M  V30 563 N 56.1678 -1.49265 -0.50573 0
M  V30 564 C 57.3928 -1.62478 -1.28902 0
M  V30 565 C 57.8178 -0.294332 -1.85783 0
M  V30 566 O 57.1758 0.737412 -1.65626 0
M  V30 567 C 57.2238 -2.69268 -2.39848 0
M  V30 568 O 56.3278 -2.28113 -3.43567 0
M  V30 569 H 55.6688 -0.54399 -0.380751 0
M  V30 570 H 58.1988 -1.95421 -0.605952 0
M  V30 571 H 58.2088 -2.91291 -2.85681 0
M  V30 572 H 56.8838 -3.65846 -1.97812 0
M  V30 573 H 55.4608 -2.16401 -3.03685 0
M  V30 574 N 57.6459 0.756429 -1.3826 0
M  V30 575 C 58.5959 1.86069 -1.31766 0
M  V30 576 C 59.5799 1.59621 -0.202483 0
M  V30 577 O 60.7719 1.7149 -0.438211 0
M  V30 578 C 57.9009 3.23742 -1.1422 0
M  V30 579 C 56.9869 3.56091 -2.30348 0
M  V30 580 N 57.3779 3.59517 -3.55783 0
M  V30 581 C 55.6759 3.86341 -2.22838 0
M  V30 582 C 56.3769 3.89052 -4.32451 0
M  V30 583 N 55.3529 4.05736 -3.61772 0
M  V30 584 H 59.1549 1.86992 -2.26741 0
M  V30 585 H 56.6689 0.953643 -1.31451 0
M  V30 586 H 58.6659 4.02761 -1.07652 0
M  V30 587 H 57.3259 3.24073 -0.201763 0
M  V30 588 H 58.3369 3.41347 -3.89491 0
M  V30 589 H 55.0139 3.94404 -1.36937 0
M  V30 590 H 56.4039 3.98349 -5.4108 0
M  V30 591 N 59.124 1.23083 0.984299 0
M  V30 592 C 60.074 0.975749 2.06066 0
M  V30 593 C 61.058 -0.0768251 1.60716 0
M  V30 594 O 62.25 0.134805 1.76486 0
M  V30 595 C 59.379 0.564673 3.38624 0
M  V30 596 C 58.465 1.65244 3.90583 0
M  V30 597 N 58.856 2.88193 4.15666 0
M  V30 598 C 57.154 1.52612 4.19077 0
M  V30 599 C 57.855 3.58593 4.58024 0
M  V30 600 N 56.831 2.86093 4.62225 0
M  V30 601 H 60.633 1.90957 2.23411 0
M  V30 602 H 58.147 1.12963 1.16675 0
M  V30 603 H 60.144 0.36322 4.15315 0
M  V30 604 H 58.804 -0.362147 3.22674 0
M  V30 605 H 59.815 3.24537 4.03604 0
M  V30 606 H 56.492 0.666121 4.12152 0
M  V30 607 H 57.882 4.63974 4.85982 0
M  V30 608 N 60.6021 -1.18246 1.0419 0
M  V30 609 C 61.5121 -2.25574 0.644476 0
M  V30 610 C 62.5281 -1.70845 -0.329826 0
M  V30 611 O 63.7041 -2.00554 -0.184443 0
M  V30 612 C 60.7691 -3.46697 0.014877 0
M  V30 613 C 59.8301 -4.16554 1.03834 0
M  V30 614 C 59.0631 -5.31894 0.438692 0
M  V30 615 O 59.2861 -5.65385 -0.754752 0
M  V30 616 O 58.2201 -5.90459 1.168 0
M  V30 617 H 62.0461 -2.61836 1.53869 0
M  V30 618 H 59.6311 -1.25352 0.812854 0
M  V30 619 H 61.5131 -4.20062 -0.335538 0
M  V30 620 H 60.1881 -3.12255 -0.853138 0
M  V30 621 H 59.0951 -3.45251 1.44057 0
M  V30 622 H 60.4281 -4.54998 1.87716 0
M  V30 623 N 62.0802 -0.821533 -1.34494 0
M  V30 624 C 63.3102 -0.421272 -2.02259 0
M  V30 625 C 63.7182 0.977047 -1.6202 0
M  V30 626 O 63.0612 1.64348 -0.820703 0
M  V30 627 C 63.1232 -0.44231 -3.56769 0
M  V30 628 C 62.7872 -1.79372 -4.20327 0
M  V30 629 C 63.7842 -2.75435 -4.40944 0
M  V30 630 C 61.4692 -2.08182 -4.57127 0
M  V30 631 C 63.4632 -3.98482 -4.97484 0
M  V30 632 C 61.1502 -3.31489 -5.13379 0
M  V30 633 C 62.1482 -4.26457 -5.33501 0
M  V30 634 O 61.8362 -5.47585 -5.88562 0
M  V30 635 H 61.5682 -0.167473 -0.654927 0
M  V30 636 H 64.1222 -1.11073 -1.72777 0
M  V30 637 H 62.3522 0.303836 -3.85505 0
M  V30 638 H 64.0412 -0.0622925 -4.05852 0
M  V30 639 H 64.8072 -2.54473 -4.12878 0
M  V30 640 H 60.6862 -1.35066 -4.4077 0
M  V30 641 H 64.2302 -4.72618 -5.13106 0
M  V30 642 H 60.1272 -3.52316 -5.40873 0
M  V30 643 H 60.8952 -5.49086 -6.06998 0
M  V30 644 N 63.5583 1.46682 -0.576371 0
M  V30 645 C 64.9693 1.86112 -0.148091 0
M  V30 646 C 65.3203 1.48073 1.2872 0
M  V30 647 O 64.4453 0.892656 1.97131 0
M  V30 648 C 65.0403 3.37786 -0.261982 0
M  V30 649 C 63.5993 3.76235 0.111384 0
M  V30 650 C 62.7463 2.70713 -0.60083 0
M  V30 651 H 65.6973 1.37927 -0.78497 0
M  V30 652 H 65.7183 3.77007 0.514364 0
M  V30 653 H 65.2303 3.6544 -1.30671 0
M  V30 654 H 63.3313 3.54198 1.15649 0
M  V30 655 H 63.4443 4.78391 -0.26052 0
M  V30 656 H 61.8083 2.54666 -0.0417783 0
M  V30 657 H 62.5913 3.01208 -1.64708 0
M  V30 658 N 65.0364 0.313813 1.54444 0
M  V30 659 C 65.9994 -0.54379 2.22656 0
M  V30 660 C 66.9994 -1.05124 1.21678 0
M  V30 661 O 68.1894 -0.945225 1.46325 0
M  V30 662 C 65.3214 -1.75427 2.92298 0
M  V30 663 H 66.5144 0.0523599 2.99854 0
M  V30 664 H 64.0674 0.0647834 1.56166 0
M  V30 665 H 64.8024 -2.38991 2.19211 0
M  V30 666 H 64.5874 -1.39791 3.66334 0
M  V30 667 H 66.0774 -2.36325 3.44297 0
M  V30 668 N 66.5145 -1.57545 0.0417849 0
M  V30 669 C 67.4475 -2.06514 -0.970928 0
M  V30 670 C 68.4255 -0.963607 -1.30971 0
M  V30 671 O 69.6095 -1.23486 -1.4242 0
M  V30 672 C 66.7365 -2.4978 -2.28752 0
M  V30 673 C 65.7825 -3.71078 -2.10246 0
M  V30 674 S 66.6155 -5.17158 -1.38952 0
M  V30 675 C 67.7715 -5.6373 -2.71954 0
M  V30 676 H 68.0045 -2.9209 -0.554129 0
M  V30 677 H 65.5375 -1.53459 -0.17024 0
M  V30 678 H 67.4955 -2.75371 -3.04435 0
M  V30 679 H 66.1565 -1.64527 -2.67562 0
M  V30 680 H 65.3495 -3.9924 -3.07609 0
M  V30 681 H 64.9515 -3.45705 -1.42704 0
M  V30 682 H 67.2435 -5.68743 -3.68154 0
M  V30 683 H 68.1865 -6.63086 -2.4844 0
M  V30 684 H 68.5945 -4.91424 -2.77782 0
M  V30 685 N 67.9926 0.231505 -1.5589 0
M  V30 686 C 69.2206 0.974505 -1.82513 0
M  V30 687 C 69.6356 1.78344 -0.619591 0
M  V30 688 O 68.9926 1.77792 0.411848 0
M  V30 689 C 69.0436 1.90007 -3.07538 0
M  V30 690 O 68.7646 1.12385 -4.2344 0
M  V30 691 C 70.2656 2.75779 -3.47075 0
M  V30 692 H 67.4856 0.286065 -0.606966 0
M  V30 693 H 70.0296 0.249739 -2.02969 0
M  V30 694 H 68.1846 2.57891 -2.89086 0
M  V30 695 H 68.5986 1.75125 -4.944 0
M  V30 696 H 70.0726 3.36443 -4.37619 0
M  V30 697 H 70.5496 3.47672 -2.68367 0
M  V30 698 H 71.1556 2.13323 -3.67931 0
M  V30 699 N 69.4707 1.49531 0.497807 0
M  V30 700 C 70.7177 1.59179 1.25173 0
M  V30 701 C 71.0457 0.279932 1.92475 0
M  V30 702 O 70.3007 -0.732383 1.81479 0
M  V30 703 C 70.5997 2.70252 2.33878 0
M  V30 704 C 70.2657 4.11644 1.84012 0
M  V30 705 C 68.9277 4.50121 1.70132 0
M  V30 706 C 71.2797 5.00121 1.46725 0
M  V30 707 C 68.6077 5.74845 1.17348 0
M  V30 708 C 70.9597 6.25366 0.95392 0
M  V30 709 C 69.6237 6.6267 0.801538 0
M  V30 710 H 68.8937 0.582478 0.45804 0
M  V30 711 H 71.5407 1.83373 0.551948 0
M  V30 712 H 69.8457 2.40041 3.09657 0
M  V30 713 H 71.5427 2.74925 2.9192 0
M  V30 714 H 68.1327 3.81274 1.95775 0
M  V30 715 H 72.3167 4.71048 1.56294 0
M  V30 716 H 67.5727 6.02444 1.04264 0
M  V30 717 H 71.7467 6.93301 0.656225 0
M  V30 718 H 69.3737 7.59197 0.390351 0
M  V30 719 N 70.9488 -0.749086 1.3866 0
M  V30 720 C 72.1788 -1.53611 1.38157 0
M  V30 721 C 72.5868 -1.89177 -0.0293595 0
M  V30 722 O 71.9298 -1.53606 -1.00752 0
M  V30 723 C 71.9918 -2.86087 2.17702 0
M  V30 724 C 71.6558 -2.73034 3.66472 0
M  V30 725 C 72.6528 -2.42526 4.59866 0
M  V30 726 C 70.3378 -2.90345 4.09884 0
M  V30 727 C 72.3318 -2.29492 5.94653 0
M  V30 728 C 70.0188 -2.7693 5.4475 0
M  V30 729 C 71.0168 -2.46547 6.36949 0
M  V30 730 O 70.7048 -2.33199 7.69333 0
M  V30 731 H 70.4368 -0.481773 0.474205 0
M  V30 732 H 72.9908 -0.934465 1.82912 0
M  V30 733 H 71.2208 -3.48458 1.67672 0
M  V30 734 H 72.9098 -3.47625 2.09551 0
M  V30 735 H 73.6758 -2.28816 4.27631 0
M  V30 736 H 69.5548 -3.1299 3.38464 0
M  V30 737 H 73.0988 -2.05698 6.66584 0
M  V30 738 H 68.9958 -2.90215 5.76581 0
M  V30 739 H 69.7638 -2.48376 7.79905 0
M  V30 740 N 72.4269 -1.23603 -0.977757 0
M  V30 741 C 73.6519 -1.09735 -1.75991 0
M  V30 742 C 74.0769 0.346858 -1.84874 0
M  V30 743 O 73.4349 1.25093 -1.3123 0
M  V30 744 C 73.4829 -1.73051 -3.16363 0
M  V30 745 O 72.5869 -0.994452 -4.0023 0
M  V30 746 H 71.9279 -0.384476 -0.541364 0
M  V30 747 H 74.4579 -1.6371 -1.2272 0
M  V30 748 H 74.4679 -1.78398 -3.66931 0
M  V30 749 H 73.1429 -2.78137 -3.09213 0
M  V30 750 H 71.7199 -1.01812 -3.58732 0
M  V30 751 N 73.905 1.17692 -1.04816 0
M  V30 752 C 75.316 1.69501 -0.782698 0
M  V30 753 C 75.667 1.83456 0.695577 0
M  V30 754 O 74.792 1.51942 1.54086 0
M  V30 755 C 75.387 3.07874 -1.41419 0
M  V30 756 C 73.946 3.56864 -1.19686 0
M  V30 757 C 73.093 2.3322 -1.50012 0
M  V30 758 H 76.044 1.02262 -1.2136 0
M  V30 759 H 76.065 3.71528 -0.821428 0
M  V30 760 H 75.577 2.97685 -2.49009 0
M  V30 761 H 73.678 3.72337 -0.140043 0
M  V30 762 H 73.791 4.39851 -1.89916 0
M  V30 763 H 72.155 2.37501 -0.920071 0
M  V30 764 H 72.938 2.25644 -2.58727 0
M  V30 765 N 75.3831 0.828654 1.34056 0
M  V30 766 C 76.3461 0.259927 2.27721 0
M  V30 767 C 77.3461 -0.565478 1.50529 0
M  V30 768 O 78.5361 -0.38075 1.69988 0
M  V30 769 C 75.6681 -0.634944 3.34935 0
M  V30 770 H 76.8611 1.0863 2.79534 0
M  V30 771 H 74.4141 0.600951 1.44285 0
M  V30 772 H 75.1491 -1.48416 2.88346 0
M  V30 773 H 74.9341 -0.0444999 3.92075 0
M  V30 774 H 76.4241 -1.02648 4.04788 0
M  V30 775 N 76.8612 -1.46375 0.584142 0
M  V30 776 C 78.1072 -2.02678 0.0703716 0
M  V30 777 C 78.4402 -1.4545 -1.28678 0
M  V30 778 O 77.7152 -0.62014 -1.84349 0
M  V30 779 C 77.9982 -3.60099 0.00614674 0
M  V30 780 C 77.8512 -4.27709 1.3923 0
M  V30 781 C 79.1702 -4.34598 -0.693742 0
M  V30 782 H 76.2892 -0.736504 0.027047 0
M  V30 783 H 78.9312 -1.74501 0.751615 0
M  V30 784 H 77.0812 -3.84236 -0.574009 0
M  V30 785 H 78.7532 -4.14832 2.01773 0
M  V30 786 H 76.9962 -3.87016 1.95962 0
M  V30 787 H 77.6672 -5.36478 1.29982 0
M  V30 788 H 80.1432 -4.15615 -0.200869 0
M  V30 789 H 79.0192 -5.44318 -0.707714 0
M  V30 790 H 79.2802 -4.05759 -1.75533 0
M  V30 791 N 78.3393 -0.321999 -1.54275 0
M  V30 792 C 79.2723 0.58718 -2.20516 0
M  V30 793 C 80.2503 1.11693 -1.18167 0
M  V30 794 O 81.4343 1.18122 -1.46899 0
M  V30 795 C 78.5613 1.80554 -2.86562 0
M  V30 796 C 77.6073 1.40718 -4.02617 0
M  V30 797 S 78.4403 0.445218 -5.33646 0
M  V30 798 C 79.5963 1.6709 -6.03185 0
M  V30 799 H 79.8293 0.0244875 -2.9729 0
M  V30 800 H 77.3623 -0.106087 -1.54035 0
M  V30 801 H 79.3203 2.50462 -3.25237 0
M  V30 802 H 77.9813 2.33942 -2.09595 0
M  V30 803 H 77.1743 2.31501 -4.47687 0
M  V30 804 H 76.7763 0.78782 -3.65608 0
M  V30 805 H 79.0683 2.60856 -6.25268 0
M  V30 806 H 80.0113 1.26239 -6.96756 0
M  V30 807 H 80.4193 1.85716 -5.33076 0
M  V30 808 N 79.8174 1.5752 -0.0501392 0
M  V30 809 C 80.7654 2.12651 0.942459 0
M  V30 810 C 81.7594 1.05807 1.32292 0
M  V30 811 O 82.9654 1.24217 1.3027 0
M  V30 812 H 79.3404 0.679673 0.321789 0
M  V30 813 H 81.3114 2.94951 0.452356 0
M  V30 814 C 80.0604 2.68565 2.20836 0
M  V30 815 H 79.3834 3.50439 1.92439 0
M  V30 816 H 80.8234 3.10761 2.8845 0
M  V30 817 C 79.2824 1.62291 2.95234 0
M  V30 818 O 79.8124 1.03508 3.88135 0
M  V30 819 N 78.0184 1.33836 2.57946 0
M  V30 820 H 77.5654 1.81826 1.82475 0
M  V30 821 H 77.5234 0.629595 3.08032 0
M  V30 822 N 81.2955 -0.223234 1.56011 0
M  V30 823 C 82.5255 -0.963413 1.82762 0
M  V30 824 C 82.9335 -1.78516 0.626804 0
M  V30 825 O 82.2765 -1.78974 -0.414014 0
M  V30 826 C 82.3385 -1.93126 3.0322 0
M  V30 827 C 82.0025 -1.2942 4.38291 0
M  V30 828 C 82.9995 -0.684916 5.15369 0
M  V30 829 C 80.6845 -1.30647 4.85012 0
M  V30 830 C 82.6785 -0.0963971 6.37327 0
M  V30 831 C 80.3655 -0.71411 6.06913 0
M  V30 832 C 81.3635 -0.110123 6.82911 0
M  V30 833 O 81.0515 0.47303 8.02507 0
M  V30 834 H 80.7835 -0.288011 0.611576 0
M  V30 835 H 83.3375 -0.244103 2.03944 0
M  V30 836 H 81.5675 -2.68952 2.77852 0
M  V30 837 H 83.2565 -2.53685 3.16857 0
M  V30 838 H 84.0225 -0.667774 4.80381 0
M  V30 839 H 79.9015 -1.76598 4.25833 0
M  V30 840 H 83.4455 0.375657 6.96588 0
M  V30 841 H 79.3425 -0.728659 6.41374 0
M  V30 842 H 80.1105 0.367186 8.17676 0
M  V30 843 N 82.7736 -1.49793 -0.48987 0
M  V30 844 C 83.9986 -1.63836 -1.27172 0
M  V30 845 C 84.4236 -0.31402 -1.8546 0
M  V30 846 O 83.7816 0.719803 -1.66399 0
M  V30 847 C 83.8296 -2.71797 -2.36978 0
M  V30 848 O 82.9336 -2.31744 -3.41128 0
M  V30 849 H 82.2746 -0.547997 -0.37496 0
M  V30 850 H 84.8046 -1.96053 -0.585191 0
M  V30 851 H 84.8146 -2.94305 -2.82575 0
M  V30 852 H 83.4896 -3.67923 -1.93921 0
M  V30 853 H 82.0666 -2.1961 -3.01373 0
M  V30 854 N 84.2517 0.741722 -1.39055 0
M  V30 855 C 85.5007 1.49656 -1.35225 0
M  V30 856 C 85.8137 1.95533 0.0512708 0
M  V30 857 O 87.0197 2.7067 0.212138 0
M  V30 858 C 85.4757 2.70389 -2.37525 0
M  V30 859 C 85.0837 2.31489 -3.83558 0
M  V30 860 C 86.8277 3.48236 -2.42759 0
M  V30 861 C 84.7347 3.48903 -4.77515 0
M  V30 862 H 83.6647 0.56197 -0.502699 0
M  V30 863 H 86.3157 0.809727 -1.64668 0
M  V30 864 H 84.6977 3.41113 -2.01142 0
M  V30 865 H 85.8717 1.68354 -4.28945 0
M  V30 866 H 84.1867 1.66749 -3.81554 0
M  V30 867 H 86.7837 4.35558 -3.1015 0
M  V30 868 H 87.1267 3.90229 -1.45008 0
M  V30 869 H 87.6597 2.84535 -2.78002 0
M  V30 870 H 84.3987 3.11966 -5.76504 0
M  V30 871 H 83.9187 4.11041 -4.36813 0
M  V30 872 H 85.5977 4.15328 -4.96096 0
M  V30 873 N 85.7298 1.2412 0.971189 0
M  V30 874 C 87.1408 1.07236 1.52831 0
M  V30 875 C 87.4918 -0.357352 1.92918 0
M  V30 876 O 86.6168 -1.24528 1.76979 0
M  V30 877 C 87.2118 1.94043 2.77728 0
M  V30 878 C 85.7708 1.81394 3.29808 0
M  V30 879 C 84.9178 1.89189 2.02738 0
M  V30 880 H 87.8688 1.37648 0.789864 0
M  V30 881 H 87.8898 1.47066 3.5093 0
M  V30 882 H 87.4018 2.98093 2.4852 0
M  V30 883 H 85.5028 0.801634 3.63874 0
M  V30 884 H 85.6158 2.65294 3.98944 0
M  V30 885 H 83.9798 1.32877 2.17292 0
M  V30 886 H 84.7628 2.94812 1.759 0
M  V30 887 N 87.2079 -1.17134 1.05439 0
M  V30 888 C 88.4329 -1.91913 0.786396 0
M  V30 889 C 88.8579 -1.7643 -0.652234 0
M  V30 890 O 88.2159 -1.08372 -1.45345 0
M  V30 891 C 88.2639 -3.40921 1.17497 0
M  V30 892 O 87.3679 -4.11244 0.308589 0
M  V30 893 H 86.7089 -0.598215 0.288158 0
M  V30 894 H 89.2389 -1.48457 1.4079 0
M  V30 895 H 89.2489 -3.91668 1.14281 0
M  V30 896 H 87.9239 -3.5151 2.22292 0
M  V30 897 H 86.5009 -3.70731 0.40157 0
M  V30 898 N 88.686 -0.835752 -1.33615 0
M  V30 899 C 89.634 -0.255238 -2.31195 0
M  V30 900 C 90.628 0.61107 -1.57995 0
M  V30 901 O 91.834 0.500979 -1.72888 0
M  V30 902 H 88.209 -0.0638085 -0.749288 0
M  V30 903 H 90.18 -1.09283 -2.77669 0
M  V30 904 C 88.929 0.55754 -3.43201 0
M  V30 905 H 88.252 -0.0997553 -3.99676 0
M  V30 906 H 89.692 0.929622 -4.13683 0
M  V30 907 C 88.151 1.73515 -2.88781 0
M  V30 908 O 88.681 2.83376 -2.84712 0
M  V30 909 N 86.887 1.55603 -2.4543 0
M  V30 910 H 86.434 0.662354 -2.48939 0
M  V30 911 H 86.392 2.34545 -2.09371 0
M  V30 912 N 90.1641 1.46063 -0.591896 0
M  V30 913 C 91.4101 2.02638 -0.0811191 0
M  V30 914 C 91.7431 1.4613 1.27905 0
M  V30 915 O 91.0181 0.629908 1.84017 0
M  V30 916 C 91.3011 3.60091 -0.0252436 0
M  V30 917 C 91.1541 4.26965 -1.41496 0
M  V30 918 C 92.4731 4.3496 0.670685 0
M  V30 919 H 89.5921 0.73635 -0.0309524 0
M  V30 920 H 92.2341 1.741 -0.760859 0
M  V30 921 H 90.3841 3.84535 0.553624 0
M  V30 922 H 92.0561 4.13756 -2.0397 0
M  V30 923 H 90.2991 3.85971 -1.98011 0
M  V30 924 H 90.9701 5.35781 -1.32825 0
M  V30 925 H 93.4461 4.15716 0.178825 0
M  V30 926 H 92.3221 5.44686 0.678837 0
M  V30 927 H 92.5831 4.06685 1.73379 0
M  V30 928 N 91.6422 0.330177 1.54103 0
M  V30 929 C 92.8702 -0.272179 2.05102 0
M  V30 930 C 93.2852 -1.45267 1.20595 0
M  V30 931 O 92.6422 -1.8094 0.238144 0
M  V30 932 C 92.6932 -0.70023 3.54653 0
M  V30 933 O 92.4142 0.433301 4.35952 0
M  V30 934 C 93.9152 -1.3647 4.21771 0
M  V30 935 H 91.1352 -0.0549159 0.668749 0
M  V30 936 H 93.6792 0.478285 1.98828 0
M  V30 937 H 91.8342 -1.40066 3.61193 0
M  V30 938 H 92.2482 0.0947539 5.24414 0
M  V30 939 H 93.7222 -1.61509 5.27843 0
M  V30 940 H 94.1992 -2.31409 3.73292 0
M  V30 941 H 94.8052 -0.706675 4.19388 0
M  V30 942 N 93.1203 -1.57491 0.0584922 0
M  V30 943 C 94.0683 -2.13148 -0.931168 0
M  V30 944 C 95.0623 -1.06507 -1.31729 0
M  V30 945 O 96.2683 -1.24906 -1.29609 0
M  V30 946 H 92.6433 -0.68137 -0.31818 0
M  V30 947 H 94.6143 -2.95187 -0.436707 0
M  V30 948 C 93.3633 -2.69732 -2.19408 0
M  V30 949 H 92.6863 -3.51454 -1.90578 0
M  V30 950 H 94.1263 -3.12287 -2.86798 0
M  V30 951 C 92.5853 -1.63855 -2.94369 0
M  V30 952 O 93.1153 -1.05565 -3.87581 0
M  V30 953 N 91.3213 -1.35202 -2.57233 0
M  V30 954 H 90.8683 -1.82791 -1.81508 0
M  V30 955 H 90.8263 -0.645922 -3.07693 0
M  V30 956 N 94.5984 0.214957 -1.56127 0
M  V30 957 C 95.5284 1.2695 -1.95974 0
M  V30 958 C 96.5094 1.48539 -0.828868 0
M  V30 959 O 97.6944 1.60611 -1.09168 0
M  V30 960 C 94.8244 2.61794 -2.28214 0
M  V30 961 C 93.7784 2.54851 -3.43853 0
M  V30 962 C 93.1044 3.93785 -3.61715 0
M  V30 963 C 94.4044 2.09065 -4.78632 0
M  V30 964 H 96.0984 0.93846 -2.84312 0
M  V30 965 H 93.6444 0.449996 -1.36788 0
M  V30 966 H 95.5974 3.35731 -2.54682 0
M  V30 967 H 94.3214 2.96599 -1.36736 0
M  V30 968 H 92.9804 1.8337 -3.17444 0
M  V30 969 H 92.6284 4.25908 -2.67602 0
M  V30 970 H 92.3284 3.90019 -4.39498 0
M  V30 971 H 93.8524 4.69374 -3.90539 0
M  V30 972 H 95.2664 2.7275 -5.04262 0
M  V30 973 H 93.6634 2.16346 -5.59745 0
M  V30 974 H 94.7334 1.04315 -4.73547 0
M  V30 975 N 96.0765 1.50051 0.48192 0
M  V30 976 C 96.9865 1.7089 1.60728 0
M  V30 977 C 98.0025 0.591788 1.63627 0
M  V30 978 O 99.1785 0.868817 1.81696 0
M  V30 979 C 96.2435 1.78855 2.97005 0
M  V30 980 C 95.3045 3.02537 3.04581 0
M  V30 981 C 94.5375 3.10112 4.34357 0
M  V30 982 O 94.7605 2.24765 5.24249 0
M  V30 983 O 93.6945 4.02747 4.47301 0
M  V30 984 H 97.5205 2.66264 1.46072 0
M  V30 985 H 95.1055 1.34018 0.660264 0
M  V30 986 H 96.9875 1.86336 3.77964 0
M  V30 987 H 95.6625 0.866628 3.11883 0
M  V30 988 H 94.5695 3.00563 2.22739 0
M  V30 989 H 95.9025 3.94272 2.94636 0
M  V30 990 N 97.5546 -0.734337 1.39446 0
M  V30 991 C 98.8026 -1.49096 1.36436 0
M  V30 992 C 99.1236 -1.94961 -0.0388255 0
M  V30 993 O 98.3936 -1.69033 -0.990191 0
M  V30 994 H 96.9736 -0.5531 0.502085 0
M  V30 995 H 99.6356 -0.871725 1.74319 0
M  V30 996 H 98.7316 -2.37276 2.02747 0
M  V30 997 N 99.0327 -1.24633 -0.964593 0
M  V30 998 C 100.281 -1.08573 -1.70459 0
M  V30 999 C 100.602 0.375655 -1.91347 0
M  V30 1000 O 99.8717 1.26779 -1.49345 0
M  V30 1001 H 98.4517 -0.398784 -0.631649 0
M  V30 1002 H 101.114 -1.56601 -1.16026 0
M  V30 1003 H 100.21 -1.58623 -2.68785 0
M  V30 1004 N 100.511 1.16574 -1.06058 0
M  V30 1005 C 101.922 1.68662 -0.800632 0
M  V30 1006 C 102.273 1.84184 0.67608 0
M  V30 1007 O 101.398 1.53568 1.52466 0
M  V30 1008 C 101.993 3.06356 -1.44676 0
M  V30 1009 C 100.552 3.55575 -1.23465 0
M  V30 1010 C 99.6988 2.31616 -1.52477 0
M  V30 1011 H 102.65 1.00969 -1.22438 0
M  V30 1012 H 102.671 3.70636 -0.860788 0
M  V30 1013 H 102.183 2.95027 -2.52152 0
M  V30 1014 H 100.284 3.72167 -0.179527 0
M  V30 1015 H 100.397 4.37812 -1.94571 0
M  V30 1016 H 98.7608 2.36512 -0.945209 0
M  V30 1017 H 99.5438 2.22887 -2.61106 0
M  V30 1018 N 101.989 0.842826 1.3317 0
M  V30 1019 C 103.237 0.439577 1.97262 0
M  V30 1020 C 103.558 -1.00548 1.67078 0
M  V30 1021 O 102.828 -1.70098 0.971779 0
M  V30 1022 H 101.408 0.159558 0.72976 0
M  V30 1023 H 104.07 1.07665 1.62463 0
M  V30 1024 H 103.166 0.574886 3.0676 0
M  V30 1025 N 103.467 -1.45747 0.599634 0
M  V30 1026 C 104.883 -1.57424 0.26264 0
M  V30 1027 C 105.083 -1.59222 -1.23493 0
M  V30 1028 O 104.139 -1.51825 -2.01756 0
M  V30 1029 C 105.452 -2.86061 0.926795 0
M  V30 1030 C 107 -2.99722 0.901967 0
M  V30 1031 C 107.475 -4.31119 1.54598 0
M  V30 1032 N 108.966 -4.37858 1.5111 0
M  V30 1033 C 109.701 -5.3818 1.97863 0
M  V30 1034 N 109.197 -6.45083 2.52666 0
M  V30 1035 N 110.99 -5.29487 1.88679 0
M  V30 1036 H 103.141 -1.42823 1.57211 0
M  V30 1037 H 105.404 -0.68235 0.658105 0
M  V30 1038 H 105.11 -2.90605 1.98095 0
M  V30 1039 H 104.984 -3.74563 0.445238 0
M  V30 1040 H 107.371 -2.9475 -0.143617 0
M  V30 1041 H 107.452 -2.12652 1.42171 0
M  V30 1042 H 107.096 -4.36849 2.59085 0
M  V30 1043 H 107.026 -5.16992 1.00132 0
M  V30 1044 H 109.517 -3.61209 1.11068 0
M  V30 1045 H 109.83 -7.17869 2.86155 0
M  V30 1046 H 108.175 -6.45856 2.56701 0
M  V30 1047 H 111.366 -4.44877 1.4561 0
M  V30 1048 H 111.539 -6.07524 2.25429 0
M  V30 1049 N 104.945 -0.338344 -1.53925 0
M  V30 1050 C 105.877 0.555117 -2.22376 0
M  V30 1051 C 106.89 1.06812 -1.22862 0
M  V30 1052 O 108.079 0.979163 -1.49247 0
M  V30 1053 C 105.179 1.77609 -2.88631 0
M  V30 1054 C 104.352 1.39927 -4.14414 0
M  V30 1055 C 103.411 2.47936 -4.64127 0
M  V30 1056 O 102.437 2.11461 -5.28463 0
M  V30 1057 N 103.639 3.79107 -4.39612 0
M  V30 1058 H 106.404 -0.0310778 -2.99684 0
M  V30 1059 H 103.965 -0.162226 -1.61085 0
M  V30 1060 H 105.957 2.49287 -3.18807 0
M  V30 1061 H 104.527 2.26978 -2.14941 0
M  V30 1062 H 103.747 0.513481 -3.90841 0
M  V30 1063 H 105.035 1.12341 -4.96243 0
M  V30 1064 H 104.433 4.11531 -3.88148 0
M  V30 1065 H 102.99 4.4697 -4.74406 0
M  V30 1066 N 106.423 1.57458 -0.0668435 0
M  V30 1067 C 107.651 1.97624 0.612565 0
M  V30 1068 C 108.066 0.94502 1.63447 0
M  V30 1069 O 107.423 -0.0689276 1.8237 0
M  V30 1070 C 107.474 3.37869 1.28555 0
M  V30 1071 O 107.195 4.3704 0.304557 0
M  V30 1072 C 108.696 3.92882 2.05325 0
M  V30 1073 H 105.916 0.650045 0.166381 0
M  V30 1074 H 108.46 2.04035 -0.137782 0
M  V30 1075 H 106.615 3.3256 1.98702 0
M  V30 1076 H 107.029 5.18565 0.786779 0
M  V30 1077 H 108.503 4.93247 2.47812 0
M  V30 1078 H 108.98 3.29156 2.9078 0
M  V30 1079 H 109.586 4.01577 1.40056 0
M  V30 1080 N 107.901 -0.206675 1.56239 0
M  V30 1081 C 109.129 -0.945345 1.8404 0
M  V30 1082 C 109.544 -1.77336 0.647885 0
M  V30 1083 O 108.901 -1.78425 -0.383511 0
M  V30 1084 C 108.952 -1.8509 3.10522 0
M  V30 1085 O 108.673 -1.05634 4.25174 0
M  V30 1086 C 110.174 -2.70222 3.51418 0
M  V30 1087 H 107.394 -0.276372 0.61144 0
M  V30 1088 H 109.938 -0.217417 2.03341 0
M  V30 1089 H 108.093 -2.53259 2.93153 0
M  V30 1090 H 108.507 -1.67238 4.97124 0
M  V30 1091 H 109.981 -3.29438 4.42916 0
M  V30 1092 H 110.458 -3.43358 2.73864 0
M  V30 1093 H 111.064 -2.07443 3.71278 0
M  V30 1094 N 109.379 -1.50304 -0.473955 0
M  V30 1095 C 110.604 -1.65175 -1.25427 0
M  V30 1096 C 111.029 -0.333673 -1.85117 0
M  V30 1097 O 110.387 0.702114 -1.67153 0
M  V30 1098 C 110.435 -2.74295 -2.34082 0
M  V30 1099 O 109.539 -2.35349 -3.38651 0
M  V30 1100 H 108.88 -0.551944 -0.369126 0
M  V30 1101 H 111.41 -1.96662 -0.564364 0
M  V30 1102 H 111.42 -2.97285 -2.79438 0
M  V30 1103 H 110.095 -3.69959 -1.90008 0
M  V30 1104 H 108.672 -2.22794 -2.99027 0
M  V30 1105 N 110.857 0.726932 -1.39834 0
M  V30 1106 C 112.268 1.30558 -1.3346 0
M  V30 1107 C 112.619 1.962 -0.00273003 0
M  V30 1108 O 111.744 1.96826 0.899371 0
M  V30 1109 C 112.339 2.37404 -2.41713 0
M  V30 1110 C 110.898 2.90921 -2.38835 0
M  V30 1111 C 110.045 1.64578 -2.2318 0
M  V30 1112 H 112.996 0.523862 -1.49804 0
M  V30 1113 H 113.017 3.17984 -2.08966 0
M  V30 1114 H 112.529 1.89599 -3.38635 0
M  V30 1115 H 110.63 3.42985 -1.45575 0
M  V30 1116 H 110.743 3.43487 -3.33997 0
M  V30 1117 H 109.107 1.89219 -1.70494 0
M  V30 1118 H 109.89 1.18814 -3.22084 0
M  V30 1119 N 112.336 1.25143 0.95797 0
M  V30 1120 C 113.284 1.05019 2.07542 0
M  V30 1121 C 114.278 -0.0178751 1.69391 0
M  V30 1122 O 115.484 0.137472 1.79474 0
M  V30 1123 H 111.859 0.32265 0.679265 0
M  V30 1124 H 113.83 1.99759 2.21673 0
M  V30 1125 C 112.579 0.682074 3.40944 0
M  V30 1126 H 111.902 1.49573 3.70767 0
M  V30 1127 H 113.342 0.580945 4.20001 0
M  V30 1128 C 111.801 -0.611608 3.31302 0
M  V30 1129 O 112.331 -1.65465 3.66038 0
M  V30 1130 N 110.537 -0.595982 2.84423 0
M  V30 1131 H 110.084 0.253192 2.56353 0
M  V30 1132 H 110.042 -1.46173 2.78354 0
M  V30 1133 N 113.814 -1.1601 1.06675 0
M  V30 1134 C 115.06 -1.86909 0.786945 0
M  V30 1135 C 115.393 -1.81717 -0.685018 0
M  V30 1136 O 114.668 -1.23551 -1.50218 0
M  V30 1137 C 114.951 -3.36313 1.28707 0
M  V30 1138 C 114.804 -3.50175 2.82308 0
M  V30 1139 C 116.123 -4.3084 0.898071 0
M  V30 1140 H 113.242 -0.678677 0.287343 0
M  V30 1141 H 115.884 -1.36336 1.32334 0
M  V30 1142 H 114.034 -3.79513 0.830768 0
M  V30 1143 H 115.706 -3.15886 3.36175 0
M  V30 1144 H 113.949 -2.91959 3.20847 0
M  V30 1145 H 114.62 -4.55116 3.12368 0
M  V30 1146 H 117.096 -3.95561 1.29114 0
M  V30 1147 H 115.972 -5.33876 1.27543 0
M  V30 1148 H 116.233 -4.41662 -0.196651 0
M  V30 1149 N 115.292 -0.849877 -1.32721 0
M  V30 1150 C 116.222 -0.306308 -2.31482 0
M  V30 1151 C 117.203 0.591952 -1.59468 0
M  V30 1152 O 118.388 0.513199 -1.87296 0
M  V30 1153 C 115.518 0.510204 -3.43532 0
M  V30 1154 C 114.472 -0.293209 -4.26994 0
M  V30 1155 C 113.798 0.647743 -5.30762 0
M  V30 1156 C 115.098 -1.51634 -4.99804 0
M  V30 1157 H 116.792 -1.13153 -2.77195 0
M  V30 1158 H 114.338 -0.545553 -1.33266 0
M  V30 1159 H 116.291 0.900856 -4.11658 0
M  V30 1160 H 115.015 1.36874 -2.96535 0
M  V30 1161 H 113.674 -0.665555 -3.60508 0
M  V30 1162 H 113.322 1.50299 -4.8002 0
M  V30 1163 H 113.022 0.11422 -5.87489 0
M  V30 1164 H 114.546 1.03567 -6.01753 0
M  V30 1165 H 115.96 -1.19824 -5.60638 0
M  V30 1166 H 114.357 -1.98745 -5.66234 0
M  V30 1167 H 115.427 -2.28018 -4.27943 0
M  V30 1168 N 116.77 1.45427 -0.607355 0
M  V30 1169 C 118.016 2.03097 -0.111035 0
M  V30 1170 C 118.371 1.46735 1.24445 0
M  V30 1171 O 117.664 0.632478 1.8086 0
M  V30 1172 C 117.858 3.57398 -0.0129263 0
M  V30 1173 C 117.687 4.28726 -1.35735 0
M  V30 1174 C 116.457 4.66659 -1.93798 0
M  V30 1175 C 118.655 4.60699 -2.28607 0
M  V30 1176 N 116.637 5.22845 -3.21723 0
M  V30 1177 C 118.008 5.17716 -3.41131 0
M  V30 1178 C 120.063 4.42638 -2.27982 0
M  V30 1179 C 118.766 5.58576 -4.53194 0
M  V30 1180 C 120.792 4.84531 -3.39093 0
M  V30 1181 C 120.154 5.4164 -4.50339 0
M  V30 1182 H 116.253 0.777476 -0.083994 0
M  V30 1183 H 118.837 1.77249 -0.805655 0
M  V30 1184 H 117.008 3.82907 0.650914 0
M  V30 1185 H 118.74 4.01722 0.490033 0
M  V30 1186 H 115.495 4.50207 -1.47007 0
M  V30 1187 H 115.919 5.55438 -3.87063 0
M  V30 1188 H 120.561 3.97798 -1.43235 0
M  V30 1189 H 118.279 6.02382 -5.38667 0
M  V30 1190 H 121.865 4.72289 -3.39757 0
M  V30 1191 H 120.745 5.73461 -5.34895 0
M  V30 1192 N 118.248 0.346503 1.53744 0
M  V30 1193 C 119.659 -0.136779 1.86198 0
M  V30 1194 C 120.01 -1.49749 1.26766 0
M  V30 1195 O 119.135 -2.08417 0.582355 0
M  V30 1196 C 119.73 -0.254966 3.37839 0
M  V30 1197 C 118.289 -0.682482 3.70161 0
M  V30 1198 C 117.436 0.181981 2.76702 0
M  V30 1199 H 120.387 0.565994 1.48264 0
M  V30 1200 H 120.408 -1.08195 3.64793 0
M  V30 1201 H 119.92 0.735526 3.81066 0
M  V30 1202 H 118.021 -1.68189 3.3248 0
M  V30 1203 H 118.134 -0.470326 4.76786 0
M  V30 1204 H 116.498 -0.34615 2.52337 0
M  V30 1205 H 117.281 1.16966 3.2276 0
M  V30 1206 N 119.726 -1.57421 0.075193 0
M  V30 1207 C 120.954 -1.97946 -0.602076 0
M  V30 1208 C 121.369 -0.953674 -1.62943 0
M  V30 1209 O 120.726 0.0592551 -1.82404 0
M  V30 1210 C 120.777 -3.38546 -1.26762 0
M  V30 1211 O 120.498 -4.37195 -0.281376 0
M  V30 1212 C 121.999 -3.93966 -2.03239 0
M  V30 1213 H 119.219 -0.650918 -0.162931 0
M  V30 1214 H 121.763 -2.03959 0.148601 0
M  V30 1215 H 119.918 -3.33609 -1.96936 0
M  V30 1216 H 120.332 -5.18975 -0.759267 0
M  V30 1217 H 121.806 -4.94555 -2.45193 0
M  V30 1218 H 122.283 -3.30693 -2.8903 0
M  V30 1219 H 122.889 -4.02315 -1.37924 0
M  V30 1220 N 121.204 0.198386 -1.56346 0
M  V30 1221 C 122.615 0.763358 -1.70381 0
M  V30 1222 C 122.966 1.83995 -0.681203 0
M  V30 1223 O 122.091 2.15785 0.16305 0
M  V30 1224 C 122.686 1.39143 -3.08909 0
M  V30 1225 C 121.245 1.90352 -3.2472 0
M  V30 1226 C 120.392 0.772233 -2.6633 0
M  V30 1227 H 123.343 -0.0266377 -1.58678 0
M  V30 1228 H 123.364 2.26076 -3.06055 0
M  V30 1229 H 122.876 0.607638 -3.83314 0
M  V30 1230 H 120.977 2.71461 -2.55225 0
M  V30 1231 H 121.09 2.06757 -4.3219 0
M  V30 1232 H 119.454 1.18566 -2.2542 0
M  V30 1233 H 120.237 0.00073556 -3.433 0
M  V30 1234 N 122.682 1.50554 0.465978 0
M  V30 1235 C 123.93 1.61479 1.21528 0
M  V30 1236 C 124.251 0.319596 1.92363 0
M  V30 1237 O 123.521 -0.663194 1.84333 0
M  V30 1238 H 122.101 0.595055 0.451573 0
M  V30 1239 H 124.763 1.87355 0.53704 0
M  V30 1240 H 123.859 2.42846 1.96042 0
M  V30 1241 N 124.16 -0.719506 1.40217 0
M  V30 1242 C 125.11 -1.8251 1.36653 0
M  V30 1243 C 126.094 -1.59028 0.244732 0
M  V30 1244 O 127.286 -1.70268 0.483524 0
M  V30 1245 C 124.415 -3.20599 1.22763 0
M  V30 1246 C 123.501 -3.49858 2.39708 0
M  V30 1247 N 123.892 -3.49957 3.6519 0
M  V30 1248 C 122.19 -3.80297 2.33002 0
M  V30 1249 C 122.891 -3.77449 4.42614 0
M  V30 1250 N 121.867 -3.96002 3.72402 0
M  V30 1251 H 125.669 -1.80914 2.31619 0
M  V30 1252 H 123.183 -0.918455 1.33933 0
M  V30 1253 H 125.18 -3.99766 1.18292 0
M  V30 1254 H 123.84 -3.23424 0.287614 0
M  V30 1255 H 124.851 -3.309 3.98404 0
M  V30 1256 H 121.528 -3.90635 1.47346 0
M  V30 1257 H 122.918 -3.83863 5.51451 0
M  V30 1258 N 125.638 -1.25649 -0.95132 0
M  V30 1259 C 126.568 -1.08808 -2.06599 0
M  V30 1260 C 127.549 0.00382547 -1.701 0
M  V30 1261 O 128.734 -0.166325 -1.93486 0
M  V30 1262 C 125.864 -0.709542 -3.39975 0
M  V30 1263 C 124.818 -1.75206 -3.90496 0
M  V30 1264 C 124.144 -1.22811 -5.20405 0
M  V30 1265 C 125.444 -3.15153 -4.16504 0
M  V30 1266 H 127.138 -2.02048 -2.20946 0
M  V30 1267 H 124.684 -0.972835 -1.06169 0
M  V30 1268 H 126.637 -0.578649 -4.17408 0
M  V30 1269 H 125.361 0.258556 -3.25575 0
M  V30 1270 H 124.02 -1.87145 -3.15234 0
M  V30 1271 H 123.668 -0.250145 -5.02378 0
M  V30 1272 H 123.368 -1.92492 -5.55176 0
M  V30 1273 H 124.892 -1.10968 -6.00432 0
M  V30 1274 H 126.306 -3.06349 -4.84586 0
M  V30 1275 H 124.703 -3.82333 -4.62538 0
M  V30 1276 H 125.773 -3.61966 -3.22658 0
M  V30 1277 N 127.117 1.15442 -1.07289 0
M  V30 1278 C 128.342 1.90638 -0.816828 0
M  V30 1279 C 128.767 1.77445 0.624083 0
M  V30 1280 O 128.125 1.10671 1.43602 0
M  V30 1281 C 128.173 3.39008 -1.22906 0
M  V30 1282 O 127.277 4.10701 -0.373975 0
M  V30 1283 H 126.618 0.593555 -0.297638 0
M  V30 1284 H 129.148 1.46198 -1.43134 0
M  V30 1285 H 129.158 3.89801 -1.20497 0
M  V30 1286 H 127.833 3.47929 -2.27856 0
M  V30 1287 H 126.41 3.70046 -0.460499 0
M  V30 1288 N 128.595 0.856903 1.32268 0
M  V30 1289 C 130.006 0.515711 1.79436 0
M  V30 1290 C 130.357 -0.966586 1.70738 0
M  V30 1291 O 129.482 -1.75409 1.26731 0
M  V30 1292 C 130.077 0.929335 3.25805 0
M  V30 1293 C 128.636 0.640006 3.70919 0
M  V30 1294 C 127.783 1.12784 2.53328 0
M  V30 1295 H 130.734 1.04389 1.19535 0
M  V30 1296 H 130.755 0.246633 3.797 0
M  V30 1297 H 130.267 2.00821 3.32103 0
M  V30 1298 H 128.368 -0.428051 3.70133 0
M  V30 1299 H 128.481 1.20788 4.63624 0
M  V30 1300 H 126.845 0.548033 2.48734 0
M  V30 1301 H 127.628 2.21387 2.62379 0
M  V30 1302 N 130.073 -1.45103 0.615059 0
M  V30 1303 C 131.003 -2.33339 -0.0865619 0
M  V30 1304 C 131.984 -1.4727 -0.851209 0
M  V30 1305 O 133.169 -1.76026 -0.820281 0
M  V30 1306 C 130.299 -3.30095 -1.07956 0
M  V30 1307 C 129.253 -4.25858 -0.427628 0
M  V30 1308 C 128.579 -5.12361 -1.5294 0
M  V30 1309 C 129.879 -5.18165 0.655944 0
M  V30 1310 H 131.573 -2.92254 0.650224 0
M  V30 1311 H 129.119 -1.40532 0.314138 0
M  V30 1312 H 131.072 -3.90698 -1.57901 0
M  V30 1313 H 129.796 -2.69355 -1.84703 0
M  V30 1314 H 128.455 -3.66564 0.0510292 0
M  V30 1315 H 128.103 -4.47984 -2.28734 0
M  V30 1316 H 127.803 -5.77238 -1.09865 0
M  V30 1317 H 129.327 -5.75833 -2.03098 0
M  V30 1318 H 130.741 -5.72796 0.240257 0
M  V30 1319 H 129.138 -5.91559 1.00888 0
M  V30 1320 H 130.208 -4.60144 1.52957 0
M  V30 1321 N 131.551 -0.354651 -1.53558 0
M  V30 1322 C 132.797 0.238797 -2.01389 0
M  V30 1323 C 133.13 1.49309 -1.2418 0
M  V30 1324 O 132.405 1.91638 -0.332457 0
M  V30 1325 C 132.688 0.541771 -3.56001 0
M  V30 1326 C 132.541 -0.725388 -4.43912 0
M  V30 1327 C 133.86 1.34685 -4.18984 0
M  V30 1328 H 130.979 0.0853177 -0.732045 0
M  V30 1329 H 133.621 -0.477384 -1.83905 0
M  V30 1330 H 131.771 1.15189 -3.71031 0
M  V30 1331 H 133.443 -1.36313 -4.407 0
M  V30 1332 H 131.686 -1.34801 -4.12324 0
M  V30 1333 H 132.357 -0.468505 -5.50008 0
M  V30 1334 H 134.833 0.830837 -4.07721 0
M  V30 1335 H 133.709 1.52759 -5.27215 0
M  V30 1336 H 133.97 2.35221 -3.74331 0
M  V30 1337 N 133.029 1.57378 -0.0835403 0
M  V30 1338 C 134.275 1.94217 0.583733 0
M  V30 1339 C 134.608 0.964653 1.68547 0
M  V30 1340 O 133.883 -0.00422258 1.945 0
M  V30 1341 C 134.166 3.41253 1.14972 0
M  V30 1342 C 134.019 4.49768 0.0538277 0
M  V30 1343 C 135.338 3.89352 2.05166 0
M  V30 1344 H 132.457 0.706233 0.210724 0
M  V30 1345 H 135.099 1.89392 -0.1519 0
M  V30 1346 H 133.249 3.45496 1.77665 0
M  V30 1347 H 134.921 4.57641 -0.579851 0
M  V30 1348 H 133.164 4.29432 -0.614068 0
M  V30 1349 H 133.835 5.49817 0.490452 0
M  V30 1350 H 136.311 3.87189 1.52393 0
M  V30 1351 H 135.187 4.92822 2.41698 0
M  V30 1352 H 135.448 3.27973 2.96456 0
M  V30 1353 N 134.507 -0.190092 1.56449 0
M  V30 1354 C 135.457 -1.23977 1.91347 0
M  V30 1355 C 136.441 -1.40747 0.779693 0
M  V30 1356 O 137.633 -1.43033 1.04262 0
M  V30 1357 C 134.762 -2.58347 2.26079 0
M  V30 1358 C 133.848 -2.4535 3.45925 0
M  V30 1359 N 134.239 -2.02039 4.63696 0
M  V30 1360 C 132.537 -2.76229 3.50162 0
M  V30 1361 C 133.238 -2.01053 5.4585 0
M  V30 1362 N 132.214 -2.42747 4.8639 0
M  V30 1363 H 136.016 -0.896318 2.79899 0
M  V30 1364 H 133.53 -0.398496 1.57435 0
M  V30 1365 H 135.527 -3.34173 2.49267 0
M  V30 1366 H 134.187 -2.93512 1.38856 0
M  V30 1367 H 135.198 -1.7267 4.88268 0
M  V30 1368 H 131.875 -3.15556 2.73369 0
M  V30 1369 H 133.265 -1.69426 6.50188 0
M  V30 1370 N 135.985 -1.50799 -0.457987 0
M  V30 1371 C 137.401 -1.38515 -0.792819 0
M  V30 1372 C 137.601 -0.451409 -1.96379 0
M  V30 1373 O 136.657 0.10112 -2.52297 0
M  V30 1374 C 137.97 -2.80149 -1.09258 0
M  V30 1375 C 139.518 -2.89156 -1.19825 0
M  V30 1376 C 139.993 -4.31651 -1.53106 0
M  V30 1377 N 141.484 -4.34662 -1.60072 0
M  V30 1378 C 142.219 -5.41928 -1.87354 0
M  V30 1379 N 141.715 -6.59384 -2.12568 0
M  V30 1380 N 143.508 -5.29385 -1.88965 0
M  V30 1381 H 135.659 -2.10073 0.313511 0
M  V30 1382 H 137.922 -0.944803 0.0777862 0
M  V30 1383 H 137.628 -3.50374 -0.305084 0
M  V30 1384 H 137.502 -3.18204 -2.02549 0
M  V30 1385 H 139.889 -2.19141 -1.97639 0
M  V30 1386 H 139.97 -2.54626 -0.244821 0
M  V30 1387 H 139.614 -5.02208 -0.758266 0
M  V30 1388 H 139.544 -4.63678 -2.49621 0
M  V30 1389 H 142.035 -3.49973 -1.42573 0
M  V30 1390 H 142.348 -7.36934 -2.32696 0
M  V30 1391 H 140.693 -6.62535 -2.09933 0
M  V30 1392 H 143.884 -4.36616 -1.68772 0
M  V30 1393 H 144.057 -6.13066 -2.09891 0
M  V30 1394 N 137.463 0.71206 -1.40597 0
M  V30 1395 C 138.395 1.83704 -1.37061 0
M  V30 1396 C 139.408 1.60453 -0.275426 0
M  V30 1397 O 140.597 1.70262 -0.53602 0
M  V30 1398 C 137.697 3.20172 -1.11099 0
M  V30 1399 C 136.87 3.7059 -2.3234 0
M  V30 1400 C 135.929 4.85681 -2.02485 0
M  V30 1401 O 134.955 4.9815 -2.75382 0
M  V30 1402 N 136.157 5.71735 -1.00497 0
M  V30 1403 H 138.922 1.87235 -2.34016 0
M  V30 1404 H 136.483 0.893739 -1.34996 0
M  V30 1405 H 138.475 3.94768 -0.891064 0
M  V30 1406 H 137.045 3.11767 -0.227989 0
M  V30 1407 H 136.265 2.87085 -2.7014 0
M  V30 1408 H 137.553 4.01011 -3.13157 0
M  V30 1409 H 136.951 5.64275 -0.401298 0
M  V30 1410 H 135.508 6.463 -0.844942 0
M  V30 1411 N 138.941 1.26152 0.944643 0
M  V30 1412 C 139.871 1.09902 2.06019 0
M  V30 1413 C 140.852 0.00519538 1.70099 0
M  V30 1414 O 142.037 0.176583 1.93396 0
M  V30 1415 C 139.167 0.727562 3.39594 0
M  V30 1416 C 138.121 1.77274 3.89561 0
M  V30 1417 C 137.447 1.25569 5.19747 0
M  V30 1418 C 138.747 3.17357 4.14827 0
M  V30 1419 H 140.441 2.03217 2.19871 0
M  V30 1420 H 137.987 0.978452 1.05652 0
M  V30 1421 H 139.94 0.600777 4.17095 0
M  V30 1422 H 138.664 -0.241287 3.25707 0
M  V30 1423 H 137.323 1.88814 3.14237 0
M  V30 1424 H 136.971 0.276783 5.02238 0
M  V30 1425 H 136.671 1.95433 5.54148 0
M  V30 1426 H 138.195 1.1415 5.99835 0
M  V30 1427 H 139.609 3.08914 4.82954 0
M  V30 1428 H 138.006 3.84781 4.60504 0
M  V30 1429 H 139.076 3.63673 3.20734 0
M  V30 1430 N 140.419 -1.14872 1.07899 0
M  V30 1431 C 141.644 -1.90202 0.826926 0
M  V30 1432 C 142.069 -1.77774 -0.614664 0
M  V30 1433 O 141.427 -1.11431 -1.43013 0
M  V30 1434 C 141.475 -3.38352 1.24702 0
M  V30 1435 O 140.579 -4.10497 0.39575 0
M  V30 1436 H 139.92 -0.591968 0.300782 0
M  V30 1437 H 142.45 -1.45437 1.43907 0
M  V30 1438 H 142.46 -3.89156 1.22563 0
M  V30 1439 H 141.135 -3.46715 2.29698 0
M  V30 1440 H 139.712 -3.69796 0.480117 0
M  V30 1441 N 141.898 -0.863906 -1.31812 0
M  V30 1442 C 142.848 -0.286898 -2.26188 0
M  V30 1443 C 143.832 0.572577 -1.50367 0
M  V30 1444 O 145.024 0.420447 -1.71934 0
M  V30 1445 C 142.153 0.515849 -3.39402 0
M  V30 1446 C 141.239 -0.356531 -4.22599 0
M  V30 1447 N 141.63 -1.44716 -4.84656 0
M  V30 1448 C 139.928 -0.147898 -4.45755 0
M  V30 1449 C 140.629 -1.98462 -5.46798 0
M  V30 1450 N 139.605 -1.28247 -5.28255 0
M  V30 1451 H 143.407 -1.12055 -2.717 0
M  V30 1452 H 140.921 -0.711012 -1.46008 0
M  V30 1453 H 142.918 0.945701 -4.06032 0
M  V30 1454 H 141.578 1.34718 -2.95434 0
M  V30 1455 H 142.589 -1.83008 -4.84488 0
M  V30 1456 H 139.266 0.647973 -4.12441 0
M  V30 1457 H 140.656 -2.89932 -6.06126 0
M  V30 1458 N 143.376 1.44774 -0.622745 0
M  V30 1459 C 144.306 2.33382 0.0741861 0
M  V30 1460 C 145.287 1.47719 0.843387 0
M  V30 1461 O 146.472 1.76458 0.810934 0
M  V30 1462 C 143.602 3.30663 1.06204 0
M  V30 1463 C 142.556 4.26079 0.405037 0
M  V30 1464 C 141.882 5.13165 1.5022 0
M  V30 1465 C 143.182 5.1781 -0.683414 0
M  V30 1466 H 144.876 2.91905 -0.665713 0
M  V30 1467 H 142.422 1.40363 -0.321587 0
M  V30 1468 H 144.375 3.9153 1.55827 0
M  V30 1469 H 143.099 2.70331 1.83272 0
M  V30 1470 H 141.758 3.66532 -0.0704683 0
M  V30 1471 H 141.406 4.49191 2.26355 0
M  V30 1472 H 141.106 5.77812 1.06803 0
M  V30 1473 H 142.63 5.76902 2.00041 0
M  V30 1474 H 144.044 5.72661 -0.270631 0
M  V30 1475 H 142.441 5.91015 -1.04023 0
M  V30 1476 H 143.511 4.59326 -1.55395 0
M  V30 1477 N 144.854 0.36279 1.53368 0
M  V30 1478 C 146.084 -0.228281 2.05335 0
M  V30 1479 C 146.492 -1.43226 1.23625 0
M  V30 1480 O 145.835 -1.81717 0.269206 0
M  V30 1481 C 145.897 -0.688549 3.52845 0
M  V30 1482 C 145.561 0.398362 4.5526 0
M  V30 1483 C 146.558 1.24732 5.04716 0
M  V30 1484 C 144.243 0.557805 4.99193 0
M  V30 1485 C 146.237 2.2411 5.96702 0
M  V30 1486 C 143.924 1.55495 5.90986 0
M  V30 1487 C 144.922 2.39503 6.39631 0
M  V30 1488 O 144.61 3.37517 7.29615 0
M  V30 1489 H 144.342 -0.044395 0.674541 0
M  V30 1490 H 146.896 0.518668 1.98744 0
M  V30 1491 H 145.126 -1.48706 3.56964 0
M  V30 1492 H 146.815 -1.20231 3.87685 0
M  V30 1493 H 147.581 1.13532 4.71525 0
M  V30 1494 H 143.46 -0.0862959 4.60919 0
M  V30 1495 H 147.004 2.89718 6.34594 0
M  V30 1496 H 142.901 1.66744 6.23592 0
M  V30 1497 H 143.669 3.33213 7.47604 0
M  V30 1498 N 146.332 -1.57332 0.0918853 0
M  V30 1499 C 147.295 -2.12708 -0.85369 0
M  V30 1500 C 148.295 -1.05561 -1.213 0
M  V30 1501 O 149.485 -1.31461 -1.14296 0
M  V30 1502 C 146.617 -2.64503 -2.15061 0
M  V30 1503 H 147.81 -2.97573 -0.3729 0
M  V30 1504 H 145.363 -1.55509 -0.157072 0
M  V30 1505 H 146.098 -1.83149 -2.67632 0
M  V30 1506 H 145.883 -3.4284 -1.90272 0
M  V30 1507 H 147.373 -3.07351 -2.82711 0
M  V30 1508 N 147.81 0.181792 -1.56548 0
M  V30 1509 C 148.72 1.24538 -1.98815 0
M  V30 1510 C 149.736 1.49045 -0.897861 0
M  V30 1511 O 150.912 1.61399 -1.20467 0
M  V30 1512 C 147.977 2.56683 -2.33055 0
M  V30 1513 C 147.038 2.40131 -3.55859 0
M  V30 1514 C 146.271 3.65975 -3.88456 0
M  V30 1515 O 146.494 4.70711 -3.22161 0
M  V30 1516 O 145.428 3.6071 -4.81842 0
M  V30 1517 H 149.254 0.916647 -2.89536 0
M  V30 1518 H 146.839 0.387842 -1.44278 0
M  V30 1519 H 148.721 3.34655 -2.56094 0
M  V30 1520 H 147.396 2.89157 -1.45498 0
M  V30 1521 H 146.303 1.60226 -3.38051 0
M  V30 1522 H 147.636 2.12585 -4.43924 0
M  V30 1523 N 149.288 1.51039 0.449983 0
M  V30 1524 C 150.699 1.557 1.03026 0
M  V30 1525 C 151.05 0.372939 1.92623 0
M  V30 1526 O 150.175 -0.511771 2.10261 0
M  V30 1527 C 150.77 2.82171 1.87523 0
M  V30 1528 C 149.329 2.89444 2.40622 0
M  V30 1529 C 148.476 2.50228 1.19504 0
M  V30 1530 H 151.427 1.56999 0.231745 0
M  V30 1531 H 151.448 2.65219 2.72835 0
M  V30 1532 H 150.96 3.68331 1.22286 0
M  V30 1533 H 149.061 2.07685 3.0935 0
M  V30 1534 H 149.174 3.92816 2.74285 0
M  V30 1535 H 147.538 2.03139 1.53644 0
M  V30 1536 H 148.321 3.38719 0.558972 0
M  V30 1537 N 150.766 -0.704594 1.40972 0
M  V30 1538 C 151.698 -1.82974 1.38033 0
M  V30 1539 C 152.711 -1.60305 0.283931 0
M  V30 1540 O 153.9 -1.69975 0.545042 0
M  V30 1541 C 151 -3.19578 1.12795 0
M  V30 1542 C 150.173 -3.69352 2.34302 0
M  V30 1543 C 149.232 -4.84601 2.05058 0
M  V30 1544 O 148.258 -4.96682 2.7802 0
M  V30 1545 N 149.46 -5.71194 1.03528 0
M  V30 1546 H 152.225 -1.85991 2.35005 0
M  V30 1547 H 149.786 -0.886567 1.35468 0
M  V30 1548 H 151.778 -3.9429 0.911987 0
M  V30 1549 H 150.348 -3.11642 0.24452 0
M  V30 1550 H 149.568 -2.85649 2.71659 0
M  V30 1551 H 150.856 -3.99345 3.1528 0
M  V30 1552 H 150.254 -5.64054 0.431217 0
M  V30 1553 H 148.811 -6.45843 0.879205 0
M  V30 1554 N 152.244 -1.26651 -0.937939 0
M  V30 1555 C 153.191 -1.0849 -2.03712 0
M  V30 1556 C 154.161 0.011033 -1.66096 0
M  V30 1557 O 155.346 -0.149353 -1.90215 0
M  V30 1558 C 152.486 -0.72735 -3.37348 0
M  V30 1559 C 151.599 -1.89986 -3.87981 0
M  V30 1560 C 150.734 -1.48513 -5.10017 0
M  V30 1561 C 149.773 -2.62575 -5.5292 0
M  V30 1562 N 148.91 -2.21762 -6.66158 0
M  V30 1563 H 153.75 -2.02551 -2.18579 0
M  V30 1564 H 151.287 -1.00844 -1.07093 0
M  V30 1565 H 153.245 -0.50092 -4.14182 0
M  V30 1566 H 151.875 0.176298 -3.22318 0
M  V30 1567 H 150.927 -2.23913 -3.07518 0
M  V30 1568 H 152.239 -2.75586 -4.15757 0
M  V30 1569 H 151.393 -1.21934 -5.94321 0
M  V30 1570 H 150.132 -0.60009 -4.83994 0
M  V30 1571 H 149.137 -2.8988 -4.67172 0
M  V30 1572 H 150.362 -3.51685 -5.80943 0
M  V30 1573 H 148.308 -1.35696 -6.41812 0
M  V30 1574 H 148.225 -3.00903 -6.93537 0
M  V30 1575 H 149.493 -1.98403 -7.53828 0
M  V30 1576 N 153.722 1.14298 -1.08507 0
M  V30 1577 C 154.947 1.8976 -0.837001 0
M  V30 1578 C 155.372 1.78097 0.605228 0
M  V30 1579 O 154.73 1.12188 1.4242 0
M  V30 1580 C 154.778 3.37685 -1.26495 0
M  V30 1581 O 153.882 4.10281 -0.417514 0
M  V30 1582 H 153.223 0.590365 -0.303917 0
M  V30 1583 H 155.753 1.44672 -1.44676 0
M  V30 1584 H 155.763 3.88501 -1.24625 0
M  V30 1585 H 154.438 3.45492 -2.31534 0
M  V30 1586 H 153.015 3.69536 -0.499722 0
M  V30 1587 N 155.201 0.870884 1.31352 0
M  V30 1588 C 156.612 0.534714 1.78879 0
M  V30 1589 C 156.963 -0.948423 1.71754 0
M  V30 1590 O 156.088 -1.74055 1.28584 0
M  V30 1591 C 156.683 0.963839 3.24801 0
M  V30 1592 C 155.242 0.679311 3.70219 0
M  V30 1593 C 154.389 1.15465 2.52117 0
M  V30 1594 H 157.34 1.05651 1.18421 0
M  V30 1595 H 157.361 0.286892 3.79417 0
M  V30 1596 H 156.873 2.04332 3.29955 0
M  V30 1597 H 154.974 -0.388769 3.70566 0
M  V30 1598 H 155.087 1.25698 4.62317 0
M  V30 1599 H 153.451 0.574383 2.48139 0
M  V30 1600 H 154.234 2.24157 2.60016 0
M  V30 1601 N 156.679 -1.44442 0.630414 0
M  V30 1602 C 157.925 -2.02894 0.143332 0
M  V30 1603 C 158.28 -1.48697 -1.22094 0
M  V30 1604 O 157.573 -0.661171 -1.79831 0
M  V30 1605 C 157.767 -3.57332 0.0697835 0
M  V30 1606 C 157.596 -4.26512 1.42539 0
M  V30 1607 C 156.366 -4.63516 2.01198 0
M  V30 1608 C 158.564 -4.57004 2.35907 0
M  V30 1609 N 156.546 -5.17661 3.30001 0
M  V30 1610 C 157.917 -5.12223 3.49324 0
M  V30 1611 C 159.972 -4.38955 2.34995 0
M  V30 1612 C 158.675 -5.51295 4.62024 0
M  V30 1613 C 160.701 -4.79075 3.46758 0
M  V30 1614 C 160.063 -5.34407 4.58899 0
M  V30 1615 H 156.162 -0.776041 0.0963523 0
M  V30 1616 H 158.746 -1.75945 0.833752 0
M  V30 1617 H 156.917 -3.83894 -0.589915 0
M  V30 1618 H 158.649 -4.02451 -0.42606 0
M  V30 1619 H 155.404 -4.47811 1.54151 0
M  V30 1620 H 155.828 -5.4921 3.95851 0
M  V30 1621 H 160.47 -3.95469 1.49545 0
M  V30 1622 H 158.188 -5.93736 5.48182 0
M  V30 1623 H 161.774 -4.66824 3.47227 0
M  V30 1624 H 160.654 -5.64878 5.4395 0
M  V30 1625 N 158.157 -0.370918 -1.53173 0
M  V30 1626 C 159.397 0.217106 -2.03244 0
M  V30 1627 C 159.761 1.45558 -1.25207 0
M  V30 1628 O 160.962 2.11957 -1.65311 0
M  V30 1629 C 159.233 0.496664 -3.53932 0
M  V30 1630 S 160.792 1.0576 -4.25864 0
M  V30 1631 H 157.61 0.0627827 -0.708223 0
M  V30 1632 H 160.212 -0.515019 -1.88594 0
M  V30 1633 H 158.916 -0.412096 -4.08326 0
M  V30 1634 H 158.447 1.25772 -3.72753 0
M  V30 1635 H 160.462 2.34145 -4.37482 0
M  V30 1636 N 159.635 1.57281 -0.100228 0
M  V30 1637 C 160.545 2.17833 0.870965 0
M  V30 1638 C 161.561 1.14921 1.30649 0
M  V30 1639 O 162.737 1.47313 1.37335 0
M  V30 1640 C 159.802 2.75085 2.1102 0
M  V30 1641 C 158.863 3.9297 1.72838 0
M  V30 1642 C 158.096 4.47482 2.90854 0
M  V30 1643 O 158.319 4.00922 4.05731 0
M  V30 1644 O 157.253 5.38433 2.69023 0
M  V30 1645 H 161.079 3.0124 0.38575 0
M  V30 1646 H 158.664 1.48881 0.124397 0
M  V30 1647 H 160.546 3.11656 2.83634 0
M  V30 1648 H 159.221 1.94721 2.58584 0
M  V30 1649 H 158.128 3.61201 0.973883 0
M  V30 1650 H 159.461 4.74713 1.30033 0
M  V30 1651 N 161.113 -0.173488 1.56642 0
M  V30 1652 C 162.076 -1.19859 1.95362 0
M  V30 1653 C 163.076 -1.37296 0.83704 0
M  V30 1654 O 164.266 -1.34739 1.10413 0
M  V30 1655 C 161.398 -2.56405 2.24654 0
M  V30 1656 H 162.591 -0.867062 2.87092 0
M  V30 1657 H 160.144 -0.415853 1.50666 0
M  V30 1658 H 160.879 -2.94576 1.35631 0
M  V30 1659 H 160.664 -2.45115 3.06041 0
M  V30 1660 H 162.154 -3.30287 2.5554 0
M  V30 1661 N 162.591 -1.51276 -0.441967 0
M  V30 1662 C 164.007 -1.39349 -0.778083 0
M  V30 1663 C 164.207 -0.472212 -1.95889 0
M  V30 1664 O 163.263 0.0743551 -2.5239 0
M  V30 1665 C 164.576 -2.81292 -1.0628 0
M  V30 1666 C 166.124 -2.9041 -1.16751 0
M  V30 1667 C 166.599 -4.33251 -1.48519 0
M  V30 1668 N 168.09 -4.36336 -1.55453 0
M  V30 1669 C 168.825 -5.43885 -1.81596 0
M  V30 1670 N 168.321 -6.61601 -2.05562 0
M  V30 1671 N 170.114 -5.3136 -1.8334 0
M  V30 1672 H 162.265 -2.09729 0.335774 0
M  V30 1673 H 164.528 -0.943925 0.0878028 0
M  V30 1674 H 164.234 -3.50678 -0.267905 0
M  V30 1675 H 164.108 -3.20334 -1.99163 0
M  V30 1676 H 166.495 -2.21225 -1.95304 0
M  V30 1677 H 166.576 -2.54871 -0.217801 0
M  V30 1678 H 166.22 -5.02984 -0.704958 0
M  V30 1679 H 166.15 -4.66299 -2.44689 0
M  V30 1680 H 168.641 -3.51466 -1.38853 0
M  V30 1681 H 168.954 -7.39361 -2.24867 0
M  V30 1682 H 167.299 -6.64725 -2.02894 0
M  V30 1683 H 170.49 -4.38382 -1.64132 0
M  V30 1684 H 170.663 -6.15258 -2.03377 0
M  V30 1685 N 164.069 0.697108 -1.41344 0
M  V30 1686 C 165.294 1.49096 -1.44171 0
M  V30 1687 C 165.719 1.88038 -0.0481568 0
M  V30 1688 O 165.077 1.54525 0.948243 0
M  V30 1689 C 165.125 2.73088 -2.3549 0
M  V30 1690 O 164.229 3.70514 -1.81088 0
M  V30 1691 H 163.57 0.448801 -0.489361 0
M  V30 1692 H 166.1 0.856992 -1.85787 0
M  V30 1693 H 166.11 3.21413 -2.51312 0
M  V30 1694 H 164.785 2.44081 -3.36745 0
M  V30 1695 H 163.362 3.29441 -1.74708 0
M  V30 1696 N 165.547 1.27147 0.931209 0
M  V30 1697 C 166.477 1.12081 2.04842 0
M  V30 1698 C 167.458 0.0232364 1.70084 0
M  V30 1699 O 168.643 0.197085 1.93197 0
M  V30 1700 C 165.773 0.76354 3.38803 0
M  V30 1701 C 164.727 1.81396 3.87659 0
M  V30 1702 C 164.053 1.31075 5.18385 0
M  V30 1703 C 165.353 3.21739 4.11438 0
M  V30 1704 H 167.047 2.05537 2.17703 0
M  V30 1705 H 164.593 0.989603 1.04608 0
M  V30 1706 H 166.546 0.644982 4.16435 0
M  V30 1707 H 165.27 -0.206727 3.25945 0
M  V30 1708 H 163.929 1.92136 3.12217 0
M  V30 1709 H 163.577 0.330037 5.01916 0
M  V30 1710 H 163.277 2.013 5.52044 0
M  V30 1711 H 164.801 1.20506 5.98591 0
M  V30 1712 H 166.215 3.14019 4.79651 0
M  V30 1713 H 164.612 3.89644 4.56397 0
M  V30 1714 H 165.682 3.67054 3.16859 0
M  V30 1715 N 167.025 -1.13721 1.09112 0
M  V30 1716 C 167.935 -2.22638 0.73957 0
M  V30 1717 C 168.951 -1.72091 -0.257068 0
M  V30 1718 O 170.127 -2.01155 -0.0992154 0
M  V30 1719 C 167.192 -3.46322 0.16191 0
M  V30 1720 C 166.253 -4.11775 1.21408 0
M  V30 1721 C 165.486 -5.29555 0.663891 0
M  V30 1722 O 165.709 -5.68077 -0.514274 0
M  V30 1723 O 164.643 -5.84973 1.41738 0
M  V30 1724 H 168.469 -2.55074 1.64836 0
M  V30 1725 H 166.054 -1.21791 0.865289 0
M  V30 1726 H 167.936 -4.21107 -0.157073 0
M  V30 1727 H 166.611 -3.15593 -0.719932 0
M  V30 1728 H 165.518 -3.3883 1.58571 0
M  V30 1729 H 166.851 -4.46627 2.06845 0
M  V30 1730 N 168.503 -0.877838 -1.30888 0
M  V30 1731 C 169.453 -0.310872 -2.25871 0
M  V30 1732 C 170.437 0.556596 -1.50966 0
M  V30 1733 O 171.629 0.402187 -1.7237 0
M  V30 1734 C 168.758 0.479821 -3.3993 0
M  V30 1735 C 167.844 -0.401333 -4.22197 0
M  V30 1736 N 168.235 -1.49848 -4.83093 0
M  V30 1737 C 166.533 -0.195167 -4.45573 0
M  V30 1738 C 167.234 -2.0425 -5.44662 0
M  V30 1739 N 166.21 -1.33843 -5.26865 0
M  V30 1740 H 170.012 -1.1493 -2.70496 0
M  V30 1741 H 167.526 -0.726458 -1.45246 0
M  V30 1742 H 169.523 0.902582 -4.07012 0
M  V30 1743 H 168.183 1.31577 -2.96846 0
M  V30 1744 H 169.194 -1.88137 -4.82519 0
M  V30 1745 H 165.871 0.604192 -4.13105 0
M  V30 1746 H 167.261 -2.96345 -6.03017 0
M  V30 1747 N 169.982 1.44106 -0.638065 0
M  V30 1748 C 171.21 2.06336 -0.152615 0
M  V30 1749 C 171.625 1.47731 1.17563 0
M  V30 1750 O 170.982 0.602806 1.72257 0
M  V30 1751 C 171.033 3.61479 -0.0391491 0
M  V30 1752 O 170.754 4.17903 -1.31487 0
M  V30 1753 C 172.255 4.40757 0.474176 0
M  V30 1754 H 169.475 0.665862 -0.0828776 0
M  V30 1755 H 172.019 1.84862 -0.87443 0
M  V30 1756 H 170.174 3.82191 0.633142 0
M  V30 1757 H 170.588 5.11416 -1.16421 0
M  V30 1758 H 172.062 5.49707 0.502562 0
M  V30 1759 H 172.539 4.12697 1.50258 0
M  V30 1760 H 173.145 4.24979 -0.165102 0
M  V30 1761 N 171.46 0.379036 1.52974 0
M  V30 1762 C 172.39 -0.452706 2.29069 0
M  V30 1763 C 173.371 -1.07237 1.32039 0
M  V30 1764 O 174.556 -1.08708 1.60923 0
M  V30 1765 C 171.686 -1.5856 3.08992 0
M  V30 1766 C 170.64 -1.0925 4.13822 0
M  V30 1767 C 169.966 -2.31668 4.81907 0
M  V30 1768 C 171.266 -0.167702 5.22031 0
M  V30 1769 H 172.96 0.182181 2.98845 0
M  V30 1770 H 170.506 0.0890592 1.43724 0
M  V30 1771 H 172.459 -2.1742 3.6098 0
M  V30 1772 H 171.183 -2.24792 2.36931 0
M  V30 1773 H 169.842 -0.526494 3.628 0
M  V30 1774 H 169.49 -2.96386 4.06404 0
M  V30 1775 H 169.19 -1.9934 5.52754 0
M  V30 1776 H 170.714 -2.91189 5.36695 0
M  V30 1777 H 172.128 -0.664186 5.6944 0
M  V30 1778 H 170.525 0.0653265 6.00064 0
M  V30 1779 H 171.595 0.786347 4.78482 0
M  V30 1780 N 172.938 -1.57226 0.108567 0
M  V30 1781 C 174.349 -1.8195 -0.418464 0
M  V30 1782 C 174.7 -1.02508 -1.67292 0
M  V30 1783 O 173.825 -0.258496 -2.14851 0
M  V30 1784 C 174.42 -3.30028 -0.765979 0
M  V30 1785 C 172.979 -3.55469 -1.23769 0
M  V30 1786 C 172.126 -2.7625 -0.241106 0
M  V30 1787 H 175.077 -1.55149 0.33384 0
M  V30 1788 H 175.098 -3.44086 -1.62434 0
M  V30 1789 H 174.61 -3.87821 0.147219 0
M  V30 1790 H 172.711 -3.03022 -2.16814 0
M  V30 1791 H 172.824 -4.6408 -1.19022 0
M  V30 1792 H 171.188 -2.44133 -0.72602 0
M  V30 1793 H 171.971 -3.36797 0.665007 0
M  V30 1794 N 174.416 0.165178 -1.56732 0
M  V30 1795 C 175.662 0.882112 -1.82611 0
M  V30 1796 C 175.995 1.81628 -0.687378 0
M  V30 1797 O 175.27 1.92009 0.310267 0
M  V30 1798 C 175.553 1.67245 -3.18906 0
M  V30 1799 C 175.406 0.760987 -4.43316 0
M  V30 1800 C 176.725 2.63884 -3.52212 0
M  V30 1801 H 173.844 0.319242 -0.664269 0
M  V30 1802 H 176.486 0.148052 -1.89422 0
M  V30 1803 H 174.636 2.29824 -3.1323 0
M  V30 1804 H 176.308 0.147596 -4.61064 0
M  V30 1805 H 174.551 0.0694102 -4.33744 0
M  V30 1806 H 175.222 1.34962 -5.35247 0
M  V30 1807 H 177.698 2.11429 -3.58381 0
M  V30 1808 H 176.574 3.16245 -4.48643 0
M  V30 1809 H 176.835 3.44377 -2.77231 0
M  V30 1810 N 175.894 1.51508 0.433938 0
M  V30 1811 C 176.842 1.73646 1.54757 0
M  V30 1812 C 177.836 0.602854 1.5831 0
M  V30 1813 O 179.042 0.784318 1.62014 0
M  V30 1814 H 175.417 0.548718 0.51421 0
M  V30 1815 H 177.388 2.66991 1.33261 0
M  V30 1816 C 176.137 1.88172 2.92381 0
M  V30 1817 H 175.46 2.74808 2.90381 0
M  V30 1818 H 176.9 2.07672 3.6966 0
M  V30 1819 C 175.359 0.64239 3.30719 0
M  V30 1820 O 175.889 -0.201362 4.01195 0
M  V30 1821 N 174.095 0.485489 2.86516 0
M  V30 1822 H 173.642 1.17318 2.29334 0
M  V30 1823 H 173.6 -0.342482 3.12529 0
M  V30 1824 N 177.372 -0.689602 1.41712 0
M  V30 1825 C 178.788 -1.00093 1.24312 0
M  V30 1826 C 178.988 -2.01036 0.136729 0
M  V30 1827 O 178.044 -2.47562 -0.496918 0
M  V30 1828 C 179.357 -1.51985 2.59463 0
M  V30 1829 C 180.905 -1.63838 2.66695 0
M  V30 1830 C 181.38 -2.1913 4.02177 0
M  V30 1831 N 182.871 -2.26483 4.04054 0
M  V30 1832 C 183.606 -2.70306 5.0569 0
M  V30 1833 N 183.102 -3.13691 6.17713 0
M  V30 1834 N 184.895 -2.69923 4.9305 0
M  V30 1835 H 177.046 -0.0210029 2.1239 0
M  V30 1836 H 179.309 -0.0718733 0.945272 0
M  V30 1837 H 179.015 -0.85269 3.41207 0
M  V30 1838 H 178.889 -2.50103 2.82362 0
M  V30 1839 H 181.276 -2.29664 1.85306 0
M  V30 1840 H 181.357 -0.642492 2.476 0
M  V30 1841 H 181.001 -1.53918 4.84016 0
M  V30 1842 H 180.931 -3.19482 4.18615 0
M  V30 1843 H 183.422 -1.95874 3.23174 0
M  V30 1844 H 183.735 -3.45773 6.9113 0
M  V30 1845 H 182.08 -3.11585 6.21241 0
M  V30 1846 H 185.271 -2.35382 4.04614 0
M  V30 1847 H 185.444 -3.03758 5.72394 0
M  V30 1848 N 178.85 -1.27639 -0.924453 0
M  V30 1849 C 179.76 -1.12466 -2.05885 0
M  V30 1850 C 180.776 -0.053869 -1.73917 0
M  V30 1851 O 181.952 -0.261012 -1.99702 0
M  V30 1852 C 179.017 -0.776768 -3.37886 0
M  V30 1853 C 178.078 -1.92878 -3.83532 0
M  V30 1854 C 177.311 -1.59739 -5.09234 0
M  V30 1855 O 177.534 -0.506782 -5.68144 0
M  V30 1856 O 176.468 -2.43761 -5.50331 0
M  V30 1857 H 180.294 -2.07671 -2.21599 0
M  V30 1858 H 177.879 -1.06857 -1.04413 0
M  V30 1859 H 179.761 -0.596229 -4.17161 0
M  V30 1860 H 178.436 0.145732 -3.23372 0
M  V30 1861 H 177.343 -2.1644 -3.0513 0
M  V30 1862 H 178.676 -2.8316 -4.02593 0
M  V30 1863 N 180.328 1.1314 -1.09713 0
M  V30 1864 C 181.556 1.88321 -0.856898 0
M  V30 1865 C 181.971 1.79276 0.592073 0
M  V30 1866 O 181.328 1.16142 1.40774 0
M  V30 1867 C 181.379 3.37812 -1.28706 0
M  V30 1868 O 181.1 3.46627 -2.67921 0
M  V30 1869 C 182.601 4.29952 -1.07964 0
M  V30 1870 H 179.821 0.596094 -0.308079 0
M  V30 1871 H 182.365 1.43205 -1.45988 0
M  V30 1872 H 180.52 3.805 -0.727912 0
M  V30 1873 H 180.934 4.39579 -2.8613 0
M  V30 1874 H 182.408 5.33159 -1.42986 0
M  V30 1875 H 182.885 4.39196 -0.0176577 0
M  V30 1876 H 183.491 3.93036 -1.62489 0
M  V30 1877 N 181.806 0.884767 1.30421 0
M  V30 1878 C 182.736 0.367574 2.30589 0
M  V30 1879 C 183.717 -0.549464 1.60981 0
M  V30 1880 O 184.902 -0.46336 1.88591 0
M  V30 1881 C 182.032 -0.418944 3.44764 0
M  V30 1882 C 180.986 0.406316 4.26067 0
M  V30 1883 C 180.312 -0.506793 5.32293 0
M  V30 1884 C 181.612 1.64832 4.95608 0
M  V30 1885 H 183.306 1.20462 2.74097 0
M  V30 1886 H 180.852 0.580695 1.31772 0
M  V30 1887 H 182.805 -0.791395 4.13902 0
M  V30 1888 H 181.529 -1.28964 3.0006 0
M  V30 1889 H 180.188 0.760903 3.58617 0
M  V30 1890 H 179.836 -1.37519 4.83836 0
M  V30 1891 H 179.536 0.0415828 5.87585 0
M  V30 1892 H 181.06 -0.875764 6.04287 0
M  V30 1893 H 182.474 1.34646 5.57264 0
M  V30 1894 H 180.871 2.13688 5.60765 0
M  V30 1895 H 181.941 2.39284 4.21748 0
M  V30 1896 N 183.284 -1.43765 0.645699 0
M  V30 1897 C 184.231 -2.30745 -0.0504648 0
M  V30 1898 C 185.201 -1.4432 -0.822241 0
M  V30 1899 O 186.386 -1.73202 -0.800358 0
M  V30 1900 C 183.526 -3.29802 -1.0161 0
M  V30 1901 C 182.639 -4.31326 -0.241219 0
M  V30 1902 C 181.774 -5.17469 -1.19998 0
M  V30 1903 C 180.813 -6.10691 -0.415094 0
M  V30 1904 N 179.95 -6.89483 -1.32506 0
M  V30 1905 H 184.79 -2.8973 0.697155 0
M  V30 1906 H 182.327 -1.42738 0.355563 0
M  V30 1907 H 184.285 -3.85734 -1.58949 0
M  V30 1908 H 182.915 -2.72483 -1.73069 0
M  V30 1909 H 181.967 -3.77749 0.448334 0
M  V30 1910 H 183.279 -4.9743 0.369437 0
M  V30 1911 H 182.433 -5.7799 -1.84424 0
M  V30 1912 H 181.172 -4.51473 -1.84455 0
M  V30 1913 H 180.177 -5.49265 0.242565 0
M  V30 1914 H 181.402 -6.78727 0.224966 0
M  V30 1915 H 179.348 -6.26142 -1.95657 0
M  V30 1916 H 179.265 -7.52081 -0.768783 0
M  V30 1917 H 180.533 -7.54516 -1.9577 0
M  V30 1918 N 184.763 -0.387143 -1.52771 0
M  V30 1919 C 186.179 -0.037007 -1.59557 0
M  V30 1920 C 186.379 1.44801 -1.40124 0
M  V30 1921 O 185.435 2.21227 -1.21716 0
M  V30 1922 C 186.748 -0.512256 -2.96305 0
M  V30 1923 C 188.296 -0.468328 -3.09476 0
M  V30 1924 C 188.771 -0.919731 -4.4867 0
M  V30 1925 N 190.262 -0.875656 -4.54848 0
M  V30 1926 C 190.997 -1.19637 -5.6078 0
M  V30 1927 N 190.493 -1.58745 -6.74368 0
M  V30 1928 N 192.286 -1.11776 -5.50874 0
M  V30 1929 H 184.437 -1.35395 -1.63652 0
M  V30 1930 H 186.7 -0.554818 -0.768688 0
M  V30 1931 H 186.406 -1.54935 -3.15734 0
M  V30 1932 H 186.28 0.089805 -3.77093 0
M  V30 1933 H 188.667 0.559671 -2.89744 0
M  V30 1934 H 188.748 -1.10616 -2.30646 0
M  V30 1935 H 188.392 -1.94595 -4.69143 0
M  V30 1936 H 188.322 -0.258927 -5.25963 0
M  V30 1937 H 190.813 -0.587843 -3.733 0
M  V30 1938 H 191.126 -1.81586 -7.51163 0
M  V30 1939 H 189.471 -1.6263 -6.75705 0
M  V30 1940 H 192.662 -0.811264 -4.61016 0
M  V30 1941 H 192.835 -1.37103 -6.3333 0
M  V30 1942 N 186.241 1.57166 -0.116904 0
M  V30 1943 C 187.188 2.15202 0.83408 0
M  V30 1944 C 188.158 1.07644 1.26499 0
M  V30 1945 O 189.343 1.35541 1.34288 0
M  V30 1946 C 186.483 2.75405 2.07957 0
M  V30 1947 C 185.596 3.97264 1.69721 0
M  V30 1948 C 184.731 4.45561 2.89221 0
M  V30 1949 C 183.77 5.59956 2.47215 0
M  V30 1950 N 182.907 6.03006 3.59622 0
M  V30 1951 H 187.747 2.96141 0.332335 0
M  V30 1952 H 185.284 1.46309 0.152349 0
M  V30 1953 H 187.242 3.08439 2.80929 0
M  V30 1954 H 185.872 1.97159 2.55594 0
M  V30 1955 H 184.924 3.70404 0.866316 0
M  V30 1956 H 186.236 4.80226 1.34849 0
M  V30 1957 H 185.39 4.80493 3.7042 0
M  V30 1958 H 184.129 3.61544 3.27318 0
M  V30 1959 H 183.134 5.2463 1.64448 0
M  V30 1960 H 184.359 6.45738 2.10238 0
M  V30 1961 H 182.305 5.21931 3.97396 0
M  V30 1962 H 182.222 6.80819 3.28667 0
M  V30 1963 H 183.49 6.42576 4.41267 0
M  V30 1964 N 187.719 -0.156864 1.56817 0
M  V30 1965 C 188.965 -0.872416 1.83076 0
M  V30 1966 C 189.298 -1.81261 0.697001 0
M  V30 1967 O 188.573 -1.92171 -0.30008 0
M  V30 1968 C 188.856 -1.65551 3.19789 0
M  V30 1969 C 188.709 -0.737467 4.43713 0
M  V30 1970 C 190.028 -2.62012 3.53606 0
M  V30 1971 H 187.147 -0.315715 0.665953 0
M  V30 1972 H 189.789 -0.138004 1.89498 0
M  V30 1973 H 187.939 -2.28159 3.14445 0
M  V30 1974 H 189.611 -0.123143 4.61136 0
M  V30 1975 H 187.854 -0.0464067 4.33775 0
M  V30 1976 H 188.525 -1.32122 5.35955 0
M  V30 1977 H 191.001 -2.09525 3.59497 0
M  V30 1978 H 189.877 -3.13861 4.50314 0
M  V30 1979 H 190.138 -3.42902 2.79053 0
M  V30 1980 N 189.197 -1.51736 -0.425897 0
M  V30 1981 C 190.422 -1.69082 -1.20108 0
M  V30 1982 C 190.847 -0.392398 -1.83962 0
M  V30 1983 O 190.205 0.64858 -1.69302 0
M  V30 1984 C 190.253 -2.81604 -2.25237 0
M  V30 1985 O 189.357 -2.46004 -3.30992 0
M  V30 1986 H 188.698 -0.563408 -0.35138 0
M  V30 1987 H 191.228 -1.98358 -0.501512 0
M  V30 1988 H 191.238 -3.06025 -2.69838 0
M  V30 1989 H 189.913 -3.75817 -1.78142 0
M  V30 1990 H 188.49 -2.32195 -2.91787 0
M  V30 1991 N 190.675 0.682077 -1.42076 0
M  V30 1992 C 191.923 1.4393 -1.41876 0
M  V30 1993 C 192.244 1.94971 -0.0335599 0
M  V30 1994 O 191.514 1.72591 0.926773 0
M  V30 1995 H 190.094 0.534085 -0.522267 0
M  V30 1996 H 192.756 0.806427 -1.77434 0
M  V30 1997 H 191.852 2.29588 -2.11414 0
M  V30 1998 N 192.153 1.28127 0.917671 0
M  V30 1999 C 193.101 1.11569 2.04096 0
M  V30 2000 C 194.095 0.0360242 1.69362 0
M  V30 2001 O 195.301 0.194501 1.78946 0
M  V30 2002 H 191.676 0.344097 0.668656 0
M  V30 2003 H 193.647 2.06711 2.15205 0
M  V30 2004 C 192.396 0.790197 3.38602 0
M  V30 2005 H 191.719 1.61293 3.6582 0
M  V30 2006 H 193.159 0.714271 4.1794 0
M  V30 2007 C 191.618 -0.505897 3.3308 0
M  V30 2008 O 192.148 -1.53736 3.71117 0
M  V30 2009 N 190.354 -0.505193 2.86175 0
M  V30 2010 H 189.901 0.334621 2.55417 0
M  V30 2011 H 189.859 -1.37243 2.82863 0
M  V30 2012 N 193.631 -1.12557 1.10312 0
M  V30 2013 C 195.047 -1.36036 0.834649 0
M  V30 2014 C 195.247 -1.93946 -0.546539 0
M  V30 2015 O 194.303 -2.16484 -1.29966 0
M  V30 2016 C 195.616 -2.30312 1.9333 0
M  V30 2017 C 197.164 -2.43906 1.9616 0
M  V30 2018 C 197.639 -3.41496 3.05195 0
M  V30 2019 N 199.13 -3.49053 3.04494 0
M  V30 2020 C 199.865 -4.24471 3.85502 0
M  V30 2021 N 199.361 -5.02966 4.76442 0
M  V30 2022 N 201.154 -4.19864 3.73725 0
M  V30 2023 H 193.305 -0.733246 1.99342 0
M  V30 2024 H 195.568 -0.385234 0.866198 0
M  V30 2025 H 195.274 -1.94933 2.92735 0
M  V30 2026 H 195.148 -3.30421 1.81939 0
M  V30 2027 H 197.535 -2.78567 0.973886 0
M  V30 2028 H 197.616 -1.4369 2.11629 0
M  V30 2029 H 197.26 -3.07565 4.04186 0
M  V30 2030 H 197.19 -4.41539 2.86968 0
M  V30 2031 H 199.681 -2.93053 2.38596 0
M  V30 2032 H 199.994 -5.57846 5.34815 0
M  V30 2033 H 198.339 -5.02167 4.80472 0
M  V30 2034 H 201.53 -3.57623 3.02032 0
M  V30 2035 H 201.703 -4.78386 4.37093 0
M  V30 2036 N 195.109 -0.891671 -1.2995 0
M  V30 2037 C 196.349 -0.520296 -1.97667 0
M  V30 2038 C 196.713 0.914797 -1.68806 0
M  V30 2039 O 197.914 1.39263 -2.29911 0
M  V30 2040 C 196.185 -0.795222 -3.48441 0
M  V30 2041 S 197.744 -0.526953 -4.35624 0
M  V30 2042 H 194.562 -0.19333 -0.684211 0
M  V30 2043 H 197.164 -1.15238 -1.57926 0
M  V30 2044 H 195.868 -1.83805 -3.66938 0
M  V30 2045 H 195.399 -0.15095 -3.9311 0
M  V30 2046 H 197.414 0.631533 -4.92165 0
M  V30 2047 N 196.587 1.43421 -0.653314 0
M  V30 2048 C 197.55 2.29182 0.0287951 0
M  V30 2049 C 198.55 1.42213 0.750465 0
M  V30 2050 O 199.74 1.63843 0.591701 0
M  V30 2051 C 196.872 3.24278 1.05151 0
M  V30 2052 H 198.065 2.90985 -0.725786 0
M  V30 2053 H 195.618 1.50702 -0.414545 0
M  V30 2054 H 196.353 2.6737 1.83532 0
M  V30 2055 H 196.138 3.88396 0.537687 0
M  V30 2056 H 197.628 3.88647 1.52786 0
M  V30 2057 N 198.065 0.39524 1.52563 0
M  V30 2058 C 199.29 -0.187456 2.06551 0
M  V30 2059 C 199.715 -1.39249 1.26457 0
M  V30 2060 O 199.073 -1.78947 0.291151 0
M  V30 2061 C 199.121 -0.529985 3.56684 0
M  V30 2062 O 198.225 -1.62307 3.79118 0
M  V30 2063 H 197.566 -0.0202537 0.663691 0
M  V30 2064 H 200.096 0.564426 1.96661 0
M  V30 2065 H 200.106 -0.792598 4.00227 0
M  V30 2066 H 198.781 0.350987 4.14416 0
M  V30 2067 H 197.358 -1.3537 3.47461 0
M  V30 2068 N 199.544 -1.57102 0.125237 0
M  V30 2069 C 200.955 -1.82384 -0.399142 0
M  V30 2070 C 201.306 -1.04276 -1.66195 0
M  V30 2071 O 200.431 -0.281269 -2.14564 0
M  V30 2072 C 201.026 -3.30821 -0.730932 0
M  V30 2073 C 199.585 -3.56762 -1.19992 0
M  V30 2074 C 198.732 -2.7649 -0.211792 0
M  V30 2075 H 201.683 -1.54786 0.350277 0
M  V30 2076 H 201.704 -3.4579 -1.58775 0
M  V30 2077 H 201.216 -3.87643 0.188345 0
M  V30 2078 H 199.317 -3.05305 -2.13588 0
M  V30 2079 H 199.43 -4.65317 -1.14093 0
M  V30 2080 H 197.794 -2.4489 -0.700085 0
M  V30 2081 H 198.577 -3.36073 0.700691 0
M  V30 2082 N 201.022 0.148545 -1.56898 0
M  V30 2083 C 202.268 0.862694 -1.83536 0
M  V30 2084 C 202.601 1.80889 -0.706604 0
M  V30 2085 O 201.876 1.92328 0.289885 0
M  V30 2086 C 202.159 1.63853 -3.20662 0
M  V30 2087 C 202.012 0.713925 -4.44098 0
M  V30 2088 C 203.331 2.60133 -3.54991 0
M  V30 2089 H 200.45 0.312179 -0.667618 0
M  V30 2090 H 203.092 0.127953 -1.89569 0
M  V30 2091 H 201.242 2.26489 -3.1565 0
M  V30 2092 H 202.914 0.098686 -4.61194 0
M  V30 2093 H 201.157 0.0234019 -4.33794 0
M  V30 2094 H 201.828 1.29278 -5.36648 0
M  V30 2095 H 204.304 2.07616 -3.60603 0
M  V30 2096 H 203.18 3.11468 -4.51972 0
M  V30 2097 H 203.441 3.41417 -2.80868 0
M  V30 2098 N 202.5 1.5196 0.417844 0
M  V30 2099 C 203.728 1.69426 1.18753 0
M  V30 2100 C 204.143 0.399955 1.84515 0
M  V30 2101 O 203.5 -0.623288 1.71527 0
M  V30 2102 C 203.551 2.82375 2.25714 0
M  V30 2103 O 203.272 4.06793 1.62638 0
M  V30 2104 C 204.773 3.11277 3.15628 0
M  V30 2105 H 201.993 0.568031 0.357186 0
M  V30 2106 H 204.537 1.98475 0.49273 0
M  V30 2107 H 202.692 2.5587 2.90877 0
M  V30 2108 H 203.106 4.69667 2.3348 0
M  V30 2109 H 204.58 3.93843 3.86771 0
M  V30 2110 H 205.057 2.24473 3.77503 0
M  V30 2111 H 205.663 3.39515 2.56144 0
M  V30 2112 N 203.978 -0.674533 1.42435 0
M  V30 2113 C 205.226 -1.43175 1.42637 0
M  V30 2114 C 205.547 -1.94951 0.0438992 0
M  V30 2115 O 204.817 -1.7308 -0.917607 0
M  V30 2116 H 203.397 -0.531307 0.525092 0
M  V30 2117 H 206.059 -0.797006 1.77859 0
M  V30 2118 H 205.155 -2.28463 2.12629 0
M  V30 2119 N 205.456 -1.28612 -0.910864 0
M  V30 2120 C 206.867 -1.14406 -1.47541 0
M  V30 2121 C 207.218 0.264901 -1.94403 0
M  V30 2122 O 206.343 1.15942 -1.82719 0
M  V30 2123 C 206.938 -2.07073 -2.68153 0
M  V30 2124 C 205.497 -1.96923 -3.20778 0
M  V30 2125 C 204.644 -1.98646 -1.93481 0
M  V30 2126 H 207.595 -1.41259 -0.723291 0
M  V30 2127 H 207.616 -1.63642 -3.43514 0
M  V30 2128 H 207.128 -3.09611 -2.34015 0
M  V30 2129 H 205.229 -0.97433 -3.59635 0
M  V30 2130 H 205.342 -2.84026 -3.85832 0
M  V30 2131 H 203.706 -1.43093 -2.10705 0
M  V30 2132 H 204.489 -3.02868 -1.61634 0
M  V30 2133 N 206.934 1.1197 -1.10907 0
M  V30 2134 C 208.182 1.83225 -0.852819 0
M  V30 2135 C 208.503 1.84769 0.623341 0
M  V30 2136 O 207.773 1.3143 1.45269 0
M  V30 2137 H 206.353 0.67849 -0.312507 0
M  V30 2138 H 209.015 1.3556 -1.40033 0
M  V30 2139 H 208.111 2.87265 -1.22005 0
M  V30 2140 N 208.412 0.89855 1.29475 0
M  V30 2141 C 209.637 0.538561 2.00285 0
M  V30 2142 C 210.062 -0.869135 1.66816 0
M  V30 2143 O 209.42 -1.57831 0.892145 0
M  V30 2144 C 209.468 0.736475 3.52999 0
M  V30 2145 O 208.572 -0.211537 4.11857 0
M  V30 2146 H 207.913 0.210563 0.62973 0
M  V30 2147 H 210.443 1.20982 1.64998 0
M  V30 2148 H 210.453 0.640685 4.02938 0
M  V30 2149 H 209.128 1.76276 3.76696 0
M  V30 2150 H 207.705 -0.0682991 3.72837 0
M  V30 2151 N 209.89 -1.43072 0.660911 0
M  V30 2152 C 210.837 -2.30785 -0.0259884 0
M  V30 2153 C 211.807 -1.45184 -0.806888 0
M  V30 2154 O 212.992 -1.74041 -0.781943 0
M  V30 2155 C 210.132 -3.30861 -0.981067 0
M  V30 2156 C 209.245 -4.31558 -0.195458 0
M  V30 2157 C 208.38 -5.18712 -1.14503 0
M  V30 2158 C 207.419 -6.11097 -0.350299 0
M  V30 2159 N 206.556 -6.90849 -1.25186 0
M  V30 2160 H 211.396 -2.88975 0.727846 0
M  V30 2161 H 208.933 -1.42353 0.370682 0
M  V30 2162 H 210.891 -3.87399 -1.54849 0
M  V30 2163 H 209.521 -2.74304 -1.70169 0
M  V30 2164 H 208.573 -3.77252 0.488374 0
M  V30 2165 H 209.885 -4.9701 0.422176 0
M  V30 2166 H 209.039 -5.79914 -1.78284 0
M  V30 2167 H 207.778 -4.53404 -1.79656 0
M  V30 2168 H 206.783 -5.48976 0.300808 0
M  V30 2169 H 208.008 -6.7845 0.296941 0
M  V30 2170 H 205.954 -6.28182 -1.89005 0
M  V30 2171 H 205.871 -7.52854 -0.688971 0
M  V30 2172 H 207.139 -7.5655 -1.87757 0
M  V30 2173 N 211.368 -0.403325 -1.52352 0
M  V30 2174 C 212.784 -0.0539281 -1.59509 0
M  V30 2175 C 212.984 1.43307 -1.41652 0
M  V30 2176 O 212.04 2.19924 -1.24056 0
M  V30 2177 C 213.353 -0.543654 -2.95745 0
M  V30 2178 C 214.901 -0.501125 -3.08962 0
M  V30 2179 C 215.376 -0.967267 -4.47669 0
M  V30 2180 N 216.867 -0.923849 -4.53893 0
M  V30 2181 C 217.602 -1.25578 -5.5948 0
M  V30 2182 N 217.098 -1.65889 -6.72646 0
M  V30 2183 N 218.891 -1.17613 -5.49658 0
M  V30 2184 H 211.042 -1.37123 -1.62206 0
M  V30 2185 H 213.305 -0.56294 -0.76276 0
M  V30 2186 H 213.011 -1.58275 -3.14073 0
M  V30 2187 H 212.885 0.0498042 -3.77167 0
M  V30 2188 H 215.272 0.528909 -2.90321 0
M  V30 2189 H 215.353 -1.13056 -2.2946 0
M  V30 2190 H 214.997 -1.9956 -4.67053 0
M  V30 2191 H 214.927 -0.314698 -5.25659 0
M  V30 2192 H 217.418 -0.627403 -3.72655 0
M  V30 2193 H 217.731 -1.89543 -7.49195 0
M  V30 2194 H 216.076 -1.69787 -6.73942 0
M  V30 2195 H 219.267 -0.860115 -4.6013 0
M  V30 2196 H 219.44 -1.43812 -6.3184 0
M  V30 2197 N 212.846 1.57033 -0.133567 0
M  V30 2198 C 214.123 1.87256 0.56522 0
M  V30 2199 C 214.503 1.03726 1.83859 0
M  V30 2200 O 213.851 0.120247 2.28183 0
M  V30 2201 C 214.061 3.3865 0.843636 0
M  V30 2202 C 215.409 4.07574 1.19032 0
M  V30 2203 O 216.433 3.43752 0.933429 0
M  V30 2204 O 215.292 5.20259 1.67312 0
M  V30 2205 H 212.386 0.775678 0.286796 0
M  V30 2206 H 214.932 1.68855 -0.169168 0
M  V30 2207 H 213.704 3.91257 -0.0581149 0
M  V30 2208 H 213.327 3.62532 1.63268 0
M  V30 2209 N 214.325 -0.140222 1.56975 0
M  V30 2210 C 215.288 -1.15689 1.97861 0
M  V30 2211 C 216.288 -1.3549 0.865974 0
M  V30 2212 O 217.478 -1.32367 1.13246 0
M  V30 2213 C 214.61 -2.51582 2.30042 0
M  V30 2214 H 215.803 -0.805971 2.88867 0
M  V30 2215 H 213.356 -0.383801 1.51515 0
M  V30 2216 H 214.091 -2.91632 1.41849 0
M  V30 2217 H 213.876 -2.38569 3.11171 0
M  V30 2218 H 215.366 -3.24792 2.62488 0
M  V30 2219 N 215.803 -1.52179 -0.40978 0
M  V30 2220 C 216.753 -1.71857 -1.49831 0
M  V30 2221 C 217.737 -0.572469 -1.50372 0
M  V30 2222 O 218.929 -0.829509 -1.56359 0
M  V30 2223 C 216.058 -1.87206 -2.87765 0
M  V30 2224 C 215.144 -3.07685 -2.91875 0
M  V30 2225 N 215.535 -4.30403 -2.65683 0
M  V30 2226 C 213.833 -3.07505 -3.23043 0
M  V30 2227 C 214.534 -5.11868 -2.76344 0
M  V30 2228 N 213.51 -4.47101 -3.09195 0
M  V30 2229 H 217.312 -2.64381 -1.28375 0
M  V30 2230 H 214.826 -1.50203 -0.617479 0
M  V30 2231 H 216.823 -1.99419 -3.66111 0
M  V30 2232 H 215.483 -0.958814 -3.10221 0
M  V30 2233 H 216.494 -4.58887 -2.4009 0
M  V30 2234 H 213.171 -2.25915 -3.51096 0
M  V30 2235 H 214.561 -6.19634 -2.59814 0
M  V30 2236 N 217.281 0.66697 -1.42791 0
M  V30 2237 C 218.528 1.42699 -1.43678 0
M  V30 2238 C 218.856 1.94419 -0.0560425 0
M  V30 2239 O 218.111 1.7182 0.936831 0
M  V30 2240 C 218.41 2.6349 -2.4147 0
M  V30 2241 C 218.076 2.30267 -3.8767 0
M  V30 2242 C 216.738 2.20918 -4.27491 0
M  V30 2243 C 219.09 2.03435 -4.79858 0
M  V30 2244 C 216.418 1.82873 -5.57471 0
M  V30 2245 C 218.77 1.66892 -6.10188 0
M  V30 2246 C 217.434 1.56058 -6.49001 0
M  V30 2247 H 216.704 0.522171 -0.525755 0
M  V30 2248 H 219.351 0.759785 -1.75783 0
M  V30 2249 H 217.656 3.35279 -2.0272 0
M  V30 2250 H 219.353 3.21684 -2.39417 0
M  V30 2251 H 215.943 2.38449 -3.56146 0
M  V30 2252 H 220.127 2.09586 -4.49875 0
M  V30 2253 H 215.383 1.7306 -5.86396 0
M  V30 2254 H 219.557 1.45157 -6.81104 0
M  V30 2255 H 217.184 1.26348 -7.49627 0
M  V30 2256 N 218.759 1.29093 0.90403 0
M  V30 2257 C 219.999 1.18076 1.66845 0
M  V30 2258 C 220.363 -0.26436 1.90171 0
M  V30 2259 O 221.564 -0.497423 2.64157 0
M  V30 2260 C 219.835 1.96722 2.98388 0
M  V30 2261 S 221.394 2.0219 3.89441 0
M  V30 2262 H 218.212 0.421104 0.572881 0
M  V30 2263 H 220.814 1.63322 1.07453 0
M  V30 2264 H 219.518 3.00866 2.7912 0
M  V30 2265 H 219.049 1.52064 3.62823 0
M  V30 2266 H 221.064 1.13545 4.83034 0
M  V30 2267 N 220.237 -1.11381 1.11499 0
M  V30 2268 C 221.2 -2.15622 0.777153 0
M  V30 2269 C 222.2 -1.59504 -0.203779 0
M  V30 2270 O 223.39 -1.74188 0.020782 0
M  V30 2271 C 220.522 -3.40556 0.153116 0
M  V30 2272 H 221.715 -2.47021 1.70061 0
M  V30 2273 H 219.268 -1.26577 0.916952 0
M  V30 2274 H 220.003 -3.14767 -0.780536 0
M  V30 2275 H 219.788 -3.8257 0.859238 0
M  V30 2276 H 221.278 -4.17546 -0.0671044 0
M  V30 2277 N 221.715 -0.905404 -1.28997 0
M  V30 2278 C 222.961 -0.535039 -1.95615 0
M  V30 2279 C 223.294 0.917404 -1.71165 0
M  V30 2280 O 222.569 1.65123 -1.02785 0
M  V30 2281 C 222.852 -0.834918 -3.50287 0
M  V30 2282 C 222.705 -2.33948 -3.84172 0
M  V30 2283 C 224.024 -0.325318 -4.38896 0
M  V30 2284 H 221.143 -0.195861 -0.710498 0
M  V30 2285 H 223.785 -1.13313 -1.52513 0
M  V30 2286 H 221.935 -0.325904 -3.87131 0
M  V30 2287 H 223.607 -2.91847 -3.57243 0
M  V30 2288 H 221.85 -2.79789 -3.31513 0
M  V30 2289 H 222.521 -2.49987 -4.92149 0
M  V30 2290 H 224.997 -0.761256 -4.09077 0
M  V30 2291 H 223.873 -0.564295 -5.45992 0
M  V30 2292 H 224.134 0.774144 -4.35269 0
M  V30 2293 N 223.193 1.4272 -0.668489 0
M  V30 2294 C 224.433 2.03497 -0.19194 0
M  V30 2295 C 224.797 1.51684 1.17712 0
M  V30 2296 O 225.998 2.04205 1.74796 0
M  V30 2297 C 224.269 3.56734 -0.218032 0
M  V30 2298 S 225.828 4.38395 0.188438 0
M  V30 2299 H 222.646 0.706542 -0.0794959 0
M  V30 2300 H 225.248 1.74563 -0.880235 0
M  V30 2301 H 223.952 3.91943 -1.2169 0
M  V30 2302 H 223.483 3.90333 0.490303 0
M  V30 2303 H 225.498 4.75345 1.42345 0
M  V30 2304 N 224.671 0.411399 1.52136 0
M  V30 2305 C 225.896 -0.165538 2.06738 0
M  V30 2306 C 226.321 -1.379 1.27926 0
M  V30 2307 O 225.679 -1.78628 0.310114 0
M  V30 2308 C 225.727 -0.492124 3.57226 0
M  V30 2309 O 224.831 -1.58276 3.80818 0
M  V30 2310 H 224.172 -0.0132132 0.663869 0
M  V30 2311 H 226.702 0.585253 1.96051 0
M  V30 2312 H 226.712 -0.750104 4.01045 0
M  V30 2313 H 225.387 0.394922 4.14021 0
M  V30 2314 H 223.964 -1.31677 3.48877 0
M  V30 2315 N 226.149 -1.5696 0.141893 0
M  V30 2316 C 227.426 -1.87553 -0.555281 0
M  V30 2317 C 227.806 -1.04699 -1.83306 0
M  V30 2318 O 227.154 -0.132346 -2.28116 0
M  V30 2319 C 227.364 -3.39093 -0.825664 0
M  V30 2320 C 228.712 -4.08199 -1.16869 0
M  V30 2321 O 229.736 -3.44242 -0.915185 0
M  V30 2322 O 228.595 -5.21139 -1.6455 0
M  V30 2323 H 225.689 -0.777188 -0.282679 0
M  V30 2324 H 228.235 -1.68763 0.17812 0
M  V30 2325 H 227.007 -3.91221 0.0788633 0
M  V30 2326 H 226.63 -3.63393 -1.61343 0
M  V30 2327 N 227.627 0.131896 -1.57047 0
M  V30 2328 C 228.857 0.855219 -1.88068 0
M  V30 2329 C 229.265 1.74557 -0.729817 0
M  V30 2330 O 228.608 1.81083 0.308962 0
M  V30 2331 C 228.67 1.75119 -3.13964 0
M  V30 2332 C 228.334 1.03646 -4.45091 0
M  V30 2333 C 229.331 0.383276 -5.18485 0
M  V30 2334 C 227.016 1.02148 -4.91804 0
M  V30 2335 C 229.01 -0.275347 -6.36805 0
M  V30 2336 C 226.697 0.359047 -6.10044 0
M  V30 2337 C 227.695 -0.288222 -6.82392 0
M  V30 2338 O 227.383 -0.94011 -7.98384 0
M  V30 2339 H 227.115 0.251864 -0.627328 0
M  V30 2340 H 229.669 0.124782 -2.05021 0
M  V30 2341 H 227.899 2.52295 -2.9306 0
M  V30 2342 H 229.588 2.3478 -3.31109 0
M  V30 2343 H 230.354 0.386562 -4.83457 0
M  V30 2344 H 226.233 1.5147 -4.35405 0
M  V30 2345 H 229.777 -0.781148 -6.93213 0
M  V30 2346 H 225.674 0.35348 -6.44531 0
M  V30 2347 H 226.442 -0.84329 -8.14144 0
M  V30 2348 N 229.106 1.52395 0.401703 0
M  V30 2349 C 230.069 1.75636 1.47257 0
M  V30 2350 C 231.069 0.62628 1.48103 0
M  V30 2351 O 232.259 0.894227 1.49497 0
M  V30 2352 C 229.391 1.84553 2.86624 0
M  V30 2353 H 230.584 2.71241 1.27938 0
M  V30 2354 H 228.137 1.42923 0.632662 0
M  V30 2355 H 228.872 0.908882 3.11303 0
M  V30 2356 H 228.657 2.66715 2.87412 0
M  V30 2357 H 230.147 2.04251 3.64241 0
M  V30 2358 N 230.584 -0.659388 1.43143 0
M  V30 2359 C 231.809 -1.45221 1.48073 0
M  V30 2360 C 232.234 -1.87845 0.097995 0
M  V30 2361 O 231.592 -1.56985 -0.90694 0
M  V30 2362 C 231.64 -2.66748 2.42647 0
M  V30 2363 O 230.744 -3.65583 1.90848 0
M  V30 2364 H 230.085 -0.435669 0.501088 0
M  V30 2365 H 232.615 -0.807432 1.87994 0
M  V30 2366 H 232.625 -3.14637 2.59745 0
M  V30 2367 H 231.3 -2.35067 3.43098 0
M  V30 2368 H 229.877 -3.24693 1.83381 0
M  V30 2369 N 232.062 -1.29571 -0.897171 0
M  V30 2370 C 233.31 -1.17456 -1.64464 0
M  V30 2371 C 233.631 0.273698 -1.9307 0
M  V30 2372 O 232.901 1.18684 -1.55855 0
M  V30 2373 H 231.481 -0.431706 -0.609622 0
M  V30 2374 H 234.143 -1.62531 -1.07562 0
M  V30 2375 H 233.239 -1.72648 -2.59998 0
M  V30 2376 N 233.54 1.10788 -1.12088 0
M  V30 2377 C 234.77 1.86191 -0.895351 0
M  V30 2378 C 235.178 1.80763 0.558702 0
M  V30 2379 O 234.521 1.19188 1.39785 0
M  V30 2380 C 234.583 3.35659 -1.28737 0
M  V30 2381 C 234.247 3.64849 -2.75198 0
M  V30 2382 C 235.244 3.61757 -3.734 0
M  V30 2383 C 232.929 3.93641 -3.12013 0
M  V30 2384 C 234.923 3.87045 -5.06434 0
M  V30 2385 C 232.61 4.18585 -4.4523 0
M  V30 2386 C 233.608 4.15277 -5.42249 0
M  V30 2387 O 233.296 4.3959 -6.73065 0
M  V30 2388 H 233.028 0.595425 -0.32007 0
M  V30 2389 H 235.582 1.40992 -1.49367 0
M  V30 2390 H 233.812 3.81497 -0.63224 0
M  V30 2391 H 235.501 3.92441 -1.03656 0
M  V30 2392 H 236.267 3.39557 -3.46303 0
M  V30 2393 H 232.146 3.95348 -2.37109 0
M  V30 2394 H 235.69 3.84378 -5.82151 0
M  V30 2395 H 231.587 4.40264 -4.72057 0
M  V30 2396 H 232.355 4.57123 -6.78956 0
M  V30 2397 N 235.018 0.912232 1.28515 0
M  V30 2398 C 235.968 0.370649 2.24967 0
M  V30 2399 C 236.952 -0.516375 1.52389 0
M  V30 2400 O 238.144 -0.356345 1.73376 0
M  V30 2401 C 235.273 -0.389526 3.41083 0
M  V30 2402 C 234.359 0.51313 4.20984 0
M  V30 2403 N 234.75 1.62604 4.78951 0
M  V30 2404 C 233.048 0.313235 4.44899 0
M  V30 2405 C 233.749 2.18619 5.39055 0
M  V30 2406 N 232.725 1.47765 5.23132 0
M  V30 2407 H 236.527 1.22061 2.67354 0
M  V30 2408 H 234.041 0.764712 1.43269 0
M  V30 2409 H 236.038 -0.794353 4.09262 0
M  V30 2410 H 234.698 -1.2366 3.0023 0
M  V30 2411 H 235.709 2.00864 4.77362 0
M  V30 2412 H 232.386 -0.494452 4.14562 0
M  V30 2413 H 233.776 3.12228 5.94948 0
M  V30 2414 N 236.496 -1.42363 0.676048 0
M  V30 2415 C 237.726 -2.05561 0.206967 0
M  V30 2416 C 238.134 -1.50887 -1.14148 0
M  V30 2417 O 237.477 -0.643933 -1.72044 0
M  V30 2418 C 237.539 -3.5944 0.0659508 0
M  V30 2419 C 237.203 -4.36812 1.34331 0
M  V30 2420 C 238.2 -4.67383 2.27704 0
M  V30 2421 C 235.885 -4.76429 1.59125 0
M  V30 2422 C 237.879 -5.36509 3.44147 0
M  V30 2423 C 235.566 -5.45294 2.75857 0
M  V30 2424 C 236.564 -5.75259 3.68193 0
M  V30 2425 O 236.252 -6.42712 4.82883 0
M  V30 2426 H 235.984 -0.668872 0.0979084 0
M  V30 2427 H 238.538 -1.83467 0.923531 0
M  V30 2428 H 236.768 -3.80197 -0.706204 0
M  V30 2429 H 238.457 -4.0427 -0.363418 0
M  V30 2430 H 239.223 -4.37275 2.09799 0
M  V30 2431 H 235.102 -4.52498 0.881258 0
M  V30 2432 H 238.646 -5.59814 4.16238 0
M  V30 2433 H 234.543 -5.7482 2.93688 0
M  V30 2434 H 235.311 -6.61204 4.82444 0
M  V30 2435 N 237.974 -0.419461 -1.51915 0
M  V30 2436 C 239.222 0.152637 -2.01523 0
M  V30 2437 C 239.543 1.44762 -1.30649 0
M  V30 2438 O 238.813 1.90997 -0.435535 0
M  V30 2439 H 237.393 0.0593966 -0.744635 0
M  V30 2440 H 240.055 -0.558073 -1.86739 0
M  V30 2441 H 239.151 0.341369 -3.10227 0
M  V30 2442 N 239.452 1.56882 -0.150215 0
M  V30 2443 C 240.698 1.96518 0.500834 0
M  V30 2444 C 241.031 1.03527 1.64304 0
M  V30 2445 O 240.306 0.0782751 1.94342 0
M  V30 2446 C 240.589 3.45822 1.00395 0
M  V30 2447 C 240.442 4.49591 -0.136983 0
M  V30 2448 C 241.761 3.97704 1.88467 0
M  V30 2449 H 238.88 0.714535 0.18058 0
M  V30 2450 H 241.522 1.88577 -0.232091 0
M  V30 2451 H 239.672 3.5272 1.62851 0
M  V30 2452 H 241.344 4.5477 -0.77343 0
M  V30 2453 H 239.587 4.26441 -0.795652 0
M  V30 2454 H 240.258 5.51402 0.256815 0
M  V30 2455 H 242.734 3.93304 1.35834 0
M  V30 2456 H 241.61 5.0263 2.20578 0
M  V30 2457 H 241.871 3.40252 2.82279 0
M  V30 2458 N 240.93 -0.123565 1.57115 0
M  V30 2459 C 242.176 -0.828428 1.85765 0
M  V30 2460 C 242.531 -1.77709 0.737371 0
M  V30 2461 O 241.824 -1.89787 -0.262978 0
M  V30 2462 C 242.018 -1.62016 3.18568 0
M  V30 2463 C 241.847 -0.749663 4.43407 0
M  V30 2464 C 240.617 -0.406251 5.03664 0
M  V30 2465 C 242.815 -0.0693505 5.14253 0
M  V30 2466 N 240.797 0.475389 6.12057 0
M  V30 2467 C 242.168 0.671474 6.16353 0
M  V30 2468 C 244.223 0.00754393 4.97899 0
M  V30 2469 C 242.926 1.48197 7.03868 0
M  V30 2470 C 244.952 0.804845 5.85898 0
M  V30 2471 C 244.314 1.53388 6.87497 0
M  V30 2472 H 240.413 -0.280219 0.73007 0
M  V30 2473 H 242.997 -0.0924183 1.94481 0
M  V30 2474 H 241.168 -2.32724 3.10957 0
M  V30 2475 H 242.9 -2.27 3.35042 0
M  V30 2476 H 239.655 -0.747446 4.67665 0
M  V30 2477 H 240.079 0.907924 6.70884 0
M  V30 2478 H 244.721 -0.541741 4.19315 0
M  V30 2479 H 242.439 2.04242 7.81864 0
M  V30 2480 H 246.025 0.866642 5.75309 0
M  V30 2481 H 244.905 2.1409 7.5441 0
M  V30 2482 N 242.408 -1.52605 -0.393616 0
M  V30 2483 C 243.633 -1.71592 -1.16495 0
M  V30 2484 C 244.058 -0.43133 -1.83088 0
M  V30 2485 O 243.416 0.612523 -1.7064 0
M  V30 2486 C 243.464 -2.86318 -2.19213 0
M  V30 2487 O 242.568 -2.52969 -3.257 0
M  V30 2488 H 241.909 -0.570734 -0.33935 0
M  V30 2489 H 244.439 -1.99377 -0.459324 0
M  V30 2490 H 244.449 -3.1168 -2.63286 0
M  V30 2491 H 243.124 -3.79511 -1.7013 0
M  V30 2492 H 241.701 -2.38332 -2.86797 0
M  V30 2493 N 243.887 0.651787 -1.4349 0
M  V30 2494 C 245.127 1.42345 -1.46688 0
M  V30 2495 C 245.491 1.91793 -0.0891023 0
M  V30 2496 O 246.692 2.688 0.00423594 0
M  V30 2497 C 244.963 2.57221 -2.48137 0
M  V30 2498 S 246.522 3.45725 -2.70221 0
M  V30 2499 H 243.34 0.485878 -0.51908 0
M  V30 2500 H 245.942 0.756578 -1.80267 0
M  V30 2501 H 244.646 2.1917 -3.46976 0
M  V30 2502 H 244.177 3.28757 -2.16061 0
M  V30 2503 H 246.192 4.53996 -2.00255 0
M  V30 2504 N 245.365 1.30045 0.890287 0
M  V30 2505 C 246.275 1.17885 2.02831 0
M  V30 2506 C 247.291 0.0999609 1.73713 0
M  V30 2507 O 248.467 0.313867 1.98939 0
M  V30 2508 C 245.532 0.866079 3.35708 0
M  V30 2509 C 244.593 2.02979 3.78283 0
M  V30 2510 C 243.826 1.73184 5.0482 0
M  V30 2511 O 244.049 0.657237 5.66601 0
M  V30 2512 O 242.983 2.58267 5.43674 0
M  V30 2513 H 246.809 2.13474 2.16015 0
M  V30 2514 H 244.394 1.09587 1.01543 0
M  V30 2515 H 246.276 0.706623 4.15433 0
M  V30 2516 H 244.951 -0.0599443 3.23644 0
M  V30 2517 H 243.858 2.24454 2.99285 0
M  V30 2518 H 245.191 2.93734 3.94944 0
M  V30 2519 N 246.843 -1.10192 1.12674 0
M  V30 2520 C 248.091 -1.81845 0.881861 0
M  V30 2521 C 248.412 -1.85737 -0.593867 0
M  V30 2522 O 247.682 -1.33724 -1.4316 0
M  V30 2523 H 246.262 -0.673432 0.323261 0
M  V30 2524 H 248.924 -1.33316 1.42172 0
M  V30 2525 H 248.02 -2.85288 1.2656 0
M  V30 2526 N 248.321 -0.919034 -1.28029 0
M  V30 2527 C 249.561 -0.562107 -1.96519 0
M  V30 2528 C 249.925 0.878784 -1.70708 0
M  V30 2529 O 251.126 1.34355 -2.32813 0
M  V30 2530 C 249.397 -0.868953 -3.46676 0
M  V30 2531 S 250.956 -0.619237 -4.34409 0
M  V30 2532 H 247.774 -0.2078 -0.679956 0
M  V30 2533 H 250.376 -1.18562 -1.55446 0
M  V30 2534 H 249.08 -1.91547 -3.62957 0
M  V30 2535 H 248.611 -0.234301 -3.92702 0
M  V30 2536 H 250.626 0.526995 -4.93394 0
M  V30 2537 N 249.799 1.42003 -0.683588 0
M  V30 2538 C 250.746 2.30798 -0.0107309 0
M  V30 2539 C 251.716 1.4645 0.783688 0
M  V30 2540 O 252.901 1.75263 0.754156 0
M  V30 2541 C 250.041 3.3238 0.928306 0
M  V30 2542 C 249.154 4.31814 0.126776 0
M  V30 2543 C 248.289 5.20468 1.06236 0
M  V30 2544 C 247.328 6.11577 0.253035 0
M  V30 2545 N 246.465 6.92754 1.14179 0
M  V30 2546 H 251.305 2.8778 -0.773727 0
M  V30 2547 H 248.842 1.41745 -0.393283 0
M  V30 2548 H 250.8 3.89813 1.48666 0
M  V30 2549 H 249.43 2.76976 1.65783 0
M  V30 2550 H 248.482 3.76427 -0.54833 0
M  V30 2551 H 249.794 4.96276 -0.501192 0
M  V30 2552 H 248.948 5.82677 1.69035 0
M  V30 2553 H 247.687 4.56204 1.7242 0
M  V30 2554 H 246.692 5.48428 -0.388108 0
M  V30 2555 H 247.917 6.77892 -0.404839 0
M  V30 2556 H 245.863 6.3111 1.78987 0
M  V30 2557 H 245.78 7.53855 0.569111 0
M  V30 2558 H 247.048 7.59441 1.75697 0
M  V30 2559 N 251.277 0.427512 1.51691 0
M  V30 2560 C 252.24 -0.377132 2.26076 0
M  V30 2561 C 253.24 -0.958089 1.29141 0
M  V30 2562 O 254.43 -0.83408 1.52934 0
M  V30 2563 C 251.562 -1.53262 3.04506 0
M  V30 2564 H 252.755 0.27464 2.9864 0
M  V30 2565 H 250.308 0.180445 1.55255 0
M  V30 2566 H 251.043 -2.22072 2.36335 0
M  V30 2567 H 250.828 -1.12232 3.75694 0
M  V30 2568 H 252.318 -2.10135 3.60878 0
M  V30 2569 N 252.755 -1.56801 0.158532 0
M  V30 2570 C 254.002 -1.9649 -0.489679 0
M  V30 2571 C 254.33 -1.04394 -1.6411 0
M  V30 2572 O 253.585 -0.0754401 -1.95555 0
M  V30 2573 C 253.884 -3.4235 -1.02623 0
M  V30 2574 C 253.55 -4.50899 0.00794526 0
M  V30 2575 C 252.212 -4.80312 0.292207 0
M  V30 2576 C 254.564 -5.16333 0.710584 0
M  V30 2577 C 251.892 -5.72461 1.28472 0
M  V30 2578 C 254.244 -6.09553 1.69199 0
M  V30 2579 C 252.908 -6.37339 1.98383 0
M  V30 2580 H 252.178 -0.719009 -0.179186 0
M  V30 2581 H 254.825 -1.8989 0.247798 0
M  V30 2582 H 253.13 -3.45838 -1.84128 0
M  V30 2583 H 254.827 -3.70393 -1.53656 0
M  V30 2584 H 251.417 -4.28015 -0.22379 0
M  V30 2585 H 255.601 -4.93732 0.504174 0
M  V30 2586 H 250.857 -5.92278 1.51714 0
M  V30 2587 H 255.031 -6.59327 2.24189 0
M  V30 2588 H 252.658 -7.08546 2.7544 0
M  V30 2589 N 254.233 0.115231 -1.57178 0
M  V30 2590 C 255.48 0.822351 -1.8505 0
M  V30 2591 C 255.808 1.79701 -0.744168 0
M  V30 2592 O 255.063 1.93909 0.26414 0
M  V30 2593 C 255.362 1.60324 -3.19423 0
M  V30 2594 C 255.028 0.772536 -4.44233 0
M  V30 2595 C 253.69 0.543468 -4.78121 0
M  V30 2596 C 256.042 0.193746 -5.2084 0
M  V30 2597 C 253.37 -0.274583 -5.86057 0
M  V30 2598 C 255.722 -0.611517 -6.29637 0
M  V30 2599 C 254.386 -0.850867 -6.62055 0
M  V30 2600 H 253.656 0.30092 -0.677147 0
M  V30 2601 H 256.303 0.0845802 -1.91313 0
M  V30 2602 H 254.608 2.41203 -3.08753 0
M  V30 2603 H 256.305 2.1544 -3.38211 0
M  V30 2604 H 252.895 0.96117 -4.17683 0
M  V30 2605 H 257.079 0.357926 -4.95008 0
M  V30 2606 H 252.335 -0.469206 -6.09597 0
M  V30 2607 H 256.509 -1.06697 -6.88178 0
M  V30 2608 H 254.136 -1.48657 -7.45523 0
M  V30 2609 N 255.711 1.52812 0.385517 0
M  V30 2610 C 256.658 1.77838 1.47113 0
M  V30 2611 C 257.628 0.621757 1.54024 0
M  V30 2612 O 258.813 0.861846 1.70226 0
M  V30 2613 C 255.953 1.95618 2.84302 0
M  V30 2614 C 255.066 3.23316 2.86515 0
M  V30 2615 C 254.201 3.31394 4.15152 0
M  V30 2616 C 253.24 4.53201 4.1143 0
M  V30 2617 N 252.377 4.58542 5.3168 0
M  V30 2618 H 257.217 2.70482 1.25073 0
M  V30 2619 H 254.754 1.34006 0.606692 0
M  V30 2620 H 256.712 2.03912 3.63972 0
M  V30 2621 H 255.342 1.06331 3.04784 0
M  V30 2622 H 254.394 3.24076 1.99195 0
M  V30 2623 H 255.706 4.13045 2.79634 0
M  V30 2624 H 254.86 3.3889 5.03228 0
M  V30 2625 H 253.599 2.39645 4.24761 0
M  V30 2626 H 252.604 4.45827 3.21742 0
M  V30 2627 H 253.829 5.46271 4.03442 0
M  V30 2628 H 251.775 3.69686 5.41912 0
M  V30 2629 H 251.692 5.42148 5.26889 0
M  V30 2630 H 252.96 4.70296 6.21644 0
M  V30 2631 N 257.189 -0.644168 1.43834 0
M  V30 2632 C 258.605 -0.960875 1.27434 0
M  V30 2633 C 258.805 -2.00499 0.200618 0
M  V30 2634 O 257.861 -2.49018 -0.417906 0
M  V30 2635 C 259.174 -1.43653 2.64167 0
M  V30 2636 C 260.722 -1.55271 2.71772 0
M  V30 2637 C 261.197 -2.06224 4.08944 0
M  V30 2638 N 262.688 -2.13513 4.11055 0
M  V30 2639 C 263.423 -2.54081 5.14033 0
M  V30 2640 N 262.919 -2.9388 6.27381 0
M  V30 2641 N 264.712 -2.54101 5.01387 0
M  V30 2642 H 256.863 0.0465779 2.12349 0
M  V30 2643 H 259.126 -0.0417638 0.94708 0
M  V30 2644 H 258.832 -0.743706 3.43747 0
M  V30 2645 H 258.706 -2.40993 2.90176 0
M  V30 2646 H 261.093 -2.23653 1.92519 0
M  V30 2647 H 261.174 -0.563395 2.49519 0
M  V30 2648 H 260.818 -1.38441 4.88668 0
M  V30 2649 H 260.748 -3.06003 4.28567 0
M  V30 2650 H 263.239 -1.85493 3.29242 0
M  V30 2651 H 263.552 -3.2361 7.01781 0
M  V30 2652 H 261.897 -2.91663 6.30839 0
M  V30 2653 H 265.088 -2.22391 4.11898 0
M  V30 2654 H 265.261 -2.85394 5.81768 0
M  V30 2655 N 258.668 -1.30515 -0.883378 0
M  V30 2656 C 259.893 -1.22487 -1.67367 0
M  V30 2657 C 260.318 0.208767 -1.86938 0
M  V30 2658 O 259.676 1.15015 -1.40148 0
M  V30 2659 C 259.724 -1.96041 -3.02655 0
M  V30 2660 O 258.828 -1.28859 -3.91751 0
M  V30 2661 H 258.169 -0.423573 -0.511353 0
M  V30 2662 H 260.699 -1.72362 -1.10239 0
M  V30 2663 H 260.709 -2.05124 -3.52687 0
M  V30 2664 H 259.384 -3.00307 -2.8773 0
M  V30 2665 H 257.961 -1.28141 -3.50192 0
M  V30 2666 N 260.146 1.09593 -1.13257 0
M  V30 2667 C 261.395 1.81105 -0.887917 0
M  V30 2668 C 261.708 1.86563 0.587672 0
M  V30 2669 O 262.914 2.54367 0.949204 0
M  V30 2670 C 261.37 3.25338 -1.53895 0
M  V30 2671 C 260.978 3.28151 -3.04994 0
M  V30 2672 C 262.722 4.01617 -1.37492 0
M  V30 2673 C 260.629 4.66897 -3.6299 0
M  V30 2674 H 259.559 0.678661 -0.328534 0
M  V30 2675 H 262.21 1.23183 -1.36008 0
M  V30 2676 H 260.592 3.8331 -0.994446 0
M  V30 2677 H 261.766 2.79953 -3.66009 0
M  V30 2678 H 260.081 2.65361 -3.20893 0
M  V30 2679 H 262.678 5.04119 -1.78235 0
M  V30 2680 H 263.021 4.15072 -0.31957 0
M  V30 2681 H 263.554 3.50082 -1.88912 0
M  V30 2682 H 260.293 4.58643 -4.68323 0
M  V30 2683 H 259.813 5.15426 -3.06752 0
M  V30 2684 H 261.492 5.3587 -3.62563 0
M  V30 2685 N 261.624 0.925811 1.2754 0
M  V30 2686 C 262.556 0.380753 2.26015 0
M  V30 2687 C 263.569 -0.487485 1.5533 0
M  V30 2688 O 264.758 -0.300413 1.75954 0
M  V30 2689 C 261.858 -0.473259 3.35579 0
M  V30 2690 C 261.031 0.375249 4.35787 0
M  V30 2691 C 260.09 -0.415809 5.24555 0
M  V30 2692 O 259.116 0.175834 5.68928 0
M  V30 2693 N 260.318 -1.71607 5.54555 0
M  V30 2694 H 263.083 1.22725 2.73421 0
M  V30 2695 H 260.644 0.793037 1.41147 0
M  V30 2696 H 262.636 -1.00949 3.91907 0
M  V30 2697 H 261.206 -1.2205 2.87789 0
M  V30 2698 H 260.426 1.09279 3.7875 0
M  V30 2699 H 261.714 0.955399 4.99749 0
M  V30 2700 H 261.112 -2.2191 5.20358 0
M  V30 2701 H 259.669 -2.19887 6.1359 0
M  V30 2702 N 263.102 -1.41638 0.69111 0
M  V30 2703 C 264.35 -2.00902 0.219758 0
M  V30 2704 C 264.671 -1.54994 -1.18329 0
M  V30 2705 O 263.941 -0.778628 -1.79762 0
M  V30 2706 H 262.521 -0.74289 0.0782558 0
M  V30 2707 H 265.183 -1.73327 0.891271 0
M  V30 2708 H 264.279 -3.11224 0.233708 0
M  V30 2709 N 264.58 -0.43555 -1.51462 0
M  V30 2710 C 265.53 0.394701 -2.24558 0
M  V30 2711 C 266.514 0.99157 -1.26715 0
M  V30 2712 O 267.706 0.910007 -1.51815 0
M  V30 2713 C 264.835 1.4963 -3.08975 0
M  V30 2714 C 263.921 0.908912 -4.14246 0
M  V30 2715 N 264.312 0.0505335 -5.05775 0
M  V30 2716 C 262.61 1.17668 -4.30198 0
M  V30 2717 C 263.311 -0.279161 -5.8103 0
M  V30 2718 N 262.287 0.336767 -5.42556 0
M  V30 2719 H 266.089 -0.267106 -2.92684 0
M  V30 2720 H 263.603 -0.247518 -1.60503 0
M  V30 2721 H 265.6 2.10394 -3.59917 0
M  V30 2722 H 264.26 2.16046 -2.42393 0
M  V30 2723 H 265.271 -0.31577 -5.16936 0
M  V30 2724 H 261.948 1.83847 -3.74842 0
M  V30 2725 H 263.338 -0.977553 -6.64751 0
M  V30 2726 N 266.058 1.56714 -0.166846 0
M  V30 2727 C 267.006 2.19056 0.782123 0
M  V30 2728 C 268 1.15328 1.24079 0
M  V30 2729 O 269.206 1.33537 1.20697 0
M  V30 2730 H 265.581 0.70167 0.270486 0
M  V30 2731 H 267.552 2.97494 0.232322 0
M  V30 2732 C 266.301 2.84206 2.00306 0
M  V30 2733 H 265.624 3.63748 1.65914 0
M  V30 2734 H 267.064 3.31302 2.64604 0
M  V30 2735 C 265.523 1.83744 2.82382 0
M  V30 2736 O 266.053 1.32014 3.79388 0
M  V30 2737 N 264.259 1.52601 2.47308 0
M  V30 2738 H 263.806 1.9486 1.68485 0
M  V30 2739 H 263.764 0.856351 3.02513 0
M  V30 2740 N 267.536 -0.106894 1.57237 0
M  V30 2741 C 268.813 -0.843526 1.76477 0
M  V30 2742 C 269.193 -1.97499 0.745464 0
M  V30 2743 O 268.541 -2.27357 -0.228306 0
M  V30 2744 C 268.751 -1.34903 3.21873 0
M  V30 2745 C 270.099 -1.79654 3.8472 0
M  V30 2746 O 271.123 -1.44554 3.2555 0
M  V30 2747 O 269.982 -2.44515 4.88748 0
M  V30 2748 H 267.076 -0.401468 0.723016 0
M  V30 2749 H 269.622 -0.0896927 1.69463 0
M  V30 2750 H 268.394 -0.53781 3.87586 0
M  V30 2751 H 268.017 -2.16522 3.33473 0
M  V30 2752 N 269.014 -1.53014 -0.377408 0
M  V30 2753 C 270.244 -1.72265 -1.14054 0
M  V30 2754 C 270.652 -0.44601 -1.83868 0
M  V30 2755 O 269.995 0.590095 -1.73964 0
M  V30 2756 C 270.057 -2.82492 -2.22348 0
M  V30 2757 C 269.721 -4.23233 -1.72402 0
M  V30 2758 C 270.718 -5.05992 -1.19448 0
M  V30 2759 C 268.403 -4.696 -1.78273 0
M  V30 2760 C 270.397 -6.33203 -0.730268 0
M  V30 2761 C 268.084 -5.96792 -1.31464 0
M  V30 2762 C 269.082 -6.78424 -0.789297 0
M  V30 2763 O 268.77 -8.0323 -0.328077 0
M  V30 2764 H 268.502 -0.579873 -0.347453 0
M  V30 2765 H 271.056 -2.00502 -0.445882 0
M  V30 2766 H 269.286 -2.49702 -2.95272 0
M  V30 2767 H 270.975 -2.90034 -2.83963 0
M  V30 2768 H 271.741 -4.71349 -1.14259 0
M  V30 2769 H 267.62 -4.06142 -2.18106 0
M  V30 2770 H 271.164 -6.96868 -0.319542 0
M  V30 2771 H 267.061 -6.30937 -1.36342 0
M  V30 2772 H 267.829 -8.1727 -0.448493 0
M  V30 2773 N 270.492 0.636531 -1.44174 0
M  V30 2774 C 271.741 1.39213 -1.45954 0
M  V30 2775 C 272.054 1.95374 -0.0939119 0
M  V30 2776 O 273.26 2.71498 0.0107767 0
M  V30 2777 C 271.716 2.52025 -2.56927 0
M  V30 2778 C 271.324 2.024 -3.99673 0
M  V30 2779 C 273.068 3.29269 -2.67922 0
M  V30 2780 C 270.975 3.12521 -5.0208 0
M  V30 2781 H 269.905 0.523132 -0.542999 0
M  V30 2782 H 272.556 0.685349 -1.70221 0
M  V30 2783 H 270.938 3.25253 -2.25891 0
M  V30 2784 H 272.112 1.36073 -4.40251 0
M  V30 2785 H 270.427 1.37987 -3.92872 0
M  V30 2786 H 273.024 4.11352 -3.41605 0
M  V30 2787 H 273.367 3.78397 -1.73555 0
M  V30 2788 H 273.9 2.63129 -2.98342 0
M  V30 2789 H 270.639 2.68343 -5.98057 0
M  V30 2790 H 270.159 3.77507 -4.66099 0
M  V30 2791 H 271.838 3.77385 -5.25538 0
M  V30 2792 N 271.97 1.30982 0.876444 0
M  V30 2793 C 273.21 1.21589 1.64303 0
M  V30 2794 C 273.574 -0.223962 1.90689 0
M  V30 2795 O 274.775 -0.44128 2.65153 0
M  V30 2796 C 273.046 2.03007 2.94148 0
M  V30 2797 S 274.605 2.10405 3.85065 0
M  V30 2798 H 271.423 0.433161 0.563819 0
M  V30 2799 H 274.025 1.65565 1.03964 0
M  V30 2800 H 272.729 3.06719 2.72675 0
M  V30 2801 H 272.26 1.59725 3.59515 0
M  V30 2802 H 274.275 1.23765 4.80517 0
M  V30 2803 N 273.449 -1.08991 1.13837 0
M  V30 2804 C 274.86 -1.62746 0.914917 0
M  V30 2805 C 275.211 -1.88403 -0.547594 0
M  V30 2806 O 274.336 -1.63706 -1.41525 0
M  V30 2807 C 274.931 -2.95662 1.65437 0
M  V30 2808 C 273.49 -3.46225 1.47666 0
M  V30 2809 C 272.637 -2.20562 1.6807 0
M  V30 2810 H 275.588 -0.922946 1.29102 0
M  V30 2811 H 275.609 -3.63825 1.11407 0
M  V30 2812 H 275.121 -2.76956 2.71877 0
M  V30 2813 H 273.222 -3.70046 0.435478 0
M  V30 2814 H 273.335 -4.23368 2.24268 0
M  V30 2815 H 271.699 -2.29439 1.10589 0
M  V30 2816 H 272.482 -2.0437 2.7584 0
M  V30 2817 N 274.927 -0.932562 -1.27047 0
M  V30 2818 C 275.89 -0.440064 -2.24936 0
M  V30 2819 C 276.89 0.444071 -1.54547 0
M  V30 2820 O 278.08 0.244465 -1.72476 0
M  V30 2821 C 275.212 0.36678 -3.38921 0
M  V30 2822 H 276.405 -1.305 -2.70018 0
M  V30 2823 H 273.958 -0.713707 -1.39054 0
M  V30 2824 H 274.693 1.25033 -2.99228 0
M  V30 2825 H 274.478 -0.267204 -3.91188 0
M  V30 2826 H 275.968 0.701567 -4.11665 0
M  V30 2827 N 276.405 1.4127 -0.698611 0
M  V30 2828 C 277.633 2.05503 -0.239992 0
M  V30 2829 C 278.048 1.52584 1.11191 0
M  V30 2830 O 277.405 0.675323 1.69545 0
M  V30 2831 C 277.456 3.60987 -0.192429 0
M  V30 2832 O 277.177 4.1195 -1.49094 0
M  V30 2833 C 278.678 4.42371 0.28681 0
M  V30 2834 H 275.898 0.661748 -0.111045 0
M  V30 2835 H 278.442 1.80987 -0.95205 0
M  V30 2836 H 276.597 3.84533 0.470472 0
M  V30 2837 H 277.011 5.06018 -1.38007 0
M  V30 2838 H 278.485 5.51344 0.26896 0
M  V30 2839 H 278.962 4.18699 1.32619 0
M  V30 2840 H 279.568 4.23897 -0.345201 0
M  V30 2841 N 277.883 0.443576 1.51229 0
M  V30 2842 C 278.831 -0.37904 2.29491 0
M  V30 2843 C 279.825 -1.0153 1.35603 0
M  V30 2844 O 281.031 -0.94955 1.52917 0
M  V30 2845 H 277.406 -0.141053 0.738653 0
M  V30 2846 H 279.377 0.301799 2.9687 0
M  V30 2847 C 278.126 -1.46426 3.15364 0
M  V30 2848 H 277.449 -0.984037 3.87501 0
M  V30 2849 H 278.889 -2.01297 3.7317 0
M  V30 2850 C 277.348 -2.45099 2.31146 0
M  V30 2851 O 277.878 -3.49773 1.9754 0
M  V30 2852 N 276.084 -2.16139 1.94249 0
M  V30 2853 H 275.631 -1.31044 2.21777 0
M  V30 2854 H 275.589 -2.82398 1.38198 0
M  V30 2855 N 279.361 -1.56624 0.175154 0
M  V30 2856 C 280.293 -2.15333 -0.785128 0
M  V30 2857 C 281.306 -1.1099 -1.19101 0
M  V30 2858 O 282.495 -1.38162 -1.13019 0
M  V30 2859 C 279.595 -2.68427 -2.06882 0
M  V30 2860 C 278.768 -3.97466 -1.8259 0
M  V30 2861 C 277.827 -4.35585 -2.95215 0
M  V30 2862 O 276.853 -5.03389 -2.65684 0
M  V30 2863 N 278.055 -3.97457 -4.23094 0
M  V30 2864 H 280.82 -2.98359 -0.283187 0
M  V30 2865 H 278.381 -1.61898 -0.00749817 0
M  V30 2866 H 280.373 -2.90924 -2.81328 0
M  V30 2867 H 278.943 -1.89968 -2.48256 0
M  V30 2868 H 278.163 -3.83307 -0.920287 0
M  V30 2869 H 279.451 -4.81736 -1.63733 0
M  V30 2870 H 278.849 -3.42878 -4.49945 0
M  V30 2871 H 277.406 -4.24947 -4.9423 0
M  V30 2872 N 280.839 0.0985539 -1.57292 0
M  V30 2873 C 282.079 0.808332 -1.87737 0
M  V30 2874 C 282.443 1.7607 -0.76572 0
M  V30 2875 O 283.644 2.51358 -0.952499 0
M  V30 2876 C 281.915 1.52093 -3.23423 0
M  V30 2877 S 283.474 2.26947 -3.75554 0
M  V30 2878 H 280.292 0.269377 -0.657995 0
M  V30 2879 H 282.894 0.0656269 -1.9539 0
M  V30 2880 H 281.598 0.81363 -4.02254 0
M  V30 2881 H 281.129 2.30361 -3.189 0
M  V30 2882 H 283.144 3.53027 -3.48692 0
M  V30 2883 N 282.317 1.53212 0.369288 0
M  V30 2884 C 283.545 1.73119 1.13303 0
M  V30 2885 C 283.96 0.458455 1.83149 0
M  V30 2886 O 283.317 -0.568403 1.73423 0
M  V30 2887 C 283.368 2.89413 2.16616 0
M  V30 2888 O 283.089 4.11761 1.49614 0
M  V30 2889 C 284.59 3.21161 3.05566 0
M  V30 2890 H 281.81 0.579107 0.338934 0
M  V30 2891 H 284.354 1.99942 0.429338 0
M  V30 2892 H 282.509 2.64994 2.82589 0
M  V30 2893 H 282.923 4.76858 2.18419 0
M  V30 2894 H 284.397 4.05949 3.74045 0
M  V30 2895 H 284.874 2.36369 3.70171 0
M  V30 2896 H 285.48 3.47492 2.45213 0
M  V30 2897 N 283.795 -0.628877 1.44509 0
M  V30 2898 C 285.044 -1.38437 1.4669 0
M  V30 2899 C 285.357 -1.95322 0.104272 0
M  V30 2900 O 286.563 -2.715 0.00362163 0
M  V30 2901 C 285.019 -2.50659 2.5826 0
M  V30 2902 C 284.627 -2.00277 4.0074 0
M  V30 2903 C 286.371 -3.27844 2.69664 0
M  V30 2904 C 284.278 -3.09854 5.0373 0
M  V30 2905 H 283.208 -0.520245 0.545766 0
M  V30 2906 H 285.859 -0.676313 1.70582 0
M  V30 2907 H 284.241 -3.2405 2.27612 0
M  V30 2908 H 285.415 -1.33736 4.40966 0
M  V30 2909 H 283.73 -1.35901 3.93599 0
M  V30 2910 H 286.327 -4.09534 3.43781 0
M  V30 2911 H 286.67 -3.77471 1.75559 0
M  V30 2912 H 287.203 -2.61543 2.99733 0
M  V30 2913 H 283.942 -2.65168 5.99472 0
M  V30 2914 H 283.462 -3.7503 4.68095 0
M  V30 2915 H 285.141 -3.74592 5.27532 0
M  V30 2916 N 285.273 -1.31445 -0.869486 0
M  V30 2917 C 286.55 -1.11795 -1.60503 0
M  V30 2918 C 286.93 0.327168 -2.08549 0
M  V30 2919 O 286.278 1.32135 -1.8642 0
M  V30 2920 C 286.488 -2.13258 -2.76265 0
M  V30 2921 C 287.836 -2.45805 -3.46215 0
M  V30 2922 O 288.86 -2.11688 -2.86473 0
M  V30 2923 O 287.719 -3.04228 -4.5399 0
M  V30 2924 H 284.813 -0.430421 -0.706163 0
M  V30 2925 H 287.359 -1.42925 -0.914907 0
M  V30 2926 H 286.131 -3.10461 -2.3818 0
M  V30 2927 H 285.754 -1.83035 -3.52964 0
M  V30 2928 N 286.751 1.08385 -1.14413 0
M  V30 2929 C 287.698 2.15311 -0.831265 0
M  V30 2930 C 288.668 1.64751 0.211292 0
M  V30 2931 O 289.853 1.90627 0.0811674 0
M  V30 2932 C 286.993 3.43658 -0.315143 0
M  V30 2933 C 286.106 4.08064 -1.41802 0
M  V30 2934 C 285.241 5.24207 -0.859126 0
M  V30 2935 C 284.28 5.80554 -1.93967 0
M  V30 2936 N 283.417 6.88042 -1.39793 0
M  V30 2937 H 288.257 2.41415 -1.74708 0
M  V30 2938 H 285.794 1.18474 -0.871909 0
M  V30 2939 H 287.752 4.172 0.00230884 0
M  V30 2940 H 286.382 3.17839 0.56378 0
M  V30 2941 H 285.434 3.3228 -1.85187 0
M  V30 2942 H 286.746 4.45962 -2.23427 0
M  V30 2943 H 285.9 6.04689 -0.49359 0
M  V30 2944 H 284.639 4.87699 -0.011932 0
M  V30 2945 H 283.644 4.98725 -2.31415 0
M  V30 2946 H 284.869 6.19121 -2.79046 0
M  V30 2947 H 282.815 6.53493 -0.572919 0
M  V30 2948 H 282.732 7.24767 -2.15054 0
M  V30 2949 H 284 7.72255 -1.0603 0
M  V30 2950 N 288.23 0.939286 1.26551 0
M  V30 2951 C 289.178 0.43815 2.28436 0
M  V30 2952 C 290.172 -0.483587 1.62351 0
M  V30 2953 O 291.378 -0.362009 1.76322 0
M  V30 2954 H 287.753 0.123149 0.741848 0
M  V30 2955 H 289.724 1.31002 2.68106 0
M  V30 2956 C 288.473 -0.283052 3.46546 0
M  V30 2957 H 287.796 0.417043 3.97619 0
M  V30 2958 H 289.236 -0.597948 4.19763 0
M  V30 2959 C 287.695 -1.50018 3.01656 0
M  V30 2960 O 288.225 -2.59855 3.0633 0
M  V30 2961 N 286.431 -1.35608 2.57019 0
M  V30 2962 H 285.978 -0.46244 2.53415 0
M  V30 2963 H 285.936 -2.17165 2.27347 0
M  V30 2964 N 289.708 -1.40897 0.706093 0
M  V30 2965 C 291.124 -1.55042 0.37869 0
M  V30 2966 C 291.324 -1.67944 -1.11342 0
M  V30 2967 O 290.38 -1.66372 -1.89938 0
M  V30 2968 C 291.693 -2.78398 1.13643 0
M  V30 2969 C 293.241 -2.92206 1.12181 0
M  V30 2970 C 293.716 -4.18463 1.86152 0
M  V30 2971 N 295.207 -4.25443 1.83173 0
M  V30 2972 C 295.942 -5.2202 2.37239 0
M  V30 2973 N 295.438 -6.24563 2.99821 0
M  V30 2974 N 297.231 -5.14033 2.27435 0
M  V30 2975 H 289.382 -1.30769 1.67372 0
M  V30 2976 H 291.645 -0.631653 0.706907 0
M  V30 2977 H 291.351 -2.7511 2.19106 0
M  V30 2978 H 291.225 -3.70228 0.721853 0
M  V30 2979 H 293.612 -2.95004 0.0754171 0
M  V30 2980 H 293.693 -2.01521 1.57554 0
M  V30 2981 H 293.337 -4.16427 2.90776 0
M  V30 2982 H 293.267 -5.08141 1.38206 0
M  V30 2983 H 295.758 -3.51976 1.37556 0
M  V30 2984 H 296.071 -6.94665 3.38616 0
M  V30 2985 H 294.416 -6.25035 3.03902 0
M  V30 2986 H 297.607 -4.3285 1.78208 0
M  V30 2987 H 297.78 -5.89129 2.69873 0
M  V30 2988 N 291.186 -0.45159 -1.50991 0
M  V30 2989 C 292.602 -0.104647 -1.59257 0
M  V30 2990 C 292.802 1.38728 -1.4614 0
M  V30 2991 O 291.858 2.15866 -1.30989 0
M  V30 2992 C 293.171 -0.637468 -2.93865 0
M  V30 2993 C 294.719 -0.599166 -3.07212 0
M  V30 2994 C 295.194 -1.1092 -4.44366 0
M  V30 2995 N 296.685 -1.06778 -4.50725 0
M  V30 2996 C 297.42 -1.43314 -5.55201 0
M  V30 2997 N 296.916 -1.87204 -6.67028 0
M  V30 2998 N 298.709 -1.3504 -5.45638 0
M  V30 2999 H 290.86 -1.42214 -1.57762 0
M  V30 3000 H 293.123 -0.586921 -0.744465 0
M  V30 3001 H 292.829 -1.68187 -3.08879 0
M  V30 3002 H 292.703 -0.0702139 -3.77135 0
M  V30 3003 H 295.09 0.436277 -2.91857 0
M  V30 3004 H 295.171 -1.20299 -2.25747 0
M  V30 3005 H 294.815 -2.14318 -4.60467 0
M  V30 3006 H 294.745 -0.481773 -5.24392 0
M  V30 3007 H 297.236 -0.745643 -3.70471 0
M  V30 3008 H 297.549 -2.13282 -7.42786 0
M  V30 3009 H 295.894 -1.91142 -6.68199 0
M  V30 3010 H 299.085 -1.00607 -4.57161 0
M  V30 3011 H 299.258 -1.63841 -6.26945 0
M  V30 3012 N 292.664 1.56529 -0.183458 0
M  V30 3013 C 293.611 2.18546 0.742055 0
M  V30 3014 C 294.581 1.12912 1.2182 0
M  V30 3015 O 295.766 1.41115 1.28418 0
M  V30 3016 C 292.906 2.83977 1.96089 0
M  V30 3017 C 292.019 4.04105 1.52719 0
M  V30 3018 C 291.154 4.57427 2.70063 0
M  V30 3019 C 290.193 5.69938 2.23243 0
M  V30 3020 N 289.33 6.17717 3.33722 0
M  V30 3021 H 294.17 2.97284 0.206432 0
M  V30 3022 H 291.707 1.46823 0.0901571 0
M  V30 3023 H 293.665 3.20077 2.67594 0
M  V30 3024 H 292.295 2.07822 2.47002 0
M  V30 3025 H 291.347 3.73745 0.708436 0
M  V30 3026 H 292.659 4.85513 1.1436 0
M  V30 3027 H 291.813 4.95772 3.49708 0
M  V30 3028 H 290.552 3.75101 3.11689 0
M  V30 3029 H 289.557 5.31133 1.42048 0
M  V30 3030 H 290.782 6.54073 1.82661 0
M  V30 3031 H 288.728 5.38317 3.74902 0
M  V30 3032 H 288.645 6.94146 2.99495 0
M  V30 3033 H 289.913 6.60713 4.13616 0
M  V30 3034 N 294.142 -0.090211 1.57342 0
M  V30 3035 C 295.367 -0.810082 1.90925 0
M  V30 3036 C 295.792 -1.71248 0.778187 0
M  V30 3037 O 295.15 -1.79278 -0.269991 0
M  V30 3038 C 295.198 -1.59529 3.23393 0
M  V30 3039 O 294.302 -2.70461 3.11327 0
M  V30 3040 H 293.643 -0.222231 0.625707 0
M  V30 3041 H 296.173 -0.0639716 2.045 0
M  V30 3042 H 296.183 -1.97847 3.5682 0
M  V30 3043 H 294.858 -0.933055 4.05299 0
M  V30 3044 H 293.435 -2.35135 2.89423 0
M  V30 3045 N 295.62 -1.53406 -0.361157 0
M  V30 3046 C 296.86 -1.71507 -1.11197 0
M  V30 3047 C 297.224 -0.459337 -1.86425 0
M  V30 3048 O 298.425 -0.517102 -2.63779 0
M  V30 3049 C 296.696 -2.93307 -2.0422 0
M  V30 3050 S 298.255 -3.32135 -2.86761 0
M  V30 3051 H 295.073 -0.603448 -0.375995 0
M  V30 3052 H 297.675 -1.91516 -0.392642 0
M  V30 3053 H 296.379 -3.82891 -1.47724 0
M  V30 3054 H 295.91 -2.75712 -2.80618 0
M  V30 3055 H 297.925 -2.84493 -4.06544 0
M  V30 3056 N 297.098 0.621204 -1.44841 0
M  V30 3057 C 298.03 1.74615 -1.48466 0
M  V30 3058 C 299.043 1.58377 -0.37691 0
M  V30 3059 O 300.232 1.66508 -0.643215 0
M  V30 3060 C 297.332 3.12459 -1.31236 0
M  V30 3061 C 296.505 3.55064 -2.55438 0
M  V30 3062 C 295.564 4.71821 -2.32963 0
M  V30 3063 O 294.59 4.79628 -3.06505 0
M  V30 3064 N 295.792 5.64186 -1.36654 0
M  V30 3065 H 298.557 1.71973 -2.45449 0
M  V30 3066 H 296.118 0.806077 -1.40407 0
M  V30 3067 H 298.11 3.88302 -1.14032 0
M  V30 3068 H 296.68 3.09686 -0.4258 0
M  V30 3069 H 295.9 2.69324 -2.87851 0
M  V30 3070 H 297.188 3.80284 -3.38026 0
M  V30 3071 H 296.586 5.6058 -0.759344 0
M  V30 3072 H 295.143 6.39618 -1.25425 0
M  V30 3073 N 298.576 1.31904 0.862503 0
M  V30 3074 C 299.539 1.20131 1.95195 0
M  V30 3075 C 300.539 0.126409 1.60302 0
M  V30 3076 O 301.729 0.376234 1.70089 0
M  V30 3077 C 298.861 0.845691 3.30244 0
M  V30 3078 H 300.054 2.16943 2.07064 0
M  V30 3079 H 297.607 1.15622 1.05172 0
M  V30 3080 H 298.342 -0.120957 3.24074 0
M  V30 3081 H 298.127 1.62276 3.56944 0
M  V30 3082 H 299.617 0.787418 4.10109 0
M  V30 3083 N 300.054 -1.07777 1.14986 0
M  V30 3084 C 301.294 -1.81888 0.932527 0
M  V30 3085 C 301.658 -1.84509 -0.531064 0
M  V30 3086 O 302.859 -2.54448 -0.866577 0
M  V30 3087 C 301.13 -3.23244 1.52473 0
M  V30 3088 S 302.689 -4.14154 1.44989 0
M  V30 3089 H 299.507 -0.626752 0.335712 0
M  V30 3090 H 302.109 -1.29503 1.46455 0
M  V30 3091 H 300.813 -3.18922 2.58296 0
M  V30 3092 H 300.344 -3.80704 0.991381 0
M  V30 3093 H 302.359 -4.94247 0.439799 0
M  V30 3094 N 301.532 -0.945985 -1.26051 0
M  V30 3095 C 302.948 -0.649045 -1.45807 0
M  V30 3096 C 303.148 0.796158 -1.85104 0
M  V30 3097 O 302.204 1.57233 -1.97571 0
M  V30 3098 C 303.517 -1.61458 -2.53677 0
M  V30 3099 C 305.065 -1.62481 -2.67524 0
M  V30 3100 C 305.54 -2.57776 -3.7857 0
M  V30 3101 N 307.031 -2.5609 -3.85969 0
M  V30 3102 C 307.766 -3.26508 -4.7136 0
M  V30 3103 N 307.262 -4.0637 -5.61102 0
M  V30 3104 N 309.055 -3.15437 -4.65248 0
M  V30 3105 H 301.206 -1.88005 -0.988328 0
M  V30 3106 H 303.469 -0.808198 -0.4955 0
M  V30 3107 H 303.175 -2.64644 -2.31638 0
M  V30 3108 H 303.049 -1.37036 -3.51427 0
M  V30 3109 H 305.436 -0.600167 -2.88933 0
M  V30 3110 H 305.517 -1.90958 -1.70202 0
M  V30 3111 H 305.161 -3.60361 -3.57913 0
M  V30 3112 H 305.091 -2.26587 -4.75359 0
M  V30 3113 H 307.582 -1.98105 -3.21812 0
M  V30 3114 H 307.895 -4.57042 -6.23164 0
M  V30 3115 H 306.24 -4.10469 -5.60839 0
M  V30 3116 H 309.431 -2.52525 -3.94143 0
M  V30 3117 H 309.604 -3.70584 -5.31575 0
M  V30 3118 N 303.011 1.40521 -0.713556 0
M  V30 3119 C 303.941 2.33381 -0.0743864 0
M  V30 3120 C 304.922 1.52784 0.747735 0
M  V30 3121 O 306.107 1.81258 0.697071 0
M  V30 3122 C 303.237 3.36748 0.849598 0
M  V30 3123 C 302.191 4.27793 0.133247 0
M  V30 3124 C 301.517 5.21679 1.17281 0
M  V30 3125 C 302.817 5.12415 -1.01134 0
M  V30 3126 H 304.511 2.87081 -0.850007 0
M  V30 3127 H 302.057 1.38034 -0.410201 0
M  V30 3128 H 304.01 4.00648 1.30612 0
M  V30 3129 H 302.734 2.81439 1.65709 0
M  V30 3130 H 301.393 3.65342 -0.303426 0
M  V30 3131 H 301.041 4.62677 1.9733 0
M  V30 3132 H 300.741 5.83435 0.698397 0
M  V30 3133 H 302.265 5.88456 1.62947 0
M  V30 3134 H 303.679 5.69781 -0.634274 0
M  V30 3135 H 302.076 5.83203 -1.41399 0
M  V30 3136 H 303.146 4.48514 -1.84292 0
M  V30 3137 N 304.489 0.459591 1.5075 0
M  V30 3138 C 305.905 0.113092 1.59199 0
M  V30 3139 C 306.105 -1.37951 1.46874 0
M  V30 3140 O 305.161 -2.15168 1.32132 0
M  V30 3141 C 306.474 0.653043 2.93523 0
M  V30 3142 C 308.022 0.615449 3.0689 0
M  V30 3143 C 308.497 1.13275 4.43771 0
M  V30 3144 N 309.988 1.09167 4.50152 0
M  V30 3145 C 310.723 1.46256 5.54434 0
M  V30 3146 N 310.219 1.90739 6.66026 0
M  V30 3147 N 312.012 1.37932 5.44914 0
M  V30 3148 H 304.163 1.43049 1.57005 0
M  V30 3149 H 306.426 0.590861 0.741341 0
M  V30 3150 H 306.132 1.69822 3.07983 0
M  V30 3151 H 306.006 0.0902132 3.77092 0
M  V30 3152 H 308.393 -0.420793 2.92084 0
M  V30 3153 H 308.474 1.21495 2.25106 0
M  V30 3154 H 308.118 2.16757 4.59324 0
M  V30 3155 H 308.048 0.509576 5.24129 0
M  V30 3156 H 310.539 0.76528 3.7007 0
M  V30 3157 H 310.852 2.17218 7.41644 0
M  V30 3158 H 309.197 1.94683 6.67176 0
M  V30 3159 H 312.388 1.0303 4.56621 0
M  V30 3160 H 312.561 1.67164 6.26067 0
M  V30 3161 N 305.967 -1.56429 0.191757 0
M  V30 3162 C 306.914 -2.18936 -0.730454 0
M  V30 3163 C 307.884 -1.13557 -1.21219 0
M  V30 3164 O 309.069 -1.41794 -1.27668 0
M  V30 3165 C 306.209 -2.85013 -1.9458 0
M  V30 3166 C 305.322 -4.04909 -1.50574 0
M  V30 3167 C 304.457 -4.58853 -2.67634 0
M  V30 3168 C 303.496 -5.71114 -2.20217 0
M  V30 3169 N 302.633 -6.19478 -3.30442 0
M  V30 3170 H 307.473 -2.97389 -0.190664 0
M  V30 3171 H 305.01 -1.46869 -0.0823694 0
M  V30 3172 H 306.968 -3.21492 -2.65893 0
M  V30 3173 H 305.598 -2.09129 -2.45896 0
M  V30 3174 H 304.65 -3.74115 -0.688605 0
M  V30 3175 H 305.962 -4.86113 -1.11784 0
M  V30 3176 H 305.116 -4.97619 -3.47074 0
M  V30 3177 H 303.855 -3.76749 -3.09696 0
M  V30 3178 H 302.86 -5.31879 -1.3923 0
M  V30 3179 H 304.085 -6.55033 -1.79189 0
M  V30 3180 H 302.031 -5.40297 -3.72041 0
M  V30 3181 H 301.948 -6.95725 -2.9581 0
M  V30 3182 H 303.216 -6.62898 -4.10106 0
M  V30 3183 N 307.445 0.0818655 -1.57387 0
M  V30 3184 C 308.685 0.788375 -1.88584 0
M  V30 3185 C 309.049 1.75248 -0.784351 0
M  V30 3186 O 310.25 2.50334 -0.979105 0
M  V30 3187 C 308.521 1.48654 -3.25018 0
M  V30 3188 S 310.08 2.22951 -3.7794 0
M  V30 3189 H 306.898 0.262383 -0.660815 0
M  V30 3190 H 309.5 0.0448995 -1.95448 0
M  V30 3191 H 308.204 0.770919 -4.03094 0
M  V30 3192 H 307.735 2.26965 -3.21326 0
M  V30 3193 H 309.75 3.49309 -3.52417 0
M  V30 3194 N 308.923 1.53595 0.353017 0
M  V30 3195 C 310.153 1.74058 1.11299 0
M  V30 3196 C 310.561 0.475205 1.83135 0
M  V30 3197 O 309.904 -0.562344 1.74881 0
M  V30 3198 C 309.966 2.85994 2.17825 0
M  V30 3199 C 309.63 4.25923 1.65647 0
M  V30 3200 C 310.627 5.07829 1.11383 0
M  V30 3201 C 308.312 4.72377 1.7078 0
M  V30 3202 C 310.306 6.34285 0.629439 0
M  V30 3203 C 307.993 5.98808 1.21953 0
M  V30 3204 C 308.991 6.79594 0.681265 0
M  V30 3205 O 308.679 8.03651 0.200248 0
M  V30 3206 H 308.411 0.585327 0.338183 0
M  V30 3207 H 310.965 2.01186 0.413927 0
M  V30 3208 H 309.195 2.54368 2.91262 0
M  V30 3209 H 310.884 2.94515 2.79313 0
M  V30 3210 H 311.65 4.73107 1.06746 0
M  V30 3211 H 307.529 4.0956 2.11617 0
M  V30 3212 H 311.073 6.97288 0.208636 0
M  V30 3213 H 306.97 6.33026 1.26287 0
M  V30 3214 H 307.738 8.1788 0.318416 0
M  V30 3215 N 310.401 -0.613514 1.45168 0
M  V30 3216 C 311.311 -1.75296 1.55912 0
M  V30 3217 C 312.327 -1.68244 0.443856 0
M  V30 3218 O 313.503 -1.88706 0.70371 0
M  V30 3219 C 310.568 -3.1174 1.5172 0
M  V30 3220 C 309.629 -3.30291 2.74238 0
M  V30 3221 C 308.862 -4.60226 2.70236 0
M  V30 3222 O 309.085 -5.42168 1.77229 0
M  V30 3223 O 308.019 -4.81361 3.61352 0
M  V30 3224 H 311.845 -1.69183 2.52212 0
M  V30 3225 H 309.43 -0.776886 1.27612 0
M  V30 3226 H 311.312 -3.93044 1.51968 0
M  V30 3227 H 309.987 -3.18357 0.585697 0
M  V30 3228 H 308.894 -2.48598 2.79553 0
M  V30 3229 H 310.227 -3.28547 3.66494 0
M  V30 3230 N 311.879 -1.3236 -0.855495 0
M  V30 3231 C 313.125 -1.23054 -1.612 0
M  V30 3232 C 313.458 0.207404 -1.93089 0
M  V30 3233 O 312.733 1.14432 -1.57275 0
M  V30 3234 C 313.016 -2.08937 -2.93287 0
M  V30 3235 C 312.869 -3.61105 -2.68185 0
M  V30 3236 C 314.188 -1.94986 -3.94549 0
M  V30 3237 H 311.307 -0.448364 -0.584926 0
M  V30 3238 H 313.949 -1.62297 -0.987917 0
M  V30 3239 H 312.099 -1.75599 -3.46551 0
M  V30 3240 H 313.771 -4.04652 -2.21483 0
M  V30 3241 H 312.014 -3.83813 -2.02164 0
M  V30 3242 H 312.685 -4.16522 -3.62234 0
M  V30 3243 H 315.161 -2.24189 -3.5054 0
M  V30 3244 H 314.037 -2.57356 -4.84829 0
M  V30 3245 H 314.298 -0.917263 -4.3248 0
M  V30 3246 N 313.357 1.07166 -1.15556 0
M  V30 3247 C 314.605 1.79443 -0.929764 0
M  V30 3248 C 314.926 1.87246 0.544414 0
M  V30 3249 O 314.196 1.37473 1.39564 0
M  V30 3250 H 312.776 0.664625 -0.341003 0
M  V30 3251 H 315.438 1.29499 -1.45657 0
M  V30 3252 H 314.534 2.81832 -1.34079 0
M  V30 3253 N 314.835 0.952656 1.25548 0
M  V30 3254 C 315.768 0.415525 2.24385 0
M  V30 3255 C 316.746 -0.502046 1.54655 0
M  V30 3256 O 317.93 -0.436875 1.83368 0
M  V30 3257 C 315.057 -0.401734 3.36309 0
M  V30 3258 C 314.103 0.455949 4.24056 0
M  V30 3259 S 314.936 1.88698 5.01152 0
M  V30 3260 C 316.092 1.07809 6.16545 0
M  V30 3261 H 316.325 1.25315 2.69599 0
M  V30 3262 H 313.858 0.756587 1.34592 0
M  V30 3263 H 315.816 -0.867329 4.01233 0
M  V30 3264 H 314.477 -1.21416 2.89684 0
M  V30 3265 H 313.67 -0.170776 5.03711 0
M  V30 3266 H 313.272 0.856675 3.64056 0
M  V30 3267 H 315.564 0.325816 6.76716 0
M  V30 3268 H 316.507 1.84849 6.83547 0
M  V30 3269 H 316.915 0.60909 5.61204 0
M  V30 3270 N 316.313 -1.40141 0.720998 0
M  V30 3271 C 317.559 -2.01084 0.263231 0
M  V30 3272 C 317.892 -1.57052 -1.14229 0
M  V30 3273 O 317.167 -0.793027 -1.77599 0
M  V30 3274 C 317.45 -3.58401 0.349344 0
M  V30 3275 C 317.303 -4.12491 1.79363 0
M  V30 3276 C 318.622 -4.39231 -0.276351 0
M  V30 3277 H 315.741 -0.730572 0.0971228 0
M  V30 3278 H 318.383 -1.66543 0.914518 0
M  V30 3279 H 316.533 -3.87958 -0.205165 0
M  V30 3280 H 318.205 -3.93711 2.40394 0
M  V30 3281 H 316.448 -3.66576 2.31958 0
M  V30 3282 H 317.119 -5.21646 1.80524 0
M  V30 3283 H 319.595 -4.15637 0.196184 0
M  V30 3284 H 318.471 -5.48586 -0.185681 0
M  V30 3285 H 318.732 -4.20643 -1.36059 0
M  V30 3286 N 317.792 -0.46758 -1.50504 0
M  V30 3287 C 318.739 0.328413 -2.28452 0
M  V30 3288 C 319.709 0.990313 -1.33349 0
M  V30 3289 O 320.894 1.00343 -1.62284 0
M  V30 3290 C 318.034 1.40648 -3.15138 0
M  V30 3291 C 317.147 0.759709 -4.25267 0
M  V30 3292 C 316.282 1.81537 -4.99217 0
M  V30 3293 C 315.321 1.14866 -6.01226 0
M  V30 3294 N 314.458 2.14702 -6.68467 0
M  V30 3295 H 319.298 -0.342603 -2.96024 0
M  V30 3296 H 316.835 -0.180801 -1.45985 0
M  V30 3297 H 318.793 2.04315 -3.63746 0
M  V30 3298 H 317.423 2.04671 -2.49619 0
M  V30 3299 H 316.475 0.0105671 -3.80399 0
M  V30 3300 H 317.787 0.233243 -4.98254 0
M  V30 3301 H 316.941 2.52793 -5.51526 0
M  V30 3302 H 315.68 2.37564 -4.25928 0
M  V30 3303 H 314.685 0.42171 -5.4818 0
M  V30 3304 H 315.91 0.595334 -6.76485 0
M  V30 3305 H 313.856 2.69752 -5.97972 0
M  V30 3306 H 313.773 1.6703 -7.37317 0
M  V30 3307 H 315.041 2.85348 -7.25394 0
M  V30 3308 N 319.27 1.56325 -0.20005 0
M  V30 3309 C 320.51 1.99619 0.439519 0
M  V30 3310 C 320.874 1.08423 1.58456 0
M  V30 3311 O 322.075 1.40973 2.28867 0
M  V30 3312 C 320.346 3.46314 0.883258 0
M  V30 3313 S 321.905 4.11634 1.51997 0
M  V30 3314 H 318.723 0.697007 0.140363 0
M  V30 3315 H 321.325 1.93118 -0.304282 0
M  V30 3316 H 320.029 4.10381 0.0398967 0
M  V30 3317 H 319.56 3.56643 1.6604 0
M  V30 3318 H 321.575 4.09049 2.8088 0
M  V30 3319 N 320.748 -0.0735177 1.57428 0
M  V30 3320 C 321.996 -0.771472 1.86796 0
M  V30 3321 C 322.317 -1.78201 0.791804 0
M  V30 3322 O 321.587 -1.95074 -0.179718 0
M  V30 3323 H 320.167 -0.28791 0.689287 0
M  V30 3324 H 322.829 -0.0500161 1.94836 0
M  V30 3325 H 321.925 -1.28874 2.8425 0
M  V30 3326 N 322.226 -1.5378 -0.344866 0
M  V30 3327 C 323.451 -1.75211 -1.10977 0
M  V30 3328 C 323.876 -0.48936 -1.81623 0
M  V30 3329 O 323.234 0.557925 -1.72502 0
M  V30 3330 C 323.282 -2.93147 -2.09993 0
M  V30 3331 O 322.386 -2.63203 -3.17487 0
M  V30 3332 H 321.727 -0.581241 -0.321021 0
M  V30 3333 H 324.257 -2.00738 -0.395661 0
M  V30 3334 H 324.267 -3.19898 -2.53237 0
M  V30 3335 H 322.942 -3.84731 -1.5797 0
M  V30 3336 H 321.519 -2.47336 -2.79069 0
M  V30 3337 N 323.704 0.605807 -1.45491 0
M  V30 3338 C 325.12 0.926751 -1.29936 0
M  V30 3339 C 325.32 1.99896 -0.253706 0
M  V30 3340 O 324.376 2.50038 0.351737 0
M  V30 3341 C 325.689 1.36599 -2.67883 0
M  V30 3342 C 327.237 1.4801 -2.75793 0
M  V30 3343 C 327.712 1.95309 -4.14268 0
M  V30 3344 N 329.203 2.0254 -4.16571 0
M  V30 3345 C 329.938 2.40363 -5.20589 0
M  V30 3346 N 329.434 2.77143 -6.34952 0
M  V30 3347 N 331.227 2.40718 -5.07948 0
M  V30 3348 H 323.378 -0.102862 -2.12151 0
M  V30 3349 H 325.641 0.016639 -0.947854 0
M  V30 3350 H 325.347 0.652306 -3.45598 0
M  V30 3351 H 325.221 2.33215 -2.96463 0
M  V30 3352 H 327.608 2.1847 -1.98381 0
M  V30 3353 H 327.689 0.497041 -2.50925 0
M  V30 3354 H 327.333 1.25436 -4.92167 0
M  V30 3355 H 327.263 2.94532 -4.3653 0
M  V30 3356 H 329.754 1.76699 -3.34045 0
M  V30 3357 H 330.067 3.0489 -7.10114 0
M  V30 3358 H 328.412 2.74834 -6.3835 0
M  V30 3359 H 331.603 2.11392 -4.1765 0
M  V30 3360 H 331.776 2.69869 -5.89131 0
M  V30 3361 N 325.182 1.32811 0.848464 0
M  V30 3362 C 326.598 1.11937 1.13764 0
M  V30 3363 C 326.798 -0.0960789 2.01271 0
M  V30 3364 O 325.854 -0.779165 2.40178 0
M  V30 3365 C 327.167 2.402 1.809 0
M  V30 3366 C 328.715 2.46016 1.93508 0
M  V30 3367 C 329.19 3.74215 2.64059 0
M  V30 3368 N 330.681 3.75232 2.71579 0
M  V30 3369 C 331.416 4.71134 3.26833 0
M  V30 3370 N 330.912 5.77406 3.8285 0
M  V30 3371 N 332.705 4.58623 3.24995 0
M  V30 3372 H 324.856 2.1073 0.265855 0
M  V30 3373 H 327.119 0.930671 0.180431 0
M  V30 3374 H 326.825 3.29093 1.24058 0
M  V30 3375 H 326.699 2.51628 2.81004 0
M  V30 3376 H 329.086 1.57577 2.49506 0
M  V30 3377 H 329.167 2.38536 0.923811 0
M  V30 3378 H 328.811 4.63031 2.08722 0
M  V30 3379 H 328.741 3.78968 3.65637 0
M  V30 3380 H 331.232 2.98423 2.31845 0
M  V30 3381 H 331.545 6.46632 4.23187 0
M  V30 3382 H 329.89 5.81152 3.81165 0
M  V30 3383 H 333.081 3.74762 2.80484 0
M  V30 3384 H 333.254 5.33535 3.67756 0
M  V30 3385 N 326.66 -1.06551 1.16123 0
M  V30 3386 C 327.57 -2.17484 0.879662 0
M  V30 3387 C 328.586 -1.73377 -0.147104 0
M  V30 3388 O 329.762 -2.01379 0.0289128 0
M  V30 3389 C 326.827 -3.44591 0.381829 0
M  V30 3390 C 325.888 -4.0322 1.4735 0
M  V30 3391 C 325.121 -5.24261 0.999324 0
M  V30 3392 O 325.344 -5.70198 -0.151957 0
M  V30 3393 O 324.278 -5.74775 1.78653 0
M  V30 3394 H 328.104 -2.44075 1.80724 0
M  V30 3395 H 325.689 -1.16042 0.940992 0
M  V30 3396 H 327.571 -4.21254 0.111053 0
M  V30 3397 H 326.246 -3.19532 -0.51777 0
M  V30 3398 H 325.153 -3.2806 1.79798 0
M  V30 3399 H 326.486 -4.32568 2.34831 0
M  V30 3400 N 328.138 -0.959301 -1.25041 0
M  V30 3401 C 329.554 -0.664474 -1.4511 0
M  V30 3402 C 329.754 0.776481 -1.85938 0
M  V30 3403 O 328.81 1.55128 -1.99227 0
M  V30 3404 C 330.123 -1.64139 -2.5195 0
M  V30 3405 C 331.671 -1.65309 -2.65786 0
M  V30 3406 C 332.146 -2.61777 -3.75815 0
M  V30 3407 N 333.637 -2.60169 -3.83231 0
M  V30 3408 C 334.372 -3.31489 -4.6787 0
M  V30 3409 N 333.868 -4.12298 -5.56761 0
M  V30 3410 N 335.661 -3.20354 -4.61876 0
M  V30 3411 H 327.812 -1.89043 -0.968332 0
M  V30 3412 H 330.075 -0.813408 -0.4869 0
M  V30 3413 H 329.781 -2.67086 -2.28819 0
M  V30 3414 H 329.655 -1.40756 -3.49954 0
M  V30 3415 H 332.042 -0.630778 -2.8828 0
M  V30 3416 H 332.123 -1.92753 -1.68167 0
M  V30 3417 H 331.767 -3.64137 -3.54071 0
M  V30 3418 H 331.697 -2.31616 -4.72929 0
M  V30 3419 H 334.188 -2.01507 -3.19692 0
M  V30 3420 H 334.501 -4.63625 -6.18281 0
M  V30 3421 H 332.846 -4.16395 -5.56454 0
M  V30 3422 H 336.037 -2.56692 -3.91442 0
M  V30 3423 H 336.21 -3.76201 -5.27614 0
M  V30 3424 N 329.616 1.39756 -0.72842 0
M  V30 3425 C 330.856 2.025 -0.278078 0
M  V30 3426 C 331.22 1.5654 1.11173 0
M  V30 3427 O 332.421 2.11435 1.65978 0
M  V30 3428 C 330.692 3.55489 -0.369139 0
M  V30 3429 S 332.251 4.388 0.00232983 0
M  V30 3430 H 329.069 0.702534 -0.109391 0
M  V30 3431 H 331.671 1.70672 -0.95348 0
M  V30 3432 H 330.375 3.86429 -1.38204 0
M  V30 3433 H 329.906 3.92061 0.324308 0
M  V30 3434 H 331.921 4.80954 1.22055 0
M  V30 3435 N 331.094 0.475555 1.50254 0
M  V30 3436 C 332.342 -0.077738 2.0195 0
M  V30 3437 C 332.663 -1.39813 1.35931 0
M  V30 3438 O 331.933 -1.89249 0.506123 0
M  V30 3439 H 330.513 -0.031719 0.746326 0
M  V30 3440 H 333.175 0.626995 1.84539 0
M  V30 3441 H 332.271 -0.225995 3.11281 0
M  V30 3442 N 332.573 -1.56217 0.208337 0
M  V30 3443 C 333.803 -2.02043 -0.431523 0
M  V30 3444 C 334.211 -1.08755 -1.54819 0
M  V30 3445 O 333.554 -0.0870009 -1.83494 0
M  V30 3446 C 333.616 -3.44239 -1.03633 0
M  V30 3447 C 333.28 -4.56965 -0.0567502 0
M  V30 3448 C 334.277 -5.14624 0.738773 0
M  V30 3449 C 331.962 -5.02266 0.0581736 0
M  V30 3450 C 333.956 -6.16045 1.63605 0
M  V30 3451 C 331.643 -6.03528 0.959001 0
M  V30 3452 C 332.641 -6.60293 1.7465 0
M  V30 3453 O 332.329 -7.59586 2.6322 0
M  V30 3454 H 332.061 -0.666772 -0.111313 0
M  V30 3455 H 334.615 -2.02919 0.318277 0
M  V30 3456 H 332.845 -3.40391 -1.83497 0
M  V30 3457 H 334.534 -3.73793 -1.58221 0
M  V30 3458 H 335.3 -4.80483 0.660364 0
M  V30 3459 H 331.179 -4.57771 -0.544633 0
M  V30 3460 H 334.723 -6.60279 2.25116 0
M  V30 3461 H 330.62 -6.37092 1.03848 0
M  V30 3462 H 331.388 -7.77057 2.57148 0
M  V30 3463 N 334.051 0.0651679 -1.57465 0
M  V30 3464 C 335.467 0.420105 -1.53972 0
M  V30 3465 C 335.667 1.78782 -0.929474 0
M  V30 3466 O 334.723 2.46771 -0.534839 0
M  V30 3467 C 336.036 0.355084 -2.98596 0
M  V30 3468 C 337.584 0.434792 -3.09965 0
M  V30 3469 C 338.059 0.399609 -4.56253 0
M  V30 3470 N 339.55 0.459488 -4.60915 0
M  V30 3471 C 340.285 0.454584 -5.71595 0
M  V30 3472 N 339.781 0.404102 -6.9162 0
M  V30 3473 N 341.574 0.501635 -5.59857 0
M  V30 3474 H 333.725 -0.830328 -1.95498 0
M  V30 3475 H 335.988 -0.312244 -0.895102 0
M  V30 3476 H 335.694 -0.583357 -3.46828 0
M  V30 3477 H 335.568 1.16275 -3.58831 0
M  V30 3478 H 337.955 1.36366 -2.61703 0
M  V30 3479 H 338.036 -0.40157 -2.52628 0
M  V30 3480 H 337.68 -0.525436 -5.05175 0
M  V30 3481 H 337.61 1.25359 -5.11461 0
M  V30 3482 H 340.101 0.502482 -3.74544 0
M  V30 3483 H 340.414 0.404468 -7.71741 0
M  V30 3484 H 338.759 0.37069 -6.94011 0
M  V30 3485 H 341.95 0.538812 -4.64989 0
M  V30 3486 H 342.123 0.494345 -6.46112 0
M  V30 3487 N 335.529 1.53961 0.336706 0
M  V30 3488 C 336.459 1.85417 1.41925 0
M  V30 3489 C 337.44 0.709856 1.5458 0
M  V30 3490 O 338.625 0.962396 1.68676 0
M  V30 3491 C 335.755 2.06985 2.78881 0
M  V30 3492 C 334.709 3.22813 2.81026 0
M  V30 3493 C 334.035 3.29727 4.20932 0
M  V30 3494 C 335.335 4.60767 2.45949 0
M  V30 3495 H 337.029 2.76079 1.15848 0
M  V30 3496 H 334.575 1.32839 0.555859 0
M  V30 3497 H 336.528 2.27575 3.54665 0
M  V30 3498 H 335.252 1.13061 3.06406 0
M  V30 3499 H 333.911 3.0209 2.07695 0
M  V30 3500 H 333.559 2.33385 4.45579 0
M  V30 3501 H 333.259 4.07566 4.23277 0
M  V30 3502 H 334.783 3.52536 4.98549 0
M  V30 3503 H 336.197 4.81325 3.11446 0
M  V30 3504 H 334.594 5.4106 2.59566 0
M  V30 3505 H 335.664 4.6391 1.41122 0
M  V30 3506 N 337.007 -0.598083 1.45811 0
M  V30 3507 C 338.253 -1.35882 1.50545 0
M  V30 3508 C 338.586 -1.93616 0.150445 0
M  V30 3509 O 337.861 -1.75604 -0.83628 0
M  V30 3510 C 338.144 -2.49966 2.59208 0
M  V30 3511 C 337.997 -1.97367 4.04186 0
M  V30 3512 C 339.316 -3.52068 2.64076 0
M  V30 3513 H 336.435 -0.492717 0.548087 0
M  V30 3514 H 339.077 -0.673319 1.77669 0
M  V30 3515 H 337.227 -3.08443 2.3621 0
M  V30 3516 H 338.899 -1.43466 4.38423 0
M  V30 3517 H 337.142 -1.283 4.14393 0
M  V30 3518 H 337.813 -2.79649 4.75921 0
M  V30 3519 H 340.289 -3.03448 2.84708 0
M  V30 3520 H 339.165 -4.2937 3.41954 0
M  V30 3521 H 339.426 -4.08304 1.69531 0
M  V30 3522 N 338.485 -1.33259 -0.841409 0
M  V30 3523 C 339.901 -1.12538 -1.13169 0
M  V30 3524 C 340.101 0.0854037 -2.01319 0
M  V30 3525 O 339.157 0.766417 -2.40587 0
M  V30 3526 C 340.47 -2.41156 -1.79623 0
M  V30 3527 C 342.018 -2.47038 -1.922 0
M  V30 3528 C 342.493 -3.7561 -2.6207 0
M  V30 3529 N 343.984 -3.76667 -2.69585 0
M  V30 3530 C 344.719 -4.72861 -3.2433 0
M  V30 3531 N 344.215 -5.79428 -3.79783 0
M  V30 3532 N 346.008 -4.6034 -3.22558 0
M  V30 3533 H 338.159 -2.10868 -0.254676 0
M  V30 3534 H 340.422 -0.931615 -0.175493 0
M  V30 3535 H 340.128 -3.29747 -1.22311 0
M  V30 3536 H 340.002 -2.53114 -2.79666 0
M  V30 3537 H 342.389 -1.58898 -2.48667 0
M  V30 3538 H 342.47 -2.39022 -0.911148 0
M  V30 3539 H 342.114 -4.64131 -2.06263 0
M  V30 3540 H 342.044 -3.80902 -3.63622 0
M  V30 3541 H 344.535 -2.99648 -2.30259 0
M  V30 3542 H 344.848 -6.48867 -4.19752 0
M  V30 3543 H 343.193 -5.83166 -3.78078 0
M  V30 3544 H 346.384 -3.76244 -2.78492 0
M  V30 3545 H 346.557 -5.35478 -3.64921 0
M  V30 3546 N 339.963 1.05934 -1.16686 0
M  V30 3547 C 341.379 1.30938 -0.912542 0
M  V30 3548 C 341.579 1.96803 0.432533 0
M  V30 3549 O 340.635 2.23693 1.17123 0
M  V30 3550 C 341.948 2.18649 -2.06429 0
M  V30 3551 C 343.496 2.32055 -2.10047 0
M  V30 3552 C 343.971 3.23122 -3.24586 0
M  V30 3553 N 345.462 3.30706 -3.24327 0
M  V30 3554 C 346.197 4.01273 -4.09594 0
M  V30 3555 N 345.693 4.74332 -5.04956 0
M  V30 3556 N 347.486 3.97361 -3.97569 0
M  V30 3557 H 339.637 0.615777 -2.03278 0
M  V30 3558 H 341.9 0.334077 -0.887185 0
M  V30 3559 H 341.606 1.77534 -3.03603 0
M  V30 3560 H 341.48 3.19252 -2.00894 0
M  V30 3561 H 343.867 2.72415 -1.13464 0
M  V30 3562 H 343.948 1.31107 -2.19647 0
M  V30 3563 H 343.592 2.83477 -4.2143 0
M  V30 3564 H 343.522 4.24057 -3.12223 0
M  V30 3565 H 346.013 2.78644 -2.55276 0
M  V30 3566 H 346.326 5.25716 -5.6643 0
M  V30 3567 H 344.671 4.733 -5.08933 0
M  V30 3568 H 347.862 3.39405 -3.22369 0
M  V30 3569 H 348.035 4.52089 -4.64241 0
M  V30 3570 N 341.441 0.965919 1.2453 0
M  V30 3571 C 342.373 0.452465 2.2469 0
M  V30 3572 C 343.386 -0.437821 1.56802 0
M  V30 3573 O 344.575 -0.244283 1.76821 0
M  V30 3574 C 341.675 -0.366258 3.36915 0
M  V30 3575 C 340.848 0.513701 4.34373 0
M  V30 3576 C 339.907 -0.248716 5.25612 0
M  V30 3577 O 338.933 0.356745 5.68081 0
M  V30 3578 N 340.135 -1.53877 5.59734 0
M  V30 3579 H 342.9 1.31361 2.69378 0
M  V30 3580 H 340.461 0.837541 1.38553 0
M  V30 3581 H 342.453 -0.884297 3.94921 0
M  V30 3582 H 341.023 -1.12832 2.91526 0
M  V30 3583 H 340.243 1.21273 3.75082 0
M  V30 3584 H 341.531 1.11391 4.96457 0
M  V30 3585 H 340.929 -2.05243 5.27154 0
M  V30 3586 H 339.486 -2.00254 6.20275 0
M  V30 3587 N 342.919 -1.39368 0.735821 0
M  V30 3588 C 344.335 -1.54204 0.411492 0
M  V30 3589 C 344.535 -1.70268 -1.07755 0
M  V30 3590 O 343.591 -1.70364 -1.86366 0
M  V30 3591 C 344.904 -2.75925 1.19523 0
M  V30 3592 C 346.452 -2.89761 1.18354 0
M  V30 3593 C 346.927 -4.14421 1.94986 0
M  V30 3594 N 348.418 -4.21462 1.92156 0
M  V30 3595 C 349.153 -5.16871 2.48258 0
M  V30 3596 N 348.649 -6.18063 3.13001 0
M  V30 3597 N 350.442 -5.09093 2.38287 0
M  V30 3598 H 342.593 -1.27189 1.70108 0
M  V30 3599 H 344.856 -0.616517 0.720147 0
M  V30 3600 H 344.562 -2.70401 2.24892 0
M  V30 3601 H 344.436 -3.68614 0.800222 0
M  V30 3602 H 346.823 -2.94777 0.137975 0
M  V30 3603 H 346.904 -1.98133 1.61793 0
M  V30 3604 H 346.548 -4.10166 2.99543 0
M  V30 3605 H 346.478 -5.05095 1.48953 0
M  V30 3606 H 348.969 -3.48979 1.44991 0
M  V30 3607 H 349.282 -6.87326 3.53275 0
M  V30 3608 H 347.627 -6.18448 3.17091 0
M  V30 3609 H 350.818 -4.28973 1.8735 0
M  V30 3610 H 350.991 -5.83272 2.82308 0
M  V30 3611 N 344.397 -0.483516 -1.5 0
M  V30 3612 C 345.622 0.0667119 -2.07293 0
M  V30 3613 C 346.047 1.3164 -1.3436 0
M  V30 3614 O 345.405 1.76945 -0.394987 0
M  V30 3615 C 345.453 0.321126 -3.59167 0
M  V30 3616 O 344.557 1.39927 -3.87936 0
M  V30 3617 H 343.898 -0.0184758 -0.663743 0
M  V30 3618 H 346.428 -0.678125 -1.93035 0
M  V30 3619 H 346.438 0.557906 -4.04168 0
M  V30 3620 H 345.113 -0.592007 -4.11665 0
M  V30 3621 H 343.69 1.14882 -3.54763 0
M  V30 3622 N 345.875 1.56104 -0.216619 0
M  V30 3623 C 346.838 2.18819 0.681962 0
M  V30 3624 C 347.838 1.14866 1.12528 0
M  V30 3625 O 349.028 1.40128 1.03488 0
M  V30 3626 C 346.16 2.80756 1.93362 0
M  V30 3627 H 347.353 2.99595 0.135254 0
M  V30 3628 H 344.906 1.56265 0.0330003 0
M  V30 3629 H 345.641 2.03837 2.52232 0
M  V30 3630 H 345.426 3.56876 1.62426 0
M  V30 3631 H 346.916 3.28844 2.57393 0
M  V30 3632 N 347.353 -0.0568162 1.57498 0
M  V30 3633 C 348.63 -0.786954 1.79071 0
M  V30 3634 C 349.01 -1.95028 0.80792 0
M  V30 3635 O 348.358 -2.27968 -0.155858 0
M  V30 3636 C 348.568 -1.24594 3.26002 0
M  V30 3637 C 349.916 -1.67323 3.90241 0
M  V30 3638 O 350.94 -1.34124 3.29984 0
M  V30 3639 O 349.799 -2.28842 4.9628 0
M  V30 3640 H 346.893 -0.378262 0.735423 0
M  V30 3641 H 349.439 -0.035734 1.69662 0
M  V30 3642 H 348.211 -0.41423 3.89101 0
M  V30 3643 H 347.834 -2.05803 3.40192 0
M  V30 3644 N 348.832 -1.54138 -0.328536 0
M  V30 3645 C 349.742 -1.86192 -1.42723 0
M  V30 3646 C 350.758 -0.753382 -1.56844 0
M  V30 3647 O 351.934 -1.04718 -1.72035 0
M  V30 3648 C 348.999 -2.07824 -2.77507 0
M  V30 3649 C 348.06 -3.31641 -2.72603 0
M  V30 3650 C 347.293 -3.52232 -4.00959 0
M  V30 3651 O 347.516 -2.7636 -4.9898 0
M  V30 3652 O 346.45 -4.45699 -4.0452 0
M  V30 3653 H 350.276 -2.79608 -1.18547 0
M  V30 3654 H 347.861 -1.3998 -0.522104 0
M  V30 3655 H 349.743 -2.23411 -3.57303 0
M  V30 3656 H 348.418 -1.17596 -3.01584 0
M  V30 3657 H 347.325 -3.21444 -1.91376 0
M  V30 3658 H 348.658 -4.2191 -2.53481 0
M  V30 3659 N 350.31 0.590341 -1.46126 0
M  V30 3660 C 351.242 1.71427 -1.52136 0
M  V30 3661 C 352.255 1.57542 -0.41042 0
M  V30 3662 O 353.444 1.65106 -0.678389 0
M  V30 3663 C 350.544 3.09605 -1.37834 0
M  V30 3664 C 349.717 3.49566 -2.62912 0
M  V30 3665 C 348.776 4.66773 -2.42918 0
M  V30 3666 O 347.802 4.73019 -3.1661 0
M  V30 3667 N 349.004 5.61161 -1.4859 0
M  V30 3668 H 351.769 1.66728 -2.49042 0
M  V30 3669 H 349.33 0.776113 -1.42085 0
M  V30 3670 H 351.322 3.85796 -1.22243 0
M  V30 3671 H 349.892 3.08714 -0.491393 0
M  V30 3672 H 349.112 2.63158 -2.93499 0
M  V30 3673 H 350.4 3.73028 -3.46017 0
M  V30 3674 H 349.798 5.58844 -0.87808 0
M  V30 3675 H 348.355 6.36814 -1.38965 0
M  V30 3676 N 351.788 1.33704 0.83433 0
M  V30 3677 C 352.718 1.26967 1.95963 0
M  V30 3678 C 353.699 0.149337 1.69443 0
M  V30 3679 O 354.884 0.339852 1.91203 0
M  V30 3680 C 352.014 1.01275 3.32206 0
M  V30 3681 C 350.968 2.09652 3.73136 0
M  V30 3682 C 350.294 1.69166 5.07235 0
M  V30 3683 C 351.594 3.51372 3.86439 0
M  V30 3684 H 353.288 2.2112 2.01857 0
M  V30 3685 H 350.834 1.06447 0.969793 0
M  V30 3686 H 352.787 0.952106 4.10503 0
M  V30 3687 H 351.511 0.0356203 3.26581 0
M  V30 3688 H 350.17 2.14766 2.97104 0
M  V30 3689 H 349.818 0.701437 4.98085 0
M  V30 3690 H 349.518 2.41694 5.35591 0
M  V30 3691 H 351.042 1.64576 5.88003 0
M  V30 3692 H 352.456 3.48734 4.55036 0
M  V30 3693 H 350.853 4.22425 4.26236 0
M  V30 3694 H 351.923 3.89546 2.88759 0
M  V30 3695 N 353.266 -1.05314 1.17247 0
M  V30 3696 C 354.216 -2.11313 0.856196 0
M  V30 3697 C 355.2 -1.60013 -0.168694 0
M  V30 3698 O 356.392 -1.76968 0.0335624 0
M  V30 3699 C 353.521 -3.41301 0.369917 0
M  V30 3700 C 352.607 -3.99401 1.42616 0
M  V30 3701 N 352.998 -4.31481 2.63928 0
M  V30 3702 C 351.296 -4.27126 1.28373 0
M  V30 3703 C 351.997 -4.77799 3.31787 0
M  V30 3704 N 350.973 -4.77843 2.59166 0
M  V30 3705 H 354.775 -2.33976 1.77856 0
M  V30 3706 H 352.289 -1.2295 1.06099 0
M  V30 3707 H 354.286 -4.16713 0.124897 0
M  V30 3708 H 352.946 -3.20072 -0.546253 0
M  V30 3709 H 353.957 -4.21519 3.00902 0
M  V30 3710 H 350.634 -4.15289 0.429111 0
M  V30 3711 H 352.024 -5.11743 4.35395 0
M  V30 3712 N 354.744 -0.972509 -1.24016 0
M  V30 3713 C 355.984 -0.644951 -1.93958 0
M  V30 3714 C 356.348 0.80559 -1.74282 0
M  V30 3715 O 357.549 1.2436 -2.38302 0
M  V30 3716 C 355.82 -1.01521 -3.42678 0
M  V30 3717 S 357.379 -0.802927 -4.31391 0
M  V30 3718 H 354.197 -0.236452 -0.670531 0
M  V30 3719 H 356.799 -1.25048 -1.50277 0
M  V30 3720 H 355.503 -2.06769 -3.54506 0
M  V30 3721 H 355.034 -0.400648 -3.91355 0
M  V30 3722 H 357.049 0.317256 -4.95185 0
M  V30 3723 N 356.222 1.38976 -0.743202 0
M  V30 3724 C 357.185 2.28901 -0.117014 0
M  V30 3725 C 358.185 1.46698 0.658503 0
M  V30 3726 O 359.375 1.67274 0.486305 0
M  V30 3727 C 356.507 3.30309 0.84315 0
M  V30 3728 H 357.7 2.8578 -0.909373 0
M  V30 3729 H 355.253 1.47761 -0.509547 0
M  V30 3730 H 355.988 2.785 1.66157 0
M  V30 3731 H 355.773 3.91029 0.289594 0
M  V30 3732 H 357.263 3.97577 1.2776 0
M  V30 3733 N 357.7 0.491464 1.49741 0
M  V30 3734 C 358.948 -0.0563141 2.02022 0
M  V30 3735 C 359.269 -1.38363 1.37407 0
M  V30 3736 O 358.539 -1.88702 0.526166 0
M  V30 3737 H 357.119 -0.0238014 0.746621 0
M  V30 3738 H 359.781 0.646533 1.83864 0
M  V30 3739 H 358.877 -0.192967 3.11503 0
M  V30 3740 N 359.178 -1.55987 0.224894 0
M  V30 3741 C 360.125 -2.20436 -0.68385 0
M  V30 3742 C 361.095 -1.16102 -1.18783 0
M  V30 3743 O 362.28 -1.4447 -1.24632 0
M  V30 3744 C 359.42 -2.89076 -1.88491 0
M  V30 3745 C 358.533 -4.08012 -1.41951 0
M  V30 3746 C 357.668 -4.64426 -2.5784 0
M  V30 3747 C 356.707 -5.75656 -2.08053 0
M  V30 3748 N 355.844 -6.26347 -3.17227 0
M  V30 3749 H 360.684 -2.97727 -0.12754 0
M  V30 3750 H 358.221 -1.47011 -0.0511978 0
M  V30 3751 H 360.179 -3.27059 -2.59014 0
M  V30 3752 H 358.809 -2.14298 -2.41405 0
M  V30 3753 H 357.861 -3.75492 -0.609095 0
M  V30 3754 H 359.173 -4.88375 -1.01447 0
M  V30 3755 H 358.327 -5.04869 -3.3644 0
M  V30 3756 H 357.066 -3.83233 -3.01635 0
M  V30 3757 H 356.071 -5.34712 -1.27916 0
M  V30 3758 H 357.296 -6.58686 -1.65255 0
M  V30 3759 H 355.242 -5.48067 -3.60497 0
M  V30 3760 H 355.159 -7.01843 -2.80986 0
M  V30 3761 H 356.427 -6.71447 -3.95953 0
M  V30 3762 N 360.656 0.0484629 -1.57525 0
M  V30 3763 C 361.619 1.03956 -2.04269 0
M  V30 3764 C 362.619 1.30211 -0.943496 0
M  V30 3765 O 363.809 1.25539 -1.20771 0
M  V30 3766 C 360.941 2.37742 -2.44319 0
M  V30 3767 H 362.134 0.636182 -2.93075 0
M  V30 3768 H 359.687 0.294811 -1.53494 0
M  V30 3769 H 360.422 2.82866 -1.5861 0
M  V30 3770 H 360.207 2.20021 -3.24551 0
M  V30 3771 H 361.697 3.08936 -2.80978 0
M  V30 3772 N 362.134 1.5431 0.320358 0
M  V30 3773 C 363.081 1.83918 1.39438 0
M  V30 3774 C 364.051 0.686525 1.51248 0
M  V30 3775 O 365.236 0.933269 1.66417 0
M  V30 3776 C 362.376 2.075 2.75749 0
M  V30 3777 C 361.489 3.35177 2.72544 0
M  V30 3778 C 360.624 3.48704 4.00723 0
M  V30 3779 C 359.663 4.70244 3.91838 0
M  V30 3780 N 358.8 4.80679 5.11754 0
M  V30 3781 H 363.64 2.75544 1.13489 0
M  V30 3782 H 361.177 1.36459 0.549309 0
M  V30 3783 H 363.135 2.19166 3.54996 0
M  V30 3784 H 361.765 1.19163 3 0
M  V30 3785 H 360.817 3.32233 1.85271 0
M  V30 3786 H 362.129 4.24534 2.61863 0
M  V30 3787 H 361.283 3.59928 4.88402 0
M  V30 3788 H 360.022 2.57445 4.14214 0
M  V30 3789 H 359.027 4.59072 3.02544 0
M  V30 3790 H 360.252 5.6289 3.7991 0
M  V30 3791 H 358.198 3.92337 5.25745 0
M  V30 3792 H 358.115 5.64007 5.0342 0
M  V30 3793 H 359.383 4.96239 6.01138 0
M  V30 3794 N 363.613 -0.582584 1.46437 0
M  V30 3795 C 365.029 -0.905962 1.31394 0
M  V30 3796 C 365.229 -1.99468 0.285476 0
M  V30 3797 O 364.285 -2.50566 -0.311914 0
M  V30 3798 C 365.598 -1.3232 2.70022 0
M  V30 3799 C 367.146 -1.43604 2.78113 0
M  V30 3800 C 367.621 -1.88694 4.17323 0
M  V30 3801 N 369.112 -1.95887 4.19741 0
M  V30 3802 C 369.847 -2.32051 5.24347 0
M  V30 3803 N 369.343 -2.67006 6.39281 0
M  V30 3804 N 371.136 -2.32606 5.11713 0
M  V30 3805 H 363.287 0.1366 2.1196 0
M  V30 3806 H 365.55 -0.00155736 0.947999 0
M  V30 3807 H 365.256 -0.597242 3.46592 0
M  V30 3808 H 365.13 -2.28469 3.00136 0
M  V30 3809 H 367.517 -2.15286 2.01832 0
M  V30 3810 H 367.598 -0.457059 2.51684 0
M  V30 3811 H 367.242 -1.1759 4.941 0
M  V30 3812 H 367.172 -2.8755 4.4116 0
M  V30 3813 H 369.663 -1.71362 3.36814 0
M  V30 3814 H 369.976 -2.93554 7.14875 0
M  V30 3815 H 368.321 -2.64644 6.42642 0
M  V30 3816 H 371.512 -2.04721 4.2096 0
M  V30 3817 H 371.685 -2.60462 5.93349 0
M  V30 3818 N 365.091 -1.34144 -0.827227 0
M  V30 3819 C 366.316 -1.29476 -1.62021 0
M  V30 3820 C 366.741 0.129292 -1.87655 0
M  V30 3821 O 366.099 1.08967 -1.449 0
M  V30 3822 C 366.147 -2.08702 -2.94068 0
M  V30 3823 O 365.251 -1.45359 -3.85933 0
M  V30 3824 H 364.592 -0.444881 -0.492927 0
M  V30 3825 H 367.122 -1.76882 -1.02829 0
M  V30 3826 H 367.132 -2.19898 -3.43669 0
M  V30 3827 H 365.807 -3.12241 -2.74734 0
M  V30 3828 H 364.384 -1.42879 -3.44442 0
M  V30 3829 N 366.569 1.04691 -1.17803 0
M  V30 3830 C 367.817 1.7743 -0.967617 0
M  V30 3831 C 368.138 1.88359 0.504574 0
M  V30 3832 O 367.408 1.40402 1.36617 0
M  V30 3833 H 365.988 0.657242 -0.355024 0
M  V30 3834 H 368.65 1.2638 -1.48371 0
M  V30 3835 H 367.746 2.78924 -1.40027 0
M  V30 3836 N 368.047 0.979072 1.23499 0
M  V30 3837 C 369.295 0.645941 1.91499 0
M  V30 3838 C 369.616 -0.822948 1.76784 0
M  V30 3839 O 368.886 -1.58854 1.14639 0
M  V30 3840 H 367.466 0.235919 0.708767 0
M  V30 3841 H 370.128 1.2426 1.50152 0
M  V30 3842 H 369.224 0.896411 2.9895 0
M  V30 3843 N 369.525 -1.3858 0.750561 0
M  V30 3844 C 370.475 -2.27795 0.0965949 0
M  V30 3845 C 371.459 -1.45048 -0.696411 0
M  V30 3846 O 372.651 -1.67812 -0.562863 0
M  V30 3847 C 369.78 -3.33894 -0.798085 0
M  V30 3848 C 368.866 -4.241 0.0016067 0
M  V30 3849 N 369.257 -4.95067 1.03647 0
M  V30 3850 C 367.555 -4.45429 -0.225674 0
M  V30 3851 C 368.256 -5.61489 1.52004 0
M  V30 3852 N 367.232 -5.37135 0.835874 0
M  V30 3853 H 371.034 -2.80125 0.889228 0
M  V30 3854 H 368.548 -1.51446 0.586323 0
M  V30 3855 H 370.545 -3.96693 -1.28219 0
M  V30 3856 H 369.205 -2.83123 -1.5897 0
M  V30 3857 H 370.216 -4.98104 1.41819 0
M  V30 3858 H 366.893 -4.05571 -0.990872 0
M  V30 3859 H 368.283 -6.28264 2.38188 0
M  V30 3860 N 371.003 -0.499398 -1.49478 0
M  V30 3861 C 371.966 0.268838 -2.27618 0
M  V30 3862 C 372.966 0.895383 -1.33565 0
M  V30 3863 O 374.156 0.760164 -1.56739 0
M  V30 3864 C 371.288 1.38559 -3.11471 0
M  V30 3865 H 372.481 -0.416812 -2.96989 0
M  V30 3866 H 370.034 -0.254313 -1.54217 0
M  V30 3867 H 370.769 2.10544 -2.46661 0
M  V30 3868 H 370.554 0.941797 -3.80621 0
M  V30 3869 H 372.044 1.92678 -3.70493 0
M  V30 3870 N 372.481 1.55866 -0.233164 0
M  V30 3871 C 373.892 1.847 0.272554 0
M  V30 3872 C 374.243 1.15477 1.58617 0
M  V30 3873 O 373.368 0.42841 2.12117 0
M  V30 3874 C 373.963 3.35071 0.501299 0
M  V30 3875 C 372.522 3.6418 0.951304 0
M  V30 3876 C 371.669 2.77292 0.0208209 0
M  V30 3877 H 374.62 1.52005 -0.456074 0
M  V30 3878 H 374.641 3.55906 1.34577 0
M  V30 3879 H 374.153 3.85424 -0.454936 0
M  V30 3880 H 372.254 3.19293 1.92049 0
M  V30 3881 H 372.367 4.72071 0.817675 0
M  V30 3882 H 370.731 2.49131 0.529723 0
M  V30 3883 H 371.514 3.30448 -0.93054 0
M  V30 3884 N 373.959 -0.0401083 1.57549 0
M  V30 3885 C 375.375 -0.395556 1.54621 0
M  V30 3886 C 375.575 -1.77281 0.957799 0
M  V30 3887 O 374.631 -2.45888 0.574031 0
M  V30 3888 C 375.944 -0.307535 2.99123 0
M  V30 3889 C 377.492 -0.385425 3.10618 0
M  V30 3890 C 377.967 -0.326973 4.56831 0
M  V30 3891 N 379.458 -0.386102 4.61588 0
M  V30 3892 C 380.193 -0.363591 5.72246 0
M  V30 3893 N 379.689 -0.29402 6.92176 0
M  V30 3894 N 381.482 -0.412503 5.60584 0
M  V30 3895 H 373.633 0.861325 1.94152 0
M  V30 3896 H 375.896 0.326445 0.890021 0
M  V30 3897 H 375.602 0.638461 3.45856 0
M  V30 3898 H 375.476 -1.10552 3.60636 0
M  V30 3899 H 377.863 -1.32185 2.63839 0
M  V30 3900 H 377.944 0.44171 2.51957 0
M  V30 3901 H 377.588 0.605738 5.04275 0
M  V30 3902 H 377.518 -1.17207 5.13391 0
M  V30 3903 H 380.009 -0.442832 3.75296 0
M  V30 3904 H 380.322 -0.28164 7.72287 0
M  V30 3905 H 378.667 -0.260232 6.94513 0
M  V30 3906 H 381.858 -0.464769 4.65787 0
M  V30 3907 H 382.031 -0.391492 6.46816 0
M  V30 3908 N 375.437 -1.54477 -0.31217 0
M  V30 3909 C 376.683 -1.73483 -1.0503 0
M  V30 3910 C 377.016 -0.513125 -1.87298 0
M  V30 3911 O 376.291 0.489864 -1.8823 0
M  V30 3912 C 376.574 -3.01723 -1.96558 0
M  V30 3913 C 376.427 -4.3417 -1.17545 0
M  V30 3914 C 377.746 -3.25772 -2.95907 0
M  V30 3915 H 374.865 -0.631222 -0.380432 0
M  V30 3916 H 377.507 -1.87184 -0.325932 0
M  V30 3917 H 375.657 -2.90174 -2.58324 0
M  V30 3918 H 377.329 -4.5762 -0.581513 0
M  V30 3919 H 375.572 -4.31159 -0.477925 0
M  V30 3920 H 376.243 -5.20143 -1.84811 0
M  V30 3921 H 378.719 -3.36857 -2.44267 0
M  V30 3922 H 377.595 -4.16838 -3.57123 0
M  V30 3923 H 377.856 -2.43537 -3.68974 0
M  V30 3924 N 376.915 0.57481 -1.46744 0
M  V30 3925 C 378.331 0.898981 -1.31873 0
M  V30 3926 C 378.531 1.99313 -0.29605 0
M  V30 3927 O 377.587 2.50728 0.298621 0
M  V30 3928 C 378.9 1.30886 -2.7072 0
M  V30 3929 C 380.448 1.42127 -2.78871 0
M  V30 3930 C 380.923 1.86478 -4.18318 0
M  V30 3931 N 382.414 1.93658 -4.20774 0
M  V30 3932 C 383.149 2.29267 -5.2557 0
M  V30 3933 N 382.645 2.63612 -6.40688 0
M  V30 3934 N 384.438 2.29889 -5.1294 0
M  V30 3935 H 376.589 -0.147839 -2.11885 0
M  V30 3936 H 378.852 -0.00347013 -0.947994 0
M  V30 3937 H 378.558 0.578853 -3.46904 0
M  V30 3938 H 378.432 2.26874 -3.01343 0
M  V30 3939 H 380.819 2.14213 -2.0297 0
M  V30 3940 H 380.9 0.443705 -2.51922 0
M  V30 3941 H 380.544 1.14968 -4.94717 0
M  V30 3942 H 380.474 2.85207 -4.42679 0
M  V30 3943 H 382.965 1.69574 -3.37718 0
M  V30 3944 H 383.278 2.89759 -7.16421 0
M  V30 3945 H 381.623 2.61232 -6.44036 0
M  V30 3946 H 384.814 2.02485 -4.22039 0
M  V30 3947 H 384.987 2.57312 -5.94722 0
M  V30 3948 N 378.394 1.34581 0.820102 0
M  V30 3949 C 379.304 1.28471 1.96297 0
M  V30 3950 C 380.32 0.191902 1.72939 0
M  V30 3951 O 381.496 0.418879 1.96996 0
M  V30 3952 C 378.561 1.04281 3.30645 0
M  V30 3953 C 377.622 2.22745 3.66992 0
M  V30 3954 C 376.855 1.997 4.9493 0
M  V30 3955 O 377.078 0.956656 5.6232 0
M  V30 3956 O 376.012 2.86723 5.2922 0
M  V30 3957 H 379.838 2.24624 2.04396 0
M  V30 3958 H 377.423 1.14816 0.955913 0
M  V30 3959 H 379.305 0.925841 4.11104 0
M  V30 3960 H 377.98 0.111697 3.23507 0
M  V30 3961 H 376.887 2.40003 2.86966 0
M  V30 3962 H 378.22 3.14257 3.78819 0
M  V30 3963 N 379.872 -1.04064 1.18357 0
M  V30 3964 C 380.802 -2.14001 0.934113 0
M  V30 3965 C 381.783 -1.69616 -0.128186 0
M  V30 3966 O 382.968 -1.94185 0.0244093 0
M  V30 3967 C 380.098 -3.44253 0.459066 0
M  V30 3968 C 379.052 -4.02261 1.46185 0
M  V30 3969 C 378.378 -5.27992 0.844322 0
M  V30 3970 C 379.678 -4.38432 2.83856 0
M  V30 3971 H 381.372 -2.35127 1.85352 0
M  V30 3972 H 378.918 -1.12998 0.892604 0
M  V30 3973 H 380.871 -4.20522 0.271907 0
M  V30 3974 H 379.595 -3.22813 -0.495912 0
M  V30 3975 H 378.254 -3.28074 1.63595 0
M  V30 3976 H 377.902 -5.02862 -0.117845 0
M  V30 3977 H 377.602 -5.67765 1.51384 0
M  V30 3978 H 379.126 -6.06938 0.667693 0
M  V30 3979 H 380.54 -5.05688 2.70098 0
M  V30 3980 H 378.937 -4.89254 3.47491 0
M  V30 3981 H 380.007 -3.4826 3.37406 0
M  V30 3982 N 381.35 -0.985608 -1.22978 0
M  V30 3983 C 382.28 -0.549649 -2.26939 0
M  V30 3984 C 383.261 0.419803 -1.64838 0
M  V30 3985 O 384.446 0.31203 -1.91677 0
M  V30 3986 C 381.576 0.143652 -3.47003 0
M  V30 3987 C 380.53 -0.743606 -4.21491 0
M  V30 3988 C 379.856 0.0822027 -5.34637 0
M  V30 3989 C 381.156 -2.03694 -4.80943 0
M  V30 3990 H 382.85 -1.41862 -2.63658 0
M  V30 3991 H 380.396 -0.683571 -1.26741 0
M  V30 3992 H 382.349 0.459985 -4.18882 0
M  V30 3993 H 381.073 1.04711 -3.09359 0
M  V30 3994 H 379.732 -1.04347 -3.51436 0
M  V30 3995 H 379.38 0.986359 -4.93234 0
M  V30 3996 H 379.08 -0.508377 -5.85397 0
M  V30 3997 H 380.604 0.392797 -6.09335 0
M  V30 3998 H 382.018 -1.78504 -5.44802 0
M  V30 3999 H 380.415 -2.57573 -5.42011 0
M  V30 4000 H 381.485 -2.72042 -4.01399 0
M  V30 4001 N 382.828 1.3818 -0.7579 0
M  V30 4002 C 383.758 2.33027 -0.148597 0
M  V30 4003 C 384.739 1.55085 0.69875 0
M  V30 4004 O 385.924 1.83384 0.639053 0
M  V30 4005 C 383.054 3.3928 0.742034 0
M  V30 4006 C 382.008 4.28 -0.00291946 0
M  V30 4007 C 381.334 5.25146 1.00625 0
M  V30 4008 C 382.634 5.08938 -1.17385 0
M  V30 4009 H 384.328 2.84231 -0.940909 0
M  V30 4010 H 381.874 1.36659 -0.453908 0
M  V30 4011 H 383.827 4.046 1.17799 0
M  V30 4012 H 382.551 2.86569 1.56671 0
M  V30 4013 H 381.21 3.64192 -0.419504 0
M  V30 4014 H 380.858 4.68721 1.8251 0
M  V30 4015 H 380.558 5.85361 0.512428 0
M  V30 4016 H 382.082 5.93342 1.44143 0
M  V30 4017 H 383.496 5.67474 -0.815224 0
M  V30 4018 H 381.893 5.7841 -1.59882 0
M  V30 4019 H 382.963 4.42424 -1.98468 0
M  V30 4020 N 384.306 0.507319 1.49211 0
M  V30 4021 C 385.583 -0.0982702 1.95353 0
M  V30 4022 C 385.963 -1.53516 1.449 0
M  V30 4023 O 385.311 -2.18594 0.66551 0
M  V30 4024 C 385.521 -0.00440283 3.49 0
M  V30 4025 C 386.869 -0.175147 4.24239 0
M  V30 4026 O 387.893 -0.0792891 3.56112 0
M  V30 4027 O 386.752 -0.37276 5.45227 0
M  V30 4028 H 383.846 -0.0918236 0.821887 0
M  V30 4029 H 386.392 0.570307 1.5983 0
M  V30 4030 H 385.164 0.997402 3.78375 0
M  V30 4031 H 384.787 -0.712845 3.91158 0
M  V30 4032 N 385.784 -1.5574 0.241426 0
M  V30 4033 C 386.747 -2.19877 -0.647063 0
M  V30 4034 C 387.747 -1.16642 -1.10686 0
M  V30 4035 O 388.937 -1.41757 -1.01245 0
M  V30 4036 C 386.069 -2.83797 -1.88871 0
M  V30 4037 H 387.262 -2.99772 -0.087574 0
M  V30 4038 H 384.815 -1.56298 -0.00813574 0
M  V30 4039 H 385.55 -2.07824 -2.48957 0
M  V30 4040 H 385.335 -3.59414 -1.56728 0
M  V30 4041 H 386.825 -3.32898 -2.52129 0
M  V30 4042 N 387.262 0.0317525 -1.57568 0
M  V30 4043 C 388.192 1.03274 -2.0942 0
M  V30 4044 C 389.173 1.3788 -0.996143 0
M  V30 4045 O 390.358 1.46811 -1.27122 0
M  V30 4046 C 387.488 2.33448 -2.57137 0
M  V30 4047 C 386.442 2.13091 -3.71182 0
M  V30 4048 C 385.768 3.49001 -4.05095 0
M  V30 4049 C 387.068 1.51928 -4.99715 0
M  V30 4050 H 388.762 0.60112 -2.93303 0
M  V30 4051 H 386.308 0.287705 -1.41097 0
M  V30 4052 H 388.261 3.03802 -2.92032 0
M  V30 4053 H 386.985 2.78665 -1.70333 0
M  V30 4054 H 385.644 1.45171 -3.36632 0
M  V30 4055 H 385.292 3.91862 -3.15362 0
M  V30 4056 H 384.992 3.36207 -4.81911 0
M  V30 4057 H 386.516 4.20721 -4.42522 0
M  V30 4058 H 387.93 2.12196 -5.32584 0
M  V30 4059 H 386.327 1.49716 -5.81124 0
M  V30 4060 H 387.397 0.484811 -4.8247 0
M  V30 4061 N 388.74 1.54641 0.303973 0
M  V30 4062 C 389.965 1.78092 1.06292 0
M  V30 4063 C 390.39 0.537342 1.80262 0
M  V30 4064 O 389.748 -0.511993 1.7392 0
M  V30 4065 C 389.796 2.98612 2.02147 0
M  V30 4066 O 388.9 2.71528 3.10397 0
M  V30 4067 H 388.241 0.589548 0.305497 0
M  V30 4068 H 390.771 2.01716 0.3423 0
M  V30 4069 H 390.781 3.265 2.44667 0
M  V30 4070 H 389.456 3.88785 1.47714 0
M  V30 4071 H 388.033 2.54648 2.72413 0
M  V30 4072 N 390.218 -0.567019 1.47046 0
M  V30 4073 C 391.629 -1.14916 1.47143 0
M  V30 4074 C 391.98 -1.94954 0.220767 0
M  V30 4075 O 391.105 -2.05602 -0.67505 0
M  V30 4076 C 391.7 -2.09069 2.666 0
M  V30 4077 C 390.259 -2.62575 2.69687 0
M  V30 4078 C 389.406 -1.38755 2.40088 0
M  V30 4079 H 392.357 -0.354126 1.54699 0
M  V30 4080 H 392.378 -2.92789 2.43011 0
M  V30 4081 H 391.89 -1.50789 3.57609 0
M  V30 4082 H 389.991 -3.24681 1.82792 0
M  V30 4083 H 390.104 -3.04239 3.70102 0
M  V30 4084 H 388.468 -1.69098 1.90468 0
M  V30 4085 H 389.251 -0.822822 3.33293 0
M  V30 4086 N 391.696 -1.35014 -0.812953 0
M  V30 4087 C 392.606 -1.2951 -1.95613 0
M  V30 4088 C 393.622 -0.20107 -1.72834 0
M  V30 4089 O 394.798 -0.42932 -1.96771 0
M  V30 4090 C 391.863 -1.06033 -3.30088 0
M  V30 4091 C 390.924 -2.24688 -3.65805 0
M  V30 4092 C 390.157 -2.02322 -4.93864 0
M  V30 4093 O 390.38 -0.986464 -5.61805 0
M  V30 4094 O 389.314 -2.89525 -5.27692 0
M  V30 4095 H 393.14 -2.25705 -2.03202 0
M  V30 4096 H 390.725 -1.15321 -0.949811 0
M  V30 4097 H 392.607 -0.94763 -4.10607 0
M  V30 4098 H 391.282 -0.128852 -3.23443 0
M  V30 4099 H 390.189 -2.41521 -2.85689 0
M  V30 4100 H 391.522 -3.16261 -3.77147 0
M  V30 4101 N 393.175 1.03435 -1.18907 0
M  V30 4102 C 394.107 2.1165 -0.879595 0
M  V30 4103 C 395.12 1.62316 0.125439 0
M  V30 4104 O 396.309 1.78201 -0.103245 0
M  V30 4105 C 393.409 3.37622 -0.294042 0
M  V30 4106 C 392.582 4.16166 -1.34629 0
M  V30 4107 C 391.641 5.20457 -0.775274 0
M  V30 4108 O 390.667 5.50379 -1.4516 0
M  V30 4109 N 391.869 5.78949 0.424126 0
M  V30 4110 H 394.634 2.38791 -1.81105 0
M  V30 4111 H 392.195 1.19681 -1.09032 0
M  V30 4112 H 394.187 4.04572 0.101679 0
M  V30 4113 H 392.757 3.07873 0.541575 0
M  V30 4114 H 391.977 3.44444 -1.91707 0
M  V30 4115 H 393.265 4.65432 -2.05549 0
M  V30 4116 H 392.663 5.56948 0.991209 0
M  V30 4117 H 391.22 6.47334 0.761691 0
M  V30 4118 N 394.653 0.992116 1.22453 0
M  V30 4119 C 395.583 0.561677 2.26644 0
M  V30 4120 C 396.564 -0.411055 1.65059 0
M  V30 4121 O 397.749 -0.301861 1.9184 0
M  V30 4122 C 394.879 -0.125247 3.47074 0
M  V30 4123 C 393.833 0.765948 4.21091 0
M  V30 4124 C 393.159 -0.0538484 5.34673 0
M  V30 4125 C 394.459 2.06242 4.79856 0
M  V30 4126 H 396.153 1.43259 2.62902 0
M  V30 4127 H 393.699 0.690283 1.26377 0
M  V30 4128 H 395.652 -0.437764 4.1912 0
M  V30 4129 H 394.376 -1.03069 3.0991 0
M  V30 4130 H 393.035 1.0621 3.50878 0
M  V30 4131 H 392.683 -0.960188 4.9375 0
M  V30 4132 H 392.383 0.539415 5.85119 0
M  V30 4133 H 393.907 -0.360477 6.09535 0
M  V30 4134 H 395.321 1.8139 5.43848 0
M  V30 4135 H 393.718 2.60444 5.40638 0
M  V30 4136 H 394.788 2.74167 3.99951 0
M  V30 4137 N 396.131 -1.37776 0.765217 0
M  V30 4138 C 397.377 -2.00145 0.327072 0
M  V30 4139 C 397.71 -1.60607 -1.09175 0
M  V30 4140 O 396.985 -0.849127 -1.74986 0
M  V30 4141 C 397.268 -3.57109 0.46319 0
M  V30 4142 C 397.121 -4.06576 1.92395 0
M  V30 4143 C 398.44 -4.39888 -0.136473 0
M  V30 4144 H 395.559 -0.727113 0.120316 0
M  V30 4145 H 398.201 -1.63549 0.967039 0
M  V30 4146 H 396.351 -3.88414 -0.0816358 0
M  V30 4147 H 398.023 -3.85864 2.52798 0
M  V30 4148 H 396.266 -3.59011 2.43503 0
M  V30 4149 H 396.937 -5.15639 1.97028 0
M  V30 4150 H 399.413 -4.14803 0.328317 0
M  V30 4151 H 398.289 -5.48899 -0.0110582 0
M  V30 4152 H 398.55 -4.24758 -1.22608 0
M  V30 4153 N 397.609 -0.515225 -1.4894 0
M  V30 4154 C 398.539 0.244628 -2.32215 0
M  V30 4155 C 399.52 0.949136 -1.41157 0
M  V30 4156 O 400.705 0.937783 -1.70057 0
M  V30 4157 C 397.835 1.30096 -3.22013 0
M  V30 4158 C 396.789 0.715486 -4.21977 0
M  V30 4159 C 396.115 1.87339 -5.00808 0
M  V30 4160 C 397.415 -0.302982 -5.2142 0
M  V30 4161 H 399.109 -0.450501 -2.95991 0
M  V30 4162 H 396.655 -0.218098 -1.42339 0
M  V30 4163 H 398.608 1.84037 -3.79089 0
M  V30 4164 H 397.332 2.02547 -2.56207 0
M  V30 4165 H 395.991 0.197715 -3.66066 0
M  V30 4166 H 395.639 2.58592 -4.31438 0
M  V30 4167 H 395.339 1.48764 -5.68457 0
M  V30 4168 H 396.863 2.41686 -5.60732 0
M  V30 4169 H 398.277 0.148802 -5.73107 0
M  V30 4170 H 396.674 -0.60532 -5.97039 0
M  V30 4171 H 397.744 -1.21395 -4.69459 0
M  V30 4172 N 399.087 1.5561 -0.249682 0
M  V30 4173 C 400.315 2.03411 0.378352 0
M  V30 4174 C 400.73 1.12886 1.51335 0
M  V30 4175 O 400.087 0.143833 1.81932 0
M  V30 4176 C 400.138 3.50537 0.88351 0
M  V30 4177 O 399.859 4.37614 -0.20626 0
M  V30 4178 C 401.36 4.14113 1.58195 0
M  V30 4179 H 398.58 0.664994 0.08958 0
M  V30 4180 H 401.124 2.01044 -0.374357 0
M  V30 4181 H 399.279 3.5343 1.58639 0
M  V30 4182 H 399.693 5.24199 0.177782 0
M  V30 4183 H 401.167 5.18741 1.8871 0
M  V30 4184 H 401.644 3.60767 2.50487 0
M  V30 4185 H 402.25 4.15151 0.923573 0
M  V30 4186 N 400.565 -0.0233959 1.57583 0
M  V30 4187 C 401.495 -1.02162 2.09965 0
M  V30 4188 C 402.476 -1.3735 1.00344 0
M  V30 4189 O 403.661 -1.46135 1.27899 0
M  V30 4190 C 400.791 -2.32081 2.58371 0
M  V30 4191 C 399.745 -2.1112 3.72307 0
M  V30 4192 C 399.071 -3.46848 4.06941 0
M  V30 4193 C 400.371 -1.49276 5.00514 0
M  V30 4194 H 402.065 -0.585557 2.93618 0
M  V30 4195 H 399.611 -0.280218 1.41247 0
M  V30 4196 H 401.564 -3.02249 2.93639 0
M  V30 4197 H 400.288 -2.77758 1.71808 0
M  V30 4198 H 398.947 -1.43384 3.37397 0
M  V30 4199 H 398.595 -3.90184 3.17436 0
M  V30 4200 H 398.295 -3.33646 4.83688 0
M  V30 4201 H 399.819 -4.18369 4.44747 0
M  V30 4202 H 401.233 -2.09368 5.33702 0
M  V30 4203 H 399.63 -1.46632 5.8191 0
M  V30 4204 H 400.7 -0.459217 4.82721 0
M  V30 4205 N 402.043 -1.548 -0.295768 0
M  V30 4206 C 402.973 -1.89115 -1.36959 0
M  V30 4207 C 403.954 -0.75059 -1.52644 0
M  V30 4208 O 405.139 -1.00678 -1.66065 0
M  V30 4209 C 402.269 -2.14307 -2.73295 0
M  V30 4210 C 401.223 -3.30151 -2.72368 0
M  V30 4211 C 400.549 -3.40772 -4.12042 0
M  V30 4212 C 401.849 -4.67126 -2.33646 0
M  V30 4213 H 403.543 -2.79053 -1.08488 0
M  V30 4214 H 401.089 -1.34266 -0.520443 0
M  V30 4215 H 403.042 -2.36898 -3.48507 0
M  V30 4216 H 401.766 -1.21145 -3.03301 0
M  V30 4217 H 400.425 -3.0749 -1.99613 0
M  V30 4218 H 400.073 -2.45117 -4.39234 0
M  V30 4219 H 399.773 -4.18645 -4.12322 0
M  V30 4220 H 401.297 -3.6563 -4.89027 0
M  V30 4221 H 402.711 -4.89414 -2.98575 0
M  V30 4222 H 401.108 -5.47751 -2.45129 0
M  V30 4223 H 402.178 -4.67489 -1.28772 0
M  V30 4224 N 403.521 0.559213 -1.47345 0
M  V30 4225 C 404.431 1.69388 -1.62311 0
M  V30 4226 C 405.447 1.6648 -0.505993 0
M  V30 4227 O 406.623 1.85964 -0.773262 0
M  V30 4228 C 403.688 3.05894 -1.63185 0
M  V30 4229 C 402.749 3.19885 -2.86307 0
M  V30 4230 C 401.982 4.49879 -2.87131 0
M  V30 4231 O 402.205 5.35217 -1.97229 0
M  V30 4232 O 401.139 4.67618 -3.78968 0
M  V30 4233 H 404.965 1.59706 -2.58317 0
M  V30 4234 H 402.55 0.728989 -1.30407 0
M  V30 4235 H 404.432 3.87133 -1.66451 0
M  V30 4236 H 403.107 3.15964 -0.70345 0
M  V30 4237 H 402.014 2.38052 -2.88587 0
M  V30 4238 H 403.347 3.14718 -3.78435 0
M  V30 4239 N 404.999 1.35443 0.805782 0
M  V30 4240 C 405.962 1.28301 1.89925 0
M  V30 4241 C 406.962 0.194285 1.59622 0
M  V30 4242 O 408.152 0.448036 1.6834 0
M  V30 4243 C 405.284 0.984997 3.2636 0
M  V30 4244 H 406.477 2.2553 1.97677 0
M  V30 4245 H 404.03 1.19979 1.00173 0
M  V30 4246 H 404.765 0.016603 3.24296 0
M  V30 4247 H 404.55 1.77269 3.4974 0
M  V30 4248 H 406.04 0.960651 4.064 0
M  V30 4249 N 406.477 -1.02803 1.19454 0
M  V30 4250 C 407.387 -2.14575 0.948408 0
M  V30 4251 C 408.403 -1.73757 -0.091871 0
M  V30 4252 O 409.579 -2.01185 0.0929654 0
M  V30 4253 C 406.644 -3.43202 0.491265 0
M  V30 4254 C 405.705 -3.98328 1.60103 0
M  V30 4255 C 404.938 -5.20816 1.16561 0
M  V30 4256 O 405.161 -5.70392 0.0295238 0
M  V30 4257 O 404.095 -5.68801 1.96849 0
M  V30 4258 H 407.921 -2.38202 1.88397 0
M  V30 4259 H 405.506 -1.12989 0.977433 0
M  V30 4260 H 407.388 -4.20687 0.245015 0
M  V30 4261 H 406.063 -3.21018 -0.415851 0
M  V30 4262 H 404.97 -3.22174 1.90144 0
M  V30 4263 H 406.303 -4.24879 2.48473 0
M  V30 4264 N 407.956 -0.998596 -1.21925 0
M  V30 4265 C 409.367 -0.711939 -1.72593 0
M  V30 4266 C 409.718 0.770842 -1.80423 0
M  V30 4267 O 408.843 1.60237 -1.4544 0
M  V30 4268 C 409.438 -1.28567 -3.13458 0
M  V30 4269 C 407.997 -1.04828 -3.61508 0
M  V30 4270 C 407.144 -1.4024 -2.39224 0
M  V30 4271 H 410.095 -1.17027 -1.07193 0
M  V30 4272 H 410.116 -0.667098 -3.74607 0
M  V30 4273 H 409.628 -2.36486 -3.07727 0
M  V30 4274 H 407.729 0.0140383 -3.72597 0
M  V30 4275 H 407.842 -1.71566 -4.47328 0
M  V30 4276 H 406.206 -0.821077 -2.41103 0
M  V30 4277 H 406.989 -2.49176 -2.36149 0
M  V30 4278 N 409.434 1.37368 -0.772513 0
M  V30 4279 C 410.845 1.8231 -0.402493 0
M  V30 4280 C 411.196 1.6436 1.07146 0
M  V30 4281 O 410.321 1.15514 1.82991 0
M  V30 4282 C 410.916 3.30979 -0.723776 0
M  V30 4283 C 409.475 3.74195 -0.406802 0
M  V30 4284 C 408.622 2.59885 -0.967218 0
M  V30 4285 H 411.573 1.25829 -0.967099 0
M  V30 4286 H 411.594 3.80499 -0.00870832 0
M  V30 4287 H 411.106 3.44011 -1.7966 0
M  V30 4288 H 409.207 3.66732 0.658673 0
M  V30 4289 H 409.32 4.7027 -0.915588 0
M  V30 4290 H 407.684 2.51674 -0.391416 0
M  V30 4291 H 408.467 2.7571 -2.04546 0
M  V30 4292 N 410.912 0.523116 1.48665 0
M  V30 4293 C 411.862 -0.263106 2.26477 0
M  V30 4294 C 412.846 -0.916005 1.32281 0
M  V30 4295 O 414.038 -0.819946 1.56863 0
M  V30 4296 C 411.167 -1.31361 3.17174 0
M  V30 4297 C 410.253 -0.665849 4.1884 0
M  V30 4298 N 410.644 0.244434 5.05209 0
M  V30 4299 C 408.942 -0.923863 4.36326 0
M  V30 4300 C 409.643 0.617443 5.78414 0
M  V30 4301 N 408.619 -0.0198686 5.43596 0
M  V30 4302 H 412.421 0.437295 2.90629 0
M  V30 4303 H 409.935 0.340675 1.58787 0
M  V30 4304 H 411.932 -1.89052 3.71571 0
M  V30 4305 H 410.592 -2.01546 2.54576 0
M  V30 4306 H 411.603 0.616621 5.14216 0
M  V30 4307 H 408.28 -1.6168 3.84923 0
M  V30 4308 H 409.67 1.36346 6.57921 0
M  V30 4309 N 412.39 -1.55475 0.257931 0
M  V30 4310 C 413.636 -1.99502 -0.364266 0
M  V30 4311 C 413.969 -1.146 -1.56782 0
M  V30 4312 O 413.244 -0.211968 -1.93342 0
M  V30 4313 C 413.527 -3.51917 -0.763333 0
M  V30 4314 C 413.38 -4.4758 0.446371 0
M  V30 4315 C 414.699 -4.09742 -1.60623 0
M  V30 4316 H 411.818 -0.725277 -0.130929 0
M  V30 4317 H 414.46 -1.8653 0.361446 0
M  V30 4318 H 412.61 -3.63101 -1.38166 0
M  V30 4319 H 414.282 -4.48362 1.08487 0
M  V30 4320 H 412.525 -4.19947 1.08753 0
M  V30 4321 H 413.196 -5.51862 0.123645 0
M  V30 4322 H 415.672 -4.01727 -1.08418 0
M  V30 4323 H 414.548 -5.16631 -1.85429 0
M  V30 4324 H 414.809 -3.58889 -2.58169 0
M  V30 4325 N 413.868 0.0150385 -1.57593 0
M  V30 4326 C 414.798 1.01047 -2.10503 0
M  V30 4327 C 415.779 1.36816 -1.01071 0
M  V30 4328 O 416.964 1.45455 -1.28672 0
M  V30 4329 C 414.094 2.30708 -2.59598 0
M  V30 4330 C 413.048 2.09142 -3.73421 0
M  V30 4331 C 412.374 3.44685 -4.08774 0
M  V30 4332 C 413.674 1.46619 -5.01298 0
M  V30 4333 H 415.368 0.569978 -2.93925 0
M  V30 4334 H 412.914 0.272724 -1.41394 0
M  V30 4335 H 414.867 3.00687 -2.95238 0
M  V30 4336 H 413.591 2.76843 -1.73279 0
M  V30 4337 H 412.25 1.41592 -3.38153 0
M  V30 4338 H 411.898 3.88495 -3.195 0
M  V30 4339 H 411.598 3.31077 -4.8545 0
M  V30 4340 H 413.122 4.16004 -4.4696 0
M  V30 4341 H 414.536 2.06535 -5.34805 0
M  V30 4342 H 412.933 1.43544 -5.82679 0
M  V30 4343 H 414.003 0.433611 -4.82957 0
M  V30 4344 N 415.346 1.54954 0.287554 0
M  V30 4345 C 416.595 1.74081 1.01877 0
M  V30 4346 C 416.908 0.541135 1.87966 0
M  V30 4347 O 418.114 0.614491 2.64455 0
M  V30 4348 C 416.57 3.08042 1.86113 0
M  V30 4349 C 416.178 4.35531 1.04961 0
M  V30 4350 C 417.922 3.36523 2.58752 0
M  V30 4351 C 415.829 5.60538 1.88551 0
M  V30 4352 H 414.759 0.64884 0.384087 0
M  V30 4353 H 417.41 1.81426 0.275101 0
M  V30 4354 H 415.792 2.94696 2.64519 0
M  V30 4355 H 416.966 4.59751 0.31074 0
M  V30 4356 H 415.281 4.14085 0.43843 0
M  V30 4357 H 417.878 4.27122 3.21668 0
M  V30 4358 H 418.221 2.56 3.28283 0
M  V30 4359 H 418.754 3.50901 1.87386 0
M  V30 4360 H 415.493 6.43767 1.23466 0
M  V30 4361 H 415.013 5.40483 2.60074 0
M  V30 4362 H 416.692 5.98297 2.46273 0
M  V30 4363 N 416.824 -0.551391 1.4764 0
M  V30 4364 C 418.049 -1.33837 1.58437 0
M  V30 4365 C 418.474 -1.866 0.237063 0
M  V30 4366 O 417.832 -1.6328 -0.787994 0
M  V30 4367 C 417.88 -2.48014 2.61766 0
M  V30 4368 O 416.984 -3.50419 2.1744 0
M  V30 4369 H 416.325 -0.397299 0.532024 0
M  V30 4370 H 418.855 -0.665759 1.93465 0
M  V30 4371 H 418.865 -2.94503 2.82369 0
M  V30 4372 H 417.54 -2.08969 3.5959 0
M  V30 4373 H 416.117 -3.10196 2.06961 0
M  V30 4374 N 418.302 -1.35869 -0.798587 0
M  V30 4375 C 419.718 -1.16082 -1.09532 0
M  V30 4376 C 419.918 0.0213124 -2.01489 0
M  V30 4377 O 418.974 0.689488 -2.42904 0
M  V30 4378 C 420.287 -2.46748 -1.7186 0
M  V30 4379 C 421.835 -2.53028 -1.84244 0
M  V30 4380 C 422.31 -3.83758 -2.49988 0
M  V30 4381 N 423.801 -3.85053 -2.57465 0
M  V30 4382 C 424.536 -4.8294 -3.09122 0
M  V30 4383 N 424.032 -5.91217 -3.61157 0
M  V30 4384 N 425.825 -4.70369 -3.0775 0
M  V30 4385 H 417.976 -2.11571 -0.187461 0
M  V30 4386 H 420.239 -0.936726 -0.145765 0
M  V30 4387 H 419.945 -3.33471 -1.11759 0
M  V30 4388 H 419.819 -2.61883 -2.71472 0
M  V30 4389 H 422.206 -1.66729 -2.43486 0
M  V30 4390 H 422.287 -2.418 -0.834643 0
M  V30 4391 H 421.931 -4.70459 -1.91393 0
M  V30 4392 H 421.861 -3.92278 -3.5132 0
M  V30 4393 H 424.352 -3.06822 -2.20609 0
M  V30 4394 H 424.665 -6.61892 -3.98896 0
M  V30 4395 H 423.01 -5.94899 -3.59333 0
M  V30 4396 H 426.201 -3.84914 -2.66381 0
M  V30 4397 H 426.374 -5.46816 -3.47701 0
M  V30 4398 N 419.78 1.02168 -1.19998 0
M  V30 4399 C 421.191 1.57135 -1.00825 0
M  V30 4400 C 421.542 1.91276 0.436818 0
M  V30 4401 O 420.667 1.71679 1.3174 0
M  V30 4402 C 421.262 2.85514 -1.82393 0
M  V30 4403 C 419.821 3.37027 -1.67601 0
M  V30 4404 C 418.968 2.10388 -1.80644 0
M  V30 4405 H 421.919 0.846106 -1.34264 0
M  V30 4406 H 421.94 3.56711 -1.32429 0
M  V30 4407 H 421.452 2.60634 -2.87561 0
M  V30 4408 H 419.553 3.66878 -0.650485 0
M  V30 4409 H 419.666 4.09572 -2.4857 0
M  V30 4410 H 418.03 2.22601 -1.23778 0
M  V30 4411 H 418.813 1.8794 -2.87286 0
M  V30 4412 N 421.258 1.00505 1.21394 0
M  V30 4413 C 422.483 0.706367 1.95001 0
M  V30 4414 C 422.908 -0.72463 1.73582 0
M  V30 4415 O 422.266 -1.49702 1.0227 0
M  V30 4416 C 422.314 1.03299 3.45487 0
M  V30 4417 O 421.418 0.138275 4.12168 0
M  V30 4418 H 420.759 0.263175 0.609619 0
M  V30 4419 H 423.289 1.34531 1.54151 0
M  V30 4420 H 423.299 0.979872 3.96059 0
M  V30 4421 H 421.974 2.07567 3.60401 0
M  V30 4422 H 420.551 0.247928 3.72075 0
M  V30 4423 N 422.737 -1.36956 0.779787 0
M  V30 4424 C 423.7 -2.2851 0.177662 0
M  V30 4425 C 424.7 -1.48393 -0.619377 0
M  V30 4426 O 425.89 -1.68505 -0.441785 0
M  V30 4427 C 423.022 -3.32428 -0.755279 0
M  V30 4428 H 424.215 -2.83269 0.984823 0
M  V30 4429 H 421.768 -1.46358 0.548544 0
M  V30 4430 H 422.503 -2.82808 -1.58714 0
M  V30 4431 H 422.288 -3.91659 -0.185817 0
M  V30 4432 H 423.778 -4.00824 -1.17174 0
M  V30 4433 N 424.215 -0.530993 -1.48385 0
M  V30 4434 C 425.626 -0.0907905 -1.86479 0
M  V30 4435 C 425.977 1.33213 -1.44044 0
M  V30 4436 O 425.102 1.99783 -0.831615 0
M  V30 4437 C 425.697 -0.157987 -3.38431 0
M  V30 4438 C 424.256 0.227026 -3.75715 0
M  V30 4439 C 423.403 -0.5173 -2.72432 0
M  V30 4440 H 426.354 -0.742186 -1.40276 0
M  V30 4441 H 426.375 0.630053 -3.75247 0
M  V30 4442 H 425.887 -1.19372 -3.69286 0
M  V30 4443 H 423.988 1.26486 -3.50474 0
M  V30 4444 H 424.101 -0.113288 -4.78966 0
M  V30 4445 H 422.465 0.0365527 -2.54674 0
M  V30 4446 H 423.248 -1.55368 -3.0613 0
M  V30 4447 N 425.693 1.55336 -0.266172 0
M  V30 4448 C 426.94 1.99397 0.353158 0
M  V30 4449 C 427.268 1.15451 1.56529 0
M  V30 4450 O 426.523 0.209974 1.9457 0
M  V30 4451 C 426.822 3.48606 0.787957 0
M  V30 4452 C 426.488 4.49773 -0.318541 0
M  V30 4453 C 425.15 4.77158 -0.62239 0
M  V30 4454 C 427.502 5.10212 -1.06459 0
M  V30 4455 C 424.83 5.62251 -1.67602 0
M  V30 4456 C 427.182 5.96449 -2.10788 0
M  V30 4457 C 425.846 6.22158 -2.41817 0
M  V30 4458 H 425.116 0.729644 0.12923 0
M  V30 4459 H 427.763 1.87732 -0.37802 0
M  V30 4460 H 426.068 3.57701 1.59866 0
M  V30 4461 H 427.765 3.80098 1.27775 0
M  V30 4462 H 424.355 4.2854 -0.0715925 0
M  V30 4463 H 428.539 4.89086 -0.843098 0
M  V30 4464 H 423.795 5.80419 -1.92155 0
M  V30 4465 H 427.969 6.42317 -2.69076 0
M  V30 4466 H 425.596 6.87888 -3.23596 0
M  V30 4467 N 427.171 -0.0066808 1.57599 0
M  V30 4468 C 428.399 -0.704087 1.94551 0
M  V30 4469 C 428.814 -1.67677 0.867746 0
M  V30 4470 O 428.171 -1.8185 -0.153925 0
M  V30 4471 C 428.222 -1.44177 3.31505 0
M  V30 4472 O 427.943 -0.508097 4.35144 0
M  V30 4473 C 429.444 -2.23429 3.82876 0
M  V30 4474 H 426.664 -0.196523 0.641576 0
M  V30 4475 H 429.208 0.042453 2.04456 0
M  V30 4476 H 427.363 -2.13999 3.22929 0
M  V30 4477 H 427.777 -1.02782 5.14331 0
M  V30 4478 H 429.251 -2.70552 4.8115 0
M  V30 4479 H 429.728 -3.05818 3.15233 0
M  V30 4480 H 430.334 -1.58636 3.94607 0
M  V30 4481 N 428.649 -1.55105 -0.279332 0
M  V30 4482 C 429.559 -1.90638 -1.36727 0
M  V30 4483 C 430.575 -0.802899 -1.54368 0
M  V30 4484 O 431.751 -1.10138 -1.68616 0
M  V30 4485 C 428.816 -2.16547 -2.70755 0
M  V30 4486 C 427.877 -3.40146 -2.61915 0
M  V30 4487 C 427.11 -3.6481 -3.8955 0
M  V30 4488 O 427.333 -2.92095 -4.89935 0
M  V30 4489 O 426.267 -4.58343 -3.90135 0
M  V30 4490 H 430.093 -2.83237 -1.09591 0
M  V30 4491 H 427.678 -1.4157 -0.477306 0
M  V30 4492 H 429.56 -2.34665 -3.50014 0
M  V30 4493 H 428.235 -1.27131 -2.9769 0
M  V30 4494 H 427.142 -3.2737 -1.81052 0
M  V30 4495 H 428.475 -4.29761 -2.3993 0
M  V30 4496 N 430.127 0.543554 -1.4793 0
M  V30 4497 C 431.09 1.63156 -1.60975 0
M  V30 4498 C 432.09 1.53346 -0.483899 0
M  V30 4499 O 433.28 1.5726 -0.749339 0
M  V30 4500 C 430.412 3.02743 -1.56716 0
M  V30 4501 H 431.605 1.52934 -2.57975 0
M  V30 4502 H 429.158 0.764557 -1.36324 0
M  V30 4503 H 429.893 3.18484 -0.611418 0
M  V30 4504 H 429.678 3.11272 -2.38438 0
M  V30 4505 H 431.168 3.81871 -1.6901 0
M  V30 4506 N 431.605 1.3629 0.791371 0
M  V30 4507 C 432.83 1.33726 1.58531 0
M  V30 4508 C 433.255 -0.0794933 1.87932 0
M  V30 4509 O 432.613 -1.05087 1.47738 0
M  V30 4510 C 432.661 2.16425 2.88431 0
M  V30 4511 O 431.765 1.5554 3.81944 0
M  V30 4512 H 431.106 0.457793 0.480959 0
M  V30 4513 H 433.636 1.79547 0.981031 0
M  V30 4514 H 433.646 2.28933 3.37718 0
M  V30 4515 H 432.321 3.19415 2.66359 0
M  V30 4516 H 430.898 1.51961 3.40532 0
M  V30 4517 N 433.083 -1.0153 1.20538 0
M  V30 4518 C 434.016 -2.09759 0.898695 0
M  V30 4519 C 434.994 -1.61909 -0.149733 0
M  V30 4520 O 436.178 -1.88486 -0.0230293 0
M  V30 4521 C 433.305 -3.36913 0.347512 0
M  V30 4522 C 432.351 -4.03655 1.37713 0
M  V30 4523 S 433.184 -4.47402 2.94265 0
M  V30 4524 C 434.34 -5.77756 2.40726 0
M  V30 4525 H 434.573 -2.3545 1.81523 0
M  V30 4526 H 432.106 -1.14665 1.03399 0
M  V30 4527 H 434.064 -4.10484 0.0360518 0
M  V30 4528 H 432.725 -3.09291 -0.547546 0
M  V30 4529 H 431.918 -4.9514 0.940872 0
M  V30 4530 H 431.52 -3.36313 1.63614 0
M  V30 4531 H 433.812 -6.52994 1.80569 0
M  V30 4532 H 434.755 -6.2618 3.30612 0
M  V30 4533 H 435.163 -5.34081 1.82806 0
M  V30 4534 N 434.561 -1.01147 -1.20859 0
M  V30 4535 C 435.494 -0.522108 -2.22147 0
M  V30 4536 C 436.472 0.427686 -1.56874 0
M  V30 4537 O 437.656 0.34889 -1.85243 0
M  V30 4538 C 434.783 0.240819 -3.37843 0
M  V30 4539 C 433.829 -0.657752 -4.21398 0
M  V30 4540 S 434.662 -2.12393 -4.91578 0
M  V30 4541 C 435.818 -1.37102 -6.10699 0
M  V30 4542 H 436.051 -1.38035 -2.63313 0
M  V30 4543 H 433.584 -0.819941 -1.30829 0
M  V30 4544 H 435.542 0.674908 -4.04914 0
M  V30 4545 H 434.203 1.07457 -2.95147 0
M  V30 4546 H 433.396 -0.0697456 -5.03952 0
M  V30 4547 H 432.998 -1.0294 -3.59555 0
M  V30 4548 H 435.29 -0.648315 -6.74391 0
M  V30 4549 H 436.233 -2.17252 -6.73949 0
M  V30 4550 H 436.641 -0.876154 -5.57659 0
M  V30 4551 N 436.039 1.36541 -0.78704 0
M  V30 4552 C 436.972 2.27831 -0.129765 0
M  V30 4553 C 437.95 1.47105 0.692732 0
M  V30 4554 O 439.134 1.7641 0.664222 0
M  V30 4555 C 436.261 3.28577 0.821883 0
M  V30 4556 C 435.307 4.26422 0.0814771 0
M  V30 4557 S 436.14 5.20919 -1.24112 0
M  V30 4558 C 437.296 6.25212 -0.293409 0
M  V30 4559 H 437.529 2.83229 -0.903811 0
M  V30 4560 H 435.062 1.43046 -0.581144 0
M  V30 4561 H 437.02 3.87123 1.3655 0
M  V30 4562 H 435.681 2.72096 1.56916 0
M  V30 4563 H 434.874 4.97554 0.803485 0
M  V30 4564 H 434.476 3.71944 -0.391589 0
M  V30 4565 H 436.768 6.75435 0.528622 0
M  V30 4566 H 437.711 7.01378 -0.973344 0
M  V30 4567 H 438.119 5.64407 0.102196 0
M  V30 4568 N 437.518 0.538854 1.48102 0
M  V30 4569 C 438.743 0.0102694 2.07397 0
M  V30 4570 C 439.168 -1.26562 1.39153 0
M  V30 4571 O 438.526 -1.75357 0.460387 0
M  V30 4572 C 438.574 -0.187602 3.60112 0
M  V30 4573 O 437.678 -1.25432 3.92862 0
M  V30 4574 H 437.019 0.0430975 0.6626 0
M  V30 4575 H 439.549 0.749301 1.90385 0
M  V30 4576 H 439.559 -0.407517 4.0596 0
M  V30 4577 H 438.234 0.744386 4.09184 0
M  V30 4578 H 436.811 -1.01636 3.58782 0
M  V30 4579 N 438.996 -1.55193 0.274407 0
M  V30 4580 C 439.926 -2.25471 -0.607032 0
M  V30 4581 C 440.907 -1.24461 -1.15946 0
M  V30 4582 O 442.092 -1.53179 -1.19373 0
M  V30 4583 C 439.222 -2.97526 -1.79153 0
M  V30 4584 C 438.176 -4.05459 -1.37067 0
M  V30 4585 C 437.502 -4.65084 -2.6382 0
M  V30 4586 C 438.802 -5.19691 -0.521389 0
M  V30 4587 H 440.496 -2.99393 -0.0209343 0
M  V30 4588 H 438.042 -1.43997 -0.00862866 0
M  V30 4589 H 439.995 -3.45402 -2.41404 0
M  V30 4590 H 438.719 -2.21138 -2.40344 0
M  V30 4591 H 437.378 -3.58393 -0.771355 0
M  V30 4592 H 437.026 -3.85365 -3.23268 0
M  V30 4593 H 436.726 -5.37961 -2.36372 0
M  V30 4594 H 438.25 -5.15708 -3.26921 0
M  V30 4595 H 439.664 -5.63623 -1.04889 0
M  V30 4596 H 438.061 -5.99126 -0.341825 0
M  V30 4597 H 439.131 -4.82713 0.46 0
M  V30 4598 N 440.474 -0.00167713 -1.576 0
M  V30 4599 C 441.702 0.693759 -1.94922 0
M  V30 4600 C 442.117 1.67215 -0.876626 0
M  V30 4601 O 441.474 1.81929 0.144279 0
M  V30 4602 C 441.525 1.42416 -3.32265 0
M  V30 4603 O 441.246 0.485014 -4.35407 0
M  V30 4604 C 442.747 2.21395 -3.84056 0
M  V30 4605 H 439.967 0.193118 -0.642609 0
M  V30 4606 H 442.511 -0.0532952 -2.04431 0
M  V30 4607 H 440.666 2.12284 -3.24059 0
M  V30 4608 H 441.08 1.00053 -5.14868 0
M  V30 4609 H 442.554 2.67996 -4.82578 0
M  V30 4610 H 443.031 3.04142 -3.16851 0
M  V30 4611 H 443.637 1.56542 -3.95443 0
M  V30 4612 N 441.952 1.55251 0.271103 0
M  V30 4613 C 442.899 1.88261 1.33516 0
M  V30 4614 C 443.869 0.734296 1.48988 0
M  V30 4615 O 445.054 0.985741 1.63364 0
M  V30 4616 C 442.194 2.16168 2.69008 0
M  V30 4617 C 441.307 3.43678 2.61743 0
M  V30 4618 C 440.442 3.61276 3.89427 0
M  V30 4619 C 439.481 4.82472 3.7668 0
M  V30 4620 N 438.618 4.96717 4.96202 0
M  V30 4621 H 443.458 2.79015 1.04665 0
M  V30 4622 H 440.995 1.38137 0.505618 0
M  V30 4623 H 442.953 2.30349 3.47844 0
M  V30 4624 H 441.583 1.28646 2.96057 0
M  V30 4625 H 440.635 3.37959 1.74607 0
M  V30 4626 H 441.947 4.3265 2.48224 0
M  V30 4627 H 441.101 3.75284 4.76704 0
M  V30 4628 H 439.84 2.70492 4.05814 0
M  V30 4629 H 438.845 4.68465 2.87786 0
M  V30 4630 H 440.07 5.74692 3.61809 0
M  V30 4631 H 438.016 4.08865 5.12997 0
M  V30 4632 H 437.933 5.79738 4.85222 0
M  V30 4633 H 439.201 5.15113 5.85046 0
M  V30 4634 N 443.43 -0.535701 1.48216 0
M  V30 4635 C 444.36 -1.65014 1.65204 0
M  V30 4636 C 445.341 -1.62554 0.501011 0
M  V30 4637 O 446.526 -1.7984 0.732886 0
M  V30 4638 C 443.656 -3.03616 1.68626 0
M  V30 4639 C 442.61 -3.20932 2.83172 0
M  V30 4640 C 441.936 -4.60537 2.71679 0
M  V30 4641 C 443.236 -3.04249 4.24535 0
M  V30 4642 H 444.93 -1.51053 2.58502 0
M  V30 4643 H 442.476 -0.725262 1.24402 0
M  V30 4644 H 444.429 -3.81446 1.79099 0
M  V30 4645 H 443.153 -3.18587 0.719026 0
M  V30 4646 H 441.812 -2.45517 2.72244 0
M  V30 4647 H 441.46 -4.72336 1.72937 0
M  V30 4648 H 441.16 -4.73069 3.48538 0
M  V30 4649 H 442.684 -5.40475 2.84112 0
M  V30 4650 H 444.098 -3.71877 4.36326 0
M  V30 4651 H 442.495 -3.28278 5.02348 0
M  V30 4652 H 443.565 -2.00739 4.41397 0
M  V30 4653 N 444.908 -1.36708 -0.784132 0
M  V30 4654 C 445.871 -1.31307 -1.87859 0
M  V30 4655 C 446.871 -0.219654 -1.59293 0
M  V30 4656 O 448.061 -0.47476 -1.67606 0
M  V30 4657 C 445.193 -1.03679 -3.24751 0
M  V30 4658 H 446.386 -2.28647 -1.94064 0
M  V30 4659 H 443.939 -1.21558 -0.98252 0
M  V30 4660 H 444.674 -0.0681936 -3.24228 0
M  V30 4661 H 444.459 -1.82811 -3.46876 0
M  V30 4662 H 445.949 -1.02518 -4.04821 0
M  V30 4663 N 446.386 1.0089 -1.21074 0
M  V30 4664 C 447.663 1.71834 -0.934469 0
M  V30 4665 C 448.043 2.0368 0.554753 0
M  V30 4666 O 447.391 1.70742 1.51854 0
M  V30 4667 C 447.601 2.98061 -1.8155 0
M  V30 4668 C 448.949 3.7117 -2.06199 0
M  V30 4669 O 449.973 3.08034 -1.78867 0
M  V30 4670 O 448.832 4.84721 -2.52404 0
M  V30 4671 H 445.926 0.749253 -0.35007 0
M  V30 4672 H 448.472 1.06668 -1.31985 0
M  V30 4673 H 447.244 2.70908 -2.82355 0
M  V30 4674 H 446.867 3.70968 -1.43068 0
M  V30 4675 N 447.864 1.01787 1.20321 0
M  V30 4676 C 448.811 0.589197 2.23153 0
M  V30 4677 C 449.781 -0.391367 1.61423 0
M  V30 4678 O 450.966 -0.290518 1.88575 0
M  V30 4679 C 448.106 -0.0650747 3.45039 0
M  V30 4680 C 447.219 0.960207 4.21194 0
M  V30 4681 C 446.354 0.276854 5.30478 0
M  V30 4682 C 445.393 1.2888 5.98378 0
M  V30 4683 N 444.53 0.632031 6.99249 0
M  V30 4684 H 449.37 1.47071 2.59179 0
M  V30 4685 H 446.907 0.736192 1.27352 0
M  V30 4686 H 448.865 -0.461552 4.14639 0
M  V30 4687 H 447.495 -0.910233 3.09701 0
M  V30 4688 H 446.547 1.47484 3.50646 0
M  V30 4689 H 447.859 1.72977 4.67847 0
M  V30 4690 H 447.013 -0.175056 6.06447 0
M  V30 4691 H 445.752 -0.525004 4.84866 0
M  V30 4692 H 444.757 1.75109 5.21169 0
M  V30 4693 H 445.982 2.09196 6.46076 0
M  V30 4694 H 443.928 -0.149935 6.55829 0
M  V30 4695 H 443.845 1.33964 7.44036 0
M  V30 4696 H 445.113 0.203755 7.79234 0
M  V30 4697 N 449.342 -1.36122 0.79427 0
M  V30 4698 C 450.252 -2.33769 0.197296 0
M  V30 4699 C 451.268 -1.61276 -0.653153 0
M  V30 4700 O 452.444 -1.9323 -0.5678 0
M  V30 4701 C 449.509 -3.40474 -0.654098 0
M  V30 4702 C 448.57 -4.28759 0.215411 0
M  V30 4703 C 447.803 -5.30368 -0.595443 0
M  V30 4704 O 448.026 -5.40211 -1.83107 0
M  V30 4705 O 446.96 -6.019 0.00721351 0
M  V30 4706 H 450.786 -2.86597 1.00478 0
M  V30 4707 H 448.371 -1.38676 0.555818 0
M  V30 4708 H 450.253 -4.05703 -1.13944 0
M  V30 4709 H 448.928 -2.89937 -1.43938 0
M  V30 4710 H 447.835 -3.66554 0.747615 0
M  V30 4711 H 449.168 -4.82661 0.964332 0
M  V30 4712 N 450.82 -0.546701 -1.47814 0
M  V30 4713 C 451.75 0.195317 -2.32682 0
M  V30 4714 C 452.731 0.918981 -1.43139 0
M  V30 4715 O 453.916 0.901501 -1.72008 0
M  V30 4716 C 451.046 1.23237 -3.247 0
M  V30 4717 C 450 0.625818 -4.234 0
M  V30 4718 C 449.326 1.76674 -5.04669 0
M  V30 4719 C 450.626 -0.413515 -5.2066 0
M  V30 4720 H 452.32 -0.513184 -2.94969 0
M  V30 4721 H 449.866 -0.248241 -1.41844 0
M  V30 4722 H 451.819 1.75955 -3.82907 0
M  V30 4723 H 450.543 1.97067 -2.60446 0
M  V30 4724 H 449.202 0.120023 -3.66403 0
M  V30 4725 H 448.85 2.49383 -4.36826 0
M  V30 4726 H 448.55 1.36673 -5.71484 0
M  V30 4727 H 450.074 2.29738 -5.65732 0
M  V30 4728 H 451.488 0.0272042 -5.73294 0
M  V30 4729 H 449.885 -0.731825 -5.95621 0
M  V30 4730 H 450.955 -1.31325 -4.66778 0
M  V30 4731 N 452.299 1.55045 -0.282633 0
M  V30 4732 C 453.545 2.00056 0.332481 0
M  V30 4733 C 453.878 1.1708 1.54939 0
M  V30 4734 O 453.153 0.2427 1.9298 0
M  V30 4735 C 453.436 3.53086 0.70725 0
M  V30 4736 C 453.289 4.46813 -0.517521 0
M  V30 4737 C 454.608 4.12245 1.54084 0
M  V30 4738 H 451.727 0.727268 0.119373 0
M  V30 4739 H 454.369 1.85932 -0.391076 0
M  V30 4740 H 452.519 3.65253 1.32372 0
M  V30 4741 H 454.191 4.46579 -1.15607 0
M  V30 4742 H 452.434 4.18163 -1.1542 0
M  V30 4743 H 453.105 5.51595 -0.211426 0
M  V30 4744 H 455.581 4.03401 1.02013 0
M  V30 4745 H 454.457 5.19515 1.77186 0
M  V30 4746 H 454.718 3.62951 2.52427 0
M  V30 4747 N 453.777 0.010035 1.57597 0
M  V30 4748 C 454.727 -0.986858 2.05536 0
M  V30 4749 C 455.711 -1.29711 0.952042 0
M  V30 4750 O 456.903 -1.28641 1.21575 0
M  V30 4751 C 454.032 -2.2756 2.57043 0
M  V30 4752 C 453.118 -1.99455 3.74271 0
M  V30 4753 N 453.509 -1.41546 4.85591 0
M  V30 4754 C 451.807 -2.29547 3.82393 0
M  V30 4755 C 452.508 -1.3014 5.66956 0
M  V30 4756 N 451.484 -1.79044 5.13268 0
M  V30 4757 H 455.286 -0.533778 2.89012 0
M  V30 4758 H 452.8 -0.195432 1.6122 0
M  V30 4759 H 454.797 -2.99829 2.89669 0
M  V30 4760 H 453.457 -2.73512 1.7499 0
M  V30 4761 H 454.468 -1.09294 5.06236 0
M  V30 4762 H 451.145 -2.78304 3.11213 0
M  V30 4763 H 452.535 -0.855237 6.66435 0
M  V30 4764 N 455.255 -1.55392 -0.262866 0
M  V30 4765 C 456.188 -1.8391 -1.35101 0
M  V30 4766 C 457.166 -0.692901 -1.47097 0
M  V30 4767 O 458.35 -0.936979 -1.63563 0
M  V30 4768 C 455.477 -2.00969 -2.72634 0
M  V30 4769 C 454.523 -3.23559 -2.7787 0
M  V30 4770 S 455.356 -4.80647 -2.3609 0
M  V30 4771 C 456.512 -5.00692 -3.75578 0
M  V30 4772 H 456.745 -2.75918 -1.1071 0
M  V30 4773 H 454.278 -1.47294 -0.463029 0
M  V30 4774 H 456.236 -2.11482 -3.51832 0
M  V30 4775 H 454.897 -1.09832 -2.94272 0
M  V30 4776 H 454.09 -3.32413 -3.78837 0
M  V30 4777 H 453.692 -3.11689 -2.06702 0
M  V30 4778 H 455.984 -4.87055 -4.70939 0
M  V30 4779 H 456.927 -6.02717 -3.71669 0
M  V30 4780 H 457.335 -4.28619 -3.6735 0
M  V30 4781 N 456.733 0.527833 -1.48498 0
M  V30 4782 C 457.982 1.28003 -1.55878 0
M  V30 4783 C 458.295 1.9414 -0.238577 0
M  V30 4784 O 459.501 2.7083 -0.190643 0
M  V30 4785 C 457.957 2.32272 -2.74914 0
M  V30 4786 C 457.565 1.72196 -4.13585 0
M  V30 4787 C 459.309 3.08488 -2.91608 0
M  V30 4788 C 457.216 2.74417 -5.23879 0
M  V30 4789 H 456.146 0.481413 -0.580308 0
M  V30 4790 H 458.797 0.557195 -1.74836 0
M  V30 4791 H 457.179 3.07601 -2.49395 0
M  V30 4792 H 458.353 1.03041 -4.49132 0
M  V30 4793 H 456.668 1.08464 -4.02025 0
M  V30 4794 H 459.265 3.84879 -3.71177 0
M  V30 4795 H 459.608 3.64481 -2.01145 0
M  V30 4796 H 460.141 2.40274 -3.17038 0
M  V30 4797 H 456.88 2.23242 -6.16314 0
M  V30 4798 H 456.4 3.41893 -4.92818 0
M  V30 4799 H 458.079 3.37362 -5.52083 0
M  V30 4800 N 458.211 1.37122 0.776871 0
M  V30 4801 C 459.436 1.354 1.57104 0
M  V30 4802 C 459.861 -0.0595562 1.88006 0
M  V30 4803 O 459.219 -1.03514 1.48844 0
M  V30 4804 C 459.267 2.19472 2.8612 0
M  V30 4805 O 458.371 1.59582 3.80273 0
M  V30 4806 H 457.712 0.462869 0.476076 0
M  V30 4807 H 460.242 1.80577 0.961932 0
M  V30 4808 H 460.252 2.32502 3.35271 0
M  V30 4809 H 458.927 3.22222 2.62956 0
M  V30 4810 H 457.504 1.55564 3.38902 0
M  V30 4811 N 459.689 -1.00246 1.21608 0
M  V30 4812 C 460.935 -1.74417 1.04643 0
M  V30 4813 C 461.29 -1.87862 -0.415387 0
M  V30 4814 O 460.583 -1.40373 -1.30407 0
M  V30 4815 C 460.777 -3.15448 1.68009 0
M  V30 4816 C 460.606 -3.15755 3.20201 0
M  V30 4817 C 459.376 -3.2219 3.89258 0
M  V30 4818 C 461.574 -3.00668 4.17257 0
M  V30 4819 N 459.556 -3.1215 5.28617 0
M  V30 4820 C 460.927 -2.98553 5.43384 0
M  V30 4821 C 462.982 -2.84989 4.08272 0
M  V30 4822 C 461.685 -2.82364 6.61561 0
M  V30 4823 C 463.711 -2.70158 5.26088 0
M  V30 4824 C 463.073 -2.68721 6.51128 0
M  V30 4825 H 459.172 -0.648317 0.437274 0
M  V30 4826 H 461.756 -1.19129 1.54001 0
M  V30 4827 H 459.927 -3.69001 1.21215 0
M  V30 4828 H 461.659 -3.78128 1.44226 0
M  V30 4829 H 458.414 -3.29488 3.40198 0
M  V30 4830 H 458.838 -3.10465 6.01615 0
M  V30 4831 H 463.48 -2.84904 3.12393 0
M  V30 4832 H 461.198 -2.81196 7.57598 0
M  V30 4833 H 464.784 -2.59022 5.20959 0
M  V30 4834 H 463.664 -2.57382 7.40759 0
M  V30 4835 N 461.167 -1.02423 -1.1978 0
M  V30 4836 C 462.13 -0.605703 -2.21052 0
M  V30 4837 C 463.13 0.328209 -1.57415 0
M  V30 4838 O 464.32 0.115853 -1.73814 0
M  V30 4839 C 461.452 0.114366 -3.40708 0
M  V30 4840 H 462.645 -1.5017 -2.59594 0
M  V30 4841 H 460.198 -0.814888 -1.33376 0
M  V30 4842 H 460.933 1.02492 -3.07678 0
M  V30 4843 H 460.718 -0.556641 -3.88129 0
M  V30 4844 H 462.208 0.394272 -4.15735 0
M  V30 4845 N 462.645 1.35699 -0.801477 0
M  V30 4846 C 463.592 2.29876 -0.206294 0
M  V30 4847 C 464.562 1.52565 0.656752 0
M  V30 4848 O 465.747 1.81024 0.602906 0
M  V30 4849 C 462.887 3.39052 0.643272 0
M  V30 4850 C 462 4.31335 -0.239644 0
M  V30 4851 C 461.135 5.27599 0.61744 0
M  V30 4852 C 460.174 6.11521 -0.26619 0
M  V30 4853 N 459.311 6.99938 0.550571 0
M  V30 4854 H 464.151 2.80187 -1.01484 0
M  V30 4855 H 461.688 1.37902 -0.511997 0
M  V30 4856 H 463.646 4.0101 1.15094 0
M  V30 4857 H 462.276 2.9003 1.41713 0
M  V30 4858 H 461.328 3.70426 -0.865381 0
M  V30 4859 H 462.64 4.90243 -0.919985 0
M  V30 4860 H 461.794 5.94906 1.19045 0
M  V30 4861 H 460.533 4.69176 1.33137 0
M  V30 4862 H 459.538 5.43166 -0.851507 0
M  V30 4863 H 460.763 6.72022 -0.9779 0
M  V30 4864 H 458.709 6.44008 1.24856 0
M  V30 4865 H 458.626 7.55966 -0.071832 0
M  V30 4866 H 459.894 7.71599 1.10702 0
M  V30 4867 N 464.123 0.554532 1.47522 0
M  V30 4868 C 465.07 -0.19466 2.29978 0
M  V30 4869 C 466.04 -0.910882 1.38896 0
M  V30 4870 O 467.225 -0.907102 1.67858 0
M  V30 4871 C 464.365 -1.22035 3.22802 0
M  V30 4872 C 463.478 -0.510474 4.28973 0
M  V30 4873 C 462.613 -1.52123 5.08952 0
M  V30 4874 C 461.652 -0.796173 6.069 0
M  V30 4875 N 460.789 -1.75363 6.79847 0
M  V30 4876 H 465.629 0.51461 2.93523 0
M  V30 4877 H 463.166 0.265607 1.44682 0
M  V30 4878 H 465.124 -1.8276 3.7504 0
M  V30 4879 H 463.754 -1.89769 2.61127 0
M  V30 4880 H 462.806 0.211234 3.79813 0
M  V30 4881 H 464.118 0.0576503 4.98767 0
M  V30 4882 H 463.272 -2.20207 5.65326 0
M  V30 4883 H 462.011 -2.12327 4.39054 0
M  V30 4884 H 461.016 -0.101388 5.49707 0
M  V30 4885 H 462.241 -0.199911 6.78806 0
M  V30 4886 H 460.187 -2.3443 6.12682 0
M  V30 4887 H 460.104 -1.23759 7.45801 0
M  V30 4888 H 461.372 -2.4257 7.40797 0
M  V30 4889 N 465.601 -1.54893 0.290851 0
M  V30 4890 C 466.85 -1.99111 -0.322113 0
M  V30 4891 C 467.163 -1.18283 -1.55784 0
M  V30 4892 O 468.369 -1.5272 -2.24475 0
M  V30 4893 C 466.825 -3.54442 -0.624438 0
M  V30 4894 C 466.433 -4.44066 0.592373 0
M  V30 4895 C 468.177 -4.07211 -1.19916 0
M  V30 4896 C 466.084 -5.90812 0.263762 0
M  V30 4897 H 465.014 -0.743712 -0.124133 0
M  V30 4898 H 467.665 -1.79132 0.39797 0
M  V30 4899 H 466.047 -3.70281 -1.40384 0
M  V30 4900 H 467.221 -4.39999 1.36886 0
M  V30 4901 H 465.536 -4.02015 1.08502 0
M  V30 4902 H 468.133 -5.14407 -1.45909 0
M  V30 4903 H 468.476 -3.57196 -2.13815 0
M  V30 4904 H 469.009 -3.94873 -0.481687 0
M  V30 4905 H 465.748 -6.44955 1.17105 0
M  V30 4906 H 465.268 -5.97911 -0.475655 0
M  V30 4907 H 466.947 -6.46852 -0.138354 0
M  V30 4908 N 467.08 -0.0183926 -1.57589 0
M  V30 4909 C 468.491 0.521927 -1.79256 0
M  V30 4910 C 468.842 1.72885 -0.927636 0
M  V30 4911 O 467.967 2.15978 -0.135091 0
M  V30 4912 C 468.562 0.953632 -3.25102 0
M  V30 4913 C 467.121 1.43913 -3.47801 0
M  V30 4914 C 466.268 0.398837 -2.74417 0
M  V30 4915 H 469.219 -0.244485 -1.56805 0
M  V30 4916 H 469.24 1.81863 -3.34224 0
M  V30 4917 H 468.752 0.0750123 -3.88028 0
M  V30 4918 H 466.853 2.33804 -2.90115 0
M  V30 4919 H 466.966 1.45391 -4.56507 0
M  V30 4920 H 465.33 0.864572 -2.39577 0
M  V30 4921 H 466.113 -0.471132 -3.40052 0
M  V30 4922 N 468.558 1.5553 0.254621 0
M  V30 4923 C 469.806 1.7665 0.981793 0
M  V30 4924 C 470.127 0.580963 1.86145 0
M  V30 4925 O 469.397 -0.403537 1.91699 0
M  V30 4926 H 467.977 0.651475 0.365498 0
M  V30 4927 H 470.639 1.92958 0.274426 0
M  V30 4928 H 469.735 2.67486 1.60802 0
M  V30 4929 N 470.036 -0.519951 1.48776 0
M  V30 4930 C 471.283 -1.27522 1.57303 0
M  V30 4931 C 471.611 -1.92869 0.251328 0
M  V30 4932 O 470.866 -1.80372 -0.759243 0
M  V30 4933 C 471.165 -2.37864 2.6675 0
M  V30 4934 C 470.831 -1.90103 4.08867 0
M  V30 4935 C 469.493 -1.76795 4.47546 0
M  V30 4936 C 471.845 -1.54133 4.97888 0
M  V30 4937 C 469.173 -1.25868 5.73039 0
M  V30 4938 C 471.525 -1.04665 6.23881 0
M  V30 4939 C 470.189 -0.899823 6.61407 0
M  V30 4940 H 469.459 -0.466636 0.575614 0
M  V30 4941 H 472.106 -0.579109 1.82534 0
M  V30 4942 H 470.411 -3.13186 2.35418 0
M  V30 4943 H 472.108 -2.95969 2.70561 0
M  V30 4944 H 468.698 -2.01414 3.78326 0
M  V30 4945 H 472.882 -1.6327 4.68675 0
M  V30 4946 H 468.138 -1.13196 6.0083 0
M  V30 4947 H 472.312 -0.759074 6.92251 0
M  V30 4948 H 469.939 -0.503011 7.58534 0
M  V30 4949 N 471.514 -1.37532 -0.769588 0
M  V30 4950 C 472.76 -1.33057 -1.53048 0
M  V30 4951 C 473.093 0.0841865 -1.94017 0
M  V30 4952 O 472.368 1.04198 -1.64235 0
M  V30 4953 C 472.651 -2.27166 -2.79406 0
M  V30 4954 C 472.504 -3.77429 -2.44677 0
M  V30 4955 C 473.823 -2.19683 -3.81349 0
M  V30 4956 H 470.942 -0.484655 -0.555228 0
M  V30 4957 H 473.584 -1.68251 -0.882702 0
M  V30 4958 H 471.734 -1.97283 -3.34682 0
M  V30 4959 H 473.406 -4.17918 -1.953 0
M  V30 4960 H 471.649 -3.95892 -1.77346 0
M  V30 4961 H 472.32 -4.38716 -3.35011 0
M  V30 4962 H 474.796 -2.46029 -3.35573 0
M  V30 4963 H 473.672 -2.87668 -4.67481 0
M  V30 4964 H 473.933 -1.19045 -4.25771 0
M  V30 4965 N 472.992 0.995999 -1.22138 0
M  V30 4966 C 473.902 2.11985 -1.00496 0
M  V30 4967 C 474.918 1.7394 0.0457701 0
M  V30 4968 O 476.094 2.00868 -0.146273 0
M  V30 4969 C 473.159 3.41779 -0.582086 0
M  V30 4970 C 472.22 3.93943 -1.70608 0
M  V30 4971 C 471.453 5.17542 -1.30328 0
M  V30 4972 O 471.676 5.70114 -0.180743 0
M  V30 4973 O 470.61 5.63382 -2.11861 0
M  V30 4974 H 474.436 2.33123 -1.94647 0
M  V30 4975 H 472.021 1.10358 -1.00705 0
M  V30 4976 H 473.903 4.1989 -0.356467 0
M  V30 4977 H 472.578 3.22007 0.330592 0
M  V30 4978 H 471.485 3.17019 -1.98619 0
M  V30 4979 H 472.818 4.18141 -2.59651 0
M  V30 4980 N 474.47 1.03057 1.19235 0
M  V30 4981 C 475.4 0.633497 2.24742 0
M  V30 4982 C 476.381 -0.358335 1.66283 0
M  V30 4983 O 477.566 -0.240676 1.92703 0
M  V30 4984 C 474.696 -0.0147648 3.47297 0
M  V30 4985 C 473.65 0.899527 4.18441 0
M  V30 4986 C 472.976 0.116281 5.34574 0
M  V30 4987 C 474.276 2.21404 4.73051 0
M  V30 4988 H 475.97 1.5155 2.58211 0
M  V30 4989 H 473.516 0.73014 1.24117 0
M  V30 4990 H 475.469 -0.304202 4.20301 0
M  V30 4991 H 474.193 -0.931577 3.13032 0
M  V30 4992 H 472.852 1.17319 3.47321 0
M  V30 4993 H 472.5 -0.802619 4.96555 0
M  V30 4994 H 472.2 0.725293 5.83107 0
M  V30 4995 H 473.724 -0.166376 6.10373 0
M  V30 4996 H 475.138 1.98601 5.37802 0
M  V30 4997 H 473.535 2.77512 5.32078 0
M  V30 4998 H 474.605 2.86752 3.91026 0
M  V30 4999 N 475.948 -1.35272 0.808662 0
M  V30 5000 C 477.173 -2.03477 0.401475 0
M  V30 5001 C 477.598 -1.60537 -0.980279 0
M  V30 5002 O 476.956 -0.78304 -1.63518 0
M  V30 5003 C 477.004 -3.57181 0.495354 0
M  V30 5004 O 476.108 -4.09474 -0.490397 0
M  V30 5005 H 475.449 -0.642561 0.167366 0
M  V30 5006 H 477.979 -1.72824 1.09512 0
M  V30 5007 H 477.989 -4.06356 0.365912 0
M  V30 5008 H 476.664 -3.87784 1.5032 0
M  V30 5009 H 475.241 -3.71516 -0.321023 0
M  V30 5010 N 477.426 -0.562348 -1.47226 0
M  V30 5011 C 478.356 0.170627 -2.32876 0
M  V30 5012 C 479.337 0.903748 -1.44106 0
M  V30 5013 O 480.522 0.883206 -1.72954 0
M  V30 5014 C 477.652 1.19786 -3.25989 0
M  V30 5015 C 476.606 0.580875 -4.2404 0
M  V30 5016 C 475.932 1.71311 -5.06514 0
M  V30 5017 C 477.232 -0.468714 -5.20193 0
M  V30 5018 H 478.926 -0.544441 -2.94408 0
M  V30 5019 H 476.472 -0.263271 -1.41573 0
M  V30 5020 H 478.425 1.71884 -3.84752 0
M  V30 5021 H 477.149 1.94294 -2.62521 0
M  V30 5022 H 475.808 0.0811538 -3.6651 0
M  V30 5023 H 475.456 2.44736 -4.39447 0
M  V30 5024 H 475.156 1.30604 -5.72902 0
M  V30 5025 H 476.68 2.23725 -5.68137 0
M  V30 5026 H 478.094 -0.0336028 -5.7329 0
M  V30 5027 H 476.491 -0.794957 -5.94811 0
M  V30 5028 H 477.561 -1.36269 -4.65359 0
M  V30 5029 N 478.904 1.54736 -0.299062 0
M  V30 5030 C 480.151 2.00101 0.310784 0
M  V30 5031 C 480.479 1.18746 1.54045 0
M  V30 5032 O 479.734 0.251198 1.94081 0
M  V30 5033 C 480.033 3.50199 0.713835 0
M  V30 5034 C 479.699 4.48997 -0.413873 0
M  V30 5035 C 478.361 4.7573 -0.723462 0
M  V30 5036 C 480.713 5.07839 -1.17257 0
M  V30 5037 C 478.041 5.5857 -1.79491 0
M  V30 5038 C 480.393 5.91844 -2.23392 0
M  V30 5039 C 479.057 6.16889 -2.54959 0
M  V30 5040 H 478.327 0.732221 0.113724 0
M  V30 5041 H 480.974 1.86888 -0.417756 0
M  V30 5042 H 479.279 3.61012 1.52243 0
M  V30 5043 H 480.976 3.82723 1.19684 0
M  V30 5044 H 477.566 4.28292 -0.162476 0
M  V30 5045 H 481.75 4.87188 -0.946651 0
M  V30 5046 H 477.006 5.76213 -2.04423 0
M  V30 5047 H 481.18 6.36465 -2.8264 0
M  V30 5048 H 478.807 6.80869 -3.38114 0
M  V30 5049 N 480.382 0.0267497 1.57577 0
M  V30 5050 C 481.659 -0.690926 1.82991 0
M  V30 5051 C 482.039 -1.90471 0.910164 0
M  V30 5052 O 481.387 -2.28474 -0.0347985 0
M  V30 5053 C 481.597 -1.07139 3.32148 0
M  V30 5054 C 482.945 -1.46402 3.98562 0
M  V30 5055 O 483.969 -1.16443 3.36629 0
M  V30 5056 O 482.828 -2.02214 5.07712 0
M  V30 5057 H 479.922 -0.338747 0.75444 0
M  V30 5058 H 482.468 0.0542506 1.69613 0
M  V30 5059 H 481.24 -0.207394 3.9075 0
M  V30 5060 H 480.863 -1.87481 3.50623 0
M  V30 5061 N 481.861 -1.55662 -0.24637 0
M  V30 5062 C 482.793 -1.86811 -1.32794 0
M  V30 5063 C 483.806 -0.754413 -1.44265 0
M  V30 5064 O 484.995 -1.03253 -1.45606 0
M  V30 5065 C 482.095 -2.0397 -2.70646 0
M  V30 5066 C 481.268 -3.34832 -2.81436 0
M  V30 5067 C 480.327 -3.41727 -4.00136 0
M  V30 5068 O 479.353 -4.14934 -3.89639 0
M  V30 5069 N 480.555 -2.71058 -5.1333 0
M  V30 5070 H 483.32 -2.80174 -1.06409 0
M  V30 5071 H 480.881 -1.55906 -0.43647 0
M  V30 5072 H 482.873 -2.05924 -3.48393 0
M  V30 5073 H 481.443 -1.1735 -2.89738 0
M  V30 5074 H 480.663 -3.4519 -1.90361 0
M  V30 5075 H 481.951 -4.21085 -2.85595 0
M  V30 5076 H 481.349 -2.11314 -5.2475 0
M  V30 5077 H 479.906 -2.78704 -5.89209 0
M  V30 5078 N 483.339 0.512053 -1.4905 0
M  V30 5079 C 484.585 1.26874 -1.58212 0
M  V30 5080 C 484.918 1.9241 -0.263073 0
M  V30 5081 O 484.193 1.80181 0.732476 0
M  V30 5082 C 484.476 2.34428 -2.73341 0
M  V30 5083 C 484.329 1.73466 -4.15006 0
M  V30 5084 C 485.648 3.36073 -2.84154 0
M  V30 5085 H 482.767 0.459924 -0.575881 0
M  V30 5086 H 485.409 0.568587 -1.81293 0
M  V30 5087 H 483.559 2.94146 -2.53792 0
M  V30 5088 H 485.231 1.17661 -4.46042 0
M  V30 5089 H 483.474 1.03921 -4.21168 0
M  V30 5090 H 484.145 2.51426 -4.91415 0
M  V30 5091 H 486.621 2.86332 -3.01916 0
M  V30 5092 H 485.497 4.08703 -3.66406 0
M  V30 5093 H 485.758 3.97725 -1.93048 0
M  V30 5094 N 484.817 1.37938 0.762283 0
M  V30 5095 C 486.233 1.18945 1.06415 0
M  V30 5096 C 486.433 0.0321163 2.01474 0
M  V30 5097 O 485.489 -0.624844 2.44647 0
M  V30 5098 C 486.802 2.51218 1.65258 0
M  V30 5099 C 488.35 2.57824 1.7747 0
M  V30 5100 C 488.825 3.90251 2.39725 0
M  V30 5101 N 490.316 3.91744 2.47166 0
M  V30 5102 C 491.051 4.90966 2.96209 0
M  V30 5103 N 490.547 6.00585 3.45354 0
M  V30 5104 N 492.34 4.78363 2.9517 0
M  V30 5105 H 484.491 2.11994 0.131301 0
M  V30 5106 H 486.754 0.940262 0.120879 0
M  V30 5107 H 486.46 3.36317 1.02878 0
M  V30 5108 H 486.334 2.68989 2.64433 0
M  V30 5109 H 488.721 1.73126 2.3898 0
M  V30 5110 H 488.802 2.43928 0.770241 0
M  V30 5111 H 488.446 4.75368 1.78852 0
M  V30 5112 H 488.376 4.01454 3.40796 0
M  V30 5113 H 490.867 3.12563 2.12397 0
M  V30 5114 H 491.18 6.72236 3.81207 0
M  V30 5115 H 489.525 6.04217 3.43434 0
M  V30 5116 H 492.716 3.91841 2.56082 0
M  V30 5117 H 492.889 5.55843 3.33081 0
M  V30 5118 N 486.295 -0.989507 1.22664 0
M  V30 5119 C 487.225 -2.09847 1.02404 0
M  V30 5120 C 488.206 -1.70007 -0.0561303 0
M  V30 5121 O 489.391 -1.93906 0.106748 0
M  V30 5122 C 486.521 -3.41996 0.604663 0
M  V30 5123 C 485.475 -3.95699 1.63115 0
M  V30 5124 C 484.801 -5.23936 1.0675 0
M  V30 5125 C 486.101 -4.25999 3.02196 0
M  V30 5126 H 487.795 -2.27054 1.95158 0
M  V30 5127 H 485.341 -1.09111 0.939727 0
M  V30 5128 H 487.294 -4.1899 0.45002 0
M  V30 5129 H 486.018 -3.24626 -0.35855 0
M  V30 5130 H 484.677 -3.2084 1.77362 0
M  V30 5131 H 484.325 -5.02909 0.0955422 0
M  V30 5132 H 484.025 -5.60833 1.75328 0
M  V30 5133 H 485.549 -6.0356 0.924516 0
M  V30 5134 H 486.963 -4.93777 2.91303 0
M  V30 5135 H 485.36 -4.74076 3.67929 0
M  V30 5136 H 486.43 -3.33636 3.51873 0
M  V30 5137 N 487.773 -1.03688 -1.18687 0
M  V30 5138 C 488.703 -0.645407 -2.24403 0
M  V30 5139 C 489.684 0.349511 -1.66471 0
M  V30 5140 O 490.869 0.230453 -1.92828 0
M  V30 5141 C 487.999 -0.00365337 -3.473 0
M  V30 5142 C 486.953 -0.921705 -4.17958 0
M  V30 5143 C 486.279 -0.144629 -5.34504 0
M  V30 5144 C 487.579 -2.23909 -4.71871 0
M  V30 5145 H 489.273 -1.52917 -2.57404 0
M  V30 5146 H 486.819 -0.736711 -1.23728 0
M  V30 5147 H 488.772 0.281908 -4.20456 0
M  V30 5148 H 487.496 0.914963 -3.13522 0
M  V30 5149 H 486.155 -1.19159 -3.46694 0
M  V30 5150 H 485.803 0.776274 -4.96974 0
M  V30 5151 H 485.503 -0.756206 -5.82714 0
M  V30 5152 H 487.027 0.134004 -6.10453 0
M  V30 5153 H 488.441 -2.0145 -5.36741 0
M  V30 5154 H 486.838 -2.8033 -5.30599 0
M  V30 5155 H 487.908 -2.88822 -3.895 0
M  V30 5156 N 489.251 1.34841 -0.815825 0
M  V30 5157 C 490.161 2.33425 -0.234462 0
M  V30 5158 C 491.177 1.62295 0.627413 0
M  V30 5159 O 492.353 1.94109 0.536987 0
M  V30 5160 C 489.418 3.41471 0.599849 0
M  V30 5161 C 488.479 4.28362 -0.283596 0
M  V30 5162 C 487.712 5.31248 0.51099 0
M  V30 5163 O 487.935 5.43056 1.7449 0
M  V30 5164 O 486.869 6.01812 -0.10297 0
M  V30 5165 H 490.695 2.84962 -1.05024 0
M  V30 5166 H 488.28 1.37774 -0.577809 0
M  V30 5167 H 490.162 4.07464 1.07475 0
M  V30 5168 H 488.837 2.9219 1.39308 0
M  V30 5169 H 487.744 3.65318 -0.805836 0
M  V30 5170 H 489.077 4.81066 -1.041 0
M  V30 5171 N 490.729 0.570148 1.46925 0
M  V30 5172 C 491.954 0.0542592 2.07329 0
M  V30 5173 C 492.379 -1.23582 1.41806 0
M  V30 5174 O 491.737 -1.74341 0.497479 0
M  V30 5175 C 491.785 -0.111175 3.60429 0
M  V30 5176 O 490.889 -1.17071 3.95434 0
M  V30 5177 H 490.23 0.0571425 0.661537 0
M  V30 5178 H 492.76 0.789516 1.88753 0
M  V30 5179 H 492.77 -0.321315 4.06733 0
M  V30 5180 H 491.445 0.831012 4.07513 0
M  V30 5181 H 490.022 -0.940029 3.60857 0
M  V30 5182 N 492.207 -1.54576 0.307264 0
M  V30 5183 C 493.447 -2.02172 -0.300962 0
M  V30 5184 C 493.811 -1.19081 -1.50611 0
M  V30 5185 O 495.012 -1.56405 -2.18612 0
M  V30 5186 C 493.283 -3.51576 -0.642591 0
M  V30 5187 S 494.842 -4.21127 -1.23279 0
M  V30 5188 H 491.66 -0.705021 -0.0920141 0
M  V30 5189 H 494.262 -1.90563 0.436594 0
M  V30 5190 H 492.966 -4.09681 0.242901 0
M  V30 5191 H 492.497 -3.67234 -1.41077 0
M  V30 5192 H 494.512 -4.27426 -2.52034 0
M  V30 5193 N 493.685 -0.035106 -1.57561 0
M  V30 5194 C 494.931 0.637362 -1.93156 0
M  V30 5195 C 495.286 1.69391 -0.912392 0
M  V30 5196 O 494.579 1.91469 0.070735 0
M  V30 5197 C 494.773 1.29149 -3.3325 0
M  V30 5198 C 494.602 0.29983 -4.48699 0
M  V30 5199 C 493.372 -0.102454 -5.05196 0
M  V30 5200 C 495.57 -0.448297 -5.12342 0
M  V30 5201 N 493.552 -1.08866 -6.0417 0
M  V30 5202 C 494.923 -1.28807 -6.06472 0
M  V30 5203 C 496.978 -0.508351 -4.95298 0
M  V30 5204 C 495.681 -2.18248 -6.85391 0
M  V30 5205 C 497.707 -1.39013 -5.7483 0
M  V30 5206 C 497.069 -2.21766 -6.6858 0
M  V30 5207 H 493.168 0.205358 -0.754554 0
M  V30 5208 H 495.752 -0.103682 -1.94424 0
M  V30 5209 H 493.923 2.00264 -3.3279 0
M  V30 5210 H 495.655 1.92147 -3.56177 0
M  V30 5211 H 492.41 0.273223 -4.72811 0
M  V30 5212 H 492.834 -1.57817 -6.58348 0
M  V30 5213 H 497.476 0.117197 -4.22638 0
M  V30 5214 H 495.194 -2.81855 -7.57353 0
M  V30 5215 H 498.78 -1.44096 -5.63673 0
M  V30 5216 H 497.66 -2.88892 -7.29048 0
M  V30 5217 N 495.163 1.55791 0.238111 0
M  V30 5218 C 496.096 1.86036 1.32158 0
M  V30 5219 C 497.074 0.716216 1.45976 0
M  V30 5220 O 498.258 0.962882 1.62052 0
M  V30 5221 C 495.385 2.05281 2.69402 0
M  V30 5222 C 494.431 3.27939 2.72687 0
M  V30 5223 S 495.264 4.84342 2.28413 0
M  V30 5224 C 496.42 5.06604 3.67565 0
M  V30 5225 H 496.653 2.77644 1.06306 0
M  V30 5226 H 494.186 1.48012 0.439537 0
M  V30 5227 H 496.144 2.17053 3.48423 0
M  V30 5228 H 494.805 1.14499 2.92487 0
M  V30 5229 H 493.998 3.38398 3.73501 0
M  V30 5230 H 493.6 3.14938 2.01717 0
M  V30 5231 H 495.892 4.94486 4.6313 0
M  V30 5232 H 496.835 6.08554 3.62033 0
M  V30 5233 H 497.243 4.34409 3.60485 0
M  V30 5234 N 496.642 -0.504142 1.49319 0
M  V30 5235 C 497.552 -1.63248 1.68486 0
M  V30 5236 C 498.568 -1.64488 0.567432 0
M  V30 5237 O 499.744 -1.82966 0.841749 0
M  V30 5238 C 496.809 -2.99627 1.74426 0
M  V30 5239 C 495.87 -3.09039 2.97982 0
M  V30 5240 C 495.103 -4.38913 3.0363 0
M  V30 5241 O 495.326 -5.27528 2.16958 0
M  V30 5242 O 494.26 -4.53231 3.96062 0
M  V30 5243 H 498.086 -1.50008 2.64067 0
M  V30 5244 H 495.671 -0.680086 1.33023 0
M  V30 5245 H 497.553 -3.80689 1.80705 0
M  V30 5246 H 496.228 -3.13136 0.820233 0
M  V30 5247 H 495.135 -2.27177 2.97223 0
M  V30 5248 H 496.468 -3.00456 3.89855 0
M  V30 5249 N 498.12 -1.38341 -0.754957 0
M  V30 5250 C 499.366 -1.34672 -1.51628 0
M  V30 5251 C 499.699 0.0636036 -1.94096 0
M  V30 5252 O 498.974 1.0245 -1.6533 0
M  V30 5253 C 499.257 -2.30116 -2.76981 0
M  V30 5254 C 499.11 -3.80003 -2.4066 0
M  V30 5255 C 500.429 -2.23715 -3.78998 0
M  V30 5256 H 497.548 -0.490517 -0.550056 0
M  V30 5257 H 500.19 -1.69178 -0.864807 0
M  V30 5258 H 498.34 -2.00821 -3.3257 0
M  V30 5259 H 500.012 -4.19966 -1.90856 0
M  V30 5260 H 498.255 -3.97751 -1.73137 0
M  V30 5261 H 498.926 -4.42244 -3.30339 0
M  V30 5262 H 501.402 -2.49574 -3.32945 0
M  V30 5263 H 500.278 -2.9261 -4.64403 0
M  V30 5264 H 500.539 -1.23554 -4.24484 0
M  V30 5265 N 499.598 0.982988 -1.23187 0
M  V30 5266 C 500.528 2.09301 -1.03515 0
M  V30 5267 C 501.509 1.70035 0.0471136 0
M  V30 5268 O 502.694 1.93847 -0.117029 0
M  V30 5269 C 499.824 3.4167 -0.622791 0
M  V30 5270 C 498.778 3.94828 -1.65211 0
M  V30 5271 C 498.104 5.23362 -1.09527 0
M  V30 5272 C 499.404 4.2439 -3.04451 0
M  V30 5273 H 501.098 2.26016 -1.96359 0
M  V30 5274 H 498.644 1.08611 -0.945501 0
M  V30 5275 H 500.597 4.18746 -0.472233 0
M  V30 5276 H 499.321 3.24811 0.341329 0
M  V30 5277 H 497.98 3.19895 -1.79061 0
M  V30 5278 H 497.628 5.02852 -0.122211 0
M  V30 5279 H 497.328 5.59895 -1.783 0
M  V30 5280 H 498.852 6.03062 -0.956511 0
M  V30 5281 H 500.266 4.92225 -2.93917 0
M  V30 5282 H 498.663 4.72118 -3.70438 0
M  V30 5283 H 499.733 3.31765 -3.53638 0
M  V30 5284 N 501.076 1.04316 1.18135 0
M  V30 5285 C 502.009 0.580823 2.20685 0
M  V30 5286 C 502.987 -0.385943 1.57953 0
M  V30 5287 O 504.171 -0.299654 1.86103 0
M  V30 5288 C 501.298 -0.151162 3.38363 0
M  V30 5289 C 500.344 0.769247 4.19505 0
M  V30 5290 S 501.177 2.25352 4.85774 0
M  V30 5291 C 502.333 1.53246 6.0685 0
M  V30 5292 H 502.566 1.44968 2.5956 0
M  V30 5293 H 500.099 0.85434 1.28609 0
M  V30 5294 H 502.057 -0.567315 4.06561 0
M  V30 5295 H 500.718 -0.995936 2.97892 0
M  V30 5296 H 499.911 0.203335 5.0359 0
M  V30 5297 H 499.513 1.12436 3.56699 0
M  V30 5298 H 501.805 0.82689 6.72435 0
M  V30 5299 H 502.748 2.35044 6.67952 0
M  V30 5300 H 503.156 1.0237 5.5514 0
M  V30 5301 N 502.554 -1.34406 0.822964 0
M  V30 5302 C 503.487 -2.27407 0.190124 0
M  V30 5303 C 504.465 -1.4889 -0.653486 0
M  V30 5304 O 505.649 -1.78109 -0.617216 0
M  V30 5305 C 502.776 -3.3064 -0.734477 0
M  V30 5306 C 501.822 -4.26488 0.0316099 0
M  V30 5307 S 502.655 -5.17445 1.3788 0
M  V30 5308 C 503.811 -6.24214 0.45907 0
M  V30 5309 H 504.044 -2.80733 0.978586 0
M  V30 5310 H 501.577 -1.41455 0.618866 0
M  V30 5311 H 503.535 -3.90607 -1.26238 0
M  V30 5312 H 502.196 -2.76161 -1.49646 0
M  V30 5313 H 501.389 -4.9951 -0.671285 0
M  V30 5314 H 500.991 -3.70775 0.490066 0
M  V30 5315 H 503.283 -6.76599 -0.349357 0
M  V30 5316 H 504.226 -6.98551 1.15896 0
M  V30 5317 H 504.634 -5.6448 0.0474825 0
M  V30 5318 N 504.032 -0.577932 -1.46621 0
M  V30 5319 C 505.28 -0.061566 -2.02006 0
M  V30 5320 C 505.601 1.30117 -1.4524 0
M  V30 5321 O 504.871 1.85313 -0.63529 0
M  V30 5322 H 503.451 -0.0197692 -0.746738 0
M  V30 5323 H 506.113 -0.752631 -1.79782 0
M  V30 5324 H 505.209 0.0110238 -3.12098 0
M  V30 5325 N 505.51 1.54411 -0.315457 0
M  V30 5326 C 506.44 2.27002 0.547039 0
M  V30 5327 C 507.421 1.27492 1.12605 0
M  V30 5328 O 508.606 1.5629 1.15269 0
M  V30 5329 C 505.736 3.02171 1.71201 0
M  V30 5330 C 504.69 4.0895 1.26268 0
M  V30 5331 C 504.016 4.71915 2.51396 0
M  V30 5332 C 505.316 5.20891 0.383419 0
M  V30 5333 H 507.01 2.99343 -0.0584517 0
M  V30 5334 H 504.556 1.4397 -0.0295527 0
M  V30 5335 H 506.509 3.51681 2.32161 0
M  V30 5336 H 505.233 2.27433 2.34397 0
M  V30 5337 H 503.892 3.60312 0.676062 0
M  V30 5338 H 503.54 3.93801 3.12937 0
M  V30 5339 H 503.24 5.44039 2.22026 0
M  V30 5340 H 504.764 5.24195 3.13133 0
M  V30 5341 H 506.178 5.66206 0.899082 0
M  V30 5342 H 504.575 5.99821 0.182857 0
M  V30 5343 H 505.645 4.81324 -0.587821 0
M  V30 5344 N 506.988 0.0434614 1.5754 0
M  V30 5345 C 507.921 -0.968729 2.06618 0
M  V30 5346 C 508.899 -1.30868 0.965 0
M  V30 5347 O 510.083 -1.42288 1.23638 0
M  V30 5348 C 507.21 -2.28486 2.50023 0
M  V30 5349 C 506.256 -2.09851 3.71302 0
M  V30 5350 S 507.089 -1.38401 5.17306 0
M  V30 5351 C 508.245 -2.71354 5.64019 0
M  V30 5352 H 508.478 -0.551021 2.92149 0
M  V30 5353 H 506.011 -0.168607 1.53477 0
M  V30 5354 H 507.969 -3.04142 2.75695 0
M  V30 5355 H 506.63 -2.67387 1.64812 0
M  V30 5356 H 505.823 -3.07184 3.99567 0
M  V30 5357 H 505.425 -1.42336 3.45856 0
M  V30 5358 H 507.717 -3.67549 5.69134 0
M  V30 5359 H 508.66 -2.47734 6.6335 0
M  V30 5360 H 509.068 -2.77259 4.91719 0
M  V30 5361 N 508.466 -1.55915 -0.229846 0
M  V30 5362 C 509.712 -1.79718 -0.952517 0
M  V30 5363 C 510.067 -0.61514 -1.82301 0
M  V30 5364 O 509.36 0.391098 -1.87566 0
M  V30 5365 C 509.554 -3.06845 -1.8325 0
M  V30 5366 C 509.383 -4.37302 -1.04868 0
M  V30 5367 C 508.153 -4.99749 -0.746932 0
M  V30 5368 C 510.351 -5.12599 -0.417989 0
M  V30 5369 N 508.333 -6.13871 0.0591596 0
M  V30 5370 C 509.704 -6.19488 0.251879 0
M  V30 5371 C 511.759 -4.96804 -0.33018 0
M  V30 5372 C 510.462 -7.12299 1.00115 0
M  V30 5373 C 512.488 -5.90007 0.4056 0
M  V30 5374 C 511.85 -6.96317 1.06404 0
M  V30 5375 H 507.949 -0.709382 -0.329091 0
M  V30 5376 H 510.533 -1.93406 -0.224114 0
M  V30 5377 H 508.704 -2.94456 -2.53279 0
M  V30 5378 H 510.436 -3.18874 -2.49202 0
M  V30 5379 H 507.191 -4.61518 -1.06292 0
M  V30 5380 H 507.615 -6.75497 0.450798 0
M  V30 5381 H 512.257 -4.14675 -0.824898 0
M  V30 5382 H 509.975 -7.93916 1.50741 0
M  V30 5383 H 513.561 -5.79862 0.474436 0
M  V30 5384 H 512.441 -7.67194 1.62429 0
M  V30 5385 N 509.944 0.496216 -1.49584 0
M  V30 5386 C 511.36 0.827814 -1.36453 0
M  V30 5387 C 511.56 1.97464 -0.401285 0
M  V30 5388 O 510.616 2.51958 0.165296 0
M  V30 5389 C 511.929 1.16352 -2.77277 0
M  V30 5390 C 513.477 1.27145 -2.86013 0
M  V30 5391 C 513.952 1.64042 -4.27615 0
M  V30 5392 N 515.443 1.71082 -4.30448 0
M  V30 5393 C 516.178 2.01085 -5.36984 0
M  V30 5394 N 515.674 2.2928 -6.5376 0
M  V30 5395 N 517.467 2.02376 -5.24405 0
M  V30 5396 H 509.618 -0.259947 -2.10803 0
M  V30 5397 H 511.881 -0.0537163 -0.946477 0
M  V30 5398 H 511.587 0.394153 -3.49484 0
M  V30 5399 H 511.461 2.10582 -3.12946 0
M  V30 5400 H 513.848 2.03152 -2.1404 0
M  V30 5401 H 513.929 0.309542 -2.5392 0
M  V30 5402 H 513.573 0.88583 -5.00115 0
M  V30 5403 H 513.503 2.6134 -4.57175 0
M  V30 5404 H 515.994 1.51434 -3.46232 0
M  V30 5405 H 516.307 2.51376 -7.30774 0
M  V30 5406 H 514.652 2.26726 -6.56978 0
M  V30 5407 H 517.843 1.79829 -4.32179 0
M  V30 5408 H 518.016 2.25425 -6.07526 0
M  V30 5409 N 511.423 1.38739 0.74761 0
M  V30 5410 C 512.648 1.38702 1.54197 0
M  V30 5411 C 513.073 -0.019664 1.8809 0
M  V30 5412 O 512.431 -1.00333 1.51006 0
M  V30 5413 C 512.479 2.25492 2.814 0
M  V30 5414 O 511.583 1.67613 3.76802 0
M  V30 5415 H 510.924 0.472863 0.466151 0
M  V30 5416 H 513.454 1.82577 0.923413 0
M  V30 5417 H 513.464 2.39561 3.30264 0
M  V30 5418 H 512.139 3.27727 2.56062 0
M  V30 5419 H 510.716 1.62718 3.35526 0
M  V30 5420 N 512.901 -0.976442 1.23707 0
M  V30 5421 C 514.15 -1.71254 1.06559 0
M  V30 5422 C 514.463 -1.91528 -0.397024 0
M  V30 5423 O 515.669 -2.62625 -0.688518 0
M  V30 5424 C 514.125 -3.08207 1.8584 0
M  V30 5425 C 513.733 -2.95806 3.36456 0
M  V30 5426 C 515.477 -3.85749 1.77194 0
M  V30 5427 C 513.384 -4.28015 4.08114 0
M  V30 5428 H 512.314 -0.642171 0.395136 0
M  V30 5429 H 514.965 -1.08877 1.4771 0
M  V30 5430 H 513.347 -3.71363 1.37498 0
M  V30 5431 H 514.521 -2.41716 3.92314 0
M  V30 5432 H 512.836 -2.31736 3.45959 0
M  V30 5433 H 515.433 -4.83633 2.28041 0
M  V30 5434 H 515.776 -4.09752 0.735477 0
M  V30 5435 H 516.309 -3.29303 2.23169 0
M  V30 5436 H 513.048 -4.09208 5.12083 0
M  V30 5437 H 512.568 -4.81955 3.57043 0
M  V30 5438 H 514.247 -4.96681 4.14629 0
M  V30 5439 N 514.379 -1.04941 -1.1758 0
M  V30 5440 C 515.656 -0.671918 -1.83697 0
M  V30 5441 C 516.036 0.847929 -1.93322 0
M  V30 5442 O 515.384 1.75287 -1.46583 0
M  V30 5443 C 515.594 -1.35797 -3.21497 0
M  V30 5444 C 516.942 -1.4944 -3.97433 0
M  V30 5445 O 517.966 -1.31678 -3.30967 0
M  V30 5446 O 516.825 -1.78463 -5.1654 0
M  V30 5447 H 513.919 -0.236212 -0.792548 0
M  V30 5448 H 516.465 -1.14884 -1.24899 0
M  V30 5449 H 515.237 -2.39498 -3.09446 0
M  V30 5450 H 514.86 -0.870236 -3.8796 0
M  V30 5451 N 515.857 1.33968 -0.830081 0
M  V30 5452 C 516.807 2.26845 -0.229242 0
M  V30 5453 C 517.791 1.48862 0.610659 0
M  V30 5454 O 518.983 1.70808 0.464067 0
M  V30 5455 C 516.112 3.3798 0.602057 0
M  V30 5456 C 515.198 4.23369 -0.248866 0
M  V30 5457 N 515.589 4.88182 -1.32334 0
M  V30 5458 C 513.887 4.45987 -0.0344077 0
M  V30 5459 C 514.588 5.51671 -1.84482 0
M  V30 5460 N 513.564 5.31348 -1.14762 0
M  V30 5461 H 517.366 2.74464 -1.05104 0
M  V30 5462 H 514.88 1.4777 -0.673623 0
M  V30 5463 H 516.877 4.03494 1.04873 0
M  V30 5464 H 515.537 2.9191 1.42193 0
M  V30 5465 H 516.548 4.88988 -1.70619 0
M  V30 5466 H 513.225 4.10658 0.752727 0
M  V30 5467 H 514.615 6.13308 -2.74413 0
M  V30 5468 N 517.335 0.585699 1.46312 0
M  V30 5469 C 518.746 0.159938 1.86014 0
M  V30 5470 C 519.097 -1.27775 1.48889 0
M  V30 5471 O 518.222 -1.96559 0.90519 0
M  V30 5472 C 518.817 0.283485 3.37612 0
M  V30 5473 C 517.376 -0.0874256 3.76298 0
M  V30 5474 C 516.523 0.618055 2.70325 0
M  V30 5475 H 519.474 0.793737 1.37425 0
M  V30 5476 H 519.495 -0.490348 3.77327 0
M  V30 5477 H 519.007 1.32995 3.64601 0
M  V30 5478 H 517.108 -1.13391 3.54927 0
M  V30 5479 H 517.221 0.290975 4.78216 0
M  V30 5480 H 515.585 0.057993 2.54634 0
M  V30 5481 H 516.368 1.66623 3.00153 0
M  V30 5482 N 518.813 -1.54241 0.323641 0
M  V30 5483 C 520.061 -2.00174 -0.278359 0
M  V30 5484 C 520.382 -1.2134 -1.52648 0
M  V30 5485 O 519.652 -0.315244 -1.93347 0
M  V30 5486 H 518.232 -0.739463 -0.105845 0
M  V30 5487 H 520.894 -1.89864 0.440204 0
M  V30 5488 H 519.99 -3.07486 -0.5347 0
M  V30 5489 N 520.291 -0.0518155 -1.57515 0
M  V30 5490 C 521.238 0.922352 -2.11569 0
M  V30 5491 C 522.208 1.30842 -1.02321 0
M  V30 5492 O 523.393 1.39778 -1.29872 0
M  V30 5493 C 520.533 2.19167 -2.6657 0
M  V30 5494 C 519.646 1.86003 -3.89906 0
M  V30 5495 C 518.781 3.07398 -4.33221 0
M  V30 5496 C 517.82 2.70158 -5.49255 0
M  V30 5497 N 516.957 3.84248 -5.8762 0
M  V30 5498 H 521.797 0.454506 -2.94514 0
M  V30 5499 H 519.334 0.212718 -1.45554 0
M  V30 5500 H 521.292 2.93443 -2.96559 0
M  V30 5501 H 519.922 2.63528 -1.86421 0
M  V30 5502 H 518.974 1.01874 -3.66505 0
M  V30 5503 H 520.286 1.54592 -4.74239 0
M  V30 5504 H 519.44 3.89972 -4.64765 0
M  V30 5505 H 518.179 3.41988 -3.477 0
M  V30 5506 H 517.184 1.86001 -5.17382 0
M  V30 5507 H 518.409 2.36759 -6.36492 0
M  V30 5508 H 516.355 4.18638 -5.05053 0
M  V30 5509 H 516.272 3.56538 -6.66646 0
M  V30 5510 H 517.54 4.6746 -6.2378 0
M  V30 5511 N 521.769 1.56035 0.221574 0
M  V30 5512 C 522.699 1.95434 1.2778 0
M  V30 5513 C 523.68 0.822564 1.48889 0
M  V30 5514 O 524.865 1.08486 1.61072 0
M  V30 5515 C 521.995 2.27102 2.62759 0
M  V30 5516 C 520.949 3.4277 2.56306 0
M  V30 5517 C 520.275 3.60043 3.95314 0
M  V30 5518 C 521.575 4.77742 2.11093 0
M  V30 5519 H 523.269 2.83912 0.950504 0
M  V30 5520 H 520.815 1.36596 0.455791 0
M  V30 5521 H 522.768 2.53256 3.36807 0
M  V30 5522 H 521.492 1.35478 2.97176 0
M  V30 5523 H 520.151 3.16664 1.84715 0
M  V30 5524 H 519.799 2.65794 4.27039 0
M  V30 5525 H 519.499 4.37841 3.91879 0
M  V30 5526 H 521.023 3.88545 4.71025 0
M  V30 5527 H 522.437 5.03102 2.74885 0
M  V30 5528 H 520.834 5.58823 2.18716 0
M  V30 5529 H 521.904 4.731 1.06321 0
M  V30 5530 N 523.247 -0.488276 1.49845 0
M  V30 5531 C 524.496 -1.23826 1.59217 0
M  V30 5532 C 524.809 -1.93439 0.289966 0
M  V30 5533 O 526.015 -2.70229 0.262382 0
M  V30 5534 C 524.471 -2.24902 2.80976 0
M  V30 5535 C 524.079 -1.6117 4.18005 0
M  V30 5536 C 525.823 -3.00648 2.99685 0
M  V30 5537 C 523.73 -2.60431 5.3097 0
M  V30 5538 H 522.66 -0.465858 0.592868 0
M  V30 5539 H 525.311 -0.510645 1.76252 0
M  V30 5540 H 523.693 -3.0088 2.57463 0
M  V30 5541 H 524.867 -0.910968 4.51706 0
M  V30 5542 H 523.182 -0.97767 4.0476 0
M  V30 5543 H 525.779 -3.74903 3.81251 0
M  V30 5544 H 526.122 -3.5902 2.10738 0
M  V30 5545 H 526.655 -2.31784 3.23297 0
M  V30 5546 H 523.394 -2.06823 6.22017 0
M  V30 5547 H 522.914 -3.28707 5.01709 0
M  V30 5548 H 524.593 -3.22606 5.60834 0
M  V30 5549 N 524.725 -1.39134 -0.740242 0
M  V30 5550 C 525.972 -1.36071 -1.49969 0
M  V30 5551 C 526.3 0.0450245 -1.94448 0
M  V30 5552 O 525.555 1.02482 -1.66721 0
M  V30 5553 C 525.854 -2.27457 -2.75678 0
M  V30 5554 C 525.52 -3.75185 -2.50094 0
M  V30 5555 C 524.182 -4.15439 -2.42825 0
M  V30 5556 C 526.534 -4.68643 -2.28086 0
M  V30 5557 C 523.862 -5.4722 -2.11584 0
M  V30 5558 C 526.214 -6.00695 -1.98363 0
M  V30 5559 C 524.878 -6.40018 -1.8956 0
M  V30 5560 H 524.148 -0.497921 -0.548777 0
M  V30 5561 H 526.795 -1.71599 -0.85007 0
M  V30 5562 H 525.1 -1.8503 -3.45356 0
M  V30 5563 H 526.797 -2.22384 -3.33686 0
M  V30 5564 H 523.387 -3.43279 -2.56627 0
M  V30 5565 H 527.571 -4.3838 -2.32672 0
M  V30 5566 H 522.827 -5.76615 -2.03287 0
M  V30 5567 H 527.001 -6.72644 -1.80341 0
M  V30 5568 H 524.628 -7.42051 -1.65117 0
M  V30 5569 N 526.204 0.969867 -1.24223 0
M  V30 5570 C 527.167 2.04564 -1.03373 0
M  V30 5571 C 528.167 1.60798 0.00819206 0
M  V30 5572 O 529.357 1.72641 -0.232567 0
M  V30 5573 C 526.489 3.36163 -0.566343 0
M  V30 5574 H 527.682 2.24494 -1.98853 0
M  V30 5575 H 525.235 1.1448 -1.06415 0
M  V30 5576 H 525.97 3.21925 0.391751 0
M  V30 5577 H 525.755 3.69273 -1.31834 0
M  V30 5578 H 527.245 4.1526 -0.441435 0
M  V30 5579 N 527.682 1.05563 1.17022 0
M  V30 5580 C 529.093 0.793475 1.69 0
M  V30 5581 C 529.444 -0.683882 1.83895 0
M  V30 5582 O 528.569 -1.53116 1.5292 0
M  V30 5583 C 529.164 1.43376 3.06967 0
M  V30 5584 C 527.723 1.21956 3.56095 0
M  V30 5585 C 526.87 1.51494 2.3226 0
M  V30 5586 H 529.821 1.22008 1.01487 0
M  V30 5587 H 529.842 0.845068 3.70997 0
M  V30 5588 H 529.354 2.50899 2.96093 0
M  V30 5589 H 527.455 0.163749 3.7224 0
M  V30 5590 H 527.568 1.92713 4.38633 0
M  V30 5591 H 525.932 0.935175 2.3691 0
M  V30 5592 H 526.715 2.60159 2.23992 0
M  V30 5593 N 529.16 -1.33526 0.837174 0
M  V30 5594 C 530.437 -1.92369 0.354065 0
M  V30 5595 C 530.817 -1.76348 -1.16038 0
M  V30 5596 O 530.165 -1.15083 -1.97403 0
M  V30 5597 C 530.375 -3.39728 0.799101 0
M  V30 5598 C 531.723 -4.16877 0.806139 0
M  V30 5599 O 532.747 -3.48373 0.742597 0
M  V30 5600 O 531.606 -5.39166 0.892345 0
M  V30 5601 H 528.7 -0.820952 0.0998378 0
M  V30 5602 H 531.246 -1.42409 0.922913 0
M  V30 5603 H 530.018 -3.45254 1.84162 0
M  V30 5604 H 529.641 -3.97062 0.206731 0
M  V30 5605 N 530.638 -0.59345 -1.46 0
M  V30 5606 C 531.568 0.121192 -2.33185 0
M  V30 5607 C 532.549 0.872977 -1.4599 0
M  V30 5608 O 533.734 0.846321 -1.74789 0
M  V30 5609 C 530.864 1.12844 -3.28456 0
M  V30 5610 C 529.818 0.4908 -4.25177 0
M  V30 5611 C 529.144 1.60529 -5.10034 0
M  V30 5612 C 530.444 -0.578949 -5.19081 0
M  V30 5613 H 532.138 -0.606767 -2.93187 0
M  V30 5614 H 529.684 -0.293242 -1.40983 0
M  V30 5615 H 531.637 1.63684 -3.88311 0
M  V30 5616 H 530.361 1.88681 -2.66584 0
M  V30 5617 H 529.02 0.00339328 -3.666 0
M  V30 5618 H 528.668 2.35359 -4.44539 0
M  V30 5619 H 528.368 1.18422 -5.75543 0
M  V30 5620 H 529.892 2.11623 -5.72755 0
M  V30 5621 H 531.306 -0.155199 -5.7309 0
M  V30 5622 H 529.703 -0.920947 -5.92991 0
M  V30 5623 H 530.773 -1.46109 -4.62364 0
M  V30 5624 N 532.116 1.54067 -0.331816 0
M  V30 5625 C 533.362 2.01012 0.268667 0
M  V30 5626 C 533.695 1.2195 1.51136 0
M  V30 5627 O 532.97 0.303972 1.9211 0
M  V30 5628 C 533.253 3.55158 0.59456 0
M  V30 5629 C 533.106 4.4494 -0.659409 0
M  V30 5630 C 534.425 4.16939 1.4089 0
M  V30 5631 H 531.544 0.730698 0.0961756 0
M  V30 5632 H 534.186 1.84593 -0.450031 0
M  V30 5633 H 532.336 3.6928 1.20685 0
M  V30 5634 H 534.008 4.42675 -1.29756 0
M  V30 5635 H 532.251 4.1428 -1.28665 0
M  V30 5636 H 532.922 5.50643 -0.386804 0
M  V30 5637 H 535.398 4.06443 0.891272 0
M  V30 5638 H 534.274 5.24889 1.60569 0
M  V30 5639 H 534.535 3.70798 2.40752 0
M  V30 5640 N 533.594 0.0601682 1.57485 0
M  V30 5641 C 534.524 -0.90889 2.15085 0
M  V30 5642 C 535.505 -1.31838 1.07484 0
M  V30 5643 O 536.69 -1.3915 1.35466 0
M  V30 5644 C 533.82 -2.18059 2.7031 0
M  V30 5645 C 532.774 -1.91088 3.82974 0
M  V30 5646 C 532.1 -3.24789 4.24754 0
M  V30 5647 C 533.4 -1.22535 5.07723 0
M  V30 5648 H 535.094 -0.429093 2.96309 0
M  V30 5649 H 532.64 -0.204952 1.42534 0
M  V30 5650 H 534.593 -2.86258 3.09248 0
M  V30 5651 H 533.317 -2.6826 1.8629 0
M  V30 5652 H 531.976 -1.25297 3.44523 0
M  V30 5653 H 531.624 -3.72809 3.37672 0
M  V30 5654 H 531.324 -3.07538 5.00694 0
M  V30 5655 H 532.848 -3.94205 4.66299 0
M  V30 5656 H 534.262 -1.80783 5.4405 0
M  V30 5657 H 532.659 -1.1558 5.88864 0
M  V30 5658 H 533.729 -0.202692 4.84476 0
M  V30 5659 N 535.072 -1.5615 -0.213296 0
M  V30 5660 C 536.349 -1.70349 -0.961281 0
M  V30 5661 C 536.729 -0.609791 -2.02101 0
M  V30 5662 O 536.077 0.381987 -2.25285 0
M  V30 5663 C 536.287 -3.11982 -1.56424 0
M  V30 5664 C 537.635 -3.71649 -2.05334 0
M  V30 5665 O 538.659 -3.14995 -1.66302 0
M  V30 5666 O 537.518 -4.71038 -2.77102 0
M  V30 5667 H 534.612 -0.694121 -0.449582 0
M  V30 5668 H 537.158 -1.68464 -0.204426 0
M  V30 5669 H 535.93 -3.83046 -0.799457 0
M  V30 5670 H 535.553 -3.18019 -2.38641 0
M  V30 5671 N 536.55 0.480323 -1.50102 0
M  V30 5672 C 537.966 0.813295 -1.37323 0
M  V30 5673 C 538.166 1.97027 -0.422206 0
M  V30 5674 O 537.222 2.5212 0.138563 0
M  V30 5675 C 538.535 1.13404 -2.78496 0
M  V30 5676 C 540.083 1.24104 -2.87345 0
M  V30 5677 C 540.558 1.59497 -4.29331 0
M  V30 5678 N 542.049 1.66507 -4.32238 0
M  V30 5679 C 542.784 1.95378 -5.39087 0
M  V30 5680 N 542.28 2.22333 -6.56155 0
M  V30 5681 N 544.073 1.96803 -5.26522 0
M  V30 5682 H 536.224 -0.282291 -2.10516 0
M  V30 5683 H 538.487 -0.063752 -0.945854 0
M  V30 5684 H 538.193 0.357064 -3.49883 0
M  V30 5685 H 538.067 2.07251 -3.15162 0
M  V30 5686 H 540.454 2.00871 -2.16183 0
M  V30 5687 H 540.535 0.282593 -2.54234 0
M  V30 5688 H 540.179 0.832736 -5.01027 0
M  V30 5689 H 540.109 2.56477 -4.59921 0
M  V30 5690 H 542.6 1.47753 -3.47818 0
M  V30 5691 H 542.913 2.43611 -7.33399 0
M  V30 5692 H 541.258 2.19745 -6.59346 0
M  V30 5693 H 544.449 1.75235 -4.34062 0
M  V30 5694 H 544.622 2.18969 -6.09883 0
M  V30 5695 N 538.028 1.39524 0.732853 0
M  V30 5696 C 539.305 1.27373 1.48444 0
M  V30 5697 C 539.685 -0.115725 2.10783 0
M  V30 5698 O 539.033 -1.12713 1.98766 0
M  V30 5699 C 539.243 2.39966 2.53412 0
M  V30 5700 C 540.591 2.79384 3.19733 0
M  V30 5701 O 541.615 2.39431 2.63725 0
M  V30 5702 O 540.474 3.48353 4.21085 0
M  V30 5703 H 537.568 0.499272 0.659285 0
M  V30 5704 H 540.114 1.51403 0.766496 0
M  V30 5705 H 538.886 3.32845 2.05742 0
M  V30 5706 H 538.509 2.17612 3.32762 0
M  V30 5707 N 539.506 -0.963266 1.24736 0
M  V30 5708 C 540.416 -2.09246 1.06082 0
M  V30 5709 C 541.432 -1.74 0.000363101 0
M  V30 5710 O 542.608 -2.0041 0.199479 0
M  V30 5711 C 539.673 -3.40115 0.672498 0
M  V30 5712 C 538.734 -3.89282 1.80993 0
M  V30 5713 C 537.967 -5.13905 1.44004 0
M  V30 5714 O 538.19 -5.69434 0.331835 0
M  V30 5715 O 537.124 -5.57566 2.26723 0
M  V30 5716 H 540.95 -2.27881 2.00759 0
M  V30 5717 H 538.535 -1.07649 1.03595 0
M  V30 5718 H 540.417 -4.18797 0.467668 0
M  V30 5719 H 539.092 -3.22771 -0.245102 0
M  V30 5720 H 537.999 -3.11642 2.06955 0
M  V30 5721 H 539.332 -4.1111 2.70646 0
M  V30 5722 N 540.985 -1.06182 -1.16461 0
M  V30 5723 C 542.233 -0.776326 -1.86595 0
M  V30 5724 C 542.554 0.69921 -1.82033 0
M  V30 5725 O 541.824 1.50579 -1.2531 0
M  V30 5726 H 540.404 -0.284184 -0.690832 0
M  V30 5727 H 543.066 -1.34308 -1.41235 0
M  V30 5728 H 542.162 -1.10022 -2.92064 0
M  V30 5729 N 542.463 1.3308 -0.844243 0
M  V30 5730 C 543.41 2.29104 -0.279323 0
M  V30 5731 C 544.38 1.54577 0.607882 0
M  V30 5732 O 545.565 1.8285 0.545009 0
M  V30 5733 C 542.705 3.40927 0.53508 0
M  V30 5734 C 541.818 4.30354 -0.376749 0
M  V30 5735 C 540.953 5.29297 0.449276 0
M  V30 5736 C 539.992 6.10365 -0.460606 0
M  V30 5737 N 539.129 7.01335 0.327612 0
M  V30 5738 H 543.969 2.76817 -1.10346 0
M  V30 5739 H 541.506 1.36203 -0.555611 0
M  V30 5740 H 543.464 4.04469 1.02278 0
M  V30 5741 H 542.094 2.94391 1.32414 0
M  V30 5742 H 541.146 3.67485 -0.982791 0
M  V30 5743 H 542.458 4.87067 -1.07549 0
M  V30 5744 H 541.612 5.98392 1.00058 0
M  V30 5745 H 540.351 4.73174 1.18143 0
M  V30 5746 H 539.356 5.40182 -1.02388 0
M  V30 5747 H 540.581 6.68571 -1.1912 0
M  V30 5748 H 538.527 6.47655 1.04305 0
M  V30 5749 H 538.444 7.55355 -0.3123 0
M  V30 5750 H 539.712 7.74731 0.86098 0
M  V30 5751 N 543.941 0.601185 1.45683 0
M  V30 5752 C 545.181 0.0968037 2.04171 0
M  V30 5753 C 545.545 -1.2466 1.46027 0
M  V30 5754 O 546.746 -1.84132 1.95829 0
M  V30 5755 C 545.017 0.051384 3.57363 0
M  V30 5756 S 546.576 -0.392737 4.37039 0
M  V30 5757 H 543.394 0.0464504 0.709481 0
M  V30 5758 H 545.996 0.797846 1.78479 0
M  V30 5759 H 544.7 1.03274 3.97193 0
M  V30 5760 H 544.231 -0.671853 3.87621 0
M  V30 5761 H 546.246 -1.64364 4.68187 0
M  V30 5762 N 545.419 -1.53889 0.339982 0
M  V30 5763 C 546.665 -2.01152 -0.258003 0
M  V30 5764 C 546.998 -1.22749 -1.50487 0
M  V30 5765 O 546.273 -0.314156 -1.91946 0
M  V30 5766 C 546.556 -3.55468 -0.575717 0
M  V30 5767 C 546.409 -4.44584 0.682996 0
M  V30 5768 C 547.728 -4.1768 -1.38677 0
M  V30 5769 H 544.847 -0.731198 -0.0922992 0
M  V30 5770 H 547.489 -1.84352 0.459814 0
M  V30 5771 H 545.639 -3.69914 -1.18725 0
M  V30 5772 H 547.311 -4.41981 1.32102 0
M  V30 5773 H 545.554 -4.13592 1.3086 0
M  V30 5774 H 546.225 -5.5043 0.416001 0
M  V30 5775 H 548.701 -4.0691 -0.869705 0
M  V30 5776 H 547.577 -5.25734 -1.57783 0
M  V30 5777 H 547.838 -3.72069 -2.38782 0
M  V30 5778 N 546.897 -0.0685191 -1.57451 0
M  V30 5779 C 547.807 0.914677 -2.16034 0
M  V30 5780 C 548.823 1.32938 -1.12265 0
M  V30 5781 O 549.999 1.40275 -1.44516 0
M  V30 5782 C 547.064 2.16519 -2.70777 0
M  V30 5783 C 546.125 1.80721 -3.89408 0
M  V30 5784 C 545.358 2.9981 -4.41531 0
M  V30 5785 O 545.581 4.13727 -3.92666 0
M  V30 5786 O 544.515 2.79817 -5.32903 0
M  V30 5787 H 548.341 0.446364 -3.00402 0
M  V30 5788 H 545.926 0.154367 -1.486 0
M  V30 5789 H 547.808 2.89856 -3.05878 0
M  V30 5790 H 546.483 2.62454 -1.89471 0
M  V30 5791 H 545.39 1.04646 -3.59166 0
M  V30 5792 H 546.723 1.39571 -4.71997 0
M  V30 5793 N 548.375 1.56261 0.205012 0
M  V30 5794 C 549.623 1.79684 0.925096 0
M  V30 5795 C 549.944 0.63989 1.84202 0
M  V30 5796 O 549.214 -0.342345 1.92885 0
M  V30 5797 H 547.794 0.662774 0.344587 0
M  V30 5798 H 550.456 1.93734 0.212899 0
M  V30 5799 H 549.552 2.72467 1.52211 0
M  V30 5800 N 549.853 -0.472356 1.50355 0
M  V30 5801 C 551.102 -1.2213 1.60522 0
M  V30 5802 C 551.415 -1.9312 0.310466 0
M  V30 5803 O 552.621 -2.69936 0.291029 0
M  V30 5804 C 551.077 -2.21909 2.83345 0
M  V30 5805 C 550.685 -1.56727 4.19691 0
M  V30 5806 C 552.429 -2.97453 3.02856 0
M  V30 5807 C 550.336 -2.54785 5.33703 0
M  V30 5808 H 549.266 -0.459543 0.597776 0
M  V30 5809 H 551.917 -0.491922 1.76783 0
M  V30 5810 H 550.299 -2.98133 2.60639 0
M  V30 5811 H 551.473 -0.863007 4.52646 0
M  V30 5812 H 549.788 -0.934685 4.05774 0
M  V30 5813 H 552.385 -3.70838 3.85205 0
M  V30 5814 H 552.728 -3.56764 2.14534 0
M  V30 5815 H 553.261 -2.28342 3.25737 0
M  V30 5816 H 550 -2.00214 6.24175 0
M  V30 5817 H 549.52 -3.23367 5.05167 0
M  V30 5818 H 551.199 -3.16639 5.64224 0
M  V30 5819 N 551.331 -1.39911 -0.725443 0
M  V30 5820 C 552.261 -1.42138 -1.85254 0
M  V30 5821 C 553.242 -0.283513 -1.67721 0
M  V30 5822 O 554.427 -0.490717 -1.87898 0
M  V30 5823 C 551.557 -1.27354 -3.23107 0
M  V30 5824 C 550.511 -2.3864 -3.55296 0
M  V30 5825 C 549.837 -2.08939 -4.92188 0
M  V30 5826 C 551.137 -3.8097 -3.57295 0
M  V30 5827 H 552.831 -2.36461 -1.83648 0
M  V30 5828 H 550.377 -1.13817 -0.882138 0
M  V30 5829 H 552.33 -1.2753 -4.01639 0
M  V30 5830 H 551.054 -0.295025 -3.25265 0
M  V30 5831 H 549.713 -2.37696 -2.79099 0
M  V30 5832 H 549.361 -1.09502 -4.90936 0
M  V30 5833 H 549.061 -2.83491 -5.14691 0
M  V30 5834 H 550.585 -2.10781 -5.73065 0
M  V30 5835 H 551.999 -3.8379 -4.25885 0
M  V30 5836 H 550.396 -4.5496 -3.9132 0
M  V30 5837 H 551.466 -4.11261 -2.5689 0
M  V30 5838 N 552.809 0.956637 -1.25245 0
M  V30 5839 C 553.719 2.0868 -1.0719 0
M  V30 5840 C 554.735 1.73997 -0.00959074 0
M  V30 5841 O 555.911 2.00301 -0.210104 0
M  V30 5842 C 552.976 3.39754 -0.690526 0
M  V30 5843 C 552.037 3.88316 -1.83055 0
M  V30 5844 C 551.27 5.13134 -1.46728 0
M  V30 5845 O 551.493 5.6925 -0.362029 0
M  V30 5846 O 550.427 5.56356 -2.29677 0
M  V30 5847 H 554.253 2.26813 -2.01965 0
M  V30 5848 H 551.838 1.07098 -1.04165 0
M  V30 5849 H 553.72 4.18543 -0.489871 0
M  V30 5850 H 552.395 3.22896 0.227981 0
M  V30 5851 H 551.302 3.1054 -2.08604 0
M  V30 5852 H 552.635 4.09669 -2.72822 0
M  V30 5853 N 554.287 1.06798 1.15896 0
M  V30 5854 C 555.536 0.782796 1.8589 0
M  V30 5855 C 555.849 -0.693498 1.82893 0
M  V30 5856 O 557.055 -1.09325 2.48516 0
M  V30 5857 C 555.511 1.3502 3.33613 0
M  V30 5858 C 555.119 2.8571 3.45071 0
M  V30 5859 C 556.863 1.14278 4.08829 0
M  V30 5860 C 554.77 3.35669 4.86909 0
M  V30 5861 H 553.7 0.289149 0.696354 0
M  V30 5862 H 556.351 1.28734 1.30766 0
M  V30 5863 H 554.733 0.773407 3.88374 0
M  V30 5864 H 555.907 3.49385 3.00445 0
M  V30 5865 H 554.222 3.05178 2.83294 0
M  V30 5866 H 556.819 1.49087 5.13495 0
M  V30 5867 H 557.162 0.0814575 4.1622 0
M  V30 5868 H 557.695 1.68563 3.60321 0
M  V30 5869 H 554.434 4.41302 4.84698 0
M  V30 5870 H 553.954 2.76745 5.32139 0
M  V30 5871 H 555.633 3.31296 5.55745 0
M  V30 5872 N 555.766 -1.3263 0.851289 0
M  V30 5873 C 557.013 -1.97368 0.453023 0
M  V30 5874 C 557.341 -1.67384 -0.990596 0
M  V30 5875 O 556.596 -0.952665 -1.70947 0
M  V30 5876 C 556.895 -3.51713 0.635015 0
M  V30 5877 C 556.561 -4.01676 2.04859 0
M  V30 5878 C 555.223 -4.15031 2.43522 0
M  V30 5879 C 557.575 -4.28206 2.97135 0
M  V30 5880 C 554.903 -4.52257 3.73739 0
M  V30 5881 C 557.255 -4.66889 4.26846 0
M  V30 5882 C 555.919 -4.7845 4.65448 0
M  V30 5883 H 555.189 -0.722219 0.165773 0
M  V30 5884 H 557.836 -1.58092 1.0807 0
M  V30 5885 H 556.141 -3.91726 -0.0759081 0
M  V30 5886 H 557.838 -3.99823 0.306964 0
M  V30 5887 H 554.428 -3.91764 1.73836 0
M  V30 5888 H 558.612 -4.174 2.68498 0
M  V30 5889 H 553.868 -4.59402 4.03435 0
M  V30 5890 H 558.042 -4.86372 4.98413 0
M  V30 5891 H 555.669 -5.07052 5.66395 0
M  V30 5892 N 557.244 -0.608902 -1.45362 0
M  V30 5893 C 558.521 -0.0365378 -1.95566 0
M  V30 5894 C 558.901 1.43169 -1.55131 0
M  V30 5895 O 558.249 2.1349 -0.814513 0
M  V30 5896 C 558.459 -0.236026 -3.48201 0
M  V30 5897 C 559.807 -0.117518 -4.24437 0
M  V30 5898 O 560.831 -0.166217 -3.55812 0
M  V30 5899 O 559.69 -0.00372127 -5.465 0
M  V30 5900 H 556.784 0.0349874 -0.82626 0
M  V30 5901 H 559.33 -0.679055 -1.55521 0
M  V30 5902 H 558.102 -1.25569 -3.70605 0
M  V30 5903 H 557.725 0.441691 -3.95139 0
M  V30 5904 N 558.722 1.53707 -0.348139 0
M  V30 5905 C 559.655 2.21481 0.549667 0
M  V30 5906 C 560.633 1.20046 1.09671 0
M  V30 5907 O 561.817 1.48883 1.15612 0
M  V30 5908 C 558.944 2.89585 1.75664 0
M  V30 5909 C 557.99 4.04948 1.33864 0
M  V30 5910 S 558.823 5.34325 0.354577 0
M  V30 5911 C 559.979 6.05934 1.56828 0
M  V30 5912 H 560.212 2.97289 -0.0259755 0
M  V30 5913 H 557.745 1.53833 -0.132216 0
M  V30 5914 H 559.703 3.29441 2.44906 0
M  V30 5915 H 558.364 2.13535 2.30351 0
M  V30 5916 H 557.557 4.51552 2.23868 0
M  V30 5917 H 557.159 3.66893 0.725651 0
M  V30 5918 H 559.451 6.29606 2.50205 0
M  V30 5919 H 560.394 6.98799 1.14395 0
M  V30 5920 H 560.802 5.36151 1.76642 0
M  V30 5921 N 560.2 0.0768682 1.57412 0
M  V30 5922 C 561.13 -0.886026 2.16037 0
M  V30 5923 C 562.111 -1.30691 1.08876 0
M  V30 5924 O 563.296 -1.37705 1.36934 0
M  V30 5925 C 560.426 -2.1518 2.72608 0
M  V30 5926 C 559.38 -1.87015 3.8498 0
M  V30 5927 C 558.706 -3.20266 4.28175 0
M  V30 5928 C 560.006 -1.17143 5.08994 0
M  V30 5929 H 561.7 -0.397642 2.96748 0
M  V30 5930 H 559.246 -0.189823 1.42743 0
M  V30 5931 H 561.199 -2.82962 3.12266 0
M  V30 5932 H 559.923 -2.66269 1.89125 0
M  V30 5933 H 558.582 -1.21636 3.45833 0
M  V30 5934 H 558.23 -3.69207 3.41607 0
M  V30 5935 H 557.93 -3.0221 5.03927 0
M  V30 5936 H 559.454 -3.89237 4.70454 0
M  V30 5937 H 560.868 -1.75003 5.45937 0
M  V30 5938 H 559.265 -1.09328 5.90057 0
M  V30 5939 H 560.335 -0.151295 4.84664 0
M  V30 5940 N 561.678 -1.56367 -0.196722 0
M  V30 5941 C 562.608 -1.97442 -1.24655 0
M  V30 5942 C 563.589 -0.846147 -1.47561 0
M  V30 5943 O 564.774 -1.11035 -1.59326 0
M  V30 5944 C 561.904 -2.31253 -2.59112 0
M  V30 5945 C 560.858 -3.46804 -2.50821 0
M  V30 5946 C 560.184 -3.66286 -3.89536 0
M  V30 5947 C 561.484 -4.8104 -2.03465 0
M  V30 5948 H 563.178 -2.85388 -0.905216 0
M  V30 5949 H 560.724 -1.37304 -0.434002 0
M  V30 5950 H 562.677 -2.58583 -3.32736 0
M  V30 5951 H 561.401 -1.40188 -2.94983 0
M  V30 5952 H 560.06 -3.19563 -1.79653 0
M  V30 5953 H 559.708 -2.72555 -4.22756 0
M  V30 5954 H 559.408 -4.4402 -3.84864 0
M  V30 5955 H 560.932 -3.9599 -4.64784 0
M  V30 5956 H 562.346 -5.07411 -2.66846 0
M  V30 5957 H 560.743 -5.62232 -2.09798 0
M  V30 5958 H 561.813 -4.74732 -0.98781 0
M  V30 5959 N 563.156 0.464375 -1.50603 0
M  V30 5960 C 564.119 1.54393 -1.69397 0
M  V30 5961 C 565.119 1.50566 -0.564504 0
M  V30 5962 O 566.309 1.53066 -0.831645 0
M  V30 5963 C 563.441 2.9401 -1.72543 0
M  V30 5964 H 564.634 1.39044 -2.65719 0
M  V30 5965 H 562.187 0.69122 -1.40185 0
M  V30 5966 H 562.922 3.14795 -0.77938 0
M  V30 5967 H 562.707 2.98195 -2.54602 0
M  V30 5968 H 564.197 3.72375 -1.89015 0
M  V30 5969 N 564.634 1.40294 0.718013 0
M  V30 5970 C 565.862 1.4175 1.50714 0
M  V30 5971 C 566.277 0.0165366 1.88793 0
M  V30 5972 O 565.634 -0.958942 1.55276 0
M  V30 5973 C 565.685 2.30598 2.784 0
M  V30 5974 O 565.406 3.6524 2.41932 0
M  V30 5975 C 566.907 2.4062 3.72313 0
M  V30 5976 H 564.127 0.483565 0.465194 0
M  V30 5977 H 566.671 1.84316 0.885889 0
M  V30 5978 H 564.826 1.91401 3.36815 0
M  V30 5979 H 565.24 4.12402 3.24076 0
M  V30 5980 H 566.714 3.07001 4.58753 0
M  V30 5981 H 567.191 1.4305 4.15251 0
M  V30 5982 H 567.797 2.80359 3.19811 0
M  V30 5983 N 566.112 -0.949982 1.2575 0
M  V30 5984 C 567.34 -1.72972 1.13527 0
M  V30 5985 C 567.755 -1.8623 -0.310453 0
M  V30 5986 O 567.112 -1.36336 -1.2132 0
M  V30 5987 C 567.163 -3.14108 1.78936 0
M  V30 5988 O 566.884 -3.01493 3.17858 0
M  V30 5989 C 568.385 -4.08338 1.72554 0
M  V30 5990 H 565.605 -0.541864 0.395758 0
M  V30 5991 H 568.149 -1.19151 1.66202 0
M  V30 5992 H 566.304 -3.64858 1.30221 0
M  V30 5993 H 566.718 -3.90559 3.50092 0
M  V30 5994 H 568.192 -5.04963 2.22973 0
M  V30 5995 H 568.669 -4.33742 0.690251 0
M  V30 5996 H 569.275 -3.63506 2.2078 0
M  V30 5997 N 567.59 -1.07411 -1.15328 0
M  V30 5998 C 568.815 -0.818856 -1.90551 0
M  V30 5999 C 569.24 0.622194 -1.77512 0
M  V30 6000 O 568.598 1.43484 -1.10824 0
M  V30 6001 C 568.646 -1.23267 -3.38877 0
M  V30 6002 O 567.75 -0.378345 -4.10661 0
M  V30 6003 H 567.091 -0.29827 -0.593238 0
M  V30 6004 H 569.621 -1.43289 -1.46046 0
M  V30 6005 H 569.631 -1.20912 -3.89672 0
M  V30 6006 H 568.306 -2.28226 -3.47686 0
M  V30 6007 H 566.883 -0.464437 -3.69996 0
M  V30 6008 N 569.068 1.32177 -0.85831 0
M  V30 6009 C 570.484 1.49873 -0.548656 0
M  V30 6010 C 570.684 1.79278 0.919874 0
M  V30 6011 O 569.74 1.86451 1.70271 0
M  V30 6012 C 571.053 2.64043 -1.4388 0
M  V30 6013 C 572.601 2.77928 -1.43961 0
M  V30 6014 C 573.076 3.95182 -2.31506 0
M  V30 6015 N 574.567 4.0245 -2.29321 0
M  V30 6016 C 575.302 4.9242 -2.93786 0
M  V30 6017 N 574.798 5.87373 -3.67376 0
M  V30 6018 N 576.591 4.85572 -2.83155 0
M  V30 6019 H 568.742 1.11357 -1.80868 0
M  V30 6020 H 571.005 0.549175 -0.772729 0
M  V30 6021 H 570.711 2.49055 -2.48324 0
M  V30 6022 H 570.585 3.59912 -1.12885 0
M  V30 6023 H 572.972 2.92338 -0.402813 0
M  V30 6024 H 573.053 1.82762 -1.78974 0
M  V30 6025 H 572.697 3.81531 -3.35256 0
M  V30 6026 H 572.627 4.89633 -1.93823 0
M  V30 6027 H 575.118 3.34507 -1.75822 0
M  V30 6028 H 575.431 6.52728 -4.13722 0
M  V30 6029 H 573.776 5.87388 -3.71484 0
M  V30 6030 H 576.967 4.10363 -2.25211 0
M  V30 6031 H 577.14 5.55486 -3.33676 0
M  V30 6032 N 570.547 0.616602 1.45037 0
M  V30 6033 C 571.794 0.115331 2.02171 0
M  V30 6034 C 572.122 -1.25748 1.48383 0
M  V30 6035 O 571.377 -1.84511 0.652229 0
M  V30 6036 C 571.676 0.0356829 3.57382 0
M  V30 6037 C 571.342 1.34535 4.30362 0
M  V30 6038 C 570.004 1.70408 4.50016 0
M  V30 6039 C 572.356 2.21049 4.72003 0
M  V30 6040 C 569.684 2.92529 5.0857 0
M  V30 6041 C 572.036 3.42427 5.31908 0
M  V30 6042 C 570.7 3.78541 5.49784 0
M  V30 6043 H 569.97 0.0422024 0.739797 0
M  V30 6044 H 572.617 0.80002 1.73988 0
M  V30 6045 H 570.922 -0.732314 3.84895 0
M  V30 6046 H 572.619 -0.368463 3.99304 0
M  V30 6047 H 569.209 1.05615 4.15383 0
M  V30 6048 H 573.393 1.94632 4.56544 0
M  V30 6049 H 568.649 3.20605 5.20598 0
M  V30 6050 H 572.823 4.09709 5.63127 0
M  V30 6051 H 570.45 4.73255 5.94923 0
M  V30 6052 N 572.025 -1.5352 0.356285 0
M  V30 6053 C 573.441 -1.59599 0.00485267 0
M  V30 6054 C 573.641 -1.37179 -1.47595 0
M  V30 6055 O 572.697 -1.17234 -2.23635 0
M  V30 6056 C 574.01 -2.97277 0.452454 0
M  V30 6057 C 575.558 -3.10357 0.405881 0
M  V30 6058 C 576.033 -4.50432 0.829148 0
M  V30 6059 N 577.524 -4.5652 0.783838 0
M  V30 6060 C 578.259 -5.63077 1.08315 0
M  V30 6061 N 577.755 -6.77429 1.45126 0
M  V30 6062 N 579.548 -5.53014 1.00655 0
M  V30 6063 H 571.699 -1.66346 1.32071 0
M  V30 6064 H 573.962 -0.77971 0.539218 0
M  V30 6065 H 573.668 -3.18792 1.48542 0
M  V30 6066 H 573.542 -3.76836 -0.165762 0
M  V30 6067 H 575.929 -2.88558 -0.617934 0
M  V30 6068 H 576.01 -2.32828 1.05947 0
M  V30 6069 H 575.654 -4.72968 1.85103 0
M  V30 6070 H 575.584 -5.26378 0.152906 0
M  V30 6071 H 578.075 -3.74408 0.512513 0
M  V30 6072 H 578.388 -7.54669 1.66415 0
M  V30 6073 H 576.733 -6.78844 1.48983 0
M  V30 6074 H 579.924 -4.62557 0.718215 0
M  V30 6075 H 580.097 -6.35964 1.24315 0
M  V30 6076 N 573.503 -0.0852151 -1.57369 0
M  V30 6077 C 574.413 0.891712 -2.16992 0
M  V30 6078 C 575.429 1.3174 -1.13669 0
M  V30 6079 O 576.605 1.38735 -1.45995 0
M  V30 6080 C 573.67 2.13635 -2.73059 0
M  V30 6081 C 572.731 1.7658 -3.91303 0
M  V30 6082 C 571.964 2.95111 -4.44686 0
M  V30 6083 O 572.187 4.09539 -3.97032 0
M  V30 6084 O 571.121 2.74149 -5.35841 0
M  V30 6085 H 574.947 0.414477 -3.00858 0
M  V30 6086 H 572.532 0.138598 -1.48756 0
M  V30 6087 H 574.414 2.86595 -3.08935 0
M  V30 6088 H 573.089 2.6043 -1.92244 0
M  V30 6089 H 571.996 1.00831 -3.60255 0
M  V30 6090 H 573.329 1.34557 -4.7345 0
M  V30 6091 N 574.981 1.5647 0.188427 0
M  V30 6092 C 575.911 1.98101 1.23606 0
M  V30 6093 C 576.892 0.853961 1.47111 0
M  V30 6094 O 578.077 1.11879 1.58735 0
M  V30 6095 C 575.207 2.32624 2.57882 0
M  V30 6096 C 574.161 3.48129 2.48978 0
M  V30 6097 C 573.487 3.68347 3.87588 0
M  V30 6098 C 574.787 4.82112 2.00911 0
M  V30 6099 H 576.481 2.85864 0.890068 0
M  V30 6100 H 574.027 1.37532 0.426714 0
M  V30 6101 H 575.98 2.60343 3.3136 0
M  V30 6102 H 574.704 1.41751 2.94235 0
M  V30 6103 H 573.363 3.20511 1.77956 0
M  V30 6104 H 573.011 2.74793 4.21305 0
M  V30 6105 H 572.711 4.46055 3.82503 0
M  V30 6106 H 574.235 3.98449 4.62678 0
M  V30 6107 H 575.649 5.08819 2.64151 0
M  V30 6108 H 574.046 5.63337 2.06814 0
M  V30 6109 H 575.116 4.75249 0.96262 0
M  V30 6110 N 576.459 -0.456382 1.50847 0
M  V30 6111 C 577.406 -1.55249 1.70782 0
M  V30 6112 C 578.376 -1.56757 0.549231 0
M  V30 6113 O 579.561 -1.74061 0.7815 0
M  V30 6114 C 576.701 -2.93118 1.82143 0
M  V30 6115 C 575.814 -3.01285 3.09598 0
M  V30 6116 C 574.949 -4.30159 3.11667 0
M  V30 6117 C 573.988 -4.32124 4.33515 0
M  V30 6118 N 573.125 -5.52492 4.3324 0
M  V30 6119 H 577.965 -1.37555 2.64353 0
M  V30 6120 H 575.502 -0.668543 1.3103 0
M  V30 6121 H 577.46 -3.73088 1.86711 0
M  V30 6122 H 576.09 -3.09413 0.919978 0
M  V30 6123 H 575.142 -2.14096 3.14431 0
M  V30 6124 H 576.454 -2.98597 3.99551 0
M  V30 6125 H 575.608 -5.18489 3.15046 0
M  V30 6126 H 574.347 -4.35477 2.1957 0
M  V30 6127 H 573.352 -3.42189 4.30333 0
M  V30 6128 H 574.577 -4.28485 5.26856 0
M  V30 6129 H 572.523 -5.58567 3.44004 0
M  V30 6130 H 572.44 -5.51605 5.16979 0
M  V30 6131 H 573.708 -6.42906 4.40786 0
M  V30 6132 N 577.937 -1.40673 -0.710563 0
M  V30 6133 C 578.867 -1.44095 -1.83736 0
M  V30 6134 C 579.848 -0.301286 -1.67411 0
M  V30 6135 O 581.033 -0.510618 -1.87367 0
M  V30 6136 C 578.163 -1.30773 -3.21738 0
M  V30 6137 C 577.117 -2.42395 -3.52745 0
M  V30 6138 C 576.443 -2.14147 -4.89944 0
M  V30 6139 C 577.743 -3.84738 -3.53234 0
M  V30 6140 H 579.437 -2.38396 -1.81129 0
M  V30 6141 H 576.983 -1.14746 -0.870017 0
M  V30 6142 H 578.936 -1.31783 -4.00264 0
M  V30 6143 H 577.66 -0.329507 -3.24934 0
M  V30 6144 H 576.319 -2.40643 -2.76562 0
M  V30 6145 H 575.967 -1.14703 -4.89747 0
M  V30 6146 H 575.667 -2.88934 -5.11655 0
M  V30 6147 H 577.191 -2.16848 -5.70797 0
M  V30 6148 H 578.605 -3.88286 -4.2179 0
M  V30 6149 H 577.002 -4.59085 -3.86473 0
M  V30 6150 H 578.072 -4.13962 -2.52514 0
M  V30 6151 N 579.415 0.9433 -1.26252 0
M  V30 6152 C 580.347 2.04542 -1.03417 0
M  V30 6153 C 581.36 1.62799 0.0046911 0
M  V30 6154 O 582.549 1.76944 -0.235146 0
M  V30 6155 C 579.649 3.34511 -0.543671 0
M  V30 6156 C 578.822 4.05033 -1.65128 0
M  V30 6157 C 577.881 5.13273 -1.1592 0
M  V30 6158 O 576.907 5.38095 -1.85586 0
M  V30 6159 N 578.109 5.805 -0.00649279 0
M  V30 6160 H 580.874 2.24699 -1.98319 0
M  V30 6161 H 578.435 1.11264 -1.1761 0
M  V30 6162 H 580.427 4.04212 -0.198703 0
M  V30 6163 H 578.997 3.11042 0.311711 0
M  V30 6164 H 578.217 3.29275 -2.16729 0
M  V30 6165 H 579.505 4.48903 -2.39508 0
M  V30 6166 H 578.903 5.62767 0.575347 0
M  V30 6167 H 577.46 6.51201 0.279416 0
M  V30 6168 N 580.893 1.08022 1.14757 0
M  V30 6169 C 581.843 0.676345 2.17737 0
M  V30 6170 C 582.827 -0.302018 1.5804 0
M  V30 6171 O 584.019 -0.11466 1.76628 0
M  V30 6172 C 581.148 0.082984 3.432 0
M  V30 6173 C 580.234 1.0869 4.09936 0
M  V30 6174 N 580.625 2.26891 4.52055 0
M  V30 6175 C 578.923 0.921768 4.36371 0
M  V30 6176 C 579.624 2.90636 5.0389 0
M  V30 6177 N 578.6 2.18266 4.97856 0
M  V30 6178 H 582.402 1.5765 2.4804 0
M  V30 6179 H 579.916 0.954374 1.31398 0
M  V30 6180 H 581.913 -0.224289 4.16296 0
M  V30 6181 H 580.573 -0.812206 3.14378 0
M  V30 6182 H 581.584 2.6457 4.45223 0
M  V30 6183 H 578.261 0.0800499 4.17423 0
M  V30 6184 H 579.651 3.9104 5.46386 0
M  V30 6185 N 582.371 -1.3172 0.865308 0
M  V30 6186 C 583.318 -2.2863 0.315736 0
M  V30 6187 C 584.288 -1.55524 -0.583213 0
M  V30 6188 O 585.473 -1.83694 -0.51585 0
M  V30 6189 C 582.613 -3.41735 -0.480773 0
M  V30 6190 C 581.726 -4.297 0.445167 0
M  V30 6191 C 580.861 -5.29944 -0.365012 0
M  V30 6192 C 579.9 -6.09554 0.557651 0
M  V30 6193 N 579.037 -7.01768 -0.215994 0
M  V30 6194 H 583.877 -2.75026 1.14736 0
M  V30 6195 H 581.414 -1.35302 0.577209 0
M  V30 6196 H 583.372 -4.06045 -0.958306 0
M  V30 6197 H 582.002 -2.96461 -1.27714 0
M  V30 6198 H 581.054 -3.65875 1.04113 0
M  V30 6199 H 582.366 -4.85295 1.15284 0
M  V30 6200 H 581.52 -5.99908 -0.905255 0
M  V30 6201 H 580.259 -4.74994 -1.106 0
M  V30 6202 H 579.264 -5.38485 1.10969 0
M  V30 6203 H 580.489 -6.66591 1.29742 0
M  V30 6204 H 578.435 -6.49232 -0.939878 0
M  V30 6205 H 578.352 -7.54762 0.432431 0
M  V30 6206 H 579.62 -7.76002 -0.737618 0
M  V30 6207 N 583.85 -0.624285 -1.44708 0
M  V30 6208 C 584.76 0.0861083 -2.34442 0
M  V30 6209 C 585.776 0.84291 -1.5222 0
M  V30 6210 O 586.952 0.796723 -1.84971 0
M  V30 6211 C 584.017 1.05999 -3.30099 0
M  V30 6212 C 583.077 0.303316 -4.28227 0
M  V30 6213 C 582.311 1.23081 -5.19314 0
M  V30 6214 O 582.534 2.46929 -5.14181 0
M  V30 6215 O 581.468 0.71883 -5.97592 0
M  V30 6216 H 585.293 -0.651756 -2.96624 0
M  V30 6217 H 582.879 -0.384493 -1.44368 0
M  V30 6218 H 584.76 1.62046 -3.88997 0
M  V30 6219 H 583.436 1.77859 -2.70459 0
M  V30 6220 H 582.343 -0.300033 -3.72895 0
M  V30 6221 H 583.676 -0.375123 -4.90768 0
M  V30 6222 N 585.328 1.53329 -0.364422 0
M  V30 6223 C 586.558 2.05359 0.226096 0
M  V30 6224 C 586.966 1.23777 1.43094 0
M  V30 6225 O 586.309 0.271139 1.81688 0
M  V30 6226 C 586.371 3.52918 0.684794 0
M  V30 6227 C 586.035 4.55218 -0.403206 0
M  V30 6228 C 587.032 5.04583 -1.2527 0
M  V30 6229 C 584.717 4.99134 -0.563117 0
M  V30 6230 C 586.711 5.96463 -2.24745 0
M  V30 6231 C 584.398 5.9082 -1.56124 0
M  V30 6232 C 585.396 6.39375 -2.40184 0
M  V30 6233 O 585.084 7.29255 -3.38293 0
M  V30 6234 H 584.816 0.674588 0.0436772 0
M  V30 6235 H 587.37 1.98688 -0.520782 0
M  V30 6236 H 585.6 3.57122 1.48326 0
M  V30 6237 H 587.289 3.87812 1.19818 0
M  V30 6238 H 588.055 4.71403 -1.14034 0
M  V30 6239 H 583.934 4.60928 0.0813909 0
M  V30 6240 H 587.478 6.34285 -2.90393 0
M  V30 6241 H 583.375 6.23414 -1.67407 0
M  V30 6242 H 584.143 7.47249 -3.34009 0
M  V30 6243 N 586.806 0.0935595 1.57322 0
M  V30 6244 C 587.736 -0.863062 2.16964 0
M  V30 6245 C 588.717 -1.29528 1.10256 0
M  V30 6246 O 589.902 -1.36245 1.38387 0
M  V30 6247 C 587.032 -2.12276 2.74875 0
M  V30 6248 C 585.986 -1.82921 3.86942 0
M  V30 6249 C 585.312 -3.15707 4.31548 0
M  V30 6250 C 586.612 -1.11737 5.10208 0
M  V30 6251 H 588.306 -0.366145 2.97153 0
M  V30 6252 H 585.852 -0.174673 1.42937 0
M  V30 6253 H 587.805 -2.79634 3.1525 0
M  V30 6254 H 586.529 -2.64248 1.91938 0
M  V30 6255 H 585.188 -1.17961 3.47103 0
M  V30 6256 H 584.836 -3.65563 3.45504 0
M  V30 6257 H 584.536 -2.96849 5.07104 0
M  V30 6258 H 586.06 -3.84226 4.74555 0
M  V30 6259 H 587.474 -1.69203 5.47762 0
M  V30 6260 H 585.871 -1.03064 5.91183 0
M  V30 6261 H 586.941 -0.0998818 4.84797 0
M  V30 6262 N 588.284 -1.56567 -0.180126 0
M  V30 6263 C 589.524 -1.83285 -0.904761 0
M  V30 6264 C 589.888 -0.673226 -1.7981 0
M  V30 6265 O 591.089 -0.820645 -2.55967 0
M  V30 6266 C 589.36 -3.15086 -1.68688 0
M  V30 6267 S 590.919 -3.63258 -2.46149 0
M  V30 6268 H 587.737 -0.643114 -0.303193 0
M  V30 6269 H 590.339 -1.94785 -0.167034 0
M  V30 6270 H 589.043 -3.97484 -1.02148 0
M  V30 6271 H 588.574 -3.06504 -2.46615 0
M  V30 6272 H 590.589 -3.29884 -3.70663 0
M  V30 6273 N 589.762 0.448376 -1.51087 0
M  V30 6274 C 591.008 1.20049 -1.6345 0
M  V30 6275 C 591.341 1.91121 -0.344444 0
M  V30 6276 O 590.616 1.83125 0.655396 0
M  V30 6277 C 590.899 2.22624 -2.83038 0
M  V30 6278 C 590.752 1.55708 -4.21989 0
M  V30 6279 C 592.071 3.23718 -2.98152 0
M  V30 6280 H 589.19 0.435085 -0.59487 0
M  V30 6281 H 591.832 0.491183 -1.83541 0
M  V30 6282 H 589.982 2.83117 -2.66039 0
M  V30 6283 H 591.654 0.986367 -4.50631 0
M  V30 6284 H 589.897 0.859647 -4.25197 0
M  V30 6285 H 590.568 2.30357 -5.01637 0
M  V30 6286 H 593.044 2.73269 -3.13788 0
M  V30 6287 H 591.92 3.92795 -3.83411 0
M  V30 6288 H 592.181 3.89179 -2.09743 0
M  V30 6289 N 591.24 1.41047 0.703093 0
M  V30 6290 C 592.187 1.42302 1.81711 0
M  V30 6291 C 593.157 0.278336 1.63751 0
M  V30 6292 O 594.342 0.478266 1.84709 0
M  V30 6293 C 591.482 1.30362 3.19531 0
M  V30 6294 C 590.595 2.54638 3.48975 0
M  V30 6295 C 589.73 2.35047 4.76368 0
M  V30 6296 C 588.769 3.54837 4.98756 0
M  V30 6297 N 587.906 3.34363 6.1737 0
M  V30 6298 H 592.746 2.37516 1.79973 0
M  V30 6299 H 590.283 1.1795 0.878983 0
M  V30 6300 H 592.241 1.21443 3.99134 0
M  V30 6301 H 590.871 0.387602 3.20464 0
M  V30 6302 H 589.923 2.74037 2.63833 0
M  V30 6303 H 591.235 3.43766 3.61423 0
M  V30 6304 H 590.389 2.23552 5.64012 0
M  V30 6305 H 589.128 1.43363 4.66153 0
M  V30 6306 H 588.133 3.66795 4.09563 0
M  V30 6307 H 589.358 4.47464 5.10835 0
M  V30 6308 H 587.304 2.45373 6.08382 0
M  V30 6309 H 587.221 4.17063 6.30551 0
M  V30 6310 H 588.489 3.26626 7.07768 0
M  V30 6311 N 592.718 -0.936591 1.26751 0
M  V30 6312 C 593.681 -2.01752 1.08761 0
M  V30 6313 C 594.681 -1.60763 0.0344435 0
M  V30 6314 O 595.871 -1.71963 0.278258 0
M  V30 6315 C 593.003 -3.34543 0.655271 0
M  V30 6316 H 594.196 -2.19143 2.04735 0
M  V30 6317 H 591.749 -1.11618 1.09413 0
M  V30 6318 H 592.484 -3.22851 -0.30626 0
M  V30 6319 H 592.269 -3.65647 1.41578 0
M  V30 6320 H 593.759 -4.13944 0.551378 0
M  V30 6321 N 594.196 -1.08629 -1.14182 0
M  V30 6322 C 595.129 -0.662329 -2.18377 0
M  V30 6323 C 596.107 0.327054 -1.59277 0
M  V30 6324 O 597.291 0.230376 -1.87087 0
M  V30 6325 C 594.418 0.0254765 -3.3869 0
M  V30 6326 C 593.464 -0.924414 -4.16361 0
M  V30 6327 S 594.297 -2.43226 -4.77076 0
M  V30 6328 C 595.453 -1.75663 -6.00744 0
M  V30 6329 H 595.686 -1.54501 -2.54001 0
M  V30 6330 H 593.219 -0.901484 -1.2535 0
M  V30 6331 H 595.177 0.416032 -4.08386 0
M  V30 6332 H 593.838 0.884689 -3.01384 0
M  V30 6333 H 593.031 -0.390099 -5.02488 0
M  V30 6334 H 592.633 -1.25598 -3.5228 0
M  V30 6335 H 594.925 -1.07589 -6.68903 0
M  V30 6336 H 595.868 -2.59673 -6.58768 0
M  V30 6337 H 596.276 -1.22903 -5.50958 0
M  V30 6338 N 595.674 1.31259 -0.872281 0
M  V30 6339 C 596.923 1.95893 -0.480493 0
M  V30 6340 C 597.236 1.697 0.972688 0
M  V30 6341 O 598.442 2.28214 1.47073 0
M  V30 6342 C 596.898 3.50705 -0.808342 0
M  V30 6343 C 596.506 3.85735 -2.27844 0
M  V30 6344 C 598.25 4.21719 -0.485136 0
M  V30 6345 C 596.157 5.33668 -2.54858 0
M  V30 6346 H 595.087 0.733182 -0.175955 0
M  V30 6347 H 597.738 1.49396 -1.0655 0
M  V30 6348 H 596.12 3.95706 -0.152558 0
M  V30 6349 H 597.294 3.51686 -2.97748 0
M  V30 6350 H 595.609 3.27792 -2.56791 0
M  V30 6351 H 598.206 5.30559 -0.664166 0
M  V30 6352 H 598.549 4.12316 0.574592 0
M  V30 6353 H 599.082 3.82359 -1.09756 0
M  V30 6354 H 595.821 5.48109 -3.59523 0
M  V30 6355 H 595.341 5.69061 -1.8955 0
M  V30 6356 H 597.02 6.00958 -2.39706 0
M  V30 6357 N 597.152 0.631951 1.44375 0
M  V30 6358 C 598.082 -0.0593243 2.33425 0
M  V30 6359 C 599.063 -0.833964 1.48253 0
M  V30 6360 O 600.248 -0.799682 1.76971 0
M  V30 6361 C 597.378 -1.04096 3.31333 0
M  V30 6362 C 596.332 -0.377899 4.26328 0
M  V30 6363 C 595.658 -1.4695 5.14111 0
M  V30 6364 C 596.958 0.716371 5.17364 0
M  V30 6365 H 598.652 0.684287 2.91475 0
M  V30 6366 H 596.198 0.330518 1.40156 0
M  V30 6367 H 598.151 -1.53331 3.92514 0
M  V30 6368 H 596.875 -1.81547 2.71493 0
M  V30 6369 H 595.534 0.0938054 3.6648 0
M  V30 6370 H 595.182 -2.2349 4.50623 0
M  V30 6371 H 594.882 -1.03121 5.78481 0
M  V30 6372 H 596.406 -1.96363 5.78164 0
M  V30 6373 H 597.82 0.307089 5.72477 0
M  V30 6374 H 596.217 1.07784 5.90341 0
M  V30 6375 H 597.287 1.58316 4.58327 0
M  V30 6376 N 598.631 -1.53133 0.372548 0
M  V30 6377 C 599.561 -2.28876 -0.462412 0
M  V30 6378 C 600.542 -1.31583 -1.07796 0
M  V30 6379 O 601.727 -1.60461 -1.09389 0
M  V30 6380 C 598.857 -3.08317 -1.59868 0
M  V30 6381 C 597.811 -4.13355 -1.11003 0
M  V30 6382 C 597.137 -4.8092 -2.33708 0
M  V30 6383 C 598.437 -5.21955 -0.18983 0
M  V30 6384 H 600.131 -2.9892 0.169511 0
M  V30 6385 H 597.677 -1.43761 0.0829658 0
M  V30 6386 H 599.63 -3.60055 -2.18949 0
M  V30 6387 H 598.354 -2.35976 -2.25794 0
M  V30 6388 H 597.013 -3.62573 -0.541869 0
M  V30 6389 H 596.661 -4.05144 -2.98106 0
M  V30 6390 H 596.361 -5.51904 -2.01682 0
M  V30 6391 H 597.885 -5.35455 -2.93462 0
M  V30 6392 H 599.299 -5.69153 -0.688319 0
M  V30 6393 H 597.696 -6.00087 0.0398887 0
M  V30 6394 H 598.766 -4.78811 0.766057 0
M  V30 6395 N 600.109 -0.101901 -1.5727 0
M  V30 6396 C 601.057 0.872034 -2.15635 0
M  V30 6397 C 602.051 1.28742 -1.10099 0
M  V30 6398 O 603.257 1.26116 -1.28432 0
M  V30 6399 H 599.632 0.299269 -0.689886 0
M  V30 6400 H 601.603 0.355137 -2.96279 0
M  V30 6401 C 600.352 2.11886 -2.7568 0
M  V30 6402 H 599.675 1.80813 -3.56576 0
M  V30 6403 H 601.115 2.78077 -3.20077 0
M  V30 6404 C 599.574 2.89739 -1.7191 0
M  V30 6405 O 600.104 3.84522 -1.16213 0
M  V30 6406 N 598.31 2.53407 -1.42245 0
M  V30 6407 H 597.857 1.76398 -1.87727 0
M  V30 6408 H 597.815 3.05795 -0.730529 0
M  V30 6409 N 601.587 1.56661 0.17182 0
M  V30 6410 C 602.812 1.86459 0.908165 0
M  V30 6411 C 603.237 0.688181 1.75059 0
M  V30 6412 O 602.595 -0.362753 1.77634 0
M  V30 6413 C 602.643 3.14669 1.76112 0
M  V30 6414 O 601.747 2.96858 2.86268 0
M  V30 6415 H 601.088 0.613318 0.254434 0
M  V30 6416 H 603.618 2.03892 0.170113 0
M  V30 6417 H 603.628 3.46061 2.16115 0
M  V30 6418 H 602.303 3.99905 1.14233 0
M  V30 6419 H 600.88 2.76819 2.49852 0
M  V30 6420 N 603.065 -0.440357 1.51323 0
M  V30 6421 C 604.29 -1.21716 1.67928 0
M  V30 6422 C 604.715 -1.84328 0.374826 0
M  V30 6423 O 604.073 -1.68675 -0.664706 0
M  V30 6424 C 604.121 -2.27914 2.79442 0
M  V30 6425 O 603.225 -3.33325 2.42834 0
M  V30 6426 H 602.566 -0.35674 0.560029 0
M  V30 6427 H 605.096 -0.520417 1.97871 0
M  V30 6428 H 605.106 -2.72746 3.03436 0
M  V30 6429 H 603.781 -1.8172 3.741 0
M  V30 6430 H 602.358 -2.9399 2.294 0
M  V30 6431 N 604.543 -1.41418 -0.695603 0
M  V30 6432 C 605.476 -1.3768 -1.81988 0
M  V30 6433 C 606.454 -0.244061 -1.60758 0
M  V30 6434 O 607.638 -0.430965 -1.83507 0
M  V30 6435 C 604.765 -1.1476 -3.18666 0
M  V30 6436 C 603.811 -2.30752 -3.58686 0
M  V30 6437 S 604.644 -3.9323 -3.63498 0
M  V30 6438 C 605.8 -3.72613 -5.02902 0
M  V30 6439 H 606.033 -2.32822 -1.84882 0
M  V30 6440 H 603.566 -1.27942 -0.86431 0
M  V30 6441 H 605.524 -1.02223 -3.97569 0
M  V30 6442 H 604.185 -0.212385 -3.13381 0
M  V30 6443 H 603.378 -2.10409 -4.57978 0
M  V30 6444 H 602.98 -2.39696 -2.87092 0
M  V30 6445 H 605.272 -3.32317 -5.904 0
M  V30 6446 H 606.215 -4.71507 -5.28286 0
M  V30 6447 H 606.623 -3.0589 -4.74438 0
M  V30 6448 N 606.021 0.929856 -1.27246 0
M  V30 6449 C 607.251 1.70895 -1.16096 0
M  V30 6450 C 607.659 1.87039 0.285122 0
M  V30 6451 O 607.002 1.38557 1.20614 0
M  V30 6452 C 607.064 3.12919 -1.7698 0
M  V30 6453 C 606.728 3.2012 -3.26148 0
M  V30 6454 C 607.725 3.02533 -4.22812 0
M  V30 6455 C 605.41 3.43148 -3.66817 0
M  V30 6456 C 607.404 3.07861 -5.58122 0
M  V30 6457 C 605.091 3.48109 -5.02258 0
M  V30 6458 C 606.089 3.30483 -5.97721 0
M  V30 6459 O 605.777 3.35175 -7.30694 0
M  V30 6460 H 605.509 0.54152 -0.404639 0
M  V30 6461 H 608.063 1.17342 -1.68582 0
M  V30 6462 H 606.293 3.67945 -1.18969 0
M  V30 6463 H 607.982 3.72787 -1.60576 0
M  V30 6464 H 608.748 2.84586 -3.92728 0
M  V30 6465 H 604.627 3.55918 -2.9299 0
M  V30 6466 H 608.171 2.94021 -6.32612 0
M  V30 6467 H 604.068 3.65579 -5.31998 0
M  V30 6468 H 604.836 3.51644 -7.39114 0
M  V30 6469 N 607.499 1.09233 1.13605 0
M  V30 6470 C 608.91 0.846839 1.6639 0
M  V30 6471 C 609.261 -0.625031 1.85978 0
M  V30 6472 O 608.386 -1.48173 1.57714 0
M  V30 6473 C 608.981 1.5307 3.0225 0
M  V30 6474 C 607.54 1.33223 3.52035 0
M  V30 6475 C 606.687 1.58806 2.27323 0
M  V30 6476 H 609.638 1.25175 0.975541 0
M  V30 6477 H 609.659 0.96267 3.68121 0
M  V30 6478 H 609.171 2.60192 2.87961 0
M  V30 6479 H 607.272 0.282091 3.71531 0
M  V30 6480 H 607.385 2.0657 4.32279 0
M  V30 6481 H 605.749 1.01007 2.33815 0
M  V30 6482 H 606.532 2.67153 2.15602 0
M  V30 6483 N 608.977 -1.30795 0.87923 0
M  V30 6484 C 609.907 -2.30742 0.357796 0
M  V30 6485 C 610.888 -1.60747 -0.556283 0
M  V30 6486 O 612.073 -1.88393 -0.47135 0
M  V30 6487 C 609.203 -3.44583 -0.433555 0
M  V30 6488 C 608.157 -4.26235 0.388251 0
M  V30 6489 C 607.483 -5.32073 -0.529352 0
M  V30 6490 C 608.783 -4.96303 1.62729 0
M  V30 6491 H 610.477 -2.74605 1.19299 0
M  V30 6492 H 608.023 -1.32017 0.575104 0
M  V30 6493 H 609.976 -4.13563 -0.808934 0
M  V30 6494 H 608.7 -2.99511 -1.30234 0
M  V30 6495 H 607.359 -3.58936 0.745695 0
M  V30 6496 H 607.007 -4.83249 -1.39569 0
M  V30 6497 H 606.707 -5.87598 0.0166741 0
M  V30 6498 H 608.231 -6.0391 -0.901373 0
M  V30 6499 H 609.645 -5.5783 1.32283 0
M  V30 6500 H 608.042 -5.61666 2.11309 0
M  V30 6501 H 609.112 -4.22758 2.37494 0
M  V30 6502 N 610.455 -0.639598 -1.44038 0
M  V30 6503 C 611.701 -0.147698 -2.02261 0
M  V30 6504 C 612.034 1.23031 -1.50256 0
M  V30 6505 O 611.309 1.81847 -0.690068 0
M  V30 6506 C 611.592 -0.14362 -3.59813 0
M  V30 6507 C 611.445 -1.55458 -4.22082 0
M  V30 6508 C 612.764 0.527317 -4.36929 0
M  V30 6509 H 609.883 -0.0551453 -0.734934 0
M  V30 6510 H 612.525 -0.817688 -1.71505 0
M  V30 6511 H 610.675 0.426898 -3.86147 0
M  V30 6512 H 612.347 -2.17464 -4.06826 0
M  V30 6513 H 610.59 -2.10594 -3.79253 0
M  V30 6514 H 611.261 -1.50369 -5.31124 0
M  V30 6515 H 613.737 0.0420504 -4.16079 0
M  V30 6516 H 612.613 0.499389 -5.46624 0
M  V30 6517 H 612.874 1.59914 -4.12165 0
M  V30 6518 N 611.933 1.52934 -0.380664 0
M  V30 6519 C 613.161 2.05886 0.204599 0
M  V30 6520 C 613.576 1.25305 1.41223 0
M  V30 6521 O 612.933 0.297504 1.80059 0
M  V30 6522 C 612.984 3.56764 0.583249 0
M  V30 6523 O 612.705 4.34292 -0.576398 0
M  V30 6524 C 614.206 4.2603 1.2253 0
M  V30 6525 H 611.426 0.670193 0.0328991 0
M  V30 6526 H 613.97 1.97148 -0.543397 0
M  V30 6527 H 612.125 3.65603 1.28115 0
M  V30 6528 H 612.539 5.23819 -0.267119 0
M  V30 6529 H 614.013 5.32868 1.44068 0
M  V30 6530 H 614.49 3.80698 2.19011 0
M  V30 6531 H 615.096 4.21485 0.568407 0
M  V30 6532 N 613.412 0.11024 1.57214 0
M  V30 6533 C 614.375 -0.828808 2.1369 0
M  V30 6534 C 615.375 -1.20059 1.06969 0
M  V30 6535 O 616.565 -1.12754 1.32786 0
M  V30 6536 C 613.697 -2.11959 2.66994 0
M  V30 6537 H 614.89 -0.338146 2.97988 0
M  V30 6538 H 612.443 -0.138913 1.55681 0
M  V30 6539 H 613.178 -2.65476 1.8626 0
M  V30 6540 H 612.963 -1.86258 3.45037 0
M  V30 6541 H 614.453 -2.79105 3.10629 0
M  V30 6542 N 614.89 -1.56749 -0.16351 0
M  V30 6543 C 616.118 -1.86577 -0.894233 0
M  V30 6544 C 616.533 -0.696543 -1.75481 0
M  V30 6545 O 615.89 0.334161 -1.79415 0
M  V30 6546 C 615.941 -3.15508 -1.76456 0
M  V30 6547 O 615.662 -4.27926 -0.938685 0
M  V30 6548 C 617.163 -3.58737 -2.60428 0
M  V30 6549 H 614.383 -0.618829 -0.259405 0
M  V30 6550 H 616.927 -2.03863 -0.161259 0
M  V30 6551 H 615.082 -3.00025 -2.45079 0
M  V30 6552 H 615.496 -5.01546 -1.53465 0
M  V30 6553 H 616.97 -4.51832 -3.17099 0
M  V30 6554 H 617.447 -2.83229 -3.35675 0
M  V30 6555 H 618.053 -3.76858 -1.97125 0
M  V30 6556 N 616.368 0.432326 -1.51554 0
M  V30 6557 C 617.3 1.54357 -1.6943 0
M  V30 6558 C 618.313 1.52311 -0.574897 0
M  V30 6559 O 619.502 1.56997 -0.849369 0
M  V30 6560 C 616.602 2.93273 -1.69836 0
M  V30 6561 C 615.775 3.19768 -2.98442 0
M  V30 6562 C 614.834 4.38433 -2.90969 0
M  V30 6563 O 613.86 4.36842 -3.64908 0
M  V30 6564 N 615.062 5.42276 -2.07163 0
M  V30 6565 H 617.827 1.39426 -2.65293 0
M  V30 6566 H 615.388 0.621331 -1.49503 0
M  V30 6567 H 617.38 3.70687 -1.62399 0
M  V30 6568 H 615.95 3.01777 -0.815456 0
M  V30 6569 H 615.17 2.30607 -3.19709 0
M  V30 6570 H 616.458 3.343 -3.83563 0
M  V30 6571 H 615.856 5.46407 -1.46477 0
M  V30 6572 H 614.413 6.18524 -2.05601 0
M  V30 6573 N 617.846 1.41785 0.688094 0
M  V30 6574 C 619.123 1.32031 1.44316 0
M  V30 6575 C 619.503 -0.0486079 2.11044 0
M  V30 6576 O 618.851 -1.06332 2.02252 0
M  V30 6577 C 619.061 2.47906 2.45649 0
M  V30 6578 C 620.409 2.89415 3.10683 0
M  V30 6579 O 621.433 2.477 2.55975 0
M  V30 6580 O 620.292 3.61573 4.09789 0
M  V30 6581 H 617.386 0.519994 0.643067 0
M  V30 6582 H 619.932 1.53765 0.71794 0
M  V30 6583 H 618.704 3.39222 1.95048 0
M  V30 6584 H 618.327 2.28089 3.25671 0
M  V30 6585 N 619.324 -0.923095 1.27737 0
M  V30 6586 C 620.287 -2.00587 1.10894 0
M  V30 6587 C 621.287 -1.60718 0.0514927 0
M  V30 6588 O 622.477 -1.71658 0.296481 0
M  V30 6589 C 619.609 -3.33829 0.690717 0
M  V30 6590 H 620.802 -2.16959 2.07048 0
M  V30 6591 H 618.355 -1.10451 1.1059 0
M  V30 6592 H 619.09 -3.23157 -0.272 0
M  V30 6593 H 618.875 -3.64125 1.45448 0
M  V30 6594 H 620.365 -4.13336 0.595252 0
M  V30 6595 N 620.802 -1.09834 -1.13024 0
M  V30 6596 C 622.079 -0.749225 -1.80682 0
M  V30 6597 C 622.459 0.765171 -1.96744 0
M  V30 6598 O 621.807 1.68912 -1.53886 0
M  V30 6599 C 622.017 -1.49311 -3.15448 0
M  V30 6600 C 623.365 -1.66162 -3.90737 0
M  V30 6601 O 624.389 -1.45597 -3.25085 0
M  V30 6602 O 623.248 -2.00211 -5.08505 0
M  V30 6603 H 620.342 -0.269614 -0.781817 0
M  V30 6604 H 622.888 -1.20078 -1.19914 0
M  V30 6605 H 621.66 -2.52407 -2.99009 0
M  V30 6606 H 621.283 -1.034 -3.8392 0
M  V30 6607 N 622.28 1.30327 -0.886154 0
M  V30 6608 C 623.505 2.0079 -0.519425 0
M  V30 6609 C 623.93 1.65979 0.885013 0
M  V30 6610 O 623.288 0.877043 1.58675 0
M  V30 6611 C 623.336 3.53686 -0.702758 0
M  V30 6612 O 622.44 4.11637 0.250828 0
M  V30 6613 H 621.781 0.63171 -0.204544 0
M  V30 6614 H 624.311 1.66145 -1.19402 0
M  V30 6615 H 624.321 4.03531 -0.602207 0
M  V30 6616 H 622.996 3.78361 -1.72673 0
M  V30 6617 H 621.573 3.72755 0.103873 0
M  V30 6618 N 623.758 0.647228 1.43697 0
M  V30 6619 C 624.983 0.164083 2.0675 0
M  V30 6620 C 625.408 -1.15892 1.48158 0
M  V30 6621 O 624.766 -1.71459 0.589194 0
M  V30 6622 C 624.814 0.0800368 3.60511 0
M  V30 6623 O 623.918 -0.959453 4.01084 0
M  V30 6624 H 623.259 0.0921288 0.657578 0
M  V30 6625 H 625.789 0.88846 1.84303 0
M  V30 6626 H 625.799 -0.105263 4.07864 0
M  V30 6627 H 624.474 1.04586 4.02535 0
M  V30 6628 H 623.051 -0.747425 3.65333 0
M  V30 6629 N 625.236 -1.5273 0.388769 0
M  V30 6630 C 626.652 -1.59553 0.0387049 0
M  V30 6631 C 626.852 -1.40278 -1.44652 0
M  V30 6632 O 625.908 -1.21951 -2.21098 0
M  V30 6633 C 627.221 -2.9625 0.515409 0
M  V30 6634 C 628.769 -3.09426 0.471621 0
M  V30 6635 C 629.244 -4.48572 0.924505 0
M  V30 6636 N 630.735 -4.54754 0.880496 0
M  V30 6637 C 631.47 -5.60653 1.20234 0
M  V30 6638 N 630.966 -6.74198 1.59463 0
M  V30 6639 N 632.759 -5.50755 1.12363 0
M  V30 6640 H 624.91 -1.63508 1.35569 0
M  V30 6641 H 627.173 -0.768097 0.555636 0
M  V30 6642 H 626.879 -3.15569 1.5527 0
M  V30 6643 H 626.753 -3.77102 -0.085792 0
M  V30 6644 H 629.14 -2.89804 -0.556588 0
M  V30 6645 H 629.221 -2.30528 1.10862 0
M  V30 6646 H 628.865 -4.68936 1.95094 0
M  V30 6647 H 628.795 -5.25935 0.264524 0
M  V30 6648 H 631.286 -3.73237 0.591815 0
M  V30 6649 H 631.599 -7.5097 1.82385 0
M  V30 6650 H 629.944 -6.75531 1.63349 0
M  V30 6651 H 633.135 -4.6093 0.816169 0
M  V30 6652 H 633.308 -6.33184 1.37777 0
M  V30 6653 N 626.714 -0.118576 -1.57153 0
M  V30 6654 C 627.661 0.831789 -2.1529 0
M  V30 6655 C 628.631 1.26385 -1.07778 0
M  V30 6656 O 629.816 1.34144 -1.35684 0
M  V30 6657 C 626.956 2.07664 -2.75626 0
M  V30 6658 C 626.069 1.69298 -3.97444 0
M  V30 6659 C 625.204 2.88747 -4.45868 0
M  V30 6660 C 624.243 2.46619 -5.60219 0
M  V30 6661 N 623.38 3.5898 -6.03389 0
M  V30 6662 H 628.22 0.329183 -2.96176 0
M  V30 6663 H 625.757 0.150792 -1.46325 0
M  V30 6664 H 627.715 2.80601 -3.08738 0
M  V30 6665 H 626.345 2.55384 -1.97431 0
M  V30 6666 H 625.397 0.862374 -3.70496 0
M  V30 6667 H 626.709 1.34338 -4.80369 0
M  V30 6668 H 625.863 3.69909 -4.80887 0
M  V30 6669 H 624.602 3.26933 -3.61892 0
M  V30 6670 H 623.607 1.63889 -5.24805 0
M  V30 6671 H 624.832 2.0955 -6.45961 0
M  V30 6672 H 622.778 3.9684 -5.22354 0
M  V30 6673 H 622.695 3.27942 -6.81168 0
M  V30 6674 H 623.963 4.40583 -6.43045 0
M  V30 6675 N 628.193 1.56834 0.155195 0
M  V30 6676 C 629.123 2.00678 1.19376 0
M  V30 6677 C 630.104 0.884973 1.45266 0
M  V30 6678 O 631.289 1.1522 1.56326 0
M  V30 6679 C 628.419 2.38042 2.5289 0
M  V30 6680 C 627.373 3.53332 2.41538 0
M  V30 6681 C 626.699 3.76485 3.79688 0
M  V30 6682 C 627.999 4.86265 1.9064 0
M  V30 6683 H 629.693 2.87688 0.829232 0
M  V30 6684 H 627.239 1.38407 0.397445 0
M  V30 6685 H 629.192 2.67314 3.25763 0
M  V30 6686 H 627.916 1.4796 2.91162 0
M  V30 6687 H 626.575 3.24213 1.71117 0
M  V30 6688 H 626.223 2.83667 4.15382 0
M  V30 6689 H 625.923 4.54068 3.72956 0
M  V30 6690 H 627.447 4.08174 4.54122 0
M  V30 6691 H 628.861 5.14308 2.53299 0
M  V30 6692 H 627.258 5.67597 1.94818 0
M  V30 6693 H 628.328 4.77184 0.861596 0
M  V30 6694 N 629.671 -0.424282 1.51781 0
M  V30 6695 C 630.634 -1.49848 1.73431 0
M  V30 6696 C 631.634 -1.49016 0.604225 0
M  V30 6697 O 632.824 -1.50808 0.871935 0
M  V30 6698 C 629.956 -2.89332 1.80277 0
M  V30 6699 H 631.149 -1.3195 2.69312 0
M  V30 6700 H 628.702 -0.653809 1.41968 0
M  V30 6701 H 629.437 -3.12618 0.862568 0
M  V30 6702 H 629.222 -2.9134 2.62419 0
M  V30 6703 H 630.712 -3.67233 1.98821 0
M  V30 6704 N 631.149 -1.42148 -0.680565 0
M  V30 6705 C 632.099 -1.41634 -1.78672 0
M  V30 6706 C 633.083 -0.288494 -1.58293 0
M  V30 6707 O 634.275 -0.530295 -1.68869 0
M  V30 6708 C 631.404 -1.31558 -3.17092 0
M  V30 6709 C 630.49 -2.49265 -3.43115 0
M  V30 6710 N 630.881 -3.74702 -3.39753 0
M  V30 6711 C 629.179 -2.43401 -3.73727 0
M  V30 6712 C 629.88 -4.52854 -3.651 0
M  V30 6713 N 628.856 -3.83181 -3.85582 0
M  V30 6714 H 632.658 -2.3652 -1.74458 0
M  V30 6715 H 630.172 -1.36415 -0.881171 0
M  V30 6716 H 632.169 -1.29272 -3.96351 0
M  V30 6717 H 630.829 -0.376696 -3.22508 0
M  V30 6718 H 631.84 -4.07378 -3.19787 0
M  V30 6719 H 628.517 -1.58062 -3.86423 0
M  V30 6720 H 629.907 -5.61827 -3.6851 0
M  V30 6721 N 632.627 0.916307 -1.28225 0
M  V30 6722 C 633.557 2.0352 -1.14464 0
M  V30 6723 C 634.538 1.70045 -0.0430844 0
M  V30 6724 O 635.723 1.92954 -0.219619 0
M  V30 6725 C 632.853 3.37889 -0.803027 0
M  V30 6726 C 631.807 3.85516 -1.85908 0
M  V30 6727 C 631.133 5.1682 -1.37116 0
M  V30 6728 C 632.433 4.07655 -3.26519 0
M  V30 6729 H 634.127 2.1529 -2.08064 0
M  V30 6730 H 631.673 1.03446 -1.00174 0
M  V30 6731 H 633.626 4.15654 -0.693537 0
M  V30 6732 H 632.35 3.26164 0.168674 0
M  V30 6733 H 631.009 3.09953 -1.95767 0
M  V30 6734 H 630.657 5.01497 -0.38859 0
M  V30 6735 H 630.357 5.49657 -2.07728 0
M  V30 6736 H 631.881 5.97143 -1.27484 0
M  V30 6737 H 633.295 4.75953 -3.19596 0
M  V30 6738 H 631.692 4.51818 -3.94943 0
M  V30 6739 H 632.762 3.12553 -3.70727 0
M  V30 6740 N 634.105 1.10431 1.1244 0
M  V30 6741 C 635.035 0.775143 2.20258 0
M  V30 6742 C 636.016 -0.25186 1.68225 0
M  V30 6743 O 637.201 -0.117637 1.93843 0
M  V30 6744 C 634.331 0.206133 3.46688 0
M  V30 6745 C 633.285 1.16382 4.11873 0
M  V30 6746 C 632.611 0.456014 5.32752 0
M  V30 6747 C 633.911 2.5104 4.58013 0
M  V30 6748 H 635.605 1.67665 2.4805 0
M  V30 6749 H 633.151 0.807595 1.19222 0
M  V30 6750 H 635.104 -0.036291 4.21384 0
M  V30 6751 H 633.828 -0.730614 3.18323 0
M  V30 6752 H 632.487 1.39169 3.39157 0
M  V30 6753 H 632.135 -0.485203 5.00654 0
M  V30 6754 H 631.835 1.09466 5.77314 0
M  V30 6755 H 633.359 0.222135 6.10196 0
M  V30 6756 H 634.773 2.32401 5.24083 0
M  V30 6757 H 633.17 3.10789 5.13352 0
M  V30 6758 H 634.24 3.11039 3.71998 0
M  V30 6759 N 635.583 -1.29855 0.893053 0
M  V30 6760 C 636.531 -2.29867 0.355512 0
M  V30 6761 C 637.525 -1.60502 -0.541801 0
M  V30 6762 O 638.731 -1.74902 -0.425339 0
M  V30 6763 H 635.106 -0.745805 0.0963247 0
M  V30 6764 H 637.077 -2.72655 1.21252 0
M  V30 6765 C 635.826 -3.453 -0.407801 0
M  V30 6766 H 635.149 -3.98864 0.273426 0
M  V30 6767 H 636.589 -4.17334 -0.748887 0
M  V30 6768 C 635.048 -2.96051 -1.60795 0
M  V30 6769 O 635.578 -2.96763 -2.7073 0
M  V30 6770 N 633.784 -2.51963 -1.44786 0
M  V30 6771 H 633.331 -2.51583 -0.553498 0
M  V30 6772 H 633.289 -2.1937 -2.2522 0
M  V30 6773 N 637.061 -0.65484 -1.43351 0
M  V30 6774 C 638.024 0.0263562 -2.29185 0
M  V30 6775 C 639.024 0.748951 -1.42293 0
M  V30 6776 O 640.214 0.589957 -1.63906 0
M  V30 6777 C 637.346 1.04806 -3.2439 0
M  V30 6778 H 638.539 -0.728883 -2.90908 0
M  V30 6779 H 636.092 -0.416149 -1.50658 0
M  V30 6780 H 636.827 1.83247 -2.67565 0
M  V30 6781 H 636.612 0.533554 -3.88453 0
M  V30 6782 H 638.102 1.52372 -3.88809 0
M  V30 6783 N 638.539 1.52521 -0.396863 0
M  V30 6784 C 639.785 2.01971 0.183169 0
M  V30 6785 C 640.118 1.2825 1.45827 0
M  V30 6786 O 639.393 0.385179 1.90648 0
M  V30 6787 C 639.676 3.5736 0.443391 0
M  V30 6788 C 639.529 4.41743 -0.84753 0
M  V30 6789 C 640.848 4.22539 1.2308 0
M  V30 6790 H 637.967 0.734119 0.0650976 0
M  V30 6791 H 640.609 1.82519 -0.527918 0
M  V30 6792 H 638.759 3.74066 1.04914 0
M  V30 6793 H 640.431 4.36773 -1.48414 0
M  V30 6794 H 638.674 4.0845 -1.4612 0
M  V30 6795 H 639.345 5.48507 -0.620003 0
M  V30 6796 H 641.821 4.09857 0.718084 0
M  V30 6797 H 640.697 5.31227 1.38162 0
M  V30 6798 H 640.958 3.80675 2.24808 0
M  V30 6799 N 640.017 0.126909 1.57088 0
M  V30 6800 C 641.245 -0.53667 1.99819 0
M  V30 6801 C 641.66 -1.5972 1.00673 0
M  V30 6802 O 641.017 -1.825 0.000747365 0
M  V30 6803 C 641.068 -1.15563 3.42531 0
M  V30 6804 O 640.789 -0.137483 4.37884 0
M  V30 6805 C 642.29 -1.90176 4.00435 0
M  V30 6806 H 639.51 -0.141443 0.655923 0
M  V30 6807 H 642.054 0.215578 2.03361 0
M  V30 6808 H 640.209 -1.85861 3.39904 0
M  V30 6809 H 640.623 -0.588229 5.21191 0
M  V30 6810 H 642.097 -2.28801 5.02349 0
M  V30 6811 H 642.574 -2.78002 3.40017 0
M  V30 6812 H 643.18 -1.24623 4.06632 0
M  V30 6813 N 641.495 -1.56914 -0.146875 0
M  V30 6814 C 642.772 -1.74273 -0.888165 0
M  V30 6815 C 643.152 -0.69496 -1.99333 0
M  V30 6816 O 642.5 0.286093 -2.26702 0
M  V30 6817 C 642.71 -3.18336 -1.43051 0
M  V30 6818 C 644.058 -3.80024 -1.89387 0
M  V30 6819 O 645.082 -3.21765 -1.52792 0
M  V30 6820 O 643.941 -4.82367 -2.56874 0
M  V30 6821 H 641.035 -0.712565 -0.419738 0
M  V30 6822 H 643.581 -1.6918 -0.132791 0
M  V30 6823 H 642.353 -3.86092 -0.636274 0
M  V30 6824 H 641.976 -3.27854 -2.24938 0
M  V30 6825 N 642.974 0.416227 -1.52004 0
M  V30 6826 C 643.937 1.48926 -1.74223 0
M  V30 6827 C 644.937 1.48693 -0.612119 0
M  V30 6828 O 646.127 1.50343 -0.879921 0
M  V30 6829 C 643.259 2.88372 -1.81809 0
M  V30 6830 H 644.452 1.3052 -2.70008 0
M  V30 6831 H 642.005 0.646271 -1.42313 0
M  V30 6832 H 642.74 3.12157 -0.879135 0
M  V30 6833 H 642.525 2.89944 -2.6396 0
M  V30 6834 H 644.015 3.66173 -2.00766 0
M  V30 6835 N 644.452 1.42507 0.673017 0
M  V30 6836 C 645.382 1.48916 1.79851 0
M  V30 6837 C 646.363 0.345566 1.66553 0
M  V30 6838 O 647.548 0.560116 1.85947 0
M  V30 6839 C 644.678 1.39258 3.18158 0
M  V30 6840 C 643.632 2.51662 3.46194 0
M  V30 6841 C 642.958 2.27062 4.84094 0
M  V30 6842 C 644.258 3.93968 3.42909 0
M  V30 6843 H 645.952 2.43114 1.74745 0
M  V30 6844 H 643.498 1.17013 0.839288 0
M  V30 6845 H 645.451 1.42349 3.96629 0
M  V30 6846 H 644.175 0.415542 3.23946 0
M  V30 6847 H 642.834 2.47891 2.70084 0
M  V30 6848 H 642.482 1.27648 4.86534 0
M  V30 6849 H 642.182 3.02398 5.03815 0
M  V30 6850 H 643.706 2.31905 5.64847 0
M  V30 6851 H 645.12 3.99332 4.11347 0
M  V30 6852 H 643.517 4.6917 3.74165 0
M  V30 6853 H 644.587 4.20512 2.41449 0
M  V30 6854 N 645.93 -0.909495 1.28709 0
M  V30 6855 C 647.176 -1.66151 1.16283 0
M  V30 6856 C 647.509 -1.92067 -0.287069 0
M  V30 6857 O 646.784 -1.52409 -1.20837 0
M  V30 6858 C 647.067 -3.01676 1.9663 0
M  V30 6859 C 646.92 -2.82888 3.49707 0
M  V30 6860 C 648.239 -4.02274 1.78504 0
M  V30 6861 H 645.358 -0.602966 0.423793 0
M  V30 6862 H 648 -1.05418 1.58073 0
M  V30 6863 H 646.15 -3.53515 1.61119 0
M  V30 6864 H 647.822 -2.38026 3.95147 0
M  V30 6865 H 646.065 -2.17862 3.75125 0
M  V30 6866 H 646.736 -3.79147 4.01187 0
M  V30 6867 H 649.212 -3.59511 2.09503 0
M  V30 6868 H 648.088 -4.95056 2.37088 0
M  V30 6869 H 648.349 -4.35903 0.737647 0
M  V30 6870 N 647.408 -1.11026 -1.11852 0
M  V30 6871 C 648.654 -0.867633 -1.83967 0
M  V30 6872 C 649.009 0.600309 -1.82795 0
M  V30 6873 O 648.302 1.43731 -1.26696 0
M  V30 6874 C 648.496 -1.35777 -3.30604 0
M  V30 6875 C 648.325 -2.87183 -3.46058 0
M  V30 6876 C 647.095 -3.55256 -3.59334 0
M  V30 6877 C 649.293 -3.85258 -3.40706 0
M  V30 6878 N 647.275 -4.94923 -3.63215 0
M  V30 6879 C 648.646 -5.1097 -3.51155 0
M  V30 6880 C 650.701 -3.77879 -3.2421 0
M  V30 6881 C 649.404 -6.30171 -3.46809 0
M  V30 6882 C 651.43 -4.96586 -3.2118 0
M  V30 6883 C 650.792 -6.21149 -3.32196 0
M  V30 6884 H 646.891 -0.370574 -0.688621 0
M  V30 6885 H 649.475 -1.41379 -1.33865 0
M  V30 6886 H 647.646 -0.83885 -3.79233 0
M  V30 6887 H 649.378 -1.05874 -3.90606 0
M  V30 6888 H 646.133 -3.05714 -3.61713 0
M  V30 6889 H 646.557 -5.67726 -3.68804 0
M  V30 6890 H 651.199 -2.82485 -3.14582 0
M  V30 6891 H 648.917 -7.25847 -3.55206 0
M  V30 6892 H 652.503 -4.92591 -3.09589 0
M  V30 6893 H 651.383 -7.11463 -3.29834 0
M  V30 6894 N 648.886 1.2938 -0.899927 0
M  V30 6895 C 650.132 1.9584 -0.526742 0
M  V30 6896 C 650.465 1.70774 0.924651 0
M  V30 6897 O 649.74 1.02084 1.65557 0
M  V30 6898 C 650.023 3.50638 -0.820062 0
M  V30 6899 C 649.876 3.85161 -2.32317 0
M  V30 6900 C 651.195 4.3903 -0.30671 0
M  V30 6901 H 648.314 0.711322 -0.192848 0
M  V30 6902 H 650.956 1.52992 -1.12665 0
M  V30 6903 H 649.106 3.87265 -0.309491 0
M  V30 6904 H 650.778 3.58477 -2.9033 0
M  V30 6905 H 649.021 3.32696 -2.78381 0
M  V30 6906 H 649.692 4.93204 -2.47898 0
M  V30 6907 H 652.168 4.09396 -0.743908 0
M  V30 6908 H 651.044 5.46226 -0.541144 0
M  V30 6909 H 651.305 4.34937 0.792588 0
M  V30 6910 N 650.364 0.662433 1.43002 0
M  V30 6911 C 651.613 0.176873 2.00923 0
M  V30 6912 C 651.926 -1.21954 1.52927 0
M  V30 6913 O 653.132 -1.80081 2.03182 0
M  V30 6914 C 651.588 0.265379 3.5892 0
M  V30 6915 C 651.196 1.66507 4.15908 0
M  V30 6916 C 652.94 -0.162103 4.2419 0
M  V30 6917 C 650.847 1.707 5.66229 0
M  V30 6918 H 649.777 0.0623627 0.751417 0
M  V30 6919 H 652.428 0.825813 1.63868 0
M  V30 6920 H 650.81 -0.451235 3.93421 0
M  V30 6921 H 651.984 2.40777 3.92891 0
M  V30 6922 H 650.299 2.03932 3.63044 0
M  V30 6923 H 652.896 -0.150745 5.34487 0
M  V30 6924 H 653.239 -1.19519 3.98774 0
M  V30 6925 H 653.772 0.503075 3.94606 0
M  V30 6926 H 650.511 2.7195 5.96426 0
M  V30 6927 H 650.031 1.00768 5.91275 0
M  V30 6928 H 651.71 1.45487 6.3043 0
M  V30 6929 N 651.842 -1.52309 0.404946 0
M  V30 6930 C 652.805 -2.25491 -0.410651 0
M  V30 6931 C 653.805 -1.27704 -0.977154 0
M  V30 6932 O 654.995 -1.51679 -0.856691 0
M  V30 6933 C 652.127 -3.02197 -1.57765 0
M  V30 6934 H 653.32 -2.99015 0.230277 0
M  V30 6935 H 650.873 -1.55506 0.157377 0
M  V30 6936 H 651.608 -2.33013 -2.25556 0
M  V30 6937 H 651.393 -3.73987 -1.17797 0
M  V30 6938 H 652.883 -3.57719 -2.15469 0
M  V30 6939 N 653.32 -0.135238 -1.57019 0
M  V30 6940 C 654.267 0.808908 -2.1616 0
M  V30 6941 C 655.237 1.25234 -1.09113 0
M  V30 6942 O 656.422 1.32697 -1.37099 0
M  V30 6943 C 653.562 2.04729 -2.77813 0
M  V30 6944 C 652.675 1.65074 -3.99218 0
M  V30 6945 C 651.81 2.84002 -4.48906 0
M  V30 6946 C 650.849 2.40663 -5.62803 0
M  V30 6947 N 649.986 3.5256 -6.07162 0
M  V30 6948 H 654.826 0.297751 -2.96509 0
M  V30 6949 H 652.363 0.135264 -1.46477 0
M  V30 6950 H 654.321 2.7731 -3.11697 0
M  V30 6951 H 652.951 2.53275 -2.00128 0
M  V30 6952 H 652.003 0.823029 -3.7139 0
M  V30 6953 H 653.315 1.29236 -4.81767 0
M  V30 6954 H 652.469 3.64788 -4.84783 0
M  V30 6955 H 651.208 3.23076 -3.65339 0
M  V30 6956 H 650.213 1.58314 -5.26514 0
M  V30 6957 H 651.438 2.02687 -6.48147 0
M  V30 6958 H 649.384 3.91278 -5.26534 0
M  V30 6959 H 649.301 3.20699 -6.84608 0
M  V30 6960 H 650.569 4.33738 -6.47682 0
M  V30 6961 N 654.798 1.5699 0.138552 0
M  V30 6962 C 656.023 1.88344 0.86841 0
M  V30 6963 C 656.448 0.725159 1.7356 0
M  V30 6964 O 655.806 -0.324992 1.78363 0
M  V30 6965 C 655.854 3.18334 1.69398 0
M  V30 6966 O 654.958 3.02863 2.79907 0
M  V30 6967 H 654.299 0.618577 0.241367 0
M  V30 6968 H 656.829 2.04207 0.126826 0
M  V30 6969 H 656.839 3.50567 2.08726 0
M  V30 6970 H 655.514 4.02238 1.05725 0
M  V30 6971 H 654.091 2.82056 2.43924 0
M  V30 6972 N 656.276 -0.40816 1.52223 0
M  V30 6973 C 657.524 -1.15274 1.66001 0
M  V30 6974 C 657.845 -1.91003 0.392803 0
M  V30 6975 O 657.115 -1.8673 -0.592336 0
M  V30 6976 H 655.695 -0.428526 0.611861 0
M  V30 6977 H 658.357 -0.46512 1.89269 0
M  V30 6978 H 657.453 -1.86628 2.50153 0
M  V30 6979 N 657.755 -1.42862 -0.66545 0
M  V30 6980 C 659.004 -1.43119 -1.42126 0
M  V30 6981 C 659.317 -0.0545297 -1.95524 0
M  V30 6982 O 660.523 0.0654747 -2.71421 0
M  V30 6983 C 658.979 -2.51797 -2.5715 0
M  V30 6984 C 658.587 -3.95514 -2.10411 0
M  V30 6985 C 660.331 -2.61233 -3.346 0
M  V30 6986 C 658.238 -4.95682 -3.22573 0
M  V30 6987 H 657.168 -0.532349 -0.533966 0
M  V30 6988 H 659.819 -1.68806 -0.719506 0
M  V30 6989 H 658.201 -2.19292 -3.29738 0
M  V30 6990 H 659.375 -4.3742 -1.44915 0
M  V30 6991 H 657.69 -3.90012 -1.45874 0
M  V30 6992 H 660.287 -3.33248 -4.18151 0
M  V30 6993 H 660.63 -1.65896 -3.81817 0
M  V30 6994 H 661.163 -2.9298 -2.69087 0
M  V30 6995 H 657.902 -5.92529 -2.80338 0
M  V30 6996 H 657.422 -4.58399 -3.86821 0
M  V30 6997 H 659.101 -5.17828 -3.87896 0
M  V30 6998 N 659.233 0.902656 -1.29189 0
M  V30 6999 C 660.458 1.69167 -1.19989 0
M  V30 7000 C 660.883 1.86607 0.236495 0
M  V30 7001 O 660.241 1.38425 1.17082 0
M  V30 7002 C 660.289 3.05532 -1.91527 0
M  V30 7003 O 659.393 3.93621 -1.2303 0
M  V30 7004 H 658.734 0.517584 -0.415936 0
M  V30 7005 H 661.264 1.12785 -1.70706 0
M  V30 7006 H 661.274 3.55693 -1.99866 0
M  V30 7007 H 659.949 2.92156 -2.96003 0
M  V30 7008 H 658.526 3.52055 -1.22928 0
M  V30 7009 N 660.711 1.11618 1.11262 0
M  V30 7010 C 661.936 0.889013 1.8738 0
M  V30 7011 C 662.361 -0.555884 1.79698 0
M  V30 7012 O 661.719 -1.39272 1.16073 0
M  V30 7013 C 661.767 1.35759 3.34069 0
M  V30 7014 O 660.871 0.530499 4.08974 0
M  V30 7015 H 660.212 0.320082 0.581759 0
M  V30 7016 H 662.742 1.48611 1.40627 0
M  V30 7017 H 662.752 1.35291 3.84916 0
M  V30 7018 H 661.427 2.40973 3.38976 0
M  V30 7019 H 660.004 0.601439 3.68018 0
M  V30 7020 N 662.189 -1.289 0.906776 0
M  V30 7021 C 663.121 -2.26556 0.347159 0
M  V30 7022 C 664.134 -1.54589 -0.51049 0
M  V30 7023 O 665.323 -1.75489 -0.326501 0
M  V30 7024 C 662.423 -3.3484 -0.523024 0
M  V30 7025 C 661.596 -4.36296 0.310515 0
M  V30 7026 C 660.655 -5.23879 -0.493634 0
M  V30 7027 O 659.681 -5.69127 0.0913569 0
M  V30 7028 N 660.883 -5.51946 -1.7982 0
M  V30 7029 H 663.648 -2.75212 1.18652 0
M  V30 7030 H 661.209 -1.42309 0.771996 0
M  V30 7031 H 663.201 -3.90366 -1.06756 0
M  V30 7032 H 661.771 -2.85946 -1.26309 0
M  V30 7033 H 660.991 -3.80331 1.03644 0
M  V30 7034 H 662.279 -5.01113 0.881106 0
M  V30 7035 H 661.677 -5.17006 -2.2961 0
M  V30 7036 H 660.234 -6.10258 -2.28971 0
M  V30 7037 N 663.667 -0.670007 -1.42649 0
M  V30 7038 C 664.599 0.0501746 -2.29145 0
M  V30 7039 C 665.612 0.770331 -1.43422 0
M  V30 7040 O 666.801 0.625288 -1.6719 0
M  V30 7041 C 663.901 1.09463 -3.20735 0
M  V30 7042 C 663.074 0.44926 -4.35087 0
M  V30 7043 C 662.133 1.39285 -5.07431 0
M  V30 7044 O 661.159 0.894997 -5.6212 0
M  V30 7045 N 662.361 2.72631 -5.12496 0
M  V30 7046 H 665.126 -0.692312 -2.91594 0
M  V30 7047 H 662.687 -0.514056 -1.53522 0
M  V30 7048 H 664.679 1.72705 -3.65999 0
M  V30 7049 H 663.249 1.73891 -2.59771 0
M  V30 7050 H 662.469 -0.362573 -3.92529 0
M  V30 7051 H 663.757 -0.000544776 -5.088 0
M  V30 7052 H 663.155 3.15623 -4.69467 0
M  V30 7053 H 661.712 3.31132 -5.61422 0
M  V30 7054 N 665.145 1.52092 -0.413018 0
M  V30 7055 C 666.077 2.24819 0.445994 0
M  V30 7056 C 667.09 1.27925 1.00692 0
M  V30 7057 O 668.279 1.53845 0.905204 0
M  V30 7058 C 665.379 2.96951 1.6332 0
M  V30 7059 C 664.552 4.20746 1.19548 0
M  V30 7060 C 663.611 4.75668 2.25003 0
M  V30 7061 O 662.637 5.38148 1.85434 0
M  V30 7062 N 663.839 4.57579 3.57214 0
M  V30 7063 H 666.604 2.99176 -0.177209 0
M  V30 7064 H 664.165 1.60102 -0.240601 0
M  V30 7065 H 666.157 3.30586 2.33441 0
M  V30 7066 H 664.727 2.25756 2.16225 0
M  V30 7067 H 663.947 3.92881 0.32224 0
M  V30 7068 H 665.235 5.01132 0.880033 0
M  V30 7069 H 664.633 4.07758 3.92109 0
M  V30 7070 H 663.19 4.95642 4.23299 0
M  V30 7071 N 666.623 0.143563 1.56945 0
M  V30 7072 C 667.848 -0.518701 2.00809 0
M  V30 7073 C 668.273 -1.5785 1.02298 0
M  V30 7074 O 667.631 -1.813 -0.0017839 0
M  V30 7075 C 667.679 -1.09929 3.43436 0
M  V30 7076 O 666.783 -2.21425 3.47915 0
M  V30 7077 H 666.124 -0.127215 0.6517 0
M  V30 7078 H 668.654 0.239283 2.03196 0
M  V30 7079 H 668.664 -1.4288 3.82164 0
M  V30 7080 H 667.339 -0.323162 4.14643 0
M  V30 7081 H 665.916 -1.89728 3.21026 0
M  V30 7082 N 668.101 -1.57061 -0.130224 0
M  V30 7083 C 669.034 -1.94698 -1.19029 0
M  V30 7084 C 670.012 -0.815074 -1.40696 0
M  V30 7085 O 671.196 -1.07223 -1.55034 0
M  V30 7086 C 668.323 -2.23352 -2.5462 0
M  V30 7087 C 667.369 -3.45945 -2.49448 0
M  V30 7088 S 668.202 -4.98927 -1.94505 0
M  V30 7089 C 669.358 -5.30721 -3.31792 0
M  V30 7090 H 669.591 -2.84308 -0.869272 0
M  V30 7091 H 667.124 -1.50688 -0.336531 0
M  V30 7092 H 669.082 -2.40539 -3.32643 0
M  V30 7093 H 667.743 -1.34376 -2.83905 0
M  V30 7094 H 666.936 -3.63324 -3.49302 0
M  V30 7095 H 666.538 -3.28086 -1.79543 0
M  V30 7096 H 668.83 -5.25215 -4.27966 0
M  V30 7097 H 669.773 -6.32048 -3.19251 0
M  V30 7098 H 670.181 -4.5821 -3.29703 0
M  V30 7099 N 669.579 0.400081 -1.52437 0
M  V30 7100 C 670.995 0.739359 -1.41441 0
M  V30 7101 C 671.195 1.94512 -0.526053 0
M  V30 7102 O 670.251 2.525 0.00472502 0
M  V30 7103 C 671.564 0.984824 -2.84116 0
M  V30 7104 C 673.112 1.08698 -2.93519 0
M  V30 7105 C 673.587 1.36515 -4.37181 0
M  V30 7106 N 675.078 1.43361 -4.40457 0
M  V30 7107 C 675.813 1.66528 -5.48686 0
M  V30 7108 N 675.309 1.87239 -6.67018 0
M  V30 7109 N 677.102 1.68617 -5.36213 0
M  V30 7110 H 669.253 -0.393484 -2.08723 0
M  V30 7111 H 671.516 -0.1138 -0.941145 0
M  V30 7112 H 671.222 0.171096 -3.51284 0
M  V30 7113 H 671.096 1.90253 -3.25705 0
M  V30 7114 H 673.483 1.89129 -2.26526 0
M  V30 7115 H 673.564 0.147432 -2.55375 0
M  V30 7116 H 673.208 0.565982 -5.04737 0
M  V30 7117 H 673.138 2.31737 -4.7287 0
M  V30 7118 H 675.629 1.29108 -3.55161 0
M  V30 7119 H 675.942 2.04392 -7.45281 0
M  V30 7120 H 674.287 1.84486 -6.70067 0
M  V30 7121 H 677.478 1.5198 -4.42741 0
M  V30 7122 H 677.651 1.86332 -6.20632 0
M  V30 7123 N 671.057 1.43213 0.657864 0
M  V30 7124 C 671.987 1.50815 1.78262 0
M  V30 7125 C 672.968 0.363211 1.66177 0
M  V30 7126 O 674.153 0.579806 1.85343 0
M  V30 7127 C 671.283 1.42625 3.16663 0
M  V30 7128 C 670.237 2.5532 3.43505 0
M  V30 7129 C 669.563 2.32184 4.81658 0
M  V30 7130 C 670.863 3.97583 3.38711 0
M  V30 7131 H 672.557 2.44954 1.72157 0
M  V30 7132 H 670.103 1.17896 0.82683 0
M  V30 7133 H 672.056 1.46548 3.95097 0
M  V30 7134 H 670.78 0.449877 3.23487 0
M  V30 7135 H 669.439 2.50742 2.6744 0
M  V30 7136 H 669.087 1.32801 4.85153 0
M  V30 7137 H 668.787 3.07724 5.00579 0
M  V30 7138 H 670.311 2.37883 5.62356 0
M  V30 7139 H 671.725 4.03673 4.07089 0
M  V30 7140 H 670.122 4.73112 3.69168 0
M  V30 7141 H 671.192 4.23049 2.36976 0
M  V30 7142 N 672.536 -0.895792 1.29666 0
M  V30 7143 C 673.499 -1.98189 1.15124 0
M  V30 7144 C 674.499 -1.60572 0.0855717 0
M  V30 7145 O 675.689 -1.70991 0.332826 0
M  V30 7146 C 672.821 -3.32289 0.761372 0
M  V30 7147 H 674.014 -2.12518 2.11603 0
M  V30 7148 H 671.567 -1.0808 1.12908 0
M  V30 7149 H 672.302 -3.23662 -0.203393 0
M  V30 7150 H 672.087 -3.60958 1.53139 0
M  V30 7151 H 673.577 -4.1198 0.682792 0
M  V30 7152 N 674.014 -1.12206 -1.10668 0
M  V30 7153 C 674.962 -0.782918 -2.19028 0
M  V30 7154 C 675.956 0.229175 -1.67843 0
M  V30 7155 O 677.162 0.0876295 -1.79787 0
M  V30 7156 H 673.537 -0.235339 -0.714227 0
M  V30 7157 H 675.508 -1.70527 -2.44874 0
M  V30 7158 C 674.257 -0.25116 -3.46792 0
M  V30 7159 H 673.58 -1.02123 -3.86537 0
M  V30 7160 H 675.02 -0.0521409 -4.23968 0
M  V30 7161 C 673.479 1.02037 -3.21076 0
M  V30 7162 O 674.009 2.09862 -3.42522 0
M  V30 7163 N 672.215 0.946348 -2.74759 0
M  V30 7164 H 671.762 0.068777 -2.57508 0
M  V30 7165 H 671.72 1.79775 -2.57931 0
M  V30 7166 N 675.492 1.28418 -0.913599 0
M  V30 7167 C 676.422 2.29713 -0.418847 0
M  V30 7168 C 677.403 1.62165 0.513469 0
M  V30 7169 O 678.588 1.89576 0.421235 0
M  V30 7170 C 675.718 3.45612 0.342042 0
M  V30 7171 C 674.672 4.25056 -0.501123 0
M  V30 7172 C 673.998 5.3329 0.388097 0
M  V30 7173 C 675.298 4.91814 -1.75831 0
M  V30 7174 H 676.992 2.71346 -1.26538 0
M  V30 7175 H 674.538 1.30446 -0.609903 0
M  V30 7176 H 676.491 4.15562 0.699 0
M  V30 7177 H 675.215 3.02858 1.22248 0
M  V30 7178 H 673.874 3.56833 -0.840598 0
M  V30 7179 H 673.522 4.8678 1.26707 0
M  V30 7180 H 673.222 5.87347 -0.172459 0
M  V30 7181 H 674.746 6.06088 0.74094 0
M  V30 7182 H 676.16 5.54126 -1.47026 0
M  V30 7183 H 674.557 5.55866 -2.26126 0
M  V30 7184 H 675.627 4.16313 -2.4862 0
M  V30 7185 N 676.97 0.677563 1.42291 0
M  V30 7186 C 677.9 0.014968 2.33495 0
M  V30 7187 C 678.881 -0.786376 1.50831 0
M  V30 7188 O 680.066 -0.742975 1.79426 0
M  V30 7189 C 677.196 -0.935023 3.34477 0
M  V30 7190 C 676.15 -0.242074 4.27315 0
M  V30 7191 C 675.476 -1.30519 5.18526 0
M  V30 7192 C 676.776 0.880604 5.14823 0
M  V30 7193 H 678.47 0.776671 2.89151 0
M  V30 7194 H 676.016 0.37494 1.39033 0
M  V30 7195 H 677.969 -1.40766 3.97194 0
M  V30 7196 H 676.693 -1.72818 2.77131 0
M  V30 7197 H 675.352 0.210351 3.65996 0
M  V30 7198 H 675 -2.09041 4.57505 0
M  V30 7199 H 674.7 -0.846652 5.81468 0
M  V30 7200 H 676.224 -1.7787 5.84119 0
M  V30 7201 H 677.638 0.489062 5.7121 0
M  V30 7202 H 676.035 1.26511 5.86613 0
M  V30 7203 H 677.105 1.72818 4.53059 0
M  V30 7204 N 678.448 -1.51871 0.421078 0
M  V30 7205 C 679.381 -2.23851 -0.443369 0
M  V30 7206 C 680.359 -1.25142 -1.03818 0
M  V30 7207 O 681.543 -1.5423 -1.08377 0
M  V30 7208 C 678.67 -2.97637 -1.61648 0
M  V30 7209 C 677.716 -4.10873 -1.14391 0
M  V30 7210 S 678.549 -5.35408 -0.0992403 0
M  V30 7211 C 679.705 -6.12726 -1.27739 0
M  V30 7212 H 679.938 -2.96826 0.167786 0
M  V30 7213 H 677.471 -1.53027 0.205461 0
M  V30 7214 H 679.429 -3.40751 -2.28909 0
M  V30 7215 H 678.09 -2.24282 -2.199 0
M  V30 7216 H 677.283 -4.61718 -2.02069 0
M  V30 7217 H 676.885 -3.69937 -0.549775 0
M  V30 7218 H 679.177 -6.40827 -2.19881 0
M  V30 7219 H 680.12 -7.03461 -0.809239 0
M  V30 7220 H 680.528 -5.43968 -1.5086 0
M  V30 7221 N 679.926 -0.151884 -1.56866 0
M  V30 7222 C 680.856 0.781943 -2.20018 0
M  V30 7223 C 681.837 1.25347 -1.14987 0
M  V30 7224 O 683.022 1.31015 -1.43348 0
M  V30 7225 C 680.152 2.01928 -2.82564 0
M  V30 7226 C 679.106 1.68434 -3.93464 0
M  V30 7227 C 678.432 2.99472 -4.42968 0
M  V30 7228 C 679.732 0.927244 -5.14003 0
M  V30 7229 H 681.426 0.255607 -2.98307 0
M  V30 7230 H 678.972 0.121502 -1.43486 0
M  V30 7231 H 680.925 2.67741 -3.25411 0
M  V30 7232 H 679.649 2.56943 -2.01614 0
M  V30 7233 H 678.308 1.04998 -3.51242 0
M  V30 7234 H 677.956 3.52488 -3.58834 0
M  V30 7235 H 677.656 2.77823 -5.17772 0
M  V30 7236 H 679.18 3.66348 -4.88489 0
M  V30 7237 H 680.594 1.48756 -5.53665 0
M  V30 7238 H 678.991 0.810513 -5.94601 0
M  V30 7239 H 680.061 -0.0801163 -4.84834 0
M  V30 7240 N 681.404 1.57128 0.121893 0
M  V30 7241 C 682.334 2.03165 1.15092 0
M  V30 7242 C 683.315 0.915587 1.43356 0
M  V30 7243 O 684.5 1.1851 1.53847 0
M  V30 7244 C 681.63 2.43352 2.47784 0
M  V30 7245 C 680.584 3.58376 2.33989 0
M  V30 7246 C 679.91 3.84454 3.71617 0
M  V30 7247 C 681.21 4.90199 1.80283 0
M  V30 7248 H 682.904 2.89382 0.768023 0
M  V30 7249 H 680.45 1.39218 0.367998 0
M  V30 7250 H 682.403 2.74163 3.20019 0
M  V30 7251 H 681.127 1.54103 2.87958 0
M  V30 7252 H 679.786 3.2777 1.64202 0
M  V30 7253 H 679.434 2.92414 4.09271 0
M  V30 7254 H 679.134 4.61877 3.6324 0
M  V30 7255 H 680.658 4.17714 4.45362 0
M  V30 7256 H 682.072 5.19565 2.42333 0
M  V30 7257 H 680.469 5.71601 1.82735 0
M  V30 7258 H 681.539 4.78904 0.760184 0
M  V30 7259 N 682.882 -0.391992 1.52647 0
M  V30 7260 C 684.107 -1.16312 1.71716 0
M  V30 7261 C 684.532 -1.83042 0.433279 0
M  V30 7262 O 683.89 -1.70705 -0.610707 0
M  V30 7263 C 683.938 -2.18908 2.86551 0
M  V30 7264 O 683.042 -3.2543 2.53316 0
M  V30 7265 H 682.383 -0.338743 0.571095 0
M  V30 7266 H 684.913 -0.457202 1.99426 0
M  V30 7267 H 684.923 -2.62954 3.1196 0
M  V30 7268 H 683.598 -1.69726 3.79692 0
M  V30 7269 H 682.175 -2.86543 2.38637 0
M  V30 7270 N 684.36 -1.4356 -0.65026 0
M  V30 7271 C 685.31 -1.45392 -1.75628 0
M  V30 7272 C 686.294 -0.322006 -1.57645 0
M  V30 7273 O 687.486 -0.565996 -1.67707 0
M  V30 7274 C 684.615 -1.38254 -3.1423 0
M  V30 7275 C 683.701 -2.56487 -3.3775 0
M  V30 7276 N 684.092 -3.81824 -3.31729 0
M  V30 7277 C 682.39 -2.51274 -3.6848 0
M  V30 7278 C 683.091 -4.60497 -3.55412 0
M  V30 7279 N 682.067 -3.91274 -3.77367 0
M  V30 7280 H 685.869 -2.40167 -1.69402 0
M  V30 7281 H 683.383 -1.38254 -0.852037 0
M  V30 7282 H 685.38 -1.3765 -3.9352 0
M  V30 7283 H 684.04 -0.445019 -3.21636 0
M  V30 7284 H 685.051 -4.14069 -3.11074 0
M  V30 7285 H 681.728 -1.66223 -3.82983 0
M  V30 7286 H 683.118 -5.69518 -3.5651 0
M  V30 7287 N 685.838 0.888903 -1.30139 0
M  V30 7288 C 687.084 1.6428 -1.18912 0
M  V30 7289 C 687.417 1.92499 0.256477 0
M  V30 7290 O 686.692 1.54312 1.18397 0
M  V30 7291 C 686.975 2.9851 -2.01405 0
M  V30 7292 C 686.828 2.77288 -3.54163 0
M  V30 7293 C 688.147 3.99383 -1.84882 0
M  V30 7294 H 685.266 0.596148 -0.433333 0
M  V30 7295 H 687.908 1.0289 -1.5973 0
M  V30 7296 H 686.058 3.50907 -1.66722 0
M  V30 7297 H 687.73 2.31709 -3.98884 0
M  V30 7298 H 685.973 2.11867 -3.78543 0
M  V30 7299 H 686.644 3.72717 -4.07168 0
M  V30 7300 H 689.12 3.56132 -2.15196 0
M  V30 7301 H 687.996 4.91222 -2.44934 0
M  V30 7302 H 688.257 4.34674 -0.806902 0
M  V30 7303 N 687.317 1.12792 1.10072 0
M  V30 7304 C 688.733 0.864745 1.34143 0
M  V30 7305 C 688.933 -0.503201 1.95116 0
M  V30 7306 O 687.989 -1.25111 2.19325 0
M  V30 7307 C 689.302 1.98413 2.25949 0
M  V30 7308 C 690.85 2.01545 2.39476 0
M  V30 7309 C 691.325 3.12727 3.34613 0
M  V30 7310 N 692.816 3.12194 3.42183 0
M  V30 7311 C 693.551 3.94862 4.15779 0
M  V30 7312 N 693.047 4.87528 4.92228 0
M  V30 7313 N 694.84 3.82985 4.11435 0
M  V30 7314 H 686.991 2.00926 0.68866 0
M  V30 7315 H 689.254 0.874564 0.365844 0
M  V30 7316 H 688.96 2.97005 1.88364 0
M  V30 7317 H 688.834 1.89254 3.26287 0
M  V30 7318 H 691.221 1.0357 2.76328 0
M  V30 7319 H 691.302 2.14777 1.3894 0
M  V30 7320 H 690.946 4.10936 2.98486 0
M  V30 7321 H 690.876 2.96732 4.35037 0
M  V30 7322 H 693.367 2.45065 2.87666 0
M  V30 7323 H 693.68 5.47109 5.45794 0
M  V30 7324 H 692.025 4.91539 4.9134 0
M  V30 7325 H 695.216 3.09923 3.50807 0
M  V30 7326 H 695.389 4.47641 4.68531 0
M  V30 7327 N 688.795 -1.27931 0.920396 0
M  V30 7328 C 689.745 -2.24727 0.384966 0
M  V30 7329 C 690.729 -1.52715 -0.506661 0
M  V30 7330 O 691.921 -1.73599 -0.345298 0
M  V30 7331 C 689.05 -3.41324 -0.3678 0
M  V30 7332 C 688.136 -4.20649 0.539925 0
M  V30 7333 N 688.527 -4.77906 1.6565 0
M  V30 7334 C 686.825 -4.4469 0.341557 0
M  V30 7335 C 687.526 -5.37652 2.22047 0
M  V30 7336 N 686.502 -5.2218 1.51093 0
M  V30 7337 H 690.304 -2.66572 1.23761 0
M  V30 7338 H 687.818 -1.42779 0.773819 0
M  V30 7339 H 689.815 -4.0976 -0.768277 0
M  V30 7340 H 688.475 -3.01012 -1.21746 0
M  V30 7341 H 689.486 -4.76073 2.03899 0
M  V30 7342 H 686.163 -4.14868 -0.468045 0
M  V30 7343 H 687.553 -5.92948 3.1601 0
M  V30 7344 N 690.273 -0.685099 -1.4193 0
M  V30 7345 C 691.236 -0.0222632 -2.29189 0
M  V30 7346 C 692.236 0.7186 -1.4385 0
M  V30 7347 O 693.426 0.555058 -1.6512 0
M  V30 7348 C 690.558 0.979013 -3.2654 0
M  V30 7349 H 691.751 -0.790424 -2.89296 0
M  V30 7350 H 689.304 -0.448012 -1.49742 0
M  V30 7351 H 690.039 1.77531 -2.71392 0
M  V30 7352 H 689.824 0.451037 -3.89497 0
M  V30 7353 H 691.314 1.44091 -3.91954 0
M  V30 7354 N 691.751 1.51645 -0.429126 0
M  V30 7355 C 692.976 2.06917 0.141399 0
M  V30 7356 C 693.401 1.29527 1.36398 0
M  V30 7357 O 692.759 0.33094 1.78254 0
M  V30 7358 C 692.807 3.57776 0.4504 0
M  V30 7359 O 691.911 3.82639 1.53821 0
M  V30 7360 H 691.252 0.663978 0.0054647 0
M  V30 7361 H 693.782 1.95355 -0.608093 0
M  V30 7362 H 693.792 4.01894 0.703249 0
M  V30 7363 H 692.467 4.13532 -0.443213 0
M  V30 7364 H 691.044 3.5039 1.27597 0
M  V30 7365 N 693.229 0.160201 1.56784 0
M  V30 7366 C 694.177 -0.791402 2.18723 0
M  V30 7367 C 695.171 -1.24567 1.14801 0
M  V30 7368 O 696.377 -1.21262 1.33025 0
M  V30 7369 H 692.752 -0.273458 0.700517 0
M  V30 7370 H 694.723 -0.244931 2.97393 0
M  V30 7371 C 693.472 -2.01509 2.83354 0
M  V30 7372 H 692.795 -1.67454 3.63041 0
M  V30 7373 H 694.235 -2.66006 3.30177 0
M  V30 7374 C 692.694 -2.83159 1.82545 0
M  V30 7375 O 693.224 -3.79944 1.30405 0
M  V30 7376 N 691.43 -2.47953 1.51552 0
M  V30 7377 H 690.977 -1.69309 1.94144 0
M  V30 7378 H 690.935 -3.02873 0.843519 0
M  V30 7379 N 694.707 -1.5719 -0.113559 0
M  V30 7380 C 695.654 -2.00736 -1.13901 0
M  V30 7381 C 696.624 -0.88044 -1.40846 0
M  V30 7382 O 697.809 -1.14507 -1.5262 0
M  V30 7383 C 694.949 -2.42132 -2.45899 0
M  V30 7384 C 694.062 -3.68264 -2.25844 0
M  V30 7385 C 693.197 -3.98617 -3.5111 0
M  V30 7386 C 692.236 -5.17915 -3.26236 0
M  V30 7387 N 691.373 -5.44111 -4.4372 0
M  V30 7388 H 696.213 -2.88128 -0.760677 0
M  V30 7389 H 693.75 -1.42523 -0.364099 0
M  V30 7390 H 695.708 -2.6417 -3.22908 0
M  V30 7391 H 694.338 -1.57775 -2.81615 0
M  V30 7392 H 693.39 -3.53809 -1.39726 0
M  V30 7393 H 694.702 -4.55425 -2.03444 0
M  V30 7394 H 693.856 -4.21333 -4.36536 0
M  V30 7395 H 692.595 -3.09942 -3.76546 0
M  V30 7396 H 691.6 -4.95038 -2.39202 0
M  V30 7397 H 692.825 -6.08172 -3.02165 0
M  V30 7398 H 690.771 -4.58394 -4.69266 0
M  V30 7399 H 690.688 -6.25606 -4.24444 0
M  V30 7400 H 691.956 -5.71351 -5.30263 0
M  V30 7401 N 696.185 0.383891 -1.52853 0
M  V30 7402 C 697.433 1.12619 -1.67814 0
M  V30 7403 C 697.754 1.90354 -0.423141 0
M  V30 7404 O 697.024 1.87649 0.562554 0
M  V30 7405 H 695.604 0.418738 -0.618601 0
M  V30 7406 H 698.266 0.43495 -1.89985 0
M  V30 7407 H 697.362 1.82624 -2.5309 0
M  V30 7408 N 697.663 1.43903 0.642637 0
M  V30 7409 C 698.596 1.44339 1.76753 0
M  V30 7410 C 699.574 0.303558 1.59741 0
M  V30 7411 O 700.758 0.498775 1.81781 0
M  V30 7412 C 697.885 1.26508 3.14187 0
M  V30 7413 C 696.931 2.43905 3.49875 0
M  V30 7414 S 697.764 4.0645 3.48653 0
M  V30 7415 C 698.92 3.91021 4.88726 0
M  V30 7416 H 699.153 2.39523 1.76113 0
M  V30 7417 H 696.686 1.31061 0.81623 0
M  V30 7418 H 698.644 1.16908 3.93501 0
M  V30 7419 H 697.305 0.328548 3.12377 0
M  V30 7420 H 696.498 2.27262 4.49853 0
M  V30 7421 H 696.1 2.50186 2.77998 0
M  V30 7422 H 698.392 3.54 5.77659 0
M  V30 7423 H 699.335 4.9079 5.10423 0
M  V30 7424 H 699.743 3.23287 4.62759 0
M  V30 7425 N 699.141 -0.881989 1.30609 0
M  V30 7426 C 700.051 -2.02076 1.19174 0
M  V30 7427 C 701.067 -1.73645 0.11102 0
M  V30 7428 O 702.243 -1.98735 0.326528 0
M  V30 7429 C 699.308 -3.3515 0.887438 0
M  V30 7430 C 698.369 -3.76983 2.05383 0
M  V30 7431 C 697.602 -5.03707 1.76395 0
M  V30 7432 O 697.825 -5.66171 0.693302 0
M  V30 7433 O 696.759 -5.42019 2.61723 0
M  V30 7434 H 700.585 -2.14652 2.14845 0
M  V30 7435 H 698.17 -1.00843 1.10232 0
M  V30 7436 H 700.052 -4.14975 0.73306 0
M  V30 7437 H 698.727 -3.23676 -0.0393354 0
M  V30 7438 H 697.634 -2.97849 2.26355 0
M  V30 7439 H 698.967 -3.93066 2.96243 0
M  V30 7440 N 700.619 -1.13374 -1.09472 0
M  V30 7441 C 701.569 -0.77946 -2.14263 0
M  V30 7442 C 702.553 0.226271 -1.59301 0
M  V30 7443 O 703.745 0.0302581 -1.76974 0
M  V30 7444 C 700.874 -0.246635 -3.42413 0
M  V30 7445 C 699.96 -1.28124 -4.04283 0
M  V30 7446 N 700.351 -2.48201 -4.40715 0
M  V30 7447 C 698.649 -1.12892 -4.31476 0
M  V30 7448 C 699.35 -3.14347 -4.8945 0
M  V30 7449 N 698.326 -2.41771 -4.86876 0
M  V30 7450 H 702.128 -1.69305 -2.40235 0
M  V30 7451 H 699.642 -1.01598 -1.26695 0
M  V30 7452 H 701.639 0.0254131 -4.16892 0
M  V30 7453 H 700.299 0.661287 -3.17895 0
M  V30 7454 H 701.31 -2.85511 -4.32093 0
M  V30 7455 H 697.987 -0.279117 -4.16566 0
M  V30 7456 H 699.377 -4.16663 -5.27107 0
M  V30 7457 N 702.098 1.27442 -0.927168 0
M  V30 7458 C 703.028 2.29256 -0.443188 0
M  V30 7459 C 704.009 1.62701 0.49624 0
M  V30 7460 O 705.194 1.90013 0.401105 0
M  V30 7461 C 702.324 3.45955 0.305366 0
M  V30 7462 C 701.278 4.24501 -0.546178 0
M  V30 7463 C 700.604 5.33671 0.331512 0
M  V30 7464 C 701.904 4.89921 -1.81037 0
M  V30 7465 H 703.598 2.69988 -1.29409 0
M  V30 7466 H 701.144 1.29792 -0.623705 0
M  V30 7467 H 703.097 4.1628 0.654885 0
M  V30 7468 H 701.821 3.04138 1.19029 0
M  V30 7469 H 700.48 3.55921 -0.878398 0
M  V30 7470 H 700.128 4.88096 1.21537 0
M  V30 7471 H 699.828 5.87131 -0.234746 0
M  V30 7472 H 701.352 6.0684 0.676614 0
M  V30 7473 H 702.766 5.52536 -1.52895 0
M  V30 7474 H 701.163 5.53436 -2.32009 0
M  V30 7475 H 702.233 4.13652 -2.53021 0
M  V30 7476 N 703.576 0.692616 1.41565 0
M  V30 7477 C 704.506 0.0397325 2.33466 0
M  V30 7478 C 705.487 -0.770334 1.51657 0
M  V30 7479 O 706.672 -0.723903 1.80203 0
M  V30 7480 C 703.802 -0.899495 3.3545 0
M  V30 7481 C 702.756 -0.196738 4.27548 0
M  V30 7482 C 702.082 -1.25012 5.19881 0
M  V30 7483 C 703.382 0.935158 5.1386 0
M  V30 7484 H 705.076 0.807296 2.88311 0
M  V30 7485 H 702.622 0.389665 1.38628 0
M  V30 7486 H 704.575 -1.36545 3.98665 0
M  V30 7487 H 703.299 -1.69869 2.78948 0
M  V30 7488 H 701.958 0.249158 3.65752 0
M  V30 7489 H 701.606 -2.04177 4.59696 0
M  V30 7490 H 701.306 -0.784931 5.82334 0
M  V30 7491 H 702.83 -1.71665 5.85972 0
M  V30 7492 H 704.244 0.549619 5.70659 0
M  V30 7493 H 702.641 1.32726 5.85238 0
M  V30 7494 H 703.711 1.77613 4.512 0
M  V30 7495 N 705.054 -1.51416 0.437162 0
M  V30 7496 C 706.002 -2.29328 -0.388765 0
M  V30 7497 C 706.996 -1.35171 -1.02104 0
M  V30 7498 O 708.202 -1.52513 -0.956024 0
M  V30 7499 H 704.577 -0.738048 -0.144183 0
M  V30 7500 H 706.548 -2.96995 0.289212 0
M  V30 7501 C 705.297 -3.14741 -1.47761 0
M  V30 7502 H 704.62 -3.8708 -1.00045 0
M  V30 7503 H 706.06 -3.72313 -2.02877 0
M  V30 7504 C 704.519 -2.30105 -2.46076 0
M  V30 7505 O 705.049 -1.96055 -3.50607 0
M  V30 7506 N 703.255 -1.93331 -2.1696 0
M  V30 7507 H 702.802 -2.2122 -1.31983 0
M  V30 7508 H 702.76 -1.36999 -2.82982 0
M  V30 7509 N 706.532 -0.168513 -1.56696 0
M  V30 7510 C 707.465 0.801477 -2.13662 0
M  V30 7511 C 708.443 1.22786 -1.06594 0
M  V30 7512 O 709.627 1.32014 -1.34554 0
M  V30 7513 C 706.754 2.07896 -2.6739 0
M  V30 7514 C 705.8 1.79681 -3.86803 0
M  V30 7515 S 706.633 0.968556 -5.26668 0
M  V30 7516 C 707.789 2.25676 -5.83799 0
M  V30 7517 H 708.022 0.317121 -2.95604 0
M  V30 7518 H 705.555 0.0461132 -1.54331 0
M  V30 7519 H 707.513 2.81272 -2.98992 0
M  V30 7520 H 706.174 2.53445 -1.85539 0
M  V30 7521 H 705.367 2.74461 -4.22714 0
M  V30 7522 H 704.969 1.14402 -3.56073 0
M  V30 7523 H 707.261 3.2116 -5.96542 0
M  V30 7524 H 708.204 1.94238 -6.80939 0
M  V30 7525 H 708.612 2.37308 -5.12197 0
M  V30 7526 N 708.01 1.57248 0.105221 0
M  V30 7527 C 708.957 2.01338 1.12835 0
M  V30 7528 C 709.927 0.887897 1.40377 0
M  V30 7529 O 711.112 1.15315 1.5201 0
M  V30 7530 C 708.252 2.43432 2.44611 0
M  V30 7531 C 707.365 3.69457 2.23888 0
M  V30 7532 C 706.5 4.00473 3.48991 0
M  V30 7533 C 705.539 5.19638 3.23485 0
M  V30 7534 N 704.676 5.46457 4.40828 0
M  V30 7535 H 709.516 2.88527 0.745386 0
M  V30 7536 H 707.053 1.42714 0.356535 0
M  V30 7537 H 709.011 2.65879 3.21503 0
M  V30 7538 H 707.641 1.59266 2.80774 0
M  V30 7539 H 706.693 3.54545 1.37847 0
M  V30 7540 H 708.005 4.56497 2.01026 0
M  V30 7541 H 707.159 4.23642 4.34295 0
M  V30 7542 H 705.898 3.11935 3.74897 0
M  V30 7543 H 704.903 4.96299 2.36574 0
M  V30 7544 H 706.128 6.09766 2.98935 0
M  V30 7545 H 704.074 4.60876 4.66829 0
M  V30 7546 H 703.991 6.27849 4.2112 0
M  V30 7547 H 705.259 5.74155 5.27225 0
M  V30 7548 N 709.488 -0.375779 1.53054 0
M  V30 7549 C 710.728 -1.12828 1.70438 0
M  V30 7550 C 711.092 -1.86854 0.441527 0
M  V30 7551 O 712.293 -2.64261 0.491908 0
M  V30 7552 C 710.564 -2.07009 2.91345 0
M  V30 7553 S 712.123 -2.89917 3.29383 0
M  V30 7554 H 708.941 -0.381736 0.599832 0
M  V30 7555 H 711.543 -0.4109 1.91133 0
M  V30 7556 H 710.247 -1.51371 3.81464 0
M  V30 7557 H 709.778 -2.83236 2.73022 0
M  V30 7558 H 711.793 -4.0924 2.80601 0
M  V30 7559 N 710.966 -1.44241 -0.634997 0
M  V30 7560 C 711.913 -1.5081 -1.74714 0
M  V30 7561 C 712.883 -0.356147 -1.62237 0
M  V30 7562 O 714.068 -0.565848 -1.82216 0
M  V30 7563 C 711.208 -1.45458 -3.12947 0
M  V30 7564 C 710.321 -2.70998 -3.36428 0
M  V30 7565 C 709.456 -2.57507 -4.64611 0
M  V30 7566 C 708.495 -3.78229 -4.81258 0
M  V30 7567 N 707.632 -3.63438 -6.00714 0
M  V30 7568 H 712.472 -2.45832 -1.68436 0
M  V30 7569 H 710.009 -1.2201 -0.821706 0
M  V30 7570 H 711.967 -1.40347 -3.92885 0
M  V30 7571 H 710.597 -0.540058 -3.1825 0
M  V30 7572 H 709.649 -2.86312 -2.50458 0
M  V30 7573 H 710.961 -3.60619 -3.44609 0
M  V30 7574 H 710.115 -2.50207 -5.52703 0
M  V30 7575 H 708.854 -1.65441 -4.58782 0
M  V30 7576 H 707.859 -3.85918 -3.91596 0
M  V30 7577 H 709.084 -4.71327 -4.88904 0
M  V30 7578 H 707.03 -2.7412 -5.95982 0
M  V30 7579 H 706.947 -4.46672 -6.09934 0
M  V30 7580 H 708.215 -3.60022 -6.91378 0
M  V30 7581 N 712.444 0.87505 -1.31075 0
M  V30 7582 C 713.392 2.00317 -1.18219 0
M  V30 7583 C 714.386 1.69152 -0.0916872 0
M  V30 7584 O 715.592 1.7821 -0.253229 0
M  V30 7585 H 711.967 0.656981 -0.365895 0
M  V30 7586 H 713.938 2.08293 -2.13674 0
M  V30 7587 C 712.687 3.35821 -0.901095 0
M  V30 7588 H 712.01 3.6032 -1.73233 0
M  V30 7589 H 713.45 4.15366 -0.851295 0
M  V30 7590 C 711.909 3.34563 0.396114 0
M  V30 7591 O 712.439 3.75971 1.41452 0
M  V30 7592 N 710.645 2.87681 0.410832 0
M  V30 7593 H 710.192 2.54179 -0.418415 0
M  V30 7594 H 710.15 2.87223 1.27869 0
M  V30 7595 N 713.922 1.13953 1.08869 0
M  V30 7596 C 715.168 0.906151 1.8143 0
M  V30 7597 C 715.501 -0.566089 1.85766 0
M  V30 7598 O 714.776 -1.41915 1.33006 0
M  V30 7599 C 715.059 1.50183 3.27287 0
M  V30 7600 C 714.912 3.04359 3.31189 0
M  V30 7601 C 716.231 1.17477 4.24131 0
M  V30 7602 H 713.35 0.330624 0.658678 0
M  V30 7603 H 715.992 1.40873 1.27495 0
M  V30 7604 H 714.142 1.07442 3.73348 0
M  V30 7605 H 715.814 3.55896 2.93488 0
M  V30 7606 H 714.057 3.39053 2.70602 0
M  V30 7607 H 714.728 3.41141 4.33966 0
M  V30 7608 H 717.204 1.5442 3.86385 0
M  V30 7609 H 716.08 1.61795 5.24513 0
M  V30 7610 H 716.341 0.0893312 4.4201 0
M  V30 7611 N 715.4 -1.26948 0.933913 0
M  V30 7612 C 716.646 -1.94374 0.57848 0
M  V30 7613 C 716.979 -1.73166 -0.879048 0
M  V30 7614 O 716.254 -1.06438 -1.62792 0
M  V30 7615 C 716.537 -3.4834 0.912739 0
M  V30 7616 C 716.39 -3.78866 2.42448 0
M  V30 7617 C 717.709 -4.38062 0.423003 0
M  V30 7618 H 714.828 -0.705959 0.211639 0
M  V30 7619 H 717.47 -1.49951 1.16682 0
M  V30 7620 H 715.62 -3.86309 0.412058 0
M  V30 7621 H 717.292 -3.50654 2.99733 0
M  V30 7622 H 715.535 -3.25198 2.87104 0
M  V30 7623 H 716.206 -4.86458 2.60887 0
M  V30 7624 H 718.682 -4.0728 0.852191 0
M  V30 7625 H 717.558 -5.44599 0.685776 0
M  V30 7626 H 717.819 -4.36886 -0.676994 0
M  V30 7627 N 716.879 -0.700114 -1.41195 0
M  V30 7628 C 718.29 -0.307249 -1.84154 0
M  V30 7629 C 718.641 1.15539 -1.58572 0
M  V30 7630 O 717.766 1.88744 -1.05852 0
M  V30 7631 C 718.361 -0.550872 -3.34292 0
M  V30 7632 C 716.92 -0.211877 -3.75803 0
M  V30 7633 C 716.067 -0.830915 -2.64558 0
M  V30 7634 H 719.018 -0.900431 -1.30683 0
M  V30 7635 H 719.039 0.188954 -3.80031 0
M  V30 7636 H 718.551 -1.61548 -3.5288 0
M  V30 7637 H 716.652 0.848283 -3.62815 0
M  V30 7638 H 716.765 -0.67007 -4.74391 0
M  V30 7639 H 715.129 -0.260155 -2.53368 0
M  V30 7640 H 715.912 -1.89948 -2.85963 0
M  V30 7641 N 718.357 1.51182 -0.445186 0
M  V30 7642 C 719.603 2.02452 0.11882 0
M  V30 7643 C 719.936 1.32824 1.41673 0
M  V30 7644 O 719.211 0.445637 1.89326 0
M  V30 7645 C 719.494 3.5859 0.329475 0
M  V30 7646 C 719.347 4.38823 -0.987638 0
M  V30 7647 C 720.666 4.26241 1.09575 0
M  V30 7648 H 717.785 0.735819 0.0417092 0
M  V30 7649 H 720.427 1.80747 -0.585718 0
M  V30 7650 H 718.577 3.77214 0.9296 0
M  V30 7651 H 720.249 4.3183 -1.62235 0
M  V30 7652 H 718.492 4.03594 -1.59041 0
M  V30 7653 H 719.163 5.46257 -0.794192 0
M  V30 7654 H 721.639 4.11934 0.587328 0
M  V30 7655 H 720.515 5.35354 1.21191 0
M  V30 7656 H 720.776 3.87635 2.12584 0
M  V30 7657 N 719.835 0.176821 1.56605 0
M  V30 7658 C 721.065 -0.472142 2.01133 0
M  V30 7659 C 721.473 -1.56979 1.05614 0
M  V30 7660 O 720.816 -1.83632 0.0500137 0
M  V30 7661 C 720.878 -1.10547 3.42081 0
M  V30 7662 C 720.542 -0.148806 4.56758 0
M  V30 7663 C 721.539 0.634939 5.16008 0
M  V30 7664 C 719.224 -0.0430325 5.02282 0
M  V30 7665 C 721.218 1.5116 6.19217 0
M  V30 7666 C 718.905 0.83721 6.05338 0
M  V30 7667 C 719.903 1.61311 6.63677 0
M  V30 7668 O 719.591 2.47863 7.64735 0
M  V30 7669 H 719.323 -0.124725 0.664394 0
M  V30 7670 H 721.877 0.277329 2.03519 0
M  V30 7671 H 720.107 -1.90318 3.36625 0
M  V30 7672 H 721.796 -1.6572 3.70529 0
M  V30 7673 H 722.562 0.563424 4.81716 0
M  V30 7674 H 718.441 -0.636753 4.56581 0
M  V30 7675 H 721.985 2.11767 6.64681 0
M  V30 7676 H 717.882 0.909908 6.39055 0
M  V30 7677 H 718.65 2.4144 7.8208 0
M  V30 7678 N 721.313 -1.57302 -0.09688 0
M  V30 7679 C 722.59 -1.7701 -0.832272 0
M  V30 7680 C 722.97 -0.758025 -1.97021 0
M  V30 7681 O 722.318 0.213824 -2.27497 0
M  V30 7682 C 722.528 -3.22725 -1.32851 0
M  V30 7683 C 723.876 -3.85856 -1.772 0
M  V30 7684 O 724.9 -3.26464 -1.42478 0
M  V30 7685 O 723.759 -4.90295 -2.41398 0
M  V30 7686 H 720.853 -0.725558 -0.396856 0
M  V30 7687 H 723.399 -1.69516 -0.0789005 0
M  V30 7688 H 722.171 -3.87921 -0.51312 0
M  V30 7689 H 721.794 -3.34845 -2.14394 0
M  V30 7690 N 722.791 0.367657 -1.53252 0
M  V30 7691 C 723.721 1.45632 -1.8252 0
M  V30 7692 C 724.702 1.55979 -0.678568 0
M  V30 7693 O 725.887 1.70581 -0.928217 0
M  V30 7694 C 723.017 2.82994 -2.01325 0
M  V30 7695 C 721.971 2.87473 -3.17086 0
M  V30 7696 C 721.297 4.2749 -3.21179 0
M  V30 7697 C 722.597 2.55182 -4.55719 0
M  V30 7698 H 724.291 1.21387 -2.73689 0
M  V30 7699 H 721.837 0.58251 -1.31692 0
M  V30 7700 H 723.79 3.59179 -2.20383 0
M  V30 7701 H 722.514 3.08622 -1.06864 0
M  V30 7702 H 721.173 2.13739 -2.97844 0
M  V30 7703 H 720.821 4.5019 -2.24361 0
M  V30 7704 H 720.521 4.31403 -3.98955 0
M  V30 7705 H 722.045 5.0555 -3.42419 0
M  V30 7706 H 723.459 3.21081 -4.74953 0
M  V30 7707 H 721.856 2.70414 -5.3572 0
M  V30 7708 H 722.926 1.5044 -4.60973 0
M  V30 7709 N 724.269 1.44576 0.627338 0
M  V30 7710 C 725.199 1.54562 1.75022 0
M  V30 7711 C 726.18 0.398378 1.65369 0
M  V30 7712 O 727.365 0.61899 1.84071 0
M  V30 7713 C 724.495 1.49309 3.13567 0
M  V30 7714 C 723.449 2.62549 3.38012 0
M  V30 7715 C 722.775 2.42348 4.76625 0
M  V30 7716 C 724.075 4.04678 3.30202 0
M  V30 7717 H 725.769 2.4855 1.66922 0
M  V30 7718 H 723.315 1.19624 0.801636 0
M  V30 7719 H 725.268 1.54895 3.919 0
M  V30 7720 H 723.992 0.518392 3.2246 0
M  V30 7721 H 722.651 2.56358 2.62061 0
M  V30 7722 H 722.299 1.43062 4.82226 0
M  V30 7723 H 721.999 3.18273 4.93939 0
M  V30 7724 H 723.523 2.49758 5.57183 0
M  V30 7725 H 724.937 4.12217 3.98435 0
M  V30 7726 H 723.334 4.80836 3.5905 0
M  V30 7727 H 724.404 4.2798 2.27949 0
M  V30 7728 N 725.747 -0.868086 1.31537 0
M  V30 7729 C 726.677 -1.99131 1.21939 0
M  V30 7730 C 727.658 -1.69768 0.106166 0
M  V30 7731 O 728.843 -1.92006 0.291081 0
M  V30 7732 C 725.973 -3.34676 0.927879 0
M  V30 7733 C 724.927 -3.7835 2.00088 0
M  V30 7734 C 724.253 -5.11375 1.56203 0
M  V30 7735 C 725.553 -3.95256 3.41424 0
M  V30 7736 H 727.247 -2.07419 2.15911 0
M  V30 7737 H 724.793 -0.996569 1.03945 0
M  V30 7738 H 726.746 -4.12793 0.847327 0
M  V30 7739 H 725.47 -3.26565 -0.0475042 0
M  V30 7740 H 724.129 -3.02474 2.07135 0
M  V30 7741 H 723.777 -4.99709 0.57445 0
M  V30 7742 H 723.477 -5.41568 2.27985 0
M  V30 7743 H 725.001 -5.92001 1.49558 0
M  V30 7744 H 726.415 -4.63764 3.3704 0
M  V30 7745 H 724.812 -4.36849 4.1144 0
M  V30 7746 H 725.882 -2.98579 3.82072 0
M  V30 7747 N 727.225 -1.14528 -1.08264 0
M  V30 7748 C 728.135 -0.84728 -2.18765 0
M  V30 7749 C 729.151 0.172826 -1.7314 0
M  V30 7750 O 730.327 0.000985336 -2.014 0
M  V30 7751 C 727.392 -0.330633 -3.4512 0
M  V30 7752 C 726.453 -1.41348 -4.05363 0
M  V30 7753 C 725.686 -0.921387 -5.25686 0
M  V30 7754 O 725.909 0.236587 -5.69909 0
M  V30 7755 O 724.843 -1.70101 -5.77364 0
M  V30 7756 H 728.669 -1.7708 -2.46731 0
M  V30 7757 H 726.254 -0.923661 -1.17426 0
M  V30 7758 H 728.136 -0.0485053 -4.21372 0
M  V30 7759 H 726.811 0.565147 -3.18728 0
M  V30 7760 H 725.718 -1.74908 -3.30693 0
M  V30 7761 H 727.051 -2.28383 -4.36007 0
M  V30 7762 N 728.703 1.26451 -0.940633 0
M  V30 7763 C 729.636 2.24771 -0.394094 0
M  V30 7764 C 730.614 1.54169 0.516781 0
M  V30 7765 O 731.798 1.82942 0.454352 0
M  V30 7766 C 728.925 3.3591 0.433807 0
M  V30 7767 C 727.971 4.24472 -0.415464 0
M  V30 7768 S 728.804 5.0293 -1.83907 0
M  V30 7769 C 729.96 6.17546 -1.01921 0
M  V30 7770 H 730.193 2.70782 -1.22737 0
M  V30 7771 H 727.726 1.35308 -0.743709 0
M  V30 7772 H 729.684 4.00387 0.905576 0
M  V30 7773 H 728.345 2.88512 1.24175 0
M  V30 7774 H 727.538 5.03525 0.218833 0
M  V30 7775 H 727.14 3.64857 -0.821897 0
M  V30 7776 H 729.432 6.76996 -0.261227 0
M  V30 7777 H 730.375 6.8528 -1.78318 0
M  V30 7778 H 730.783 5.6176 -0.555511 0
M  V30 7779 N 730.181 0.707592 1.40822 0
M  V30 7780 C 731.111 0.0644925 2.33411 0
M  V30 7781 C 732.092 -0.754205 1.52466 0
M  V30 7782 O 733.277 -0.704749 1.80961 0
M  V30 7783 C 730.407 -0.863865 3.36385 0
M  V30 7784 C 729.361 -0.15138 4.27732 0
M  V30 7785 C 728.687 -1.19491 5.21177 0
M  V30 7786 C 729.987 0.989607 5.12839 0
M  V30 7787 H 731.681 0.837829 2.87438 0
M  V30 7788 H 729.227 0.404346 1.38207 0
M  V30 7789 H 731.18 -1.32309 4.0009 0
M  V30 7790 H 729.904 -1.66901 2.80734 0
M  V30 7791 H 728.563 0.287937 3.65467 0
M  V30 7792 H 728.211 -1.9929 4.61836 0
M  V30 7793 H 727.911 -0.723123 5.83134 0
M  V30 7794 H 729.435 -1.6544 5.8776 0
M  V30 7795 H 730.849 0.610114 5.70044 0
M  V30 7796 H 729.246 1.38926 5.83798 0
M  V30 7797 H 730.316 1.82389 4.49291 0
M  V30 7798 N 731.66 -1.50943 0.453197 0
M  V30 7799 C 732.608 -2.29728 -0.364419 0
M  V30 7800 C 733.602 -1.36246 -1.00664 0
M  V30 7801 O 734.808 -1.53518 -0.939794 0
M  V30 7802 H 731.183 -0.739536 -0.136347 0
M  V30 7803 H 733.154 -2.96672 0.320696 0
M  V30 7804 C 731.903 -3.1629 -1.44415 0
M  V30 7805 H 731.226 -3.88119 -0.959343 0
M  V30 7806 H 732.666 -3.74444 -1.98917 0
M  V30 7807 C 731.125 -2.32702 -2.43622 0
M  V30 7808 O 731.655 -1.99763 -3.48508 0
M  V30 7809 N 729.861 -1.95621 -2.14897 0
M  V30 7810 H 729.408 -2.22607 -1.29629 0
M  V30 7811 H 729.366 -1.39993 -2.81513 0
M  V30 7812 N 733.138 -0.185124 -1.56509 0
M  V30 7813 C 734.101 0.72591 -2.17401 0
M  V30 7814 C 735.101 1.14819 -1.12575 0
M  V30 7815 O 736.291 1.0629 -1.38015 0
M  V30 7816 C 733.423 1.98979 -2.76803 0
M  V30 7817 H 734.616 0.195588 -2.99262 0
M  V30 7818 H 732.169 0.0644772 -1.56167 0
M  V30 7819 H 732.904 2.56287 -1.98714 0
M  V30 7820 H 732.689 1.69583 -3.53531 0
M  V30 7821 H 734.179 2.63966 -3.23592 0
M  V30 7822 N 734.616 1.57351 0.0885366 0
M  V30 7823 C 735.566 1.98963 1.11346 0
M  V30 7824 C 736.55 0.869065 1.35411 0
M  V30 7825 O 737.742 1.13292 1.35992 0
M  V30 7826 C 734.871 2.4231 2.43189 0
M  V30 7827 C 733.957 3.61065 2.22469 0
M  V30 7828 N 734.348 4.75789 1.71635 0
M  V30 7829 C 732.646 3.6729 2.5301 0
M  V30 7830 C 733.347 5.57708 1.65339 0
M  V30 7831 N 732.323 5.01067 2.1079 0
M  V30 7832 H 736.125 2.85109 0.713465 0
M  V30 7833 H 733.639 1.59682 0.295868 0
M  V30 7834 H 735.636 2.70352 3.17357 0
M  V30 7835 H 734.296 1.57544 2.83919 0
M  V30 7836 H 735.307 4.98411 1.40738 0
M  V30 7837 H 731.984 2.932 2.9722 0
M  V30 7838 H 733.374 6.59782 1.27031 0
M  V30 7839 N 736.094 -0.359525 1.53444 0
M  V30 7840 C 737.34 -1.10315 1.70172 0
M  V30 7841 C 737.673 -1.88788 0.455287 0
M  V30 7842 O 736.948 -1.86635 -0.547514 0
M  V30 7843 C 737.231 -2.05744 2.95536 0
M  V30 7844 C 737.084 -1.3084 4.3035 0
M  V30 7845 C 738.403 -3.05784 3.16518 0
M  V30 7846 H 735.522 -0.399662 0.619225 0
M  V30 7847 H 738.164 -0.383338 1.86093 0
M  V30 7848 H 736.314 -2.67125 2.82093 0
M  V30 7849 H 737.986 -0.721959 4.55615 0
M  V30 7850 H 736.229 -0.610283 4.29486 0
M  V30 7851 H 736.9 -2.00718 5.14214 0
M  V30 7852 H 739.376 -2.5451 3.29187 0
M  V30 7853 H 738.252 -3.69772 4.05659 0
M  V30 7854 H 738.513 -3.76289 2.32076 0
M  V30 7855 N 737.572 -1.44907 -0.619662 0
M  V30 7856 C 738.502 -1.55488 -1.742 0
M  V30 7857 C 739.483 -0.407143 -1.65156 0
M  V30 7858 O 740.668 -0.628743 -1.8374 0
M  V30 7859 C 737.798 -1.5097 -3.1277 0
M  V30 7860 C 736.752 -2.64337 -3.36615 0
M  V30 7861 C 736.078 -2.44872 -4.75333 0
M  V30 7862 C 737.378 -4.06423 -3.28051 0
M  V30 7863 H 739.072 -2.49432 -1.65602 0
M  V30 7864 H 736.618 -1.20047 -0.795281 0
M  V30 7865 H 738.571 -1.56971 -3.91073 0
M  V30 7866 H 737.295 -0.535486 -3.2218 0
M  V30 7867 H 735.954 -2.57744 -2.60698 0
M  V30 7868 H 735.602 -1.45617 -4.81461 0
M  V30 7869 H 735.302 -3.20888 -4.92244 0
M  V30 7870 H 736.826 -2.52709 -5.55851 0
M  V30 7871 H 738.24 -4.14324 -3.96243 0
M  V30 7872 H 736.637 -4.82733 -3.56495 0
M  V30 7873 H 737.707 -4.29183 -2.25676 0
M  V30 7874 N 739.05 0.861098 -1.31996 0
M  V30 7875 C 740.466 1.14827 -1.10846 0
M  V30 7876 C 740.666 2.0117 0.11528 0
M  V30 7877 O 739.722 2.39423 0.802048 0
M  V30 7878 C 741.035 1.83183 -2.38462 0
M  V30 7879 C 742.583 1.95847 -2.44158 0
M  V30 7880 C 743.058 2.67617 -3.71679 0
M  V30 7881 N 744.549 2.75147 -3.72624 0
M  V30 7882 C 745.284 3.31314 -4.67994 0
M  V30 7883 N 744.78 3.88343 -5.73726 0
M  V30 7884 N 746.573 3.29356 -4.55501 0
M  V30 7885 H 738.724 0.285951 -2.10466 0
M  V30 7886 H 740.987 0.189303 -0.928907 0
M  V30 7887 H 740.693 1.27193 -3.27895 0
M  V30 7888 H 740.567 2.83393 -2.48935 0
M  V30 7889 H 742.954 2.50999 -1.55189 0
M  V30 7890 H 743.035 0.94653 -2.37644 0
M  V30 7891 H 742.679 2.13131 -4.61018 0
M  V30 7892 H 742.609 3.69237 -3.75462 0
M  V30 7893 H 745.1 2.34682 -2.96197 0
M  V30 7894 H 745.413 4.29338 -6.42564 0
M  V30 7895 H 743.758 3.86693 -5.77489 0
M  V30 7896 H 746.949 2.84047 -3.72069 0
M  V30 7897 H 747.122 3.7283 -5.30001 0
M  V30 7898 N 740.528 1.15101 1.07655 0
M  V30 7899 C 741.776 0.922149 1.79836 0
M  V30 7900 C 742.097 -0.552346 1.87014 0
M  V30 7901 O 741.367 -1.40145 1.3688 0
M  V30 7902 H 739.947 0.338182 0.666064 0
M  V30 7903 H 742.609 1.45107 1.30115 0
M  V30 7904 H 741.705 1.32883 2.82398 0
M  V30 7905 N 742.006 -1.2595 0.947325 0
M  V30 7906 C 743.246 -1.95218 0.605743 0
M  V30 7907 C 743.61 -1.72624 -0.84054 0
M  V30 7908 O 744.811 -2.35748 -1.29136 0
M  V30 7909 C 743.082 -3.44654 0.94596 0
M  V30 7910 S 744.641 -4.32922 0.715849 0
M  V30 7911 H 741.459 -0.675159 0.222894 0
M  V30 7912 H 744.061 -1.52766 1.21995 0
M  V30 7913 H 742.765 -3.586 1.99585 0
M  V30 7914 H 742.296 -3.92082 0.321718 0
M  V30 7915 H 744.311 -4.94445 -0.416959 0
M  V30 7916 N 743.484 -0.715051 -1.40445 0
M  V30 7917 C 744.431 -0.0621393 -2.30716 0
M  V30 7918 C 745.401 0.750871 -1.48159 0
M  V30 7919 O 746.586 0.714928 -1.76899 0
M  V30 7920 C 743.726 0.854036 -3.34365 0
M  V30 7921 C 742.839 0.0305565 -4.31989 0
M  V30 7922 C 741.974 0.946162 -5.22706 0
M  V30 7923 C 741.013 0.116741 -6.11989 0
M  V30 7924 N 740.15 0.987194 -6.95125 0
M  V30 7925 H 744.99 -0.83764 -2.85985 0
M  V30 7926 H 742.527 -0.424759 -1.40834 0
M  V30 7927 H 744.485 1.39946 -3.93028 0
M  V30 7928 H 743.115 1.59572 -2.806 0
M  V30 7929 H 742.167 -0.632044 -3.75112 0
M  V30 7930 H 743.479 -0.611615 -4.95036 0
M  V30 7931 H 742.633 1.56014 -5.86297 0
M  V30 7932 H 741.372 1.62216 -4.59932 0
M  V30 7933 H 740.377 -0.510176 -5.47428 0
M  V30 7934 H 741.602 -0.555742 -6.76822 0
M  V30 7935 H 739.548 1.64885 -6.3494 0
M  V30 7936 H 739.465 0.401046 -7.54936 0
M  V30 7937 H 740.733 1.58737 -7.63166 0
M  V30 7938 N 744.962 1.50701 -0.461195 0
M  V30 7939 C 746.187 2.07171 0.0974773 0
M  V30 7940 C 746.612 1.32391 1.3362 0
M  V30 7941 O 745.97 0.368676 1.77512 0
M  V30 7942 C 746.018 3.58651 0.374409 0
M  V30 7943 O 745.122 3.85816 1.4567 0
M  V30 7944 H 744.463 0.663944 -0.00862047 0
M  V30 7945 H 746.993 1.94021 -0.649394 0
M  V30 7946 H 747.003 4.03295 0.617843 0
M  V30 7947 H 745.678 4.12498 -0.530829 0
M  V30 7948 H 744.255 3.53018 1.20136 0
M  V30 7949 N 746.441 0.193421 1.56409 0
M  V30 7950 C 747.666 -0.454552 2.02358 0
M  V30 7951 C 748.091 -1.54516 1.07268 0
M  V30 7952 O 747.449 -1.81214 0.0558962 0
M  V30 7953 C 747.497 -0.989469 3.46759 0
M  V30 7954 O 746.601 -2.10244 3.54783 0
M  V30 7955 H 745.942 -0.106417 0.655417 0
M  V30 7956 H 748.472 0.303807 2.02332 0
M  V30 7957 H 748.482 -1.30649 3.86516 0
M  V30 7958 H 747.157 -0.191083 4.15461 0
M  V30 7959 H 745.734 -1.79419 3.26899 0
M  V30 7960 N 747.919 -1.57396 -0.0801906 0
M  V30 7961 C 749.168 -1.8602 -0.779702 0
M  V30 7962 C 749.481 -0.784864 -1.79163 0
M  V30 7963 O 750.687 -0.958691 -2.54011 0
M  V30 7964 C 749.143 -3.29942 -1.43758 0
M  V30 7965 C 748.751 -4.45584 -0.464654 0
M  V30 7966 C 750.495 -3.67775 -2.11995 0
M  V30 7967 C 748.402 -5.80544 -1.12797 0
M  V30 7968 H 747.332 -0.69392 -0.294943 0
M  V30 7969 H 749.983 -1.83471 -0.0328527 0
M  V30 7970 H 748.365 -3.27078 -2.2324 0
M  V30 7971 H 749.539 -4.59824 0.299749 0
M  V30 7972 H 747.854 -4.16247 0.112813 0
M  V30 7973 H 750.451 -4.65896 -2.62383 0
M  V30 7974 H 750.794 -2.9715 -2.91561 0
M  V30 7975 H 751.327 -3.72593 -1.39354 0
M  V30 7976 H 748.066 -6.54439 -0.372807 0
M  V30 7977 H 747.586 -5.70119 -1.86344 0
M  V30 7978 H 749.265 -6.25602 -1.6502 0
M  V30 7979 N 749.397 0.351382 -1.53633 0
M  V30 7980 C 750.625 1.11275 -1.74429 0
M  V30 7981 C 751.04 1.82602 -0.479798 0
M  V30 7982 O 750.397 1.74074 0.548125 0
M  V30 7983 C 750.448 2.13223 -2.91921 0
M  V30 7984 O 750.169 1.44798 -4.13479 0
M  V30 7985 C 751.67 3.01797 -3.24706 0
M  V30 7986 H 748.89 0.332153 -0.583023 0
M  V30 7987 H 751.434 0.405974 -2.0043 0
M  V30 7988 H 749.589 2.79477 -2.68274 0
M  V30 7989 H 750.003 2.12839 -4.79374 0
M  V30 7990 H 751.477 3.69282 -4.10286 0
M  V30 7991 H 751.954 3.67387 -2.40673 0
M  V30 7992 H 752.56 2.41141 -3.5033 0
M  V30 7993 N 750.875 1.45233 0.611969 0
M  V30 7994 C 752.123 1.48727 1.36838 0
M  V30 7995 C 752.444 0.128616 1.94575 0
M  V30 7996 O 751.714 -0.84149 1.76906 0
M  V30 7997 H 750.294 0.547695 0.507976 0
M  V30 7998 H 752.956 1.81156 0.718925 0
M  V30 7999 H 752.052 2.2236 2.19003 0
M  V30 8000 N 752.353 -0.854086 1.3245 0
M  V30 8001 C 753.578 -1.64597 1.26185 0
M  V30 8002 C 754.003 -1.87357 -0.167074 0
M  V30 8003 O 753.361 -1.42675 -1.11864 0
M  V30 8004 C 753.409 -2.98213 2.02734 0
M  V30 8005 O 752.513 -3.88784 1.37554 0
M  V30 8006 H 751.854 -0.50179 0.434859 0
M  V30 8007 H 754.384 -1.06372 1.74775 0
M  V30 8008 H 754.394 -3.4803 2.1293 0
M  V30 8009 H 753.069 -2.80969 3.06642 0
M  V30 8010 H 751.646 -3.4725 1.3591 0
M  V30 8011 N 753.831 -1.1567 -1.07043 0
M  V30 8012 C 754.741 -0.870435 -2.17855 0
M  V30 8013 C 755.757 0.154452 -1.73313 0
M  V30 8014 O 756.933 -0.0203759 -2.0139 0
M  V30 8015 C 753.998 -0.367219 -3.4475 0
M  V30 8016 C 753.059 -1.45639 -4.03841 0
M  V30 8017 C 752.292 -0.977092 -5.2468 0
M  V30 8018 O 752.515 0.176127 -5.70128 0
M  V30 8019 O 751.449 -1.76215 -5.75527 0
M  V30 8020 H 755.275 -1.79687 -2.44839 0
M  V30 8021 H 752.86 -0.936064 -1.1644 0
M  V30 8022 H 754.742 -0.0931947 -4.21297 0
M  V30 8023 H 753.417 0.53131 -3.1931 0
M  V30 8024 H 752.324 -1.78406 -3.28819 0
M  V30 8025 H 753.657 -2.32995 -4.3356 0
M  V30 8026 N 755.309 1.25446 -0.953992 0
M  V30 8027 C 756.549 1.94894 -0.616087 0
M  V30 8028 C 756.913 1.73067 0.831374 0
M  V30 8029 O 758.114 2.3643 1.27884 0
M  V30 8030 C 756.385 3.44147 -0.964225 0
M  V30 8031 S 757.944 4.32536 -0.738798 0
M  V30 8032 H 754.762 0.673967 -0.226472 0
M  V30 8033 H 757.364 1.52117 -1.22803 0
M  V30 8034 H 756.068 3.57537 -2.01484 0
M  V30 8035 H 755.599 3.91906 -0.342507 0
M  V30 8036 H 757.614 4.94659 0.390732 0
M  V30 8037 N 756.787 0.722489 1.40064 0
M  V30 8038 C 758.012 0.273446 2.05589 0
M  V30 8039 C 758.437 -1.07875 1.54093 0
M  V30 8040 O 757.795 -1.68095 0.679252 0
M  V30 8041 C 757.843 0.271023 3.5958 0
M  V30 8042 O 756.947 -0.745499 4.05606 0
M  V30 8043 H 756.288 0.126856 0.65177 0
M  V30 8044 H 758.818 0.984906 1.79334 0
M  V30 8045 H 758.828 0.111084 4.07849 0
M  V30 8046 H 757.503 1.25776 3.96425 0
M  V30 8047 H 756.08 -0.552719 3.68781 0
M  V30 8048 N 758.265 -1.50454 0.469181 0
M  V30 8049 C 759.676 -1.86695 0.0136034 0
M  V30 8050 C 760.027 -1.38413 -1.39055 0
M  V30 8051 O 759.152 -0.748294 -2.03051 0
M  V30 8052 C 759.747 -3.38795 0.0179098 0
M  V30 8053 C 758.306 -3.74455 -0.382191 0
M  V30 8054 C 757.453 -2.74338 0.404207 0
M  V30 8055 H 760.404 -1.43225 0.683547 0
M  V30 8056 H 760.425 -3.72321 -0.78468 0
M  V30 8057 H 759.937 -3.73906 1.04 0
M  V30 8058 H 758.038 -3.44944 -1.4087 0
M  V30 8059 H 758.151 -4.79025 -0.084862 0
M  V30 8060 H 756.515 -2.54305 -0.141829 0
M  V30 8061 H 757.298 -3.12293 1.42577 0
M  V30 8062 N 759.743 -0.201713 -1.56304 0
M  V30 8063 C 760.706 0.702811 -2.18159 0
M  V30 8064 C 761.706 1.13619 -1.13787 0
M  V30 8065 O 762.896 1.0482 -1.39134 0
M  V30 8066 C 760.028 1.96032 -2.78898 0
M  V30 8067 H 761.221 0.163836 -2.99452 0
M  V30 8068 H 758.774 0.04791 -1.56227 0
M  V30 8069 H 759.509 2.54165 -2.01421 0
M  V30 8070 H 759.294 1.65824 -3.55309 0
M  V30 8071 H 760.784 2.60519 -3.26373 0
M  V30 8072 N 761.222 1.57436 0.0718424 0
M  V30 8073 C 762.132 2.07039 1.10326 0
M  V30 8074 C 763.148 0.999918 1.424 0
M  V30 8075 O 764.324 1.31462 1.52577 0
M  V30 8076 C 761.389 2.50439 2.39752 0
M  V30 8077 C 760.45 3.71784 2.14651 0
M  V30 8078 C 759.683 4.13104 3.37906 0
M  V30 8079 O 759.906 3.54298 4.47023 0
M  V30 8080 O 758.84 5.05894 3.26121 0
M  V30 8081 H 762.666 2.95239 0.711872 0
M  V30 8082 H 760.251 1.46638 0.28597 0
M  V30 8083 H 762.133 2.78876 3.15921 0
M  V30 8084 H 760.808 1.65368 2.78271 0
M  V30 8085 H 759.715 3.48431 1.36187 0
M  V30 8086 H 761.048 4.57707 1.81012 0
M  V30 8087 N 762.7 -0.34323 1.53817 0
M  V30 8088 C 763.977 -1.10047 1.61706 0
M  V30 8089 C 764.357 -2.06495 0.438514 0
M  V30 8090 O 763.705 -2.21297 -0.569188 0
M  V30 8091 C 763.915 -1.81985 2.97796 0
M  V30 8092 C 765.263 -2.35717 3.53161 0
M  V30 8093 O 766.287 -1.9208 2.99973 0
M  V30 8094 O 765.146 -3.15551 4.46195 0
M  V30 8095 H 762.24 -0.506096 0.654061 0
M  V30 8096 H 764.786 -0.344697 1.66162 0
M  V30 8097 H 763.558 -1.11722 3.75012 0
M  V30 8098 H 763.181 -2.64419 2.96931 0
M  V30 8099 N 764.178 -1.45556 -0.604258 0
M  V30 8100 C 765.403 -1.53509 -1.39462 0
M  V30 8101 C 765.828 -0.169638 -1.87333 0
M  V30 8102 O 765.186 0.846346 -1.60333 0
M  V30 8103 C 765.234 -2.52654 -2.5729 0
M  V30 8104 O 764.338 -2.04666 -3.5803 0
M  V30 8105 H 763.679 -0.517355 -0.416221 0
M  V30 8106 H 766.209 -1.90939 -0.735072 0
M  V30 8107 H 766.219 -2.71568 -3.04491 0
M  V30 8108 H 764.894 -3.51823 -2.21797 0
M  V30 8109 H 763.471 -1.95643 -3.17456 0
M  V30 8110 N 765.656 0.84705 -1.32902 0
M  V30 8111 C 766.603 1.95624 -1.22473 0
M  V30 8112 C 767.573 1.65767 -0.105178 0
M  V30 8113 O 768.758 1.88704 -0.282042 0
M  V30 8114 C 765.898 3.31434 -0.961542 0
M  V30 8115 C 765.011 3.73741 -2.1666 0
M  V30 8116 C 764.146 4.98379 -1.83825 0
M  V30 8117 C 763.185 5.33199 -3.00609 0
M  V30 8118 N 762.322 6.49014 -2.67816 0
M  V30 8119 H 767.162 2.03875 -2.17345 0
M  V30 8120 H 764.699 0.997764 -1.08088 0
M  V30 8121 H 766.657 4.09663 -0.789411 0
M  V30 8122 H 765.287 3.22762 -0.0495938 0
M  V30 8123 H 764.339 2.91102 -2.44875 0
M  V30 8124 H 765.651 3.95462 -3.03993 0
M  V30 8125 H 764.805 5.84336 -1.63208 0
M  V30 8126 H 763.544 4.78611 -0.937172 0
M  V30 8127 H 762.549 4.4575 -3.21849 0
M  V30 8128 H 763.774 5.5492 -3.9146 0
M  V30 8129 H 761.72 6.30748 -1.80258 0
M  V30 8130 H 761.637 6.7079 -3.48679 0
M  V30 8131 H 762.905 7.38103 -2.50647 0
M  V30 8132 N 767.134 1.16236 1.06428 0
M  V30 8133 C 768.359 0.967688 1.83441 0
M  V30 8134 C 768.784 -0.479167 1.81894 0
M  V30 8135 O 768.142 -1.34224 1.21875 0
M  V30 8136 C 768.19 1.49806 3.2801 0
M  V30 8137 O 767.294 0.703481 4.06356 0
M  V30 8138 H 766.635 0.344468 0.56766 0
M  V30 8139 H 769.165 1.54442 1.34197 0
M  V30 8140 H 769.175 1.51495 3.78831 0
M  V30 8141 H 767.85 2.55133 3.2845 0
M  V30 8142 H 766.427 0.756986 3.65136 0
M  V30 8143 N 768.612 -1.24939 0.960631 0
M  V30 8144 C 769.559 -2.25658 0.484459 0
M  V30 8145 C 770.529 -1.59422 -0.466242 0
M  V30 8146 O 771.714 -1.87015 -0.378169 0
M  V30 8147 C 768.854 -3.44359 -0.225958 0
M  V30 8148 C 767.967 -4.25214 0.762682 0
M  V30 8149 C 767.102 -5.31192 0.0290931 0
M  V30 8150 C 766.141 -6.03739 1.00827 0
M  V30 8151 N 765.278 -7.01437 0.305155 0
M  V30 8152 H 770.118 -2.65758 1.34821 0
M  V30 8153 H 767.655 -1.30648 0.675983 0
M  V30 8154 H 769.613 -4.12035 -0.654472 0
M  V30 8155 H 768.243 -3.05118 -1.05371 0
M  V30 8156 H 767.295 -3.57144 1.30966 0
M  V30 8157 H 768.607 -4.75406 1.50964 0
M  V30 8158 H 767.761 -6.04971 -0.457763 0
M  V30 8159 H 766.5 -4.81889 -0.750614 0
M  V30 8160 H 765.505 -5.2877 1.50607 0
M  V30 8161 H 766.73 -6.55131 1.7883 0
M  V30 8162 H 764.676 -6.54415 -0.455704 0
M  V30 8163 H 764.593 -7.49475 0.991104 0
M  V30 8164 H 765.861 -7.79336 -0.159966 0
M  V30 8165 N 770.09 -0.729906 -1.39679 0
M  V30 8166 C 771 -0.0880322 -2.34435 0
M  V30 8167 C 772.016 0.727674 -1.58053 0
M  V30 8168 O 773.192 0.657321 -1.90371 0
M  V30 8169 C 770.257 0.812211 -3.37052 0
M  V30 8170 C 769.318 -0.0151681 -4.29297 0
M  V30 8171 C 768.551 0.842202 -5.27013 0
M  V30 8172 O 768.774 2.08108 -5.31081 0
M  V30 8173 O 767.708 0.27357 -6.01278 0
M  V30 8174 H 771.534 -0.869989 -2.90972 0
M  V30 8175 H 769.119 -0.490522 -1.41118 0
M  V30 8176 H 771.001 1.32745 -3.99946 0
M  V30 8177 H 769.676 1.57307 -2.82907 0
M  V30 8178 H 768.583 -0.575811 -3.69642 0
M  V30 8179 H 769.916 -0.738129 -4.86634 0
M  V30 8180 N 771.568 1.50203 -0.477153 0
M  V30 8181 C 772.816 2.01959 0.0755889 0
M  V30 8182 C 773.137 1.3608 1.39668 0
M  V30 8183 O 772.407 0.508136 1.89195 0
M  V30 8184 H 770.987 0.74636 0.0309248 0
M  V30 8185 H 773.649 1.84473 -0.628959 0
M  V30 8186 H 772.745 3.11305 0.222683 0
M  V30 8187 N 773.046 0.209999 1.56195 0
M  V30 8188 C 774.271 -0.433064 2.02828 0
M  V30 8189 C 774.696 -1.5337 1.08901 0
M  V30 8190 O 774.054 -1.81144 0.0751132 0
M  V30 8191 C 774.102 -0.952635 3.47789 0
M  V30 8192 O 773.206 -2.0647 3.56993 0
M  V30 8193 H 772.547 -0.0994594 0.656509 0
M  V30 8194 H 775.077 0.32525 2.01998 0
M  V30 8195 H 775.087 -1.26542 3.8788 0
M  V30 8196 H 773.762 -0.147007 4.1564 0
M  V30 8197 H 772.339 -1.75942 3.28784 0
M  V30 8198 N 774.524 -1.57472 -0.0634922 0
M  V30 8199 C 775.456 -2.00999 -1.10145 0
M  V30 8200 C 776.469 -0.917219 -1.34503 0
M  V30 8201 O 777.658 -1.19501 -1.32596 0
M  V30 8202 C 774.758 -2.34089 -2.45063 0
M  V30 8203 C 773.931 -3.65317 -2.40546 0
M  V30 8204 C 772.99 -3.85982 -3.57637 0
M  V30 8205 O 772.016 -4.5747 -3.38689 0
M  V30 8206 N 773.218 -3.28971 -4.78287 0
M  V30 8207 H 775.983 -2.90656 -0.730714 0
M  V30 8208 H 773.544 -1.59926 -0.252017 0
M  V30 8209 H 775.536 -2.4508 -3.22053 0
M  V30 8210 H 774.106 -1.50279 -2.74107 0
M  V30 8211 H 773.326 -3.65003 -1.48885 0
M  V30 8212 H 774.614 -4.51468 -2.34636 0
M  V30 8213 H 774.012 -2.70962 -4.96584 0
M  V30 8214 H 772.569 -3.45398 -5.5276 0
M  V30 8215 N 776.003 0.335068 -1.53997 0
M  V30 8216 C 776.951 1.43206 -1.83289 0
M  V30 8217 C 777.945 1.54081 -0.703953 0
M  V30 8218 O 779.151 1.56603 -0.887432 0
M  V30 8219 H 775.526 0.477655 -0.580818 0
M  V30 8220 H 777.497 1.15719 -2.75049 0
M  V30 8221 C 776.246 2.79602 -2.06683 0
M  V30 8222 H 775.569 2.72004 -2.93008 0
M  V30 8223 H 777.009 3.55459 -2.31139 0
M  V30 8224 C 775.468 3.25873 -0.854883 0
M  V30 8225 O 775.998 4.01657 -0.0584648 0
M  V30 8226 N 774.204 2.82777 -0.669729 0
M  V30 8227 H 773.751 2.21269 -1.31901 0
M  V30 8228 H 773.709 3.1409 0.13969 0
M  V30 8229 N 777.481 1.45874 0.596531 0
M  V30 8230 C 778.892 1.44798 1.17857 0
M  V30 8231 C 779.243 0.181443 1.95359 0
M  V30 8232 O 778.368 -0.716336 2.042 0
M  V30 8233 C 778.963 2.62333 2.14398 0
M  V30 8234 C 777.522 2.64342 2.67955 0
M  V30 8235 C 776.669 2.37244 1.43564 0
M  V30 8236 H 779.62 1.53954 0.385222 0
M  V30 8237 H 779.641 2.37063 2.97626 0
M  V30 8238 H 779.153 3.54499 1.57963 0
M  V30 8239 H 777.254 1.76213 3.28298 0
M  V30 8240 H 777.367 3.63897 3.11634 0
M  V30 8241 H 775.731 1.87022 1.72901 0
M  V30 8242 H 776.514 3.31568 0.889805 0
M  V30 8243 N 778.959 -0.83999 1.33349 0
M  V30 8244 C 779.891 -1.95678 1.19344 0
M  V30 8245 C 780.904 -1.62322 0.124692 0
M  V30 8246 O 782.093 -1.74516 0.375012 0
M  V30 8247 C 779.193 -3.29133 0.807771 0
M  V30 8248 C 778.366 -3.9063 1.96792 0
M  V30 8249 C 777.425 -5.02438 1.56341 0
M  V30 8250 O 776.451 -5.21646 2.27759 0
M  V30 8251 N 777.653 -5.78612 0.467767 0
M  V30 8252 H 780.418 -2.08229 2.15548 0
M  V30 8253 H 777.979 -1.01566 1.26079 0
M  V30 8254 H 779.971 -4.01355 0.519282 0
M  V30 8255 H 778.541 -3.12535 -0.063555 0
M  V30 8256 H 777.761 -3.11011 2.4221 0
M  V30 8257 H 779.049 -4.2845 2.74422 0
M  V30 8258 H 778.447 -5.65559 -0.126324 0
M  V30 8259 H 777.004 -6.51362 0.238945 0
M  V30 8260 N 780.437 -1.16799 -1.0581 0
M  V30 8261 C 781.662 -0.977402 -1.82925 0
M  V30 8262 C 782.087 0.469514 -1.82146 0
M  V30 8263 O 781.445 1.33576 -1.22585 0
M  V30 8264 C 781.493 -1.51543 -3.27211 0
M  V30 8265 O 780.597 -0.725021 -4.05977 0
M  V30 8266 H 779.938 -0.347474 -0.565825 0
M  V30 8267 H 782.468 -1.55151 -1.33376 0
M  V30 8268 H 782.478 -1.53502 -3.78023 0
M  V30 8269 H 781.153 -2.56872 -3.27093 0
M  V30 8270 H 779.73 -0.77634 -3.64729 0
M  V30 8271 N 781.915 1.24427 -0.967243 0
M  V30 8272 C 782.847 2.24641 -0.454856 0
M  V30 8273 C 783.86 1.56849 0.436152 0
M  V30 8274 O 785.049 1.76846 0.242401 0
M  V30 8275 C 782.149 3.36954 0.362672 0
M  V30 8276 C 781.322 4.34318 -0.518324 0
M  V30 8277 C 780.381 5.25638 0.243122 0
M  V30 8278 O 779.407 5.68043 -0.362791 0
M  V30 8279 N 780.609 5.59897 1.53282 0
M  V30 8280 H 783.374 2.69238 -1.31648 0
M  V30 8281 H 780.935 1.38464 -0.839015 0
M  V30 8282 H 782.927 3.95014 0.880094 0
M  V30 8283 H 781.497 2.91646 1.12522 0
M  V30 8284 H 780.717 3.74953 -1.21672 0
M  V30 8285 H 782.005 4.96338 -1.11919 0
M  V30 8286 H 781.403 5.27373 2.04682 0
M  V30 8287 H 779.96 6.20488 1.99594 0
M  V30 8288 O 783.432 0.875006 1.35742 0
M  V30 8289 H 784.123 0.476549 1.87746 0
M  V30 END ATOM
M  V30 BEGIN BOND
M  V30 END BOND
M  V30 END CTAB
M  END
$$$$
