drugbank_target|Q92772 Cyclin-dependent kinase-like 2 (DB12010)
 OpenBabel12092121143D

  0  0  0     0  0            999 V3000
M  V30 BEGIN CTAB
M  V30 COUNTS 7914 7995 0 0 0
M  V30 BEGIN ATOM
M  V30 1 H -0.908 1.98254 -0.117106 0
M  V30 2 N 0 1.576 0 0
M  V30 3 C 0.933 2.03868 1.02534 0
M  V30 4 C 1.911 0.928543 1.3348 0
M  V30 5 O 3.095 1.19667 1.45644 0
M  V30 6 C 0.222 2.43627 2.35294 0
M  V30 7 C -0.732 3.65373 2.2001 0
M  V30 8 S 0.101 5.13292 1.52614 0
M  V30 9 C 1.257 5.56322 2.86805 0
M  V30 10 H 1.49 2.90518 0.631377 0
M  V30 11 H -0.977 1.52953 0.210867 0
M  V30 12 H 0.981 2.67203 3.11629 0
M  V30 13 H -0.358 1.57376 2.7183 0
M  V30 14 H -1.165 3.90944 3.18086 0
M  V30 15 H -1.563 3.418 1.51819 0
M  V30 16 H 0.729 5.58782 3.83104 0
M  V30 17 H 1.672 6.56266 2.65933 0
M  V30 18 H 2.08 4.83886 2.90714 0
M  V30 19 N 1.4781 -0.272755 1.55222 0
M  V30 20 C 2.3881 -1.35918 1.91216 0
M  V30 21 C 3.4041 -1.54026 0.809436 0
M  V30 22 O 4.5801 -1.68148 1.10852 0
M  V30 23 C 1.6451 -2.69834 2.17693 0
M  V30 24 C 0.7061 -2.6047 3.41253 0
M  V30 25 C -0.0609 -3.88 3.66458 0
M  V30 26 O 0.1621 -4.88693 2.94169 0
M  V30 27 O -0.9039 -3.88189 4.59992 0
M  V30 28 H 2.9221 -1.0839 2.83699 0
M  V30 29 H 0.5071 -0.471301 1.41771 0
M  V30 30 H 2.3891 -3.49017 2.36147 0
M  V30 31 H 1.0641 -2.97148 1.28392 0
M  V30 32 H -0.0289 -1.79663 3.28134 0
M  V30 33 H 1.3041 -2.38106 4.30774 0
M  V30 34 N 2.9562 -1.48159 -0.537278 0
M  V30 35 C 3.9032 -1.62138 -1.64256 0
M  V30 36 C 4.8732 -0.463668 -1.59497 0
M  V30 37 O 6.0582 -0.686241 -1.78032 0
M  V30 38 C 3.1982 -1.66028 -3.02537 0
M  V30 39 C 2.3112 -2.92855 -3.17585 0
M  V30 40 C 1.4462 -2.87952 -4.46382 0
M  V30 41 C 0.4852 -4.09516 -4.54932 0
M  V30 42 N -0.3778 -4.02733 -5.75109 0
M  V30 43 H 4.4622 -2.56529 -1.51647 0
M  V30 44 H 1.9992 -1.27224 -0.738414 0
M  V30 45 H 3.9572 -1.66265 -3.82638 0
M  V30 46 H 2.5872 -0.751331 -3.13934 0
M  V30 47 H 1.6392 -3.02395 -2.30784 0
M  V30 48 H 2.9512 -3.82822 -3.19764 0
M  V30 49 H 2.1052 -2.8655 -5.34765 0
M  V30 50 H 0.8442 -1.95702 -4.46712 0
M  V30 51 H -0.1508 -4.11201 -3.64957 0
M  V30 52 H 1.0742 -5.02917 -4.56346 0
M  V30 53 H -0.9798 -3.13299 -5.76351 0
M  V30 54 H -1.0628 -4.86397 -5.78752 0
M  V30 55 H 0.2052 -4.05379 -6.65799 0
M  V30 56 N 4.4343 0.785586 -1.36625 0
M  V30 57 C 5.6643 1.5722 -1.34036 0
M  V30 58 C 6.0723 1.89033 0.0795062 0
M  V30 59 O 5.4153 1.50881 1.04789 0
M  V30 60 C 5.4773 2.91759 -2.10041 0
M  V30 61 C 5.1413 2.82654 -3.59104 0
M  V30 62 C 6.1383 2.54634 -4.53274 0
M  V30 63 C 3.8233 3.01111 -4.02042 0
M  V30 64 C 5.8173 2.45177 -5.88359 0
M  V30 65 C 3.5043 2.91276 -5.37216 0
M  V30 66 C 4.5023 2.63348 -6.30188 0
M  V30 67 O 4.1903 2.53514 -7.6288 0
M  V30 68 H 3.9223 0.494177 -0.461265 0
M  V30 69 H 6.4763 0.982632 -1.8037 0
M  V30 70 H 4.7063 3.52781 -1.58375 0
M  V30 71 H 6.3953 3.53059 -2.00261 0
M  V30 72 H 7.1613 2.40073 -4.21414 0
M  V30 73 H 3.0403 3.21854 -3.30047 0
M  V30 74 H 6.5843 2.23299 -6.60896 0
M  V30 75 H 2.4813 3.054 -5.68684 0
M  V30 76 H 3.2493 2.68967 -7.73045 0
M  V30 77 N 5.9124 1.20967 1.01018 0
M  V30 78 C 6.8224 0.980157 2.13143 0
M  V30 79 C 7.8384 -0.0660665 1.73875 0
M  V30 80 O 9.0144 0.122821 2.01025 0
M  V30 81 C 6.0794 0.54216 3.42435 0
M  V30 82 C 5.1404 1.65999 3.95908 0
M  V30 83 C 4.3734 1.2428 5.19028 0
M  V30 84 O 4.5964 0.114196 5.70286 0
M  V30 85 O 3.5304 2.05271 5.65816 0
M  V30 86 H 7.3564 1.91913 2.35379 0
M  V30 87 H 4.9414 0.994099 1.11526 0
M  V30 88 H 6.8234 0.30744 4.20277 0
M  V30 89 H 5.4984 -0.36815 3.216 0
M  V30 90 H 4.4054 1.94906 3.19316 0
M  V30 91 H 5.7384 2.54753 4.21143 0
M  V30 92 N 7.3905 -1.2043 1.01659 0
M  V30 93 C 8.3385 -2.25249 0.580143 0
M  V30 94 C 9.3325 -1.65057 -0.381115 0
M  V30 95 O 10.5385 -1.78241 -0.251039 0
M  V30 96 H 6.9135 -0.732695 0.169299 0
M  V30 97 H 8.8845 -2.59389 1.47512 0
M  V30 98 C 7.6335 -3.47638 -0.065788 0
M  V30 99 H 6.9565 -3.94233 0.664874 0
M  V30 100 H 8.3965 -4.2268 -0.334282 0
M  V30 101 C 6.8555 -3.10447 -1.3086 0
M  V30 102 O 7.3855 -3.21981 -2.4019 0
M  V30 103 N 5.5915 -2.64996 -1.1927 0
M  V30 104 H 5.1385 -2.55811 -0.303064 0
M  V30 105 H 5.0965 -2.40482 -2.02523 0
M  V30 106 N 8.8686 -0.792821 -1.36206 0
M  V30 107 C 9.7986 -0.207853 -2.32573 0
M  V30 108 C 10.7796 0.659055 -1.56813 0
M  V30 109 O 11.9646 0.592176 -1.84951 0
M  V30 110 C 9.0946 0.655449 -3.41059 0
M  V30 111 C 8.0486 -0.111842 -4.27854 0
M  V30 112 C 7.3746 0.872274 -5.27537 0
M  V30 113 C 8.6746 -1.30299 -5.05786 0
M  V30 114 H 10.3686 -1.01294 -2.81744 0
M  V30 115 H 7.9146 -0.48854 -1.3546 0
M  V30 116 H 9.8676 1.07464 -4.07467 0
M  V30 117 H 8.5916 1.49328 -2.90463 0
M  V30 118 H 7.2506 -0.512053 -3.63006 0
M  V30 119 H 6.8986 1.70523 -4.73214 0
M  V30 120 H 6.5986 0.363291 -5.86476 0
M  V30 121 H 8.1226 1.28996 -5.96818 0
M  V30 122 H 9.5366 -0.959379 -5.65216 0
M  V30 123 H 7.9336 -1.7455 -5.74154 0
M  V30 124 H 9.0036 -2.09663 -4.37229 0
M  V30 125 N 10.3467 1.47872 -0.545128 0
M  V30 126 C 11.5947 2.02093 -0.016553 0
M  V30 127 C 11.9157 1.42305 1.3332 0
M  V30 128 O 11.1857 0.593853 1.86682 0
M  V30 129 H 9.7657 0.746993 -0.00313038 0
M  V30 130 H 12.4277 1.81414 -0.712397 0
M  V30 131 H 11.5237 3.11996 0.0805422 0
M  V30 132 N 11.8248 0.280983 1.55075 0
M  V30 133 C 12.7548 -0.597469 2.25727 0
M  V30 134 C 13.7358 -1.15417 1.24952 0
M  V30 135 O 14.9208 -1.18722 1.53684 0
M  V30 136 C 12.0508 -1.7789 2.98283 0
M  V30 137 C 11.0048 -1.35347 4.06036 0
M  V30 138 C 10.3308 -2.61846 4.66198 0
M  V30 139 C 11.6308 -0.499354 5.19907 0
M  V30 140 H 13.3248 -0.00824265 2.99399 0
M  V30 141 H 10.8708 -0.0025244 1.44 0
M  V30 142 H 12.8238 -2.39937 3.46422 0
M  V30 143 H 11.5478 -2.39405 2.22155 0
M  V30 144 H 10.2068 -0.756156 3.58717 0
M  V30 145 H 9.8548 -3.21632 3.86732 0
M  V30 146 H 9.5548 -2.3409 5.38958 0
M  V30 147 H 11.0788 -3.24732 5.1709 0
M  V30 148 H 12.4928 -1.02498 5.64063 0
M  V30 149 H 10.8898 -0.316424 5.99265 0
M  V30 150 H 11.9598 0.480459 4.82514 0
M  V30 151 N 13.3029 -1.57598 0.00835791 0
M  V30 152 C 14.5489 -1.91211 -0.675732 0
M  V30 153 C 14.8819 -0.883139 -1.72958 0
M  V30 154 O 14.1569 0.097016 -1.94258 0
M  V30 155 C 14.4399 -3.35379 -1.31123 0
M  V30 156 C 14.2929 -4.48999 -0.268356 0
M  V30 157 C 15.6119 -3.7912 -2.23508 0
M  V30 158 H 12.7309 -0.695374 -0.244179 0
M  V30 159 H 15.3729 -1.89901 0.0613655 0
M  V30 160 H 13.5229 -3.36626 -1.93946 0
M  V30 161 H 15.1949 -4.59887 0.360844 0
M  V30 162 H 13.4379 -4.31873 0.408482 0
M  V30 163 H 14.1089 -5.46851 -0.752218 0
M  V30 164 H 16.5849 -3.79477 -1.70693 0
M  V30 165 H 15.4609 -4.80729 -2.64936 0
M  V30 166 H 15.7219 -3.13455 -3.11766 0
M  V30 167 N 14.781 0.264519 -1.55364 0
M  V30 168 C 16.029 0.993021 -1.76021 0
M  V30 169 C 16.35 1.86511 -0.569099 0
M  V30 170 O 15.62 1.91438 0.415735 0
M  V30 171 H 14.2 0.369639 -0.649135 0
M  V30 172 H 16.862 0.286707 -1.9278 0
M  V30 173 H 15.958 1.62502 -2.66457 0
M  V30 174 N 16.2591 1.48442 0.529413 0
M  V30 175 C 17.1691 1.6569 1.66084 0
M  V30 176 C 18.1851 0.539432 1.65427 0
M  V30 177 O 19.3611 0.810572 1.84368 0
M  V30 178 C 16.4261 1.69315 3.02545 0
M  V30 179 C 15.4871 2.92694 3.14052 0
M  V30 180 C 14.7201 2.96137 4.44003 0
M  V30 181 O 14.9431 2.07973 5.31134 0
M  V30 182 O 13.8771 3.88312 4.59888 0
M  V30 183 H 17.7031 2.61483 1.54469 0
M  V30 184 H 15.2881 1.3185 0.702567 0
M  V30 185 H 17.1701 1.74217 3.83701 0
M  V30 186 H 15.8451 0.766966 3.14483 0
M  V30 187 H 14.7521 2.93324 2.32189 0
M  V30 188 H 16.0851 3.84699 3.0703 0
M  V30 189 N 17.7372 -0.778329 1.37039 0
M  V30 190 C 18.9852 -1.53361 1.31623 0
M  V30 191 C 19.3062 -1.94739 -0.100831 0
M  V30 192 O 18.5762 -1.65797 -1.04347 0
M  V30 193 H 17.1562 -0.568794 0.484234 0
M  V30 194 H 19.8182 -0.926742 1.71457 0
M  V30 195 H 18.9142 -2.43606 1.95096 0
M  V30 196 N 19.2153 -1.21501 -1.00376 0
M  V30 197 C 20.4403 -1.05977 -1.78279 0
M  V30 198 C 20.8653 0.385994 -1.84097 0
M  V30 199 O 20.2233 1.27849 -1.28547 0
M  V30 200 C 20.2713 -1.66302 -3.19963 0
M  V30 201 O 19.3753 -0.909333 -4.0225 0
M  V30 202 H 18.7163 -0.372906 -0.549397 0
M  V30 203 H 21.2463 -1.6107 -1.26165 0
M  V30 204 H 21.2563 -1.70574 -3.70632 0
M  V30 205 H 19.9313 -2.71515 -3.15043 0
M  V30 206 H 18.5083 -0.941795 -3.60811 0
M  V30 207 N 20.6934 1.19889 -1.02296 0
M  V30 208 C 21.9234 1.93109 -0.734332 0
M  V30 209 C 22.3314 1.75377 0.709889 0
M  V30 210 O 21.6744 1.06912 1.49384 0
M  V30 211 C 21.7364 3.45362 -0.99827 0
M  V30 212 C 21.4004 3.8686 -2.43287 0
M  V30 213 C 22.3974 3.92102 -3.41397 0
M  V30 214 C 20.0824 4.18668 -2.77529 0
M  V30 215 C 22.0764 4.28573 -4.71809 0
M  V30 216 C 19.7634 4.54813 -4.08153 0
M  V30 217 C 20.7614 4.59739 -5.05103 0
M  V30 218 O 20.4494 4.95051 -6.33388 0
M  V30 219 H 20.1814 0.620409 -0.268456 0
M  V30 220 H 22.7354 1.53144 -1.3688 0
M  V30 221 H 20.9654 3.85482 -0.306645 0
M  V30 222 H 22.6544 3.99814 -0.700234 0
M  V30 223 H 23.4204 3.67685 -3.1628 0
M  V30 224 H 19.2994 4.14021 -2.0275 0
M  V30 225 H 22.8434 4.32333 -5.4748 0
M  V30 226 H 18.7404 4.78687 -4.33047 0
M  V30 227 H 19.5084 5.1302 -6.37772 0
M  V30 228 N 22.1715 0.800033 1.35784 0
M  V30 229 C 23.4195 0.376597 1.9856 0
M  V30 230 C 23.7405 -1.05812 1.63795 0
M  V30 231 O 23.0105 -1.73103 0.917171 0
M  V30 232 H 21.5905 0.136261 0.734467 0
M  V30 233 H 24.2525 1.02442 1.65806 0
M  V30 234 H 23.3485 0.477002 3.08433 0
M  V30 235 N 23.6496 -1.47581 0.552962 0
M  V30 236 C 24.5826 -2.26883 -0.244857 0
M  V30 237 C 25.5606 -1.33784 -0.924147 0
M  V30 238 O 26.7446 -1.6316 -0.943981 0
M  V30 239 C 23.8716 -3.10695 -1.34856 0
M  V30 240 C 22.9176 -4.19339 -0.778268 0
M  V30 241 S 23.7506 -5.34207 0.37184 0
M  V30 242 C 24.9066 -6.21584 -0.733779 0
M  V30 243 H 25.1396 -2.94202 0.428087 0
M  V30 244 H 22.6726 -1.50628 0.339197 0
M  V30 245 H 24.6306 -3.59555 -1.98066 0
M  V30 246 H 23.2916 -2.42746 -1.99332 0
M  V30 247 H 22.4846 -4.77695 -1.60696 0
M  V30 248 H 22.0866 -3.73338 -0.222422 0
M  V30 249 H 24.3786 -6.57676 -1.62692 0
M  V30 250 H 25.3216 -7.07851 -0.187668 0
M  V30 251 H 25.7296 -5.55125 -1.02454 0
M  V30 252 N 25.1277 -0.289203 -1.54924 0
M  V30 253 C 26.3737 0.323998 -2.00195 0
M  V30 254 C 26.7067 1.54441 -1.17735 0
M  V30 255 O 25.9817 1.92875 -0.250878 0
M  V30 256 C 26.2647 0.692276 -3.53383 0
M  V30 257 C 26.1177 -0.536457 -4.46589 0
M  V30 258 C 27.4367 1.52335 -4.12895 0
M  V30 259 H 24.5557 0.116289 -0.727768 0
M  V30 260 H 27.1977 -0.398954 -1.85764 0
M  V30 261 H 25.3477 1.30822 -3.65811 0
M  V30 262 H 27.0197 -1.17499 -4.46085 0
M  V30 263 H 25.2627 -1.17192 -4.1767 0
M  V30 264 H 25.9337 -0.234806 -5.515 0
M  V30 265 H 28.4097 1.00302 -4.0383 0
M  V30 266 H 27.2857 1.74982 -5.20262 0
M  V30 267 H 27.5467 2.50886 -3.64018 0
M  V30 268 N 26.6058 1.57591 -0.0167156 0
M  V30 269 C 27.5388 2.04944 1.00366 0
M  V30 270 C 28.5168 0.942648 1.32487 0
M  V30 271 O 29.7008 1.21205 1.44367 0
M  V30 272 C 26.8278 2.46109 2.32697 0
M  V30 273 C 25.8738 3.67686 2.16123 0
M  V30 274 S 26.7068 5.14882 1.47161 0
M  V30 275 C 27.8628 5.59332 2.80888 0
M  V30 276 H 28.0958 2.91172 0.600528 0
M  V30 277 H 25.6288 1.53168 0.194632 0
M  V30 278 H 27.5868 2.70493 3.08778 0
M  V30 279 H 26.2478 1.6025 2.70146 0
M  V30 280 H 25.4408 3.94296 3.13922 0
M  V30 281 H 25.0428 3.43391 1.48185 0
M  V30 282 H 27.3348 5.62814 3.77156 0
M  V30 283 H 28.2778 6.5905 2.58958 0
M  V30 284 H 28.6858 4.86942 2.85565 0
M  V30 285 N 28.0839 -0.256276 1.55502 0
M  V30 286 C 29.0309 -1.31714 1.89526 0
M  V30 287 C 30.0009 -1.4828 0.748479 0
M  V30 288 O 31.1859 -1.62416 1.00128 0
M  V30 289 C 28.3259 -2.66933 2.18725 0
M  V30 290 C 27.4389 -2.58452 3.4616 0
M  V30 291 C 26.5739 -3.85961 3.64976 0
M  V30 292 C 25.6129 -3.72059 4.86044 0
M  V30 293 N 24.7499 -4.9144 5.01429 0
M  V30 294 H 29.5899 -1.01998 2.80001 0
M  V30 295 H 27.1269 -0.492413 1.38613 0
M  V30 296 H 29.0849 -3.4563 2.33657 0
M  V30 297 H 27.7149 -2.94816 1.31466 0
M  V30 298 H 26.7669 -1.71374 3.3961 0
M  V30 299 H 28.0789 -2.44085 4.34999 0
M  V30 300 H 27.2329 -4.73101 3.79816 0
M  V30 301 H 25.9719 -4.03215 2.74353 0
M  V30 302 H 24.9769 -2.83302 4.7119 0
M  V30 303 H 26.2019 -3.56309 5.78118 0
M  V30 304 H 24.1479 -5.09072 4.13741 0
M  V30 305 H 24.0649 -4.79668 5.84341 0
M  V30 306 H 25.3329 -5.80104 5.20672 0
M  V30 307 N 29.562 -1.4872 -0.521534 0
M  V30 308 C 30.802 -1.58771 -1.28729 0
M  V30 309 C 31.166 -0.259394 -1.9024 0
M  V30 310 O 32.367 -0.234942 -2.67771 0
M  V30 311 C 30.638 -2.70039 -2.34124 0
M  V30 312 S 32.197 -2.9991 -3.20312 0
M  V30 313 H 29.015 -0.560251 -0.437767 0
M  V30 314 H 31.617 -1.86283 -0.593188 0
M  V30 315 H 30.321 -3.65101 -1.87429 0
M  V30 316 H 29.852 -2.44455 -3.08229 0
M  V30 317 H 31.867 -2.39855 -4.34378 0
M  V30 318 N 31.0401 0.771051 -1.3745 0
M  V30 319 C 32.4561 1.07171 -1.18265 0
M  V30 320 C 32.6561 2.01491 -0.019287 0
M  V30 321 O 31.7121 2.44244 0.640408 0
M  V30 322 C 33.0251 1.66854 -2.50161 0
M  V30 323 C 34.5731 1.79109 -2.56689 0
M  V30 324 C 35.0481 2.42205 -3.88717 0
M  V30 325 N 36.5391 2.49655 -3.90162 0
M  V30 326 C 37.2741 2.9933 -4.8907 0
M  V30 327 N 36.7701 3.49172 -5.98374 0
M  V30 328 N 38.5631 2.9821 -4.76474 0
M  V30 329 H 30.7141 0.144796 -2.11906 0
M  V30 330 H 32.9771 0.126863 -0.939473 0
M  V30 331 H 32.6831 1.05017 -3.35655 0
M  V30 332 H 32.5571 2.6614 -2.673 0
M  V30 333 H 34.9441 2.40077 -1.71601 0
M  V30 334 H 35.0251 0.785757 -2.43433 0
M  V30 335 H 34.6691 1.81875 -4.74219 0
M  V30 336 H 34.5991 3.43345 -3.99276 0
M  V30 337 H 37.0901 2.14383 -3.11205 0
M  V30 338 H 37.4031 3.8548 -6.69795 0
M  V30 339 H 35.7481 3.47275 -6.02018 0
M  V30 340 H 38.9391 2.58572 -3.90203 0
M  V30 341 H 39.1121 3.36613 -5.53711 0
M  V30 342 N 32.5182 1.22032 0.997298 0
M  V30 343 C 33.4662 0.983634 2.10778 0
M  V30 344 C 34.4602 -0.0717564 1.69248 0
M  V30 345 O 35.6662 0.080304 1.79821 0
M  V30 346 H 32.0412 0.300877 0.689186 0
M  V30 347 H 34.0122 1.92606 2.27916 0
M  V30 348 C 32.7612 0.57326 3.42942 0
M  V30 349 H 32.0842 1.37702 3.75338 0
M  V30 350 H 33.5242 0.447031 4.21637 0
M  V30 351 C 31.9832 -0.7167 3.29188 0
M  V30 352 O 32.5132 -1.77027 3.60589 0
M  V30 353 N 30.7192 -0.686167 2.82383 0
M  V30 354 H 30.2662 0.171507 2.57028 0
M  V30 355 H 30.2242 -1.54955 2.73562 0
M  V30 356 N 33.9963 -1.19345 1.0293 0
M  V30 357 C 34.9433 -2.2258 0.610464 0
M  V30 358 C 35.9133 -1.6179 -0.375946 0
M  V30 359 O 37.0983 -1.88844 -0.272511 0
M  V30 360 C 34.2383 -3.45085 -0.0321473 0
M  V30 361 C 33.3513 -4.20258 1.00035 0
M  V30 362 C 32.4863 -5.3019 0.32746 0
M  V30 363 C 31.5253 -5.97121 1.34584 0
M  V30 364 N 30.6623 -6.98615 0.698726 0
M  V30 365 H 35.5023 -2.57764 1.49538 0
M  V30 366 H 33.0393 -1.26644 0.748311 0
M  V30 367 H 34.9973 -4.15061 -0.421966 0
M  V30 368 H 33.6273 -3.10555 -0.88064 0
M  V30 369 H 32.6793 -3.49223 1.50823 0
M  V30 370 H 33.9913 -4.66175 1.77433 0
M  V30 371 H 33.1453 -6.06587 -0.11718 0
M  V30 372 H 31.8843 -4.85345 -0.478713 0
M  V30 373 H 30.8893 -5.19474 1.80074 0
M  V30 374 H 32.1143 -6.4405 2.15352 0
M  V30 375 H 30.0603 -6.55942 -0.0873471 0
M  V30 376 H 29.9773 -7.42724 1.41058 0
M  V30 377 H 31.2453 -7.79004 0.278102 0
M  V30 378 N 35.4744 -0.807222 -1.35358 0
M  V30 379 C 36.7514 -0.311126 -1.9311 0
M  V30 380 C 37.1314 1.19937 -1.73719 0
M  V30 381 O 36.4794 1.99918 -1.10657 0
M  V30 382 C 36.6894 -0.723226 -3.41424 0
M  V30 383 C 38.0374 -0.713078 -4.18569 0
M  V30 384 O 39.0614 -0.664811 -3.49941 0
M  V30 385 O 37.9204 -0.772022 -5.41019 0
M  V30 386 H 35.0144 -0.081526 -0.822972 0
M  V30 387 H 37.5604 -0.890962 -1.4443 0
M  V30 388 H 36.3324 -1.76426 -3.4927 0
M  V30 389 H 35.9554 -0.118232 -3.97424 0
M  V30 390 N 36.9525 1.47285 -0.560781 0
M  V30 391 C 38.1805 2.06855 -0.0430262 0
M  V30 392 C 38.5955 1.41291 1.25229 0
M  V30 393 O 37.9525 0.510648 1.7521 0
M  V30 394 C 38.0035 3.61178 0.152518 0
M  V30 395 O 37.7245 4.24285 -1.0915 0
M  V30 396 C 39.2255 4.37624 0.707145 0
M  V30 397 H 36.4455 0.669319 -0.0474652 0
M  V30 398 H 38.9895 1.89237 -0.77521 0
M  V30 399 H 37.1445 3.78298 0.834843 0
M  V30 400 H 37.5585 5.16868 -0.891482 0
M  V30 401 H 39.0325 5.46271 0.793244 0
M  V30 402 H 39.5095 4.04152 1.71923 0
M  V30 403 H 40.1155 4.25257 0.0604027 0
M  V30 404 N 38.4306 0.297415 1.54768 0
M  V30 405 C 39.6786 -0.312295 1.99673 0
M  V30 406 C 39.9996 -1.54686 1.18732 0
M  V30 407 O 39.2696 -1.93854 0.282382 0
M  V30 408 H 37.8496 -0.118381 0.73756 0
M  V30 409 H 40.5116 0.407915 1.90583 0
M  V30 410 H 39.6076 -0.586813 3.06534 0
M  V30 411 N 39.9087 -1.5758 0.0250728 0
M  V30 412 C 41.3247 -1.56124 -0.331282 0
M  V30 413 C 41.5247 -1.03029 -1.73169 0
M  V30 414 O 40.5807 -0.675215 -2.43305 0
M  V30 415 C 41.8937 -3.00139 -0.183584 0
M  V30 416 C 43.4417 -3.11946 -0.256654 0
M  V30 417 C 43.9167 -4.57793 -0.137792 0
M  V30 418 N 45.4077 -4.6279 -0.194904 0
M  V30 419 C 46.1427 -5.7326 -0.126655 0
M  V30 420 N 45.6387 -6.928 -0.00755288 0
M  V30 421 N 47.4317 -5.61811 -0.180348 0
M  V30 422 H 39.5827 -1.90424 0.94087 0
M  V30 423 H 41.8457 -0.875761 0.362968 0
M  V30 424 H 41.5517 -3.4292 0.780927 0
M  V30 425 H 41.4257 -3.64899 -0.955448 0
M  V30 426 H 43.8127 -2.69079 -1.21162 0
M  V30 427 H 43.8937 -2.49915 0.545517 0
M  V30 428 H 43.5377 -5.01339 0.813739 0
M  V30 429 H 43.4677 -5.17798 -0.958775 0
M  V30 430 H 45.9587 -3.76807 -0.287267 0
M  V30 431 H 46.2717 -7.72791 0.0379428 0
M  V30 432 H 44.6167 -6.94995 0.0271731 0
M  V30 433 H 47.8077 -4.6731 -0.271767 0
M  V30 434 H 47.9807 -6.47882 -0.123697 0
M  V30 435 N 41.3868 0.248026 -1.55636 0
M  V30 436 C 42.6358 0.974134 -1.76617 0
M  V30 437 C 42.9488 1.86528 -0.588796 0
M  V30 438 O 44.1548 2.62805 -0.681594 0
M  V30 439 C 42.6108 1.78213 -3.12679 0
M  V30 440 C 42.2188 0.93843 -4.38061 0
M  V30 441 C 43.9628 2.50104 -3.42999 0
M  V30 442 C 41.8698 1.74225 -5.65155 0
M  V30 443 H 40.7998 0.36745 -0.658405 0
M  V30 444 H 43.4508 0.22884 -1.82067 0
M  V30 445 H 41.8328 2.56933 -3.01333 0
M  V30 446 H 43.0068 0.193635 -4.60393 0
M  V30 447 H 41.3218 0.332905 -4.15067 0
M  V30 448 H 43.9188 3.10694 -4.3517 0
M  V30 449 H 44.2618 3.21662 -2.64271 0
M  V30 450 H 44.7948 1.78395 -3.55556 0
M  V30 451 H 41.5338 1.07043 -6.46701 0
M  V30 452 H 41.0538 2.46235 -5.46926 0
M  V30 453 H 42.7328 2.30967 -6.0437 0
M  V30 454 N 42.8649 1.48995 0.513639 0
M  V30 455 C 44.1109 1.58076 1.27042 0
M  V30 456 C 44.4439 0.261026 1.92438 0
M  V30 457 O 43.7189 -0.734393 1.80103 0
M  V30 458 C 44.0019 2.73091 2.34719 0
M  V30 459 C 43.8549 4.14821 1.73907 0
M  V30 460 C 45.1739 2.83796 3.36375 0
M  V30 461 H 42.2929 0.575391 0.460536 0
M  V30 462 H 44.9349 1.81232 0.570516 0
M  V30 463 H 43.0849 2.53479 2.94416 0
M  V30 464 H 44.7569 4.45917 1.18135 0
M  V30 465 H 42.9999 4.21058 1.0437 0
M  V30 466 H 43.6709 4.91147 2.51949 0
M  V30 467 H 46.1469 3.01611 2.86653 0
M  V30 468 H 45.0229 3.65971 4.09093 0
M  V30 469 H 45.2839 1.92624 3.9793 0
M  V30 470 N 44.343 -0.763751 1.37857 0
M  V30 471 C 45.306 -1.85889 1.34081 0
M  V30 472 C 46.306 -1.58949 0.243277 0
M  V30 473 O 47.496 -1.66882 0.499589 0
M  V30 474 C 44.628 -3.23176 1.08489 0
M  V30 475 H 45.821 -1.90648 2.31502 0
M  V30 476 H 43.374 -0.964367 1.23003 0
M  V30 477 H 44.109 -3.24091 0.116318 0
M  V30 478 H 43.894 -3.44124 1.8794 0
M  V30 479 H 45.384 -4.03254 1.08517 0
M  V30 480 N 45.8211 -1.22559 -0.990812 0
M  V30 481 C 47.0701 -1.04553 -1.72486 0
M  V30 482 C 47.3831 0.419349 -1.91052 0
M  V30 483 O 48.5891 0.719121 -2.61803 0
M  V30 484 C 47.0451 -1.82231 -3.10355 0
M  V30 485 C 46.6531 -3.32981 -2.99713 0
M  V30 486 C 48.3971 -1.7268 -3.87791 0
M  V30 487 C 46.3041 -4.03091 -4.32748 0
M  V30 488 H 45.2341 -0.387614 -0.646739 0
M  V30 489 H 47.8851 -1.46429 -1.10593 0
M  V30 490 H 46.2671 -1.33155 -3.72942 0
M  V30 491 H 47.4411 -3.89466 -2.46278 0
M  V30 492 H 45.7561 -3.43231 -2.35758 0
M  V30 493 H 48.3531 -2.22381 -4.86262 0
M  V30 494 H 48.6961 -0.687607 -4.10582 0
M  V30 495 H 49.2291 -2.1931 -3.31885 0
M  V30 496 H 45.9681 -5.07273 -4.15156 0
M  V30 497 H 45.4881 -3.51394 -4.86089 0
M  V30 498 H 47.1671 -4.08804 -5.01486 0
M  V30 499 N 47.2992 1.18797 -1.03562 0
M  V30 500 C 48.2462 2.22253 -0.622259 0
M  V30 501 C 49.2162 1.61987 0.36736 0
M  V30 502 O 50.4012 1.88986 0.262492 0
M  V30 503 C 47.5412 3.45097 0.0138462 0
M  V30 504 C 46.6542 4.19722 -1.02263 0
M  V30 505 C 45.7892 5.30009 -0.355573 0
M  V30 506 C 44.8282 5.96399 -1.37749 0
M  V30 507 N 43.9652 6.98234 -0.735766 0
M  V30 508 H 48.8052 2.56968 -1.50903 0
M  V30 509 H 46.3422 1.26245 -0.755017 0
M  V30 510 H 48.3002 4.15279 0.399948 0
M  V30 511 H 46.9302 3.11018 0.864158 0
M  V30 512 H 45.9822 3.48418 -1.52673 0
M  V30 513 H 47.2942 4.65227 -1.79903 0
M  V30 514 H 46.4482 6.0664 0.0850095 0
M  V30 515 H 45.1872 4.85592 0.452967 0
M  V30 516 H 44.1922 5.18512 -1.82826 0
M  V30 517 H 45.4172 6.42899 -2.18764 0
M  V30 518 H 43.3632 6.55979 0.0525597 0
M  V30 519 H 43.2802 7.41965 -1.44995 0
M  V30 520 H 44.5482 7.78845 -0.31941 0
M  V30 521 N 48.7773 0.814389 1.34928 0
M  V30 522 C 49.7243 0.22822 2.29669 0
M  V30 523 C 50.6943 -0.642164 1.53184 0
M  V30 524 O 51.8793 -0.585605 1.81591 0
M  V30 525 C 49.0193 -0.61089 3.3965 0
M  V30 526 C 48.1323 0.280792 4.31086 0
M  V30 527 C 47.2673 -0.567067 5.28165 0
M  V30 528 C 46.3063 0.324531 6.11239 0
M  V30 529 N 45.4433 -0.483756 7.00431 0
M  V30 530 H 50.2833 1.04153 2.79206 0
M  V30 531 H 47.8203 0.525133 1.37407 0
M  V30 532 H 49.7783 -1.11263 4.0209 0
M  V30 533 H 48.4083 -1.38939 2.91369 0
M  V30 534 H 47.4603 0.900688 3.69583 0
M  V30 535 H 48.7723 0.966723 4.89342 0
M  V30 536 H 47.9263 -1.13363 5.96015 0
M  V30 537 H 46.6653 -1.28654 4.70425 0
M  V30 538 H 45.6703 0.903298 5.42329 0
M  V30 539 H 46.8953 1.04198 6.71059 0
M  V30 540 H 44.8413 -1.18706 6.45171 0
M  V30 541 H 44.7583 0.143965 7.55863 0
M  V30 542 H 46.0263 -1.03334 7.7262 0
M  V30 543 N 50.2554 -1.46986 0.568584 0
M  V30 544 C 51.5024 -2.02441 0.0487986 0
M  V30 545 C 51.8304 -1.44169 -1.30559 0
M  V30 546 O 51.0854 -0.591213 -1.86556 0
M  V30 547 C 51.3844 -3.57306 -0.081836 0
M  V30 548 C 51.0504 -4.34552 1.20313 0
M  V30 549 C 49.7124 -4.55376 1.5552 0
M  V30 550 C 52.0644 -4.79016 2.05411 0
M  V30 551 C 49.3924 -5.17913 2.7565 0
M  V30 552 C 51.7444 -5.42879 3.24754 0
M  V30 553 C 50.4084 -5.61933 3.60261 0
M  V30 554 H 49.6784 -0.740785 0.0178567 0
M  V30 555 H 52.3254 -1.76525 0.742384 0
M  V30 556 H 50.6304 -3.8228 -0.858463 0
M  V30 557 H 52.3274 -3.97876 -0.499546 0
M  V30 558 H 48.9174 -4.18631 0.919014 0
M  V30 559 H 53.1014 -4.62696 1.79516 0
M  V30 560 H 48.3574 -5.30858 3.03315 0
M  V30 561 H 52.5314 -5.76293 3.90973 0
M  V30 562 H 50.1584 -6.10161 4.53439 0
M  V30 563 N 51.7335 -0.305618 -1.54608 0
M  V30 564 C 52.6635 0.561482 -2.26649 0
M  V30 565 C 53.6445 1.13415 -1.26772 0
M  V30 566 O 54.8295 1.16262 -1.55553 0
M  V30 567 C 51.9595 1.73122 -3.01075 0
M  V30 568 C 50.9135 1.2887 -4.08138 0
M  V30 569 C 50.2395 2.54396 -4.70305 0
M  V30 570 C 51.5395 0.416578 -5.20636 0
M  V30 571 H 53.2335 -0.0393902 -2.99374 0
M  V30 572 H 50.7795 -0.020385 -1.43986 0
M  V30 573 H 52.7325 2.34396 -3.50195 0
M  V30 574 H 51.4565 2.3584 -2.25936 0
M  V30 575 H 50.1155 0.698991 -3.59875 0
M  V30 576 H 49.7635 3.15439 -3.918 0
M  V30 577 H 49.4635 2.25486 -5.42614 0
M  V30 578 H 50.9875 3.16464 -5.2219 0
M  V30 579 H 52.4015 0.935116 -5.65622 0
M  V30 580 H 50.7985 0.221046 -5.99693 0
M  V30 581 H 51.8685 -0.557162 -4.81688 0
M  V30 582 N 53.2116 1.57565 -0.0334293 0
M  V30 583 C 54.1216 2.13943 0.962572 0
M  V30 584 C 55.1376 1.09276 1.35406 0
M  V30 585 O 56.3136 1.41355 1.4346 0
M  V30 586 C 53.3786 2.65887 2.22497 0
M  V30 587 C 52.4396 3.85286 1.8935 0
M  V30 588 C 51.6726 4.34743 3.09571 0
M  V30 589 O 51.8956 3.83352 4.22371 0
M  V30 590 O 50.8296 5.26538 2.91618 0
M  V30 591 H 54.6556 2.99333 0.513169 0
M  V30 592 H 52.2406 1.4822 0.18743 0
M  V30 593 H 54.1226 2.99346 2.96598 0
M  V30 594 H 52.7976 1.83578 2.6661 0
M  V30 595 H 51.7046 3.56746 1.1262 0
M  V30 596 H 53.0376 4.68771 1.5005 0
M  V30 597 N 54.6897 -0.239769 1.55765 0
M  V30 598 C 55.9147 -0.988373 1.82335 0
M  V30 599 C 56.3397 -1.77886 0.611421 0
M  V30 600 O 55.6977 -1.75889 -0.439639 0
M  V30 601 C 55.7457 -1.89627 3.06715 0
M  V30 602 O 54.8497 -2.98904 2.84131 0
M  V30 603 H 54.1907 -0.280858 0.601677 0
M  V30 604 H 56.7207 -0.258597 2.02959 0
M  V30 605 H 56.7307 -2.30957 3.36338 0
M  V30 606 H 55.4057 -1.31511 3.9456 0
M  V30 607 H 53.9827 -2.61651 2.65694 0
M  V30 608 N 56.1678 -1.49265 -0.50573 0
M  V30 609 C 57.4448 -1.49012 -1.26707 0
M  V30 610 C 57.8248 -0.215205 -2.1 0
M  V30 611 O 57.1728 0.802547 -2.13943 0
M  V30 612 C 57.3828 -2.7663 -2.12783 0
M  V30 613 C 58.7308 -3.25932 -2.72127 0
M  V30 614 O 59.7548 -2.77715 -2.23054 0
M  V30 615 O 58.6138 -4.09897 -3.61451 0
M  V30 616 H 55.7078 -0.596197 -0.57313 0
M  V30 617 H 58.2538 -1.61524 -0.52039 0
M  V30 618 H 57.0258 -3.60916 -1.5118 0
M  V30 619 H 56.6488 -2.66956 -2.94653 0
M  V30 620 N 57.6459 0.756429 -1.3826 0
M  V30 621 C 58.9229 1.50584 -1.24835 0
M  V30 622 C 59.3029 2.10556 0.151485 0
M  V30 623 O 58.6509 1.96825 1.1607 0
M  V30 624 C 58.8609 2.57448 -2.3563 0
M  V30 625 C 60.2089 3.24429 -2.73917 0
M  V30 626 O 61.2329 2.67751 -2.34921 0
M  V30 627 O 60.0919 4.26937 -3.41156 0
M  V30 628 H 57.1859 0.667664 -0.48801 0
M  V30 629 H 59.7319 0.792083 -1.5008 0
M  V30 630 H 58.5039 2.11362 -3.29305 0
M  V30 631 H 58.1269 3.36408 -2.11933 0
M  V30 632 N 59.124 1.23083 0.984299 0
M  V30 633 C 60.401 0.9689 1.69917 0
M  V30 634 C 60.781 -0.513604 2.04757 0
M  V30 635 O 60.129 -1.48383 1.73767 0
M  V30 636 C 60.339 1.87518 2.94343 0
M  V30 637 C 61.687 2.13636 3.6694 0
M  V30 638 O 62.711 1.85036 3.04368 0
M  V30 639 O 61.57 2.62119 4.79537 0
M  V30 640 H 58.664 0.365095 0.742048 0
M  V30 641 H 61.21 1.34107 1.03987 0
M  V30 642 H 59.982 2.87756 2.65164 0
M  V30 643 H 59.605 1.50514 3.6801 0
M  V30 644 N 60.6021 -1.18246 1.0419 0
M  V30 645 C 61.5491 -2.2192 0.634037 0
M  V30 646 C 62.5191 -1.62179 -0.358765 0
M  V30 647 O 63.7041 -1.89122 -0.252466 0
M  V30 648 C 60.8441 -3.451 0.00445535 0
M  V30 649 C 59.9571 -4.19174 1.04487 0
M  V30 650 C 59.0921 -5.29813 0.383676 0
M  V30 651 C 58.1311 -5.9566 1.4091 0
M  V30 652 N 57.2681 -6.97834 0.772784 0
M  V30 653 H 62.1081 -2.56164 1.52263 0
M  V30 654 H 59.6451 -1.25843 0.761701 0
M  V30 655 H 61.6031 -4.15485 -0.377919 0
M  V30 656 H 60.2331 -3.11472 -0.847652 0
M  V30 657 H 59.2851 -3.47604 1.54518 0
M  V30 658 H 60.5971 -4.64267 1.82368 0
M  V30 659 H 59.7511 -6.06677 -0.0528366 0
M  V30 660 H 58.4901 -4.85825 -0.427208 0
M  V30 661 H 57.4951 -5.17535 1.85574 0
M  V30 662 H 58.7201 -6.4173 2.22171 0
M  V30 663 H 56.6661 -6.55998 -0.0177708 0
M  V30 664 H 56.5831 -7.41186 1.48928 0
M  V30 665 H 57.8511 -7.78665 0.36071 0
M  V30 666 N 62.0802 -0.821533 -1.34494 0
M  V30 667 C 63.0132 -0.187704 -2.27427 0
M  V30 668 C 63.9912 0.65507 -1.48821 0
M  V30 669 O 65.1752 0.619111 -1.78043 0
M  V30 670 C 62.3022 0.737996 -3.30562 0
M  V30 671 C 61.3482 -0.0270713 -4.26491 0
M  V30 672 S 62.1812 -1.37329 -5.17592 0
M  V30 673 C 63.3372 -0.452427 -6.24263 0
M  V30 674 H 63.5702 -0.975598 -2.80837 0
M  V30 675 H 61.1032 -0.61736 -1.4152 0
M  V30 676 H 63.0612 1.26654 -3.90473 0
M  V30 677 H 61.7222 1.4994 -2.76001 0
M  V30 678 H 60.9152 0.6766 -4.99438 0
M  V30 679 H 60.5172 -0.48612 -3.70827 0
M  V30 680 H 62.8092 0.356557 -6.76561 0
M  V30 681 H 63.7522 -1.15153 -6.98674 0
M  V30 682 H 64.1602 -0.0414755 -5.64485 0
M  V30 683 N 63.5583 1.46682 -0.576371 0
M  V30 684 C 64.8043 2.02712 -0.0596221 0
M  V30 685 C 65.1373 1.44765 1.29448 0
M  V30 686 O 64.4123 0.610355 1.84675 0
M  V30 687 C 64.6953 3.60098 0.0129503 0
M  V30 688 C 64.5483 4.28441 -1.3696 0
M  V30 689 C 65.8673 4.34224 0.71678 0
M  V30 690 H 62.9863 0.736637 -0.0231407 0
M  V30 691 H 65.6283 1.74898 -0.742351 0
M  V30 692 H 63.7783 3.83926 0.594378 0
M  V30 693 H 65.4503 4.15896 -1.9957 0
M  V30 694 H 63.6933 3.8805 -1.93907 0
M  V30 695 H 64.3643 5.3716 -1.27135 0
M  V30 696 H 66.8403 4.15503 0.222908 0
M  V30 697 H 65.7163 5.43936 0.73657 0
M  V30 698 H 65.9773 4.04823 1.77682 0
M  V30 699 N 65.0364 0.313813 1.54444 0
M  V30 700 C 65.9834 -0.55655 2.23989 0
M  V30 701 C 66.9534 -1.11943 1.22711 0
M  V30 702 O 68.1384 -1.16158 1.51367 0
M  V30 703 C 65.2784 -1.71635 2.99392 0
M  V30 704 C 64.3914 -1.18364 4.15468 0
M  V30 705 C 63.5264 -2.30834 4.78424 0
M  V30 706 C 62.5654 -1.74762 5.86622 0
M  V30 707 N 61.7024 -2.80855 6.43479 0
M  V30 708 H 66.5424 0.0430893 2.97969 0
M  V30 709 H 64.0794 0.0330359 1.47063 0
M  V30 710 H 66.0374 -2.39868 3.41349 0
M  V30 711 H 64.6674 -2.28742 2.27765 0
M  V30 712 H 63.7194 -0.393163 3.78363 0
M  V30 713 H 65.0314 -0.733262 4.93381 0
M  V30 714 H 64.1854 -3.0699 5.23299 0
M  V30 715 H 62.9244 -2.79204 3.99871 0
M  V30 716 H 61.9294 -0.970995 5.41158 0
M  V30 717 H 63.1544 -1.2728 6.67066 0
M  V30 718 H 61.1004 -3.28535 5.67804 0
M  V30 719 H 61.0174 -2.40351 7.16776 0
M  V30 720 H 62.2854 -3.5687 6.93011 0
M  V30 721 N 66.5145 -1.57545 0.0417849 0
M  V30 722 C 67.4615 -2.10977 -0.935805 0
M  V30 723 C 68.4315 -1.01486 -1.31491 0
M  V30 724 O 69.6165 -1.2898 -1.40602 0
M  V30 725 C 66.7565 -2.65169 -2.2086 0
M  V30 726 C 65.8695 -3.88714 -1.88482 0
M  V30 727 C 65.0045 -4.31254 -3.1015 0
M  V30 728 C 64.0435 -5.47524 -2.7365 0
M  V30 729 N 63.1805 -5.85162 -3.87982 0
M  V30 730 H 68.0205 -2.94218 -0.473249 0
M  V30 731 H 65.5575 -1.45415 -0.221981 0
M  V30 732 H 67.5155 -2.94685 -2.95325 0
M  V30 733 H 66.1455 -1.8474 -2.64709 0
M  V30 734 H 65.1975 -3.65849 -1.04205 0
M  V30 735 H 66.5095 -4.73245 -1.57608 0
M  V30 736 H 65.6635 -4.62273 -3.92923 0
M  V30 737 H 64.4025 -3.45516 -3.44195 0
M  V30 738 H 63.4075 -5.16187 -1.89291 0
M  V30 739 H 64.6325 -6.34971 -2.40807 0
M  V30 740 H 62.5785 -5.02377 -4.21846 0
M  V30 741 H 62.4955 -6.64362 -3.60775 0
M  V30 742 H 63.7635 -6.20791 -4.71422 0
M  V30 743 N 67.9926 0.231505 -1.5589 0
M  V30 744 C 69.2416 0.955346 -1.7764 0
M  V30 745 C 69.5546 1.85893 -0.608546 0
M  V30 746 O 70.7606 2.62067 -0.70943 0
M  V30 747 C 69.2166 1.74886 -3.14552 0
M  V30 748 C 68.8246 0.891915 -4.39032 0
M  V30 749 C 70.5686 2.46452 -3.45633 0
M  V30 750 C 68.4756 1.68221 -5.66971 0
M  V30 751 H 67.4056 0.360446 -0.662265 0
M  V30 752 H 70.0566 0.209516 -1.823 0
M  V30 753 H 68.4386 2.53723 -3.04041 0
M  V30 754 H 69.6126 0.144793 -4.60572 0
M  V30 755 H 67.9276 0.288863 -4.15397 0
M  V30 756 H 70.5246 3.06061 -4.38441 0
M  V30 757 H 70.8676 3.18841 -2.67668 0
M  V30 758 H 71.4006 1.74613 -3.57428 0
M  V30 759 H 68.1396 1.00178 -6.478 0
M  V30 760 H 67.6596 2.4042 -5.49507 0
M  V30 761 H 69.3386 2.24544 -6.06786 0
M  V30 762 N 69.4707 1.49531 0.497807 0
M  V30 763 C 70.4337 1.65916 1.58128 0
M  V30 764 C 71.4337 0.530825 1.51786 0
M  V30 765 O 72.6237 0.797342 1.54881 0
M  V30 766 C 69.7557 1.65951 2.9778 0
M  V30 767 H 70.9487 2.62556 1.44929 0
M  V30 768 H 68.5017 1.38611 0.722275 0
M  V30 769 H 69.2367 0.709065 3.16453 0
M  V30 770 H 69.0217 2.47897 3.03792 0
M  V30 771 H 70.5117 1.80673 3.76493 0
M  V30 772 N 70.9488 -0.749086 1.3866 0
M  V30 773 C 71.8818 -1.87111 1.30631 0
M  V30 774 C 72.8598 -1.61572 0.18251 0
M  V30 775 O 74.0438 -1.85019 0.360592 0
M  V30 776 C 71.1708 -3.22815 1.02511 0
M  V30 777 C 70.2168 -3.67234 2.1689 0
M  V30 778 S 71.0498 -3.78245 3.79066 0
M  V30 779 C 72.2058 -5.16761 3.53142 0
M  V30 780 H 72.4388 -1.93636 2.25594 0
M  V30 781 H 69.9718 -0.912525 1.24549 0
M  V30 782 H 71.9298 -4.01181 0.869701 0
M  V30 783 H 70.5908 -3.13964 0.0925884 0
M  V30 784 H 69.7838 -4.65677 1.92771 0
M  V30 785 H 69.3858 -2.96034 2.28561 0
M  V30 786 H 71.6778 -6.02656 3.09534 0
M  V30 787 H 72.6208 -5.45902 4.50995 0
M  V30 788 H 73.0288 -4.85771 2.87554 0
M  V30 789 N 72.4269 -1.23603 -0.977757 0
M  V30 790 C 73.8429 -0.999251 -1.24447 0
M  V30 791 C 74.0429 0.298053 -1.99283 0
M  V30 792 O 73.0989 1.01681 -2.31122 0
M  V30 793 C 74.4119 -2.20784 -2.04144 0
M  V30 794 C 75.9599 -2.25303 -2.17273 0
M  V30 795 C 76.4349 -3.45755 -3.00362 0
M  V30 796 N 77.9259 -3.4601 -3.07947 0
M  V30 797 C 78.6609 -4.35868 -3.72568 0
M  V30 798 N 78.1569 -5.35966 -4.38991 0
M  V30 799 N 79.9499 -4.23605 -3.6948 0
M  V30 800 H 72.1009 -2.06986 -0.476483 0
M  V30 801 H 74.3639 -0.907801 -0.273134 0
M  V30 802 H 74.0699 -3.14945 -1.56533 0
M  V30 803 H 73.9439 -2.22085 -3.04891 0
M  V30 804 H 76.3309 -1.3168 -2.64092 0
M  V30 805 H 76.4119 -2.28033 -1.15907 0
M  V30 806 H 76.0559 -4.39687 -2.5424 0
M  V30 807 H 75.9859 -3.40266 -4.01904 0
M  V30 808 H 78.4769 -2.73588 -2.60688 0
M  V30 809 H 78.7899 -6.00783 -4.86086 0
M  V30 810 H 77.1349 -5.39863 -4.37691 0
M  V30 811 H 80.3259 -3.44647 -3.16759 0
M  V30 812 H 80.4989 -4.93836 -4.1956 0
M  V30 813 N 73.905 1.17692 -1.04816 0
M  V30 814 C 74.815 2.25229 -0.65643 0
M  V30 815 C 75.831 1.71018 0.320761 0
M  V30 816 O 77.007 2.00649 0.173805 0
M  V30 817 C 74.072 3.46684 -0.0332629 0
M  V30 818 C 73.133 4.15997 -1.06042 0
M  V30 819 C 72.366 5.31654 -0.466893 0
M  V30 820 O 72.589 5.65777 0.724758 0
M  V30 821 O 71.523 5.89831 -1.1993 0
M  V30 822 H 75.349 2.61016 -1.55255 0
M  V30 823 H 72.934 1.24919 -0.81949 0
M  V30 824 H 74.816 4.20234 0.313256 0
M  V30 825 H 73.491 3.12703 0.836566 0
M  V30 826 H 72.398 3.44482 -1.45886 0
M  V30 827 H 73.731 4.53996 -1.90127 0
M  V30 828 N 75.3831 0.828654 1.34056 0
M  V30 829 C 76.6321 0.415828 1.97367 0
M  V30 830 C 76.9451 -1.02796 1.6641 0
M  V30 831 O 78.1511 -1.54497 2.23255 0
M  V30 832 C 76.6071 0.692601 3.53173 0
M  V30 833 C 76.2151 2.15038 3.93017 0
M  V30 834 C 77.9591 0.346222 4.23086 0
M  V30 835 C 75.8661 2.37174 5.41758 0
M  V30 836 H 74.7961 0.151755 0.738571 0
M  V30 837 H 77.4471 1.01581 1.52819 0
M  V30 838 H 75.8291 0.0223764 3.95994 0
M  V30 839 H 77.0031 2.86024 3.61285 0
M  V30 840 H 75.3181 2.45875 3.36057 0
M  V30 841 H 77.9151 0.48937 5.32456 0
M  V30 842 H 78.2581 -0.709842 4.10204 0
M  V30 843 H 78.7911 0.971258 3.85761 0
M  V30 844 H 75.5301 3.41308 5.59633 0
M  V30 845 H 75.0501 1.70738 5.74986 0
M  V30 846 H 76.7291 2.19818 6.08514 0
M  V30 847 N 76.8612 -1.46375 0.584142 0
M  V30 848 C 77.8082 -2.30323 -0.148286 0
M  V30 849 C 78.7782 -1.40703 -0.882713 0
M  V30 850 O 79.9632 -1.69651 -0.873099 0
M  V30 851 C 77.1032 -3.25196 -1.15507 0
M  V30 852 C 76.2162 -4.29915 -0.423943 0
M  V30 853 C 75.3512 -5.11914 -1.41838 0
M  V30 854 C 74.3902 -6.08381 -0.673736 0
M  V30 855 N 73.5272 -6.83242 -1.6163 0
M  V30 856 H 78.3672 -2.92427 0.573644 0
M  V30 857 H 75.9042 -1.44118 0.294703 0
M  V30 858 H 77.8622 -3.78646 -1.75166 0
M  V30 859 H 76.4922 -2.64898 -1.8447 0
M  V30 860 H 75.5442 -3.7931 0.287714 0
M  V30 861 H 76.8562 -4.98549 0.158128 0
M  V30 862 H 76.0102 -5.69648 -2.08773 0
M  V30 863 H 74.7492 -4.43243 -2.03438 0
M  V30 864 H 73.7542 -5.49799 0.00938483 0
M  V30 865 H 74.9792 -6.79071 -0.0631082 0
M  V30 866 H 72.9252 -6.1728 -2.22038 0
M  V30 867 H 72.8422 -7.48144 -1.08707 0
M  V30 868 H 74.1102 -7.45534 -2.27596 0
M  V30 869 N 78.3393 -0.321999 -1.54275 0
M  V30 870 C 79.2693 0.537411 -2.27231 0
M  V30 871 C 80.2503 1.12064 -1.27968 0
M  V30 872 O 81.4353 1.14606 -1.56777 0
M  V30 873 C 78.5653 1.69919 -3.02894 0
M  V30 874 C 77.5193 1.24534 -4.09482 0
M  V30 875 C 76.8453 2.49394 -4.72977 0
M  V30 876 C 78.1453 0.361335 -5.21049 0
M  V30 877 H 79.8393 -0.0711406 -2.99315 0
M  V30 878 H 77.3853 -0.0356555 -1.43956 0
M  V30 879 H 79.3383 2.30668 -3.52662 0
M  V30 880 H 78.0623 2.33431 -2.28424 0
M  V30 881 H 76.7213 0.660782 -3.60596 0
M  V30 882 H 76.3693 3.11265 -3.95124 0
M  V30 883 H 76.0693 2.19718 -5.44975 0
M  V30 884 H 77.5933 3.10908 -5.25517 0
M  V30 885 H 79.0073 0.875072 -5.66582 0
M  V30 886 H 77.4043 0.157428 -5.99893 0
M  V30 887 H 78.4743 -0.60822 -4.8107 0
M  V30 888 N 79.8174 1.5752 -0.0501392 0
M  V30 889 C 80.7474 2.14502 0.922566 0
M  V30 890 C 81.7284 1.06642 1.3252 0
M  V30 891 O 82.9134 1.34577 1.4001 0
M  V30 892 C 80.0434 2.68916 2.19776 0
M  V30 893 C 78.9974 3.8175 1.93523 0
M  V30 894 C 78.3234 4.22677 3.27487 0
M  V30 895 C 79.6234 5.06932 1.25765 0
M  V30 896 H 81.3174 2.9603 0.447952 0
M  V30 897 H 78.8634 1.42401 0.214024 0
M  V30 898 H 80.8164 3.07419 2.88222 0
M  V30 899 H 79.5404 1.84578 2.69441 0
M  V30 900 H 78.1994 3.43718 1.27489 0
M  V30 901 H 77.8474 3.35291 3.74952 0
M  V30 902 H 77.5474 4.98725 3.1072 0
M  V30 903 H 79.0714 4.63779 3.97166 0
M  V30 904 H 80.4854 5.42888 1.84244 0
M  V30 905 H 78.8824 5.88116 1.19328 0
M  V30 906 H 79.9524 4.84337 0.233536 0
M  V30 907 N 81.2955 -0.223234 1.56011 0
M  V30 908 C 82.2425 -1.27664 1.92277 0
M  V30 909 C 83.2125 -1.46659 0.779763 0
M  V30 910 O 84.3975 -1.60256 1.03551 0
M  V30 911 C 81.5375 -2.62234 2.24338 0
M  V30 912 C 80.6505 -2.51051 3.51564 0
M  V30 913 C 79.7855 -3.78133 3.7308 0
M  V30 914 C 78.8245 -3.61665 4.93827 0
M  V30 915 N 77.9615 -4.80693 5.11741 0
M  V30 916 H 82.8015 -0.960358 2.82101 0
M  V30 917 H 80.3385 -0.462901 1.39627 0
M  V30 918 H 82.2965 -3.40596 2.40936 0
M  V30 919 H 80.9265 -2.91961 1.3769 0
M  V30 920 H 79.9785 -1.64132 3.43169 0
M  V30 921 H 81.2905 -2.34803 4.40079 0
M  V30 922 H 80.4445 -4.64938 3.89766 0
M  V30 923 H 79.1835 -3.97304 2.82844 0
M  V30 924 H 78.1885 -2.73244 4.77093 0
M  V30 925 H 79.4135 -3.43966 5.85546 0
M  V30 926 H 77.3595 -5.00181 4.24446 0
M  V30 927 H 77.2765 -4.67165 5.94384 0
M  V30 928 H 78.5445 -5.6893 5.3286 0
M  V30 929 N 82.7736 -1.49793 -0.48987 0
M  V30 930 C 83.7056 -1.63413 -1.60713 0
M  V30 931 C 84.7186 -0.516329 -1.54395 0
M  V30 932 O 85.9076 -0.788812 -1.60125 0
M  V30 933 C 83.0076 -1.58516 -2.99543 0
M  V30 934 C 82.1806 -2.86016 -3.30928 0
M  V30 935 C 81.2396 -2.74018 -4.49222 0
M  V30 936 O 80.2656 -3.47964 -4.50455 0
M  V30 937 N 81.4676 -1.86309 -5.4979 0
M  V30 938 H 84.2326 -2.59777 -1.49452 0
M  V30 939 H 81.7936 -1.47022 -0.677955 0
M  V30 940 H 83.7856 -1.48128 -3.76617 0
M  V30 941 H 82.3556 -0.69965 -3.0467 0
M  V30 942 H 81.5756 -3.10672 -2.42645 0
M  V30 943 H 82.8636 -3.70521 -3.487 0
M  V30 944 H 82.2616 -1.2551 -5.51601 0
M  V30 945 H 80.8186 -1.81837 -6.25922 0
M  V30 946 N 84.2517 0.741722 -1.39055 0
M  V30 947 C 85.1817 1.869 -1.39966 0
M  V30 948 C 86.1627 1.6804 -0.26392 0
M  V30 949 O 87.3477 1.88458 -0.468755 0
M  V30 950 C 84.4777 3.24572 -1.23574 0
M  V30 951 C 83.4317 3.58056 -2.34477 0
M  V30 952 C 82.7577 4.94593 -2.0318 0
M  V30 953 C 84.0577 3.61716 -3.76774 0
M  V30 954 H 85.7517 1.86395 -2.34302 0
M  V30 955 H 83.2977 0.895361 -1.1278 0
M  V30 956 H 85.2507 4.031 -1.22834 0
M  V30 957 H 83.9747 3.25587 -0.257045 0
M  V30 958 H 82.6337 2.81854 -2.34423 0
M  V30 959 H 82.2817 4.92181 -1.03765 0
M  V30 960 H 81.9817 5.17964 -2.77465 0
M  V30 961 H 83.5057 5.75486 -2.04079 0
M  V30 962 H 84.9197 4.30335 -3.78794 0
M  V30 963 H 83.3167 3.96603 -4.50362 0
M  V30 964 H 84.3867 2.61672 -4.08235 0
M  V30 965 N 85.7298 1.2412 0.971189 0
M  V30 966 C 87.1458 1.00584 1.23916 0
M  V30 967 C 87.3458 -0.287481 1.99439 0
M  V30 968 O 86.4018 -1.00454 2.31658 0
M  V30 969 C 87.7148 2.21864 2.0297 0
M  V30 970 C 89.2628 2.26452 2.16076 0
M  V30 971 C 89.7378 3.47343 2.98524 0
M  V30 972 N 91.2288 3.47639 3.06107 0
M  V30 973 C 91.9638 4.37837 3.70251 0
M  V30 974 N 91.4598 5.38286 4.36142 0
M  V30 975 N 93.2528 4.25558 3.67228 0
M  V30 976 H 85.4038 2.07236 0.465499 0
M  V30 977 H 87.6668 0.909236 0.268315 0
M  V30 978 H 87.3728 3.15771 1.54861 0
M  V30 979 H 87.2468 2.23698 3.03709 0
M  V30 980 H 89.6338 1.33078 2.6339 0
M  V30 981 H 89.7148 2.28645 1.14696 0
M  V30 982 H 89.3588 4.41029 2.51905 0
M  V30 983 H 89.2888 3.42393 4.00093 0
M  V30 984 H 91.7798 2.74966 2.59233 0
M  V30 985 H 92.0928 6.03352 4.82894 0
M  V30 986 H 90.4378 5.42176 4.34822 0
M  V30 987 H 93.6288 3.46322 3.14927 0
M  V30 988 H 93.8018 4.96054 4.16935 0
M  V30 989 N 87.2079 -1.17134 1.05439 0
M  V30 990 C 88.1579 -2.1919 0.627675 0
M  V30 991 C 89.1419 -1.57328 -0.337147 0
M  V30 992 O 90.3339 -1.76329 -0.153976 0
M  V30 993 C 87.4629 -3.43299 0.00651435 0
M  V30 994 C 86.5489 -4.12255 0.995312 0
M  V30 995 N 86.9399 -4.56997 2.16765 0
M  V30 996 C 85.2379 -4.38316 0.824336 0
M  V30 997 C 85.9389 -5.10239 2.7934 0
M  V30 998 N 84.9149 -5.02595 2.07122 0
M  V30 999 H 88.7169 -2.5149 1.52086 0
M  V30 1000 H 86.2309 -1.33491 0.924868 0
M  V30 1001 H 88.2279 -4.15693 -0.316965 0
M  V30 1002 H 86.8879 -3.1249 -0.882033 0
M  V30 1003 H 87.8989 -4.51006 2.54587 0
M  V30 1004 H 84.5759 -4.17498 -0.0129526 0
M  V30 1005 H 85.9659 -5.54961 3.78772 0
M  V30 1006 N 88.686 -0.835752 -1.33615 0
M  V30 1007 C 89.596 -0.269088 -2.33052 0
M  V30 1008 C 90.612 0.603251 -1.63208 0
M  V30 1009 O 91.788 0.508112 -1.94885 0
M  V30 1010 C 88.853 0.549091 -3.42324 0
M  V30 1011 C 87.914 -0.347156 -4.27894 0
M  V30 1012 C 87.147 0.43207 -5.31948 0
M  V30 1013 O 87.37 1.66409 -5.45586 0
M  V30 1014 O 86.304 -0.192298 -6.01593 0
M  V30 1015 H 90.13 -1.09243 -2.83372 0
M  V30 1016 H 87.715 -0.598198 -1.36901 0
M  V30 1017 H 89.597 1.01414 -4.09015 0
M  V30 1018 H 88.272 1.34955 -2.94226 0
M  V30 1019 H 87.179 -0.859979 -3.64081 0
M  V30 1020 H 88.512 -1.1123 -4.79467 0
M  V30 1021 N 90.1641 1.46063 -0.591896 0
M  V30 1022 C 91.1121 2.32124 0.148739 0
M  V30 1023 C 92.1061 1.45035 0.875286 0
M  V30 1024 O 93.3121 1.61609 0.792632 0
M  V30 1025 H 89.6871 0.749024 0.066832 0
M  V30 1026 H 91.6581 2.92392 -0.595783 0
M  V30 1027 C 90.4071 3.28373 1.1431 0
M  V30 1028 H 89.7301 3.95371 0.59346 0
M  V30 1029 H 91.1701 3.91352 1.63155 0
M  V30 1030 C 89.6291 2.54393 2.20875 0
M  V30 1031 O 90.1591 2.31373 3.28374 0
M  V30 1032 N 88.3651 2.14797 1.95731 0
M  V30 1033 H 87.9121 2.33719 1.08319 0
M  V30 1034 H 87.8701 1.65619 2.67241 0
M  V30 1035 N 91.6422 0.330177 1.54103 0
M  V30 1036 C 92.5722 -0.525353 2.27513 0
M  V30 1037 C 93.5532 -1.11383 1.2856 0
M  V30 1038 O 94.7382 -1.13773 1.57383 0
M  V30 1039 C 91.8682 -1.6831 3.03791 0
M  V30 1040 C 90.8222 -1.2236 4.10137 0
M  V30 1041 C 90.1482 -2.46882 4.74293 0
M  V30 1042 C 91.4482 -0.333697 5.21233 0
M  V30 1043 H 93.1422 0.087013 2.99274 0
M  V30 1044 H 90.6882 0.0432893 1.43935 0
M  V30 1045 H 92.6412 -2.28795 3.5388 0
M  V30 1046 H 91.3652 -2.32216 2.29659 0
M  V30 1047 H 90.0242 -0.64165 3.60941 0
M  V30 1048 H 89.6722 -3.09165 3.96769 0
M  V30 1049 H 89.3722 -2.16825 5.46133 0
M  V30 1050 H 90.8962 -3.08117 5.27159 0
M  V30 1051 H 92.3102 -0.845013 5.67038 0
M  V30 1052 H 90.7072 -0.125612 5.99969 0
M  V30 1053 H 91.7772 0.633724 4.80741 0
M  V30 1054 N 93.1203 -1.57491 0.0584922 0
M  V30 1055 C 94.3663 -1.93264 -0.614558 0
M  V30 1056 C 94.6993 -0.937717 -1.7006 0
M  V30 1057 O 93.9743 0.0351652 -1.94468 0
M  V30 1058 C 94.2573 -3.3938 -1.20386 0
M  V30 1059 C 94.1103 -4.49625 -0.125375 0
M  V30 1060 C 95.4293 -3.86039 -2.11334 0
M  V30 1061 H 92.5483 -0.702791 -0.221933 0
M  V30 1062 H 95.1903 -1.8961 0.12175 0
M  V30 1063 H 93.3403 -3.42626 -1.83139 0
M  V30 1064 H 95.0123 -4.58506 0.506971 0
M  V30 1065 H 93.2553 -4.30354 0.545672 0
M  V30 1066 H 93.9263 -5.48967 -0.577861 0
M  V30 1067 H 96.4023 -3.84716 -1.58534 0
M  V30 1068 H 95.2783 -4.88914 -2.49507 0
M  V30 1069 H 95.5393 -3.23215 -3.01636 0
M  V30 1070 N 94.5984 0.214957 -1.56127 0
M  V30 1071 C 95.5464 1.28601 -1.93816 0
M  V30 1072 C 96.5404 1.48175 -0.821016 0
M  V30 1073 O 97.7464 1.49271 -1.0059 0
M  V30 1074 H 94.1214 0.431302 -0.616022 0
M  V30 1075 H 96.0924 0.940991 -2.83175 0
M  V30 1076 C 94.8414 2.62779 -2.27689 0
M  V30 1077 H 94.1644 2.48527 -3.13168 0
M  V30 1078 H 95.6044 3.36517 -2.57939 0
M  V30 1079 C 94.0634 3.18285 -1.10436 0
M  V30 1080 O 94.5934 4.00002 -0.368945 0
M  V30 1081 N 92.7994 2.7675 -0.886433 0
M  V30 1082 H 92.3464 2.10404 -1.48619 0
M  V30 1083 H 92.3044 3.14229 -0.103656 0
M  V30 1084 N 96.0765 1.50051 0.48192 0
M  V30 1085 C 97.0065 1.71046 1.58951 0
M  V30 1086 C 97.9875 0.559288 1.60642 0
M  V30 1087 O 99.1725 0.797243 1.77081 0
M  V30 1088 C 96.3025 1.79462 2.97339 0
M  V30 1089 C 95.2565 2.94558 3.10515 0
M  V30 1090 C 94.5825 2.88105 4.50444 0
M  V30 1091 C 95.8825 4.35227 2.88747 0
M  V30 1092 H 97.5765 2.6378 1.41635 0
M  V30 1093 H 95.1225 1.26936 0.679942 0
M  V30 1094 H 97.0755 1.92734 3.74742 0
M  V30 1095 H 95.7995 0.833412 3.15788 0
M  V30 1096 H 94.4585 2.80918 2.35543 0
M  V30 1097 H 94.1065 1.89853 4.65795 0
M  V30 1098 H 93.8065 3.65366 4.60197 0
M  V30 1099 H 95.3305 3.03412 5.29881 0
M  V30 1100 H 96.7445 4.49449 3.55905 0
M  V30 1101 H 95.1415 5.13856 3.09955 0
M  V30 1102 H 96.2115 4.48347 1.84696 0
M  V30 1103 N 97.5546 -0.734337 1.39446 0
M  V30 1104 C 98.4846 -1.86155 1.40955 0
M  V30 1105 C 99.4656 -1.67898 0.272827 0
M  V30 1106 O 100.651 -1.88207 0.478743 0
M  V30 1107 C 97.7806 -3.23912 1.25294 0
M  V30 1108 C 96.7346 -3.56808 2.36373 0
M  V30 1109 C 96.0606 -4.93508 2.058 0
M  V30 1110 C 97.3606 -3.59713 3.78687 0
M  V30 1111 H 99.0546 -1.8515 2.35287 0
M  V30 1112 H 96.6006 -0.889367 1.13253 0
M  V30 1113 H 98.5536 -4.02443 1.2497 0
M  V30 1114 H 97.2776 -3.25446 0.274308 0
M  V30 1115 H 95.9366 -2.80606 2.35914 0
M  V30 1116 H 95.5846 -4.91623 1.06374 0
M  V30 1117 H 95.2846 -5.16486 2.80208 0
M  V30 1118 H 96.8086 -5.74396 2.07128 0
M  V30 1119 H 98.2226 -4.2832 3.81071 0
M  V30 1120 H 96.6196 -3.94209 4.52459 0
M  V30 1121 H 97.6896 -2.59504 4.09617 0
M  V30 1122 N 99.0327 -1.24633 -0.964593 0
M  V30 1123 C 99.9427 -1.05859 -2.09359 0
M  V30 1124 C 100.959 0.00148855 -1.74 0
M  V30 1125 O 102.135 -0.197346 -2.00431 0
M  V30 1126 C 99.1997 -0.668879 -3.40187 0
M  V30 1127 C 98.2607 -1.80578 -3.89474 0
M  V30 1128 C 97.4937 -1.43457 -5.14058 0
M  V30 1129 O 97.7167 -0.325775 -5.69469 0
M  V30 1130 O 96.6507 -2.2613 -5.57807 0
M  V30 1131 H 100.477 -2.00516 -2.28094 0
M  V30 1132 H 98.0617 -1.03481 -1.0776 0
M  V30 1133 H 99.9437 -0.463211 -4.18846 0
M  V30 1134 H 98.6187 0.248536 -3.22744 0
M  V30 1135 H 97.5257 -2.06623 -3.11862 0
M  V30 1136 H 98.8587 -2.70208 -4.11398 0
M  V30 1137 N 100.511 1.16574 -1.06058 0
M  V30 1138 C 101.757 1.87324 -0.777022 0
M  V30 1139 C 102.09 1.81351 0.694645 0
M  V30 1140 O 101.365 1.22753 1.50871 0
M  V30 1141 C 101.648 3.36991 -1.26922 0
M  V30 1142 C 101.501 3.51667 -2.80447 0
M  V30 1143 C 102.82 4.3131 -0.87521 0
M  V30 1144 H 99.9388 0.680191 -0.28374 0
M  V30 1145 H 102.581 1.37036 -1.3161 0
M  V30 1146 H 100.731 3.79949 -0.81063 0
M  V30 1147 H 102.403 3.17664 -3.34495 0
M  V30 1148 H 100.646 2.93656 -3.19294 0
M  V30 1149 H 101.317 4.56766 -3.0995 0
M  V30 1150 H 103.793 3.9624 -1.27014 0
M  V30 1151 H 102.669 5.34545 -1.2471 0
M  V30 1152 H 102.93 4.41552 0.220071 0
M  V30 1153 N 101.989 0.842826 1.3317 0
M  V30 1154 C 103.229 0.446574 1.99462 0
M  V30 1155 C 103.593 -0.976818 1.65295 0
M  V30 1156 O 104.794 -1.477 2.24584 0
M  V30 1157 C 103.065 0.665353 3.51152 0
M  V30 1158 S 104.624 0.364911 4.3728 0
M  V30 1159 H 101.442 0.167803 0.690915 0
M  V30 1160 H 104.044 1.09297 1.62094 0
M  V30 1161 H 102.748 1.7006 3.73507 0
M  V30 1162 H 102.279 0.00494568 3.934 0
M  V30 1163 H 104.294 -0.813761 4.89482 0
M  V30 1164 N 103.467 -1.45747 0.599634 0
M  V30 1165 C 104.414 -2.30467 -0.123849 0
M  V30 1166 C 105.384 -1.41632 -0.86774 0
M  V30 1167 O 106.569 -1.70568 -0.855056 0
M  V30 1168 C 103.709 -3.26402 -1.12051 0
M  V30 1169 C 102.822 -4.3034 -0.37832 0
M  V30 1170 C 101.957 -5.13389 -1.364 0
M  V30 1171 C 100.996 -6.09061 -0.609171 0
M  V30 1172 N 100.133 -6.84918 -1.54374 0
M  V30 1173 H 104.973 -2.91802 0.604627 0
M  V30 1174 H 102.51 -1.43797 0.309972 0
M  V30 1175 H 104.468 -3.80482 -1.7114 0
M  V30 1176 H 103.098 -2.66839 -1.8165 0
M  V30 1177 H 102.15 -3.78984 0.327929 0
M  V30 1178 H 103.462 -4.98354 0.210997 0
M  V30 1179 H 102.616 -5.7183 -2.02719 0
M  V30 1180 H 101.355 -4.45376 -1.98725 0
M  V30 1181 H 100.36 -5.49758 0.0676979 0
M  V30 1182 H 101.585 -6.79099 0.00891991 0
M  V30 1183 H 99.531 -6.19601 -2.15478 0
M  V30 1184 H 99.448 -7.49254 -1.00766 0
M  V30 1185 H 100.716 -7.47906 -2.19676 0
M  V30 1186 N 104.945 -0.338344 -1.53925 0
M  V30 1187 C 105.892 0.520845 -2.24846 0
M  V30 1188 C 106.862 1.09976 -1.24477 0
M  V30 1189 O 108.047 1.13735 -1.53196 0
M  V30 1190 C 105.187 1.6685 -3.02084 0
M  V30 1191 C 104.3 1.11739 -4.17299 0
M  V30 1192 C 103.435 2.23193 -4.82036 0
M  V30 1193 C 102.474 1.65407 -5.89328 0
M  V30 1194 N 101.611 2.70582 -6.47866 0
M  V30 1195 H 106.451 -0.0904881 -2.97863 0
M  V30 1196 H 103.988 -0.0564282 -1.46992 0
M  V30 1197 H 105.946 2.34407 -3.45122 0
M  V30 1198 H 104.576 2.2509 -2.31375 0
M  V30 1199 H 103.628 0.332919 -3.7894 0
M  V30 1200 H 104.94 0.654677 -4.94485 0
M  V30 1201 H 104.094 2.98626 -5.28117 0
M  V30 1202 H 102.833 2.72807 -4.04262 0
M  V30 1203 H 101.838 0.884779 -5.42634 0
M  V30 1204 H 103.063 1.16652 -6.69006 0
M  V30 1205 H 101.009 3.1946 -5.72959 0
M  V30 1206 H 100.926 2.28917 -7.20509 0
M  V30 1207 H 102.194 3.45799 -6.98601 0
M  V30 1208 N 106.423 1.57458 -0.0668435 0
M  V30 1209 C 107.37 2.12439 0.902122 0
M  V30 1210 C 108.34 1.03565 1.2986 0
M  V30 1211 O 109.525 1.312 1.38532 0
M  V30 1212 C 106.665 2.6865 2.16614 0
M  V30 1213 C 105.778 3.91663 1.82274 0
M  V30 1214 C 104.913 4.36134 3.0325 0
M  V30 1215 C 103.952 5.51808 2.64904 0
M  V30 1216 N 103.089 5.9126 3.78624 0
M  V30 1217 H 107.929 2.94934 0.426382 0
M  V30 1218 H 105.466 1.4575 0.198819 0
M  V30 1219 H 107.424 2.99346 2.90599 0
M  V30 1220 H 106.054 1.88928 2.61737 0
M  V30 1221 H 105.106 3.6746 0.983719 0
M  V30 1222 H 106.418 4.75693 1.50059 0
M  V30 1223 H 105.572 4.68465 3.85519 0
M  V30 1224 H 104.311 3.50948 3.38655 0
M  V30 1225 H 103.316 5.19133 1.81055 0
M  V30 1226 H 104.541 6.38722 2.30675 0
M  V30 1227 H 102.487 5.09024 4.138 0
M  V30 1228 H 102.404 6.70018 3.5016 0
M  V30 1229 H 103.672 6.28212 4.61486 0
M  V30 1230 N 107.901 -0.206675 1.56239 0
M  V30 1231 C 108.848 -1.25617 1.93621 0
M  V30 1232 C 109.818 -1.45824 0.795274 0
M  V30 1233 O 111.003 -1.59148 1.05245 0
M  V30 1234 C 108.143 -2.59839 2.27107 0
M  V30 1235 C 107.256 -2.47308 3.54207 0
M  V30 1236 C 106.391 -3.74155 3.7707 0
M  V30 1237 C 105.43 -3.56407 4.97635 0
M  V30 1238 N 104.567 -4.75238 5.1681 0
M  V30 1239 H 109.407 -0.930383 2.83104 0
M  V30 1240 H 106.944 -0.448065 1.4011 0
M  V30 1241 H 108.902 -3.38021 2.44535 0
M  V30 1242 H 107.532 -2.90485 1.40778 0
M  V30 1243 H 106.584 -1.60483 3.4489 0
M  V30 1244 H 107.896 -2.30122 4.42544 0
M  V30 1245 H 107.05 -4.60778 3.94675 0
M  V30 1246 H 105.789 -3.94282 2.87042 0
M  V30 1247 H 104.794 -2.68168 4.79964 0
M  V30 1248 H 106.019 -3.37736 5.89161 0
M  V30 1249 H 103.965 -4.95651 4.29728 0
M  V30 1250 H 103.882 -4.60835 5.99306 0
M  V30 1251 H 105.15 -5.63246 5.38864 0
M  V30 1252 N 109.379 -1.50304 -0.473955 0
M  V30 1253 C 110.795 -1.37667 -0.807466 0
M  V30 1254 C 110.995 -0.430555 -1.96846 0
M  V30 1255 O 110.051 0.127874 -2.52176 0
M  V30 1256 C 111.364 -2.78974 -1.12223 0
M  V30 1257 C 112.912 -2.87868 -1.22885 0
M  V30 1258 C 113.387 -4.30003 -1.57676 0
M  V30 1259 N 114.878 -4.3294 -1.64673 0
M  V30 1260 C 115.613 -5.3991 -1.93091 0
M  V30 1261 N 115.109 -6.57092 -2.1955 0
M  V30 1262 N 116.902 -5.27351 -1.94569 0
M  V30 1263 H 109.053 -2.10394 0.291212 0
M  V30 1264 H 111.316 -0.945575 0.0677609 0
M  V30 1265 H 111.022 -3.50031 -0.342229 0
M  V30 1266 H 110.896 -3.16038 -2.05913 0
M  V30 1267 H 113.283 -2.17032 -1.99953 0
M  V30 1268 H 113.364 -2.54352 -0.271814 0
M  V30 1269 H 113.008 -5.01375 -0.81149 0
M  V30 1270 H 112.938 -4.61004 -2.54525 0
M  V30 1271 H 115.429 -3.48441 -1.46277 0
M  V30 1272 H 115.742 -7.34425 -2.405 0
M  V30 1273 H 114.087 -6.60272 -2.16948 0
M  V30 1274 H 117.278 -4.34801 -1.73394 0
M  V30 1275 H 117.451 -6.10805 -2.16381 0
M  V30 1276 N 110.857 0.726932 -1.39834 0
M  V30 1277 C 112.103 1.48771 -1.38704 0
M  V30 1278 C 112.458 1.92394 0.0146387 0
M  V30 1279 O 111.751 1.64474 0.982797 0
M  V30 1280 C 111.945 2.73495 -2.30077 0
M  V30 1281 C 111.774 2.42068 -3.78989 0
M  V30 1282 C 110.544 2.33966 -4.4787 0
M  V30 1283 C 112.742 2.0708 -4.70768 0
M  V30 1284 N 110.724 1.95095 -5.82075 0
M  V30 1285 C 112.095 1.78719 -5.93683 0
M  V30 1286 C 114.15 1.93618 -4.58712 0
M  V30 1287 C 112.853 1.3825 -7.05889 0
M  V30 1288 C 114.879 1.54553 -5.70848 0
M  V30 1289 C 114.241 1.27082 -6.92842 0
M  V30 1290 H 110.34 0.542919 -0.562817 0
M  V30 1291 H 112.924 0.84408 -1.75452 0
M  V30 1292 H 111.095 3.35625 -1.95474 0
M  V30 1293 H 112.827 3.39755 -2.19883 0
M  V30 1294 H 109.582 2.51331 -4.0141 0
M  V30 1295 H 110.006 1.7823 -6.53118 0
M  V30 1296 H 114.648 2.13522 -3.64922 0
M  V30 1297 H 112.366 1.17088 -7.99572 0
M  V30 1298 H 115.952 1.44731 -5.6351 0
M  V30 1299 H 114.832 0.973069 -7.78139 0
M  V30 1300 N 112.336 1.25143 0.95797 0
M  V30 1301 C 113.566 1.12261 1.73439 0
M  V30 1302 C 113.974 -0.326715 1.86358 0
M  V30 1303 O 113.317 -1.2367 1.35836 0
M  V30 1304 C 113.379 1.69966 3.16784 0
M  V30 1305 C 113.043 3.18936 3.27305 0
M  V30 1306 C 114.04 4.15968 3.11877 0
M  V30 1307 C 111.725 3.59083 3.51234 0
M  V30 1308 C 113.719 5.51126 3.20217 0
M  V30 1309 C 111.406 4.9438 3.5921 0
M  V30 1310 C 112.404 5.90211 3.43716 0
M  V30 1311 O 112.092 7.23046 3.51368 0
M  V30 1312 H 111.824 0.392476 0.550399 0
M  V30 1313 H 114.378 1.65927 1.21068 0
M  V30 1314 H 112.608 1.10744 3.70503 0
M  V30 1315 H 114.297 1.52232 3.76272 0
M  V30 1316 H 115.063 3.86292 2.93264 0
M  V30 1317 H 110.942 2.84989 3.62356 0
M  V30 1318 H 114.486 6.25905 3.0804 0
M  V30 1319 H 110.383 5.23723 3.77339 0
M  V30 1320 H 111.151 7.31097 3.6802 0
M  V30 1321 N 113.814 -1.1601 1.06675 0
M  V30 1322 C 114.744 -2.22688 0.702307 0
M  V30 1323 C 115.725 -1.67306 -0.307032 0
M  V30 1324 O 116.91 -1.93352 -0.181305 0
M  V30 1325 C 114.04 -3.47178 0.092038 0
M  V30 1326 C 112.994 -4.15477 1.02777 0
M  V30 1327 C 112.32 -5.33963 0.28061 0
M  V30 1328 C 113.62 -4.66019 2.35846 0
M  V30 1329 H 115.314 -2.53429 1.59419 0
M  V30 1330 H 112.86 -1.21813 0.767961 0
M  V30 1331 H 114.813 -4.21037 -0.174814 0
M  V30 1332 H 113.537 -3.15749 -0.834877 0
M  V30 1333 H 112.196 -3.43549 1.27944 0
M  V30 1334 H 111.844 -4.98788 -0.649545 0
M  V30 1335 H 111.544 -5.806 0.904258 0
M  V30 1336 H 113.068 -6.10596 0.021396 0
M  V30 1337 H 114.482 -5.3144 2.15045 0
M  V30 1338 H 112.879 -5.23293 2.93743 0
M  V30 1339 H 113.949 -3.82023 2.98641 0
M  V30 1340 N 115.292 -0.849877 -1.32721 0
M  V30 1341 C 116.538 -0.451591 -1.97708 0
M  V30 1342 C 116.871 0.989175 -1.6712 0
M  V30 1343 O 116.146 1.69334 -0.956891 0
M  V30 1344 C 116.429 -0.685598 -3.53513 0
M  V30 1345 C 116.282 -2.17444 -3.93749 0
M  V30 1346 C 117.601 -0.138874 -4.39881 0
M  V30 1347 H 114.72 -0.16555 -0.718166 0
M  V30 1348 H 117.362 -1.06742 -1.57182 0
M  V30 1349 H 115.512 -0.161416 -3.88165 0
M  V30 1350 H 117.184 -2.76433 -3.693 0
M  V30 1351 H 115.427 -2.65476 -3.43081 0
M  V30 1352 H 116.098 -2.28888 -5.02309 0
M  V30 1353 H 118.574 -0.587068 -4.11938 0
M  V30 1354 H 117.45 -0.332213 -5.47894 0
M  V30 1355 H 117.711 0.95806 -4.31594 0
M  V30 1356 N 116.77 1.45427 -0.607355 0
M  V30 1357 C 118.017 2.02241 -0.102455 0
M  V30 1358 C 118.345 1.4758 1.26691 0
M  V30 1359 O 117.6 0.640468 1.84923 0
M  V30 1360 C 117.899 3.57398 -0.0129263 0
M  V30 1361 C 117.565 4.3121 -1.31792 0
M  V30 1362 C 116.227 4.51092 -1.67539 0
M  V30 1363 C 118.579 4.73401 -2.18039 0
M  V30 1364 C 115.907 5.10422 -2.89285 0
M  V30 1365 C 118.259 5.34078 -3.39034 0
M  V30 1366 C 116.923 5.52184 -3.75033 0
M  V30 1367 H 116.193 0.740051 -0.037491 0
M  V30 1368 H 118.84 1.74494 -0.788926 0
M  V30 1369 H 117.145 3.84421 0.756806 0
M  V30 1370 H 118.842 3.99061 0.393881 0
M  V30 1371 H 115.432 4.16047 -1.02968 0
M  V30 1372 H 119.616 4.57774 -1.91721 0
M  V30 1373 H 114.872 5.22629 -3.17283 0
M  V30 1374 H 119.046 5.65724 -4.06115 0
M  V30 1375 H 116.673 5.97925 -4.69457 0
M  V30 1376 N 118.248 0.346503 1.53744 0
M  V30 1377 C 119.158 -0.517293 2.28826 0
M  V30 1378 C 120.174 -1.10935 1.3405 0
M  V30 1379 O 121.35 -1.1244 1.6709 0
M  V30 1380 C 118.415 -1.65098 3.04866 0
M  V30 1381 C 117.476 -1.0884 4.15274 0
M  V30 1382 C 116.709 -2.16806 4.87679 0
M  V30 1383 O 116.932 -3.3758 4.59778 0
M  V30 1384 O 115.866 -1.80934 5.74061 0
M  V30 1385 H 119.692 0.0931396 3.03557 0
M  V30 1386 H 117.277 0.111458 1.48984 0
M  V30 1387 H 119.159 -2.31053 3.5241 0
M  V30 1388 H 117.834 -2.24717 2.32989 0
M  V30 1389 H 116.741 -0.3933 3.72027 0
M  V30 1390 H 118.074 -0.537036 4.89261 0
M  V30 1391 N 119.726 -1.57421 0.075193 0
M  V30 1392 C 120.973 -1.93618 -0.593146 0
M  V30 1393 C 121.301 -0.955484 -1.69413 0
M  V30 1394 O 120.556 0.0283251 -1.9568 0
M  V30 1395 C 120.855 -3.36428 -1.20626 0
M  V30 1396 C 120.521 -4.50307 -0.231078 0
M  V30 1397 C 119.183 -4.81186 0.0371936 0
M  V30 1398 C 121.535 -5.19374 0.435888 0
M  V30 1399 C 118.863 -5.78466 0.979461 0
M  V30 1400 C 121.215 -6.17665 1.3665 0
M  V30 1401 C 119.879 -6.46958 1.6432 0
M  V30 1402 H 119.149 -0.708499 -0.217047 0
M  V30 1403 H 121.796 -1.90937 0.146793 0
M  V30 1404 H 120.101 -3.35592 -2.02201 0
M  V30 1405 H 121.798 -3.61727 -1.73073 0
M  V30 1406 H 118.388 -4.26227 -0.450357 0
M  V30 1407 H 122.572 -4.95711 0.241748 0
M  V30 1408 H 117.828 -5.99487 1.20106 0
M  V30 1409 H 122.002 -6.70284 1.88924 0
M  V30 1410 H 119.629 -7.2215 2.37494 0
M  V30 1411 N 121.204 0.198386 -1.56346 0
M  V30 1412 C 122.45 0.920648 -1.80698 0
M  V30 1413 C 122.783 1.83045 -0.648697 0
M  V30 1414 O 122.058 1.91308 0.350925 0
M  V30 1415 C 122.341 1.73971 -3.15287 0
M  V30 1416 C 122.194 0.85485 -4.41602 0
M  V30 1417 C 123.513 2.71296 -3.46535 0
M  V30 1418 H 120.632 0.333261 -0.657348 0
M  V30 1419 H 123.274 0.188198 -1.89066 0
M  V30 1420 H 121.424 2.36416 -3.08285 0
M  V30 1421 H 123.096 0.245362 -4.60647 0
M  V30 1422 H 121.339 0.161398 -4.335 0
M  V30 1423 H 122.01 1.46286 -5.32264 0
M  V30 1424 H 124.486 2.18983 -3.53816 0
M  V30 1425 H 123.362 3.2569 -4.41834 0
M  V30 1426 H 123.623 3.5018 -2.69864 0
M  V30 1427 N 122.682 1.50554 0.465978 0
M  V30 1428 C 123.959 1.5232 1.22712 0
M  V30 1429 C 124.339 0.270807 2.09356 0
M  V30 1430 O 123.687 -0.745541 2.15995 0
M  V30 1431 C 123.897 2.82175 2.05374 0
M  V30 1432 C 125.245 3.33033 2.6339 0
M  V30 1433 O 126.269 2.83531 2.15612 0
M  V30 1434 O 125.128 4.19336 3.50456 0
M  V30 1435 H 122.222 0.611183 0.557122 0
M  V30 1436 H 124.768 1.62847 0.477381 0
M  V30 1437 H 123.54 3.64797 1.41558 0
M  V30 1438 H 123.163 2.74675 2.87471 0
M  V30 1439 N 124.16 -0.719506 1.40217 0
M  V30 1440 C 125.11 -1.8251 1.36653 0
M  V30 1441 C 126.094 -1.59028 0.244732 0
M  V30 1442 O 127.286 -1.70268 0.483524 0
M  V30 1443 C 124.415 -3.20599 1.22763 0
M  V30 1444 C 123.501 -3.49858 2.39708 0
M  V30 1445 N 123.892 -3.49957 3.6519 0
M  V30 1446 C 122.19 -3.80297 2.33002 0
M  V30 1447 C 122.891 -3.77449 4.42614 0
M  V30 1448 N 121.867 -3.96002 3.72402 0
M  V30 1449 H 125.669 -1.80914 2.31619 0
M  V30 1450 H 123.183 -0.918455 1.33933 0
M  V30 1451 H 125.18 -3.99766 1.18292 0
M  V30 1452 H 123.84 -3.23424 0.287614 0
M  V30 1453 H 124.851 -3.309 3.98404 0
M  V30 1454 H 121.528 -3.90635 1.47346 0
M  V30 1455 H 122.918 -3.83863 5.51451 0
M  V30 1456 N 125.638 -1.25649 -0.95132 0
M  V30 1457 C 126.866 -1.13343 -1.73092 0
M  V30 1458 C 127.281 0.312434 -1.86197 0
M  V30 1459 O 126.638 1.21465 -1.36207 0
M  V30 1460 C 126.689 -1.78602 -3.14299 0
M  V30 1461 O 126.41 -3.17537 -3.01831 0
M  V30 1462 C 127.911 -1.72119 -4.08522 0
M  V30 1463 H 125.131 -0.395181 -0.542285 0
M  V30 1464 H 127.675 -1.66076 -1.19328 0
M  V30 1465 H 125.83 -1.29832 -3.64996 0
M  V30 1466 H 126.244 -3.49676 -3.90931 0
M  V30 1467 H 127.718 -2.22435 -5.052 0
M  V30 1468 H 128.195 -0.685635 -4.33815 0
M  V30 1469 H 128.801 -2.20393 -3.63741 0
M  V30 1470 N 127.117 1.15442 -1.07289 0
M  V30 1471 C 128.366 1.85557 -0.790669 0
M  V30 1472 C 128.679 1.83186 0.685739 0
M  V30 1473 O 129.885 2.48977 1.0827 0
M  V30 1474 C 128.341 3.33038 -1.36433 0
M  V30 1475 C 127.949 3.43856 -2.8717 0
M  V30 1476 C 129.693 4.0834 -1.1601 0
M  V30 1477 C 127.6 4.85482 -3.3773 0
M  V30 1478 H 126.53 0.695122 -0.292098 0
M  V30 1479 H 129.181 1.30219 -1.29287 0
M  V30 1480 H 127.563 3.88043 -0.789864 0
M  V30 1481 H 128.737 2.98961 -3.50655 0
M  V30 1482 H 127.052 2.81998 -3.06376 0
M  V30 1483 H 129.649 5.12859 -1.51262 0
M  V30 1484 H 129.992 4.16182 -0.0991007 0
M  V30 1485 H 130.525 3.59603 -1.70089 0
M  V30 1486 H 127.264 4.82823 -4.43353 0
M  V30 1487 H 126.784 5.30961 -2.78999 0
M  V30 1488 H 128.463 5.54335 -3.33648 0
M  V30 1489 N 128.595 0.856903 1.32268 0
M  V30 1490 C 129.525 0.31858 2.31316 0
M  V30 1491 C 130.506 -0.583487 1.59779 0
M  V30 1492 O 131.691 -0.503259 1.87566 0
M  V30 1493 C 128.821 -0.491979 3.43798 0
M  V30 1494 C 127.775 0.315849 4.26833 0
M  V30 1495 C 127.101 -0.619586 5.31098 0
M  V30 1496 C 128.401 1.54282 4.98993 0
M  V30 1497 H 130.095 1.14621 2.76591 0
M  V30 1498 H 127.641 0.552613 1.32974 0
M  V30 1499 H 129.594 -0.879012 4.1213 0
M  V30 1500 H 128.318 -1.35299 2.97257 0
M  V30 1501 H 126.977 0.684664 3.6015 0
M  V30 1502 H 126.625 -1.47751 4.8081 0
M  V30 1503 H 126.325 -0.0830621 5.87541 0
M  V30 1504 H 127.849 -1.00375 6.02293 0
M  V30 1505 H 129.263 1.22796 5.59995 0
M  V30 1506 H 127.66 2.01745 5.65172 0
M  V30 1507 H 128.73 2.30285 4.26728 0
M  V30 1508 N 130.073 -1.45103 0.615059 0
M  V30 1509 C 131.35 -1.95549 0.0448276 0
M  V30 1510 C 131.73 -1.55737 -1.4251 0
M  V30 1511 O 131.078 -0.823556 -2.13143 0
M  V30 1512 C 131.288 -3.48098 0.250785 0
M  V30 1513 C 132.636 -4.24384 0.135509 0
M  V30 1514 O 133.66 -3.55738 0.181299 0
M  V30 1515 O 132.519 -5.46493 0.0268878 0
M  V30 1516 H 129.613 -0.8264 -0.0314845 0
M  V30 1517 H 132.159 -1.55232 0.685642 0
M  V30 1518 H 130.931 -3.7007 1.27139 0
M  V30 1519 H 130.554 -3.95323 -0.424937 0
M  V30 1520 N 131.551 -0.354651 -1.53558 0
M  V30 1521 C 132.828 0.294281 -1.93374 0
M  V30 1522 C 133.208 1.67313 -1.28723 0
M  V30 1523 O 132.556 2.24179 -0.442247 0
M  V30 1524 C 132.766 0.355445 -3.47185 0
M  V30 1525 C 134.114 0.601007 -4.20325 0
M  V30 1526 O 135.138 0.437106 -3.53508 0
M  V30 1527 O 133.997 0.919322 -5.38712 0
M  V30 1528 H 131.091 0.174033 -0.808481 0
M  V30 1529 H 133.637 -0.406638 -1.64756 0
M  V30 1530 H 132.409 -0.611729 -3.86489 0
M  V30 1531 H 132.032 1.1027 -3.82003 0
M  V30 1532 N 133.029 1.57378 -0.0835403 0
M  V30 1533 C 133.959 2.1641 0.87686 0
M  V30 1534 C 134.94 1.09429 1.30228 0
M  V30 1535 O 136.125 1.37516 1.37124 0
M  V30 1536 C 133.255 2.73517 2.14022 0
M  V30 1537 C 132.209 3.85769 1.85381 0
M  V30 1538 C 131.535 4.29529 3.18448 0
M  V30 1539 C 132.835 5.09486 1.14984 0
M  V30 1540 H 134.529 2.96914 0.385059 0
M  V30 1541 H 132.075 1.42823 0.18377 0
M  V30 1542 H 134.028 3.13463 2.81636 0
M  V30 1543 H 132.752 1.90252 2.65465 0
M  V30 1544 H 131.411 3.46345 1.20169 0
M  V30 1545 H 131.059 3.43169 3.67755 0
M  V30 1546 H 130.759 5.05204 3.00071 0
M  V30 1547 H 132.283 4.72099 3.8724 0
M  V30 1548 H 133.697 5.46674 1.72687 0
M  V30 1549 H 132.094 5.90515 1.06826 0
M  V30 1550 H 133.164 4.84724 0.130749 0
M  V30 1551 N 134.507 -0.190092 1.56449 0
M  V30 1552 C 135.417 -1.25591 1.98152 0
M  V30 1553 C 136.433 -1.49519 0.889944 0
M  V30 1554 O 137.609 -1.62036 1.19609 0
M  V30 1555 C 134.674 -2.57916 2.3169 0
M  V30 1556 C 133.735 -2.42015 3.5458 0
M  V30 1557 C 132.968 -3.6803 3.8651 0
M  V30 1558 O 133.191 -4.72413 3.1966 0
M  V30 1559 O 132.125 -3.6326 4.79923 0
M  V30 1560 H 135.951 -0.931988 2.89046 0
M  V30 1561 H 133.536 -0.395488 1.4407 0
M  V30 1562 H 135.418 -3.36008 2.54316 0
M  V30 1563 H 134.093 -2.89925 1.43963 0
M  V30 1564 H 133 -1.62017 3.37196 0
M  V30 1565 H 134.333 -2.14937 4.4279 0
M  V30 1566 N 135.985 -1.50799 -0.457987 0
M  V30 1567 C 136.915 -1.73553 -1.5621 0
M  V30 1568 C 137.896 -0.584774 -1.59732 0
M  V30 1569 O 139.081 -0.825314 -1.7579 0
M  V30 1570 C 136.211 -1.84169 -2.94447 0
M  V30 1571 C 135.165 -2.99461 -3.0579 0
M  V30 1572 C 134.491 -2.95235 -4.45803 0
M  V30 1573 C 135.791 -4.39766 -2.81786 0
M  V30 1574 H 137.485 -2.66 -1.37421 0
M  V30 1575 H 135.031 -1.28002 -0.659662 0
M  V30 1576 H 136.984 -1.98672 -3.71628 0
M  V30 1577 H 135.708 -0.883545 -3.14422 0
M  V30 1578 H 134.367 -2.8463 -2.31044 0
M  V30 1579 H 134.015 -1.97239 -4.62715 0
M  V30 1580 H 133.715 -3.72642 -4.54326 0
M  V30 1581 H 135.239 -3.11803 -5.24987 0
M  V30 1582 H 136.653 -4.55054 -3.4871 0
M  V30 1583 H 135.05 -5.18722 -3.0174 0
M  V30 1584 H 136.12 -4.51229 -1.7754 0
M  V30 1585 N 137.463 0.71206 -1.40597 0
M  V30 1586 C 138.71 1.47197 -1.39065 0
M  V30 1587 C 139.038 1.94499 0.00583891 0
M  V30 1588 O 138.293 1.68752 0.99102 0
M  V30 1589 C 138.592 2.71039 -2.32965 0
M  V30 1590 C 138.258 2.42484 -3.80148 0
M  V30 1591 C 136.92 2.34406 -4.20247 0
M  V30 1592 C 139.272 2.18598 -4.73143 0
M  V30 1593 C 136.6 2.00516 -5.51371 0
M  V30 1594 C 138.952 1.8622 -6.0457 0
M  V30 1595 C 137.616 1.76626 -6.43708 0
M  V30 1596 H 136.886 0.538634 -0.508876 0
M  V30 1597 H 139.533 0.815325 -1.73276 0
M  V30 1598 H 137.838 3.41558 -1.91951 0
M  V30 1599 H 139.535 3.29138 -2.29061 0
M  V30 1600 H 136.125 2.49659 -3.4838 0
M  V30 1601 H 140.309 2.23793 -4.42979 0
M  V30 1602 H 135.565 1.91628 -5.80593 0
M  V30 1603 H 139.739 1.66752 -6.76141 0
M  V30 1604 H 137.366 1.50133 -7.45228 0
M  V30 1605 N 138.941 1.26152 0.944643 0
M  V30 1606 C 140.352 1.10454 1.50522 0
M  V30 1607 C 140.703 -0.31635 1.93633 0
M  V30 1608 O 139.828 -1.20746 1.79581 0
M  V30 1609 C 140.423 1.99891 2.73549 0
M  V30 1610 C 138.982 1.88348 3.25886 0
M  V30 1611 C 138.129 1.93447 1.9868 0
M  V30 1612 H 141.08 1.39292 0.760489 0
M  V30 1613 H 141.101 1.54477 3.47732 0
M  V30 1614 H 140.613 3.03297 2.42141 0
M  V30 1615 H 138.714 0.878636 3.62092 0
M  V30 1616 H 138.827 2.73696 3.93227 0
M  V30 1617 H 137.191 1.37456 2.14425 0
M  V30 1618 H 137.974 2.98476 1.69607 0
M  V30 1619 N 140.419 -1.14872 1.07899 0
M  V30 1620 C 141.367 -2.21857 0.698727 0
M  V30 1621 C 142.361 -1.66845 -0.293086 0
M  V30 1622 O 143.567 -1.79321 -0.156204 0
M  V30 1623 H 139.942 -0.722691 0.207899 0
M  V30 1624 H 141.913 -2.51205 1.61054 0
M  V30 1625 C 140.662 -3.47498 0.11858 0
M  V30 1626 H 139.985 -3.90154 0.872914 0
M  V30 1627 H 141.425 -4.23858 -0.109759 0
M  V30 1628 C 139.884 -3.16947 -1.1422 0
M  V30 1629 O 140.414 -3.3426 -2.22785 0
M  V30 1630 N 138.62 -2.70946 -1.05055 0
M  V30 1631 H 138.167 -2.57058 -0.167038 0
M  V30 1632 H 138.125 -2.50879 -1.89491 0
M  V30 1633 N 141.898 -0.863906 -1.31812 0
M  V30 1634 C 143.146 -0.470904 -1.96537 0
M  V30 1635 C 143.467 0.978771 -1.68657 0
M  V30 1636 O 142.737 1.6853 -0.998717 0
M  V30 1637 H 141.317 -0.171148 -0.72713 0
M  V30 1638 H 143.979 -1.10236 -1.60729 0
M  V30 1639 H 143.075 -0.623616 -3.05806 0
M  V30 1640 N 143.376 1.44774 -0.622745 0
M  V30 1641 C 144.306 2.33382 0.0741861 0
M  V30 1642 C 145.287 1.47719 0.843387 0
M  V30 1643 O 146.472 1.76458 0.810934 0
M  V30 1644 C 143.602 3.30663 1.06204 0
M  V30 1645 C 142.556 4.26079 0.405037 0
M  V30 1646 C 141.882 5.13165 1.5022 0
M  V30 1647 C 143.182 5.1781 -0.683414 0
M  V30 1648 H 144.876 2.91905 -0.665713 0
M  V30 1649 H 142.422 1.40363 -0.321587 0
M  V30 1650 H 144.375 3.9153 1.55827 0
M  V30 1651 H 143.099 2.70331 1.83272 0
M  V30 1652 H 141.758 3.66532 -0.0704683 0
M  V30 1653 H 141.406 4.49191 2.26355 0
M  V30 1654 H 141.106 5.77812 1.06803 0
M  V30 1655 H 142.63 5.76902 2.00041 0
M  V30 1656 H 144.044 5.72661 -0.270631 0
M  V30 1657 H 142.441 5.91015 -1.04023 0
M  V30 1658 H 143.511 4.59326 -1.55395 0
M  V30 1659 N 144.854 0.36279 1.53368 0
M  V30 1660 C 146.131 -0.284021 1.93527 0
M  V30 1661 C 146.511 -1.66628 1.29608 0
M  V30 1662 O 145.859 -2.23942 0.45413 0
M  V30 1663 C 146.069 -0.337028 3.47369 0
M  V30 1664 C 147.417 -0.578708 4.20638 0
M  V30 1665 O 148.441 -0.418352 3.53735 0
M  V30 1666 O 147.3 -0.89074 5.39192 0
M  V30 1667 H 144.394 -0.169743 0.809393 0
M  V30 1668 H 146.94 0.41537 1.64538 0
M  V30 1669 H 145.712 0.632217 3.86159 0
M  V30 1670 H 145.335 -1.08243 3.82582 0
M  V30 1671 N 146.332 -1.57332 0.0918853 0
M  V30 1672 C 147.562 -1.98286 -0.580205 0
M  V30 1673 C 147.97 -0.969713 -1.6246 0
M  V30 1674 O 147.313 0.0493501 -1.83634 0
M  V30 1675 C 147.375 -3.35603 -1.28882 0
M  V30 1676 C 147.039 -4.55285 -0.395559 0
M  V30 1677 C 148.036 -5.18687 0.355002 0
M  V30 1678 C 145.721 -5.01314 -0.314556 0
M  V30 1679 C 147.715 -6.26484 1.17458 0
M  V30 1680 C 145.402 -6.08979 0.508677 0
M  V30 1681 C 146.4 -6.71429 1.2519 0
M  V30 1682 O 146.088 -7.77018 2.06151 0
M  V30 1683 H 145.82 -0.656678 -0.160466 0
M  V30 1684 H 148.374 -2.04721 0.16688 0
M  V30 1685 H 146.604 -3.25842 -2.08241 0
M  V30 1686 H 148.293 -3.61026 -1.85512 0
M  V30 1687 H 149.059 -4.84058 0.302134 0
M  V30 1688 H 144.938 -4.5247 -0.882697 0
M  V30 1689 H 148.482 -6.75159 1.75518 0
M  V30 1690 H 144.379 -6.4304 0.563037 0
M  V30 1691 H 145.147 -7.93991 1.98799 0
M  V30 1692 N 147.81 0.181792 -1.56548 0
M  V30 1693 C 148.742 1.24956 -1.92142 0
M  V30 1694 C 149.755 1.41022 -0.813422 0
M  V30 1695 O 150.944 1.41212 -1.09186 0
M  V30 1696 C 148.044 2.61981 -2.14987 0
M  V30 1697 C 147.217 2.6735 -3.46183 0
M  V30 1698 C 146.276 3.85664 -3.5798 0
M  V30 1699 O 145.302 3.72148 -4.30691 0
M  V30 1700 N 146.504 5.01683 -2.92053 0
M  V30 1701 H 149.269 0.947329 -2.84334 0
M  V30 1702 H 146.83 0.371629 -1.57577 0
M  V30 1703 H 148.822 3.3958 -2.20154 0
M  V30 1704 H 147.392 2.84637 -1.2923 0
M  V30 1705 H 146.612 1.75925 -3.52766 0
M  V30 1706 H 147.9 2.67939 -4.32534 0
M  V30 1707 H 147.298 5.15564 -2.32832 0
M  V30 1708 H 145.855 5.77181 -3.0283 0
M  V30 1709 N 149.288 1.51039 0.449983 0
M  V30 1710 C 150.534 1.63322 1.20223 0
M  V30 1711 C 150.867 0.34241 1.91158 0
M  V30 1712 O 150.142 -0.657344 1.83055 0
M  V30 1713 C 150.425 2.82801 2.22925 0
M  V30 1714 C 150.278 4.21823 1.56157 0
M  V30 1715 C 151.597 2.97807 3.24035 0
M  V30 1716 H 148.716 0.594407 0.435718 0
M  V30 1717 H 151.358 1.83489 0.493136 0
M  V30 1718 H 149.508 2.65738 2.834 0
M  V30 1719 H 151.18 4.50526 0.991162 0
M  V30 1720 H 149.423 4.25105 0.864172 0
M  V30 1721 H 150.094 5.01391 2.30891 0
M  V30 1722 H 152.57 3.13497 2.73603 0
M  V30 1723 H 151.446 3.82992 3.93202 0
M  V30 1724 H 151.707 2.09328 3.89402 0
M  V30 1725 N 150.766 -0.704594 1.40972 0
M  V30 1726 C 152.012 -1.46675 1.40051 0
M  V30 1727 C 152.345 -1.94199 0.00641102 0
M  V30 1728 O 151.62 -1.68916 -0.964235 0
M  V30 1729 C 151.903 -2.68505 2.39952 0
M  V30 1730 C 151.756 -2.26805 3.88432 0
M  V30 1731 C 153.075 -3.70686 2.37233 0
M  V30 1732 H 150.194 -0.532015 0.510028 0
M  V30 1733 H 152.836 -0.803255 1.72185 0
M  V30 1734 H 150.986 -3.25114 2.1268 0
M  V30 1735 H 152.658 -1.75592 4.26574 0
M  V30 1736 H 150.901 -1.58685 4.03734 0
M  V30 1737 H 151.572 -3.14181 4.53866 0
M  V30 1738 H 154.048 -3.23731 2.61415 0
M  V30 1739 H 152.924 -4.53553 3.09162 0
M  V30 1740 H 153.185 -4.19754 1.38777 0
M  V30 1741 N 152.244 -1.26651 -0.937939 0
M  V30 1742 C 153.176 -1.04283 -2.04102 0
M  V30 1743 C 154.189 -0.00221014 -1.628 0
M  V30 1744 O 155.378 -0.242645 -1.76843 0
M  V30 1745 C 152.478 -0.557846 -3.34277 0
M  V30 1746 C 151.651 -1.66843 -4.04329 0
M  V30 1747 C 150.71 -1.18095 -5.12777 0
M  V30 1748 O 149.736 -1.87865 -5.37304 0
M  V30 1749 N 150.938 -0.0311006 -5.80492 0
M  V30 1750 H 153.703 -1.9927 -2.23856 0
M  V30 1751 H 151.264 -1.1808 -1.10764 0
M  V30 1752 H 153.256 -0.215836 -4.04124 0
M  V30 1753 H 151.826 0.298523 -3.11171 0
M  V30 1754 H 151.046 -2.18123 -3.28353 0
M  V30 1755 H 152.334 -2.41408 -4.47883 0
M  V30 1756 H 151.732 0.551486 -5.63005 0
M  V30 1757 H 150.289 0.251809 -6.51313 0
M  V30 1758 N 153.722 1.14298 -1.08507 0
M  V30 1759 C 154.669 2.19414 -0.715965 0
M  V30 1760 C 155.639 1.63399 0.298326 0
M  V30 1761 O 156.824 1.89929 0.182101 0
M  V30 1762 C 153.964 3.44845 -0.132534 0
M  V30 1763 C 153.077 4.15007 -1.19973 0
M  V30 1764 C 152.212 5.28024 -0.580048 0
M  V30 1765 C 151.251 5.9002 -1.62921 0
M  V30 1766 N 150.388 6.94485 -1.03125 0
M  V30 1767 H 155.228 2.50336 -1.61666 0
M  V30 1768 H 152.765 1.2293 -0.807882 0
M  V30 1769 H 154.723 4.16601 0.223454 0
M  V30 1770 H 153.353 3.14403 0.731467 0
M  V30 1771 H 152.405 3.41629 -1.67313 0
M  V30 1772 H 153.717 4.57178 -1.99473 0
M  V30 1773 H 152.871 6.06455 -0.172364 0
M  V30 1774 H 151.61 4.87076 0.246603 0
M  V30 1775 H 150.615 5.10291 -2.04654 0
M  V30 1776 H 151.84 6.33042 -2.45835 0
M  V30 1777 H 149.786 6.55612 -0.225711 0
M  V30 1778 H 149.703 7.35148 -1.76334 0
M  V30 1779 H 150.971 7.7679 -0.649458 0
M  V30 1780 N 155.201 0.870884 1.31352 0
M  V30 1781 C 156.431 0.496049 2.00557 0
M  V30 1782 C 156.839 -0.916241 1.65534 0
M  V30 1783 O 156.182 -1.61188 0.881134 0
M  V30 1784 C 156.244 0.574418 3.54881 0
M  V30 1785 C 155.908 1.94849 4.1338 0
M  V30 1786 C 156.905 2.91611 4.30417 0
M  V30 1787 C 154.59 2.25005 4.49086 0
M  V30 1788 C 156.584 4.16672 4.82352 0
M  V30 1789 C 154.271 3.50315 5.00722 0
M  V30 1790 C 155.269 4.45964 5.17306 0
M  V30 1791 O 154.957 5.69052 5.67833 0
M  V30 1792 H 154.689 0.191664 0.64826 0
M  V30 1793 H 157.243 1.17409 1.68536 0
M  V30 1794 H 155.473 -0.160549 3.86367 0
M  V30 1795 H 157.162 0.212879 4.05341 0
M  V30 1796 H 157.928 2.69622 4.03149 0
M  V30 1797 H 153.807 1.51332 4.35453 0
M  V30 1798 H 157.351 4.91336 4.95211 0
M  V30 1799 H 153.248 3.72147 5.27424 0
M  V30 1800 H 154.016 5.71236 5.86201 0
M  V30 1801 N 156.679 -1.44442 0.630414 0
M  V30 1802 C 157.609 -2.33418 -0.0618083 0
M  V30 1803 C 158.59 -1.48165 -0.835541 0
M  V30 1804 O 159.775 -1.76886 -0.801564 0
M  V30 1805 C 156.905 -3.31222 -1.04449 0
M  V30 1806 C 155.859 -4.26288 -0.382436 0
M  V30 1807 C 155.185 -5.13954 -1.47497 0
M  V30 1808 C 156.485 -5.1744 0.710865 0
M  V30 1809 H 158.179 -2.91548 0.681184 0
M  V30 1810 H 155.725 -1.40191 0.329026 0
M  V30 1811 H 157.678 -3.92351 -1.53748 0
M  V30 1812 H 156.402 -2.71299 -1.81836 0
M  V30 1813 H 155.061 -3.6649 0.0899054 0
M  V30 1814 H 154.709 -4.50385 -2.2397 0
M  V30 1815 H 154.409 -5.7837 -1.03737 0
M  V30 1816 H 155.933 -5.77955 -1.96979 0
M  V30 1817 H 157.347 -5.72509 0.300996 0
M  V30 1818 H 155.744 -5.90455 1.07156 0
M  V30 1819 H 156.814 -4.58496 1.57829 0
M  V30 1820 N 158.157 -0.370918 -1.53173 0
M  V30 1821 C 159.404 0.217102 -2.01333 0
M  V30 1822 C 159.732 1.48338 -1.25802 0
M  V30 1823 O 158.987 1.92698 -0.34146 0
M  V30 1824 C 159.286 0.549696 -3.53147 0
M  V30 1825 C 158.952 -0.622872 -4.46577 0
M  V30 1826 C 157.614 -0.944595 -4.71838 0
M  V30 1827 C 159.966 -1.40819 -5.01816 0
M  V30 1828 C 157.294 -2.05351 -5.49589 0
M  V30 1829 C 159.646 -2.50757 -5.80778 0
M  V30 1830 C 158.31 -2.83458 -6.04324 0
M  V30 1831 H 157.58 0.0794431 -0.736729 0
M  V30 1832 H 160.227 -0.504481 -1.84736 0
M  V30 1833 H 158.532 1.35237 -3.6772 0
M  V30 1834 H 160.229 1.017 -3.87889 0
M  V30 1835 H 156.819 -0.36209 -4.27068 0
M  V30 1836 H 161.003 -1.17289 -4.82242 0
M  V30 1837 H 156.259 -2.3108 -5.6605 0
M  V30 1838 H 160.433 -3.12022 -6.22588 0
M  V30 1839 H 158.06 -3.69508 -6.64355 0
M  V30 1840 N 159.635 1.57281 -0.100228 0
M  V30 1841 C 160.567 2.11342 0.886972 0
M  V30 1842 C 161.58 1.05182 1.24261 0
M  V30 1843 O 162.769 1.32613 1.19483 0
M  V30 1844 C 159.869 2.5825 2.19454 0
M  V30 1845 C 159.042 3.88302 2.01346 0
M  V30 1846 C 158.101 4.21004 3.15661 0
M  V30 1847 O 157.127 4.9014 2.89398 0
M  V30 1848 N 158.329 3.76818 4.41575 0
M  V30 1849 H 161.094 2.96668 0.425216 0
M  V30 1850 H 158.655 1.61678 0.0847334 0
M  V30 1851 H 160.647 2.7717 2.94888 0
M  V30 1852 H 159.217 1.77907 2.57037 0
M  V30 1853 H 158.437 3.7848 1.10212 0
M  V30 1854 H 159.725 4.73375 1.8653 0
M  V30 1855 H 159.123 3.2102 4.65792 0
M  V30 1856 H 157.68 4.00882 5.13942 0
M  V30 1857 N 161.113 -0.173488 1.56642 0
M  V30 1858 C 162.362 -0.888758 1.81063 0
M  V30 1859 C 162.675 -1.83506 0.67712 0
M  V30 1860 O 163.881 -2.59254 0.806206 0
M  V30 1861 C 162.337 -1.63091 3.20826 0
M  V30 1862 C 161.945 -0.728357 4.4204 0
M  V30 1863 C 163.689 -2.33454 3.54541 0
M  V30 1864 C 161.596 -1.47062 5.72823 0
M  V30 1865 H 160.526 -0.335618 0.675186 0
M  V30 1866 H 163.177 -0.141712 1.82952 0
M  V30 1867 H 161.559 -2.42263 3.13248 0
M  V30 1868 H 162.733 0.0262449 4.60793 0
M  V30 1869 H 161.048 -0.134492 4.16183 0
M  V30 1870 H 163.645 -2.89578 4.49498 0
M  V30 1871 H 163.988 -3.08687 2.79317 0
M  V30 1872 H 164.521 -1.61227 3.63663 0
M  V30 1873 H 161.26 -0.760658 6.51072 0
M  V30 1874 H 160.78 -2.1986 5.58052 0
M  V30 1875 H 162.459 -2.01868 6.14702 0
M  V30 1876 N 162.591 -1.51276 -0.441967 0
M  V30 1877 C 163.84 -1.6295 -1.18871 0
M  V30 1878 C 164.153 -0.349312 -1.92456 0
M  V30 1879 O 165.359 -0.345355 -2.69295 0
M  V30 1880 C 163.815 -2.87759 -2.16155 0
M  V30 1881 C 163.423 -4.22764 -1.48239 0
M  V30 1882 C 165.167 -3.08788 -2.91291 0
M  V30 1883 C 163.074 -5.38728 -2.4398 0
M  V30 1884 H 162.004 -0.606913 -0.447406 0
M  V30 1885 H 164.655 -1.77739 -0.456205 0
M  V30 1886 H 163.037 -2.66593 -2.92821 0
M  V30 1887 H 164.211 -4.54293 -0.771635 0
M  V30 1888 H 162.526 -4.07575 -0.852741 0
M  V30 1889 H 165.123 -3.92599 -3.63002 0
M  V30 1890 H 165.466 -2.21679 -3.5237 0
M  V30 1891 H 165.999 -3.30272 -2.21733 0
M  V30 1892 H 162.738 -6.28082 -1.87598 0
M  V30 1893 H 162.258 -5.1158 -3.13123 0
M  V30 1894 H 163.937 -5.70489 -3.05207 0
M  V30 1895 N 164.069 0.697108 -1.41344 0
M  V30 1896 C 165.017 1.83237 -1.43272 0
M  V30 1897 C 166.011 1.66522 -0.310947 0
M  V30 1898 O 167.217 1.73402 -0.482899 0
M  V30 1899 H 163.592 0.603802 -0.448249 0
M  V30 1900 H 165.563 1.78727 -2.38954 0
M  V30 1901 C 164.312 3.21245 -1.33029 0
M  V30 1902 H 163.635 3.34723 -2.18633 0
M  V30 1903 H 165.075 4.00763 -1.38439 0
M  V30 1904 C 163.534 3.36873 -0.0424635 0
M  V30 1905 O 164.064 3.91177 0.913421 0
M  V30 1906 N 162.27 2.90581 0.0331145 0
M  V30 1907 H 161.817 2.46577 -0.745506 0
M  V30 1908 H 161.775 3.01416 0.894199 0
M  V30 1909 N 165.547 1.27147 0.931209 0
M  V30 1910 C 166.795 1.13055 1.6752 0
M  V30 1911 C 167.116 -0.324791 1.92276 0
M  V30 1912 O 166.386 -1.22775 1.52654 0
M  V30 1913 H 164.966 0.415391 0.620854 0
M  V30 1914 H 167.628 1.59623 1.11833 0
M  V30 1915 H 166.724 1.65694 2.64485 0
M  V30 1916 N 167.025 -1.13721 1.09112 0
M  V30 1917 C 168.274 -1.84275 0.82009 0
M  V30 1918 C 168.587 -1.84253 -0.656509 0
M  V30 1919 O 169.793 -2.50668 -1.04296 0
M  V30 1920 C 168.249 -3.30825 1.41714 0
M  V30 1921 C 167.857 -3.39244 2.92605 0
M  V30 1922 C 169.601 -4.06443 1.22492 0
M  V30 1923 C 167.508 -4.80047 3.45411 0
M  V30 1924 H 166.438 -0.690387 0.30312 0
M  V30 1925 H 169.089 -1.28146 1.31343 0
M  V30 1926 H 167.471 -3.86737 0.851498 0
M  V30 1927 H 168.645 -2.93344 3.55367 0
M  V30 1928 H 166.96 -2.77088 3.10823 0
M  V30 1929 H 169.557 -5.10387 1.59402 0
M  V30 1930 H 169.9 -4.15972 0.165299 0
M  V30 1931 H 170.433 -3.56852 1.75788 0
M  V30 1932 H 167.172 -4.75709 4.50978 0
M  V30 1933 H 166.692 -5.26455 2.87411 0
M  V30 1934 H 168.371 -5.48957 3.42425 0
M  V30 1935 N 168.503 -0.877838 -1.30888 0
M  V30 1936 C 169.751 -0.491723 -1.96027 0
M  V30 1937 C 170.072 0.960827 -1.69685 0
M  V30 1938 O 169.342 1.67462 -1.01654 0
M  V30 1939 H 167.922 -0.17885 -0.725273 0
M  V30 1940 H 170.584 -1.11935 -1.59551 0
M  V30 1941 H 169.68 -0.656016 -3.05128 0
M  V30 1942 N 169.982 1.44106 -0.638065 0
M  V30 1943 C 171.229 2.01978 -0.14533 0
M  V30 1944 C 171.557 1.50234 1.23532 0
M  V30 1945 O 170.812 0.679548 1.83523 0
M  V30 1946 C 171.111 3.5729 -0.0887327 0
M  V30 1947 C 170.777 4.28317 -1.40909 0
M  V30 1948 C 169.439 4.47437 -1.77069 0
M  V30 1949 C 171.791 4.6867 -2.28031 0
M  V30 1950 C 169.119 5.04171 -3.00047 0
M  V30 1951 C 171.471 5.26766 -3.50286 0
M  V30 1952 C 170.135 5.44104 -3.86661 0
M  V30 1953 H 169.405 0.739089 -0.0531801 0
M  V30 1954 H 172.052 1.72781 -0.825761 0
M  V30 1955 H 170.357 3.8594 0.675095 0
M  V30 1956 H 172.054 3.99807 0.309145 0
M  V30 1957 H 168.644 4.1377 -1.1177 0
M  V30 1958 H 172.828 4.53604 -2.01388 0
M  V30 1959 H 168.084 5.15782 -3.28298 0
M  V30 1960 H 172.258 5.56983 -4.18023 0
M  V30 1961 H 169.885 5.87832 -4.82034 0
M  V30 1962 N 171.46 0.379036 1.52974 0
M  V30 1963 C 172.7 -0.206325 2.03356 0
M  V30 1964 C 173.064 -1.44892 1.25977 0
M  V30 1965 O 174.265 -2.11078 1.66432 0
M  V30 1966 C 172.536 -0.477887 3.54191 0
M  V30 1967 S 174.095 -1.035 4.26419 0
M  V30 1968 H 170.913 -0.0590259 0.708546 0
M  V30 1969 H 173.515 0.525013 1.88319 0
M  V30 1970 H 172.219 0.433745 4.08101 0
M  V30 1971 H 171.75 -1.23793 3.73415 0
M  V30 1972 H 173.765 -2.31821 4.38718 0
M  V30 1973 N 172.938 -1.57226 0.108567 0
M  V30 1974 C 173.888 -2.11305 -0.856396 0
M  V30 1975 C 174.872 -1.03129 -1.23504 0
M  V30 1976 O 176.064 -1.29381 -1.20787 0
M  V30 1977 C 173.193 -2.70771 -2.11041 0
M  V30 1978 C 172.279 -3.86011 -1.7566 0
M  V30 1979 N 172.67 -4.93492 -1.10902 0
M  V30 1980 C 170.968 -3.95999 -2.05185 0
M  V30 1981 C 171.669 -5.73984 -0.944308 0
M  V30 1982 N 170.645 -5.2346 -1.46596 0
M  V30 1983 H 174.447 -2.91784 -0.352002 0
M  V30 1984 H 171.961 -1.62126 -0.0942324 0
M  V30 1985 H 173.958 -3.07851 -2.81128 0
M  V30 1986 H 172.618 -1.91751 -2.62034 0
M  V30 1987 H 173.629 -5.1208 -0.774235 0
M  V30 1988 H 170.306 -3.28007 -2.58298 0
M  V30 1989 H 171.696 -6.70479 -0.436813 0
M  V30 1990 N 174.416 0.165178 -1.56732 0
M  V30 1991 C 175.641 0.900253 -1.86843 0
M  V30 1992 C 176.066 1.74766 -0.695596 0
M  V30 1993 O 175.424 1.77786 0.35522 0
M  V30 1994 C 175.472 1.74777 -3.15413 0
M  V30 1995 O 174.576 2.85007 -2.98068 0
M  V30 1996 H 173.917 0.251832 -0.614391 0
M  V30 1997 H 176.447 0.161468 -2.03962 0
M  V30 1998 H 176.457 2.14646 -3.46974 0
M  V30 1999 H 175.132 1.12537 -4.00385 0
M  V30 2000 H 173.709 2.48676 -2.77875 0
M  V30 2001 N 175.894 1.51508 0.433938 0
M  V30 2002 C 176.844 1.69451 1.52546 0
M  V30 2003 C 177.828 0.548474 1.51263 0
M  V30 2004 O 179.02 0.804529 1.57659 0
M  V30 2005 C 176.149 1.82604 2.90707 0
M  V30 2006 C 175.235 3.03002 2.96733 0
M  V30 2007 N 175.626 4.26121 2.72496 0
M  V30 2008 C 173.924 3.02327 3.27894 0
M  V30 2009 C 174.625 5.07407 2.84452 0
M  V30 2010 N 173.601 4.42126 3.16269 0
M  V30 2011 H 177.403 2.62305 1.32564 0
M  V30 2012 H 174.917 1.49202 0.641297 0
M  V30 2013 H 176.914 1.93569 3.69238 0
M  V30 2014 H 175.574 0.909339 3.11707 0
M  V30 2015 H 176.585 4.55009 2.4736 0
M  V30 2016 H 173.262 2.20301 3.54646 0
M  V30 2017 H 174.652 6.15422 2.69639 0
M  V30 2018 N 177.372 -0.689602 1.41712 0
M  V30 2019 C 178.32 -1.82475 1.44242 0
M  V30 2020 C 179.314 -1.66354 0.319774 0
M  V30 2021 O 180.52 -1.73143 0.492089 0
M  V30 2022 H 176.895 -0.601416 0.451445 0
M  V30 2023 H 178.866 -1.77458 2.39899 0
M  V30 2024 C 177.615 -3.20535 1.3473 0
M  V30 2025 H 176.938 -3.33559 2.20405 0
M  V30 2026 H 178.378 -4.00023 1.40562 0
M  V30 2027 C 176.837 -3.36846 0.0603281 0
M  V30 2028 O 177.367 -3.91656 -0.892663 0
M  V30 2029 N 175.573 -2.90595 -0.0177039 0
M  V30 2030 H 175.12 -2.46178 0.758572 0
M  V30 2031 H 175.078 -3.01886 -0.878201 0
M  V30 2032 N 178.85 -1.27639 -0.924453 0
M  V30 2033 C 180.099 -1.13549 -1.66702 0
M  V30 2034 C 180.412 0.317487 -1.93006 0
M  V30 2035 O 181.618 0.579333 -2.65247 0
M  V30 2036 C 180.074 -1.98426 -3.00259 0
M  V30 2037 C 179.682 -3.484 -2.81641 0
M  V30 2038 C 181.426 -1.92993 -3.78092 0
M  V30 2039 C 179.333 -4.25464 -4.10773 0
M  V30 2040 H 178.263 -0.421351 -0.625283 0
M  V30 2041 H 180.914 -1.52085 -1.02676 0
M  V30 2042 H 179.296 -1.52736 -3.6536 0
M  V30 2043 H 180.47 -4.01973 -2.25287 0
M  V30 2044 H 178.785 -3.55245 -2.17232 0
M  V30 2045 H 181.382 -2.47844 -4.7379 0
M  V30 2046 H 181.725 -0.904281 -4.0636 0
M  V30 2047 H 182.258 -2.36595 -3.19793 0
M  V30 2048 H 178.997 -5.28566 -3.87683 0
M  V30 2049 H 178.517 -3.76667 -4.66779 0
M  V30 2050 H 180.196 -4.34812 -4.79111 0
M  V30 2051 N 180.328 1.1314 -1.09713 0
M  V30 2052 C 181.577 1.83838 -0.829851 0
M  V30 2053 C 181.89 1.84599 0.646728 0
M  V30 2054 O 183.096 2.51218 1.02965 0
M  V30 2055 C 181.552 3.30069 -1.43466 0
M  V30 2056 C 181.16 3.37688 -2.94399 0
M  V30 2057 C 182.904 4.05788 -1.24645 0
M  V30 2058 C 180.811 4.78209 -3.47952 0
M  V30 2059 H 179.741 0.68877 -0.306777 0
M  V30 2060 H 182.392 1.27448 -1.3202 0
M  V30 2061 H 180.774 3.8628 -0.871996 0
M  V30 2062 H 181.948 2.91456 -3.56918 0
M  V30 2063 H 180.263 2.75436 -3.12289 0
M  V30 2064 H 182.86 5.09535 -1.62107 0
M  V30 2065 H 183.203 4.15878 -0.187357 0
M  V30 2066 H 183.736 3.55915 -1.77678 0
M  V30 2067 H 180.475 4.73311 -4.53495 0
M  V30 2068 H 179.995 5.24924 -2.90198 0
M  V30 2069 H 181.674 5.47133 -3.45332 0
M  V30 2070 N 181.806 0.884767 1.30421 0
M  V30 2071 C 182.756 0.322846 2.25703 0
M  V30 2072 C 183.74 -0.548582 1.51259 0
M  V30 2073 O 184.932 -0.39304 1.72581 0
M  V30 2074 C 182.061 -0.461787 3.4018 0
M  V30 2075 C 181.147 0.423717 4.21978 0
M  V30 2076 N 181.538 1.52408 4.82292 0
M  V30 2077 C 179.836 0.218795 4.45463 0
M  V30 2078 C 180.537 2.07136 5.43571 0
M  V30 2079 N 179.513 1.36635 5.26148 0
M  V30 2080 H 183.315 1.16363 2.69883 0
M  V30 2081 H 180.829 0.73415 1.44859 0
M  V30 2082 H 182.826 -0.880985 4.07485 0
M  V30 2083 H 181.486 -1.30001 2.9754 0
M  V30 2084 H 182.497 1.90693 4.81515 0
M  V30 2085 H 179.174 -0.582275 4.1342 0
M  V30 2086 H 180.564 2.99538 6.01437 0
M  V30 2087 N 183.284 -1.43765 0.645699 0
M  V30 2088 C 184.7 -1.56509 0.312591 0
M  V30 2089 C 184.9 -1.6307 -1.18365 0
M  V30 2090 O 183.956 -1.58167 -1.96824 0
M  V30 2091 C 185.269 -2.82968 1.01733 0
M  V30 2092 C 186.817 -2.96701 0.996865 0
M  V30 2093 C 187.292 -4.25982 1.68236 0
M  V30 2094 N 188.783 -4.32829 1.64964 0
M  V30 2095 C 189.518 -5.31613 2.14885 0
M  V30 2096 N 189.014 -6.36718 2.73061 0
M  V30 2097 N 190.807 -5.23217 2.05428 0
M  V30 2098 H 182.958 -1.3775 1.61675 0
M  V30 2099 H 185.221 -0.661067 0.679481 0
M  V30 2100 H 184.927 -2.84156 2.0724 0
M  V30 2101 H 184.801 -3.72957 0.564177 0
M  V30 2102 H 187.188 -2.95058 -0.0497719 0
M  V30 2103 H 187.269 -2.08022 1.48865 0
M  V30 2104 H 186.913 -4.28386 2.72852 0
M  V30 2105 H 186.843 -5.13545 1.16529 0
M  V30 2106 H 189.334 -3.57493 1.22503 0
M  V30 2107 H 189.647 -7.08401 3.08848 0
M  V30 2108 H 187.992 -6.37362 2.77118 0
M  V30 2109 H 191.183 -4.40019 1.59689 0
M  V30 2110 H 191.356 -6.00045 2.44643 0
M  V30 2111 N 184.763 -0.387143 -1.52771 0
M  V30 2112 C 186.04 0.253197 -1.93954 0
M  V30 2113 C 186.42 1.64545 -1.32243 0
M  V30 2114 O 185.768 2.23191 -0.489699 0
M  V30 2115 C 185.978 0.281722 -3.47861 0
M  V30 2116 C 187.326 0.511715 -4.21505 0
M  V30 2117 O 188.35 0.362023 -3.54356 0
M  V30 2118 O 187.209 0.804847 -5.40541 0
M  V30 2119 H 184.303 0.156845 -0.811991 0
M  V30 2120 H 186.849 -0.441494 -1.63856 0
M  V30 2121 H 185.621 -0.693571 -3.85104 0
M  V30 2122 H 185.244 1.02142 -3.84256 0
M  V30 2123 N 186.241 1.57166 -0.116904 0
M  V30 2124 C 187.49 1.94298 0.541407 0
M  V30 2125 C 187.803 1.00236 1.67964 0
M  V30 2126 O 189.009 1.26826 2.40057 0
M  V30 2127 C 187.465 3.45306 1.01449 0
M  V30 2128 C 187.073 4.47899 -0.0951738 0
M  V30 2129 C 188.817 3.91361 1.6443 0
M  V30 2130 C 186.724 5.90083 0.394491 0
M  V30 2131 H 185.654 0.725308 0.206019 0
M  V30 2132 H 188.305 1.82446 -0.196419 0
M  V30 2133 H 186.687 3.52385 1.80667 0
M  V30 2134 H 187.861 4.52486 -0.871374 0
M  V30 2135 H 186.176 4.11583 -0.631505 0
M  V30 2136 H 188.773 4.95004 2.02176 0
M  V30 2137 H 189.116 3.3122 2.52189 0
M  V30 2138 H 189.649 3.87073 0.917559 0
M  V30 2139 H 186.388 6.53974 -0.447004 0
M  V30 2140 H 185.908 5.88921 1.13722 0
M  V30 2141 H 187.587 6.41307 0.856399 0
M  V30 2142 N 187.719 -0.156864 1.56817 0
M  V30 2143 C 188.666 -1.19394 1.97519 0
M  V30 2144 C 189.636 -1.4322 0.841265 0
M  V30 2145 O 190.821 -1.55719 1.10255 0
M  V30 2146 C 187.961 -2.52483 2.35258 0
M  V30 2147 C 187.074 -2.35914 3.61896 0
M  V30 2148 C 186.209 -3.61969 3.88782 0
M  V30 2149 C 185.248 -3.40395 5.08722 0
M  V30 2150 N 184.385 -4.58556 5.31668 0
M  V30 2151 H 189.225 -0.839845 2.85921 0
M  V30 2152 H 186.762 -0.403264 1.41464 0
M  V30 2153 H 188.72 -3.30071 2.55165 0
M  V30 2154 H 187.35 -2.85859 1.49949 0
M  V30 2155 H 186.402 -1.49429 3.49821 0
M  V30 2156 H 187.714 -2.15926 4.49641 0
M  V30 2157 H 186.868 -4.47989 4.09135 0
M  V30 2158 H 185.607 -3.84951 2.9944 0
M  V30 2159 H 184.612 -2.52763 4.88253 0
M  V30 2160 H 185.837 -3.18822 5.99608 0
M  V30 2161 H 183.783 -4.81729 4.45279 0
M  V30 2162 H 183.7 -4.41535 6.13664 0
M  V30 2163 H 184.968 -5.45817 5.5651 0
M  V30 2164 N 189.197 -1.51736 -0.425897 0
M  V30 2165 C 190.608 -1.5732 -1.00536 0
M  V30 2166 C 190.959 -0.403537 -1.92005 0
M  V30 2167 O 190.084 0.478256 -2.11049 0
M  V30 2168 C 190.679 -2.85119 -1.8301 0
M  V30 2169 C 189.238 -2.93236 -2.35987 0
M  V30 2170 C 188.385 -2.52098 -1.15508 0
M  V30 2171 H 191.336 -1.57348 -0.206739 0
M  V30 2172 H 191.357 -2.69526 -2.68581 0
M  V30 2173 H 190.869 -3.7023 -1.16411 0
M  V30 2174 H 188.97 -2.12581 -3.06007 0
M  V30 2175 H 189.083 -3.9713 -2.68001 0
M  V30 2176 H 187.447 -2.05558 -1.50393 0
M  V30 2177 H 188.23 -3.39565 -0.505014 0
M  V30 2178 N 190.675 0.682077 -1.42076 0
M  V30 2179 C 191.585 1.82535 -1.47371 0
M  V30 2180 C 192.601 1.7017 -0.363079 0
M  V30 2181 O 193.777 1.91848 -0.612875 0
M  V30 2182 C 190.842 3.18624 -1.36674 0
M  V30 2183 C 189.903 3.42999 -2.58167 0
M  V30 2184 C 189.136 4.72595 -2.4797 0
M  V30 2185 O 189.359 5.50006 -1.5116 0
M  V30 2186 O 188.293 4.98054 -3.37974 0
M  V30 2187 H 192.119 1.81023 -2.43853 0
M  V30 2188 H 189.704 0.836887 -1.2376 0
M  V30 2189 H 191.586 3.99847 -1.33043 0
M  V30 2190 H 190.261 3.20789 -0.433138 0
M  V30 2191 H 189.168 2.61653 -2.67373 0
M  V30 2192 H 190.501 3.45659 -3.50401 0
M  V30 2193 N 192.153 1.28127 0.917671 0
M  V30 2194 C 193.101 1.11569 2.04096 0
M  V30 2195 C 194.095 0.0360242 1.69362 0
M  V30 2196 O 195.301 0.194501 1.78946 0
M  V30 2197 H 191.676 0.344097 0.668656 0
M  V30 2198 H 193.647 2.06711 2.15205 0
M  V30 2199 C 192.396 0.790197 3.38602 0
M  V30 2200 H 191.719 1.61293 3.6582 0
M  V30 2201 H 193.159 0.714271 4.1794 0
M  V30 2202 C 191.618 -0.505897 3.3308 0
M  V30 2203 O 192.148 -1.53736 3.71117 0
M  V30 2204 N 190.354 -0.505193 2.86175 0
M  V30 2205 H 189.901 0.334621 2.55417 0
M  V30 2206 H 189.859 -1.37243 2.82863 0
M  V30 2207 N 193.631 -1.12557 1.10312 0
M  V30 2208 C 194.88 -1.83395 0.839588 0
M  V30 2209 C 195.193 -1.84939 -0.636929 0
M  V30 2210 O 196.399 -2.51761 -1.01631 0
M  V30 2211 C 194.855 -3.29303 1.45215 0
M  V30 2212 C 194.463 -3.36122 2.96186 0
M  V30 2213 C 196.207 -4.05121 1.26796 0
M  V30 2214 C 194.114 -4.76357 3.50483 0
M  V30 2215 H 193.044 -0.687133 0.310425 0
M  V30 2216 H 195.695 -1.26746 1.32694 0
M  V30 2217 H 194.077 -3.85812 0.892469 0
M  V30 2218 H 195.251 -2.89559 3.58458 0
M  V30 2219 H 193.566 -2.73776 3.13745 0
M  V30 2220 H 196.163 -5.08668 1.64806 0
M  V30 2221 H 196.506 -4.15773 0.209409 0
M  V30 2222 H 197.039 -3.54967 1.79563 0
M  V30 2223 H 193.778 -4.70899 4.55998 0
M  V30 2224 H 193.298 -5.23377 2.92978 0
M  V30 2225 H 194.977 -5.45294 3.48228 0
M  V30 2226 N 195.109 -0.891671 -1.2995 0
M  V30 2227 C 196.039 -0.379797 -2.30391 0
M  V30 2228 C 197.02 0.540919 -1.6127 0
M  V30 2229 O 198.205 0.453352 -1.88834 0
M  V30 2230 C 195.335 0.400654 -3.44981 0
M  V30 2231 C 194.289 -0.428905 -4.25846 0
M  V30 2232 C 193.615 0.478557 -5.32554 0
M  V30 2233 C 194.915 -1.67458 -4.94727 0
M  V30 2234 H 196.609 -1.21914 -2.73454 0
M  V30 2235 H 194.155 -0.587675 -1.31462 0
M  V30 2236 H 196.108 0.769434 -4.14316 0
M  V30 2237 H 194.832 1.27371 -3.0074 0
M  V30 2238 H 193.491 -0.779911 -3.58208 0
M  V30 2239 H 193.139 1.34951 -4.84559 0
M  V30 2240 H 192.839 -0.0727433 -5.87555 0
M  V30 2241 H 194.363 0.843705 -6.04743 0
M  V30 2242 H 195.777 -1.376 -5.56542 0
M  V30 2243 H 194.174 -2.16659 -5.59624 0
M  V30 2244 H 195.244 -2.41518 -4.20473 0
M  V30 2245 N 196.587 1.43421 -0.653314 0
M  V30 2246 C 197.833 2.02111 -0.166992 0
M  V30 2247 C 198.166 1.51423 1.21592 0
M  V30 2248 O 197.441 0.707389 1.8118 0
M  V30 2249 C 197.724 3.5966 -0.177948 0
M  V30 2250 C 197.577 4.20579 -1.59478 0
M  V30 2251 C 198.896 4.37413 0.4856 0
M  V30 2252 H 196.015 0.734374 -0.0621557 0
M  V30 2253 H 198.657 1.70717 -0.834016 0
M  V30 2254 H 196.807 3.86537 0.390032 0
M  V30 2255 H 198.479 4.04732 -2.21336 0
M  V30 2256 H 196.722 3.77226 -2.14204 0
M  V30 2257 H 197.393 5.29665 -1.5543 0
M  V30 2258 H 199.869 4.161 0.00234528 0
M  V30 2259 H 198.745 5.47075 0.447207 0
M  V30 2260 H 199.006 4.13672 1.55974 0
M  V30 2261 N 198.065 0.39524 1.52563 0
M  V30 2262 C 199.29 -0.187456 2.06551 0
M  V30 2263 C 199.715 -1.39249 1.26457 0
M  V30 2264 O 199.073 -1.78947 0.291151 0
M  V30 2265 C 199.121 -0.529985 3.56684 0
M  V30 2266 O 198.225 -1.62307 3.79118 0
M  V30 2267 H 197.566 -0.0202537 0.663691 0
M  V30 2268 H 200.096 0.564426 1.96661 0
M  V30 2269 H 200.106 -0.792598 4.00227 0
M  V30 2270 H 198.781 0.350987 4.14416 0
M  V30 2271 H 197.358 -1.3537 3.47461 0
M  V30 2272 N 199.544 -1.57102 0.125237 0
M  V30 2273 C 200.476 -2.12726 -0.853237 0
M  V30 2274 C 201.489 -1.07145 -1.22571 0
M  V30 2275 O 202.678 -1.34497 -1.17358 0
M  V30 2276 C 199.778 -2.61709 -2.15317 0
M  V30 2277 C 198.951 -3.91456 -1.95143 0
M  V30 2278 C 198.01 -4.25973 -3.08923 0
M  V30 2279 O 197.036 -4.94682 -2.81564 0
M  V30 2280 N 198.238 -3.83795 -4.35524 0
M  V30 2281 H 201.003 -2.97307 -0.377964 0
M  V30 2282 H 198.564 -1.61792 -0.0590011 0
M  V30 2283 H 200.556 -2.81826 -2.90441 0
M  V30 2284 H 199.126 -1.81974 -2.54174 0
M  V30 2285 H 198.346 -3.80185 -1.04177 0
M  V30 2286 H 199.634 -4.76283 -1.78976 0
M  V30 2287 H 199.032 -3.2839 -4.60626 0
M  V30 2288 H 197.589 -4.09008 -5.07499 0
M  V30 2289 N 201.022 0.148545 -1.56898 0
M  V30 2290 C 202.247 0.880385 -1.87787 0
M  V30 2291 C 202.672 1.74018 -0.714093 0
M  V30 2292 O 202.03 1.78153 0.336343 0
M  V30 2293 C 202.078 1.71422 -3.17249 0
M  V30 2294 O 201.182 2.8183 -3.01074 0
M  V30 2295 H 200.523 0.245301 -0.617028 0
M  V30 2296 H 203.053 0.139826 -2.04122 0
M  V30 2297 H 203.063 2.10954 -3.49231 0
M  V30 2298 H 201.738 1.08284 -4.01556 0
M  V30 2299 H 200.315 2.45715 -2.80497 0
M  V30 2300 N 202.5 1.5196 0.417844 0
M  V30 2301 C 203.748 1.65263 1.16329 0
M  V30 2302 C 204.069 0.380634 1.91249 0
M  V30 2303 O 203.339 -0.604214 1.86349 0
M  V30 2304 H 201.919 0.60912 0.432414 0
M  V30 2305 H 204.581 1.88969 0.477162 0
M  V30 2306 H 203.677 2.4896 1.88217 0
M  V30 2307 N 203.978 -0.674533 1.42435 0
M  V30 2308 C 205.224 -1.43671 1.43131 0
M  V30 2309 C 205.557 -1.94142 0.0476021 0
M  V30 2310 O 204.832 -1.70924 -0.928188 0
M  V30 2311 C 205.115 -2.63355 2.45594 0
M  V30 2312 C 204.968 -2.18514 3.93156 0
M  V30 2313 C 206.287 -3.65571 2.45043 0
M  V30 2314 H 203.406 -0.521077 0.521198 0
M  V30 2315 H 206.048 -0.766551 1.7385 0
M  V30 2316 H 204.198 -3.2053 2.19528 0
M  V30 2317 H 205.87 -1.66504 4.30202 0
M  V30 2318 H 204.113 -1.50086 4.07009 0
M  V30 2319 H 204.784 -3.04484 4.60428 0
M  V30 2320 H 207.26 -3.18113 2.68223 0
M  V30 2321 H 206.136 -4.46893 3.18713 0
M  V30 2322 H 206.397 -4.16716 1.47649 0
M  V30 2323 N 205.456 -1.28612 -0.910864 0
M  V30 2324 C 206.702 -1.16106 -1.66274 0
M  V30 2325 C 207.035 0.289113 -1.92036 0
M  V30 2326 O 206.31 1.21 -1.52281 0
M  V30 2327 C 206.593 -1.96309 -3.01885 0
M  V30 2328 C 206.446 -3.49405 -2.8326 0
M  V30 2329 C 207.765 -1.78076 -4.02463 0
M  V30 2330 H 204.884 -0.423152 -0.603417 0
M  V30 2331 H 207.526 -1.57961 -1.05586 0
M  V30 2332 H 205.676 -1.60742 -3.53687 0
M  V30 2333 H 207.348 -3.94894 -2.38446 0
M  V30 2334 H 205.591 -3.74893 -2.18261 0
M  V30 2335 H 206.262 -4.00784 -3.79574 0
M  V30 2336 H 208.738 -2.0912 -3.59733 0
M  V30 2337 H 207.614 -2.36561 -4.95308 0
M  V30 2338 H 207.875 -0.733008 -4.35981 0
M  V30 2339 N 206.934 1.1197 -1.10907 0
M  V30 2340 C 207.881 2.17846 -0.762345 0
M  V30 2341 C 208.851 1.63995 0.263599 0
M  V30 2342 O 210.036 1.90273 0.141773 0
M  V30 2343 C 207.176 3.44487 -0.205651 0
M  V30 2344 C 206.289 4.12369 -1.28748 0
M  V30 2345 C 205.424 5.26674 -0.691919 0
M  V30 2346 C 204.463 5.86431 -1.75399 0
M  V30 2347 N 203.6 6.92142 -1.17833 0
M  V30 2348 H 208.44 2.46851 -1.6694 0
M  V30 2349 H 205.977 1.21188 -0.833776 0
M  V30 2350 H 207.935 4.16981 0.135037 0
M  V30 2351 H 206.565 3.15884 0.664613 0
M  V30 2352 H 205.617 3.38003 -1.74522 0
M  V30 2353 H 206.929 4.52844 -2.09125 0
M  V30 2354 H 206.083 6.05953 -0.300963 0
M  V30 2355 H 204.822 4.8749 0.143232 0
M  V30 2356 H 203.827 5.05835 -2.15432 0
M  V30 2357 H 205.052 6.27685 -2.59208 0
M  V30 2358 H 202.998 6.54985 -0.364725 0
M  V30 2359 H 202.915 7.31242 -1.91887 0
M  V30 2360 H 204.183 7.75237 -0.81408 0
M  V30 2361 N 208.412 0.89855 1.29475 0
M  V30 2362 C 209.342 0.39201 2.30186 0
M  V30 2363 C 210.323 -0.532359 1.61555 0
M  V30 2364 O 211.508 -0.443331 1.89072 0
M  V30 2365 C 208.638 -0.382353 3.45189 0
M  V30 2366 C 207.592 0.451483 4.25612 0
M  V30 2367 C 206.918 -0.450307 5.328 0
M  V30 2368 C 208.218 1.70079 4.93832 0
M  V30 2369 H 209.912 1.23362 2.72804 0
M  V30 2370 H 207.458 0.594638 1.31149 0
M  V30 2371 H 209.411 -0.747451 4.14718 0
M  V30 2372 H 208.135 -1.25774 3.01411 0
M  V30 2373 H 206.794 0.798897 3.57789 0
M  V30 2374 H 206.442 -1.32379 4.85268 0
M  V30 2375 H 206.142 0.103902 5.87508 0
M  V30 2376 H 207.666 -0.811623 6.05182 0
M  V30 2377 H 209.08 1.40549 5.55805 0
M  V30 2378 H 207.477 2.19623 5.58467 0
M  V30 2379 H 208.547 2.43744 4.19186 0
M  V30 2380 N 209.89 -1.43072 0.660911 0
M  V30 2381 C 211.13 -2.03596 0.181146 0
M  V30 2382 C 211.494 -1.51057 -1.18515 0
M  V30 2383 O 212.695 -2.03275 -1.75877 0
M  V30 2384 C 210.966 -3.56845 0.19911 0
M  V30 2385 S 212.525 -4.38289 -0.211684 0
M  V30 2386 H 209.343 -0.706954 0.0757479 0
M  V30 2387 H 211.945 -1.75027 0.870965 0
M  V30 2388 H 210.649 -3.92583 1.1961 0
M  V30 2389 H 210.18 -3.90067 -0.510996 0
M  V30 2390 H 212.195 -4.74583 -1.44863 0
M  V30 2391 N 211.368 -0.403325 -1.52352 0
M  V30 2392 C 212.645 0.232611 -1.94212 0
M  V30 2393 C 213.025 1.63133 -1.33981 0
M  V30 2394 O 212.373 2.22659 -0.513344 0
M  V30 2395 C 212.583 0.244811 -3.4814 0
M  V30 2396 C 213.931 0.46698 -4.22024 0
M  V30 2397 O 214.955 0.324419 -3.5472 0
M  V30 2398 O 213.814 0.74747 -5.41364 0
M  V30 2399 H 210.908 0.148223 -0.813609 0
M  V30 2400 H 213.454 -0.458848 -1.63379 0
M  V30 2401 H 212.226 -0.734378 -3.84347 0
M  V30 2402 H 211.849 0.980611 -3.85318 0
M  V30 2403 N 212.846 1.57033 -0.133567 0
M  V30 2404 C 214.093 1.95686 0.520877 0
M  V30 2405 C 214.421 1.0177 1.6575 0
M  V30 2406 O 213.676 0.0443195 1.9565 0
M  V30 2407 C 213.975 3.40674 1.08057 0
M  V30 2408 C 213.641 4.50855 0.0637899 0
M  V30 2409 C 212.303 4.80716 -0.215757 0
M  V30 2410 C 214.655 5.17398 -0.62835 0
M  V30 2411 C 211.983 5.74433 -1.19348 0
M  V30 2412 C 214.335 6.12167 -1.5948 0
M  V30 2413 C 212.999 6.40414 -1.88218 0
M  V30 2414 H 212.269 0.716067 0.190602 0
M  V30 2415 H 214.916 1.9026 -0.217556 0
M  V30 2416 H 213.221 3.42865 1.89606 0
M  V30 2417 H 214.918 3.67902 1.59529 0
M  V30 2418 H 211.508 4.27605 0.291855 0
M  V30 2419 H 215.692 4.94472 -0.425562 0
M  V30 2420 H 210.948 5.94616 -1.42272 0
M  V30 2421 H 215.122 6.6281 -2.13671 0
M  V30 2422 H 212.749 7.12838 -2.64133 0
M  V30 2423 N 214.325 -0.140222 1.56975 0
M  V30 2424 C 215.573 -0.850005 1.83356 0
M  V30 2425 C 215.894 -1.81399 0.71551 0
M  V30 2426 O 215.164 -1.94136 -0.262294 0
M  V30 2427 H 213.744 -0.316886 0.676456 0
M  V30 2428 H 216.406 -0.132608 1.94448 0
M  V30 2429 H 215.502 -1.40814 2.78528 0
M  V30 2430 N 215.803 -1.52179 -0.40978 0
M  V30 2431 C 217.05 -1.66206 -1.15679 0
M  V30 2432 C 217.378 -0.391674 -1.90516 0
M  V30 2433 O 216.633 0.62533 -1.8544 0
M  V30 2434 C 216.932 -2.83428 -2.17723 0
M  V30 2435 C 216.598 -4.21672 -1.59699 0
M  V30 2436 C 215.26 -4.59274 -1.43599 0
M  V30 2437 C 217.612 -5.07825 -1.17317 0
M  V30 2438 C 214.94 -5.80709 -0.836328 0
M  V30 2439 C 217.292 -6.29864 -0.587691 0
M  V30 2440 C 215.956 -6.66216 -0.413818 0
M  V30 2441 H 215.226 -0.608192 -0.423301 0
M  V30 2442 H 217.873 -1.86279 -0.444097 0
M  V30 2443 H 216.178 -2.57687 -2.95135 0
M  V30 2444 H 217.875 -2.91477 -2.75394 0
M  V30 2445 H 214.465 -3.9204 -1.73213 0
M  V30 2446 H 218.649 -4.79359 -1.28565 0
M  V30 2447 H 213.905 -6.07498 -0.689626 0
M  V30 2448 H 218.079 -6.95948 -0.250894 0
M  V30 2449 H 215.706 -7.60182 0.0529471 0
M  V30 2450 N 217.281 0.66697 -1.42791 0
M  V30 2451 C 218.244 1.76211 -1.46568 0
M  V30 2452 C 219.244 1.56896 -0.352196 0
M  V30 2453 O 220.434 1.63044 -0.613364 0
M  V30 2454 C 217.566 3.14935 -1.30494 0
M  V30 2455 H 218.759 1.74247 -2.44086 0
M  V30 2456 H 216.312 0.877342 -1.29354 0
M  V30 2457 H 217.047 3.2252 -0.339301 0
M  V30 2458 H 216.832 3.30359 -2.11199 0
M  V30 2459 H 218.322 3.94821 -1.36038 0
M  V30 2460 N 218.759 1.29093 0.90403 0
M  V30 2461 C 220.175 1.07011 1.1841 0
M  V30 2462 C 220.375 -0.181358 2.00682 0
M  V30 2463 O 219.431 -0.880331 2.36657 0
M  V30 2464 C 220.744 2.32311 1.90924 0
M  V30 2465 C 222.292 2.37587 2.03768 0
M  V30 2466 C 222.767 3.62679 2.79693 0
M  V30 2467 N 224.258 3.63376 2.87249 0
M  V30 2468 C 224.993 4.56848 3.46522 0
M  V30 2469 N 224.489 5.60648 4.06996 0
M  V30 2470 N 226.282 4.44426 3.44154 0
M  V30 2471 H 218.433 2.09412 0.354993 0
M  V30 2472 H 220.696 0.922181 0.219742 0
M  V30 2473 H 220.402 3.23536 1.37905 0
M  V30 2474 H 220.276 2.39483 2.91424 0
M  V30 2475 H 222.663 1.46853 2.55965 0
M  V30 2476 H 222.744 2.34403 1.02415 0
M  V30 2477 H 222.388 4.53762 2.28173 0
M  V30 2478 H 222.318 3.63119 3.81381 0
M  V30 2479 H 224.809 2.88321 2.44293 0
M  V30 2480 H 225.122 6.28101 4.50232 0
M  V30 2481 H 223.467 5.64463 4.05471 0
M  V30 2482 H 226.658 3.62529 2.96126 0
M  V30 2483 H 226.831 5.17457 3.90054 0
M  V30 2484 N 220.237 -1.11381 1.11499 0
M  V30 2485 C 221.465 -1.86934 0.88675 0
M  V30 2486 C 221.88 -1.80195 -0.563476 0
M  V30 2487 O 221.237 -1.18367 -1.38908 0
M  V30 2488 C 221.288 -3.35722 1.34064 0
M  V30 2489 O 221.009 -3.4232 2.73401 0
M  V30 2490 C 222.51 -4.2818 1.14791 0
M  V30 2491 H 219.73 -0.591117 0.317523 0
M  V30 2492 H 222.274 -1.40865 1.48248 0
M  V30 2493 H 220.429 -3.79294 0.788355 0
M  V30 2494 H 220.843 -4.34971 2.93087 0
M  V30 2495 H 222.317 -5.30817 1.5145 0
M  V30 2496 H 222.794 -4.39113 0.0875279 0
M  V30 2497 H 223.4 -3.90402 1.68721 0
M  V30 2498 N 221.715 -0.905404 -1.28997 0
M  V30 2499 C 222.645 -0.404212 -2.29975 0
M  V30 2500 C 223.626 0.523784 -1.61835 0
M  V30 2501 O 224.811 0.433298 -1.89304 0
M  V30 2502 C 221.941 0.364042 -3.45387 0
M  V30 2503 C 220.895 -0.474048 -4.25367 0
M  V30 2504 C 220.221 0.422045 -5.33032 0
M  V30 2505 C 221.521 -1.72696 -4.92923 0
M  V30 2506 H 223.215 -1.24807 -2.72146 0
M  V30 2507 H 220.761 -0.601585 -1.30832 0
M  V30 2508 H 222.714 0.725447 -4.15109 0
M  V30 2509 H 221.438 1.24174 -3.02074 0
M  V30 2510 H 220.097 -0.81786 -3.57361 0
M  V30 2511 H 219.745 1.29804 -4.85963 0
M  V30 2512 H 219.445 -0.135057 -5.87445 0
M  V30 2513 H 220.969 0.779517 -6.05604 0
M  V30 2514 H 222.383 -1.43495 -5.55051 0
M  V30 2515 H 220.78 -2.22582 -5.57295 0
M  V30 2516 H 221.85 -2.45964 -4.17887 0
M  V30 2517 N 223.193 1.4272 -0.668489 0
M  V30 2518 C 224.156 2.292 0.00448567 0
M  V30 2519 C 225.156 1.43001 0.735339 0
M  V30 2520 O 226.346 1.64461 0.57429 0
M  V30 2521 C 223.478 3.25375 1.01705 0
M  V30 2522 H 224.671 2.90199 -0.756608 0
M  V30 2523 H 222.224 1.50254 -0.430506 0
M  V30 2524 H 222.959 2.69301 1.80686 0
M  V30 2525 H 222.744 3.88944 0.496463 0
M  V30 2526 H 224.234 3.90245 1.48655 0
M  V30 2527 N 224.671 0.411399 1.52136 0
M  V30 2528 C 225.634 -0.401089 2.25663 0
M  V30 2529 C 226.634 -0.971732 1.28117 0
M  V30 2530 O 227.824 -0.850254 1.52041 0
M  V30 2531 C 224.956 -1.56483 3.02863 0
M  V30 2532 H 226.149 0.24295 2.98914 0
M  V30 2533 H 223.702 0.163968 1.55438 0
M  V30 2534 H 224.437 -2.24567 2.33967 0
M  V30 2535 H 224.222 -1.16211 3.74483 0
M  V30 2536 H 225.712 -2.13951 3.58629 0
M  V30 2537 N 226.149 -1.5696 0.141893 0
M  V30 2538 C 227.56 -1.82797 -0.379776 0
M  V30 2539 C 227.911 -1.06033 -1.6508 0
M  V30 2540 O 227.036 -0.304011 -2.14254 0
M  V30 2541 C 227.631 -3.31578 -0.695802 0
M  V30 2542 C 226.19 -3.58014 -1.16201 0
M  V30 2543 C 225.337 -2.76699 -0.182455 0
M  V30 2544 H 228.288 -1.54406 0.366675 0
M  V30 2545 H 228.309 -3.47454 -1.55099 0
M  V30 2546 H 227.821 -3.87421 0.229449 0
M  V30 2547 H 225.922 -3.07553 -2.10338 0
M  V30 2548 H 226.035 -4.66501 -1.09151 0
M  V30 2549 H 224.399 -2.45618 -0.674072 0
M  V30 2550 H 225.182 -3.35311 0.736297 0
M  V30 2551 N 227.627 0.131896 -1.57047 0
M  V30 2552 C 228.875 0.840269 -1.83804 0
M  V30 2553 C 229.196 1.81017 -0.72512 0
M  V30 2554 O 228.466 1.94272 0.251995 0
M  V30 2555 H 227.046 0.313294 -0.678127 0
M  V30 2556 H 229.708 0.122294 -1.94516 0
M  V30 2557 H 228.804 1.39335 -2.79271 0
M  V30 2558 N 229.106 1.52395 0.401703 0
M  V30 2559 C 230.016 1.7917 1.51444 0
M  V30 2560 C 231.032 0.677691 1.6026 0
M  V30 2561 O 232.208 0.963909 1.76835 0
M  V30 2562 C 229.273 1.94347 2.87107 0
M  V30 2563 C 228.334 3.18257 2.88116 0
M  V30 2564 C 227.567 3.32701 4.17308 0
M  V30 2565 O 227.79 2.52238 5.11598 0
M  V30 2566 O 226.724 4.25891 4.25324 0
M  V30 2567 H 230.55 2.73633 1.31752 0
M  V30 2568 H 228.135 1.3733 0.588296 0
M  V30 2569 H 230.017 2.06109 3.67555 0
M  V30 2570 H 228.692 1.03073 3.06851 0
M  V30 2571 H 227.599 3.11947 2.06494 0
M  V30 2572 H 228.932 4.09336 2.73322 0
M  V30 2573 N 230.584 -0.659388 1.43143 0
M  V30 2574 C 231.83 -1.42145 1.44647 0
M  V30 2575 C 232.163 -1.9408 0.0681907 0
M  V30 2576 O 231.438 -1.71899 -0.910007 0
M  V30 2577 C 231.721 -2.60735 2.48373 0
M  V30 2578 C 231.574 -2.14332 3.95451 0
M  V30 2579 C 232.893 -3.62951 2.48906 0
M  V30 2580 H 230.012 -0.51552 0.526696 0
M  V30 2581 H 232.654 -0.748069 1.74654 0
M  V30 2582 H 230.804 -3.18184 2.22916 0
M  V30 2583 H 232.476 -1.61932 4.31944 0
M  V30 2584 H 230.719 -1.4576 4.08578 0
M  V30 2585 H 231.39 -2.99583 4.63631 0
M  V30 2586 H 233.866 -3.1525 2.71582 0
M  V30 2587 H 232.742 -4.43487 3.23435 0
M  V30 2588 H 233.003 -4.15126 1.52061 0
M  V30 2589 N 232.062 -1.29571 -0.897171 0
M  V30 2590 C 233.292 -1.20408 -1.67886 0
M  V30 2591 C 233.7 0.237429 -1.87704 0
M  V30 2592 O 233.043 1.17048 -1.41582 0
M  V30 2593 C 233.105 -1.84887 -3.08314 0
M  V30 2594 C 232.769 -3.34189 -3.11716 0
M  V30 2595 C 233.766 -4.30374 -2.91675 0
M  V30 2596 C 231.451 -3.75431 -3.33701 0
M  V30 2597 C 233.445 -5.65776 -2.93557 0
M  V30 2598 C 231.132 -5.10955 -3.35214 0
M  V30 2599 C 232.13 -6.05938 -3.15164 0
M  V30 2600 O 231.818 -7.38987 -3.1647 0
M  V30 2601 H 231.55 -0.418289 -0.531046 0
M  V30 2602 H 234.104 -1.71514 -1.13014 0
M  V30 2603 H 232.334 -1.28295 -3.64798 0
M  V30 2604 H 234.023 -1.70011 -3.6858 0
M  V30 2605 H 234.789 -3.99844 -2.74499 0
M  V30 2606 H 230.668 -3.01953 -3.48347 0
M  V30 2607 H 234.212 -6.39889 -2.77826 0
M  V30 2608 H 230.109 -5.4113 -3.51922 0
M  V30 2609 H 230.877 -7.47823 -3.3272 0
M  V30 2610 N 233.54 1.10788 -1.12088 0
M  V30 2611 C 234.768 1.86461 -0.896651 0
M  V30 2612 C 235.183 1.80492 0.553912 0
M  V30 2613 O 234.54 1.19102 1.38278 0
M  V30 2614 C 234.591 3.35006 -1.35843 0
M  V30 2615 O 234.312 3.40866 -2.75213 0
M  V30 2616 C 235.813 4.27565 -1.1706 0
M  V30 2617 H 233.033 0.589425 -0.320654 0
M  V30 2618 H 235.577 1.40076 -1.48993 0
M  V30 2619 H 233.732 3.7887 -0.808458 0
M  V30 2620 H 234.146 4.33411 -2.9539 0
M  V30 2621 H 235.62 5.30007 -1.54263 0
M  V30 2622 H 236.097 4.3906 -0.110814 0
M  V30 2623 H 236.703 3.89501 -1.70789 0
M  V30 2624 N 235.018 0.912232 1.28515 0
M  V30 2625 C 236.295 0.463597 1.90027 0
M  V30 2626 C 236.675 -1.05753 1.82701 0
M  V30 2627 O 236.023 -1.90492 1.26194 0
M  V30 2628 C 236.233 0.992253 3.34597 0
M  V30 2629 C 237.581 1.04344 4.11579 0
M  V30 2630 O 238.605 0.94079 3.43551 0
M  V30 2631 O 237.464 1.1995 5.33174 0
M  V30 2632 H 234.558 0.146666 0.813891 0
M  V30 2633 H 237.104 1.00292 1.36893 0
M  V30 2634 H 235.876 2.03623 3.34146 0
M  V30 2635 H 235.499 0.433672 3.95228 0
M  V30 2636 N 236.496 -1.42363 0.676048 0
M  V30 2637 C 237.726 -2.05561 0.206967 0
M  V30 2638 C 238.134 -1.50887 -1.14148 0
M  V30 2639 O 237.477 -0.643933 -1.72044 0
M  V30 2640 C 237.539 -3.5944 0.0659508 0
M  V30 2641 C 237.203 -4.36812 1.34331 0
M  V30 2642 C 238.2 -4.67383 2.27704 0
M  V30 2643 C 235.885 -4.76429 1.59125 0
M  V30 2644 C 237.879 -5.36509 3.44147 0
M  V30 2645 C 235.566 -5.45294 2.75857 0
M  V30 2646 C 236.564 -5.75259 3.68193 0
M  V30 2647 O 236.252 -6.42712 4.82883 0
M  V30 2648 H 235.984 -0.668872 0.0979084 0
M  V30 2649 H 238.538 -1.83467 0.923531 0
M  V30 2650 H 236.768 -3.80197 -0.706204 0
M  V30 2651 H 238.457 -4.0427 -0.363418 0
M  V30 2652 H 239.223 -4.37275 2.09799 0
M  V30 2653 H 235.102 -4.52498 0.881258 0
M  V30 2654 H 238.646 -5.59814 4.16238 0
M  V30 2655 H 234.543 -5.7482 2.93688 0
M  V30 2656 H 235.311 -6.61204 4.82444 0
M  V30 2657 N 237.974 -0.419461 -1.51915 0
M  V30 2658 C 239.22 0.153166 -2.02221 0
M  V30 2659 C 239.553 1.43907 -1.30401 0
M  V30 2660 O 238.828 1.90055 -0.413438 0
M  V30 2661 C 239.111 0.390291 -3.57979 0
M  V30 2662 C 238.964 -0.913014 -4.40436 0
M  V30 2663 C 240.283 1.16794 -4.2432 0
M  V30 2664 H 237.402 0.0541924 -0.735005 0
M  V30 2665 H 240.044 -0.554955 -1.81715 0
M  V30 2666 H 238.194 0.993491 -3.75582 0
M  V30 2667 H 239.866 -1.54882 -4.34522 0
M  V30 2668 H 238.109 -1.52168 -4.06236 0
M  V30 2669 H 238.78 -0.701361 -5.47526 0
M  V30 2670 H 241.256 0.657161 -4.10878 0
M  V30 2671 H 240.132 1.3026 -5.3322 0
M  V30 2672 H 240.393 2.19132 -3.83971 0
M  V30 2673 N 239.452 1.56882 -0.150215 0
M  V30 2674 C 240.415 2.1573 0.774157 0
M  V30 2675 C 241.415 1.0999 1.17298 0
M  V30 2676 O 242.605 1.35613 1.09338 0
M  V30 2677 C 239.737 2.72302 2.05096 0
M  V30 2678 H 240.93 2.98752 0.262201 0
M  V30 2679 H 238.483 1.55985 0.099248 0
M  V30 2680 H 239.218 1.92956 2.6065 0
M  V30 2681 H 239.003 3.49665 1.77416 0
M  V30 2682 H 240.493 3.17632 2.71109 0
M  V30 2683 N 240.93 -0.123565 1.57115 0
M  V30 2684 C 242.158 -0.846461 1.88793 0
M  V30 2685 C 242.573 -1.73652 0.740976 0
M  V30 2686 O 241.93 -1.80207 -0.288393 0
M  V30 2687 C 241.981 -1.6837 3.19897 0
M  V30 2688 O 241.702 -0.829477 4.30176 0
M  V30 2689 C 243.203 -2.51214 3.65248 0
M  V30 2690 H 240.423 -0.243573 0.625231 0
M  V30 2691 H 242.967 -0.109324 2.04208 0
M  V30 2692 H 241.122 -2.37364 3.06165 0
M  V30 2693 H 241.536 -1.40651 5.0529 0
M  V30 2694 H 243.01 -3.05497 4.59756 0
M  V30 2695 H 243.487 -3.28359 2.9168 0
M  V30 2696 H 244.093 -1.8747 3.81752 0
M  V30 2697 N 242.408 -1.52605 -0.393616 0
M  V30 2698 C 243.824 -1.41753 -0.733357 0
M  V30 2699 C 244.024 -0.534293 -1.94287 0
M  V30 2700 O 243.08 -0.0059787 -2.52499 0
M  V30 2701 C 244.393 -2.84531 -0.972772 0
M  V30 2702 C 245.941 -2.93978 -1.07453 0
M  V30 2703 C 246.416 -4.37756 -1.3466 0
M  V30 2704 N 247.907 -4.4106 -1.41492 0
M  V30 2705 C 248.642 -5.49387 -1.642 0
M  V30 2706 N 248.138 -6.67806 -1.8441 0
M  V30 2707 N 249.931 -5.36923 -1.66342 0
M  V30 2708 H 242.082 -2.08555 0.402328 0
M  V30 2709 H 244.345 -0.940654 0.117789 0
M  V30 2710 H 244.051 -3.51353 -0.156204 0
M  V30 2711 H 243.925 -3.26508 -1.88871 0
M  V30 2712 H 246.312 -2.27326 -1.88167 0
M  V30 2713 H 246.393 -2.55435 -0.136605 0
M  V30 2714 H 246.037 -5.04972 -0.544581 0
M  V30 2715 H 245.967 -4.73848 -2.2973 0
M  V30 2716 H 248.458 -3.55705 -1.27601 0
M  V30 2717 H 248.771 -7.46141 -2.01231 0
M  V30 2718 H 247.116 -6.70843 -1.81644 0
M  V30 2719 H 250.307 -4.43381 -1.50102 0
M  V30 2720 H 250.48 -6.21416 -1.837 0
M  V30 2721 N 243.887 0.651787 -1.4349 0
M  V30 2722 C 245.133 1.4121 -1.46395 0
M  V30 2723 C 245.488 1.92202 -0.087366 0
M  V30 2724 O 244.781 1.69452 0.894231 0
M  V30 2725 C 244.975 2.60914 -2.44251 0
M  V30 2726 C 244.804 2.21639 -3.91288 0
M  V30 2727 C 243.574 2.09897 -4.59643 0
M  V30 2728 C 245.772 1.81835 -4.81083 0
M  V30 2729 N 243.754 1.63967 -5.91598 0
M  V30 2730 C 245.125 1.46998 -6.02322 0
M  V30 2731 C 247.18 1.69031 -4.6833 0
M  V30 2732 C 245.883 1.00638 -7.12225 0
M  V30 2733 C 247.909 1.24077 -5.78238 0
M  V30 2734 C 247.271 0.901772 -6.98604 0
M  V30 2735 H 243.37 0.512322 -0.590805 0
M  V30 2736 H 245.954 0.74989 -1.7968 0
M  V30 2737 H 244.125 3.24792 -2.1299 0
M  V30 2738 H 245.857 3.27622 -2.37584 0
M  V30 2739 H 242.612 2.297 -4.14168 0
M  V30 2740 H 243.036 1.43359 -6.61647 0
M  V30 2741 H 247.678 1.93878 -3.75727 0
M  V30 2742 H 245.396 0.745399 -8.04655 0
M  V30 2743 H 248.982 1.14657 -5.7039 0
M  V30 2744 H 247.862 0.559226 -7.82203 0
M  V30 2745 N 245.365 1.30045 0.890287 0
M  V30 2746 C 246.595 1.21296 1.67245 0
M  V30 2747 C 247.003 -0.227471 1.87828 0
M  V30 2748 O 246.346 -1.16296 1.422 0
M  V30 2749 C 246.408 1.86519 3.07329 0
M  V30 2750 C 246.072 3.35837 3.09939 0
M  V30 2751 C 247.069 4.31915 2.89389 0
M  V30 2752 C 244.754 3.77196 3.31706 0
M  V30 2753 C 246.748 5.67325 2.90552 0
M  V30 2754 C 244.435 5.12725 3.32499 0
M  V30 2755 C 245.433 6.076 3.11947 0
M  V30 2756 O 245.121 7.40655 3.12547 0
M  V30 2757 H 244.853 0.4211 0.528821 0
M  V30 2758 H 247.407 1.72111 1.12103 0
M  V30 2759 H 245.637 1.30228 3.64112 0
M  V30 2760 H 247.326 1.71963 3.67673 0
M  V30 2761 H 248.092 4.01294 2.72375 0
M  V30 2762 H 243.971 3.03796 3.4674 0
M  V30 2763 H 247.515 6.41354 2.74429 0
M  V30 2764 H 243.412 5.42988 3.49047 0
M  V30 2765 H 244.18 7.49577 3.28749 0
M  V30 2766 N 246.843 -1.10192 1.12674 0
M  V30 2767 C 248.259 -1.34235 0.863317 0
M  V30 2768 C 248.459 -1.95062 -0.505277 0
M  V30 2769 O 247.515 -2.19192 -1.25345 0
M  V30 2770 C 248.828 -2.2616 1.98172 0
M  V30 2771 C 250.376 -2.3969 2.0129 0
M  V30 2772 C 250.851 -3.34946 3.1237 0
M  V30 2773 N 252.342 -3.42515 3.11829 0
M  V30 2774 C 253.077 -4.16199 3.94419 0
M  V30 2775 N 252.573 -4.92747 4.87004 0
M  V30 2776 N 254.366 -4.11843 3.82547 0
M  V30 2777 H 246.517 -0.690798 2.00853 0
M  V30 2778 H 248.78 -0.366774 0.874174 0
M  V30 2779 H 248.486 -1.8868 2.96804 0
M  V30 2780 H 248.36 -3.26488 1.88906 0
M  V30 2781 H 250.747 -2.76438 1.03276 0
M  V30 2782 H 250.828 -1.39169 2.14629 0
M  V30 2783 H 250.472 -2.98923 4.10619 0
M  V30 2784 H 250.402 -4.35353 2.96269 0
M  V30 2785 H 252.893 -2.87926 2.44759 0
M  V30 2786 H 253.206 -5.46376 5.46528 0
M  V30 2787 H 251.551 -4.91862 4.91016 0
M  V30 2788 H 254.742 -3.51136 3.0955 0
M  V30 2789 H 254.915 -4.69007 4.47142 0
M  V30 2790 N 248.321 -0.919034 -1.28029 0
M  V30 2791 C 249.284 -0.416182 -2.2539 0
M  V30 2792 C 250.284 0.460438 -1.54067 0
M  V30 2793 O 251.474 0.262744 -1.72207 0
M  V30 2794 C 248.606 0.402707 -3.38513 0
M  V30 2795 H 249.799 -1.27629 -2.71387 0
M  V30 2796 H 247.352 -0.698919 -1.39803 0
M  V30 2797 H 248.087 1.282 -2.97885 0
M  V30 2798 H 247.872 -0.225698 -3.9145 0
M  V30 2799 H 249.362 0.745191 -4.10897 0
M  V30 2800 N 249.799 1.42003 -0.683588 0
M  V30 2801 C 251.21 1.84501 -0.285736 0
M  V30 2802 C 251.561 1.57213 1.17382 0
M  V30 2803 O 250.686 1.03642 1.89966 0
M  V30 2804 C 251.281 3.34912 -0.511821 0
M  V30 2805 C 249.84 3.76025 -0.168005 0
M  V30 2806 C 248.987 2.6551 -0.799983 0
M  V30 2807 H 251.938 1.31724 -0.885119 0
M  V30 2808 H 251.959 3.79784 0.233292 0
M  V30 2809 H 251.471 3.54741 -1.57418 0
M  V30 2810 H 249.572 3.61801 0.890567 0
M  V30 2811 H 249.685 4.75141 -0.614661 0
M  V30 2812 H 248.049 2.53654 -0.230568 0
M  V30 2813 H 248.832 2.8816 -1.86597 0
M  V30 2814 N 251.277 0.427512 1.51691 0
M  V30 2815 C 252.187 -0.39527 2.31246 0
M  V30 2816 C 253.203 -1.03674 1.39742 0
M  V30 2817 O 254.379 -1.03425 1.72816 0
M  V30 2818 C 251.444 -1.48706 3.13189 0
M  V30 2819 C 250.505 -0.866743 4.20459 0
M  V30 2820 C 249.738 -1.90651 4.98486 0
M  V30 2821 O 249.961 -3.12733 4.77026 0
M  V30 2822 O 248.895 -1.5025 5.82845 0
M  V30 2823 H 252.721 0.253918 3.02637 0
M  V30 2824 H 250.306 0.190274 1.48183 0
M  V30 2825 H 252.188 -2.12047 3.64162 0
M  V30 2826 H 250.863 -2.12051 2.44573 0
M  V30 2827 H 249.77 -0.195544 3.73589 0
M  V30 2828 H 251.103 -0.276934 4.9142 0
M  V30 2829 N 252.755 -1.56801 0.158532 0
M  V30 2830 C 253.685 -2.20347 -0.772609 0
M  V30 2831 C 254.666 -1.15518 -1.24859 0
M  V30 2832 O 255.851 -1.43902 -1.30406 0
M  V30 2833 C 252.981 -2.83417 -2.00729 0
M  V30 2834 C 251.935 -3.94174 -1.66765 0
M  V30 2835 C 251.261 -4.44233 -2.97592 0
M  V30 2836 C 252.561 -5.14392 -0.905447 0
M  V30 2837 H 254.255 -2.98413 -0.242959 0
M  V30 2838 H 251.801 -1.43537 -0.115419 0
M  V30 2839 H 253.754 -3.26543 -2.6636 0
M  V30 2840 H 252.478 -2.02701 -2.56086 0
M  V30 2841 H 251.137 -3.51684 -1.03508 0
M  V30 2842 H 250.785 -3.60325 -3.50963 0
M  V30 2843 H 250.485 -5.18945 -2.75626 0
M  V30 2844 H 252.009 -4.90037 -3.64274 0
M  V30 2845 H 253.423 -5.5429 -1.46408 0
M  V30 2846 H 251.82 -5.9494 -0.7853 0
M  V30 2847 H 252.89 -4.84795 0.100668 0
M  V30 2848 N 254.233 0.115231 -1.57178 0
M  V30 2849 C 255.163 1.1423 -2.03651 0
M  V30 2850 C 256.144 1.42967 -0.921655 0
M  V30 2851 O 257.329 1.53343 -1.19162 0
M  V30 2852 C 254.459 2.4675 -2.44401 0
M  V30 2853 C 253.413 2.32467 -3.59365 0
M  V30 2854 C 252.739 3.69984 -3.86026 0
M  V30 2855 C 254.039 1.78203 -4.90959 0
M  V30 2856 H 255.733 0.755749 -2.89705 0
M  V30 2857 H 253.279 0.362093 -1.39373 0
M  V30 2858 H 255.232 3.18854 -2.75517 0
M  V30 2859 H 253.956 2.87302 -1.55322 0
M  V30 2860 H 252.615 1.62811 -3.28463 0
M  V30 2861 H 252.263 4.08028 -2.94147 0
M  V30 2862 H 251.963 3.61279 -4.63412 0
M  V30 2863 H 253.487 4.43587 -4.19599 0
M  V30 2864 H 254.901 2.40128 -5.20587 0
M  V30 2865 H 253.298 1.8031 -5.72371 0
M  V30 2866 H 254.368 0.739876 -4.79222 0
M  V30 2867 N 255.711 1.52812 0.385517 0
M  V30 2868 C 256.957 1.68275 1.13188 0
M  V30 2869 C 257.29 0.423179 1.89533 0
M  V30 2870 O 256.565 -0.579113 1.85679 0
M  V30 2871 C 256.848 2.92001 2.1073 0
M  V30 2872 C 256.701 4.28067 1.38125 0
M  V30 2873 C 258.02 3.11283 3.11113 0
M  V30 2874 H 255.139 0.612352 0.410115 0
M  V30 2875 H 257.781 1.85415 0.414869 0
M  V30 2876 H 255.931 2.77519 2.71874 0
M  V30 2877 H 257.603 4.54324 0.799187 0
M  V30 2878 H 255.846 4.28388 0.683092 0
M  V30 2879 H 256.517 5.10733 2.09417 0
M  V30 2880 H 258.993 3.2482 2.6006 0
M  V30 2881 H 257.869 3.99325 3.76605 0
M  V30 2882 H 258.13 2.25656 3.80173 0
M  V30 2883 N 257.189 -0.644168 1.43834 0
M  V30 2884 C 258.437 -1.40117 1.45642 0
M  V30 2885 C 258.758 -1.94814 0.0852413 0
M  V30 2886 O 258.028 -1.74988 -0.880688 0
M  V30 2887 H 256.608 -0.52005 0.536243 0
M  V30 2888 H 259.27 -0.7591 1.7951 0
M  V30 2889 H 258.366 -2.23902 2.17427 0
M  V30 2890 N 258.668 -1.30515 -0.883378 0
M  V30 2891 C 259.945 -1.10086 -1.6168 0
M  V30 2892 C 260.325 0.349269 -2.08191 0
M  V30 2893 O 259.673 1.34105 -1.85008 0
M  V30 2894 C 259.883 -2.10315 -2.78511 0
M  V30 2895 C 261.231 -2.42119 -3.48803 0
M  V30 2896 O 262.255 -2.08638 -2.88702 0
M  V30 2897 O 261.114 -2.99396 -4.57192 0
M  V30 2898 H 258.208 -0.422907 -0.710689 0
M  V30 2899 H 260.754 -1.41947 -0.930015 0
M  V30 2900 H 259.526 -3.07917 -2.41459 0
M  V30 2901 H 259.149 -1.79282 -3.54886 0
M  V30 2902 N 260.146 1.09593 -1.13257 0
M  V30 2903 C 261.392 1.82003 -0.89458 0
M  V30 2904 C 261.725 1.85402 0.577906 0
M  V30 2905 O 261 1.32099 1.42759 0
M  V30 2906 C 261.283 3.28237 -1.48096 0
M  V30 2907 C 261.136 3.3312 -3.02244 0
M  V30 2908 C 262.455 4.24871 -1.14774 0
M  V30 2909 H 259.574 0.66077 -0.326424 0
M  V30 2910 H 262.216 1.28389 -1.40058 0
M  V30 2911 H 260.366 3.74024 -1.05062 0
M  V30 2912 H 262.038 2.95748 -3.54021 0
M  V30 2913 H 260.281 2.72756 -3.37323 0
M  V30 2914 H 260.952 4.3613 -3.38371 0
M  V30 2915 H 263.428 3.87361 -1.51957 0
M  V30 2916 H 262.304 5.25532 -1.58452 0
M  V30 2917 H 262.565 4.42058 -0.0611849 0
M  V30 2918 N 261.624 0.925811 1.2754 0
M  V30 2919 C 262.571 0.422045 2.26908 0
M  V30 2920 C 263.541 -0.510029 1.58076 0
M  V30 2921 O 264.726 -0.429599 1.85901 0
M  V30 2922 C 261.866 -0.320837 3.43605 0
M  V30 2923 C 260.979 0.64513 4.27156 0
M  V30 2924 C 260.114 -0.117405 5.3107 0
M  V30 2925 C 259.153 0.841391 6.0629 0
M  V30 2926 N 258.29 0.111604 7.02011 0
M  V30 2927 H 263.13 1.27441 2.69375 0
M  V30 2928 H 260.667 0.639697 1.32462 0
M  V30 2929 H 262.625 -0.76785 4.10073 0
M  V30 2930 H 261.255 -1.13745 3.02096 0
M  V30 2931 H 260.307 1.21067 3.6062 0
M  V30 2932 H 261.619 1.37797 4.79389 0
M  V30 2933 H 260.773 -0.624422 6.03478 0
M  V30 2934 H 259.512 -0.883219 4.79636 0
M  V30 2935 H 258.517 1.35967 5.32722 0
M  V30 2936 H 259.742 1.60696 6.59813 0
M  V30 2937 H 257.688 -0.635999 6.5291 0
M  V30 2938 H 257.605 0.784044 7.51923 0
M  V30 2939 H 258.873 -0.374823 7.78598 0
M  V30 2940 N 263.102 -1.41638 0.69111 0
M  V30 2941 C 264.332 -2.0533 0.228758 0
M  V30 2942 C 264.74 -1.52089 -1.12541 0
M  V30 2943 O 264.083 -0.662145 -1.71351 0
M  V30 2944 C 264.145 -3.59349 0.10407 0
M  V30 2945 C 263.809 -4.35362 1.38956 0
M  V30 2946 C 264.806 -4.64942 2.32648 0
M  V30 2947 C 262.491 -4.74714 1.64169 0
M  V30 2948 C 264.485 -5.32828 3.49818 0
M  V30 2949 C 262.172 -5.42338 2.81625 0
M  V30 2950 C 263.17 -5.71322 3.74273 0
M  V30 2951 O 262.858 -6.37554 4.89673 0
M  V30 2952 H 262.59 -0.667796 0.104997 0
M  V30 2953 H 265.144 -1.82477 0.942938 0
M  V30 2954 H 263.374 -3.80924 -0.665839 0
M  V30 2955 H 265.063 -4.04633 -0.320519 0
M  V30 2956 H 265.829 -4.35025 2.14425 0
M  V30 2957 H 261.708 -4.51538 0.929202 0
M  V30 2958 H 265.252 -5.55368 4.22152 0
M  V30 2959 H 261.149 -5.71673 2.99768 0
M  V30 2960 H 261.917 -6.56049 4.8943 0
M  V30 2961 N 264.58 -0.43555 -1.51462 0
M  V30 2962 C 265.828 0.131254 -2.01673 0
M  V30 2963 C 266.149 1.43368 -1.32177 0
M  V30 2964 O 265.419 1.90524 -0.455769 0
M  V30 2965 H 263.999 0.0514954 -0.745223 0
M  V30 2966 H 266.661 -0.577847 -1.86137 0
M  V30 2967 H 265.757 0.308446 -3.10572 0
M  V30 2968 N 266.058 1.56714 -0.166846 0
M  V30 2969 C 267.005 2.17746 0.765193 0
M  V30 2970 C 267.975 1.11614 1.23011 0
M  V30 2971 O 269.16 1.39745 1.29908 0
M  V30 2972 C 266.3 2.81882 1.9909 0
M  V30 2973 C 265.413 4.02462 1.56997 0
M  V30 2974 C 264.548 4.54537 2.749 0
M  V30 2975 C 263.587 5.67538 2.29275 0
M  V30 2976 N 262.724 6.14142 3.40255 0
M  V30 2977 H 267.564 2.97048 0.237952 0
M  V30 2978 H 265.101 1.4672 0.105725 0
M  V30 2979 H 267.059 3.17221 2.70974 0
M  V30 2980 H 265.689 2.05191 2.49192 0
M  V30 2981 H 264.741 3.72973 0.748037 0
M  V30 2982 H 266.053 4.84273 1.19503 0
M  V30 2983 H 265.207 4.92035 3.54946 0
M  V30 2984 H 263.946 3.71774 3.1565 0
M  V30 2985 H 262.951 5.29597 1.47674 0
M  V30 2986 H 264.176 6.52099 1.89588 0
M  V30 2987 H 262.122 5.3431 3.8059 0
M  V30 2988 H 262.039 6.9093 3.06841 0
M  V30 2989 H 263.307 6.56289 4.206 0
M  V30 2990 N 267.536 -0.106894 1.57237 0
M  V30 2991 C 268.499 -1.11466 2.0027 0
M  V30 2992 C 269.499 -1.33623 0.894519 0
M  V30 2993 O 270.689 -1.29935 1.16028 0
M  V30 2994 C 267.821 -2.46646 2.35327 0
M  V30 2995 H 269.014 -0.744516 2.90512 0
M  V30 2996 H 266.567 -0.351576 1.52295 0
M  V30 2997 H 267.302 -2.88558 1.48003 0
M  V30 2998 H 267.087 -2.31915 3.16161 0
M  V30 2999 H 268.577 -3.19151 2.69318 0
M  V30 3000 N 269.014 -1.53014 -0.377408 0
M  V30 3001 C 270.26 -1.68872 -1.12294 0
M  V30 3002 C 270.593 -0.433224 -1.89306 0
M  V30 3003 O 269.868 0.569258 -1.85983 0
M  V30 3004 C 270.151 -2.93115 -2.09179 0
M  V30 3005 C 270.004 -4.28794 -1.35853 0
M  V30 3006 C 271.323 -3.12928 -3.09458 0
M  V30 3007 H 268.442 -0.614518 -0.406862 0
M  V30 3008 H 271.084 -1.85633 -0.40503 0
M  V30 3009 H 269.234 -2.78956 -2.70399 0
M  V30 3010 H 270.906 -4.54742 -0.775082 0
M  V30 3011 H 269.149 -4.28744 -0.660364 0
M  V30 3012 H 269.82 -5.11837 -2.06706 0
M  V30 3013 H 272.296 -3.26194 -2.58334 0
M  V30 3014 H 271.172 -4.01316 -3.74482 0
M  V30 3015 H 271.433 -2.27669 -3.78971 0
M  V30 3016 N 270.492 0.636531 -1.44174 0
M  V30 3017 C 271.769 1.39463 -1.37148 0
M  V30 3018 C 272.149 2.11082 -0.027507 0
M  V30 3019 O 271.497 2.05954 0.989716 0
M  V30 3020 C 271.707 2.36552 -2.56601 0
M  V30 3021 C 273.055 3.00048 -3.00427 0
M  V30 3022 O 274.079 2.46878 -2.56767 0
M  V30 3023 O 272.938 3.96488 -3.76111 0
M  V30 3024 H 270.032 0.623903 -0.542839 0
M  V30 3025 H 272.578 0.662039 -1.56253 0
M  V30 3026 H 271.35 1.82692 -3.46034 0
M  V30 3027 H 270.973 3.17236 -2.39681 0
M  V30 3028 N 271.97 1.30982 0.876444 0
M  V30 3029 C 273.216 1.20474 1.63138 0
M  V30 3030 C 273.549 -0.238096 1.92735 0
M  V30 3031 O 272.824 -1.1692 1.55435 0
M  V30 3032 C 273.107 2.04244 2.96574 0
M  V30 3033 C 272.96 3.56793 2.73896 0
M  V30 3034 C 274.279 1.88684 3.97601 0
M  V30 3035 H 271.398 0.439001 0.591985 0
M  V30 3036 H 274.04 1.60704 1.01361 0
M  V30 3037 H 272.19 1.70063 3.493 0
M  V30 3038 H 273.862 4.01077 2.27892 0
M  V30 3039 H 272.105 3.80548 2.08245 0
M  V30 3040 H 272.776 4.10706 3.68815 0
M  V30 3041 H 275.252 2.18584 3.54062 0
M  V30 3042 H 274.128 2.4961 4.88862 0
M  V30 3043 H 274.389 0.848343 4.33884 0
M  V30 3044 N 273.449 -1.08991 1.13837 0
M  V30 3045 C 274.695 -1.81699 0.91417 0
M  V30 3046 C 275.05 -1.84264 -0.553594 0
M  V30 3047 O 274.343 -1.30313 -1.4046 0
M  V30 3048 C 274.537 -3.27042 1.44147 0
M  V30 3049 C 274.366 -3.38637 2.95897 0
M  V30 3050 C 273.136 -3.50177 3.64286 0
M  V30 3051 C 275.334 -3.30791 3.93804 0
M  V30 3052 N 273.316 -3.50501 5.04006 0
M  V30 3053 C 274.687 -3.38037 5.19741 0
M  V30 3054 C 276.742 -3.14488 3.86007 0
M  V30 3055 C 275.445 -3.30659 6.38793 0
M  V30 3056 C 277.471 -3.08438 5.04599 0
M  V30 3057 C 276.833 -3.1628 6.29402 0
M  V30 3058 H 272.932 -0.678967 0.387979 0
M  V30 3059 H 275.516 -1.30224 1.4474 0
M  V30 3060 H 273.687 -3.76976 0.935091 0
M  V30 3061 H 275.419 -3.87785 1.1578 0
M  V30 3062 H 272.174 -3.53815 3.1482 0
M  V30 3063 H 272.598 -3.54236 5.76928 0
M  V30 3064 H 277.24 -3.07291 2.90399 0
M  V30 3065 H 274.958 -3.36618 7.34652 0
M  V30 3066 H 278.544 -2.96952 5.0031 0
M  V30 3067 H 277.424 -3.1162 7.19627 0
M  V30 3068 N 274.927 -0.932562 -1.27047 0
M  V30 3069 C 275.89 -0.440064 -2.24936 0
M  V30 3070 C 276.89 0.444071 -1.54547 0
M  V30 3071 O 278.08 0.244465 -1.72476 0
M  V30 3072 C 275.212 0.36678 -3.38921 0
M  V30 3073 H 276.405 -1.305 -2.70018 0
M  V30 3074 H 273.958 -0.713707 -1.39054 0
M  V30 3075 H 274.693 1.25033 -2.99228 0
M  V30 3076 H 274.478 -0.267204 -3.91188 0
M  V30 3077 H 275.968 0.701567 -4.11665 0
M  V30 3078 N 276.405 1.4127 -0.698611 0
M  V30 3079 C 277.654 2.00408 -0.227949 0
M  V30 3080 C 277.967 1.55981 1.18023 0
M  V30 3081 O 279.173 2.07699 1.74852 0
M  V30 3082 C 277.629 3.58129 -0.356636 0
M  V30 3083 C 277.237 4.11536 -1.77037 0
M  V30 3084 C 278.981 4.24466 0.0540969 0
M  V30 3085 C 276.888 5.61701 -1.85055 0
M  V30 3086 H 275.818 0.749586 -0.0814657 0
M  V30 3087 H 278.469 1.61713 -0.867249 0
M  V30 3088 H 276.851 3.94442 0.350965 0
M  V30 3089 H 278.025 3.86636 -2.50698 0
M  V30 3090 H 276.34 3.57736 -2.13105 0
M  V30 3091 H 278.937 5.34698 0.0146723 0
M  V30 3092 H 279.28 4.01687 1.09332 0
M  V30 3093 H 279.813 3.93198 -0.603337 0
M  V30 3094 H 276.552 5.89312 -2.8704 0
M  V30 3095 H 276.072 5.88519 -1.15783 0
M  V30 3096 H 277.751 6.26524 -1.61484 0
M  V30 3097 N 277.883 0.443576 1.51229 0
M  V30 3098 C 279.131 -0.120557 2.0174 0
M  V30 3099 C 279.452 -1.42665 1.32935 0
M  V30 3100 O 278.722 -1.9028 0.465866 0
M  V30 3101 H 277.302 -0.0475426 0.745486 0
M  V30 3102 H 279.964 0.587711 1.85828 0
M  V30 3103 H 279.06 -0.291972 3.10731 0
M  V30 3104 N 279.361 -1.56624 0.175154 0
M  V30 3105 C 280.601 -1.98894 -0.471221 0
M  V30 3106 C 280.965 -1.05889 -1.60161 0
M  V30 3107 O 282.166 -1.37315 -2.3108 0
M  V30 3108 C 280.437 -3.44865 -0.938241 0
M  V30 3109 S 281.996 -4.09164 -1.58526 0
M  V30 3110 H 278.814 -0.694686 -0.151434 0
M  V30 3111 H 281.416 -1.93577 0.27352 0
M  V30 3112 H 280.12 -4.10265 -0.10518 0
M  V30 3113 H 279.651 -3.53956 -1.71693 0
M  V30 3114 H 281.666 -4.04528 -2.87352 0
M  V30 3115 N 280.839 0.0985539 -1.57292 0
M  V30 3116 C 281.769 1.12064 -2.04851 0
M  V30 3117 C 282.75 1.41981 -0.936767 0
M  V30 3118 O 283.935 1.52071 -1.20781 0
M  V30 3119 C 281.065 2.44144 -2.47004 0
M  V30 3120 C 280.019 2.28643 -3.6181 0
M  V30 3121 C 279.345 3.65869 -3.89929 0
M  V30 3122 C 280.645 1.72986 -4.92822 0
M  V30 3123 H 282.339 0.724979 -2.9049 0
M  V30 3124 H 279.885 0.34729 -1.39749 0
M  V30 3125 H 281.838 3.15914 -2.78884 0
M  V30 3126 H 280.562 2.85639 -1.5836 0
M  V30 3127 H 279.221 1.59318 -3.30172 0
M  V30 3128 H 278.869 4.04885 -2.98458 0
M  V30 3129 H 278.569 3.56344 -4.67218 0
M  V30 3130 H 280.093 4.39112 -4.2428 0
M  V30 3131 H 281.507 2.34593 -5.23105 0
M  V30 3132 H 279.904 1.74229 -5.74251 0
M  V30 3133 H 280.974 0.689007 -4.7998 0
M  V30 3134 N 282.317 1.53212 0.369288 0
M  V30 3135 C 283.563 1.69466 1.11397 0
M  V30 3136 C 283.896 0.443257 1.89074 0
M  V30 3137 O 283.171 -0.559386 1.86282 0
M  V30 3138 C 283.454 2.9422 2.07621 0
M  V30 3139 C 283.307 4.29508 1.33577 0
M  V30 3140 C 284.626 3.14565 3.07794 0
M  V30 3141 H 281.745 0.616667 0.403597 0
M  V30 3142 H 284.387 1.85845 0.395179 0
M  V30 3143 H 282.537 2.80387 2.68916 0
M  V30 3144 H 284.209 4.55147 0.750955 0
M  V30 3145 H 282.452 4.29088 0.637618 0
M  V30 3146 H 283.123 5.12926 2.03989 0
M  V30 3147 H 285.599 3.2756 2.56601 0
M  V30 3148 H 284.475 4.03297 3.72348 0
M  V30 3149 H 284.736 2.29675 3.77759 0
M  V30 3150 N 283.795 -0.628877 1.44509 0
M  V30 3151 C 285.023 -1.41554 1.50897 0
M  V30 3152 C 285.438 -1.8832 0.134564 0
M  V30 3153 O 284.795 -1.60969 -0.859965 0
M  V30 3154 C 284.846 -2.63435 2.47556 0
M  V30 3155 O 284.567 -2.18619 3.79654 0
M  V30 3156 C 286.068 -3.56537 2.63431 0
M  V30 3157 H 283.288 -0.434044 0.511709 0
M  V30 3158 H 285.832 -0.768895 1.89495 0
M  V30 3159 H 283.987 -3.24187 2.12089 0
M  V30 3160 H 284.401 -2.97652 4.31861 0
M  V30 3161 H 285.875 -4.38657 3.35088 0
M  V30 3162 H 286.352 -4.05493 1.68738 0
M  V30 3163 H 286.958 -3.01653 2.9981 0
M  V30 3164 N 285.273 -1.31445 -0.869486 0
M  V30 3165 C 286.183 -1.21097 -2.0093 0
M  V30 3166 C 287.199 -0.127584 -1.73532 0
M  V30 3167 O 288.375 -0.345477 -1.98415 0
M  V30 3168 C 285.44 -0.919378 -3.34288 0
M  V30 3169 C 284.501 -2.08971 -3.75006 0
M  V30 3170 C 283.734 -1.81194 -5.02001 0
M  V30 3171 O 283.957 -0.747296 -5.65484 0
M  V30 3172 O 282.891 -2.66883 -5.39497 0
M  V30 3173 H 286.717 -2.16883 -2.12592 0
M  V30 3174 H 284.302 -1.11189 -0.997868 0
M  V30 3175 H 286.184 -0.772625 -4.14257 0
M  V30 3176 H 284.859 0.00844772 -3.23699 0
M  V30 3177 H 283.766 -2.29187 -2.95676 0
M  V30 3178 H 285.099 -2.9998 -3.90221 0
M  V30 3179 N 286.751 1.08385 -1.14413 0
M  V30 3180 C 287.684 2.14642 -0.774871 0
M  V30 3181 C 288.662 1.60761 0.243876 0
M  V30 3182 O 289.846 1.88031 0.132883 0
M  V30 3183 C 286.973 3.38366 -0.150491 0
M  V30 3184 C 286.019 4.10997 -1.13945 0
M  V30 3185 S 286.852 4.63797 -2.67679 0
M  V30 3186 C 288.008 5.90808 -2.06631 0
M  V30 3187 H 288.241 2.45633 -1.67487 0
M  V30 3188 H 285.774 1.20498 -0.96538 0
M  V30 3189 H 287.732 4.09996 0.203334 0
M  V30 3190 H 286.393 3.05572 0.72694 0
M  V30 3191 H 285.586 4.99783 -0.65059 0
M  V30 3192 H 285.188 3.4528 -1.43727 0
M  V30 3193 H 287.48 6.62411 -1.4219 0
M  V30 3194 H 288.423 6.4439 -2.93542 0
M  V30 3195 H 288.831 5.4383 -1.51357 0
M  V30 3196 N 288.23 0.939286 1.26551 0
M  V30 3197 C 289.477 0.585847 1.9384 0
M  V30 3198 C 289.805 -0.874784 1.73718 0
M  V30 3199 O 289.06 -1.64092 1.06642 0
M  V30 3200 C 289.359 0.872106 3.46596 0
M  V30 3201 C 289.025 2.31632 3.86856 0
M  V30 3202 C 287.687 2.71111 3.97558 0
M  V30 3203 C 290.039 3.25494 4.07066 0
M  V30 3204 C 287.367 4.03553 4.25866 0
M  V30 3205 C 289.719 4.57531 4.36862 0
M  V30 3206 C 288.383 4.96828 4.45778 0
M  V30 3207 H 287.653 0.214377 0.709312 0
M  V30 3208 H 290.3 1.18544 1.50398 0
M  V30 3209 H 288.605 0.18996 3.91339 0
M  V30 3210 H 290.302 0.577442 3.96821 0
M  V30 3211 H 286.892 2.00008 3.79071 0
M  V30 3212 H 291.076 2.9619 3.98227 0
M  V30 3213 H 286.332 4.33665 4.30981 0
M  V30 3214 H 290.506 5.30254 4.51446 0
M  V30 3215 H 288.133 5.99482 4.67468 0
M  V30 3216 N 289.708 -1.40897 0.706093 0
M  V30 3217 C 290.641 -2.282 -0.00328781 0
M  V30 3218 C 291.619 -1.42816 -0.77732 0
M  V30 3219 O 292.803 -1.72237 -0.765944 0
M  V30 3220 C 289.93 -3.23226 -1.01205 0
M  V30 3221 C 288.976 -4.25222 -0.329955 0
M  V30 3222 S 289.809 -5.27269 0.935298 0
M  V30 3223 C 290.965 -6.25859 -0.0716061 0
M  V30 3224 H 291.198 -2.88016 0.737143 0
M  V30 3225 H 288.731 -1.46191 0.496756 0
M  V30 3226 H 290.689 -3.78503 -1.58888 0
M  V30 3227 H 289.35 -2.62485 -1.72513 0
M  V30 3228 H 288.543 -4.92023 -1.09221 0
M  V30 3229 H 288.145 -3.73595 0.174069 0
M  V30 3230 H 290.437 -6.71204 -0.921521 0
M  V30 3231 H 291.38 -7.0586 0.562765 0
M  V30 3232 H 291.788 -5.62852 -0.431088 0
M  V30 3233 N 291.186 -0.45159 -1.50991 0
M  V30 3234 C 292.434 0.109857 -2.01801 0
M  V30 3235 C 292.755 1.41958 -1.3369 0
M  V30 3236 O 292.025 1.9003 -0.475951 0
M  V30 3237 H 290.605 0.0435884 -0.745727 0
M  V30 3238 H 293.267 -0.597557 -1.85514 0
M  V30 3239 H 292.363 0.275489 -3.10882 0
M  V30 3240 N 292.664 1.56529 -0.183458 0
M  V30 3241 C 293.574 2.22144 0.754272 0
M  V30 3242 C 294.59 1.21684 1.24374 0
M  V30 3243 O 295.766 1.54385 1.29333 0
M  V30 3244 C 292.831 2.85884 1.96141 0
M  V30 3245 C 291.892 4.01579 1.51765 0
M  V30 3246 C 291.125 4.6227 2.66725 0
M  V30 3247 O 291.348 4.21865 3.83909 0
M  V30 3248 O 290.282 5.51936 2.40104 0
M  V30 3249 H 294.108 3.02861 0.225527 0
M  V30 3250 H 291.693 1.49331 0.0453032 0
M  V30 3251 H 293.575 3.26253 2.66715 0
M  V30 3252 H 292.25 2.08154 2.47899 0
M  V30 3253 H 291.157 3.65856 0.781049 0
M  V30 3254 H 292.49 4.80938 1.04686 0
M  V30 3255 N 294.142 -0.090211 1.57342 0
M  V30 3256 C 295.553 -0.644173 1.75235 0
M  V30 3257 C 295.904 -1.78865 0.806335 0
M  V30 3258 O 295.029 -2.16395 -0.0140128 0
M  V30 3259 C 295.624 -1.17532 3.1776 0
M  V30 3260 C 294.183 -1.67531 3.37061 0
M  V30 3261 C 293.33 -0.58693 2.71017 0
M  V30 3262 H 296.281 0.135884 1.58117 0
M  V30 3263 H 296.302 -2.04455 3.20902 0
M  V30 3264 H 295.814 -0.342138 3.86589 0
M  V30 3265 H 293.915 -2.53234 2.73319 0
M  V30 3266 H 294.028 -1.76493 4.45406 0
M  V30 3267 H 292.392 -1.02756 2.33052 0
M  V30 3268 H 293.175 0.235758 3.4249 0
M  V30 3269 N 295.62 -1.53406 -0.361157 0
M  V30 3270 C 296.55 -1.83136 -1.44857 0
M  V30 3271 C 297.531 -0.685174 -1.5569 0
M  V30 3272 O 298.716 -0.93544 -1.70186 0
M  V30 3273 C 295.846 -2.02522 -2.82138 0
M  V30 3274 C 294.8 -3.18302 -2.86126 0
M  V30 3275 C 294.126 -3.22989 -4.26125 0
M  V30 3276 C 295.426 -4.56796 -2.53248 0
M  V30 3277 H 297.12 -2.74201 -1.20226 0
M  V30 3278 H 294.666 -1.31938 -0.576922 0
M  V30 3279 H 296.619 -2.21904 -3.58241 0
M  V30 3280 H 295.343 -1.08172 -3.08166 0
M  V30 3281 H 294.002 -2.98747 -2.12475 0
M  V30 3282 H 293.65 -2.26267 -4.49235 0
M  V30 3283 H 293.35 -4.00781 -4.29708 0
M  V30 3284 H 294.874 -3.44559 -5.04094 0
M  V30 3285 H 296.288 -4.7631 -3.19064 0
M  V30 3286 H 294.685 -5.36862 -2.68141 0
M  V30 3287 H 295.755 -4.61606 -1.48484 0
M  V30 3288 N 297.098 0.621204 -1.44841 0
M  V30 3289 C 298.345 1.38055 -1.48145 0
M  V30 3290 C 298.673 1.94143 -0.117867 0
M  V30 3291 O 297.928 1.74713 0.881694 0
M  V30 3292 C 298.227 2.55675 -2.4973 0
M  V30 3293 C 297.893 2.17817 -3.94799 0
M  V30 3294 C 296.555 2.07205 -4.34303 0
M  V30 3295 C 298.907 1.88065 -4.86087 0
M  V30 3296 C 296.235 1.65045 -5.63007 0
M  V30 3297 C 298.587 1.47394 -6.15189 0
M  V30 3298 C 297.251 1.35331 -6.53637 0
M  V30 3299 H 296.521 0.505181 -0.542101 0
M  V30 3300 H 299.168 0.703477 -1.78111 0
M  V30 3301 H 297.473 3.2866 -2.13284 0
M  V30 3302 H 299.17 3.13904 -2.4953 0
M  V30 3303 H 295.76 2.26998 -3.63552 0
M  V30 3304 H 299.944 1.95168 -4.56315 0
M  V30 3305 H 295.2 1.54317 -5.91605 0
M  V30 3306 H 299.374 1.23415 -6.85377 0
M  V30 3307 H 297.001 1.02435 -7.53267 0
M  V30 3308 N 298.576 1.31904 0.862503 0
M  V30 3309 C 299.987 1.19803 1.43193 0
M  V30 3310 C 300.338 -0.192567 1.95253 0
M  V30 3311 O 299.463 -1.09081 1.86896 0
M  V30 3312 C 300.058 2.16883 2.60283 0
M  V30 3313 C 298.617 2.08692 3.13248 0
M  V30 3314 C 297.764 2.05691 1.85975 0
M  V30 3315 H 300.715 1.43846 0.670365 0
M  V30 3316 H 300.736 1.76278 3.37204 0
M  V30 3317 H 300.248 3.18083 2.22363 0
M  V30 3318 H 298.349 1.10713 3.55771 0
M  V30 3319 H 298.462 2.9815 3.75025 0
M  V30 3320 H 296.826 1.50814 2.05249 0
M  V30 3321 H 297.609 3.08659 1.50282 0
M  V30 3322 N 300.054 -1.07777 1.14986 0
M  V30 3323 C 301.302 -1.79934 0.920235 0
M  V30 3324 C 301.623 -1.86955 -0.554336 0
M  V30 3325 O 300.893 -1.36731 -1.40291 0
M  V30 3326 H 299.473 -0.666424 0.337473 0
M  V30 3327 H 302.135 -1.3027 1.44968 0
M  V30 3328 H 301.231 -2.82539 1.32583 0
M  V30 3329 N 301.532 -0.945985 -1.26051 0
M  V30 3330 C 302.809 -0.513816 -1.88731 0
M  V30 3331 C 303.189 1.00872 -1.8544 0
M  V30 3332 O 302.537 1.8708 -1.312 0
M  V30 3333 C 302.747 -1.08062 -3.31849 0
M  V30 3334 C 304.095 -1.1522 -4.08668 0
M  V30 3335 O 305.119 -1.03155 -3.40936 0
M  V30 3336 O 303.978 -1.34044 -5.29806 0
M  V30 3337 H 301.072 -0.168193 -0.809716 0
M  V30 3338 H 303.618 -1.03886 -1.34186 0
M  V30 3339 H 302.39 -2.1241 -3.2863 0
M  V30 3340 H 302.013 -0.538307 -3.93939 0
M  V30 3341 N 303.011 1.40521 -0.713556 0
M  V30 3342 C 304.236 2.05759 -0.26035 0
M  V30 3343 C 304.661 1.53403 1.08854 0
M  V30 3344 O 304.019 0.668535 1.68524 0
M  V30 3345 C 304.067 3.59745 -0.248122 0
M  V30 3346 O 303.171 4.05123 0.77131 0
M  V30 3347 H 302.512 0.652564 -0.122703 0
M  V30 3348 H 305.042 1.79958 -0.973467 0
M  V30 3349 H 305.052 4.07911 -0.0851129 0
M  V30 3350 H 303.727 3.97218 -1.2325 0
M  V30 3351 H 302.304 3.68422 0.57619 0
M  V30 3352 N 304.489 0.459591 1.5075 0
M  V30 3353 C 305.766 -0.160371 1.94941 0
M  V30 3354 C 306.146 -1.58048 1.39943 0
M  V30 3355 O 305.494 -2.206 0.595629 0
M  V30 3356 C 305.704 -0.115432 3.48809 0
M  V30 3357 C 307.052 -0.310026 4.23467 0
M  V30 3358 O 308.076 -0.192543 3.55679 0
M  V30 3359 O 306.935 -0.546031 5.43765 0
M  V30 3360 H 304.029 -0.117925 0.818549 0
M  V30 3361 H 306.575 0.519169 1.61563 0
M  V30 3362 H 305.347 0.87652 3.81357 0
M  V30 3363 H 304.97 -0.836928 3.88692 0
M  V30 3364 N 305.967 -1.56429 0.191757 0
M  V30 3365 C 307.216 -1.9666 -0.448088 0
M  V30 3366 C 307.529 -1.08136 -1.62991 0
M  V30 3367 O 308.735 -1.38135 -2.33733 0
M  V30 3368 C 307.191 -3.49753 -0.848585 0
M  V30 3369 C 306.799 -4.46935 0.308764 0
M  V30 3370 C 308.543 -3.9876 -1.4557 0
M  V30 3371 C 306.45 -5.91293 -0.112506 0
M  V30 3372 H 305.38 -0.734312 -0.171179 0
M  V30 3373 H 308.031 -1.81301 0.283242 0
M  V30 3374 H 306.413 -3.60604 -1.63649 0
M  V30 3375 H 307.587 -4.47813 1.08627 0
M  V30 3376 H 305.902 -4.08102 0.827158 0
M  V30 3377 H 308.499 -5.04086 -1.78328 0
M  V30 3378 H 308.842 -3.42875 -2.36099 0
M  V30 3379 H 309.375 -3.9101 -0.731836 0
M  V30 3380 H 306.114 -6.51097 0.758514 0
M  V30 3381 H 305.634 -5.93676 -0.854941 0
M  V30 3382 H 307.313 -6.44663 -0.549448 0
M  V30 3383 N 307.445 0.0818655 -1.57387 0
M  V30 3384 C 308.722 0.815343 -1.77796 0
M  V30 3385 C 309.102 1.96289 -0.77679 0
M  V30 3386 O 308.45 2.27691 0.192106 0
M  V30 3387 C 308.66 1.29765 -3.23978 0
M  V30 3388 C 310.008 1.7351 -3.8753 0
M  V30 3389 O 311.032 1.39356 -3.27808 0
M  V30 3390 O 309.891 2.36708 -4.92576 0
M  V30 3391 H 306.985 0.389914 -0.729312 0
M  V30 3392 H 309.531 0.0627213 -1.69584 0
M  V30 3393 H 308.303 0.47608 -3.88393 0
M  V30 3394 H 307.926 2.11189 -3.36875 0
M  V30 3395 N 308.923 1.53595 0.353017 0
M  V30 3396 C 309.855 1.77219 1.45348 0
M  V30 3397 C 310.868 0.65324 1.49119 0
M  V30 3398 O 312.057 0.929775 1.52373 0
M  V30 3399 C 309.157 1.84841 2.84055 0
M  V30 3400 C 308.33 3.14649 3.03833 0
M  V30 3401 C 307.389 3.13351 4.22727 0
M  V30 3402 O 306.415 3.87107 4.17297 0
M  V30 3403 N 307.617 2.35052 5.30783 0
M  V30 3404 H 310.382 2.72178 1.25457 0
M  V30 3405 H 307.943 1.52528 0.542833 0
M  V30 3406 H 309.935 1.81435 3.61751 0
M  V30 3407 H 308.505 0.971114 2.97133 0
M  V30 3408 H 307.725 3.31256 2.13689 0
M  V30 3409 H 309.013 4.00411 3.13925 0
M  V30 3410 H 308.411 1.74663 5.38061 0
M  V30 3411 H 306.968 2.37453 6.07009 0
M  V30 3412 N 310.401 -0.613514 1.45168 0
M  V30 3413 C 311.331 -1.7354 1.56225 0
M  V30 3414 C 312.312 -1.64981 0.41414 0
M  V30 3415 O 313.497 -1.83472 0.636526 0
M  V30 3416 C 310.627 -3.12128 1.52295 0
M  V30 3417 C 309.581 -3.35491 2.65762 0
M  V30 3418 C 308.907 -4.74291 2.46885 0
M  V30 3419 C 310.207 -3.26325 4.0781 0
M  V30 3420 H 311.901 -1.64543 2.50132 0
M  V30 3421 H 309.447 -0.790185 1.20383 0
M  V30 3422 H 311.4 -3.90404 1.58628 0
M  V30 3423 H 310.124 -3.2195 0.549139 0
M  V30 3424 H 308.783 -2.59603 2.58847 0
M  V30 3425 H 308.431 -4.80839 1.47657 0
M  V30 3426 H 308.131 -4.9088 3.22972 0
M  V30 3427 H 309.655 -5.54775 2.55063 0
M  V30 3428 H 311.069 -3.94483 4.16 0
M  V30 3429 H 309.466 -3.54445 4.8424 0
M  V30 3430 H 310.536 -2.23855 4.30136 0
M  V30 3431 N 311.879 -1.3236 -0.855495 0
M  V30 3432 C 313.109 -1.25688 -1.6397 0
M  V30 3433 C 313.517 0.177592 -1.88365 0
M  V30 3434 O 312.86 1.12485 -1.45234 0
M  V30 3435 C 312.922 -1.94602 -3.02275 0
M  V30 3436 C 312.586 -3.43937 -3.00926 0
M  V30 3437 C 313.583 -4.39435 -2.77835 0
M  V30 3438 C 311.268 -3.85858 -3.21588 0
M  V30 3439 C 313.262 -5.74829 -2.75409 0
M  V30 3440 C 310.949 -5.21361 -3.18789 0
M  V30 3441 C 311.947 -6.15658 -2.95727 0
M  V30 3442 O 311.635 -7.48681 -2.928 0
M  V30 3443 H 311.367 -0.434972 -0.51747 0
M  V30 3444 H 313.921 -1.75023 -1.075 0
M  V30 3445 H 312.151 -1.39836 -3.60531 0
M  V30 3446 H 313.84 -1.81651 -3.62985 0
M  V30 3447 H 314.606 -4.08374 -2.6164 0
M  V30 3448 H 310.485 -3.12883 -3.38564 0
M  V30 3449 H 314.029 -6.48404 -2.57328 0
M  V30 3450 H 309.926 -5.52052 -3.34528 0
M  V30 3451 H 310.694 -7.5803 -3.0876 0
M  V30 3452 N 313.357 1.07166 -1.15556 0
M  V30 3453 C 314.307 2.12649 -0.82247 0
M  V30 3454 C 315.291 1.59725 0.194129 0
M  V30 3455 O 316.483 1.76999 -0.00540402 0
M  V30 3456 C 313.612 3.41847 -0.315572 0
M  V30 3457 C 312.698 4.0162 -1.36244 0
M  V30 3458 N 313.089 4.35625 -2.5703 0
M  V30 3459 C 311.387 4.29114 -1.21562 0
M  V30 3460 C 312.088 4.83017 -3.24144 0
M  V30 3461 N 311.064 4.81906 -2.51531 0
M  V30 3462 H 314.866 2.36776 -1.74111 0
M  V30 3463 H 312.38 1.24622 -1.0413 0
M  V30 3464 H 314.377 4.16859 -0.0585855 0
M  V30 3465 H 313.037 3.19163 0.597105 0
M  V30 3466 H 314.048 4.26253 -2.94158 0
M  V30 3467 H 310.725 4.15919 -0.362988 0
M  V30 3468 H 312.115 5.18605 -4.27198 0
M  V30 3469 N 314.835 0.952656 1.25548 0
M  V30 3470 C 316.084 0.602053 1.92505 0
M  V30 3471 C 316.397 -0.864663 1.75451 0
M  V30 3472 O 317.603 -1.32514 2.36965 0
M  V30 3473 C 316.059 1.02607 3.44963 0
M  V30 3474 C 315.667 2.51519 3.70732 0
M  V30 3475 C 317.411 0.747905 4.1786 0
M  V30 3476 C 315.318 2.87732 5.16686 0
M  V30 3477 H 314.248 0.22146 0.720744 0
M  V30 3478 H 316.899 1.15684 1.42441 0
M  V30 3479 H 315.281 0.399712 3.93978 0
M  V30 3480 H 316.455 3.19157 3.32378 0
M  V30 3481 H 314.77 2.76786 3.11092 0
M  V30 3482 H 317.367 0.994647 5.25367 0
M  V30 3483 H 317.71 -0.315629 4.15102 0
M  V30 3484 H 318.243 1.33452 3.74747 0
M  V30 3485 H 314.982 3.93095 5.24554 0
M  V30 3486 H 314.502 2.24765 5.56094 0
M  V30 3487 H 316.181 2.76817 5.84792 0
M  V30 3488 N 316.313 -1.40141 0.720998 0
M  V30 3489 C 317.246 -2.2819 0.020916 0
M  V30 3490 C 318.224 -1.43633 -0.762129 0
M  V30 3491 O 319.408 -1.7304 -0.747633 0
M  V30 3492 C 316.535 -3.24281 -0.977715 0
M  V30 3493 C 315.581 -4.25548 -0.284836 0
M  V30 3494 S 316.414 -5.26247 0.991169 0
M  V30 3495 C 317.57 -6.259 -0.0052214 0
M  V30 3496 H 317.803 -2.87218 0.767649 0
M  V30 3497 H 315.336 -1.45656 0.512233 0
M  V30 3498 H 317.294 -3.80167 -1.54865 0
M  V30 3499 H 315.955 -2.643 -1.69719 0
M  V30 3500 H 315.148 -4.93154 -1.03996 0
M  V30 3501 H 314.75 -3.73389 0.213684 0
M  V30 3502 H 317.042 -6.72143 -0.850279 0
M  V30 3503 H 317.985 -7.05224 0.637599 0
M  V30 3504 H 318.393 -5.63277 -0.371366 0
M  V30 3505 N 317.792 -0.46758 -1.50504 0
M  V30 3506 C 318.725 0.374324 -2.25109 0
M  V30 3507 C 319.703 0.99921 -1.28275 0
M  V30 3508 O 320.887 1.03583 -1.57489 0
M  V30 3509 C 318.014 1.52419 -3.02467 0
M  V30 3510 C 317.06 1.01702 -4.14197 0
M  V30 3511 S 317.893 -0.0654477 -5.3546 0
M  V30 3512 C 319.049 1.08837 -6.16365 0
M  V30 3513 H 319.282 -0.258983 -2.9617 0
M  V30 3514 H 316.815 -0.252421 -1.52323 0
M  V30 3515 H 318.773 2.18322 -3.47628 0
M  V30 3516 H 317.434 2.129 -2.30938 0
M  V30 3517 H 316.627 1.87776 -4.67714 0
M  V30 3518 H 316.229 0.435757 -3.71453 0
M  V30 3519 H 318.521 2.00071 -6.47285 0
M  V30 3520 H 319.464 0.592538 -7.05616 0
M  V30 3521 H 319.872 1.34061 -5.4835 0
M  V30 3522 N 319.27 1.56325 -0.20005 0
M  V30 3523 C 320.51 1.99619 0.439519 0
M  V30 3524 C 320.874 1.08423 1.58456 0
M  V30 3525 O 322.075 1.40973 2.28867 0
M  V30 3526 C 320.346 3.46314 0.883258 0
M  V30 3527 S 321.905 4.11634 1.51997 0
M  V30 3528 H 318.723 0.697007 0.140363 0
M  V30 3529 H 321.325 1.93118 -0.304282 0
M  V30 3530 H 320.029 4.10381 0.0398967 0
M  V30 3531 H 319.56 3.56643 1.6604 0
M  V30 3532 H 321.575 4.09049 2.8088 0
M  V30 3533 N 320.748 -0.0735177 1.57428 0
M  V30 3534 C 321.678 -1.0879 2.06608 0
M  V30 3535 C 322.659 -1.40473 0.959237 0
M  V30 3536 O 323.844 -1.5013 1.23185 0
M  V30 3537 C 320.974 -2.40183 2.50857 0
M  V30 3538 C 319.928 -2.22858 3.65402 0
M  V30 3539 C 319.254 -3.59619 3.957 0
M  V30 3540 C 320.554 -1.65123 4.95511 0
M  V30 3541 H 322.248 -0.678673 2.91607 0
M  V30 3542 H 319.794 -0.325013 1.40284 0
M  V30 3543 H 321.747 -3.11437 2.83874 0
M  V30 3544 H 320.471 -2.83083 1.62885 0
M  V30 3545 H 319.13 -1.54045 3.32664 0
M  V30 3546 H 318.778 -4.00086 3.04861 0
M  V30 3547 H 318.478 -3.48866 4.72828 0
M  V30 3548 H 320.002 -4.32306 4.31212 0
M  V30 3549 H 321.416 -2.26241 5.26771 0
M  V30 3550 H 319.813 -1.65071 5.7695 0
M  V30 3551 H 320.883 -0.612559 4.81015 0
M  V30 3552 N 322.226 -1.5378 -0.344866 0
M  V30 3553 C 323.474 -1.70625 -1.08311 0
M  V30 3554 C 323.795 -0.471447 -1.89215 0
M  V30 3555 O 323.065 0.514616 -1.8902 0
M  V30 3556 H 321.645 -0.629058 -0.402859 0
M  V30 3557 H 324.307 -1.9103 -0.386459 0
M  V30 3558 H 323.403 -2.57656 -1.76124 0
M  V30 3559 N 323.704 0.605807 -1.45491 0
M  V30 3560 C 324.652 1.73754 -1.54636 0
M  V30 3561 C 325.646 1.64207 -0.416219 0
M  V30 3562 O 326.852 1.69979 -0.592199 0
M  V30 3563 H 323.227 0.574073 -0.485741 0
M  V30 3564 H 325.198 1.63169 -2.49837 0
M  V30 3565 C 323.947 3.12135 -1.53189 0
M  V30 3566 H 323.27 3.20141 -2.39478 0
M  V30 3567 H 324.71 3.91147 -1.63645 0
M  V30 3568 C 323.169 3.35921 -0.256616 0
M  V30 3569 O 323.699 3.96194 0.662798 0
M  V30 3570 N 321.905 2.90204 -0.151751 0
M  V30 3571 H 321.452 2.41336 -0.90081 0
M  V30 3572 H 321.41 3.06492 0.700699 0
M  V30 3573 N 325.182 1.32811 0.848464 0
M  V30 3574 C 326.112 1.24882 1.97299 0
M  V30 3575 C 327.093 0.131357 1.69592 0
M  V30 3576 O 328.278 0.319553 1.91553 0
M  V30 3577 C 325.408 0.97746 3.33261 0
M  V30 3578 C 324.362 2.05682 3.75338 0
M  V30 3579 C 323.688 1.63777 5.09 0
M  V30 3580 C 324.988 3.47254 3.90144 0
M  V30 3581 H 326.682 2.18966 2.04191 0
M  V30 3582 H 324.228 1.05413 0.981029 0
M  V30 3583 H 326.181 0.908513 4.1149 0
M  V30 3584 H 324.905 0.000980011 3.266 0
M  V30 3585 H 323.564 2.11603 2.99366 0
M  V30 3586 H 323.212 0.648569 4.98801 0
M  V30 3587 H 322.912 2.36 5.38124 0
M  V30 3588 H 324.436 1.5833 5.89715 0
M  V30 3589 H 325.85 3.43888 4.58709 0
M  V30 3590 H 324.247 4.1788 4.30693 0
M  V30 3591 H 325.317 3.86462 2.92874 0
M  V30 3592 N 326.66 -1.06551 1.16123 0
M  V30 3593 C 327.909 -1.78687 0.935622 0
M  V30 3594 C 328.222 -1.88056 -0.538001 0
M  V30 3595 O 329.428 -2.56794 -0.88143 0
M  V30 3596 C 327.884 -3.21143 1.62466 0
M  V30 3597 C 327.492 -3.19949 3.13587 0
M  V30 3598 C 329.236 -3.9783 1.48092 0
M  V30 3599 C 327.143 -4.57108 3.75241 0
M  V30 3600 H 326.073 -0.669712 0.346412 0
M  V30 3601 H 328.724 -1.19534 1.39226 0
M  V30 3602 H 327.106 -3.80539 1.09572 0
M  V30 3603 H 328.28 -2.70151 3.73303 0
M  V30 3604 H 326.595 -2.5676 3.27816 0
M  V30 3605 H 329.192 -4.99217 1.91538 0
M  V30 3606 H 329.535 -4.14078 0.429507 0
M  V30 3607 H 330.068 -3.4495 1.98127 0
M  V30 3608 H 326.807 -4.46065 4.80319 0
M  V30 3609 H 326.327 -5.07111 3.20309 0
M  V30 3610 H 328.006 -5.26069 3.76644 0
M  V30 3611 N 328.138 -0.959301 -1.25041 0
M  V30 3612 C 329.549 -0.65667 -1.74771 0
M  V30 3613 C 329.9 0.827852 -1.77879 0
M  V30 3614 O 329.025 1.64783 -1.40269 0
M  V30 3615 C 329.62 -1.1853 -3.1739 0
M  V30 3616 C 328.179 -0.932734 -3.6466 0
M  V30 3617 C 327.326 -1.32558 -2.43564 0
M  V30 3618 H 330.277 -1.13558 -1.10862 0
M  V30 3619 H 330.298 -0.547582 -3.76539 0
M  V30 3620 H 329.81 -2.26576 -3.15095 0
M  V30 3621 H 327.911 0.13257 -3.72364 0
M  V30 3622 H 328.024 -1.57248 -4.52559 0
M  V30 3623 H 326.388 -0.743956 -2.43593 0
M  V30 3624 H 327.171 -2.41537 -2.43957 0
M  V30 3625 N 329.616 1.39756 -0.72842 0
M  V30 3626 C 331.032 1.5442 -0.403308 0
M  V30 3627 C 331.232 1.69694 1.08656 0
M  V30 3628 O 330.288 1.69373 1.87267 0
M  V30 3629 C 331.601 2.76555 -1.18058 0
M  V30 3630 C 333.149 2.90384 -1.16815 0
M  V30 3631 C 333.624 4.15449 -1.92785 0
M  V30 3632 N 335.115 4.22475 -1.89918 0
M  V30 3633 C 335.85 5.1818 -2.45514 0
M  V30 3634 N 335.346 6.19714 -3.09719 0
M  V30 3635 N 337.139 5.1035 -2.35584 0
M  V30 3636 H 329.29 1.28089 -1.69431 0
M  V30 3637 H 331.553 0.620327 -0.716867 0
M  V30 3638 H 331.259 2.7159 -2.23455 0
M  V30 3639 H 331.133 3.69033 -0.780662 0
M  V30 3640 H 333.52 2.94846 -0.12234 0
M  V30 3641 H 333.601 1.98988 -1.6074 0
M  V30 3642 H 333.245 4.11749 -2.97364 0
M  V30 3643 H 333.175 5.05877 -1.46272 0
M  V30 3644 H 335.666 3.49743 -1.43138 0
M  V30 3645 H 335.979 6.8919 -3.49625 0
M  V30 3646 H 334.324 6.20121 -3.13807 0
M  V30 3647 H 337.515 4.2996 -1.85072 0
M  V30 3648 H 337.688 5.84761 -2.79211 0
M  V30 3649 N 331.094 0.475555 1.50254 0
M  V30 3650 C 332.044 -0.335025 2.25525 0
M  V30 3651 C 333.028 -0.957625 1.29299 0
M  V30 3652 O 334.22 -0.869436 1.54175 0
M  V30 3653 C 331.349 -1.41385 3.12834 0
M  V30 3654 C 330.435 -0.798762 4.1651 0
M  V30 3655 N 330.826 0.0835815 5.05731 0
M  V30 3656 C 329.124 -1.06221 4.33166 0
M  V30 3657 C 329.825 0.433113 5.80085 0
M  V30 3658 N 328.801 -0.1928 5.43258 0
M  V30 3659 H 332.603 0.344612 2.91873 0
M  V30 3660 H 330.117 0.289986 1.5979 0
M  V30 3661 H 332.114 -2.00777 3.65368 0
M  V30 3662 H 330.774 -2.09543 2.48036 0
M  V30 3663 H 331.785 0.452715 5.15918 0
M  V30 3664 H 328.462 -1.73844 3.79585 0
M  V30 3665 H 329.852 1.15346 6.61925 0
M  V30 3666 N 332.573 -1.56217 0.208337 0
M  V30 3667 C 333.505 -2.1695 -0.739276 0
M  V30 3668 C 334.518 -1.13492 -1.1672 0
M  V30 3669 O 335.707 -1.40529 -1.10063 0
M  V30 3670 C 332.807 -2.72755 -2.01142 0
M  V30 3671 C 331.98 -4.0125 -1.74118 0
M  V30 3672 C 331.039 -4.41749 -2.85909 0
M  V30 3673 O 330.065 -5.08912 -2.54946 0
M  V30 3674 N 331.267 -4.06342 -4.14568 0
M  V30 3675 H 334.032 -2.98893 -0.219837 0
M  V30 3676 H 331.593 -1.61878 0.0268445 0
M  V30 3677 H 333.585 -2.96826 -2.75094 0
M  V30 3678 H 332.155 -1.95191 -2.4417 0
M  V30 3679 H 331.375 -3.85173 -0.838775 0
M  V30 3680 H 332.663 -4.851 -1.53477 0
M  V30 3681 H 332.061 -3.52345 -4.42571 0
M  V30 3682 H 330.618 -4.35335 -4.85105 0
M  V30 3683 N 334.051 0.0651679 -1.57465 0
M  V30 3684 C 334.961 1.09448 -2.07505 0
M  V30 3685 C 335.977 1.41974 -1.00595 0
M  V30 3686 O 337.153 1.52018 -1.32107 0
M  V30 3687 C 334.218 2.38689 -2.51453 0
M  V30 3688 C 333.279 2.13073 -3.72691 0
M  V30 3689 C 332.512 3.36152 -4.14533 0
M  V30 3690 O 332.735 4.45517 -3.56189 0
M  V30 3691 O 331.669 3.23974 -5.07272 0
M  V30 3692 H 335.495 0.69935 -2.95538 0
M  V30 3693 H 333.08 0.279752 -1.46757 0
M  V30 3694 H 334.962 3.14736 -2.80212 0
M  V30 3695 H 333.637 2.77568 -1.66546 0
M  V30 3696 H 332.544 1.34709 -3.49005 0
M  V30 3697 H 333.877 1.79071 -4.5847 0
M  V30 3698 N 335.529 1.53961 0.336706 0
M  V30 3699 C 336.459 1.85417 1.41925 0
M  V30 3700 C 337.44 0.709856 1.5458 0
M  V30 3701 O 338.625 0.962396 1.68676 0
M  V30 3702 C 335.755 2.06985 2.78881 0
M  V30 3703 C 334.709 3.22813 2.81026 0
M  V30 3704 C 334.035 3.29727 4.20932 0
M  V30 3705 C 335.335 4.60767 2.45949 0
M  V30 3706 H 337.029 2.76079 1.15848 0
M  V30 3707 H 334.575 1.32839 0.555859 0
M  V30 3708 H 336.528 2.27575 3.54665 0
M  V30 3709 H 335.252 1.13061 3.06406 0
M  V30 3710 H 333.911 3.0209 2.07695 0
M  V30 3711 H 333.559 2.33385 4.45579 0
M  V30 3712 H 333.259 4.07566 4.23277 0
M  V30 3713 H 334.783 3.52536 4.98549 0
M  V30 3714 H 336.197 4.81325 3.11446 0
M  V30 3715 H 334.594 5.4106 2.59566 0
M  V30 3716 H 335.664 4.6391 1.41122 0
M  V30 3717 N 337.007 -0.598083 1.45811 0
M  V30 3718 C 338.254 -1.35681 1.50323 0
M  V30 3719 C 338.582 -1.9393 0.148739 0
M  V30 3720 O 337.837 -1.76094 -0.853787 0
M  V30 3721 C 338.136 -2.51669 2.53766 0
M  V30 3722 C 337.802 -2.11508 3.98215 0
M  V30 3723 C 336.464 -2.0027 4.37545 0
M  V30 3724 C 338.816 -1.80308 4.89018 0
M  V30 3725 C 336.144 -1.56067 5.65562 0
M  V30 3726 C 338.496 -1.37589 6.17456 0
M  V30 3727 C 337.16 -1.24916 6.55708 0
M  V30 3728 H 336.43 -0.496492 0.550069 0
M  V30 3729 H 339.077 -0.675052 1.79207 0
M  V30 3730 H 337.382 -3.25225 2.18486 0
M  V30 3731 H 339.079 -3.09895 2.54492 0
M  V30 3732 H 335.669 -2.21185 3.67117 0
M  V30 3733 H 339.853 -1.87884 4.59362 0
M  V30 3734 H 335.109 -1.44886 5.93985 0
M  V30 3735 H 339.283 -1.12495 6.87254 0
M  V30 3736 H 336.91 -0.904386 7.54801 0
M  V30 3737 N 338.485 -1.33259 -0.841409 0
M  V30 3738 C 339.433 -1.23279 -1.97244 0
M  V30 3739 C 340.427 -0.134706 -1.68864 0
M  V30 3740 O 341.633 -0.298501 -1.77508 0
M  V30 3741 H 338.008 -0.382497 -0.647457 0
M  V30 3742 H 339.979 -2.18906 -2.02787 0
M  V30 3743 C 338.728 -0.986268 -3.33419 0
M  V30 3744 H 338.051 -1.82347 -3.55794 0
M  V30 3745 H 339.491 -0.956728 -4.13065 0
M  V30 3746 C 337.95 0.310842 -3.35463 0
M  V30 3747 O 338.48 1.31838 -3.79449 0
M  V30 3748 N 336.686 0.337485 -2.88634 0
M  V30 3749 H 336.233 -0.482967 -2.53032 0
M  V30 3750 H 336.191 1.20518 -2.90384 0
M  V30 3751 N 339.963 1.05934 -1.16686 0
M  V30 3752 C 340.91 2.13499 -0.876748 0
M  V30 3753 C 341.88 1.65162 0.176299 0
M  V30 3754 O 343.065 1.90757 0.0407143 0
M  V30 3755 C 340.205 3.42912 -0.387967 0
M  V30 3756 C 339.318 4.04964 -1.50426 0
M  V30 3757 C 338.453 5.22266 -0.970125 0
M  V30 3758 C 337.492 5.76309 -2.06238 0
M  V30 3759 N 336.629 6.84922 -1.54356 0
M  V30 3760 H 341.469 2.37654 -1.7979 0
M  V30 3761 H 339.006 1.16598 -0.896843 0
M  V30 3762 H 340.964 4.17111 -0.086186 0
M  V30 3763 H 339.594 3.18963 0.496235 0
M  V30 3764 H 338.646 3.28277 -1.92193 0
M  V30 3765 H 339.958 4.41122 -2.32836 0
M  V30 3766 H 339.112 6.03506 -0.621743 0
M  V30 3767 H 337.851 4.87564 -0.115377 0
M  V30 3768 H 336.856 4.93704 -2.41942 0
M  V30 3769 H 338.081 6.13062 -2.92115 0
M  V30 3770 H 336.027 6.52131 -0.711406 0
M  V30 3771 H 335.944 7.20043 -2.30379 0
M  V30 3772 H 337.212 7.69832 -1.22387 0
M  V30 3773 N 341.441 0.965919 1.2453 0
M  V30 3774 C 342.389 0.486506 2.27455 0
M  V30 3775 C 343.383 -0.449041 1.6334 0
M  V30 3776 O 344.589 -0.324527 1.7705 0
M  V30 3777 H 340.964 0.138857 0.739069 0
M  V30 3778 H 342.935 1.3666 2.65267 0
M  V30 3779 C 341.684 -0.209481 3.47068 0
M  V30 3780 H 341.007 0.50129 3.96645 0
M  V30 3781 H 342.447 -0.508775 4.20936 0
M  V30 3782 C 340.906 -1.43586 3.0477 0
M  V30 3783 O 341.436 -2.53299 3.11773 0
M  V30 3784 N 339.642 -1.30126 2.59838 0
M  V30 3785 H 339.189 -0.408583 2.54339 0
M  V30 3786 H 339.147 -2.12294 2.31902 0
M  V30 3787 N 342.919 -1.39368 0.735821 0
M  V30 3788 C 344.33 -1.83313 0.354015 0
M  V30 3789 C 344.681 -1.61461 -1.11466 0
M  V30 3790 O 343.806 -1.10621 -1.85989 0
M  V30 3791 C 344.401 -3.32781 0.635769 0
M  V30 3792 C 342.96 -3.75142 0.307448 0
M  V30 3793 C 342.107 -2.62358 0.897974 0
M  V30 3794 H 345.058 -1.28349 0.933398 0
M  V30 3795 H 345.079 -3.80388 -0.0921773 0
M  V30 3796 H 344.591 -3.48654 1.70476 0
M  V30 3797 H 342.692 -3.64857 -0.755674 0
M  V30 3798 H 342.805 -4.72532 0.790583 0
M  V30 3799 H 341.169 -2.52624 0.324551 0
M  V30 3800 H 341.952 -2.81036 1.97164 0
M  V30 3801 N 344.397 -0.483516 -1.5 0
M  V30 3802 C 345.643 0.0672592 -2.02688 0
M  V30 3803 C 345.976 1.38247 -1.36387 0
M  V30 3804 O 345.251 1.88131 -0.493675 0
M  V30 3805 C 345.534 0.238109 -3.59312 0
M  V30 3806 C 345.387 -1.099 -4.36168 0
M  V30 3807 C 346.706 0.986916 -4.28892 0
M  V30 3808 H 343.825 0.0229696 -0.736642 0
M  V30 3809 H 346.467 -0.631527 -1.79197 0
M  V30 3810 H 344.617 0.8333 -3.79458 0
M  V30 3811 H 346.289 -1.73172 -4.27562 0
M  V30 3812 H 344.532 -1.69261 -3.99416 0
M  V30 3813 H 345.203 -0.932954 -5.44059 0
M  V30 3814 H 347.679 0.482302 -4.13295 0
M  V30 3815 H 346.555 1.07527 -5.38265 0
M  V30 3816 H 346.816 2.0265 -3.92919 0
M  V30 3817 N 345.875 1.56104 -0.216619 0
M  V30 3818 C 347.122 1.98172 0.416416 0
M  V30 3819 C 347.45 1.10413 1.60122 0
M  V30 3820 O 346.705 0.147967 1.9514 0
M  V30 3821 C 347.004 3.45923 0.898464 0
M  V30 3822 C 346.67 4.50559 -0.175288 0
M  V30 3823 C 345.332 4.78897 -0.470271 0
M  V30 3824 C 347.684 5.1334 -0.901728 0
M  V30 3825 C 345.012 5.67299 -1.4963 0
M  V30 3826 C 347.364 6.02853 -1.91705 0
M  V30 3827 C 346.028 6.29537 -2.21901 0
M  V30 3828 H 345.298 0.725164 0.152377 0
M  V30 3829 H 347.945 1.88839 -0.318103 0
M  V30 3830 H 346.25 3.52434 1.71165 0
M  V30 3831 H 347.947 3.75841 1.39803 0
M  V30 3832 H 344.537 4.28551 0.0647806 0
M  V30 3833 H 348.721 4.91521 -0.687072 0
M  V30 3834 H 343.977 5.86239 -1.73592 0
M  V30 3835 H 348.151 6.50552 -2.48505 0
M  V30 3836 H 345.778 6.97835 -3.01548 0
M  V30 3837 N 347.353 -0.0568162 1.57498 0
M  V30 3838 C 348.316 -1.05038 2.03715 0
M  V30 3839 C 349.316 -1.30709 0.936577 0
M  V30 3840 O 350.506 -1.26178 1.20103 0
M  V30 3841 C 347.638 -2.39034 2.43055 0
M  V30 3842 H 348.831 -0.651715 2.92733 0
M  V30 3843 H 346.384 -0.302947 1.53336 0
M  V30 3844 H 347.119 -2.83703 1.57108 0
M  V30 3845 H 346.904 -2.21739 3.2338 0
M  V30 3846 H 348.394 -3.10421 2.79336 0
M  V30 3847 N 348.832 -1.54138 -0.328536 0
M  V30 3848 C 350.08 -1.71765 -1.06496 0
M  V30 3849 C 350.401 -0.49149 -1.88704 0
M  V30 3850 O 349.671 0.494539 -1.89555 0
M  V30 3851 H 348.251 -0.633295 -0.396164 0
M  V30 3852 H 350.913 -1.91429 -0.366176 0
M  V30 3853 H 350.009 -2.5951 -1.73381 0
M  V30 3854 N 350.31 0.590341 -1.46126 0
M  V30 3855 C 351.556 1.35082 -1.51264 0
M  V30 3856 C 351.889 1.93534 -0.160711 0
M  V30 3857 O 351.164 1.76045 0.826956 0
M  V30 3858 C 351.447 2.48588 -2.6053 0
M  V30 3859 C 351.3 1.95221 -4.05227 0
M  V30 3860 C 352.619 3.50662 -2.6594 0
M  V30 3861 H 349.738 0.489803 -0.550692 0
M  V30 3862 H 352.38 0.663887 -1.78024 0
M  V30 3863 H 350.53 3.07186 -2.37843 0
M  V30 3864 H 352.202 1.41139 -4.39178 0
M  V30 3865 H 350.445 1.26101 -4.15068 0
M  V30 3866 H 351.116 2.77121 -4.77397 0
M  V30 3867 H 353.592 3.01934 -2.86313 0
M  V30 3868 H 352.468 4.27551 -3.44226 0
M  V30 3869 H 352.729 4.07399 -1.71694 0
M  V30 3870 N 351.788 1.33704 0.83433 0
M  V30 3871 C 353.204 1.13137 1.12571 0
M  V30 3872 C 353.404 -0.0747261 2.01361 0
M  V30 3873 O 352.46 -0.753647 2.4099 0
M  V30 3874 C 353.773 2.42105 1.78342 0
M  V30 3875 C 355.321 2.48054 1.90888 0
M  V30 3876 C 355.796 3.76995 2.60075 0
M  V30 3877 N 357.287 3.78092 2.67584 0
M  V30 3878 C 358.022 4.74574 3.21818 0
M  V30 3879 N 357.518 5.81434 3.76705 0
M  V30 3880 N 359.311 4.62044 3.20112 0
M  V30 3881 H 351.462 2.11 0.243489 0
M  V30 3882 H 353.725 0.932532 0.17055 0
M  V30 3883 H 353.431 3.30391 1.20561 0
M  V30 3884 H 353.305 2.54594 2.7832 0
M  V30 3885 H 355.692 1.60215 2.47821 0
M  V30 3886 H 355.773 2.39502 0.898459 0
M  V30 3887 H 355.417 4.65219 2.03799 0
M  V30 3888 H 355.347 3.82825 3.61597 0
M  V30 3889 H 357.838 3.00865 2.28667 0
M  V30 3890 H 358.151 6.51084 4.16305 0
M  V30 3891 H 356.496 5.85163 3.7498 0
M  V30 3892 H 359.687 3.77716 2.76493 0
M  V30 3893 H 359.86 5.37406 3.62076 0
M  V30 3894 N 353.266 -1.05314 1.17247 0
M  V30 3895 C 354.196 -2.1498 0.911362 0
M  V30 3896 C 355.177 -1.69471 -0.146169 0
M  V30 3897 O 356.362 -1.942 0.003812 0
M  V30 3898 C 353.492 -3.4472 0.422528 0
M  V30 3899 C 352.446 -4.03789 1.4191 0
M  V30 3900 C 351.772 -5.28858 0.788274 0
M  V30 3901 C 353.072 -4.41418 2.7919 0
M  V30 3902 H 354.766 -2.3708 1.82848 0
M  V30 3903 H 352.312 -1.13938 0.880569 0
M  V30 3904 H 354.265 -4.20787 0.227289 0
M  V30 3905 H 352.989 -3.22269 -0.530123 0
M  V30 3906 H 351.648 -3.2979 1.60106 0
M  V30 3907 H 351.296 -5.02709 -0.171173 0
M  V30 3908 H 350.996 -5.69338 1.45353 0
M  V30 3909 H 352.52 -6.07612 0.603282 0
M  V30 3910 H 353.934 -5.08524 2.64719 0
M  V30 3911 H 352.331 -4.92913 3.42282 0
M  V30 3912 H 353.401 -3.51819 3.33693 0
M  V30 3913 N 354.744 -0.972509 -1.24016 0
M  V30 3914 C 356.155 -0.67517 -1.74064 0
M  V30 3915 C 356.506 0.808939 -1.78747 0
M  V30 3916 O 355.631 1.63286 -1.42009 0
M  V30 3917 C 356.226 -1.21889 -3.16115 0
M  V30 3918 C 354.785 -0.971358 -3.6365 0
M  V30 3919 C 353.932 -1.35134 -2.42145 0
M  V30 3920 H 356.883 -1.14727 -1.09651 0
M  V30 3921 H 356.904 -0.587489 -3.75937 0
M  V30 3922 H 356.416 -2.29906 -3.12674 0
M  V30 3923 H 354.517 0.0930686 -3.72484 0
M  V30 3924 H 354.63 -1.62039 -4.50866 0
M  V30 3925 H 352.994 -0.769751 -2.4279 0
M  V30 3926 H 353.777 -2.4411 -2.41381 0
M  V30 3927 N 356.222 1.38976 -0.743202 0
M  V30 3928 C 357.132 2.3434 -0.110399 0
M  V30 3929 C 358.148 1.58741 0.712559 0
M  V30 3930 O 359.324 1.9099 0.639125 0
M  V30 3931 C 356.389 3.37812 0.780012 0
M  V30 3932 C 355.45 4.29263 -0.0561319 0
M  V30 3933 C 354.683 5.27793 0.791875 0
M  V30 3934 O 354.906 5.33043 2.03031 0
M  V30 3935 O 353.84 6.01512 0.216183 0
M  V30 3936 H 357.666 2.90129 -0.897714 0
M  V30 3937 H 355.251 1.40643 -0.503966 0
M  V30 3938 H 357.133 4.01194 1.28923 0
M  V30 3939 H 355.808 2.84395 1.546 0
M  V30 3940 H 354.715 3.69076 -0.611056 0
M  V30 3941 H 356.048 4.85907 -0.784531 0
M  V30 3942 N 357.7 0.491464 1.49741 0
M  V30 3943 C 358.949 -0.0582189 2.01616 0
M  V30 3944 C 359.262 -1.38927 1.3769 0
M  V30 3945 O 360.468 -2.02509 1.80838 0
M  V30 3946 C 358.924 -0.154235 3.59569 0
M  V30 3947 C 358.532 1.1696 4.32463 0
M  V30 3948 C 360.276 -0.65479 4.1942 0
M  V30 3949 C 358.183 1.03627 5.8225 0
M  V30 3950 H 357.113 -0.0255317 0.753568 0
M  V30 3951 H 359.764 0.629445 1.72367 0
M  V30 3952 H 358.146 -0.906138 3.85493 0
M  V30 3953 H 359.32 1.93405 4.18248 0
M  V30 3954 H 357.635 1.60285 3.84315 0
M  V30 3955 H 360.232 -0.771903 5.29099 0
M  V30 3956 H 360.575 -1.65127 3.8215 0
M  V30 3957 H 361.108 0.040304 3.9778 0
M  V30 3958 H 357.847 2.00672 6.24028 0
M  V30 3959 H 357.367 0.312546 5.98985 0
M  V30 3960 H 359.046 0.711114 6.4308 0
M  V30 3961 N 359.178 -1.55987 0.224894 0
M  V30 3962 C 360.125 -2.20436 -0.68385 0
M  V30 3963 C 361.095 -1.16102 -1.18783 0
M  V30 3964 O 362.28 -1.4447 -1.24632 0
M  V30 3965 C 359.42 -2.89076 -1.88491 0
M  V30 3966 C 358.533 -4.08012 -1.41951 0
M  V30 3967 C 357.668 -4.64426 -2.5784 0
M  V30 3968 C 356.707 -5.75656 -2.08053 0
M  V30 3969 N 355.844 -6.26347 -3.17227 0
M  V30 3970 H 360.684 -2.97727 -0.12754 0
M  V30 3971 H 358.221 -1.47011 -0.0511978 0
M  V30 3972 H 360.179 -3.27059 -2.59014 0
M  V30 3973 H 358.809 -2.14298 -2.41405 0
M  V30 3974 H 357.861 -3.75492 -0.609095 0
M  V30 3975 H 359.173 -4.88375 -1.01447 0
M  V30 3976 H 358.327 -5.04869 -3.3644 0
M  V30 3977 H 357.066 -3.83233 -3.01635 0
M  V30 3978 H 356.071 -5.34712 -1.27916 0
M  V30 3979 H 357.296 -6.58686 -1.65255 0
M  V30 3980 H 355.242 -5.48067 -3.60497 0
M  V30 3981 H 355.159 -7.01843 -2.80986 0
M  V30 3982 H 356.427 -6.71447 -3.95953 0
M  V30 3983 N 360.656 0.0484629 -1.57525 0
M  V30 3984 C 361.566 1.07241 -2.08654 0
M  V30 3985 C 362.582 1.409 -1.02095 0
M  V30 3986 O 363.758 1.50609 -1.33712 0
M  V30 3987 C 360.823 2.36008 -2.5397 0
M  V30 3988 C 359.884 2.09108 -3.7493 0
M  V30 3989 C 359.117 3.31736 -4.18075 0
M  V30 3990 O 359.34 4.41714 -3.60895 0
M  V30 3991 O 358.274 3.18576 -5.10679 0
M  V30 3992 H 362.1 0.667965 -2.96263 0
M  V30 3993 H 359.685 0.26417 -1.47046 0
M  V30 3994 H 361.567 3.11747 -2.83535 0
M  V30 3995 H 360.242 2.75786 -1.69481 0
M  V30 3996 H 359.149 1.31 -3.50414 0
M  V30 3997 H 360.482 1.74198 -4.60343 0
M  V30 3998 N 362.134 1.5431 0.320358 0
M  V30 3999 C 363.55 1.45091 0.664889 0
M  V30 4000 C 363.75 0.626382 1.91517 0
M  V30 4001 O 362.806 0.126443 2.52183 0
M  V30 4002 C 364.119 2.88848 0.83591 0
M  V30 4003 C 365.667 2.9877 0.933046 0
M  V30 4004 C 366.142 4.43683 1.13621 0
M  V30 4005 N 367.633 4.47309 1.20287 0
M  V30 4006 C 368.368 5.56595 1.37801 0
M  V30 4007 N 367.864 6.75844 1.52338 0
M  V30 4008 N 369.657 5.44248 1.40535 0
M  V30 4009 H 361.808 2.06398 -0.501374 0
M  V30 4010 H 364.071 0.933963 -0.162534 0
M  V30 4011 H 363.777 3.51698 -0.0116092 0
M  V30 4012 H 363.651 3.35148 1.73078 0
M  V30 4013 H 366.038 2.36045 1.77107 0
M  V30 4014 H 366.119 2.55796 0.0145782 0
M  V30 4015 H 365.763 5.06995 0.303032 0
M  V30 4016 H 365.693 4.84269 2.0686 0
M  V30 4017 H 368.184 3.61388 1.10485 0
M  V30 4018 H 368.497 7.54892 1.65403 0
M  V30 4019 H 366.842 6.78746 1.4943 0
M  V30 4020 H 370.033 4.50038 1.28777 0
M  V30 4021 H 370.206 6.29473 1.53842 0
M  V30 4022 N 363.613 -0.582584 1.46437 0
M  V30 4023 C 364.523 -1.71949 1.59595 0
M  V30 4024 C 365.539 -1.67264 0.479443 0
M  V30 4025 O 366.715 -1.87171 0.743579 0
M  V30 4026 C 363.78 -3.08452 1.58298 0
M  V30 4027 C 362.841 -3.244 2.81182 0
M  V30 4028 C 362.074 -4.54391 2.79937 0
M  V30 4029 O 362.297 -5.38287 1.8869 0
M  V30 4030 O 361.231 -4.73588 3.71481 0
M  V30 4031 H 365.057 -1.63795 2.55744 0
M  V30 4032 H 362.642 -0.749643 1.29231 0
M  V30 4033 H 364.524 -3.89732 1.60271 0
M  V30 4034 H 363.199 -3.17043 0.653094 0
M  V30 4035 H 362.106 -2.42613 2.84763 0
M  V30 4036 H 363.439 -3.20699 3.7338 0
M  V30 4037 N 365.091 -1.34144 -0.827227 0
M  V30 4038 C 366.502 -1.23557 -1.39966 0
M  V30 4039 C 366.853 0.140731 -1.95695 0
M  V30 4040 O 365.978 1.04087 -1.89723 0
M  V30 4041 C 366.573 -2.23708 -2.54441 0
M  V30 4042 C 365.132 -2.16924 -3.07605 0
M  V30 4043 C 364.279 -2.10549 -1.80456 0
M  V30 4044 H 367.23 -1.45573 -0.631991 0
M  V30 4045 H 367.251 -1.85157 -3.32411 0
M  V30 4046 H 366.763 -3.23866 -2.13851 0
M  V30 4047 H 364.864 -1.20107 -3.52711 0
M  V30 4048 H 364.977 -3.07988 -3.66988 0
M  V30 4049 H 363.341 -1.56203 -2.01178 0
M  V30 4050 H 364.124 -3.12535 -1.42046 0
M  V30 4051 N 366.569 1.04691 -1.17803 0
M  V30 4052 C 367.499 2.14494 -0.92275 0
M  V30 4053 C 368.48 1.69546 0.137179 0
M  V30 4054 O 369.665 1.94195 -0.0141108 0
M  V30 4055 C 366.795 3.44491 -0.440803 0
M  V30 4056 C 365.749 4.03031 -1.4405 0
M  V30 4057 C 365.075 5.28432 -0.81631 0
M  V30 4058 C 366.375 4.39932 -2.81527 0
M  V30 4059 H 368.069 2.36107 -1.84103 0
M  V30 4060 H 365.615 1.1347 -0.886599 0
M  V30 4061 H 367.568 4.2066 -0.249602 0
M  V30 4062 H 366.292 3.22546 0.513025 0
M  V30 4063 H 364.951 3.28937 -1.61853 0
M  V30 4064 H 364.599 5.02792 0.144511 0
M  V30 4065 H 364.299 5.68559 -1.48371 0
M  V30 4066 H 365.823 6.07284 -0.635496 0
M  V30 4067 H 367.237 5.07113 -2.67412 0
M  V30 4068 H 365.634 4.9109 -3.44892 0
M  V30 4069 H 366.704 3.50045 -3.35554 0
M  V30 4070 N 368.047 0.979072 1.23499 0
M  V30 4071 C 368.957 0.526431 2.28617 0
M  V30 4072 C 369.973 -0.418126 1.68901 0
M  V30 4073 O 371.149 -0.288372 1.99325 0
M  V30 4074 C 368.214 -0.165235 3.46306 0
M  V30 4075 C 367.275 0.82056 4.21385 0
M  V30 4076 C 366.508 0.161807 5.33455 0
M  V30 4077 O 366.731 -1.04742 5.60701 0
M  V30 4078 O 365.665 0.859708 5.95729 0
M  V30 4079 H 369.491 1.4006 2.69475 0
M  V30 4080 H 367.076 0.746643 1.29405 0
M  V30 4081 H 368.958 -0.553287 4.17752 0
M  V30 4082 H 367.633 -1.01419 3.07402 0
M  V30 4083 H 366.54 1.25929 3.52268 0
M  V30 4084 H 367.873 1.63828 4.64135 0
M  V30 4085 N 369.525 -1.3858 0.750561 0
M  V30 4086 C 370.941 -1.53759 0.427824 0
M  V30 4087 C 371.141 -1.71401 -1.05943 0
M  V30 4088 O 370.197 -1.72331 -1.84549 0
M  V30 4089 C 371.51 -2.74642 1.22443 0
M  V30 4090 C 373.058 -2.88489 1.2142 0
M  V30 4091 C 373.533 -4.12329 1.9937 0
M  V30 4092 N 375.024 -4.194 1.96616 0
M  V30 4093 C 375.759 -5.14209 2.53727 0
M  V30 4094 N 375.255 -6.14709 3.19539 0
M  V30 4095 N 377.048 -5.06537 2.43673 0
M  V30 4096 H 369.199 -1.25377 1.71447 0
M  V30 4097 H 371.462 -0.608844 0.726645 0
M  V30 4098 H 371.168 -2.68 2.27747 0
M  V30 4099 H 371.042 -3.67745 0.839273 0
M  V30 4100 H 373.429 -2.94614 0.169232 0
M  V30 4101 H 373.51 -1.96406 1.63885 0
M  V30 4102 H 373.154 -4.06966 3.03877 0
M  V30 4103 H 373.084 -5.03486 1.54302 0
M  V30 4104 H 375.575 -3.47421 1.48684 0
M  V30 4105 H 375.888 -6.8354 3.60545 0
M  V30 4106 H 374.233 -6.1505 3.23633 0
M  V30 4107 H 377.424 -4.26962 1.91889 0
M  V30 4108 H 377.597 -5.80245 2.88479 0
M  V30 4109 N 371.003 -0.499398 -1.49478 0
M  V30 4110 C 372.419 -0.155261 -1.58843 0
M  V30 4111 C 372.619 1.34008 -1.50479 0
M  V30 4112 O 371.675 2.11589 -1.37791 0
M  V30 4113 C 372.988 -0.730636 -2.91689 0
M  V30 4114 C 374.536 -0.696599 -3.0515 0
M  V30 4115 C 375.011 -1.25001 -4.40612 0
M  V30 4116 N 376.502 -1.21064 -4.47099 0
M  V30 4117 C 377.237 -1.60905 -5.50361 0
M  V30 4118 N 376.733 -2.08331 -6.60735 0
M  V30 4119 N 378.526 -1.52331 -5.41065 0
M  V30 4120 H 370.677 -1.47162 -1.53158 0
M  V30 4121 H 372.94 -0.610309 -0.725415 0
M  V30 4122 H 372.646 -1.77928 -3.03372 0
M  V30 4123 H 372.52 -0.190161 -3.7672 0
M  V30 4124 H 374.907 0.343204 -2.93097 0
M  V30 4125 H 374.988 -1.2742 -2.21806 0
M  V30 4126 H 374.632 -2.28859 -4.53416 0
M  V30 4127 H 374.562 -0.64836 -5.22593 0
M  V30 4128 H 377.053 -0.863128 -3.67911 0
M  V30 4129 H 377.366 -2.36805 -7.35624 0
M  V30 4130 H 375.711 -2.12304 -6.6178 0
M  V30 4131 H 378.902 -1.151 -4.53729 0
M  V30 4132 H 379.075 -1.83704 -6.21415 0
M  V30 4133 N 372.481 1.55866 -0.233164 0
M  V30 4134 C 373.711 2.02704 0.399325 0
M  V30 4135 C 374.119 1.11204 1.53069 0
M  V30 4136 O 373.462 0.116182 1.83332 0
M  V30 4137 C 373.524 3.45844 0.981429 0
M  V30 4138 C 373.188 4.56997 -0.0159561 0
M  V30 4139 C 374.185 5.13384 -0.820552 0
M  V30 4140 C 371.87 5.0211 -0.138072 0
M  V30 4141 C 373.864 6.13365 -1.73386 0
M  V30 4142 C 371.551 6.01926 -1.0549 0
M  V30 4143 C 372.549 6.57431 -1.85132 0
M  V30 4144 O 372.237 7.55302 -2.75272 0
M  V30 4145 H 371.969 0.668459 0.100692 0
M  V30 4146 H 374.523 2.02387 -0.35052 0
M  V30 4147 H 372.753 3.43267 1.78058 0
M  V30 4148 H 374.442 3.76262 1.52255 0
M  V30 4149 H 375.208 4.79372 -0.736721 0
M  V30 4150 H 371.087 4.5858 0.471737 0
M  V30 4151 H 374.631 6.56614 -2.35592 0
M  V30 4152 H 370.528 6.35359 -1.1397 0
M  V30 4153 H 371.296 7.72867 -2.69477 0
M  V30 4154 N 373.959 -0.0401083 1.57549 0
M  V30 4155 C 375.37 -0.588097 1.77196 0
M  V30 4156 C 375.721 -1.76209 0.862832 0
M  V30 4157 O 374.846 -2.16331 0.0548389 0
M  V30 4158 C 375.441 -1.07363 3.21339 0
M  V30 4159 C 374 -1.56723 3.42221 0
M  V30 4160 C 373.147 -0.50041 2.72747 0
M  V30 4161 H 376.098 0.186119 1.57605 0
M  V30 4162 H 376.119 -1.94143 3.27244 0
M  V30 4163 H 375.631 -0.218975 3.87482 0
M  V30 4164 H 373.732 -2.4441 2.81237 0
M  V30 4165 H 373.845 -1.62234 4.50796 0
M  V30 4166 H 372.209 -0.952894 2.36203 0
M  V30 4167 H 372.992 0.344599 3.41566 0
M  V30 4168 N 375.437 -1.54477 -0.31217 0
M  V30 4169 C 376.384 -1.84655 -1.38461 0
M  V30 4170 C 377.354 -0.694536 -1.50882 0
M  V30 4171 O 378.539 -0.942081 -1.6592 0
M  V30 4172 C 375.679 -2.0896 -2.74645 0
M  V30 4173 C 374.792 -3.36618 -2.70763 0
M  V30 4174 C 373.927 -3.50824 -3.98868 0
M  V30 4175 C 372.966 -4.72315 -3.89339 0
M  V30 4176 N 372.103 -4.83387 -5.09197 0
M  V30 4177 H 376.943 -2.76142 -1.12026 0
M  V30 4178 H 374.48 -1.36748 -0.542065 0
M  V30 4179 H 376.438 -2.21045 -3.53829 0
M  V30 4180 H 375.068 -1.20752 -2.99364 0
M  V30 4181 H 374.12 -3.33211 -1.83506 0
M  V30 4182 H 375.432 -4.25917 -2.59608 0
M  V30 4183 H 374.586 -3.62513 -4.86486 0
M  V30 4184 H 373.325 -2.59638 -4.12843 0
M  V30 4185 H 372.33 -4.6067 -3.00105 0
M  V30 4186 H 373.555 -5.64897 -3.76919 0
M  V30 4187 H 371.501 -3.9512 -5.23657 0
M  V30 4188 H 371.418 -5.66669 -5.00422 0
M  V30 4189 H 372.686 -4.9942 -5.98498 0
M  V30 4190 N 376.915 0.57481 -1.46744 0
M  V30 4191 C 377.845 1.69337 -1.60771 0
M  V30 4192 C 378.826 1.63825 -0.457736 0
M  V30 4193 O 380.011 1.8172 -0.684947 0
M  V30 4194 C 377.141 3.0798 -1.60517 0
M  V30 4195 C 376.095 3.28327 -2.74564 0
M  V30 4196 C 375.421 4.67578 -2.59373 0
M  V30 4197 C 376.721 3.15398 -4.16319 0
M  V30 4198 H 378.415 1.57853 -2.54407 0
M  V30 4199 H 375.961 0.75799 -1.22436 0
M  V30 4200 H 377.914 3.86061 -1.68923 0
M  V30 4201 H 376.638 3.20381 -0.634305 0
M  V30 4202 H 375.297 2.52649 -2.65639 0
M  V30 4203 H 374.945 4.76755 -1.60353 0
M  V30 4204 H 374.645 4.82144 -3.35873 0
M  V30 4205 H 376.169 5.47817 -2.69682 0
M  V30 4206 H 377.583 3.83315 -4.26313 0
M  V30 4207 H 375.98 3.41482 -4.93468 0
M  V30 4208 H 377.05 2.12372 -4.3592 0
M  V30 4209 N 378.394 1.34581 0.820102 0
M  V30 4210 C 379.619 1.30333 1.61332 0
M  V30 4211 C 380.044 -0.119339 1.87721 0
M  V30 4212 O 379.402 -1.08197 1.45475 0
M  V30 4213 C 379.45 2.10258 2.92957 0
M  V30 4214 O 378.554 1.47404 3.85157 0
M  V30 4215 H 377.895 0.447488 0.490561 0
M  V30 4216 H 380.425 1.77425 1.01889 0
M  V30 4217 H 380.435 2.21718 3.42498 0
M  V30 4218 H 379.11 3.13693 2.73074 0
M  V30 4219 H 377.687 1.44703 3.43679 0
M  V30 4220 N 379.872 -1.04064 1.18357 0
M  V30 4221 C 380.782 -2.15569 0.925596 0
M  V30 4222 C 381.798 -1.7365 -0.110295 0
M  V30 4223 O 382.974 -2.01273 0.0716218 0
M  V30 4224 C 380.039 -3.43704 0.454836 0
M  V30 4225 C 379.1 -4.00004 1.55869 0
M  V30 4226 C 378.333 -5.22023 1.1103 0
M  V30 4227 O 378.556 -5.70392 -0.0309756 0
M  V30 4228 O 377.49 -5.70856 1.90805 0
M  V30 4229 H 381.316 -2.40187 1.8586 0
M  V30 4230 H 378.901 -1.1402 0.965394 0
M  V30 4231 H 380.783 -4.20923 0.200382 0
M  V30 4232 H 379.458 -3.20559 -0.449876 0
M  V30 4233 H 378.365 -3.24172 1.86716 0
M  V30 4234 H 379.698 -4.2749 2.43953 0
M  V30 4235 N 381.35 -0.985608 -1.22978 0
M  V30 4236 C 382.596 -0.65836 -1.91816 0
M  V30 4237 C 382.929 0.806692 -1.76653 0
M  V30 4238 O 382.204 1.58252 -1.13078 0
M  V30 4239 C 382.487 -1.056 -3.44268 0
M  V30 4240 C 382.34 -2.57906 -3.68516 0
M  V30 4241 C 383.659 -0.603781 -4.35939 0
M  V30 4242 H 380.778 -0.24065 -0.696604 0
M  V30 4243 H 383.42 -1.22783 -1.44998 0
M  V30 4244 H 381.57 -0.571445 -3.84274 0
M  V30 4245 H 383.242 -3.13976 -3.3796 0
M  V30 4246 H 381.485 -3.00305 -3.13048 0
M  V30 4247 H 382.156 -2.80779 -4.75255 0
M  V30 4248 H 384.632 -1.01987 -4.03408 0
M  V30 4249 H 383.508 -0.910383 -5.41298 0
M  V30 4250 H 383.769 0.495761 -4.39312 0
M  V30 4251 N 382.828 1.3818 -0.7579 0
M  V30 4252 C 384.074 2.00316 -0.316453 0
M  V30 4253 C 384.407 1.60026 1.10025 0
M  V30 4254 O 383.682 0.839835 1.75434 0
M  V30 4255 C 383.965 3.57349 -0.444245 0
M  V30 4256 C 383.818 4.07591 -1.90236 0
M  V30 4257 C 385.137 4.3981 0.1598 0
M  V30 4258 H 382.256 0.727741 -0.116459 0
M  V30 4259 H 384.898 1.6406 -0.958352 0
M  V30 4260 H 383.048 3.88365 0.102233 0
M  V30 4261 H 384.72 3.87199 -2.50748 0
M  V30 4262 H 382.963 3.60297 -2.41595 0
M  V30 4263 H 383.634 5.16677 -1.94291 0
M  V30 4264 H 386.11 4.14971 -0.306314 0
M  V30 4265 H 384.986 5.48885 0.0401675 0
M  V30 4266 H 385.247 4.24102 1.24859 0
M  V30 4267 N 384.306 0.507319 1.49211 0
M  V30 4268 C 385.555 -0.0368315 2.01666 0
M  V30 4269 C 385.868 -1.37459 1.39156 0
M  V30 4270 O 387.074 -2.00579 1.82976 0
M  V30 4271 C 385.53 -0.116089 3.59713 0
M  V30 4272 C 385.138 1.2154 4.31198 0
M  V30 4273 C 386.882 -0.610268 4.2009 0
M  V30 4274 C 384.789 1.09796 5.81119 0
M  V30 4275 H 383.719 -0.0175376 0.753796 0
M  V30 4276 H 386.37 0.647691 1.71689 0
M  V30 4277 H 384.752 -0.8652 3.86433 0
M  V30 4278 H 385.926 1.9783 4.16173 0
M  V30 4279 H 384.241 1.64352 3.82593 0
M  V30 4280 H 386.838 -0.715742 5.29888 0
M  V30 4281 H 387.181 -1.61064 3.8388 0
M  V30 4282 H 387.714 0.0824916 3.97714 0
M  V30 4283 H 384.453 2.0728 6.21864 0
M  V30 4284 H 383.973 0.376058 5.9862 0
M  V30 4285 H 385.652 0.779281 6.4229 0
M  V30 4286 N 385.784 -1.5574 0.241426 0
M  V30 4287 C 387.061 -1.90704 -0.434881 0
M  V30 4288 C 387.441 -1.16145 -1.76277 0
M  V30 4289 O 386.789 -0.277152 -2.26813 0
M  V30 4290 C 386.999 -3.43657 -0.608343 0
M  V30 4291 C 388.347 -4.14806 -0.906725 0
M  V30 4292 O 389.371 -3.49366 -0.694408 0
M  V30 4293 O 388.23 -5.30548 -1.31075 0
M  V30 4294 H 385.324 -0.793592 -0.23268 0
M  V30 4295 H 387.87 -1.67288 0.285086 0
M  V30 4296 H 386.642 -3.89927 0.327505 0
M  V30 4297 H 386.265 -3.72918 -1.37906 0
M  V30 4298 N 387.262 0.0317525 -1.57568 0
M  V30 4299 C 388.192 1.03274 -2.0942 0
M  V30 4300 C 389.173 1.3788 -0.996143 0
M  V30 4301 O 390.358 1.46811 -1.27122 0
M  V30 4302 C 387.488 2.33448 -2.57137 0
M  V30 4303 C 386.442 2.13091 -3.71182 0
M  V30 4304 C 385.768 3.49001 -4.05095 0
M  V30 4305 C 387.068 1.51928 -4.99715 0
M  V30 4306 H 388.762 0.60112 -2.93303 0
M  V30 4307 H 386.308 0.287705 -1.41097 0
M  V30 4308 H 388.261 3.03802 -2.92032 0
M  V30 4309 H 386.985 2.78665 -1.70333 0
M  V30 4310 H 385.644 1.45171 -3.36632 0
M  V30 4311 H 385.292 3.91862 -3.15362 0
M  V30 4312 H 384.992 3.36207 -4.81911 0
M  V30 4313 H 386.516 4.20721 -4.42522 0
M  V30 4314 H 387.93 2.12196 -5.32584 0
M  V30 4315 H 386.327 1.49716 -5.81124 0
M  V30 4316 H 387.397 0.484811 -4.8247 0
M  V30 4317 N 388.74 1.54641 0.303973 0
M  V30 4318 C 389.703 1.84646 1.35789 0
M  V30 4319 C 390.703 0.7192 1.4382 0
M  V30 4320 O 391.893 0.987491 1.43507 0
M  V30 4321 C 389.025 2.02407 2.74307 0
M  V30 4322 H 390.218 2.78829 1.10429 0
M  V30 4323 H 387.771 1.46658 0.540487 0
M  V30 4324 H 388.506 1.10502 3.04893 0
M  V30 4325 H 388.291 2.84453 2.69868 0
M  V30 4326 H 389.781 2.27002 3.50514 0
M  V30 4327 N 390.218 -0.567019 1.47046 0
M  V30 4328 C 391.165 -1.67489 1.58796 0
M  V30 4329 C 392.135 -1.60399 0.43144 0
M  V30 4330 O 393.32 -1.79378 0.650233 0
M  V30 4331 C 390.46 -3.05821 1.59899 0
M  V30 4332 C 389.573 -3.2342 2.86397 0
M  V30 4333 C 388.708 -4.52093 2.789 0
M  V30 4334 C 387.747 -4.6309 4.00267 0
M  V30 4335 N 386.884 -5.83106 3.91064 0
M  V30 4336 H 391.724 -1.56785 2.53422 0
M  V30 4337 H 389.261 -0.763896 1.2571 0
M  V30 4338 H 391.219 -3.8591 1.58522 0
M  V30 4339 H 389.849 -3.15384 0.687929 0
M  V30 4340 H 388.901 -2.3683 2.97684 0
M  V30 4341 H 390.213 -3.27412 3.76301 0
M  V30 4342 H 389.367 -5.4043 2.75718 0
M  V30 4343 H 388.106 -4.50565 1.86662 0
M  V30 4344 H 387.111 -3.73168 4.03765 0
M  V30 4345 H 388.336 -4.66386 4.93621 0
M  V30 4346 H 386.282 -5.82546 3.01623 0
M  V30 4347 H 386.199 -5.88434 4.74638 0
M  V30 4348 H 387.467 -6.73831 3.91882 0
M  V30 4349 N 391.696 -1.35014 -0.812953 0
M  V30 4350 C 392.643 -1.27412 -1.92444 0
M  V30 4351 C 393.613 -0.14733 -1.65445 0
M  V30 4352 O 394.798 -0.329974 -1.87925 0
M  V30 4353 C 391.938 -1.04558 -3.28879 0
M  V30 4354 C 391.051 -2.26101 -3.68106 0
M  V30 4355 C 390.186 -1.96449 -4.9354 0
M  V30 4356 C 389.225 -3.14081 -5.25376 0
M  V30 4357 N 388.362 -2.84246 -6.41988 0
M  V30 4358 H 393.202 -2.22463 -1.98278 0
M  V30 4359 H 390.739 -1.10593 -0.969933 0
M  V30 4360 H 392.697 -0.893413 -4.07522 0
M  V30 4361 H 391.327 -0.131719 -3.22531 0
M  V30 4362 H 390.379 -2.52204 -2.84775 0
M  V30 4363 H 391.691 -3.13959 -3.87597 0
M  V30 4364 H 390.845 -1.78026 -5.79993 0
M  V30 4365 H 389.584 -1.05867 -4.76071 0
M  V30 4366 H 388.589 -3.33089 -4.37415 0
M  V30 4367 H 389.814 -4.05455 -5.44778 0
M  V30 4368 H 387.76 -1.96252 -6.25956 0
M  V30 4369 H 387.677 -3.65637 -6.61699 0
M  V30 4370 H 388.945 -2.6935 -7.31485 0
M  V30 4371 N 393.175 1.03435 -1.18907 0
M  V30 4372 C 394.415 1.78302 -0.999391 0
M  V30 4373 C 394.779 1.86353 0.462219 0
M  V30 4374 O 395.98 2.57489 0.771543 0
M  V30 4375 C 394.251 3.17362 -1.64365 0
M  V30 4376 S 395.81 4.08488 -1.6026 0
M  V30 4377 H 392.628 0.613861 -0.358742 0
M  V30 4378 H 395.23 1.23979 -1.51161 0
M  V30 4379 H 393.934 3.09116 -2.69955 0
M  V30 4380 H 393.465 3.76762 -1.13199 0
M  V30 4381 H 395.48 4.92274 -0.622932 0
M  V30 4382 N 394.653 0.992116 1.22453 0
M  V30 4383 C 395.583 0.561677 2.26644 0
M  V30 4384 C 396.564 -0.411055 1.65059 0
M  V30 4385 O 397.749 -0.301861 1.9184 0
M  V30 4386 C 394.879 -0.125247 3.47074 0
M  V30 4387 C 393.833 0.765948 4.21091 0
M  V30 4388 C 393.159 -0.0538484 5.34673 0
M  V30 4389 C 394.459 2.06242 4.79856 0
M  V30 4390 H 396.153 1.43259 2.62902 0
M  V30 4391 H 393.699 0.690283 1.26377 0
M  V30 4392 H 395.652 -0.437764 4.1912 0
M  V30 4393 H 394.376 -1.03069 3.0991 0
M  V30 4394 H 393.035 1.0621 3.50878 0
M  V30 4395 H 392.683 -0.960188 4.9375 0
M  V30 4396 H 392.383 0.539415 5.85119 0
M  V30 4397 H 393.907 -0.360477 6.09535 0
M  V30 4398 H 395.321 1.8139 5.43848 0
M  V30 4399 H 393.718 2.60444 5.40638 0
M  V30 4400 H 394.788 2.74167 3.99951 0
M  V30 4401 N 396.131 -1.37776 0.765217 0
M  V30 4402 C 397.081 -2.2768 0.12075 0
M  V30 4403 C 398.065 -1.45778 -0.680988 0
M  V30 4404 O 399.257 -1.684 -0.545033 0
M  V30 4405 C 396.386 -3.34722 -0.762626 0
M  V30 4406 C 395.472 -4.24074 0.0465881 0
M  V30 4407 N 395.863 -4.93939 1.08892 0
M  V30 4408 C 394.161 -4.45643 -0.178418 0
M  V30 4409 C 394.862 -5.59845 1.57951 0
M  V30 4410 N 393.838 -5.36218 0.892797 0
M  V30 4411 H 397.64 -2.79166 0.918889 0
M  V30 4412 H 395.154 -1.50816 0.602353 0
M  V30 4413 H 397.151 -3.98031 -1.24005 0
M  V30 4414 H 395.811 -2.84793 -1.55959 0
M  V30 4415 H 396.822 -4.96572 1.47095 0
M  V30 4416 H 393.499 -4.06599 -0.9478 0
M  V30 4417 H 394.889 -6.25703 2.44838 0
M  V30 4418 N 397.609 -0.515225 -1.4894 0
M  V30 4419 C 398.858 0.0261361 -2.01683 0
M  V30 4420 C 399.171 1.36719 -1.39883 0
M  V30 4421 O 400.377 1.99606 -1.84037 0
M  V30 4422 C 398.833 0.0970111 -3.59769 0
M  V30 4423 C 398.441 -1.23825 -4.30548 0
M  V30 4424 C 400.185 0.587981 -4.20408 0
M  V30 4425 C 398.092 -1.12877 -5.80528 0
M  V30 4426 H 397.022 0.0135398 -0.753878 0
M  V30 4427 H 399.673 -0.656787 -1.71343 0
M  V30 4428 H 398.055 0.844694 -3.86886 0
M  V30 4429 H 399.229 -2.00034 -4.15118 0
M  V30 4430 H 397.544 -1.66379 -3.81716 0
M  V30 4431 H 400.141 0.68763 -5.3026 0
M  V30 4432 H 400.484 1.59026 -3.84729 0
M  V30 4433 H 401.017 -0.103582 -3.97665 0
M  V30 4434 H 397.756 -2.10575 -6.20756 0
M  V30 4435 H 397.276 -0.407799 -5.98412 0
M  V30 4436 H 398.955 -0.813332 -6.41868 0
M  V30 4437 N 399.087 1.5561 -0.249682 0
M  V30 4438 C 400.364 1.90932 0.424761 0
M  V30 4439 C 400.744 1.17078 1.75658 0
M  V30 4440 O 400.092 0.289176 2.26663 0
M  V30 4441 C 400.302 3.43975 0.590109 0
M  V30 4442 C 401.65 4.15281 0.884714 0
M  V30 4443 O 402.674 3.49729 0.67587 0
M  V30 4444 O 401.533 5.31236 1.28259 0
M  V30 4445 H 398.627 0.794815 0.228468 0
M  V30 4446 H 401.173 1.67135 -0.293954 0
M  V30 4447 H 399.945 3.89748 -0.34818 0
M  V30 4448 H 399.568 3.73644 1.35926 0
M  V30 4449 N 400.565 -0.0233959 1.57583 0
M  V30 4450 C 401.976 -0.56927 1.77809 0
M  V30 4451 C 402.327 -1.75284 0.881472 0
M  V30 4452 O 401.452 -2.1626 0.0777805 0
M  V30 4453 C 402.047 -1.03949 3.22459 0
M  V30 4454 C 400.606 -1.53084 3.43864 0
M  V30 4455 C 399.753 -0.471454 2.73263 0
M  V30 4456 H 402.704 0.202825 1.57399 0
M  V30 4457 H 402.725 -1.90661 3.29285 0
M  V30 4458 H 402.237 -0.177865 3.87692 0
M  V30 4459 H 400.338 -2.41414 2.83814 0
M  V30 4460 H 400.451 -1.57443 4.52491 0
M  V30 4461 H 398.815 -0.927788 2.37201 0
M  V30 4462 H 399.598 0.380808 3.41181 0
M  V30 4463 N 402.043 -1.548 -0.295768 0
M  V30 4464 C 403.32 -1.65014 -1.05023 0
M  V30 4465 C 403.7 -0.501805 -2.05049 0
M  V30 4466 O 403.048 0.500869 -2.22943 0
M  V30 4467 C 403.258 -3.03252 -1.72741 0
M  V30 4468 C 404.606 -3.60242 -2.24746 0
M  V30 4469 O 405.63 -3.05737 -1.82765 0
M  V30 4470 O 404.489 -4.55687 -3.01681 0
M  V30 4471 H 401.583 -0.669314 -0.485744 0
M  V30 4472 H 404.129 -1.67144 -0.293438 0
M  V30 4473 H 402.901 -3.7827 -1.00138 0
M  V30 4474 H 402.524 -3.04922 -2.55163 0
M  V30 4475 N 403.521 0.559213 -1.47345 0
M  V30 4476 C 404.468 1.66645 -1.59682 0
M  V30 4477 C 405.438 1.60168 -0.43994 0
M  V30 4478 O 406.623 1.79031 -0.659736 0
M  V30 4479 C 403.763 3.04969 -1.61518 0
M  V30 4480 C 402.876 3.21897 -2.88108 0
M  V30 4481 C 402.011 4.50608 -2.81294 0
M  V30 4482 C 401.05 4.60961 -4.02717 0
M  V30 4483 N 400.187 5.81024 -3.94151 0
M  V30 4484 H 405.027 1.55439 -2.54249 0
M  V30 4485 H 402.564 0.757219 -1.26113 0
M  V30 4486 H 404.522 3.85064 -1.60566 0
M  V30 4487 H 403.152 3.15015 -0.704645 0
M  V30 4488 H 402.204 2.35248 -2.98936 0
M  V30 4489 H 403.516 3.25412 -3.78032 0
M  V30 4490 H 402.67 5.3896 -2.7858 0
M  V30 4491 H 401.409 4.49568 -1.89049 0
M  V30 4492 H 400.414 3.71021 -4.05738 0
M  V30 4493 H 401.639 4.63761 -4.96087 0
M  V30 4494 H 399.585 5.80938 -3.04708 0
M  V30 4495 H 399.502 5.85909 -4.77752 0
M  V30 4496 H 400.77 6.71744 -3.9545 0
M  V30 4497 N 404.999 1.35443 0.805782 0
M  V30 4498 C 406.415 1.15499 1.10146 0
M  V30 4499 C 406.615 -0.0319975 2.01475 0
M  V30 4500 O 405.671 -0.70236 2.42535 0
M  V30 4501 C 406.984 2.45833 1.73166 0
M  V30 4502 C 408.532 2.52047 1.85583 0
M  V30 4503 C 409.007 3.82427 2.52019 0
M  V30 4504 N 410.498 3.83682 2.59504 0
M  V30 4505 C 411.233 4.81294 3.11679 0
M  V30 4506 N 410.729 5.89294 3.64287 0
M  V30 4507 N 412.522 4.6873 3.1024 0
M  V30 4508 H 404.673 2.11469 0.198678 0
M  V30 4509 H 406.936 0.93594 0.150731 0
M  V30 4510 H 406.642 3.32874 1.13526 0
M  V30 4511 H 406.516 2.6044 2.72857 0
M  V30 4512 H 408.903 1.65435 2.44367 0
M  V30 4513 H 408.984 2.41354 0.847455 0
M  V30 4514 H 408.628 4.69437 1.93885 0
M  V30 4515 H 408.558 3.90409 3.53395 0
M  V30 4516 H 411.049 3.05648 2.22234 0
M  V30 4517 H 411.362 6.59768 4.02401 0
M  V30 4518 H 409.707 5.92985 3.62483 0
M  V30 4519 H 412.898 3.83496 2.68419 0
M  V30 4520 H 413.071 5.44965 3.50596 0
M  V30 4521 N 406.477 -1.02803 1.19454 0
M  V30 4522 C 407.888 -1.57667 0.999899 0
M  V30 4523 C 408.239 -1.91041 -0.446956 0
M  V30 4524 O 407.364 -1.70978 -1.32648 0
M  V30 4525 C 407.959 -2.86477 1.80877 0
M  V30 4526 C 406.518 -3.37911 1.65811 0
M  V30 4527 C 405.665 -2.11343 1.79526 0
M  V30 4528 H 408.616 -0.853214 1.33813 0
M  V30 4529 H 408.637 -3.57408 1.30536 0
M  V30 4530 H 408.149 -2.62155 2.86175 0
M  V30 4531 H 406.25 -3.67218 0.63102 0
M  V30 4532 H 406.363 -4.10885 2.46395 0
M  V30 4533 H 404.727 -2.23254 1.22596 0
M  V30 4534 H 405.51 -1.89461 2.86285 0
M  V30 4535 N 407.956 -0.998596 -1.21925 0
M  V30 4536 C 409.203 -0.677663 -1.90824 0
M  V30 4537 C 409.531 0.790905 -1.77693 0
M  V30 4538 O 408.786 1.58817 -1.14349 0
M  V30 4539 C 409.085 -1.03648 -3.42041 0
M  V30 4540 C 408.751 -2.49825 -3.75364 0
M  V30 4541 C 407.413 -2.8977 -3.8417 0
M  V30 4542 C 409.765 -3.44545 -3.91073 0
M  V30 4543 C 407.093 -4.23412 -4.06127 0
M  V30 4544 C 409.445 -4.77853 -4.14535 0
M  V30 4545 C 408.109 -5.17531 -4.21566 0
M  V30 4546 H 407.379 -0.247975 -0.698276 0
M  V30 4547 H 410.026 -1.25584 -1.44571 0
M  V30 4548 H 408.331 -0.376457 -3.89987 0
M  V30 4549 H 410.028 -0.766113 -3.93614 0
M  V30 4550 H 406.618 -2.17866 -3.69097 0
M  V30 4551 H 410.802 -3.14853 -3.83642 0
M  V30 4552 H 406.058 -4.53734 -4.09799 0
M  V30 4553 H 410.232 -5.51189 -4.25633 0
M  V30 4554 H 407.859 -6.21102 -4.38333 0
M  V30 4555 N 409.434 1.37368 -0.772513 0
M  V30 4556 C 410.674 2.01512 -0.342361 0
M  V30 4557 C 411.038 1.59997 1.06136 0
M  V30 4558 O 412.239 2.16609 1.59167 0
M  V30 4559 C 410.51 3.54134 -0.482048 0
M  V30 4560 S 412.069 4.38585 -0.137272 0
M  V30 4561 H 408.887 0.698699 -0.131686 0
M  V30 4562 H 411.489 1.67552 -1.0073 0
M  V30 4563 H 410.193 3.81837 -1.50428 0
M  V30 4564 H 409.724 3.92894 0.199413 0
M  V30 4565 H 411.739 4.84594 1.06692 0
M  V30 4566 N 410.912 0.523116 1.48665 0
M  V30 4567 C 411.875 -0.232592 2.28017 0
M  V30 4568 C 412.875 -0.874021 1.34972 0
M  V30 4569 O 414.065 -0.735132 1.57929 0
M  V30 4570 C 411.197 -1.33586 3.13636 0
M  V30 4571 H 412.39 0.464008 2.96289 0
M  V30 4572 H 409.943 0.278816 1.53793 0
M  V30 4573 H 410.678 -2.06593 2.4998 0
M  V30 4574 H 410.463 -0.881125 3.82071 0
M  V30 4575 H 411.953 -1.86759 3.73511 0
M  V30 4576 N 412.39 -1.55475 0.257931 0
M  V30 4577 C 413.3 -2.2549 -0.647425 0
M  V30 4578 C 414.316 -1.2748 -1.18427 0
M  V30 4579 O 415.492 -1.6038 -1.2182 0
M  V30 4580 C 412.557 -2.94916 -1.82278 0
M  V30 4581 C 411.618 -4.08363 -1.32432 0
M  V30 4582 C 410.851 -4.74469 -2.44366 0
M  V30 4583 O 411.074 -4.39701 -3.63344 0
M  V30 4584 O 410.008 -5.62763 -2.13497 0
M  V30 4585 H 413.834 -3.03593 -0.0807707 0
M  V30 4586 H 411.419 -1.49377 0.0259962 0
M  V30 4587 H 413.301 -3.38606 -2.50846 0
M  V30 4588 H 411.976 -2.19744 -2.37685 0
M  V30 4589 H 410.883 -3.69166 -0.605605 0
M  V30 4590 H 412.216 -4.85385 -0.816211 0
M  V30 4591 N 413.868 0.0150385 -1.57593 0
M  V30 4592 C 414.798 1.01047 -2.10503 0
M  V30 4593 C 415.779 1.36816 -1.01071 0
M  V30 4594 O 416.964 1.45455 -1.28672 0
M  V30 4595 C 414.094 2.30708 -2.59598 0
M  V30 4596 C 413.048 2.09142 -3.73421 0
M  V30 4597 C 412.374 3.44685 -4.08774 0
M  V30 4598 C 413.674 1.46619 -5.01298 0
M  V30 4599 H 415.368 0.569978 -2.93925 0
M  V30 4600 H 412.914 0.272724 -1.41394 0
M  V30 4601 H 414.867 3.00687 -2.95238 0
M  V30 4602 H 413.591 2.76843 -1.73279 0
M  V30 4603 H 412.25 1.41592 -3.38153 0
M  V30 4604 H 411.898 3.88495 -3.195 0
M  V30 4605 H 411.598 3.31077 -4.8545 0
M  V30 4606 H 413.122 4.16004 -4.4696 0
M  V30 4607 H 414.536 2.06535 -5.34805 0
M  V30 4608 H 412.933 1.43544 -5.82679 0
M  V30 4609 H 414.003 0.433611 -4.82957 0
M  V30 4610 N 415.346 1.54954 0.287554 0
M  V30 4611 C 416.276 1.89839 1.35954 0
M  V30 4612 C 417.257 0.758675 1.52244 0
M  V30 4613 O 418.442 1.01557 1.65529 0
M  V30 4614 C 415.572 2.15753 2.72154 0
M  V30 4615 C 414.526 3.3159 2.70614 0
M  V30 4616 C 413.852 3.42952 4.10229 0
M  V30 4617 C 415.152 4.68359 2.31165 0
M  V30 4618 H 416.846 2.79625 1.07007 0
M  V30 4619 H 414.392 1.3454 0.513316 0
M  V30 4620 H 416.345 2.38743 3.47246 0
M  V30 4621 H 415.069 1.22752 3.02654 0
M  V30 4622 H 413.728 3.08545 1.97979 0
M  V30 4623 H 413.376 2.47443 4.37928 0
M  V30 4624 H 413.076 4.20826 4.10097 0
M  V30 4625 H 414.6 3.68218 4.87081 0
M  V30 4626 H 416.014 4.9099 2.95976 0
M  V30 4627 H 414.411 5.49044 2.42221 0
M  V30 4628 H 415.481 4.68165 1.26291 0
M  V30 4629 N 416.824 -0.551391 1.4764 0
M  V30 4630 C 417.774 -1.65362 1.56969 0
M  V30 4631 C 418.758 -1.55098 0.428189 0
M  V30 4632 O 419.95 -1.63481 0.678441 0
M  V30 4633 C 417.079 -3.04129 1.59249 0
M  V30 4634 C 416.165 -3.19576 2.78804 0
M  V30 4635 N 416.556 -3.05067 4.03445 0
M  V30 4636 C 414.854 -3.50588 2.75688 0
M  V30 4637 C 415.555 -3.2336 4.83543 0
M  V30 4638 N 414.531 -3.4996 4.15968 0
M  V30 4639 H 418.333 -1.52722 2.51104 0
M  V30 4640 H 415.847 -0.756303 1.43714 0
M  V30 4641 H 417.844 -3.83278 1.64024 0
M  V30 4642 H 416.504 -3.17877 0.662148 0
M  V30 4643 H 417.515 -2.82273 4.34215 0
M  V30 4644 H 414.192 -3.70827 1.91817 0
M  V30 4645 H 415.582 -3.17061 5.92387 0
M  V30 4646 N 418.302 -1.35869 -0.798587 0
M  V30 4647 C 419.252 -1.25982 -1.90033 0
M  V30 4648 C 420.236 -0.153303 -1.60168 0
M  V30 4649 O 421.428 -0.38527 -1.72756 0
M  V30 4650 C 418.557 -1.04211 -3.27101 0
M  V30 4651 C 417.643 -2.19289 -3.63006 0
M  V30 4652 N 418.034 -3.44559 -3.70287 0
M  V30 4653 C 416.332 -2.10852 -3.93011 0
M  V30 4654 C 417.033 -4.20283 -4.02166 0
M  V30 4655 N 416.009 -3.49124 -4.16669 0
M  V30 4656 H 419.811 -2.20883 -1.93876 0
M  V30 4657 H 417.325 -1.28457 -0.993614 0
M  V30 4658 H 419.322 -0.952155 -4.05881 0
M  V30 4659 H 417.982 -0.102013 -3.2454 0
M  V30 4660 H 418.993 -3.7881 -3.53162 0
M  V30 4661 H 415.67 -1.24744 -3.98428 0
M  V30 4662 H 417.06 -5.28575 -4.14799 0
M  V30 4663 N 419.78 1.02168 -1.19998 0
M  V30 4664 C 421.057 1.72816 -0.916191 0
M  V30 4665 C 421.437 2.03081 0.576325 0
M  V30 4666 O 420.785 1.69122 1.53656 0
M  V30 4667 C 420.995 2.9997 -1.78378 0
M  V30 4668 C 422.343 3.73336 -2.02251 0
M  V30 4669 O 423.367 3.09914 -1.75589 0
M  V30 4670 O 422.226 4.87371 -2.47249 0
M  V30 4671 H 419.32 0.752924 -0.342103 0
M  V30 4672 H 421.866 1.08062 -1.30846 0
M  V30 4673 H 420.638 2.73888 -2.79466 0
M  V30 4674 H 420.261 3.72464 -1.39126 0
M  V30 4675 N 421.258 1.00505 1.21394 0
M  V30 4676 C 422.505 0.687774 1.90462 0
M  V30 4677 C 422.833 -0.78147 1.7811 0
M  V30 4678 O 422.088 -1.58208 1.1519 0
M  V30 4679 C 422.387 1.0546 3.41486 0
M  V30 4680 C 422.053 2.51812 3.74034 0
M  V30 4681 C 420.715 2.91804 3.82628 0
M  V30 4682 C 423.067 3.46614 3.8924 0
M  V30 4683 C 420.395 4.2556 4.03876 0
M  V30 4684 C 422.747 4.80044 4.11995 0
M  V30 4685 C 421.411 5.19759 4.18816 0
M  V30 4686 H 420.681 0.251674 0.696951 0
M  V30 4687 H 423.328 1.26349 1.43903 0
M  V30 4688 H 421.633 0.397133 3.89782 0
M  V30 4689 H 423.33 0.786976 3.93202 0
M  V30 4690 H 419.92 2.1982 3.67936 0
M  V30 4691 H 424.104 3.16883 3.81967 0
M  V30 4692 H 419.36 4.55901 4.07387 0
M  V30 4693 H 423.534 5.53439 4.22704 0
M  V30 4694 H 421.161 6.23418 4.35033 0
M  V30 4695 N 422.737 -1.36956 0.779787 0
M  V30 4696 C 423.984 -1.99491 0.347766 0
M  V30 4697 C 424.312 -1.61898 -1.07793 0
M  V30 4698 O 423.567 -0.86071 -1.75756 0
M  V30 4699 C 423.866 -3.54585 0.447686 0
M  V30 4700 C 423.532 -4.1197 1.83279 0
M  V30 4701 C 422.194 -4.27356 2.2118 0
M  V30 4702 C 424.546 -4.43354 2.74019 0
M  V30 4703 C 421.874 -4.71432 3.4924 0
M  V30 4704 C 424.226 -4.88858 4.01497 0
M  V30 4705 C 422.89 -5.0245 4.39432 0
M  V30 4706 H 422.16 -0.729991 0.127257 0
M  V30 4707 H 424.807 -1.63599 0.995376 0
M  V30 4708 H 423.112 -3.90773 -0.283447 0
M  V30 4709 H 424.809 -4.00888 0.0945948 0
M  V30 4710 H 421.399 -4.00428 1.52825 0
M  V30 4711 H 425.583 -4.31045 2.45995 0
M  V30 4712 H 420.839 -4.80141 3.78516 0
M  V30 4713 H 425.013 -5.12108 4.71931 0
M  V30 4714 H 422.64 -5.36362 5.38721 0
M  V30 4715 N 424.215 -0.530993 -1.48385 0
M  V30 4716 C 425.147 0.268353 -2.27624 0
M  V30 4717 C 426.16 0.903525 -1.35426 0
M  V30 4718 O 427.349 0.781796 -1.60469 0
M  V30 4719 C 424.449 1.39535 -3.08842 0
M  V30 4720 C 423.622 0.861913 -4.28824 0
M  V30 4721 C 422.681 1.87016 -4.91845 0
M  V30 4722 O 421.707 1.4267 -5.5103 0
M  V30 4723 N 422.909 3.20238 -4.84178 0
M  V30 4724 H 425.674 -0.41123 -2.96865 0
M  V30 4725 H 423.235 -0.365387 -1.57723 0
M  V30 4726 H 425.227 2.06803 -3.47871 0
M  V30 4727 H 423.797 1.97859 -2.42014 0
M  V30 4728 H 423.017 0.0132126 -3.94198 0
M  V30 4729 H 424.305 0.484415 -5.06489 0
M  V30 4730 H 423.703 3.58932 -4.37246 0
M  V30 4731 H 422.26 3.83136 -5.27305 0
M  V30 4732 N 425.693 1.55336 -0.266172 0
M  V30 4733 C 426.626 2.18256 0.666296 0
M  V30 4734 C 427.604 1.14064 1.1588 0
M  V30 4735 O 428.788 1.42546 1.23341 0
M  V30 4736 C 425.915 2.79867 1.90768 0
M  V30 4737 C 424.961 3.97283 1.55141 0
M  V30 4738 S 425.794 5.31694 0.637313 0
M  V30 4739 C 426.95 5.96769 1.88727 0
M  V30 4740 H 427.183 2.97008 0.131647 0
M  V30 4741 H 424.716 1.54317 -0.0504869 0
M  V30 4742 H 426.674 3.15996 2.62025 0
M  V30 4743 H 425.335 2.01025 2.41346 0
M  V30 4744 H 424.528 4.3905 2.4749 0
M  V30 4745 H 424.13 3.6253 0.919113 0
M  V30 4746 H 426.422 6.15458 2.83227 0
M  V30 4747 H 427.365 6.91752 1.51276 0
M  V30 4748 H 427.773 5.26034 2.04814 0
M  V30 4749 N 427.171 -0.0066808 1.57599 0
M  V30 4750 C 428.448 -0.729586 1.81484 0
M  V30 4751 C 428.828 -1.92359 0.869558 0
M  V30 4752 O 428.176 -2.28348 -0.0832533 0
M  V30 4753 C 428.386 -1.1416 3.29801 0
M  V30 4754 C 429.734 -1.54823 3.95367 0
M  V30 4755 O 430.758 -1.23558 3.34084 0
M  V30 4756 O 429.617 -2.12937 5.03309 0
M  V30 4757 H 426.711 -0.354674 0.747085 0
M  V30 4758 H 429.257 0.0182609 1.6969 0
M  V30 4759 H 428.029 -0.290231 3.90222 0
M  V30 4760 H 427.652 -1.94876 3.46568 0
M  V30 4761 N 428.649 -1.55105 -0.279332 0
M  V30 4762 C 429.897 -1.75066 -1.00977 0
M  V30 4763 C 430.218 -0.551276 -1.87045 0
M  V30 4764 O 429.488 0.433984 -1.91032 0
M  V30 4765 H 428.068 -0.645578 -0.375816 0
M  V30 4766 H 430.73 -1.92497 -0.305089 0
M  V30 4767 H 429.826 -2.64894 -1.65038 0
M  V30 4768 N 430.127 0.543554 -1.4793 0
M  V30 4769 C 431.374 1.30008 -1.55255 0
M  V30 4770 C 431.702 1.93245 -0.220612 0
M  V30 4771 O 430.957 1.79141 0.787843 0
M  V30 4772 C 431.256 2.42078 -2.62932 0
M  V30 4773 C 430.922 1.96583 -4.0579 0
M  V30 4774 C 429.584 1.83893 -4.44676 0
M  V30 4775 C 431.936 1.62034 -4.95373 0
M  V30 4776 C 429.264 1.34969 -5.70964 0
M  V30 4777 C 431.616 1.14577 -6.22137 0
M  V30 4778 C 430.28 1.00493 -6.59892 0
M  V30 4779 H 429.55 0.475735 -0.568117 0
M  V30 4780 H 432.197 0.608075 -1.81589 0
M  V30 4781 H 430.502 3.16892 -2.30406 0
M  V30 4782 H 432.199 3.00236 -2.65818 0
M  V30 4783 H 428.789 2.07407 -3.75074 0
M  V30 4784 H 432.973 1.70705 -4.66019 0
M  V30 4785 H 428.229 1.2274 -5.98953 0
M  V30 4786 H 432.403 0.869109 -6.90955 0
M  V30 4787 H 430.03 0.623624 -7.57638 0
M  V30 4788 N 431.605 1.3629 0.791371 0
M  V30 4789 C 432.568 1.30309 1.88553 0
M  V30 4790 C 433.568 0.211204 1.59407 0
M  V30 4791 O 434.758 0.465865 1.67855 0
M  V30 4792 C 431.89 1.01956 3.25297 0
M  V30 4793 H 433.083 2.27614 1.95273 0
M  V30 4794 H 430.636 1.21035 0.988953 0
M  V30 4795 H 431.371 0.050998 3.2426 0
M  V30 4796 H 431.156 1.80968 3.4784 0
M  V30 4797 H 432.646 1.0037 4.05359 0
M  V30 4798 N 433.083 -1.0153 1.20538 0
M  V30 4799 C 433.993 -2.13557 0.971113 0
M  V30 4800 C 435.009 -1.73845 -0.0734366 0
M  V30 4801 O 436.185 -2.01075 0.114299 0
M  V30 4802 C 433.25 -3.42661 0.527639 0
M  V30 4803 C 432.311 -3.96608 1.64319 0
M  V30 4804 C 431.544 -5.1955 1.22078 0
M  V30 4805 O 431.767 -5.70329 0.0900198 0
M  V30 4806 O 430.701 -5.66681 2.02871 0
M  V30 4807 H 434.527 -2.3619 1.90913 0
M  V30 4808 H 432.112 -1.11946 0.989362 0
M  V30 4809 H 433.994 -4.20404 0.289621 0
M  V30 4810 H 432.669 -3.21441 -0.381779 0
M  V30 4811 H 431.576 -3.20139 1.93551 0
M  V30 4812 H 432.909 -4.22219 2.52966 0
M  V30 4813 N 434.561 -1.01147 -1.20859 0
M  V30 4814 C 435.977 -0.725422 -1.42161 0
M  V30 4815 C 436.177 0.696919 -1.89064 0
M  V30 4816 O 435.233 1.46539 -2.05627 0
M  V30 4817 C 436.546 -1.74678 -2.44761 0
M  V30 4818 C 438.094 -1.76433 -2.58535 0
M  V30 4819 C 438.569 -2.77481 -3.64374 0
M  V30 4820 N 440.06 -2.76189 -3.71852 0
M  V30 4821 C 440.795 -3.51035 -4.53389 0
M  V30 4822 N 440.291 -4.35541 -5.38773 0
M  V30 4823 N 442.084 -3.39655 -4.47873 0
M  V30 4824 H 434.235 -1.92979 -0.887282 0
M  V30 4825 H 436.498 -0.833327 -0.451962 0
M  V30 4826 H 436.204 -2.76551 -2.17285 0
M  V30 4827 H 436.078 -1.55472 -3.43669 0
M  V30 4828 H 438.465 -0.75248 -2.85345 0
M  V30 4829 H 438.546 -1.99712 -1.5984 0
M  V30 4830 H 438.19 -3.78827 -3.38308 0
M  V30 4831 H 438.12 -2.51466 -4.6268 0
M  V30 4832 H 440.611 -2.14885 -3.10858 0
M  V30 4833 H 440.924 -4.89432 -5.98061 0
M  V30 4834 H 439.269 -4.39621 -5.38292 0
M  V30 4835 H 442.46 -2.73063 -3.80203 0
M  V30 4836 H 442.633 -3.9824 -5.11184 0
M  V30 4837 N 436.039 1.36541 -0.78704 0
M  V30 4838 C 437.286 1.99304 -0.358341 0
M  V30 4839 C 437.614 1.62467 1.06933 0
M  V30 4840 O 436.869 0.870019 1.75297 0
M  V30 4841 C 437.168 3.54343 -0.466485 0
M  V30 4842 C 436.834 4.10993 -1.85461 0
M  V30 4843 C 435.496 4.26177 -2.23443 0
M  V30 4844 C 437.848 4.41895 -2.76366 0
M  V30 4845 C 435.176 4.69573 -3.51736 0
M  V30 4846 C 437.528 4.86722 -4.04084 0
M  V30 4847 C 436.192 5.00112 -4.42091 0
M  V30 4848 H 435.462 0.729306 -0.131126 0
M  V30 4849 H 438.109 1.63068 -1.00404 0
M  V30 4850 H 436.414 3.90918 0.262719 0
M  V30 4851 H 438.111 4.00833 -0.115854 0
M  V30 4852 H 434.701 3.99612 -1.54946 0
M  V30 4853 H 438.885 4.29735 -2.48277 0
M  V30 4854 H 434.141 4.78127 -3.81057 0
M  V30 4855 H 438.315 5.09598 -4.7464 0
M  V30 4856 H 435.942 5.33498 -5.41557 0
M  V30 4857 N 437.518 0.538854 1.48102 0
M  V30 4858 C 438.743 0.0102694 2.07397 0
M  V30 4859 C 439.168 -1.26562 1.39153 0
M  V30 4860 O 438.526 -1.75357 0.460387 0
M  V30 4861 C 438.574 -0.187602 3.60112 0
M  V30 4862 O 437.678 -1.25432 3.92862 0
M  V30 4863 H 437.019 0.0430975 0.6626 0
M  V30 4864 H 439.549 0.749301 1.90385 0
M  V30 4865 H 439.559 -0.407517 4.0596 0
M  V30 4866 H 438.234 0.744386 4.09184 0
M  V30 4867 H 436.811 -1.01636 3.58782 0
M  V30 4868 N 438.996 -1.55193 0.274407 0
M  V30 4869 C 439.928 -2.1989 -0.646595 0
M  V30 4870 C 440.941 -1.1834 -1.11801 0
M  V30 4871 O 442.13 -1.4507 -1.04004 0
M  V30 4872 C 439.23 -2.8104 -1.89393 0
M  V30 4873 C 438.403 -4.08274 -1.56943 0
M  V30 4874 C 437.462 -4.53478 -2.66916 0
M  V30 4875 O 436.488 -5.19267 -2.33132 0
M  V30 4876 N 437.69 -4.2356 -3.9696 0
M  V30 4877 H 440.455 -2.99556 -0.0928686 0
M  V30 4878 H 438.016 -1.61618 0.0954783 0
M  V30 4879 H 440.008 -3.08226 -2.62257 0
M  V30 4880 H 438.578 -2.05372 -2.35672 0
M  V30 4881 H 437.798 -3.88384 -0.674655 0
M  V30 4882 H 439.086 -4.91173 -1.32764 0
M  V30 4883 H 438.484 -3.70799 -4.27229 0
M  V30 4884 H 437.041 -4.55518 -4.66205 0
M  V30 4885 N 440.474 -0.00167713 -1.576 0
M  V30 4886 C 441.384 1.00548 -2.1196 0
M  V30 4887 C 442.4 1.3758 -1.06526 0
M  V30 4888 O 443.576 1.46278 -1.38436 0
M  V30 4889 C 440.641 2.27809 -2.6135 0
M  V30 4890 C 439.702 1.97074 -3.81393 0
M  V30 4891 C 438.935 3.18267 -4.28417 0
M  V30 4892 O 439.158 4.30009 -3.74765 0
M  V30 4893 O 438.092 3.02167 -5.20556 0
M  V30 4894 H 441.918 0.573373 -2.98238 0
M  V30 4895 H 439.503 0.217255 -1.47812 0
M  V30 4896 H 441.385 3.02568 -2.93309 0
M  V30 4897 H 440.06 2.70254 -1.78169 0
M  V30 4898 H 438.967 1.19785 -3.54404 0
M  V30 4899 H 440.3 1.59464 -4.65652 0
M  V30 4900 N 441.952 1.55251 0.271103 0
M  V30 4901 C 442.882 1.9127 1.33933 0
M  V30 4902 C 443.863 0.77478 1.5143 0
M  V30 4903 O 445.048 1.03307 1.64442 0
M  V30 4904 C 442.178 2.18627 2.69851 0
M  V30 4905 C 441.132 3.34442 2.67081 0
M  V30 4906 C 440.458 3.47284 4.06569 0
M  V30 4907 C 441.758 4.70784 2.26185 0
M  V30 4908 H 443.452 2.80744 1.04035 0
M  V30 4909 H 440.998 1.35077 0.499017 0
M  V30 4910 H 442.951 2.42413 3.44694 0
M  V30 4911 H 441.675 1.25955 3.01335 0
M  V30 4912 H 440.334 3.10627 1.94695 0
M  V30 4913 H 439.982 2.52074 4.35279 0
M  V30 4914 H 439.682 4.25152 4.0561 0
M  V30 4915 H 441.206 3.73363 4.83148 0
M  V30 4916 H 442.62 4.94102 2.90751 0
M  V30 4917 H 441.017 5.51582 2.36384 0
M  V30 4918 H 442.087 4.69478 1.21319 0
M  V30 4919 N 443.43 -0.535701 1.48216 0
M  V30 4920 C 444.362 -1.65662 1.58394 0
M  V30 4921 C 445.375 -1.5591 0.468607 0
M  V30 4922 O 446.564 -1.62475 0.7392 0
M  V30 4923 C 443.664 -3.04276 1.4923 0
M  V30 4924 C 442.837 -3.39567 2.75705 0
M  V30 4925 C 441.896 -4.57436 2.60075 0
M  V30 4926 O 440.922 -4.60942 3.33948 0
M  V30 4927 N 442.124 -5.55259 1.69315 0
M  V30 4928 H 444.889 -1.5737 2.55058 0
M  V30 4929 H 442.45 -0.722845 1.44867 0
M  V30 4930 H 444.442 -3.80994 1.36477 0
M  V30 4931 H 443.012 -3.06677 0.605632 0
M  V30 4932 H 442.232 -2.52083 3.03064 0
M  V30 4933 H 443.52 -3.59929 3.59623 0
M  V30 4934 H 442.918 -5.552 1.08489 0
M  V30 4935 H 441.475 -6.31218 1.62504 0
M  V30 4936 N 444.908 -1.36708 -0.784132 0
M  V30 4937 C 445.838 -1.34153 -1.91116 0
M  V30 4938 C 446.819 -0.212121 -1.68772 0
M  V30 4939 O 448.004 -0.410581 -1.8981 0
M  V30 4940 C 445.134 -1.13535 -3.28218 0
M  V30 4941 C 444.088 -2.23356 -3.65097 0
M  V30 4942 C 443.414 -1.87875 -5.00607 0
M  V30 4943 C 444.714 -3.65473 -3.73131 0
M  V30 4944 H 446.408 -2.28459 -1.93512 0
M  V30 4945 H 443.954 -1.09973 -0.929618 0
M  V30 4946 H 445.907 -1.10381 -4.06687 0
M  V30 4947 H 444.631 -0.156804 -3.26223 0
M  V30 4948 H 443.29 -2.25645 -2.88929 0
M  V30 4949 H 442.938 -0.885814 -4.95139 0
M  V30 4950 H 442.638 -2.61406 -5.26252 0
M  V30 4951 H 444.162 -1.86286 -5.81489 0
M  V30 4952 H 445.576 -3.65382 -4.41779 0
M  V30 4953 H 443.973 -4.37953 -4.10265 0
M  V30 4954 H 445.043 -3.99995 -2.74102 0
M  V30 4955 N 446.386 1.0089 -1.21074 0
M  V30 4956 C 447.333 2.09588 -0.966512 0
M  V30 4957 C 448.303 1.65761 0.106089 0
M  V30 4958 O 449.488 1.90758 -0.0402287 0
M  V30 4959 C 446.628 3.40958 -0.533058 0
M  V30 4960 C 445.741 3.9822 -1.67467 0
M  V30 4961 C 444.876 5.17682 -1.19076 0
M  V30 4962 C 443.915 5.67043 -2.30496 0
M  V30 4963 N 443.052 6.77759 -1.83267 0
M  V30 4964 H 447.892 2.29815 -1.89708 0
M  V30 4965 H 445.429 1.12689 -0.945489 0
M  V30 4966 H 447.387 4.1637 -0.263019 0
M  V30 4967 H 446.017 3.20781 0.360505 0
M  V30 4968 H 445.069 3.1983 -2.05944 0
M  V30 4969 H 446.381 4.3085 -2.51336 0
M  V30 4970 H 445.535 6.00326 -0.877151 0
M  V30 4971 H 444.274 4.86635 -0.322066 0
M  V30 4972 H 443.279 4.82999 -2.62664 0
M  V30 4973 H 444.504 6.00121 -3.17855 0
M  V30 4974 H 442.45 6.48527 -0.987356 0
M  V30 4975 H 442.367 7.09624 -2.60711 0
M  V30 4976 H 443.635 7.63949 -1.54928 0
M  V30 4977 N 447.864 1.01787 1.20321 0
M  V30 4978 C 449.11 0.708985 1.90003 0
M  V30 4979 C 449.443 -0.759572 1.78729 0
M  V30 4980 O 448.718 -1.55198 1.17234 0
M  V30 4981 C 449.001 1.1469 3.41348 0
M  V30 4982 C 448.854 2.67586 3.61549 0
M  V30 4983 C 450.173 0.71915 4.34185 0
M  V30 4984 H 447.292 0.259034 0.689978 0
M  V30 4985 H 449.934 1.26584 1.41692 0
M  V30 4986 H 448.084 0.673128 3.82624 0
M  V30 4987 H 449.756 3.22826 3.29517 0
M  V30 4988 H 447.999 3.085 3.04976 0
M  V30 4989 H 448.67 2.93281 4.67643 0
M  V30 4990 H 451.146 1.12647 4.00562 0
M  V30 4991 H 450.022 1.05358 5.38694 0
M  V30 4992 H 450.283 -0.379111 4.40472 0
M  V30 4993 N 449.342 -1.36122 0.79427 0
M  V30 4994 C 450.274 -2.28683 0.153903 0
M  V30 4995 C 451.287 -1.49707 -0.639669 0
M  V30 4996 O 452.476 -1.7209 -0.474054 0
M  V30 4997 C 449.576 -3.29202 -0.804921 0
M  V30 4998 C 448.749 -4.37358 -0.060366 0
M  V30 4999 C 447.808 -5.17811 -0.935849 0
M  V30 5000 O 446.834 -5.67853 -0.391309 0
M  V30 5001 N 448.036 -5.34721 -2.25951 0
M  V30 5002 H 450.801 -2.84278 0.949008 0
M  V30 5003 H 448.362 -1.4834 0.648611 0
M  V30 5004 H 450.354 -3.79914 -1.39455 0
M  V30 5005 H 448.924 -2.74212 -1.50088 0
M  V30 5006 H 448.144 -3.87746 0.710382 0
M  V30 5007 H 449.432 -5.06777 0.45324 0
M  V30 5008 H 448.83 -4.95687 -2.72601 0
M  V30 5009 H 447.387 -5.88657 -2.79867 0
M  V30 5010 N 450.82 -0.546701 -1.47814 0
M  V30 5011 C 451.767 0.206854 -2.29871 0
M  V30 5012 C 452.737 0.918235 -1.38411 0
M  V30 5013 O 453.922 0.915991 -1.67375 0
M  V30 5014 C 451.062 1.23746 -3.22151 0
M  V30 5015 C 450.175 0.533216 -4.28697 0
M  V30 5016 C 449.31 1.5482 -5.08138 0
M  V30 5017 C 448.349 0.828347 -6.06469 0
M  V30 5018 N 447.486 1.78966 -6.78908 0
M  V30 5019 H 452.326 -0.499037 -2.93792 0
M  V30 5020 H 449.863 -0.25793 -1.44821 0
M  V30 5021 H 451.821 1.84746 -3.74065 0
M  V30 5022 H 450.451 1.91151 -2.60117 0
M  V30 5023 H 449.503 -0.191089 -3.7992 0
M  V30 5024 H 450.815 -0.0311987 -4.9879 0
M  V30 5025 H 449.969 2.23202 -5.6415 0
M  V30 5026 H 448.708 2.14652 -4.37922 0
M  V30 5027 H 447.713 0.130539 -5.49645 0
M  V30 5028 H 448.938 0.235907 -6.7869 0
M  V30 5029 H 446.884 2.37675 -6.1143 0
M  V30 5030 H 446.801 1.27712 -7.45135 0
M  V30 5031 H 448.069 2.46496 -7.395 0
M  V30 5032 N 452.299 1.55045 -0.282633 0
M  V30 5033 C 453.576 1.9179 0.384166 0
M  V30 5034 C 453.956 1.20778 1.73136 0
M  V30 5035 O 453.304 0.33719 2.25998 0
M  V30 5036 C 453.514 3.45149 0.517014 0
M  V30 5037 C 454.862 4.17064 0.796427 0
M  V30 5038 O 455.886 3.51084 0.601535 0
M  V30 5039 O 454.745 5.33837 1.16962 0
M  V30 5040 H 451.839 0.799483 0.211558 0
M  V30 5041 H 454.385 1.66474 -0.32934 0
M  V30 5042 H 453.157 3.88922 -0.430772 0
M  V30 5043 H 452.78 3.76443 1.2797 0
M  V30 5044 N 453.777 0.010035 1.57597 0
M  V30 5045 C 454.74 -0.963029 2.07986 0
M  V30 5046 C 455.74 -1.26619 0.991173 0
M  V30 5047 O 456.93 -1.2097 1.25347 0
M  V30 5048 C 454.062 -2.2851 2.52974 0
M  V30 5049 H 455.255 -0.526971 2.95234 0
M  V30 5050 H 452.808 -0.237639 1.54483 0
M  V30 5051 H 453.543 -2.76784 1.69 0
M  V30 5052 H 453.328 -2.07824 3.32493 0
M  V30 5053 H 454.818 -2.98294 2.9225 0
M  V30 5054 N 455.255 -1.55392 -0.262866 0
M  V30 5055 C 456.671 -1.47459 -0.610582 0
M  V30 5056 C 456.871 -0.697031 -1.8906 0
M  V30 5057 O 455.927 -0.219952 -2.5154 0
M  V30 5058 C 457.24 -2.91751 -0.728131 0
M  V30 5059 C 458.788 -3.02027 -0.821517 0
M  V30 5060 C 459.263 -4.47594 -0.97076 0
M  V30 5061 N 460.754 -4.51465 -1.03603 0
M  V30 5062 C 461.489 -5.61326 -1.17049 0
M  V30 5063 N 460.985 -6.81032 -1.2715 0
M  V30 5064 N 462.778 -5.49089 -1.20239 0
M  V30 5065 H 454.929 -2.04395 0.577632 0
M  V30 5066 H 457.192 -0.927287 0.197086 0
M  V30 5067 H 456.898 -3.51413 0.142132 0
M  V30 5068 H 456.772 -3.4134 -1.6052 0
M  V30 5069 H 459.159 -2.42456 -1.68224 0
M  V30 5070 H 459.24 -2.55674 0.0803688 0
M  V30 5071 H 458.884 -5.07771 -0.114655 0
M  V30 5072 H 458.814 -4.91613 -1.88745 0
M  V30 5073 H 461.305 -3.6524 -0.96996 0
M  V30 5074 H 461.618 -7.60511 -1.37271 0
M  V30 5075 H 459.963 -6.83824 -1.24136 0
M  V30 5076 H 463.154 -4.54507 -1.11985 0
M  V30 5077 H 463.327 -6.34749 -1.30373 0
M  V30 5078 N 456.733 0.527833 -1.48498 0
M  V30 5079 C 457.681 1.65313 -1.63628 0
M  V30 5080 C 458.675 1.6177 -0.502676 0
M  V30 5081 O 459.881 1.66601 -0.681469 0
M  V30 5082 H 456.256 0.547518 -0.515488 0
M  V30 5083 H 458.227 1.49696 -2.58135 0
M  V30 5084 C 456.976 3.03576 -1.6952 0
M  V30 5085 H 456.299 3.06997 -2.56111 0
M  V30 5086 H 457.739 3.81923 -1.84149 0
M  V30 5087 C 456.198 3.34089 -0.43432 0
M  V30 5088 O 456.728 3.99151 0.451852 0
M  V30 5089 N 454.934 2.88991 -0.305368 0
M  V30 5090 H 454.481 2.36222 -1.02747 0
M  V30 5091 H 454.439 3.09776 0.537249 0
M  V30 5092 N 458.211 1.37122 0.776871 0
M  V30 5093 C 459.457 1.32243 1.53752 0
M  V30 5094 C 459.79 -0.0944745 1.9397 0
M  V30 5095 O 459.065 -1.05068 1.6368 0
M  V30 5096 C 459.348 2.25681 2.80607 0
M  V30 5097 C 459.201 3.76127 2.46676 0
M  V30 5098 C 460.52 2.17657 3.82509 0
M  V30 5099 H 457.639 0.481704 0.557791 0
M  V30 5100 H 460.281 1.6778 0.891612 0
M  V30 5101 H 458.431 1.95505 3.35723 0
M  V30 5102 H 460.103 4.16877 1.97513 0
M  V30 5103 H 458.346 3.94946 1.79443 0
M  V30 5104 H 459.017 4.36933 3.37333 0
M  V30 5105 H 461.493 2.44245 3.36873 0
M  V30 5106 H 460.369 2.85185 4.69 0
M  V30 5107 H 460.63 1.16785 4.26396 0
M  V30 5108 N 459.689 -1.00246 1.21608 0
M  V30 5109 C 460.914 -1.78167 1.06167 0
M  V30 5110 C 461.339 -1.84138 -0.384035 0
M  V30 5111 O 460.697 -1.28683 -1.27712 0
M  V30 5112 C 460.745 -3.19786 1.66642 0
M  V30 5113 O 459.849 -4.02153 0.913613 0
M  V30 5114 H 459.19 -0.549 0.37349 0
M  V30 5115 H 461.72 -1.25994 1.61204 0
M  V30 5116 H 461.73 -3.70451 1.70969 0
M  V30 5117 H 460.405 -3.14754 2.7185 0
M  V30 5118 H 458.982 -3.60711 0.945635 0
M  V30 5119 N 461.167 -1.02423 -1.1978 0
M  V30 5120 C 462.097 -0.62157 -2.25075 0
M  V30 5121 C 463.078 0.367148 -1.6609 0
M  V30 5122 O 464.263 0.250892 -1.92573 0
M  V30 5123 C 461.393 0.0331826 -3.47284 0
M  V30 5124 C 460.347 -0.877323 -4.18912 0
M  V30 5125 C 459.673 -0.0879296 -5.34628 0
M  V30 5126 C 460.973 -2.18892 -4.74219 0
M  V30 5127 H 462.667 -1.50179 -2.59011 0
M  V30 5128 H 460.213 -0.723547 -1.24502 0
M  V30 5129 H 462.166 0.326488 -4.20133 0
M  V30 5130 H 460.89 0.948164 -3.12534 0
M  V30 5131 H 459.549 -1.15475 -3.47938 0
M  V30 5132 H 459.197 0.828941 -4.96123 0
M  V30 5133 H 458.897 -0.694359 -5.83483 0
M  V30 5134 H 460.421 0.198743 -6.10276 0
M  V30 5135 H 461.835 -1.95746 -5.38847 0
M  V30 5136 H 460.232 -2.74686 -5.33542 0
M  V30 5137 H 461.302 -2.84674 -3.92541 0
M  V30 5138 N 462.645 1.35699 -0.801477 0
M  V30 5139 C 463.87 2.03687 -0.390678 0
M  V30 5140 C 464.295 1.60015 0.988778 0
M  V30 5141 O 463.653 0.774357 1.63931 0
M  V30 5142 C 463.701 3.57439 -0.476404 0
M  V30 5143 O 462.805 4.09208 0.512106 0
M  V30 5144 H 462.146 0.64344 -0.163956 0
M  V30 5145 H 464.676 1.73403 -1.08594 0
M  V30 5146 H 464.686 4.06544 -0.344357 0
M  V30 5147 H 463.361 3.88576 -1.48262 0
M  V30 5148 H 461.938 3.7134 0.340721 0
M  V30 5149 N 464.123 0.554532 1.47522 0
M  V30 5150 C 465.07 -0.19466 2.29978 0
M  V30 5151 C 466.04 -0.910882 1.38896 0
M  V30 5152 O 467.225 -0.907102 1.67858 0
M  V30 5153 C 464.365 -1.22035 3.22802 0
M  V30 5154 C 463.478 -0.510474 4.28973 0
M  V30 5155 C 462.613 -1.52123 5.08952 0
M  V30 5156 C 461.652 -0.796173 6.069 0
M  V30 5157 N 460.789 -1.75363 6.79847 0
M  V30 5158 H 465.629 0.51461 2.93523 0
M  V30 5159 H 463.166 0.265607 1.44682 0
M  V30 5160 H 465.124 -1.8276 3.7504 0
M  V30 5161 H 463.754 -1.89769 2.61127 0
M  V30 5162 H 462.806 0.211234 3.79813 0
M  V30 5163 H 464.118 0.0576503 4.98767 0
M  V30 5164 H 463.272 -2.20207 5.65326 0
M  V30 5165 H 462.011 -2.12327 4.39054 0
M  V30 5166 H 461.016 -0.101388 5.49707 0
M  V30 5167 H 462.241 -0.199911 6.78806 0
M  V30 5168 H 460.187 -2.3443 6.12682 0
M  V30 5169 H 460.104 -1.23759 7.45801 0
M  V30 5170 H 461.372 -2.4257 7.40797 0
M  V30 5171 N 465.601 -1.54893 0.290851 0
M  V30 5172 C 466.548 -2.23138 -0.58974 0
M  V30 5173 C 467.518 -1.21036 -1.13752 0
M  V30 5174 O 468.703 -1.49626 -1.18392 0
M  V30 5175 C 465.843 -2.96811 -1.76061 0
M  V30 5176 C 464.956 -4.13665 -1.24519 0
M  V30 5177 C 464.091 -4.74944 -2.3791 0
M  V30 5178 C 463.13 -5.83963 -1.83451 0
M  V30 5179 N 462.267 -6.39239 -2.90376 0
M  V30 5180 H 467.107 -2.98 -0.00114915 0
M  V30 5181 H 464.644 -1.47096 0.0112006 0
M  V30 5182 H 466.602 -3.37751 -2.44909 0
M  V30 5183 H 465.232 -2.24344 -2.32098 0
M  V30 5184 H 464.284 -3.77737 -0.449288 0
M  V30 5185 H 465.596 -4.92238 -0.806424 0
M  V30 5186 H 464.75 -5.18684 -3.14724 0
M  V30 5187 H 463.489 -3.95682 -2.85109 0
M  V30 5188 H 462.494 -5.39657 -1.05122 0
M  V30 5189 H 463.719 -6.65103 -1.37169 0
M  V30 5190 H 461.665 -5.62864 -3.36927 0
M  V30 5191 H 461.582 -7.13129 -2.50965 0
M  V30 5192 H 462.85 -6.87637 -3.67118 0
M  V30 5193 N 467.08 -0.0183926 -1.57589 0
M  V30 5194 C 468.305 0.676634 -1.96052 0
M  V30 5195 C 468.73 1.6548 -0.894307 0
M  V30 5196 O 468.088 1.80712 0.145849 0
M  V30 5197 C 468.136 1.36872 -3.33614 0
M  V30 5198 O 467.24 2.48372 -3.29219 0
M  V30 5199 H 466.581 0.1786 -0.63953 0
M  V30 5200 H 469.111 -0.077056 -2.04455 0
M  V30 5201 H 469.121 1.72797 -3.69601 0
M  V30 5202 H 467.796 0.651636 -4.10763 0
M  V30 5203 H 466.373 2.14639 -3.04934 0
M  V30 5204 N 468.558 1.5553 0.254621 0
M  V30 5205 C 469.49 1.86104 1.33783 0
M  V30 5206 C 470.503 0.746752 1.44663 0
M  V30 5207 O 471.692 1.0248 1.46151 0
M  V30 5208 C 468.792 2.02532 2.71724 0
M  V30 5209 C 467.965 3.33335 2.83208 0
M  V30 5210 C 467.024 3.396 4.01943 0
M  V30 5211 O 466.05 4.12862 3.91834 0
M  V30 5212 N 467.252 2.68332 5.1476 0
M  V30 5213 H 470.017 2.79605 1.07893 0
M  V30 5214 H 467.578 1.55672 0.444732 0
M  V30 5215 H 469.57 2.04074 3.4948 0
M  V30 5216 H 468.14 1.15811 2.90356 0
M  V30 5217 H 467.36 3.44176 1.92189 0
M  V30 5218 H 468.648 4.19565 2.87824 0
M  V30 5219 H 468.046 2.08528 5.25864 0
M  V30 5220 H 466.603 2.75575 5.90679 0
M  V30 5221 N 470.036 -0.519951 1.48776 0
M  V30 5222 C 470.984 -1.64443 1.64503 0
M  V30 5223 C 471.978 -1.61501 0.511248 0
M  V30 5224 O 473.184 -1.66238 0.690294 0
M  V30 5225 H 469.559 -0.544776 0.518385 0
M  V30 5226 H 471.53 -1.48325 2.58925 0
M  V30 5227 C 470.279 -3.02673 1.71127 0
M  V30 5228 H 469.602 -3.05635 2.57735 0
M  V30 5229 H 471.042 -3.80941 1.86172 0
M  V30 5230 C 469.501 -3.33854 0.452032 0
M  V30 5231 O 470.031 -3.99385 -0.430678 0
M  V30 5232 N 468.237 -2.88825 0.32069 0
M  V30 5233 H 467.784 -2.35674 1.03998 0
M  V30 5234 H 467.742 -3.10056 -0.520814 0
M  V30 5235 N 471.514 -1.37532 -0.769588 0
M  V30 5236 C 472.93 -1.18379 -1.07045 0
M  V30 5237 C 473.13 -0.0214312 -2.01489 0
M  V30 5238 O 472.186 0.637809 -2.44312 0
M  V30 5239 C 473.499 -2.50338 -1.66588 0
M  V30 5240 C 475.047 -2.56879 -1.78835 0
M  V30 5241 C 475.522 -3.88974 -2.41792 0
M  V30 5242 N 477.013 -3.90428 -2.4924 0
M  V30 5243 C 477.748 -4.89388 -2.98809 0
M  V30 5244 N 477.244 -5.98745 -3.48535 0
M  V30 5245 N 479.037 -4.76791 -2.97703 0
M  V30 5246 H 471.188 -2.11921 -0.142541 0
M  V30 5247 H 473.451 -0.939608 -0.125863 0
M  V30 5248 H 473.157 -3.35767 -1.0466 0
M  V30 5249 H 473.031 -2.67583 -2.65856 0
M  V30 5250 H 475.418 -1.71856 -2.39895 0
M  V30 5251 H 475.499 -2.43516 -0.783166 0
M  V30 5252 H 475.143 -4.74412 -1.81371 0
M  V30 5253 H 475.073 -3.99641 -3.4292 0
M  V30 5254 H 477.564 -3.11433 -2.14052 0
M  V30 5255 H 477.877 -6.70205 -3.84767 0
M  V30 5256 H 476.222 -6.02387 -3.46634 0
M  V30 5257 H 479.413 -3.90478 -2.58157 0
M  V30 5258 H 479.586 -5.54069 -3.36024 0
M  V30 5259 N 472.992 0.995999 -1.22138 0
M  V30 5260 C 473.939 2.08551 -0.988687 0
M  V30 5261 C 474.909 1.65864 0.0885021 0
M  V30 5262 O 476.094 1.90704 -0.0604589 0
M  V30 5263 C 473.234 3.40374 -0.569191 0
M  V30 5264 C 472.347 3.96421 -1.71681 0
M  V30 5265 C 471.482 5.1639 -1.2456 0
M  V30 5266 C 470.521 5.64567 -2.36497 0
M  V30 5267 N 469.658 6.75777 -1.90445 0
M  V30 5268 H 474.498 2.2779 -1.92135 0
M  V30 5269 H 472.035 1.1168 -0.957388 0
M  V30 5270 H 473.993 4.16068 -0.307166 0
M  V30 5271 H 472.623 3.21145 0.326462 0
M  V30 5272 H 471.675 3.17628 -2.09324 0
M  V30 5273 H 472.987 4.2816 -2.55891 0
M  V30 5274 H 472.141 5.99362 -0.940774 0
M  V30 5275 H 470.88 4.86266 -0.373662 0
M  V30 5276 H 469.885 4.80185 -2.67772 0
M  V30 5277 H 471.11 5.96716 -3.24202 0
M  V30 5278 H 469.056 6.47443 -1.05609 0
M  V30 5279 H 468.973 7.06818 -2.68223 0
M  V30 5280 H 470.241 7.62262 -1.63022 0
M  V30 5281 N 474.47 1.03057 1.19235 0
M  V30 5282 C 475.417 0.612832 2.22515 0
M  V30 5283 C 476.387 -0.374224 1.61829 0
M  V30 5284 O 477.572 -0.270501 1.88873 0
M  V30 5285 C 474.712 -0.028475 3.45088 0
M  V30 5286 C 473.825 1.00483 4.20151 0
M  V30 5287 C 472.96 0.333102 5.30155 0
M  V30 5288 C 471.999 1.3522 5.96977 0
M  V30 5289 N 471.136 0.70616 6.9854 0
M  V30 5290 H 475.976 1.49812 2.57605 0
M  V30 5291 H 473.513 0.749658 1.26564 0
M  V30 5292 H 475.471 -0.417548 4.15105 0
M  V30 5293 H 474.101 -0.877334 3.10649 0
M  V30 5294 H 473.153 1.51194 3.49062 0
M  V30 5295 H 474.465 1.77929 4.65986 0
M  V30 5296 H 473.619 -0.110725 6.06599 0
M  V30 5297 H 472.358 -0.473547 4.85396 0
M  V30 5298 H 471.363 1.80627 5.19282 0
M  V30 5299 H 472.588 2.16037 6.4382 0
M  V30 5300 H 470.534 -0.0803667 6.55951 0
M  V30 5301 H 470.451 1.41848 7.42573 0
M  V30 5302 H 471.719 0.286391 7.78974 0
M  V30 5303 N 475.948 -1.35272 0.808662 0
M  V30 5304 C 476.858 -2.33546 0.222079 0
M  V30 5305 C 477.874 -1.6196 -0.636011 0
M  V30 5306 O 479.05 -1.93822 -0.547274 0
M  V30 5307 C 476.115 -3.41148 -0.61795 0
M  V30 5308 C 475.176 -4.28507 0.260875 0
M  V30 5309 C 474.409 -5.3097 -0.539156 0
M  V30 5310 O 474.632 -5.42123 -1.77367 0
M  V30 5311 O 473.566 -6.01858 0.0710526 0
M  V30 5312 H 477.392 -2.85515 1.03512 0
M  V30 5313 H 474.977 -1.38079 0.570495 0
M  V30 5314 H 476.859 -4.06889 -1.09634 0
M  V30 5315 H 475.534 -2.91447 -1.40855 0
M  V30 5316 H 474.441 -3.6574 0.786451 0
M  V30 5317 H 475.774 -4.81611 1.01547 0
M  V30 5318 N 477.426 -0.562348 -1.47226 0
M  V30 5319 C 478.373 0.182461 -2.30078 0
M  V30 5320 C 479.343 0.903503 -1.39377 0
M  V30 5321 O 480.528 0.898188 -1.68337 0
M  V30 5322 C 477.668 1.20322 -3.23445 0
M  V30 5323 C 476.781 0.487717 -4.29238 0
M  V30 5324 C 475.916 1.49422 -5.09752 0
M  V30 5325 C 474.955 0.763976 -6.07314 0
M  V30 5326 N 474.092 1.71755 -6.80768 0
M  V30 5327 H 478.932 -0.530169 -2.93246 0
M  V30 5328 H 476.469 -0.273276 -1.44539 0
M  V30 5329 H 478.427 1.80768 -3.76004 0
M  V30 5330 H 477.057 1.88382 -2.6213 0
M  V30 5331 H 476.109 -0.231374 -3.79696 0
M  V30 5332 H 477.421 -0.0841003 -4.98729 0
M  V30 5333 H 476.575 2.17206 -5.66486 0
M  V30 5334 H 475.314 2.09995 -4.40174 0
M  V30 5335 H 474.319 0.0722344 -5.49753 0
M  V30 5336 H 475.544 0.16391 -6.78902 0
M  V30 5337 H 473.49 2.31177 -6.13916 0
M  V30 5338 H 473.407 1.19802 -7.46447 0
M  V30 5339 H 474.675 2.38638 -7.42073 0
M  V30 5340 N 478.904 1.54736 -0.299062 0
M  V30 5341 C 479.814 2.27127 0.587413 0
M  V30 5342 C 480.83 1.30575 1.15005 0
M  V30 5343 O 482.006 1.63554 1.17525 0
M  V30 5344 C 479.071 2.99645 1.74395 0
M  V30 5345 C 478.132 4.11731 1.21559 0
M  V30 5346 C 477.365 4.80781 2.317 0
M  V30 5347 O 477.588 4.4918 3.51558 0
M  V30 5348 O 476.522 5.68226 1.98501 0
M  V30 5349 H 480.348 3.037 0.000250109 0
M  V30 5350 H 477.933 1.49256 -0.0655919 0
M  V30 5351 H 479.815 3.45138 2.4178 0
M  V30 5352 H 478.49 2.25969 2.31775 0
M  V30 5353 H 477.397 3.70641 0.507514 0
M  V30 5354 H 478.73 4.87379 0.687233 0
M  V30 5355 N 480.382 0.0267497 1.57577 0
M  V30 5356 C 481.329 -0.955894 2.10075 0
M  V30 5357 C 482.299 -1.32453 1.00226 0
M  V30 5358 O 483.484 -1.41826 1.27632 0
M  V30 5359 C 480.624 -2.2338 2.6305 0
M  V30 5360 C 479.737 -1.92183 3.86898 0
M  V30 5361 C 478.872 -3.14251 4.28275 0
M  V30 5362 C 477.911 -2.78862 5.44888 0
M  V30 5363 N 477.048 -3.93548 5.81433 0
M  V30 5364 H 481.888 -0.501303 2.93753 0
M  V30 5365 H 479.425 -0.235847 1.45197 0
M  V30 5366 H 481.383 -2.98124 2.91853 0
M  V30 5367 H 480.013 -2.6646 1.82205 0
M  V30 5368 H 479.065 -1.07692 3.64838 0
M  V30 5369 H 480.377 -1.62117 4.7172 0
M  V30 5370 H 479.531 -3.97317 4.58502 0
M  V30 5371 H 478.27 -3.47476 3.42215 0
M  V30 5372 H 477.275 -1.94208 5.14357 0
M  V30 5373 H 478.5 -2.46855 6.32645 0
M  V30 5374 H 476.446 -4.2662 4.98328 0
M  V30 5375 H 476.363 -3.67098 6.6089 0
M  V30 5376 H 477.631 -4.77325 6.16264 0
M  V30 5377 N 481.861 -1.55662 -0.24637 0
M  V30 5378 C 483.138 -1.68272 -0.997198 0
M  V30 5379 C 483.518 -0.566785 -2.03349 0
M  V30 5380 O 482.866 0.429688 -2.24424 0
M  V30 5381 C 483.076 -3.08594 -1.63006 0
M  V30 5382 C 484.424 -3.6721 -2.13171 0
M  V30 5383 O 485.448 -3.11397 -1.72946 0
M  V30 5384 O 484.307 -4.65054 -2.87031 0
M  V30 5385 H 481.401 -0.684429 -0.464205 0
M  V30 5386 H 483.947 -1.67993 -0.240114 0
M  V30 5387 H 482.719 -3.81264 -0.880527 0
M  V30 5388 H 482.342 -3.12886 -2.45333 0
M  V30 5389 N 483.339 0.512053 -1.4905 0
M  V30 5390 C 484.616 1.27337 -1.48474 0
M  V30 5391 C 484.996 2.1009 -0.206301 0
M  V30 5392 O 484.344 2.136 0.811609 0
M  V30 5393 C 484.554 2.13954 -2.75726 0
M  V30 5394 C 485.902 2.73507 -3.24776 0
M  V30 5395 O 486.926 2.24229 -2.76767 0
M  V30 5396 O 485.785 3.63186 -4.08361 0
M  V30 5397 H 482.879 0.575652 -0.593762 0
M  V30 5398 H 485.425 0.527232 -1.61302 0
M  V30 5399 H 484.197 1.52709 -3.60272 0
M  V30 5400 H 483.82 2.95782 -2.65705 0
M  V30 5401 N 484.817 1.37938 0.762283 0
M  V30 5402 C 486.042 1.37059 1.55659 0
M  V30 5403 C 486.467 -0.0396123 1.88058 0
M  V30 5404 O 485.825 -1.01929 1.49934 0
M  V30 5405 C 485.873 2.22494 2.83776 0
M  V30 5406 O 484.977 1.63607 3.78559 0
M  V30 5407 H 484.318 0.467892 0.47114 0
M  V30 5408 H 486.848 1.81587 0.942725 0
M  V30 5409 H 486.858 2.36045 3.32786 0
M  V30 5410 H 485.533 3.24993 2.59524 0
M  V30 5411 H 484.11 1.5915 3.37233 0
M  V30 5412 N 486.295 -0.989507 1.22664 0
M  V30 5413 C 487.225 -2.09847 1.02404 0
M  V30 5414 C 488.206 -1.70007 -0.0561303 0
M  V30 5415 O 489.391 -1.93906 0.106748 0
M  V30 5416 C 486.521 -3.41996 0.604663 0
M  V30 5417 C 485.475 -3.95699 1.63115 0
M  V30 5418 C 484.801 -5.23936 1.0675 0
M  V30 5419 C 486.101 -4.25999 3.02196 0
M  V30 5420 H 487.795 -2.27054 1.95158 0
M  V30 5421 H 485.341 -1.09111 0.939727 0
M  V30 5422 H 487.294 -4.1899 0.45002 0
M  V30 5423 H 486.018 -3.24626 -0.35855 0
M  V30 5424 H 484.677 -3.2084 1.77362 0
M  V30 5425 H 484.325 -5.02909 0.0955422 0
M  V30 5426 H 484.025 -5.60833 1.75328 0
M  V30 5427 H 485.549 -6.0356 0.924516 0
M  V30 5428 H 486.963 -4.93777 2.91303 0
M  V30 5429 H 485.36 -4.74076 3.67929 0
M  V30 5430 H 486.43 -3.33636 3.51873 0
M  V30 5431 N 487.773 -1.03688 -1.18687 0
M  V30 5432 C 489.019 -0.739123 -1.88851 0
M  V30 5433 C 489.352 0.731042 -1.79915 0
M  V30 5434 O 488.627 1.53313 -1.19688 0
M  V30 5435 C 488.91 -1.20106 -3.3948 0
M  V30 5436 C 488.763 -2.73304 -3.57246 0
M  V30 5437 C 490.082 -0.788134 -4.32986 0
M  V30 5438 H 487.201 -0.269978 -0.68577 0
M  V30 5439 H 489.843 -1.28822 -1.3966 0
M  V30 5440 H 487.993 -0.733915 -3.81505 0
M  V30 5441 H 489.665 -3.28027 -3.24339 0
M  V30 5442 H 487.908 -3.13313 -3.00029 0
M  V30 5443 H 488.579 -3.00684 -4.62918 0
M  V30 5444 H 491.055 -1.19005 -3.98719 0
M  V30 5445 H 489.931 -1.13915 -5.36949 0
M  V30 5446 H 490.192 0.308988 -4.41019 0
M  V30 5447 N 489.251 1.34841 -0.815825 0
M  V30 5448 C 490.161 2.33425 -0.234462 0
M  V30 5449 C 491.177 1.62295 0.627413 0
M  V30 5450 O 492.353 1.94109 0.536987 0
M  V30 5451 C 489.418 3.41471 0.599849 0
M  V30 5452 C 488.479 4.28362 -0.283596 0
M  V30 5453 C 487.712 5.31248 0.51099 0
M  V30 5454 O 487.935 5.43056 1.7449 0
M  V30 5455 O 486.869 6.01812 -0.10297 0
M  V30 5456 H 490.695 2.84962 -1.05024 0
M  V30 5457 H 488.28 1.37774 -0.577809 0
M  V30 5458 H 490.162 4.07464 1.07475 0
M  V30 5459 H 488.837 2.9219 1.39308 0
M  V30 5460 H 487.744 3.65318 -0.805836 0
M  V30 5461 H 489.077 4.81066 -1.041 0
M  V30 5462 N 490.729 0.570148 1.46925 0
M  V30 5463 C 491.639 -0.173061 2.33961 0
M  V30 5464 C 492.655 -0.898825 1.48987 0
M  V30 5465 O 493.831 -0.864825 1.81887 0
M  V30 5466 C 490.896 -1.18177 3.25937 0
M  V30 5467 C 489.957 -0.462041 4.26806 0
M  V30 5468 C 489.19 -1.4227 5.14388 0
M  V30 5469 O 489.413 -2.65842 5.04662 0
M  V30 5470 O 488.347 -0.940127 5.94513 0
M  V30 5471 H 492.173 0.541216 2.98839 0
M  V30 5472 H 489.758 0.330647 1.45695 0
M  V30 5473 H 491.64 -1.76372 3.82715 0
M  V30 5474 H 490.315 -1.87774 2.63671 0
M  V30 5475 H 489.222 0.161429 3.73752 0
M  V30 5476 H 490.555 0.192719 4.91823 0
M  V30 5477 N 492.207 -1.54576 0.307264 0
M  V30 5478 C 493.623 -1.59534 -0.0459251 0
M  V30 5479 C 493.823 -1.32414 -1.51884 0
M  V30 5480 O 492.879 -1.1006 -2.27251 0
M  V30 5481 C 494.192 -2.98566 0.357649 0
M  V30 5482 C 495.74 -3.11491 0.306937 0
M  V30 5483 C 496.215 -4.52842 0.685427 0
M  V30 5484 N 497.706 -4.58782 0.638203 0
M  V30 5485 C 498.441 -5.66238 0.903458 0
M  V30 5486 N 497.937 -6.81703 1.23501 0
M  V30 5487 N 499.73 -5.55937 0.830102 0
M  V30 5488 H 491.881 -1.70464 1.26712 0
M  V30 5489 H 494.144 -0.79647 0.514139 0
M  V30 5490 H 493.85 -3.23356 1.38325 0
M  V30 5491 H 493.724 -3.76117 -0.285565 0
M  V30 5492 H 496.111 -2.86446 -0.709424 0
M  V30 5493 H 496.192 -2.36081 0.984861 0
M  V30 5494 H 495.836 -4.78618 1.69963 0
M  V30 5495 H 495.766 -5.26598 -0.0146346 0
M  V30 5496 H 498.257 -3.75849 0.393138 0
M  V30 5497 H 498.57 -7.59582 1.42322 0
M  V30 5498 H 496.915 -6.8324 1.27311 0
M  V30 5499 H 500.106 -4.64608 0.570693 0
M  V30 5500 H 500.279 -6.39597 1.04019 0
M  V30 5501 N 493.685 -0.035106 -1.57561 0
M  V30 5502 C 494.632 0.94474 -2.10578 0
M  V30 5503 C 495.602 1.3192 -1.00927 0
M  V30 5504 O 496.787 1.41147 -1.28382 0
M  V30 5505 C 493.927 2.21982 -2.64231 0
M  V30 5506 C 493.04 1.90128 -3.87911 0
M  V30 5507 C 492.175 3.11975 -4.29936 0
M  V30 5508 C 491.214 2.75968 -5.46359 0
M  V30 5509 N 490.351 3.90459 -5.83512 0
M  V30 5510 H 495.191 0.485717 -2.94015 0
M  V30 5511 H 492.728 0.228143 -1.4532 0
M  V30 5512 H 494.686 2.96572 -2.9343 0
M  V30 5513 H 493.316 2.6549 -1.83616 0
M  V30 5514 H 492.368 1.05755 -3.65404 0
M  V30 5515 H 493.68 1.59613 -4.72573 0
M  V30 5516 H 492.834 3.9488 -4.60603 0
M  V30 5517 H 491.573 3.45657 -3.44053 0
M  V30 5518 H 490.578 1.91478 -5.1538 0
M  V30 5519 H 491.803 2.43497 -6.33945 0
M  V30 5520 H 489.749 4.23971 -5.00584 0
M  V30 5521 H 489.666 3.63588 -6.62827 0
M  V30 5522 H 490.934 4.7405 -6.18787 0
M  V30 5523 N 495.163 1.55791 0.238111 0
M  V30 5524 C 496.391 1.82098 0.982233 0
M  V30 5525 C 496.806 0.612025 1.78605 0
M  V30 5526 O 496.163 -0.419381 1.77616 0
M  V30 5527 C 496.214 3.0673 1.91309 0
M  V30 5528 O 495.935 4.2296 1.14179 0
M  V30 5529 C 497.436 3.45903 2.77248 0
M  V30 5530 H 494.656 0.605748 0.288635 0
M  V30 5531 H 497.2 2.02862 0.258341 0
M  V30 5532 H 495.355 2.87991 2.59114 0
M  V30 5533 H 495.769 4.93653 1.7722 0
M  V30 5534 H 497.243 4.36189 3.38295 0
M  V30 5535 H 497.72 2.66891 3.48806 0
M  V30 5536 H 498.326 3.67024 2.14881 0
M  V30 5537 N 496.642 -0.504142 1.49319 0
M  V30 5538 C 497.572 -1.61473 1.68667 0
M  V30 5539 C 498.553 -1.61455 0.535378 0
M  V30 5540 O 499.738 -1.78245 0.770868 0
M  V30 5541 C 496.868 -2.99971 1.75028 0
M  V30 5542 C 495.822 -3.14854 2.89916 0
M  V30 5543 C 495.148 -4.54671 2.81387 0
M  V30 5544 C 496.448 -2.95176 4.30893 0
M  V30 5545 H 498.142 -1.45535 2.61648 0
M  V30 5546 H 495.688 -0.698711 1.25913 0
M  V30 5547 H 497.641 -3.77562 1.8715 0
M  V30 5548 H 496.365 -3.1699 0.786441 0
M  V30 5549 H 495.024 -2.39687 2.77391 0
M  V30 5550 H 494.672 -4.68562 1.82917 0
M  V30 5551 H 494.372 -4.6557 3.58494 0
M  V30 5552 H 495.896 -5.34327 2.95512 0
M  V30 5553 H 497.31 -3.62538 4.44116 0
M  V30 5554 H 495.707 -3.17549 5.09198 0
M  V30 5555 H 496.777 -1.91332 4.45556 0
M  V30 5556 N 498.12 -1.38341 -0.754957 0
M  V30 5557 C 499.366 -1.34672 -1.51628 0
M  V30 5558 C 499.699 0.0636036 -1.94096 0
M  V30 5559 O 498.974 1.0245 -1.6533 0
M  V30 5560 C 499.257 -2.30116 -2.76981 0
M  V30 5561 C 499.11 -3.80003 -2.4066 0
M  V30 5562 C 500.429 -2.23715 -3.78998 0
M  V30 5563 H 497.548 -0.490517 -0.550056 0
M  V30 5564 H 500.19 -1.69178 -0.864807 0
M  V30 5565 H 498.34 -2.00821 -3.3257 0
M  V30 5566 H 500.012 -4.19966 -1.90856 0
M  V30 5567 H 498.255 -3.97751 -1.73137 0
M  V30 5568 H 498.926 -4.42244 -3.30339 0
M  V30 5569 H 501.402 -2.49574 -3.32945 0
M  V30 5570 H 500.278 -2.9261 -4.64403 0
M  V30 5571 H 500.539 -1.23554 -4.24484 0
M  V30 5572 N 499.598 0.982988 -1.23187 0
M  V30 5573 C 500.844 1.72648 -1.06398 0
M  V30 5574 C 501.177 1.90066 0.398561 0
M  V30 5575 O 500.452 1.45105 1.29518 0
M  V30 5576 C 500.735 3.12627 -1.78707 0
M  V30 5577 C 500.588 3.02795 -3.32618 0
M  V30 5578 C 501.907 4.11997 -1.54747 0
M  V30 5579 H 499.026 0.626649 -0.387918 0
M  V30 5580 H 501.668 1.14455 -1.51658 0
M  V30 5581 H 499.818 3.62308 -1.40234 0
M  V30 5582 H 501.49 2.60659 -3.80598 0
M  V30 5583 H 499.733 2.39362 -3.61785 0
M  V30 5584 H 500.404 4.01893 -3.78399 0
M  V30 5585 H 502.88 3.71114 -1.88186 0
M  V30 5586 H 501.756 5.08037 -2.07821 0
M  V30 5587 H 502.017 4.39462 -0.482249 0
M  V30 5588 N 501.076 1.04316 1.18135 0
M  V30 5589 C 502.008 0.594444 2.21357 0
M  V30 5590 C 503.021 -0.337215 1.59269 0
M  V30 5591 O 504.21 -0.131337 1.78016 0
M  V30 5592 C 501.31 -0.151251 3.38562 0
M  V30 5593 C 500.483 0.788907 4.30227 0
M  V30 5594 C 499.542 0.0860572 5.2613 0
M  V30 5595 O 498.568 0.717302 5.64662 0
M  V30 5596 N 499.77 -1.17969 5.68387 0
M  V30 5597 H 502.535 1.48227 2.60478 0
M  V30 5598 H 500.096 0.92396 1.32946 0
M  V30 5599 H 502.088 -0.631352 3.99745 0
M  V30 5600 H 500.658 -0.940639 2.98112 0
M  V30 5601 H 499.878 1.44882 3.6661 0
M  V30 5602 H 501.166 1.42738 4.88368 0
M  V30 5603 H 500.564 -1.71302 5.3914 0
M  V30 5604 H 499.121 -1.60402 6.31755 0
M  V30 5605 N 502.554 -1.34406 0.822964 0
M  V30 5606 C 503.831 -1.92733 0.333641 0
M  V30 5607 C 504.211 -1.75107 -1.17901 0
M  V30 5608 O 503.559 -1.12983 -1.98613 0
M  V30 5609 C 503.769 -3.40557 0.763023 0
M  V30 5610 C 505.117 -4.17709 0.761879 0
M  V30 5611 O 506.141 -3.49141 0.705606 0
M  V30 5612 O 505 -5.40082 0.835109 0
M  V30 5613 H 502.094 -0.821964 0.0911249 0
M  V30 5614 H 504.64 -1.4338 0.907757 0
M  V30 5615 H 503.412 -3.47187 1.8049 0
M  V30 5616 H 503.035 -3.97259 0.164605 0
M  V30 5617 N 504.032 -0.577932 -1.46621 0
M  V30 5618 C 505.26 -0.0671642 -2.06791 0
M  V30 5619 C 505.675 1.23571 -1.42743 0
M  V30 5620 O 505.032 1.74602 -0.531062 0
M  V30 5621 C 505.083 0.110357 -3.61332 0
M  V30 5622 O 504.804 -1.14095 -4.22982 0
M  V30 5623 C 506.305 0.656025 -4.38419 0
M  V30 5624 H 503.525 -0.0552732 -0.66872 0
M  V30 5625 H 506.069 -0.797242 -1.8832 0
M  V30 5626 H 504.224 0.790637 -3.79246 0
M  V30 5627 H 504.638 -0.951742 -5.15793 0
M  V30 5628 H 506.112 0.729438 -5.47159 0
M  V30 5629 H 506.589 1.67195 -4.06131 0
M  V30 5630 H 507.195 0.0107692 -4.25299 0
M  V30 5631 N 505.51 1.54411 -0.315457 0
M  V30 5632 C 506.458 2.25514 0.569771 0
M  V30 5633 C 507.452 1.2663 1.12522 0
M  V30 5634 O 508.658 1.44434 1.07419 0
M  V30 5635 H 505.033 0.724257 0.202376 0
M  V30 5636 H 507.004 2.98354 -0.0522895 0
M  V30 5637 C 505.753 3.02004 1.72305 0
M  V30 5638 H 505.076 3.77906 1.30488 0
M  V30 5639 H 506.516 3.55014 2.31821 0
M  V30 5640 C 504.975 2.09822 2.63583 0
M  V30 5641 O 505.505 1.67574 3.65078 0
M  V30 5642 N 503.711 1.75478 2.31637 0
M  V30 5643 H 503.258 2.10032 1.49145 0
M  V30 5644 H 503.216 1.14079 2.92973 0
M  V30 5645 N 506.988 0.0434614 1.5754 0
M  V30 5646 C 507.951 -0.918696 2.09982 0
M  V30 5647 C 508.951 -1.24488 1.01781 0
M  V30 5648 O 510.141 -1.18284 1.27885 0
M  V30 5649 C 507.273 -2.23093 2.57764 0
M  V30 5650 H 508.466 -0.464229 2.96285 0
M  V30 5651 H 506.019 -0.204818 1.54952 0
M  V30 5652 H 506.754 -2.73137 1.74832 0
M  V30 5653 H 506.539 -2.00724 3.36827 0
M  V30 5654 H 508.029 -2.92028 2.98512 0
M  V30 5655 N 508.466 -1.55915 -0.229846 0
M  V30 5656 C 509.743 -1.6932 -0.979295 0
M  V30 5657 C 510.123 -0.588321 -2.02736 0
M  V30 5658 O 509.471 0.40586 -2.24867 0
M  V30 5659 C 509.681 -3.10305 -1.59724 0
M  V30 5660 C 511.029 -3.6945 -2.09264 0
M  V30 5661 O 512.053 -3.13214 -1.69633 0
M  V30 5662 O 510.912 -4.68072 -2.82082 0
M  V30 5663 H 508.006 -0.689314 -0.456919 0
M  V30 5664 H 510.552 -1.68238 -0.222283 0
M  V30 5665 H 509.324 -3.82177 -0.840039 0
M  V30 5666 H 508.947 -3.1547 -2.42001 0
M  V30 5667 N 509.944 0.496216 -1.49584 0
M  V30 5668 C 511.355 1.07765 -1.52459 0
M  V30 5669 C 511.706 1.93679 -0.31353 0
M  V30 5670 O 510.831 2.08588 0.576186 0
M  V30 5671 C 511.426 1.96111 -2.76271 0
M  V30 5672 C 509.985 2.49409 -2.81908 0
M  V30 5673 C 509.132 1.27142 -2.46435 0
M  V30 5674 H 512.083 0.279914 -1.56212 0
M  V30 5675 H 512.104 2.80862 -2.56704 0
M  V30 5676 H 511.616 1.33555 -3.64396 0
M  V30 5677 H 509.717 3.1559 -1.98074 0
M  V30 5678 H 509.83 2.86234 -3.84196 0
M  V30 5679 H 508.194 1.59818 -1.98319 0
M  V30 5680 H 508.977 0.662866 -3.3684 0
M  V30 5681 N 511.423 1.38739 0.74761 0
M  V30 5682 C 512.37 1.36449 1.86146 0
M  V30 5683 C 513.34 0.226098 1.64554 0
M  V30 5684 O 514.525 0.41926 1.86137 0
M  V30 5685 C 511.665 1.2013 3.23516 0
M  V30 5686 C 510.778 2.43407 3.56899 0
M  V30 5687 C 509.913 2.19773 4.83605 0
M  V30 5688 C 508.952 3.3879 5.09792 0
M  V30 5689 N 508.089 3.14553 6.27695 0
M  V30 5690 H 512.929 2.3167 1.87438 0
M  V30 5691 H 510.466 1.15094 0.916063 0
M  V30 5692 H 512.424 1.08683 4.02795 0
M  V30 5693 H 511.054 0.285453 3.21535 0
M  V30 5694 H 510.106 2.65504 2.72418 0
M  V30 5695 H 511.418 3.32094 3.72176 0
M  V30 5696 H 510.572 2.05496 5.70838 0
M  V30 5697 H 509.311 1.28461 4.70478 0
M  V30 5698 H 508.316 3.53579 4.21025 0
M  V30 5699 H 509.541 4.30986 5.24812 0
M  V30 5700 H 507.487 2.25893 6.1588 0
M  V30 5701 H 507.404 3.96791 6.435 0
M  V30 5702 H 508.672 3.03943 7.17801 0
M  V30 5703 N 512.901 -0.976442 1.23707 0
M  V30 5704 C 514.15 -1.71254 1.06559 0
M  V30 5705 C 514.463 -1.91528 -0.397024 0
M  V30 5706 O 515.669 -2.62625 -0.688518 0
M  V30 5707 C 514.125 -3.08207 1.8584 0
M  V30 5708 C 513.733 -2.95806 3.36456 0
M  V30 5709 C 515.477 -3.85749 1.77194 0
M  V30 5710 C 513.384 -4.28015 4.08114 0
M  V30 5711 H 512.314 -0.642171 0.395136 0
M  V30 5712 H 514.965 -1.08877 1.4771 0
M  V30 5713 H 513.347 -3.71363 1.37498 0
M  V30 5714 H 514.521 -2.41716 3.92314 0
M  V30 5715 H 512.836 -2.31736 3.45959 0
M  V30 5716 H 515.433 -4.83633 2.28041 0
M  V30 5717 H 515.776 -4.09752 0.735477 0
M  V30 5718 H 516.309 -3.29303 2.23169 0
M  V30 5719 H 513.048 -4.09208 5.12083 0
M  V30 5720 H 512.568 -4.81955 3.57043 0
M  V30 5721 H 514.247 -4.96681 4.14629 0
M  V30 5722 N 514.379 -1.04941 -1.1758 0
M  V30 5723 C 515.326 -0.648155 -2.21512 0
M  V30 5724 C 516.296 0.348431 -1.62404 0
M  V30 5725 O 517.481 0.240419 -1.89279 0
M  V30 5726 C 514.621 -0.0264291 -3.4509 0
M  V30 5727 C 513.734 -1.07154 -4.185 0
M  V30 5728 C 512.869 -0.417403 -5.29558 0
M  V30 5729 C 511.908 -1.447 -5.94751 0
M  V30 5730 N 511.045 -0.817203 -6.97328 0
M  V30 5731 H 515.885 -1.53891 -2.55189 0
M  V30 5732 H 513.422 -0.769699 -1.25356 0
M  V30 5733 H 515.38 0.351456 -4.15717 0
M  V30 5734 H 514.01 0.827802 -3.12005 0
M  V30 5735 H 513.062 -1.56728 -3.46613 0
M  V30 5736 H 514.374 -1.8532 -4.63096 0
M  V30 5737 H 513.528 0.0142061 -6.06698 0
M  V30 5738 H 512.267 0.396265 -4.86087 0
M  V30 5739 H 511.272 -1.88865 -5.16343 0
M  V30 5740 H 512.497 -2.26252 -6.40302 0
M  V30 5741 H 510.443 -0.0239995 -6.55996 0
M  V30 5742 H 510.36 -1.53644 -7.40223 0
M  V30 5743 H 511.628 -0.410283 -7.7842 0
M  V30 5744 N 515.857 1.33968 -0.830081 0
M  V30 5745 C 517.134 1.92554 -0.343858 0
M  V30 5746 C 517.514 1.7573 1.16971 0
M  V30 5747 O 516.862 1.14035 1.98011 0
M  V30 5748 C 517.072 3.40147 -0.781073 0
M  V30 5749 C 518.42 4.17299 -0.78402 0
M  V30 5750 O 519.444 3.48762 -0.724112 0
M  V30 5751 O 518.303 5.39631 -0.863739 0
M  V30 5752 H 515.397 0.821469 -0.0954827 0
M  V30 5753 H 517.943 1.42897 -0.915348 0
M  V30 5754 H 516.715 3.46225 -1.82329 0
M  V30 5755 H 516.338 3.97166 -0.18567 0
M  V30 5756 N 517.335 0.585699 1.46312 0
M  V30 5757 C 518.565 0.0780166 2.06453 0
M  V30 5758 C 518.973 -1.2336 1.43454 0
M  V30 5759 O 518.316 -1.75734 0.535086 0
M  V30 5760 C 518.378 -0.158951 3.59148 0
M  V30 5761 C 518.042 1.06752 4.44357 0
M  V30 5762 C 519.039 1.98031 4.80708 0
M  V30 5763 C 516.724 1.2902 4.85447 0
M  V30 5764 C 518.718 3.09924 5.5698 0
M  V30 5765 C 516.405 2.41218 5.61478 0
M  V30 5766 C 517.403 3.31499 5.97158 0
M  V30 5767 O 517.091 4.41747 6.71651 0
M  V30 5768 H 516.823 0.0558894 0.673686 0
M  V30 5769 H 519.377 0.806994 1.88883 0
M  V30 5770 H 517.607 -0.942575 3.75037 0
M  V30 5771 H 519.296 -0.615513 4.01206 0
M  V30 5772 H 520.062 1.82043 4.49539 0
M  V30 5773 H 515.941 0.596567 4.57124 0
M  V30 5774 H 519.485 3.80415 5.84748 0
M  V30 5775 H 515.382 2.57167 5.9206 0
M  V30 5776 H 516.15 4.40152 6.90079 0
M  V30 5777 N 518.813 -1.54241 0.323641 0
M  V30 5778 C 519.76 -2.24339 -0.542277 0
M  V30 5779 C 520.73 -1.23421 -1.11159 0
M  V30 5780 O 521.915 -1.52104 -1.15192 0
M  V30 5781 C 519.055 -3.00479 -1.69725 0
M  V30 5782 C 518.168 -4.16214 -1.15716 0
M  V30 5783 C 517.303 -4.79884 -2.27783 0
M  V30 5784 C 516.342 -5.87722 -1.71023 0
M  V30 5785 N 515.479 -6.45254 -2.76752 0
M  V30 5786 H 520.319 -2.97935 0.0620613 0
M  V30 5787 H 517.856 -1.47039 0.0423993 0
M  V30 5788 H 519.814 -3.42869 -2.3769 0
M  V30 5789 H 518.444 -2.29217 -2.27288 0
M  V30 5790 H 517.496 -3.78605 -0.369063 0
M  V30 5791 H 518.808 -4.93838 -0.701832 0
M  V30 5792 H 517.962 -5.25243 -3.03651 0
M  V30 5793 H 516.701 -4.01641 -2.76652 0
M  V30 5794 H 515.706 -5.41765 -0.936518 0
M  V30 5795 H 516.931 -6.67863 -1.2303 0
M  V30 5796 H 514.877 -5.69884 -3.24912 0
M  V30 5797 H 514.794 -7.18292 -2.35782 0
M  V30 5798 H 516.062 -6.95269 -3.5245 0
M  V30 5799 N 520.291 -0.0518155 -1.57515 0
M  V30 5800 C 521.221 0.920283 -2.146 0
M  V30 5801 C 522.202 1.32406 -1.06783 0
M  V30 5802 O 523.387 1.39866 -1.34726 0
M  V30 5803 C 520.517 2.1949 -2.6915 0
M  V30 5804 C 519.471 1.93116 -3.81956 0
M  V30 5805 C 518.797 3.27037 -4.23026 0
M  V30 5806 C 520.097 1.25225 -5.07066 0
M  V30 5807 H 521.791 0.444801 -2.96077 0
M  V30 5808 H 519.337 0.212508 -1.42423 0
M  V30 5809 H 521.29 2.87894 -3.07725 0
M  V30 5810 H 520.014 2.69244 -1.84865 0
M  V30 5811 H 518.673 1.27123 -3.43854 0
M  V30 5812 H 518.321 3.74595 -3.3569 0
M  V30 5813 H 518.021 3.10189 -4.99056 0
M  V30 5814 H 519.545 3.96673 -4.64202 0
M  V30 5815 H 520.959 1.83666 -5.43083 0
M  V30 5816 H 519.356 1.18702 -5.88243 0
M  V30 5817 H 520.426 0.228382 -4.84362 0
M  V30 5818 N 521.769 1.56035 0.221574 0
M  V30 5819 C 523.016 1.79047 0.94597 0
M  V30 5820 C 523.344 0.62057 1.84334 0
M  V30 5821 O 522.599 -0.395053 1.91671 0
M  V30 5822 C 522.898 3.07813 1.8162 0
M  V30 5823 C 522.564 4.3797 1.07206 0
M  V30 5824 C 521.226 4.73334 0.866508 0
M  V30 5825 C 523.578 5.18326 0.546565 0
M  V30 5826 C 520.906 5.8657 0.123549 0
M  V30 5827 C 523.258 6.32335 -0.18305 0
M  V30 5828 C 521.922 6.66301 -0.399861 0
M  V30 5829 H 521.192 0.655178 0.346155 0
M  V30 5830 H 523.839 1.90299 0.214146 0
M  V30 5831 H 522.144 2.91682 2.61589 0
M  V30 5832 H 523.841 3.2282 2.37884 0
M  V30 5833 H 520.431 4.10202 1.24226 0
M  V30 5834 H 524.615 4.9144 0.692847 0
M  V30 5835 H 519.871 6.11376 -0.0546591 0
M  V30 5836 H 524.045 6.9383 -0.59775 0
M  V30 5837 H 521.672 7.53889 -0.977489 0
M  V30 5838 N 523.247 -0.488276 1.49845 0
M  V30 5839 C 524.194 -1.58836 1.67451 0
M  V30 5840 C 525.164 -1.57886 0.515857 0
M  V30 5841 O 526.349 -1.75679 0.744403 0
M  V30 5842 C 523.489 -2.96915 1.75885 0
M  V30 5843 C 522.602 -3.07784 3.03138 0
M  V30 5844 C 521.737 -4.36673 3.02473 0
M  V30 5845 C 520.776 -4.41222 4.24252 0
M  V30 5846 N 519.913 -5.61557 4.21424 0
M  V30 5847 H 524.753 -1.43131 2.61376 0
M  V30 5848 H 522.29 -0.696186 1.29583 0
M  V30 5849 H 524.248 -3.76965 1.78755 0
M  V30 5850 H 522.878 -3.11295 0.85414 0
M  V30 5851 H 521.93 -2.20717 3.09819 0
M  V30 5852 H 523.242 -3.07005 3.93128 0
M  V30 5853 H 522.396 -5.25055 3.03977 0
M  V30 5854 H 521.135 -4.40037 2.10283 0
M  V30 5855 H 520.14 -3.5124 4.22978 0
M  V30 5856 H 521.365 -4.39564 5.17649 0
M  V30 5857 H 519.311 -5.65738 3.32078 0
M  V30 5858 H 519.228 -5.62447 5.05163 0
M  V30 5859 H 520.496 -6.52111 4.2705 0
M  V30 5860 N 524.725 -1.39134 -0.740242 0
M  V30 5861 C 525.974 -1.35384 -1.49512 0
M  V30 5862 C 526.287 0.04919 -1.95538 0
M  V30 5863 O 527.493 0.209257 -2.70692 0
M  V30 5864 C 525.949 -2.37812 -2.70136 0
M  V30 5865 C 525.557 -3.83804 -2.31081 0
M  V30 5866 C 527.301 -2.4313 -3.47977 0
M  V30 5867 C 525.208 -4.77886 -3.48395 0
M  V30 5868 H 524.138 -0.503297 -0.561434 0
M  V30 5869 H 526.789 -1.64754 -0.807974 0
M  V30 5870 H 525.171 -2.01505 -3.40899 0
M  V30 5871 H 526.345 -4.29123 -1.67898 0
M  V30 5872 H 524.66 -3.81732 -1.66343 0
M  V30 5873 H 527.257 -3.10614 -4.35228 0
M  V30 5874 H 527.6 -1.45423 -3.90074 0
M  V30 5875 H 528.133 -2.78304 -2.84239 0
M  V30 5876 H 524.872 -5.76836 -3.11353 0
M  V30 5877 H 524.392 -4.3725 -4.10576 0
M  V30 5878 H 526.071 -4.96538 -4.148 0
M  V30 5879 N 526.204 0.969867 -1.24223 0
M  V30 5880 C 527.151 2.06407 -1.0327 0
M  V30 5881 C 528.121 1.66014 0.0533 0
M  V30 5882 O 529.306 1.90533 -0.100896 0
M  V30 5883 C 526.446 3.3909 -0.641262 0
M  V30 5884 C 525.559 3.9269 -1.80051 0
M  V30 5885 C 524.694 5.13631 -1.35486 0
M  V30 5886 C 523.733 5.59423 -2.48419 0
M  V30 5887 N 522.87 6.71586 -2.04737 0
M  V30 5888 H 527.71 2.23663 -1.96923 0
M  V30 5889 H 525.247 1.09624 -0.980862 0
M  V30 5890 H 527.205 4.15323 -0.395351 0
M  V30 5891 H 525.835 3.21765 0.258269 0
M  V30 5892 H 524.887 3.13116 -2.16014 0
M  V30 5893 H 526.199 4.22636 -2.64916 0
M  V30 5894 H 525.353 5.97231 -1.0677 0
M  V30 5895 H 524.092 4.85364 -0.476722 0
M  V30 5896 H 523.097 4.74398 -2.77897 0
M  V30 5897 H 524.322 5.89705 -3.36786 0
M  V30 5898 H 522.268 6.45058 -1.19318 0
M  V30 5899 H 522.185 7.0097 -2.83156 0
M  V30 5900 H 523.453 7.58633 -1.79154 0
M  V30 5901 N 527.682 1.05563 1.17022 0
M  V30 5902 C 528.93 0.76642 1.87004 0
M  V30 5903 C 529.251 -0.708854 1.8166 0
M  V30 5904 O 528.521 -1.51242 1.2451 0
M  V30 5905 H 527.101 0.280516 0.692329 0
M  V30 5906 H 529.763 1.33557 1.41945 0
M  V30 5907 H 528.859 1.08472 2.92644 0
M  V30 5908 N 529.16 -1.33526 0.837174 0
M  V30 5909 C 530.385 -2.0258 0.444545 0
M  V30 5910 C 530.81 -1.6258 -0.946006 0
M  V30 5911 O 530.168 -0.817548 -1.6182 0
M  V30 5912 C 530.216 -3.5605 0.571006 0
M  V30 5913 O 529.32 -4.10422 -0.403431 0
M  V30 5914 H 528.661 -0.638866 0.180958 0
M  V30 5915 H 531.191 -1.70462 1.13154 0
M  V30 5916 H 531.201 -4.05488 0.452024 0
M  V30 5917 H 529.876 -3.84509 1.58512 0
M  V30 5918 H 528.453 -3.72113 -0.242147 0
M  V30 5919 N 530.638 -0.59345 -1.46 0
M  V30 5920 C 531.585 0.133618 -2.30413 0
M  V30 5921 C 532.555 0.873736 -1.41262 0
M  V30 5922 O 533.74 0.862279 -1.70204 0
M  V30 5923 C 530.88 1.13434 -3.25924 0
M  V30 5924 C 529.993 0.39656 -4.30176 0
M  V30 5925 C 529.128 1.38575 -5.12806 0
M  V30 5926 C 528.167 0.634984 -6.08797 0
M  V30 5927 N 527.304 1.57276 -6.84258 0
M  V30 5928 H 532.144 -0.592252 -2.92055 0
M  V30 5929 H 529.681 -0.303874 -1.43927 0
M  V30 5930 H 531.639 1.72752 -3.79753 0
M  V30 5931 H 530.269 1.82779 -2.66067 0
M  V30 5932 H 529.321 -0.311861 -3.79119 0
M  V30 5933 H 530.633 -0.189869 -4.98438 0
M  V30 5934 H 529.787 2.05141 -5.70966 0
M  V30 5935 H 528.526 2.00611 -4.44529 0
M  V30 5936 H 527.531 -0.0443925 -5.49782 0
M  V30 5937 H 528.756 0.0198678 -6.79097 0
M  V30 5938 H 526.702 2.18103 -6.18682 0
M  V30 5939 H 526.619 1.03941 -7.48821 0
M  V30 5940 H 527.887 2.22844 -7.46968 0
M  V30 5941 N 532.116 1.54067 -0.331816 0
M  V30 5942 C 533.365 1.99895 0.269209 0
M  V30 5943 C 533.678 1.22371 1.52593 0
M  V30 5944 O 534.884 1.58618 2.20347 0
M  V30 5945 C 533.34 3.55972 0.530244 0
M  V30 5946 C 532.948 4.4234 -0.709901 0
M  V30 5947 C 534.692 4.10247 1.09077 0
M  V30 5948 C 532.599 5.89905 -0.420312 0
M  V30 5949 H 531.529 0.746741 0.104371 0
M  V30 5950 H 534.18 1.78014 -0.445324 0
M  V30 5951 H 532.562 3.73873 1.30518 0
M  V30 5952 H 533.736 4.36215 -1.48504 0
M  V30 5953 H 532.051 3.98997 -1.19123 0
M  V30 5954 H 534.648 5.18095 1.32219 0
M  V30 5955 H 534.991 3.62739 2.0427 0
M  V30 5956 H 535.524 3.96011 0.376824 0
M  V30 5957 H 532.263 6.41623 -1.34164 0
M  V30 5958 H 531.783 5.98962 0.316962 0
M  V30 5959 H 533.462 6.46991 -0.0331956 0
M  V30 5960 N 533.594 0.0601682 1.57485 0
M  V30 5961 C 534.871 -0.651956 1.84415 0
M  V30 5962 C 535.251 -1.88498 0.950361 0
M  V30 5963 O 534.599 -2.28496 0.0136719 0
M  V30 5964 C 534.809 -1.00069 3.34346 0
M  V30 5965 C 536.157 -1.37915 4.01578 0
M  V30 5966 O 537.181 -1.09277 3.39024 0
M  V30 5967 O 536.04 -1.91399 5.11887 0
M  V30 5968 H 533.134 -0.322668 0.761455 0
M  V30 5969 H 535.68 0.0902159 1.6946 0
M  V30 5970 H 534.452 -0.124463 3.91102 0
M  V30 5971 H 534.075 -1.80001 3.54521 0
M  V30 5972 N 535.072 -1.5615 -0.213296 0
M  V30 5973 C 536.32 -1.79191 -0.934612 0
M  V30 5974 C 536.641 -0.630112 -1.84539 0
M  V30 5975 O 535.911 0.35257 -1.92701 0
M  V30 5976 H 534.491 -0.660937 -0.348097 0
M  V30 5977 H 537.153 -1.93618 -0.22317 0
M  V30 5978 H 536.249 -2.71656 -1.53654 0
M  V30 5979 N 536.55 0.480323 -1.50102 0
M  V30 5980 C 537.46 1.60547 -1.71061 0
M  V30 5981 C 538.476 1.63564 -0.593529 0
M  V30 5982 O 539.652 1.81604 -0.870751 0
M  V30 5983 C 536.717 2.96814 -1.79171 0
M  V30 5984 C 535.778 3.04259 -3.02861 0
M  V30 5985 C 535.011 4.34027 -3.10574 0
M  V30 5986 O 535.234 5.24009 -2.25323 0
M  V30 5987 O 534.168 4.46873 -4.03223 0
M  V30 5988 H 537.994 1.45788 -2.6642 0
M  V30 5989 H 535.579 0.658838 -1.34088 0
M  V30 5990 H 537.461 3.77765 -1.86738 0
M  V30 5991 H 536.136 3.11791 -0.869947 0
M  V30 5992 H 535.043 2.22419 -3.008 0
M  V30 5993 H 536.376 2.94216 -3.94586 0
M  V30 5994 N 538.028 1.39524 0.732853 0
M  V30 5995 C 538.975 1.38416 1.84688 0
M  V30 5996 C 539.945 0.243539 1.64305 0
M  V30 5997 O 541.13 0.438979 1.85681 0
M  V30 5998 C 538.27 1.23555 3.22224 0
M  V30 5999 C 537.383 2.47179 3.54298 0
M  V30 6000 C 536.518 2.2489 4.81246 0
M  V30 6001 C 535.557 3.44178 5.0617 0
M  V30 6002 N 534.694 3.21192 6.24323 0
M  V30 6003 H 539.534 2.33645 1.84971 0
M  V30 6004 H 537.071 1.16059 0.903804 0
M  V30 6005 H 539.029 1.12949 4.0162 0
M  V30 6006 H 537.659 0.31954 3.21215 0
M  V30 6007 H 536.711 2.68379 2.69587 0
M  V30 6008 H 538.023 3.36022 3.68633 0
M  V30 6009 H 537.177 2.11538 5.68627 0
M  V30 6010 H 535.916 1.33443 4.69089 0
M  V30 6011 H 534.921 3.58025 4.17251 0
M  V30 6012 H 536.146 4.36528 5.20212 0
M  V30 6013 H 534.092 2.32413 6.1345 0
M  V30 6014 H 534.009 4.03594 6.39256 0
M  V30 6015 H 535.277 3.1154 7.14537 0
M  V30 6016 N 539.506 -0.963266 1.24736 0
M  V30 6017 C 540.469 -2.04013 1.04457 0
M  V30 6018 C 541.469 -1.608 0.000335555 0
M  V30 6019 O 542.659 -1.72515 0.241719 0
M  V30 6020 C 539.791 -3.35858 0.584162 0
M  V30 6021 H 540.984 -2.23436 2.00041 0
M  V30 6022 H 538.537 -1.13914 1.07021 0
M  V30 6023 H 539.272 -3.22128 -0.374673 0
M  V30 6024 H 539.057 -3.68568 1.3379 0
M  V30 6025 H 540.547 -4.1502 0.463451 0
M  V30 6026 N 540.985 -1.06182 -1.16461 0
M  V30 6027 C 541.895 -0.682671 -2.24448 0
M  V30 6028 C 542.911 0.30078 -1.71381 0
M  V30 6029 O 544.087 0.150376 -2.00838 0
M  V30 6030 C 541.152 -0.0737202 -3.46622 0
M  V30 6031 C 540.213 -1.10889 -4.14731 0
M  V30 6032 C 539.446 -0.528908 -5.31073 0
M  V30 6033 O 539.669 0.65868 -5.66584 0
M  V30 6034 O 538.603 -1.26805 -5.88391 0
M  V30 6035 H 542.429 -1.58291 -2.59187 0
M  V30 6036 H 540.014 -0.834013 -1.23954 0
M  V30 6037 H 541.896 0.264192 -4.20571 0
M  V30 6038 H 540.571 0.800015 -3.13658 0
M  V30 6039 H 539.478 -1.49896 -3.42756 0
M  V30 6040 H 540.811 -1.95412 -4.51747 0
M  V30 6041 N 542.463 1.3308 -0.844243 0
M  V30 6042 C 543.41 2.29104 -0.279323 0
M  V30 6043 C 544.38 1.54577 0.607882 0
M  V30 6044 O 545.565 1.8285 0.545009 0
M  V30 6045 C 542.705 3.40927 0.53508 0
M  V30 6046 C 541.818 4.30354 -0.376749 0
M  V30 6047 C 540.953 5.29297 0.449276 0
M  V30 6048 C 539.992 6.10365 -0.460606 0
M  V30 6049 N 539.129 7.01335 0.327612 0
M  V30 6050 H 543.969 2.76817 -1.10346 0
M  V30 6051 H 541.506 1.36203 -0.555611 0
M  V30 6052 H 543.464 4.04469 1.02278 0
M  V30 6053 H 542.094 2.94391 1.32414 0
M  V30 6054 H 541.146 3.67485 -0.982791 0
M  V30 6055 H 542.458 4.87067 -1.07549 0
M  V30 6056 H 541.612 5.98392 1.00058 0
M  V30 6057 H 540.351 4.73174 1.18143 0
M  V30 6058 H 539.356 5.40182 -1.02388 0
M  V30 6059 H 540.581 6.68571 -1.1912 0
M  V30 6060 H 538.527 6.47655 1.04305 0
M  V30 6061 H 538.444 7.55355 -0.3123 0
M  V30 6062 H 539.712 7.74731 0.86098 0
M  V30 6063 N 543.941 0.601185 1.45683 0
M  V30 6064 C 545.189 0.0936957 2.01883 0
M  V30 6065 C 545.51 -1.2779 1.47291 0
M  V30 6066 O 544.78 -1.84279 0.664691 0
M  V30 6067 H 543.36 0.0316466 0.746329 0
M  V30 6068 H 546.022 0.781137 1.78562 0
M  V30 6069 H 545.118 0.0386297 3.12076 0
M  V30 6070 N 545.419 -1.53889 0.339982 0
M  V30 6071 C 546.367 -2.26391 -0.533822 0
M  V30 6072 C 547.361 -1.28404 -1.10493 0
M  V30 6073 O 548.567 -1.46124 -1.05108 0
M  V30 6074 H 544.942 -0.727385 -0.190828 0
M  V30 6075 H 546.913 -2.98233 0.0997484 0
M  V30 6076 C 545.662 -3.04707 -1.67479 0
M  V30 6077 H 544.985 -3.79934 -1.2446 0
M  V30 6078 H 546.425 -3.58657 -2.26144 0
M  V30 6079 C 544.884 -2.13989 -2.60212 0
M  V30 6080 O 545.414 -1.73361 -3.62366 0
M  V30 6081 N 543.62 -1.79141 -2.28816 0
M  V30 6082 H 543.167 -2.12378 -1.45785 0
M  V30 6083 H 543.125 -1.18725 -2.91121 0
M  V30 6084 N 546.897 -0.0685191 -1.57451 0
M  V30 6085 C 548.313 0.288101 -1.56978 0
M  V30 6086 C 548.513 1.70262 -1.07765 0
M  V30 6087 O 547.569 2.4135 -0.742054 0
M  V30 6088 C 548.882 0.100745 -3.00531 0
M  V30 6089 C 550.43 0.170531 -3.12535 0
M  V30 6090 C 550.905 0.0114944 -4.57999 0
M  V30 6091 N 552.396 0.0672065 -4.63151 0
M  V30 6092 C 553.131 -0.0314813 -5.73391 0
M  V30 6093 N 552.627 -0.183503 -6.92557 0
M  V30 6094 N 554.42 0.0253489 -5.62094 0
M  V30 6095 H 546.571 -0.993026 -1.87757 0
M  V30 6096 H 548.834 -0.386981 -0.865419 0
M  V30 6097 H 548.54 -0.875197 -3.40636 0
M  V30 6098 H 548.414 0.854457 -3.67395 0
M  V30 6099 H 550.801 1.13696 -2.72318 0
M  V30 6100 H 550.882 -0.614229 -2.48316 0
M  V30 6101 H 550.526 -0.951684 -4.98904 0
M  V30 6102 H 550.456 0.815617 -5.20245 0
M  V30 6103 H 552.947 0.183246 -3.77455 0
M  V30 6104 H 553.26 -0.251041 -7.72392 0
M  V30 6105 H 551.605 -0.218822 -6.94655 0
M  V30 6106 H 554.796 0.142794 -4.67882 0
M  V30 6107 H 554.969 -0.0550166 -6.47977 0
M  V30 6108 N 548.375 1.56261 0.205012 0
M  V30 6109 C 549.338 1.92908 1.23771 0
M  V30 6110 C 550.338 0.809208 1.38955 0
M  V30 6111 O 551.528 1.07676 1.36936 0
M  V30 6112 C 548.66 2.19442 2.60879 0
M  V30 6113 H 549.853 2.85287 0.924728 0
M  V30 6114 H 547.406 1.49798 0.446125 0
M  V30 6115 H 548.141 1.29668 2.97248 0
M  V30 6116 H 547.926 3.0104 2.51232 0
M  V30 6117 H 549.416 2.48833 3.35368 0
M  V30 6118 N 549.853 -0.472356 1.50355 0
M  V30 6119 C 551.078 -1.25251 1.65309 0
M  V30 6120 C 551.503 -1.85081 0.335643 0
M  V30 6121 O 550.861 -1.67227 -0.700335 0
M  V30 6122 C 550.909 -2.3379 2.74544 0
M  V30 6123 O 550.013 -3.38401 2.35709 0
M  V30 6124 H 549.354 -0.368539 0.552336 0
M  V30 6125 H 551.884 -0.562271 1.96722 0
M  V30 6126 H 551.894 -2.79121 2.97583 0
M  V30 6127 H 550.569 -1.89614 3.70161 0
M  V30 6128 H 549.146 -2.9879 2.23112 0
M  V30 6129 N 551.331 -1.39911 -0.725443 0
M  V30 6130 C 552.279 -1.39552 -1.86086 0
M  V30 6131 C 553.273 -0.277334 -1.67114 0
M  V30 6132 O 554.479 -0.447865 -1.74339 0
M  V30 6133 H 550.854 -0.435993 -0.612711 0
M  V30 6134 H 552.825 -2.35305 -1.83505 0
M  V30 6135 C 551.574 -1.26529 -3.2386 0
M  V30 6136 H 550.897 -2.11845 -3.3906 0
M  V30 6137 H 552.337 -1.30336 -4.03471 0
M  V30 6138 C 550.796 0.0254168 -3.3689 0
M  V30 6139 O 551.326 0.992048 -3.89257 0
M  V30 6140 N 549.532 0.0916528 -2.90455 0
M  V30 6141 H 549.079 -0.695675 -2.48028 0
M  V30 6142 H 549.037 0.954745 -2.99553 0
M  V30 6143 N 552.809 0.956637 -1.25245 0
M  V30 6144 C 553.772 2.03457 -1.05537 0
M  V30 6145 C 554.772 1.60798 -0.00886317 0
M  V30 6146 O 555.962 1.72384 -0.250865 0
M  V30 6147 C 553.094 3.35543 -0.601965 0
M  V30 6148 H 554.287 2.22372 -2.01223 0
M  V30 6149 H 551.84 1.13344 -1.07623 0
M  V30 6150 H 552.575 3.22323 0.357584 0
M  V30 6151 H 552.36 3.67854 -1.35743 0
M  V30 6152 H 553.85 4.14769 -0.485454 0
M  V30 6153 N 554.287 1.06798 1.15896 0
M  V30 6154 C 555.512 0.808739 1.90982 0
M  V30 6155 C 555.937 -0.6316 1.77179 0
M  V30 6156 O 555.295 -1.4407 1.10061 0
M  V30 6157 C 555.343 1.21468 3.39526 0
M  V30 6158 O 554.447 0.356562 4.10856 0
M  V30 6159 H 553.788 0.29512 0.594811 0
M  V30 6160 H 556.318 1.42513 1.46804 0
M  V30 6161 H 556.328 1.18844 3.90308 0
M  V30 6162 H 555.003 2.26379 3.48891 0
M  V30 6163 H 553.58 0.444808 3.70238 0
M  V30 6164 N 555.766 -1.3263 0.851289 0
M  V30 6165 C 557.006 -1.99174 0.459266 0
M  V30 6166 C 557.37 -1.65913 -0.966273 0
M  V30 6167 O 558.571 -2.2552 -1.46267 0
M  V30 6168 C 556.842 -3.50721 0.687698 0
M  V30 6169 S 558.401 -4.37039 0.392746 0
M  V30 6170 H 555.219 -0.689832 0.172199 0
M  V30 6171 H 557.821 -1.61395 1.10327 0
M  V30 6172 H 556.525 -3.72417 1.72435 0
M  V30 6173 H 556.056 -3.93389 0.0299949 0
M  V30 6174 H 558.071 -4.8999 -0.782578 0
M  V30 6175 N 557.244 -0.608902 -1.45362 0
M  V30 6176 C 558.174 0.0964526 -2.33301 0
M  V30 6177 C 559.155 0.857444 -1.46908 0
M  V30 6178 O 560.34 0.827735 -1.75676 0
M  V30 6179 C 557.47 1.09354 -3.29635 0
M  V30 6180 C 556.424 0.445676 -4.25673 0
M  V30 6181 C 555.75 1.5511 -5.11708 0
M  V30 6182 C 557.05 -0.633972 -5.18438 0
M  V30 6183 H 558.744 -0.637829 -2.92527 0
M  V30 6184 H 556.29 -0.308178 -1.40664 0
M  V30 6185 H 558.243 1.59556 -3.90025 0
M  V30 6186 H 556.967 1.85843 -2.6857 0
M  V30 6187 H 555.626 -0.0354897 -3.66583 0
M  V30 6188 H 555.274 2.30631 -4.4701 0
M  V30 6189 H 554.974 1.12311 -5.76767 0
M  V30 6190 H 556.498 2.05537 -5.74967 0
M  V30 6191 H 557.912 -0.215974 -5.72893 0
M  V30 6192 H 556.309 -0.983789 -5.91981 0
M  V30 6193 H 557.379 -1.51005 -4.60788 0
M  V30 6194 N 558.722 1.53707 -0.348139 0
M  V30 6195 C 559.672 2.2193 0.522592 0
M  V30 6196 C 560.656 1.20831 1.06248 0
M  V30 6197 O 561.848 1.46357 0.995415 0
M  V30 6198 C 558.977 2.99904 1.6707 0
M  V30 6199 C 558.063 4.08364 1.14454 0
M  V30 6200 N 558.454 5.04656 0.339958 0
M  V30 6201 C 556.752 4.22757 1.421 0
M  V30 6202 C 557.453 5.81675 0.0538806 0
M  V30 6203 N 556.429 5.39739 0.646776 0
M  V30 6204 H 560.231 2.93733 -0.099135 0
M  V30 6205 H 557.745 1.61656 -0.15524 0
M  V30 6206 H 559.742 3.47284 2.30651 0
M  V30 6207 H 558.402 2.29629 2.29566 0
M  V30 6208 H 559.413 5.17896 -0.0193552 0
M  V30 6209 H 556.09 3.63704 2.05002 0
M  V30 6210 H 557.48 6.69256 -0.595443 0
M  V30 6211 N 560.2 0.0768682 1.57412 0
M  V30 6212 C 561.477 -0.632359 1.85096 0
M  V30 6213 C 561.857 -1.87479 0.9703 0
M  V30 6214 O 561.205 -2.28469 0.0379062 0
M  V30 6215 C 561.415 -0.965174 3.35388 0
M  V30 6216 C 562.763 -1.33648 4.03018 0
M  V30 6217 O 563.787 -1.05675 3.40164 0
M  V30 6218 O 562.646 -1.85959 5.13889 0
M  V30 6219 H 559.74 -0.314574 0.764835 0
M  V30 6220 H 562.286 0.108184 1.69355 0
M  V30 6221 H 561.058 -0.0829745 3.91212 0
M  V30 6222 H 560.681 -1.76231 3.5641 0
M  V30 6223 N 561.678 -1.56367 -0.196722 0
M  V30 6224 C 562.903 -1.84991 -0.937714 0
M  V30 6225 C 563.328 -0.660244 -1.76132 0
M  V30 6226 O 562.686 0.390967 -1.77034 0
M  V30 6227 C 562.734 -3.11828 -1.81096 0
M  V30 6228 O 561.838 -2.92266 -2.90955 0
M  V30 6229 H 561.179 -0.609193 -0.264159 0
M  V30 6230 H 563.709 -2.03595 -0.202529 0
M  V30 6231 H 563.719 -3.42579 -2.21594 0
M  V30 6232 H 562.394 -3.98037 -1.2058 0
M  V30 6233 H 560.971 -2.72809 -2.54224 0
M  V30 6234 N 563.156 0.464375 -1.50603 0
M  V30 6235 C 564.572 0.798684 -1.38178 0
M  V30 6236 C 564.772 1.96568 -0.44308 0
M  V30 6237 O 563.828 2.52252 0.111814 0
M  V30 6238 C 565.141 1.10444 -2.79683 0
M  V30 6239 C 566.689 1.2105 -2.88645 0
M  V30 6240 C 567.164 1.54934 -4.30998 0
M  V30 6241 N 568.655 1.61913 -4.3398 0
M  V30 6242 C 569.39 1.8965 -5.41129 0
M  V30 6243 N 568.886 2.15361 -6.58477 0
M  V30 6244 N 570.679 1.91207 -5.28579 0
M  V30 6245 H 562.83 -0.304603 -2.10204 0
M  V30 6246 H 565.093 -0.0737804 -0.945125 0
M  V30 6247 H 564.799 0.319934 -3.50242 0
M  V30 6248 H 564.673 2.03896 -3.17342 0
M  V30 6249 H 567.06 1.98567 -2.18301 0
M  V30 6250 H 567.141 0.255613 -2.5452 0
M  V30 6251 H 566.785 0.779549 -5.01882 0
M  V30 6252 H 566.715 2.51584 -4.62615 0
M  V30 6253 H 569.206 1.44055 -3.49366 0
M  V30 6254 H 569.519 2.35818 -7.35941 0
M  V30 6255 H 567.864 2.1274 -6.6164 0
M  V30 6256 H 571.055 1.70622 -4.35897 0
M  V30 6257 H 571.228 2.12488 -6.12171 0
M  V30 6258 N 564.634 1.40294 0.718013 0
M  V30 6259 C 565.862 1.4175 1.50714 0
M  V30 6260 C 566.277 0.0165366 1.88793 0
M  V30 6261 O 565.634 -0.958942 1.55276 0
M  V30 6262 C 565.685 2.30598 2.784 0
M  V30 6263 O 565.406 3.6524 2.41932 0
M  V30 6264 C 566.907 2.4062 3.72313 0
M  V30 6265 H 564.127 0.483565 0.465194 0
M  V30 6266 H 566.671 1.84316 0.885889 0
M  V30 6267 H 564.826 1.91401 3.36815 0
M  V30 6268 H 565.24 4.12402 3.24076 0
M  V30 6269 H 566.714 3.07001 4.58753 0
M  V30 6270 H 567.191 1.4305 4.15251 0
M  V30 6271 H 567.797 2.80359 3.19811 0
M  V30 6272 N 566.112 -0.949982 1.2575 0
M  V30 6273 C 567.337 -1.73503 1.13628 0
M  V30 6274 C 567.762 -1.85601 -0.30559 0
M  V30 6275 O 567.12 -1.33984 -1.22139 0
M  V30 6276 C 567.168 -3.1243 1.80055 0
M  V30 6277 O 566.272 -3.97916 1.08336 0
M  V30 6278 H 565.613 -0.532665 0.396439 0
M  V30 6279 H 568.143 -1.19043 1.66403 0
M  V30 6280 H 568.153 -3.62866 1.86527 0
M  V30 6281 H 566.828 -3.02941 2.84956 0
M  V30 6282 H 565.405 -3.56375 1.09777 0
M  V30 6283 N 567.59 -1.07411 -1.15328 0
M  V30 6284 C 568.54 -0.664788 -2.18093 0
M  V30 6285 C 569.524 0.310395 -1.57878 0
M  V30 6286 O 570.716 0.124026 -1.76565 0
M  V30 6287 C 567.845 -0.0647822 -3.43239 0
M  V30 6288 C 566.931 -1.06514 -4.10506 0
M  V30 6289 N 567.322 -2.24491 -4.53252 0
M  V30 6290 C 565.62 -0.898613 -4.36853 0
M  V30 6291 C 566.321 -2.8796 -5.05424 0
M  V30 6292 N 565.297 -2.15622 -4.99007 0
M  V30 6293 H 569.099 -1.56333 -2.48872 0
M  V30 6294 H 566.613 -0.947393 -1.31902 0
M  V30 6295 H 568.61 0.246363 -4.16171 0
M  V30 6296 H 567.27 0.828866 -3.13943 0
M  V30 6297 H 568.281 -2.62205 -4.46619 0
M  V30 6298 H 564.958 -0.0579118 -4.1746 0
M  V30 6299 H 566.348 -3.88137 -5.48452 0
M  V30 6300 N 569.068 1.32177 -0.85831 0
M  V30 6301 C 570.016 2.30729 -0.294442 0
M  V30 6302 C 571.01 1.59009 0.584165 0
M  V30 6303 O 572.216 1.73713 0.471562 0
M  V30 6304 H 568.591 0.748097 -0.0765171 0
M  V30 6305 H 570.562 2.75774 -1.1398 0
M  V30 6306 C 569.311 3.44098 0.499208 0
M  V30 6307 H 568.634 3.99449 -0.167579 0
M  V30 6308 H 570.074 4.15202 0.859273 0
M  V30 6309 C 568.533 2.91684 1.68588 0
M  V30 6310 O 569.063 2.89481 2.78503 0
M  V30 6311 N 567.269 2.48036 1.51415 0
M  V30 6312 H 566.816 2.50027 0.620006 0
M  V30 6313 H 566.774 2.13322 2.30957 0
M  V30 6314 N 570.547 0.616602 1.45037 0
M  V30 6315 C 571.494 -0.0969439 2.30596 0
M  V30 6316 C 572.464 -0.851151 1.42635 0
M  V30 6317 O 573.649 -0.835092 1.71554 0
M  V30 6318 C 570.789 -1.08234 3.27688 0
M  V30 6319 C 569.902 -0.328072 4.30752 0
M  V30 6320 C 569.037 -1.30399 5.14946 0
M  V30 6321 C 568.076 -0.538049 6.09731 0
M  V30 6322 N 567.213 -1.46371 6.86673 0
M  V30 6323 H 572.053 0.63864 2.91076 0
M  V30 6324 H 569.59 0.326733 1.43425 0
M  V30 6325 H 571.548 -1.66688 3.82454 0
M  V30 6326 H 570.178 -1.78523 2.68941 0
M  V30 6327 H 569.23 0.372136 3.78575 0
M  V30 6328 H 570.542 0.269142 4.98073 0
M  V30 6329 H 569.696 -1.96032 5.74157 0
M  V30 6330 H 568.435 -1.93514 4.47665 0
M  V30 6331 H 567.44 0.131852 5.49642 0
M  V30 6332 H 568.665 0.0881732 6.79043 0
M  V30 6333 H 566.611 -2.08233 6.22073 0
M  V30 6334 H 566.528 -0.920152 7.50379 0
M  V30 6335 H 567.796 -2.10932 7.50418 0
M  V30 6336 N 572.025 -1.5352 0.356285 0
M  V30 6337 C 573.274 -2.00298 -0.237373 0
M  V30 6338 C 573.587 -1.24784 -1.50627 0
M  V30 6339 O 574.793 -1.62103 -2.17795 0
M  V30 6340 C 573.249 -3.56771 -0.473545 0
M  V30 6341 C 572.857 -4.41154 0.780183 0
M  V30 6342 C 574.601 -4.1193 -1.02537 0
M  V30 6343 C 572.508 -5.89161 0.514108 0
M  V30 6344 H 571.438 -0.748307 -0.092478 0
M  V30 6345 H 574.089 -1.77283 0.473588 0
M  V30 6346 H 572.471 -3.75902 -1.24553 0
M  V30 6347 H 573.645 -4.33797 1.55425 0
M  V30 6348 H 571.96 -3.97052 1.25455 0
M  V30 6349 H 574.557 -5.20133 -1.2396 0
M  V30 6350 H 574.9 -3.65943 -1.98473 0
M  V30 6351 H 575.433 -3.96561 -0.313775 0
M  V30 6352 H 572.172 -6.39408 1.44355 0
M  V30 6353 H 571.692 -5.9939 -0.221632 0
M  V30 6354 H 573.371 -6.46857 0.136122 0
M  V30 6355 N 573.503 -0.0852151 -1.57369 0
M  V30 6356 C 574.749 0.581666 -1.94279 0
M  V30 6357 C 575.082 1.68444 -0.966446 0
M  V30 6358 O 574.357 1.945 0.00215277 0
M  V30 6359 C 574.64 1.14609 -3.41375 0
M  V30 6360 C 574.493 0.0490414 -4.49773 0
M  V30 6361 C 575.812 2.04751 -3.8957 0
M  V30 6362 H 572.931 0.209972 -0.706456 0
M  V30 6363 H 575.573 -0.153915 -1.89376 0
M  V30 6364 H 573.723 1.77297 -3.45685 0
M  V30 6365 H 575.395 -0.584721 -4.57579 0
M  V30 6366 H 573.638 -0.618638 -4.29366 0
M  V30 6367 H 574.309 0.484601 -5.49869 0
M  V30 6368 H 576.785 1.51981 -3.87351 0
M  V30 6369 H 575.661 2.41173 -4.93079 0
M  V30 6370 H 575.922 2.96107 -3.28288 0
M  V30 6371 N 574.981 1.5647 0.188427 0
M  V30 6372 C 576.392 1.70864 0.752494 0
M  V30 6373 C 576.743 0.692905 1.83557 0
M  V30 6374 O 575.868 -0.149307 2.15884 0
M  V30 6375 C 576.463 3.09789 1.37173 0
M  V30 6376 C 575.022 3.25925 1.88281 0
M  V30 6377 C 574.169 2.66817 0.755259 0
M  V30 6378 H 577.12 1.58657 -0.0367408 0
M  V30 6379 H 577.141 3.07489 2.24122 0
M  V30 6380 H 576.653 3.83693 0.583219 0
M  V30 6381 H 574.754 2.56948 2.6983 0
M  V30 6382 H 574.867 4.33498 2.04001 0
M  V30 6383 H 573.231 2.2617 1.17128 0
M  V30 6384 H 574.014 3.43294 -0.0211237 0
M  V30 6385 N 576.459 -0.456382 1.50847 0
M  V30 6386 C 577.684 -1.2349 1.66628 0
M  V30 6387 C 578.109 -1.84715 0.355254 0
M  V30 6388 O 577.467 -1.67961 -0.682559 0
M  V30 6389 C 577.515 -2.30865 2.77009 0
M  V30 6390 O 576.619 -3.35882 2.39285 0
M  V30 6391 H 575.96 -0.36266 0.556214 0
M  V30 6392 H 578.49 -0.541374 1.97308 0
M  V30 6393 H 578.5 -2.75949 3.00526 0
M  V30 6394 H 577.175 -1.85677 3.72152 0
M  V30 6395 H 575.752 -2.96406 2.26269 0
M  V30 6396 N 577.937 -1.40673 -0.710563 0
M  V30 6397 C 579.165 -1.42547 -1.4996 0
M  V30 6398 C 579.58 -0.0265485 -1.88781 0
M  V30 6399 O 578.937 0.950694 -1.55782 0
M  V30 6400 C 578.988 -2.32071 -2.77173 0
M  V30 6401 O 578.709 -3.66518 -2.39992 0
M  V30 6402 C 580.21 -2.42591 -3.71032 0
M  V30 6403 H 577.43 -0.486025 -0.462623 0
M  V30 6404 H 579.974 -1.84783 -0.876102 0
M  V30 6405 H 578.129 -1.93184 -3.35795 0
M  V30 6406 H 578.543 -4.14115 -3.21884 0
M  V30 6407 H 580.017 -3.09429 -4.57119 0
M  V30 6408 H 580.494 -1.4525 -4.14486 0
M  V30 6409 H 581.1 -2.82051 -3.18319 0
M  V30 6410 N 579.415 0.9433 -1.26252 0
M  V30 6411 C 580.64 1.72898 -1.14547 0
M  V30 6412 C 581.065 1.85761 0.295743 0
M  V30 6413 O 580.423 1.3463 1.21427 0
M  V30 6414 C 580.471 3.11471 -1.8171 0
M  V30 6415 O 579.575 3.97336 -1.10445 0
M  V30 6416 H 578.916 0.530555 -0.399259 0
M  V30 6417 H 581.446 1.18159 -1.67032 0
M  V30 6418 H 581.456 3.61872 -1.88449 0
M  V30 6419 H 580.131 3.01425 -2.86558 0
M  V30 6420 H 578.708 3.55788 -1.11666 0
M  V30 6421 N 580.893 1.08022 1.14757 0
M  V30 6422 C 581.823 0.728248 2.21853 0
M  V30 6423 C 582.804 -0.287486 1.67653 0
M  V30 6424 O 583.989 -0.158727 1.9355 0
M  V30 6425 C 581.119 0.132549 3.47047 0
M  V30 6426 C 580.073 1.07619 4.14249 0
M  V30 6427 C 579.399 0.342907 5.33599 0
M  V30 6428 C 580.699 2.41268 4.63235 0
M  V30 6429 H 582.393 1.62365 2.51551 0
M  V30 6430 H 579.939 0.782125 1.20908 0
M  V30 6431 H 581.892 -0.125665 4.21213 0
M  V30 6432 H 580.616 -0.797971 3.16702 0
M  V30 6433 H 579.275 1.31944 3.42033 0
M  V30 6434 H 578.923 -0.59129 4.99513 0
M  V30 6435 H 578.623 0.971955 5.79506 0
M  V30 6436 H 580.147 0.0926538 6.1053 0
M  V30 6437 H 581.561 2.21232 5.28894 0
M  V30 6438 H 579.958 2.9983 5.19829 0
M  V30 6439 H 581.028 3.03079 3.78512 0
M  V30 6440 N 582.371 -1.3172 0.865308 0
M  V30 6441 C 583.318 -2.2863 0.315736 0
M  V30 6442 C 584.288 -1.55524 -0.583213 0
M  V30 6443 O 585.473 -1.83694 -0.51585 0
M  V30 6444 C 582.613 -3.41735 -0.480773 0
M  V30 6445 C 581.726 -4.297 0.445167 0
M  V30 6446 C 580.861 -5.29944 -0.365012 0
M  V30 6447 C 579.9 -6.09554 0.557651 0
M  V30 6448 N 579.037 -7.01768 -0.215994 0
M  V30 6449 H 583.877 -2.75026 1.14736 0
M  V30 6450 H 581.414 -1.35302 0.577209 0
M  V30 6451 H 583.372 -4.06045 -0.958306 0
M  V30 6452 H 582.002 -2.96461 -1.27714 0
M  V30 6453 H 581.054 -3.65875 1.04113 0
M  V30 6454 H 582.366 -4.85295 1.15284 0
M  V30 6455 H 581.52 -5.99908 -0.905255 0
M  V30 6456 H 580.259 -4.74994 -1.106 0
M  V30 6457 H 579.264 -5.38485 1.10969 0
M  V30 6458 H 580.489 -6.66591 1.29742 0
M  V30 6459 H 578.435 -6.49232 -0.939878 0
M  V30 6460 H 578.352 -7.54762 0.432431 0
M  V30 6461 H 579.62 -7.76002 -0.737618 0
M  V30 6462 N 583.85 -0.624285 -1.44708 0
M  V30 6463 C 585.127 -0.0572781 -1.95516 0
M  V30 6464 C 585.507 1.41516 -1.56641 0
M  V30 6465 O 584.855 2.12614 -0.837111 0
M  V30 6466 C 585.065 -0.272944 -3.47931 0
M  V30 6467 C 586.413 -0.162529 -4.24289 0
M  V30 6468 O 587.437 -0.203946 -3.55616 0
M  V30 6469 O 586.296 -0.0616847 -5.46465 0
M  V30 6470 H 583.389 0.0262219 -0.826584 0
M  V30 6471 H 585.936 -0.695512 -1.54793 0
M  V30 6472 H 584.707 -1.29492 -3.69253 0
M  V30 6473 H 584.331 0.399756 -3.95585 0
M  V30 6474 N 585.328 1.53329 -0.364422 0
M  V30 6475 C 586.568 2.0315 0.22572 0
M  V30 6476 C 586.932 1.24589 1.46087 0
M  V30 6477 O 588.133 1.64411 2.12656 0
M  V30 6478 C 586.404 3.53718 0.511663 0
M  V30 6479 S 587.963 4.25412 1.07564 0
M  V30 6480 H 584.781 0.70795 0.0657843 0
M  V30 6481 H 587.383 1.88811 -0.507019 0
M  V30 6482 H 586.087 4.08497 -0.394784 0
M  V30 6483 H 585.618 3.72217 1.27351 0
M  V30 6484 H 587.633 4.36486 2.35997 0
M  V30 6485 N 586.806 0.0935595 1.57322 0
M  V30 6486 C 588.031 -0.582324 1.99057 0
M  V30 6487 C 588.456 -1.61025 0.972242 0
M  V30 6488 O 587.814 -1.81202 -0.0594622 0
M  V30 6489 C 587.862 -1.20799 3.39765 0
M  V30 6490 O 586.966 -2.32382 3.40694 0
M  V30 6491 H 586.307 -0.147884 0.647323 0
M  V30 6492 H 588.837 0.174516 2.03854 0
M  V30 6493 H 588.847 -1.54966 3.77425 0
M  V30 6494 H 587.522 -0.454914 4.13405 0
M  V30 6495 H 586.099 -1.99845 3.14827 0
M  V30 6496 N 588.284 -1.56567 -0.180126 0
M  V30 6497 C 589.232 -1.96632 -1.24251 0
M  V30 6498 C 590.226 -0.853818 -1.46309 0
M  V30 6499 O 591.432 -1.0389 -1.46993 0
M  V30 6500 H 587.807 -0.625476 -0.417473 0
M  V30 6501 H 589.778 -2.85201 -0.877679 0
M  V30 6502 C 588.527 -2.33486 -2.57642 0
M  V30 6503 H 587.85 -3.18626 -2.4149 0
M  V30 6504 H 589.29 -2.65371 -3.30688 0
M  V30 6505 C 587.749 -1.17499 -3.15746 0
M  V30 6506 O 588.279 -0.457956 -3.99081 0
M  V30 6507 N 586.485 -0.94786 -2.74707 0
M  V30 6508 H 586.032 -1.53269 -2.07042 0
M  V30 6509 H 585.99 -0.173626 -3.1392 0
M  V30 6510 N 589.762 0.448376 -1.51087 0
M  V30 6511 C 591.008 1.20049 -1.6345 0
M  V30 6512 C 591.341 1.91121 -0.344444 0
M  V30 6513 O 590.616 1.83125 0.655396 0
M  V30 6514 C 590.899 2.22624 -2.83038 0
M  V30 6515 C 590.752 1.55708 -4.21989 0
M  V30 6516 C 592.071 3.23718 -2.98152 0
M  V30 6517 H 589.19 0.435085 -0.59487 0
M  V30 6518 H 591.832 0.491183 -1.83541 0
M  V30 6519 H 589.982 2.83117 -2.66039 0
M  V30 6520 H 591.654 0.986367 -4.50631 0
M  V30 6521 H 589.897 0.859647 -4.25197 0
M  V30 6522 H 590.568 2.30357 -5.01637 0
M  V30 6523 H 593.044 2.73269 -3.13788 0
M  V30 6524 H 591.92 3.92795 -3.83411 0
M  V30 6525 H 592.181 3.89179 -2.09743 0
M  V30 6526 N 591.24 1.41047 0.703093 0
M  V30 6527 C 592.465 1.43537 1.49706 0
M  V30 6528 C 592.89 0.0401853 1.88057 0
M  V30 6529 O 592.248 -0.954785 1.54122 0
M  V30 6530 C 592.296 2.3433 2.74084 0
M  V30 6531 O 591.4 1.79515 3.71279 0
M  V30 6532 H 590.741 0.487454 0.450871 0
M  V30 6533 H 593.271 1.85422 0.86486 0
M  V30 6534 H 593.281 2.49947 3.22476 0
M  V30 6535 H 591.956 3.35708 2.45506 0
M  V30 6536 H 590.533 1.7331 3.30179 0
M  V30 6537 N 592.718 -0.936591 1.26751 0
M  V30 6538 C 593.964 -1.6858 1.12733 0
M  V30 6539 C 594.297 -1.91414 -0.327745 0
M  V30 6540 O 593.572 -1.49812 -1.24043 0
M  V30 6541 C 593.855 -3.05779 1.90187 0
M  V30 6542 C 593.708 -2.90242 3.43627 0
M  V30 6543 C 595.027 -4.0597 1.69931 0
M  V30 6544 H 592.146 -0.61182 0.410908 0
M  V30 6545 H 594.788 -1.08747 1.55801 0
M  V30 6546 H 592.938 -3.56853 1.53584 0
M  V30 6547 H 594.61 -2.46354 3.9001 0
M  V30 6548 H 592.853 -2.2577 3.70419 0
M  V30 6549 H 593.524 -3.87572 3.93055 0
M  V30 6550 H 596 -3.63874 2.0183 0
M  V30 6551 H 594.876 -4.99974 2.26534 0
M  V30 6552 H 595.137 -4.37369 0.64502 0
M  V30 6553 N 594.196 -1.08629 -1.14182 0
M  V30 6554 C 595.473 -0.73002 -1.81466 0
M  V30 6555 C 595.853 0.785996 -1.95922 0
M  V30 6556 O 595.201 1.70535 -1.52086 0
M  V30 6557 C 595.411 -1.45957 -3.17014 0
M  V30 6558 C 596.759 -1.62008 -3.92477 0
M  V30 6559 O 597.783 -1.42141 -3.26611 0
M  V30 6560 O 596.642 -1.94806 -5.106 0
M  V30 6561 H 593.736 -0.261307 -0.784632 0
M  V30 6562 H 596.282 -1.188 -1.2118 0
M  V30 6563 H 595.054 -2.49221 -3.01669 0
M  V30 6564 H 594.677 -0.993222 -3.84995 0
M  V30 6565 N 595.674 1.31259 -0.872281 0
M  V30 6566 C 596.624 2.26 -0.301295 0
M  V30 6567 C 597.608 1.50729 0.562991 0
M  V30 6568 O 598.8 1.72198 0.40949 0
M  V30 6569 C 595.929 3.39724 0.494227 0
M  V30 6570 C 595.015 4.22363 -0.383432 0
M  V30 6571 N 595.406 4.83724 -1.47799 0
M  V30 6572 C 593.704 4.45652 -0.176278 0
M  V30 6573 C 594.405 5.45523 -2.01939 0
M  V30 6574 N 593.381 5.27428 -1.31608 0
M  V30 6575 H 597.183 2.70981 -1.13782 0
M  V30 6576 H 594.697 1.45552 -0.720294 0
M  V30 6577 H 596.694 4.06626 0.919828 0
M  V30 6578 H 595.354 2.96286 1.32834 0
M  V30 6579 H 596.365 4.83313 -1.8609 0
M  V30 6580 H 593.042 4.12845 0.621698 0
M  V30 6581 H 594.432 6.04268 -2.93786 0
M  V30 6582 N 597.152 0.631951 1.44375 0
M  V30 6583 C 598.38 0.143867 2.06399 0
M  V30 6584 C 598.795 -1.18188 1.47231 0
M  V30 6585 O 598.152 -1.72511 0.595498 0
M  V30 6586 C 598.203 0.0238253 3.61492 0
M  V30 6587 O 597.924 1.29715 4.18456 0
M  V30 6588 C 599.425 -0.492856 4.40552 0
M  V30 6589 H 596.645 0.0800542 0.666207 0
M  V30 6590 H 599.189 0.866586 1.85231 0
M  V30 6591 H 597.344 -0.649338 3.81919 0
M  V30 6592 H 597.758 1.14252 5.11905 0
M  V30 6593 H 599.232 -0.525861 5.49489 0
M  V30 6594 H 599.709 -1.52006 4.12057 0
M  V30 6595 H 600.315 0.147085 4.25046 0
M  V30 6596 N 598.631 -1.53133 0.372548 0
M  V30 6597 C 600.047 -1.59585 0.02178 0
M  V30 6598 C 600.247 -1.38736 -1.46132 0
M  V30 6599 O 599.303 -1.19599 -2.22379 0
M  V30 6600 C 600.616 -2.9678 0.483959 0
M  V30 6601 C 602.164 -3.09909 0.438775 0
M  V30 6602 C 602.639 -4.49527 0.876876 0
M  V30 6603 N 604.13 -4.55663 0.832214 0
M  V30 6604 C 604.865 -5.61896 1.14281 0
M  V30 6605 N 604.361 -6.75852 1.52303 0
M  V30 6606 N 606.154 -5.51916 1.06515 0
M  V30 6607 H 598.305 -1.64936 1.33827 0
M  V30 6608 H 600.568 -0.773947 0.547458 0
M  V30 6609 H 600.274 -3.17198 1.51915 0
M  V30 6610 H 600.148 -3.7699 -0.125784 0
M  V30 6611 H 602.535 -2.89197 -0.587294 0
M  V30 6612 H 602.616 -2.31691 1.0841 0
M  V30 6613 H 602.26 -4.70979 1.90109 0
M  V30 6614 H 602.19 -5.26186 0.208727 0
M  V30 6615 H 604.681 -3.73844 0.552195 0
M  V30 6616 H 604.994 -7.52862 1.7441 0
M  V30 6617 H 603.339 -6.77226 1.56175 0
M  V30 6618 H 606.53 -4.6177 0.767235 0
M  V30 6619 H 606.703 -6.34609 1.31053 0
M  V30 6620 N 600.109 -0.101901 -1.5727 0
M  V30 6621 C 601.057 0.872034 -2.15635 0
M  V30 6622 C 602.051 1.28742 -1.10099 0
M  V30 6623 O 603.257 1.26116 -1.28432 0
M  V30 6624 H 599.632 0.299269 -0.689886 0
M  V30 6625 H 601.603 0.355137 -2.96279 0
M  V30 6626 C 600.352 2.11886 -2.7568 0
M  V30 6627 H 599.675 1.80813 -3.56576 0
M  V30 6628 H 601.115 2.78077 -3.20077 0
M  V30 6629 C 599.574 2.89739 -1.7191 0
M  V30 6630 O 600.104 3.84522 -1.16213 0
M  V30 6631 N 598.31 2.53407 -1.42245 0
M  V30 6632 H 597.857 1.76398 -1.87727 0
M  V30 6633 H 597.815 3.05795 -0.730529 0
M  V30 6634 N 601.587 1.56661 0.17182 0
M  V30 6635 C 602.998 1.71652 0.734329 0
M  V30 6636 C 603.349 0.712335 1.82812 0
M  V30 6637 O 602.474 -0.126401 2.16031 0
M  V30 6638 C 603.069 3.11226 1.3388 0
M  V30 6639 C 601.628 3.27904 1.84813 0
M  V30 6640 C 600.775 2.67603 0.726917 0
M  V30 6641 H 603.726 1.5861 -0.0535665 0
M  V30 6642 H 603.747 3.09849 2.20849 0
M  V30 6643 H 603.259 3.8429 0.54249 0
M  V30 6644 H 601.36 2.59796 2.6709 0
M  V30 6645 H 601.473 4.35637 1.99392 0
M  V30 6646 H 599.837 2.274 1.14723 0
M  V30 6647 H 600.62 3.43252 -0.0575334 0
M  V30 6648 N 603.065 -0.440357 1.51323 0
M  V30 6649 C 604.29 -1.21716 1.67928 0
M  V30 6650 C 604.715 -1.84328 0.374826 0
M  V30 6651 O 604.073 -1.68675 -0.664706 0
M  V30 6652 C 604.121 -2.27914 2.79442 0
M  V30 6653 O 603.225 -3.33325 2.42834 0
M  V30 6654 H 602.566 -0.35674 0.560029 0
M  V30 6655 H 605.096 -0.520417 1.97871 0
M  V30 6656 H 605.106 -2.72746 3.03436 0
M  V30 6657 H 603.781 -1.8172 3.741 0
M  V30 6658 H 602.358 -2.9399 2.294 0
M  V30 6659 N 604.543 -1.41418 -0.695603 0
M  V30 6660 C 605.789 -1.40982 -1.4578 0
M  V30 6661 C 606.122 -0.0187763 -1.94191 0
M  V30 6662 O 605.397 0.95346 -1.69527 0
M  V30 6663 C 605.68 -2.41657 -2.66972 0
M  V30 6664 C 605.533 -3.89869 -2.24327 0
M  V30 6665 C 606.852 -2.39589 -3.69168 0
M  V30 6666 H 603.971 -0.513405 -0.528757 0
M  V30 6667 H 606.613 -1.72693 -0.792275 0
M  V30 6668 H 604.763 -2.14746 -3.23754 0
M  V30 6669 H 606.435 -4.27683 -1.72872 0
M  V30 6670 H 604.678 -4.04737 -1.56111 0
M  V30 6671 H 605.349 -4.55857 -3.11285 0
M  V30 6672 H 607.825 -2.63471 -3.2206 0
M  V30 6673 H 606.701 -3.12044 -4.51575 0
M  V30 6674 H 606.962 -1.41447 -4.18862 0
M  V30 6675 N 606.021 0.929856 -1.27246 0
M  V30 6676 C 606.984 2.01172 -1.09829 0
M  V30 6677 C 607.984 1.60743 -0.0429687 0
M  V30 6678 O 609.174 1.71813 -0.287373 0
M  V30 6679 C 606.306 3.34191 -0.673003 0
M  V30 6680 H 607.499 2.18054 -2.05895 0
M  V30 6681 H 605.052 1.11036 -1.10003 0
M  V30 6682 H 605.787 3.23009 0.289134 0
M  V30 6683 H 605.572 3.64892 -1.43515 0
M  V30 6684 H 607.062 4.13646 -0.573323 0
M  V30 6685 N 607.499 1.09233 1.13605 0
M  V30 6686 C 608.748 0.82205 1.84188 0
M  V30 6687 C 609.061 -0.654548 1.84323 0
M  V30 6688 O 610.267 -1.04029 2.50779 0
M  V30 6689 C 608.723 1.42066 3.30674 0
M  V30 6690 C 608.331 2.92965 3.38933 0
M  V30 6691 C 610.075 1.22924 4.06313 0
M  V30 6692 C 607.982 3.45922 4.79679 0
M  V30 6693 H 606.912 0.303854 0.690064 0
M  V30 6694 H 609.563 1.31479 1.28006 0
M  V30 6695 H 607.945 0.855613 3.86646 0
M  V30 6696 H 609.119 3.55679 2.92966 0
M  V30 6697 H 607.434 3.11118 2.76757 0
M  V30 6698 H 610.031 1.59945 5.10217 0
M  V30 6699 H 610.374 0.169726 4.15954 0
M  V30 6700 H 610.907 1.76168 3.56665 0
M  V30 6701 H 607.646 4.51484 4.75229 0
M  V30 6702 H 607.166 2.87971 5.26149 0
M  V30 6703 H 608.845 3.43009 5.48592 0
M  V30 6704 N 608.977 -1.30795 0.87923 0
M  V30 6705 C 610.388 -1.78535 0.546093 0
M  V30 6706 C 610.739 -1.72354 -0.937467 0
M  V30 6707 O 609.864 -1.2969 -1.73233 0
M  V30 6708 C 610.459 -3.24181 0.9845 0
M  V30 6709 C 609.018 -3.69779 0.702871 0
M  V30 6710 C 608.165 -2.51377 1.17068 0
M  V30 6711 H 611.116 -1.17746 1.06403 0
M  V30 6712 H 611.137 -3.79227 0.311045 0
M  V30 6713 H 610.649 -3.28647 2.06429 0
M  V30 6714 H 608.75 -3.70806 -0.365166 0
M  V30 6715 H 608.863 -4.61507 1.28639 0
M  V30 6716 H 607.227 -2.47768 0.590172 0
M  V30 6717 H 608.01 -2.58584 2.25808 0
M  V30 6718 N 610.455 -0.639598 -1.44038 0
M  V30 6719 C 611.866 -0.228866 -1.85292 0
M  V30 6720 C 612.217 1.22161 -1.53529 0
M  V30 6721 O 611.342 1.93064 -0.977518 0
M  V30 6722 C 611.937 -0.408592 -3.36327 0
M  V30 6723 C 610.496 -0.0522953 -3.76364 0
M  V30 6724 C 609.643 -0.717959 -2.67844 0
M  V30 6725 H 612.594 -0.844194 -1.34384 0
M  V30 6726 H 612.615 0.349968 -3.78887 0
M  V30 6727 H 612.127 -1.46435 -3.59414 0
M  V30 6728 H 610.228 1.0014 -3.58891 0
M  V30 6729 H 610.341 -0.468261 -4.76806 0
M  V30 6730 H 608.705 -0.152459 -2.54243 0
M  V30 6731 H 609.488 -1.77648 -2.93762 0
M  V30 6732 N 611.933 1.52934 -0.380664 0
M  V30 6733 C 612.863 2.29118 0.450268 0
M  V30 6734 C 613.844 1.32153 1.07096 0
M  V30 6735 O 615.029 1.61038 1.08537 0
M  V30 6736 C 612.159 3.09161 1.58231 0
M  V30 6737 C 611.113 4.13938 1.0881 0
M  V30 6738 C 610.439 4.82153 2.31155 0
M  V30 6739 C 611.739 5.22048 0.162146 0
M  V30 6740 H 613.433 2.98826 -0.185361 0
M  V30 6741 H 610.979 1.43715 -0.0905886 0
M  V30 6742 H 612.932 3.61211 2.17036 0
M  V30 6743 H 611.656 2.3717 2.2454 0
M  V30 6744 H 610.315 3.62855 0.522633 0
M  V30 6745 H 609.963 4.06719 2.95953 0
M  V30 6746 H 609.663 5.52966 1.98752 0
M  V30 6747 H 611.187 5.37004 2.90618 0
M  V30 6748 H 612.601 5.6951 0.658126 0
M  V30 6749 H 610.998 6.00057 -0.0717122 0
M  V30 6750 H 612.068 4.78398 -0.791438 0
M  V30 6751 N 613.412 0.11024 1.57214 0
M  V30 6752 C 614.64 -0.557834 1.99238 0
M  V30 6753 C 615.055 -1.60778 0.989734 0
M  V30 6754 O 614.412 -1.82491 -0.0186092 0
M  V30 6755 C 614.463 -1.19189 3.41286 0
M  V30 6756 O 614.184 -0.183919 4.37714 0
M  V30 6757 C 615.685 -1.94413 3.98395 0
M  V30 6758 H 612.905 -0.148392 0.654386 0
M  V30 6759 H 615.449 0.193996 2.03578 0
M  V30 6760 H 613.604 -1.89456 3.37913 0
M  V30 6761 H 614.018 -0.643475 5.20538 0
M  V30 6762 H 615.492 -2.34116 4.99894 0
M  V30 6763 H 615.969 -2.81592 3.3705 0
M  V30 6764 H 616.575 -1.28928 4.05287 0
M  V30 6765 N 614.89 -1.56749 -0.16351 0
M  V30 6766 C 615.84 -1.93424 -1.20712 0
M  V30 6767 C 616.824 -0.803469 -1.39403 0
M  V30 6768 O 618.016 -1.06675 -1.41243 0
M  V30 6769 C 615.145 -2.30431 -2.54473 0
M  V30 6770 C 614.231 -3.5004 -2.39443 0
M  V30 6771 N 614.622 -4.67058 -1.9414 0
M  V30 6772 C 612.92 -3.548 -2.70246 0
M  V30 6773 C 613.621 -5.49184 -1.9176 0
M  V30 6774 N 612.597 -4.9044 -2.34457 0
M  V30 6775 H 616.399 -2.8138 -0.848681 0
M  V30 6776 H 613.913 -1.58089 -0.371717 0
M  V30 6777 H 615.91 -2.54903 -3.29894 0
M  V30 6778 H 614.57 -1.43818 -2.91112 0
M  V30 6779 H 615.581 -4.91128 -1.64357 0
M  V30 6780 H 612.258 -2.78685 -3.10871 0
M  V30 6781 H 613.648 -6.5297 -1.58366 0
M  V30 6782 N 616.368 0.432326 -1.51554 0
M  V30 6783 C 617.316 1.54572 -1.73811 0
M  V30 6784 C 618.31 1.58246 -0.604539 0
M  V30 6785 O 619.516 1.6193 -0.786041 0
M  V30 6786 H 615.891 0.513626 -0.549265 0
M  V30 6787 H 617.862 1.32977 -2.67132 0
M  V30 6788 C 616.611 2.92181 -1.88483 0
M  V30 6789 H 615.934 2.90088 -2.75116 0
M  V30 6790 H 617.374 3.69439 -2.08065 0
M  V30 6791 C 615.833 3.3065 -0.645909 0
M  V30 6792 O 616.363 4.01216 0.197093 0
M  V30 6793 N 614.569 2.86464 -0.488538 0
M  V30 6794 H 614.116 2.29209 -1.17562 0
M  V30 6795 H 614.074 3.12565 0.339156 0
M  V30 6796 N 617.846 1.41785 0.688094 0
M  V30 6797 C 618.776 1.47 1.8142 0
M  V30 6798 C 619.757 0.327881 1.6691 0
M  V30 6799 O 620.942 0.540362 1.86531 0
M  V30 6800 C 618.072 1.35876 3.19617 0
M  V30 6801 C 617.026 2.47976 3.48844 0
M  V30 6802 C 616.352 2.21915 4.86475 0
M  V30 6803 C 617.652 3.90309 3.47068 0
M  V30 6804 H 619.346 2.41247 1.77314 0
M  V30 6805 H 616.892 1.16116 0.851651 0
M  V30 6806 H 618.845 1.38134 3.98117 0
M  V30 6807 H 617.569 0.38116 3.24368 0
M  V30 6808 H 616.228 2.45013 2.72698 0
M  V30 6809 H 615.876 1.2248 4.8786 0
M  V30 6810 H 615.576 2.97037 5.06994 0
M  V30 6811 H 617.1 2.25901 5.67275 0
M  V30 6812 H 618.514 3.94947 4.1556 0
M  V30 6813 H 616.911 4.65175 3.7912 0
M  V30 6814 H 617.981 4.17927 2.45896 0
M  V30 6815 N 619.324 -0.923095 1.27737 0
M  V30 6816 C 620.549 -1.71054 1.17283 0
M  V30 6817 C 620.974 -1.86208 -0.266153 0
M  V30 6818 O 620.332 -1.36545 -1.1927 0
M  V30 6819 C 620.38 -3.0854 1.86642 0
M  V30 6820 O 619.484 -3.95528 1.16752 0
M  V30 6821 H 618.825 -0.524136 0.407649 0
M  V30 6822 H 621.355 -1.15487 1.6889 0
M  V30 6823 H 621.365 -3.58828 1.94182 0
M  V30 6824 H 620.04 -2.96828 2.91317 0
M  V30 6825 H 618.617 -3.53967 1.17312 0
M  V30 6826 N 620.802 -1.09834 -1.13024 0
M  V30 6827 C 621.765 -0.745058 -2.16752 0
M  V30 6828 C 622.765 0.227435 -1.59183 0
M  V30 6829 O 623.955 0.0050786 -1.74199 0
M  V30 6830 C 621.087 -0.102543 -3.40746 0
M  V30 6831 H 622.28 -1.66375 -2.49518 0
M  V30 6832 H 619.833 -0.898061 -1.27924 0
M  V30 6833 H 620.568 0.827177 -3.13573 0
M  V30 6834 H 620.353 -0.80235 -3.83803 0
M  V30 6835 H 621.843 0.129082 -4.174 0
M  V30 6836 N 622.28 1.30327 -0.886154 0
M  V30 6837 C 623.526 1.96388 -0.505941 0
M  V30 6838 C 623.859 1.69784 0.942712 0
M  V30 6839 O 623.134 1.00322 1.6663 0
M  V30 6840 C 623.417 3.51488 -0.782826 0
M  V30 6841 C 623.27 3.87603 -2.28219 0
M  V30 6842 C 624.589 4.39331 -0.260128 0
M  V30 6843 H 621.708 0.713327 -0.185292 0
M  V30 6844 H 624.35 1.54178 -1.11036 0
M  V30 6845 H 622.5 3.87572 -0.268399 0
M  V30 6846 H 624.172 3.61537 -2.86512 0
M  V30 6847 H 622.415 3.3563 -2.74837 0
M  V30 6848 H 623.086 4.95806 -2.42653 0
M  V30 6849 H 625.562 4.10162 -0.700444 0
M  V30 6850 H 624.438 5.46769 -0.483179 0
M  V30 6851 H 624.699 4.34072 0.838674 0
M  V30 6852 N 623.758 0.647228 1.43697 0
M  V30 6853 C 624.721 -0.0385101 2.29168 0
M  V30 6854 C 625.721 -0.756487 1.41894 0
M  V30 6855 O 626.911 -0.598641 1.63591 0
M  V30 6856 C 624.043 -1.06524 3.23829 0
M  V30 6857 H 625.236 0.713445 2.9129 0
M  V30 6858 H 622.789 0.408153 1.50877 0
M  V30 6859 H 623.524 -1.84664 2.66589 0
M  V30 6860 H 623.309 -0.554147 3.88164 0
M  V30 6861 H 624.799 -1.54432 3.87996 0
M  V30 6862 N 625.236 -1.5273 0.388769 0
M  V30 6863 C 626.647 -1.86505 -0.0853788 0
M  V30 6864 C 626.998 -1.30847 -1.46197 0
M  V30 6865 O 626.123 -0.639609 -2.06732 0
M  V30 6866 C 626.718 -3.38414 -0.161703 0
M  V30 6867 C 625.277 -3.71902 -0.580144 0
M  V30 6868 C 624.424 -2.76095 0.258218 0
M  V30 6869 H 627.375 -1.46647 0.606665 0
M  V30 6870 H 627.396 -3.67638 -0.980936 0
M  V30 6871 H 626.908 -3.78893 0.840333 0
M  V30 6872 H 625.009 -3.36992 -1.58957 0
M  V30 6873 H 625.122 -4.77902 -0.338663 0
M  V30 6874 H 623.486 -2.53195 -0.276432 0
M  V30 6875 H 624.269 -3.19411 1.25822 0
M  V30 6876 N 626.714 -0.118576 -1.57153 0
M  V30 6877 C 627.939 0.550582 -1.99958 0
M  V30 6878 C 628.364 1.59458 -0.997736 0
M  V30 6879 O 627.722 1.81274 0.0306269 0
M  V30 6880 C 627.77 1.15379 -3.41643 0
M  V30 6881 O 626.874 2.26932 -3.44348 0
M  V30 6882 H 626.215 0.137567 -0.649593 0
M  V30 6883 H 628.745 -0.206926 -2.03551 0
M  V30 6884 H 628.755 1.48942 -3.79843 0
M  V30 6885 H 627.43 0.389087 -4.14076 0
M  V30 6886 H 626.007 1.94812 -3.17967 0
M  V30 6887 N 628.193 1.56834 0.155195 0
M  V30 6888 C 629.442 1.82088 0.867567 0
M  V30 6889 C 629.755 0.69849 1.82703 0
M  V30 6890 O 630.961 0.836407 2.58295 0
M  V30 6891 C 629.417 3.22707 1.59336 0
M  V30 6892 C 629.025 4.42859 0.676719 0
M  V30 6893 C 630.769 3.57242 2.293 0
M  V30 6894 C 628.676 5.74501 1.40367 0
M  V30 6895 H 627.606 0.679057 0.327715 0
M  V30 6896 H 630.257 1.83105 0.120351 0
M  V30 6897 H 628.639 3.16054 2.38591 0
M  V30 6898 H 629.813 4.60731 -0.0800196 0
M  V30 6899 H 628.128 4.16311 0.0859129 0
M  V30 6900 H 630.725 4.52847 2.84312 0
M  V30 6901 H 631.068 2.82901 3.05406 0
M  V30 6902 H 631.601 3.6552 1.56972 0
M  V30 6903 H 628.34 6.51915 0.684623 0
M  V30 6904 H 627.86 5.60579 2.13332 0
M  V30 6905 H 629.539 6.17016 1.94681 0
M  V30 6906 N 629.671 -0.424282 1.51781 0
M  V30 6907 C 630.619 -1.53649 1.74628 0
M  V30 6908 C 631.613 -1.57923 0.612922 0
M  V30 6909 O 632.819 -1.61511 0.794618 0
M  V30 6910 H 629.194 -0.510706 0.551981 0
M  V30 6911 H 631.165 -1.31558 2.67834 0
M  V30 6912 C 629.914 -2.91177 1.9003 0
M  V30 6913 H 629.237 -2.88625 2.76651 0
M  V30 6914 H 630.677 -3.6833 2.10021 0
M  V30 6915 C 629.136 -3.30303 0.663435 0
M  V30 6916 O 629.666 -4.01315 -0.175812 0
M  V30 6917 N 627.872 -2.86201 0.503723 0
M  V30 6918 H 627.419 -2.28583 1.18776 0
M  V30 6919 H 627.377 -3.12741 -0.322575 0
M  V30 6920 N 631.149 -1.42148 -0.680565 0
M  V30 6921 C 632.374 -1.45901 -1.47403 0
M  V30 6922 C 632.799 -0.0700985 -1.87969 0
M  V30 6923 O 632.157 0.930145 -1.55621 0
M  V30 6924 C 632.205 -2.38661 -2.70321 0
M  V30 6925 O 631.309 -1.85399 -3.68376 0
M  V30 6926 H 630.65 -0.494565 -0.443059 0
M  V30 6927 H 633.18 -1.86774 -0.835251 0
M  V30 6928 H 633.19 -2.55046 -3.18458 0
M  V30 6929 H 631.865 -3.39571 -2.40134 0
M  V30 6930 H 630.442 -1.78541 -3.2738 0
M  V30 6931 N 632.627 0.916307 -1.28225 0
M  V30 6932 C 633.875 1.6619 -1.15002 0
M  V30 6933 C 634.196 1.92642 0.302329 0
M  V30 6934 O 633.466 1.54076 1.20985 0
M  V30 6935 H 632.046 0.615964 -0.422608 0
M  V30 6936 H 634.708 1.09963 -1.60917 0
M  V30 6937 H 633.804 2.62533 -1.68769 0
M  V30 6938 N 634.105 1.10431 1.1244 0
M  V30 6939 C 635.038 0.696987 2.17296 0
M  V30 6940 C 636.016 -0.301673 1.59777 0
M  V30 6941 O 637.2 -0.200583 1.8743 0
M  V30 6942 C 634.327 0.0284094 3.38688 0
M  V30 6943 C 633.373 0.990536 4.14838 0
M  V30 6944 S 634.206 2.50785 4.73146 0
M  V30 6945 C 635.362 1.85198 5.97873 0
M  V30 6946 H 635.595 1.58523 2.51511 0
M  V30 6947 H 633.128 0.921312 1.239 0
M  V30 6948 H 635.086 -0.351009 4.08997 0
M  V30 6949 H 633.747 -0.836629 3.02753 0
M  V30 6950 H 632.94 0.469991 5.01804 0
M  V30 6951 H 632.542 1.31186 3.50237 0
M  V30 6952 H 634.834 1.18217 6.67106 0
M  V30 6953 H 635.777 2.7012 6.54554 0
M  V30 6954 H 636.185 1.31653 5.48933 0
M  V30 6955 N 635.583 -1.29855 0.893053 0
M  V30 6956 C 636.831 -1.9544 0.514566 0
M  V30 6957 C 637.152 -1.70795 -0.940959 0
M  V30 6958 O 636.422 -1.03601 -1.66264 0
M  V30 6959 H 635.002 -0.723137 0.187302 0
M  V30 6960 H 637.664 -1.58234 1.13789 0
M  V30 6961 H 636.76 -3.04341 0.691581 0
M  V30 6962 N 637.061 -0.65484 -1.43351 0
M  V30 6963 C 638.289 -0.176685 -2.06144 0
M  V30 6964 C 638.704 1.15831 -1.49093 0
M  V30 6965 O 638.061 1.71542 -0.622868 0
M  V30 6966 C 638.112 -0.0813326 -3.61408 0
M  V30 6967 O 637.833 -1.36355 -4.1634 0
M  V30 6968 C 639.334 0.422706 -4.4128 0
M  V30 6969 H 636.554 -0.0906429 -0.66485 0
M  V30 6970 H 639.098 -0.895945 -1.83829 0
M  V30 6971 H 637.253 0.588496 -3.82904 0
M  V30 6972 H 637.667 -1.22381 -5.10023 0
M  V30 6973 H 639.141 0.438375 -5.50257 0
M  V30 6974 H 639.618 1.45432 -4.14423 0
M  V30 6975 H 640.224 -0.214687 -4.24758 0
M  V30 6976 N 638.539 1.52521 -0.396863 0
M  V30 6977 C 639.449 2.30403 0.44178 0
M  V30 6978 C 640.465 1.37625 1.06468 0
M  V30 6979 O 641.641 1.70697 1.06886 0
M  V30 6980 C 638.706 3.1013 1.54986 0
M  V30 6981 C 637.767 4.18628 0.951279 0
M  V30 6982 C 637 4.94543 2.00655 0
M  V30 6983 O 637.223 4.70629 3.22281 0
M  V30 6984 O 636.157 5.797 1.61962 0
M  V30 6985 H 639.983 3.03087 -0.192892 0
M  V30 6986 H 637.568 1.48537 -0.16038 0
M  V30 6987 H 639.45 3.59816 2.19341 0
M  V30 6988 H 638.125 2.40251 2.16935 0
M  V30 6989 H 637.032 3.73119 0.270773 0
M  V30 6990 H 638.365 4.90763 0.375887 0
M  V30 6991 N 640.017 0.126909 1.57088 0
M  V30 6992 C 641.245 -0.53667 1.99819 0
M  V30 6993 C 641.66 -1.5972 1.00673 0
M  V30 6994 O 641.017 -1.825 0.000747365 0
M  V30 6995 C 641.068 -1.15563 3.42531 0
M  V30 6996 O 640.789 -0.137483 4.37884 0
M  V30 6997 C 642.29 -1.90176 4.00435 0
M  V30 6998 H 639.51 -0.141443 0.655923 0
M  V30 6999 H 642.054 0.215578 2.03361 0
M  V30 7000 H 640.209 -1.85861 3.39904 0
M  V30 7001 H 640.623 -0.588229 5.21191 0
M  V30 7002 H 642.097 -2.28801 5.02349 0
M  V30 7003 H 642.574 -2.78002 3.40017 0
M  V30 7004 H 643.18 -1.24623 4.06632 0
M  V30 7005 N 641.495 -1.56914 -0.146875 0
M  V30 7006 C 642.744 -1.82546 -0.857898 0
M  V30 7007 C 643.057 -0.708169 -1.8233 0
M  V30 7008 O 644.263 -0.850093 -2.57848 0
M  V30 7009 C 642.719 -3.23548 -1.57623 0
M  V30 7010 C 642.327 -4.43212 -0.653224 0
M  V30 7011 C 644.071 -3.58453 -2.27402 0
M  V30 7012 C 641.978 -5.75237 -1.37318 0
M  V30 7013 H 640.908 -0.680786 -0.32411 0
M  V30 7014 H 643.559 -1.83166 -0.110639 0
M  V30 7015 H 641.941 -3.17315 -2.36912 0
M  V30 7016 H 643.115 -4.60682 0.104452 0
M  V30 7017 H 641.43 -4.16351 -0.0638336 0
M  V30 7018 H 644.027 -4.54349 -2.81907 0
M  V30 7019 H 644.37 -2.84516 -3.03901 0
M  V30 7020 H 644.903 -3.66347 -1.55032 0
M  V30 7021 H 641.642 -6.52269 -0.650041 0
M  V30 7022 H 641.162 -5.61703 -2.10357 0
M  V30 7023 H 642.841 -6.18039 -1.91406 0
M  V30 7024 N 642.974 0.416227 -1.52004 0
M  V30 7025 C 644.385 0.995319 -1.57957 0
M  V30 7026 C 644.736 1.91744 -0.415754 0
M  V30 7027 O 643.861 2.11349 0.464808 0
M  V30 7028 C 644.456 1.81191 -2.86278 0
M  V30 7029 C 643.015 2.34115 -2.94732 0
M  V30 7030 C 642.162 1.139 -2.52828 0
M  V30 7031 H 645.113 0.196716 -1.57476 0
M  V30 7032 H 645.134 2.66859 -2.71231 0
M  V30 7033 H 644.646 1.14051 -3.70963 0
M  V30 7034 H 642.747 3.04647 -2.14525 0
M  V30 7035 H 642.86 2.65466 -3.98829 0
M  V30 7036 H 641.224 1.49081 -2.06511 0
M  V30 7037 H 642.007 0.483383 -3.3988 0
M  V30 7038 N 644.452 1.42507 0.673017 0
M  V30 7039 C 645.701 1.42364 1.42883 0
M  V30 7040 C 646.014 0.0441598 1.9555 0
M  V30 7041 O 647.22 -0.0798679 2.71382 0
M  V30 7042 C 645.676 2.5043 2.58482 0
M  V30 7043 C 645.284 3.94392 2.12506 0
M  V30 7044 C 647.028 2.59455 3.35981 0
M  V30 7045 C 644.935 4.93964 3.25198 0
M  V30 7046 H 643.865 0.52951 0.536782 0
M  V30 7047 H 646.516 1.68422 0.728448 0
M  V30 7048 H 644.898 2.1754 3.30896 0
M  V30 7049 H 646.072 4.36645 1.47233 0
M  V30 7050 H 644.387 3.89233 1.4794 0
M  V30 7051 H 646.984 3.31025 4.19912 0
M  V30 7052 H 647.327 1.63869 3.82691 0
M  V30 7053 H 647.86 2.91549 2.70637 0
M  V30 7054 H 644.599 5.91034 2.83477 0
M  V30 7055 H 644.119 4.56341 3.89247 0
M  V30 7056 H 645.798 5.15763 3.90637 0
M  V30 7057 N 645.93 -0.909495 1.28709 0
M  V30 7058 C 646.862 -2.01729 1.08804 0
M  V30 7059 C 647.875 -1.62755 0.0384739 0
M  V30 7060 O 649.064 -1.76259 0.281977 0
M  V30 7061 C 646.164 -3.32952 0.63217 0
M  V30 7062 C 645.337 -4.00512 1.75809 0
M  V30 7063 C 644.396 -5.10019 1.29488 0
M  V30 7064 O 643.422 -5.32986 1.99787 0
M  V30 7065 N 644.624 -5.80278 0.1604 0
M  V30 7066 H 647.389 -2.19362 2.04207 0
M  V30 7067 H 644.95 -1.08106 1.20518 0
M  V30 7068 H 646.942 -4.03543 0.305802 0
M  V30 7069 H 645.512 -3.11759 -0.229134 0
M  V30 7070 H 644.732 -3.23413 2.25383 0
M  V30 7071 H 646.02 -4.42395 2.51325 0
M  V30 7072 H 645.418 -5.64094 -0.425937 0
M  V30 7073 H 643.975 -6.51713 -0.106663 0
M  V30 7074 N 647.408 -1.11026 -1.11852 0
M  V30 7075 C 648.656 -0.854769 -1.83134 0
M  V30 7076 C 648.977 0.621375 -1.84835 0
M  V30 7077 O 648.247 1.45129 -1.31584 0
M  V30 7078 H 646.827 -0.313229 -0.678157 0
M  V30 7079 H 649.489 -1.40178 -1.35411 0
M  V30 7080 H 648.585 -1.22311 -2.87135 0
M  V30 7081 N 648.886 1.2938 -0.899927 0
M  V30 7082 C 650.116 1.99402 -0.540601 0
M  V30 7083 C 650.524 1.67534 0.87914 0
M  V30 7084 O 649.867 0.916821 1.59186 0
M  V30 7085 C 649.929 3.53514 -0.653326 0
M  V30 7086 C 649.593 4.08937 -2.04009 0
M  V30 7087 C 650.59 4.23815 -3.01126 0
M  V30 7088 C 648.275 4.43962 -2.34953 0
M  V30 7089 C 650.269 4.72951 -4.27313 0
M  V30 7090 C 647.956 4.92795 -3.61382 0
M  V30 7091 C 648.954 5.07244 -4.57376 0
M  V30 7092 O 648.642 5.55017 -5.8156 0
M  V30 7093 H 648.374 0.64383 -0.206057 0
M  V30 7094 H 650.928 1.65878 -1.21134 0
M  V30 7095 H 649.158 3.86628 0.0744449 0
M  V30 7096 H 650.847 4.04767 -0.303118 0
M  V30 7097 H 651.613 3.97043 -2.78535 0
M  V30 7098 H 647.492 4.31974 -1.60994 0
M  V30 7099 H 651.036 4.84144 -5.02245 0
M  V30 7100 H 646.933 5.19004 -3.83804 0
M  V30 7101 H 647.701 5.73331 -5.84153 0
M  V30 7102 N 650.364 0.662433 1.43002 0
M  V30 7103 C 651.78 0.330835 1.56133 0
M  V30 7104 C 651.98 -1.16454 1.64441 0
M  V30 7105 O 651.036 -1.94964 1.60453 0
M  V30 7106 C 652.349 1.05029 2.81761 0
M  V30 7107 C 653.897 1.03142 2.95518 0
M  V30 7108 C 654.372 1.73196 4.2399 0
M  V30 7109 N 655.863 1.70004 4.30875 0
M  V30 7110 C 656.598 2.21074 5.29069 0
M  V30 7111 N 656.094 2.80473 6.33488 0
M  V30 7112 N 657.887 2.1152 5.20784 0
M  V30 7113 H 650.038 1.63272 1.35853 0
M  V30 7114 H 652.301 0.687149 0.653092 0
M  V30 7115 H 652.007 2.10542 2.81718 0
M  V30 7116 H 651.881 0.607664 3.72273 0
M  V30 7117 H 654.268 -0.0153339 2.95096 0
M  V30 7118 H 654.349 1.51282 2.0627 0
M  V30 7119 H 653.993 2.77833 4.25172 0
M  V30 7120 H 653.923 1.22515 5.1215 0
M  V30 7121 H 656.414 1.26667 3.56039 0
M  V30 7122 H 656.727 3.17094 7.04749 0
M  V30 7123 H 655.072 2.84538 6.34085 0
M  V30 7124 H 658.263 1.64814 4.38126 0
M  V30 7125 H 658.436 2.51629 5.97149 0
M  V30 7126 N 651.842 -1.52309 0.404946 0
M  V30 7127 C 653.088 -2.02065 -0.172455 0
M  V30 7128 C 653.421 -1.29022 -1.45145 0
M  V30 7129 O 652.696 -0.395284 -1.90441 0
M  V30 7130 C 652.979 -3.5759 -0.424433 0
M  V30 7131 C 652.832 -4.41287 0.870945 0
M  V30 7132 C 654.151 -4.23186 -1.20837 0
M  V30 7133 H 651.27 -0.734454 -0.0612035 0
M  V30 7134 H 653.912 -1.82236 0.53759 0
M  V30 7135 H 652.062 -3.74617 -1.02929 0
M  V30 7136 H 653.734 -4.3598 1.50729 0
M  V30 7137 H 651.977 -4.07669 1.48284 0
M  V30 7138 H 652.648 -5.48171 0.649083 0
M  V30 7139 H 655.124 -4.10232 -0.696338 0
M  V30 7140 H 654 -5.31953 -1.35343 0
M  V30 7141 H 654.261 -3.81862 -2.22786 0
M  V30 7142 N 653.32 -0.135238 -1.57019 0
M  V30 7143 C 654.597 0.563227 -1.87316 0
M  V30 7144 C 654.977 1.83749 -1.03921 0
M  V30 7145 O 654.325 2.2817 -0.122675 0
M  V30 7146 C 654.535 0.840031 -3.3874 0
M  V30 7147 C 655.883 1.18598 -4.077 0
M  V30 7148 O 656.907 0.92977 -3.43851 0
M  V30 7149 O 655.766 1.66758 -5.20436 0
M  V30 7150 H 652.86 0.285971 -0.775983 0
M  V30 7151 H 655.406 -0.170965 -1.68837 0
M  V30 7152 H 654.178 -0.0622785 -3.9125 0
M  V30 7153 H 653.801 1.62882 -3.62706 0
M  V30 7154 N 654.798 1.5699 0.138552 0
M  V30 7155 C 655.708 2.02174 1.19008 0
M  V30 7156 C 656.724 0.938622 1.46512 0
M  V30 7157 O 657.9 1.24872 1.58016 0
M  V30 7158 C 654.965 2.40045 2.50159 0
M  V30 7159 C 654.026 3.62346 2.30226 0
M  V30 7160 C 653.259 3.98401 3.55123 0
M  V30 7161 O 653.482 3.35019 4.61647 0
M  V30 7162 O 652.416 4.91606 3.47285 0
M  V30 7163 H 656.242 2.91954 0.836452 0
M  V30 7164 H 653.827 1.45293 0.347907 0
M  V30 7165 H 655.709 2.65225 3.27465 0
M  V30 7166 H 654.384 1.53417 2.85035 0
M  V30 7167 H 653.291 3.42341 1.50843 0
M  V30 7168 H 654.624 4.49617 2.00262 0
M  V30 7169 N 656.276 -0.40816 1.52223 0
M  V30 7170 C 657.223 -1.49737 1.75635 0
M  V30 7171 C 658.193 -1.5493 0.598824 0
M  V30 7172 O 659.378 -1.71487 0.83648 0
M  V30 7173 C 656.518 -2.87174 1.91376 0
M  V30 7174 C 655.631 -2.91283 3.19027 0
M  V30 7175 C 654.766 -4.20026 3.25195 0
M  V30 7176 C 653.805 -4.18113 4.47044 0
M  V30 7177 N 652.942 -5.38429 4.50598 0
M  V30 7178 H 657.782 -1.29075 2.68596 0
M  V30 7179 H 655.319 -0.626518 1.33091 0
M  V30 7180 H 657.277 -3.66959 1.98486 0
M  V30 7181 H 655.907 -3.06329 1.01795 0
M  V30 7182 H 654.959 -2.03984 3.21084 0
M  V30 7183 H 656.271 -2.85734 4.08849 0
M  V30 7184 H 655.425 -5.08204 3.31382 0
M  V30 7185 H 654.164 -4.28271 2.33313 0
M  V30 7186 H 653.169 -3.28325 4.41002 0
M  V30 7187 H 654.394 -4.11507 5.40221 0
M  V30 7188 H 652.34 -5.4734 3.616 0
M  V30 7189 H 652.257 -5.34879 5.34266 0
M  V30 7190 H 653.525 -6.28557 4.61016 0
M  V30 7191 N 657.755 -1.42862 -0.66545 0
M  V30 7192 C 658.983 -1.47246 -1.45349 0
M  V30 7193 C 659.398 -0.0865944 -1.88601 0
M  V30 7194 O 658.755 0.900652 -1.58728 0
M  V30 7195 C 658.806 -2.40772 -2.6965 0
M  V30 7196 O 658.527 -3.73968 -2.2821 0
M  V30 7197 C 660.028 -2.54272 -3.63126 0
M  V30 7198 H 657.248 -0.500497 -0.446927 0
M  V30 7199 H 659.792 -1.87477 -0.816871 0
M  V30 7200 H 657.947 -2.0377 -3.29479 0
M  V30 7201 H 658.361 -4.24146 -3.08546 0
M  V30 7202 H 659.835 -3.23815 -4.47043 0
M  V30 7203 H 660.312 -1.58364 -4.09656 0
M  V30 7204 H 660.918 -2.92036 -3.09185 0
M  V30 7205 N 659.233 0.902656 -1.29189 0
M  V30 7206 C 660.18 2.00643 -1.14066 0
M  V30 7207 C 661.15 1.66064 -0.0347756 0
M  V30 7208 O 662.335 1.8973 -0.201752 0
M  V30 7209 C 659.475 3.35214 -0.820104 0
M  V30 7210 C 658.588 3.82594 -2.00614 0
M  V30 7211 C 657.723 5.05727 -1.62522 0
M  V30 7212 C 656.762 5.45469 -2.77724 0
M  V30 7213 N 655.899 6.59789 -2.40048 0
M  V30 7214 H 660.739 2.1291 -2.08502 0
M  V30 7215 H 658.276 1.04271 -1.03759 0
M  V30 7216 H 660.234 4.12643 -0.614949 0
M  V30 7217 H 658.864 3.22682 0.0873452 0
M  V30 7218 H 657.916 3.01226 -2.32308 0
M  V30 7219 H 659.228 4.07999 -2.86946 0
M  V30 7220 H 658.382 5.90732 -1.38277 0
M  V30 7221 H 657.121 4.82155 -0.733333 0
M  V30 7222 H 656.126 4.59 -3.02653 0
M  V30 7223 H 657.351 5.71024 -3.67572 0
M  V30 7224 H 655.297 6.37826 -1.53343 0
M  V30 7225 H 655.214 6.84975 -3.19914 0
M  V30 7226 H 656.482 7.4807 -2.19116 0
M  V30 7227 N 660.711 1.11618 1.11262 0
M  V30 7228 C 661.658 0.7762 2.17356 0
M  V30 7229 C 662.628 -0.253152 1.6416 0
M  V30 7230 O 663.813 -0.129655 1.90359 0
M  V30 7231 C 660.953 0.227581 3.44349 0
M  V30 7232 C 660.066 1.31372 4.1154 0
M  V30 7233 C 659.201 0.72544 5.26223 0
M  V30 7234 C 658.24 1.7913 5.85302 0
M  V30 7235 N 657.377 1.22237 6.91377 0
M  V30 7236 H 662.217 1.68508 2.45783 0
M  V30 7237 H 659.754 0.841475 1.20655 0
M  V30 7238 H 661.712 -0.108483 4.17059 0
M  V30 7239 H 660.342 -0.644486 3.16301 0
M  V30 7240 H 659.394 1.7667 3.36885 0
M  V30 7241 H 660.706 2.12005 4.51504 0
M  V30 7242 H 659.86 0.339541 6.05749 0
M  V30 7243 H 658.599 -0.112188 4.87571 0
M  V30 7244 H 657.604 2.18648 5.04453 0
M  V30 7245 H 658.829 2.63199 6.26022 0
M  V30 7246 H 656.775 0.406423 6.5474 0
M  V30 7247 H 656.692 1.9654 7.30006 0
M  V30 7248 H 657.96 0.863426 7.74703 0
M  V30 7249 N 662.189 -1.289 0.906776 0
M  V30 7250 C 663.429 -1.97046 0.543329 0
M  V30 7251 C 663.793 -1.69862 -0.895034 0
M  V30 7252 O 664.994 -2.31521 -1.36571 0
M  V30 7253 C 663.265 -3.47489 0.835833 0
M  V30 7254 S 664.824 -4.3498 0.577756 0
M  V30 7255 H 661.642 -0.681908 0.201302 0
M  V30 7256 H 664.244 -1.5657 1.17073 0
M  V30 7257 H 662.948 -3.64768 1.88075 0
M  V30 7258 H 662.479 -3.92907 0.196817 0
M  V30 7259 H 664.494 -4.92868 -0.574052 0
M  V30 7260 N 663.667 -0.670007 -1.42649 0
M  V30 7261 C 664.892 -0.196955 -2.06463 0
M  V30 7262 C 665.317 1.1352 -1.49983 0
M  V30 7263 O 664.675 1.705 -0.616397 0
M  V30 7264 C 664.723 -0.137381 -3.60338 0
M  V30 7265 O 663.827 0.895523 -4.02559 0
M  V30 7266 H 663.168 -0.102579 -0.656029 0
M  V30 7267 H 665.698 -0.917669 -1.82866 0
M  V30 7268 H 665.708 0.0403625 -4.0798 0
M  V30 7269 H 664.383 -1.10977 -4.0082 0
M  V30 7270 H 662.96 0.689209 -3.66476 0
M  V30 7271 N 665.145 1.52092 -0.413018 0
M  V30 7272 C 666.394 2.01041 0.16287 0
M  V30 7273 C 666.707 1.30288 1.45892 0
M  V30 7274 O 667.913 1.70075 2.11629 0
M  V30 7275 C 666.369 3.58283 0.340806 0
M  V30 7276 C 665.977 4.37955 -0.943377 0
M  V30 7277 C 667.721 4.15452 0.871774 0
M  V30 7278 C 665.628 5.86847 -0.732417 0
M  V30 7279 H 664.558 0.751224 0.0646414 0
M  V30 7280 H 667.209 1.75404 -0.539059 0
M  V30 7281 H 665.591 3.80266 1.10516 0
M  V30 7282 H 666.765 4.2773 -1.71418 0
M  V30 7283 H 665.08 3.92122 -1.40105 0
M  V30 7284 H 667.677 5.24375 1.0457 0
M  V30 7285 H 668.02 3.73057 1.84755 0
M  V30 7286 H 668.553 3.97452 0.166377 0
M  V30 7287 H 665.292 6.33609 -1.67986 0
M  V30 7288 H 664.812 5.998 -0.000980058 0
M  V30 7289 H 666.491 6.45906 -0.376105 0
M  V30 7290 N 666.623 0.143563 1.56945 0
M  V30 7291 C 668.034 -0.37783 1.82837 0
M  V30 7292 C 668.385 -1.64967 1.06209 0
M  V30 7293 O 667.51 -2.14221 0.306291 0
M  V30 7294 C 668.105 -0.692274 3.31652 0
M  V30 7295 C 666.664 -1.1582 3.58138 0
M  V30 7296 C 665.811 -0.17951 2.76718 0
M  V30 7297 H 668.762 0.368317 1.54367 0
M  V30 7298 H 668.783 -1.54729 3.47619 0
M  V30 7299 H 668.295 0.233572 3.87397 0
M  V30 7300 H 666.396 -2.10011 3.07776 0
M  V30 7301 H 666.509 -1.08655 4.66616 0
M  V30 7302 H 664.873 -0.671458 2.4569 0
M  V30 7303 H 665.656 0.739865 3.35233 0
M  V30 7304 N 668.101 -1.57061 -0.130224 0
M  V30 7305 C 669.348 -1.84257 -0.839972 0
M  V30 7306 C 669.676 -0.726986 -1.80403 0
M  V30 7307 O 668.931 0.282632 -1.93648 0
M  V30 7308 C 669.23 -3.17878 -1.63365 0
M  V30 7309 C 668.896 -4.43475 -0.814891 0
M  V30 7310 C 667.558 -4.77581 -0.589066 0
M  V30 7311 C 669.91 -5.20631 -0.243437 0
M  V30 7312 C 667.238 -5.86292 0.218648 0
M  V30 7313 C 669.59 -6.30192 0.551408 0
M  V30 7314 C 668.254 -6.62837 0.787653 0
M  V30 7315 H 667.524 -0.674245 -0.307367 0
M  V30 7316 H 670.171 -1.91224 -0.102832 0
M  V30 7317 H 668.476 -3.06437 -2.44138 0
M  V30 7318 H 670.173 -3.3614 -2.18658 0
M  V30 7319 H 666.763 -4.16747 -1.00098 0
M  V30 7320 H 670.947 -4.94644 -0.405145 0
M  V30 7321 H 666.203 -6.10017 0.411016 0
M  V30 7322 H 670.377 -6.89165 1.00126 0
M  V30 7323 H 668.004 -7.46908 1.41537 0
M  V30 7324 N 669.579 0.400081 -1.52437 0
M  V30 7325 C 670.825 1.14788 -1.67187 0
M  V30 7326 C 671.158 1.89928 -0.405074 0
M  V30 7327 O 670.433 1.85118 0.596804 0
M  V30 7328 C 670.716 2.13507 -2.89977 0
M  V30 7329 C 670.569 1.42204 -4.2673 0
M  V30 7330 C 671.888 3.14069 -3.083 0
M  V30 7331 H 669.007 0.415939 -0.608411 0
M  V30 7332 H 671.649 0.432542 -1.85011 0
M  V30 7333 H 669.799 2.7451 -2.74912 0
M  V30 7334 H 671.471 0.842503 -4.53541 0
M  V30 7335 H 669.714 0.723939 -4.27717 0
M  V30 7336 H 670.385 2.14281 -5.08712 0
M  V30 7337 H 672.861 2.63148 -3.22323 0
M  V30 7338 H 671.737 3.80398 -3.95713 0
M  V30 7339 H 671.998 3.82309 -2.22018 0
M  V30 7340 N 671.057 1.43213 0.657864 0
M  V30 7341 C 672.004 1.48011 1.77092 0
M  V30 7342 C 672.974 0.330291 1.62783 0
M  V30 7343 O 674.159 0.536787 1.83094 0
M  V30 7344 C 671.299 1.40461 3.15222 0
M  V30 7345 C 670.412 2.65612 3.40697 0
M  V30 7346 C 669.547 2.50083 4.68649 0
M  V30 7347 C 668.586 3.70525 4.87214 0
M  V30 7348 N 667.723 3.53835 6.0642 0
M  V30 7349 H 672.563 2.43121 1.72326 0
M  V30 7350 H 670.1 1.20687 0.841013 0
M  V30 7351 H 672.058 1.34079 3.95068 0
M  V30 7352 H 670.688 0.489359 3.19069 0
M  V30 7353 H 669.74 2.82292 2.54982 0
M  V30 7354 H 671.052 3.5509 3.50303 0
M  V30 7355 H 670.206 2.41383 5.56614 0
M  V30 7356 H 668.945 1.58121 4.61356 0
M  V30 7357 H 667.95 3.79639 3.97686 0
M  V30 7358 H 669.175 4.63489 4.96341 0
M  V30 7359 H 667.121 2.64604 6.00267 0
M  V30 7360 H 667.038 4.36912 6.16963 0
M  V30 7361 H 668.306 3.48978 6.97019 0
M  V30 7362 N 672.536 -0.895792 1.29666 0
M  V30 7363 C 673.947 -1.46195 1.1612 0
M  V30 7364 C 674.298 -1.94699 -0.242195 0
M  V30 7365 O 673.423 -1.8406 -1.13802 0
M  V30 7366 C 674.018 -2.65718 2.10189 0
M  V30 7367 C 672.577 -3.18458 2.00653 0
M  V30 7368 C 671.724 -1.91149 2.00891 0
M  V30 7369 H 674.675 -0.706756 1.42094 0
M  V30 7370 H 674.696 -3.4158 1.6764 0
M  V30 7371 H 674.208 -2.30386 3.12321 0
M  V30 7372 H 672.309 -3.58474 1.01623 0
M  V30 7373 H 672.422 -3.82491 2.88509 0
M  V30 7374 H 670.786 -2.09021 1.45542 0
M  V30 7375 H 671.569 -1.58089 3.04734 0
M  V30 7376 N 674.014 -1.12206 -1.10668 0
M  V30 7377 C 674.962 -0.782918 -2.19028 0
M  V30 7378 C 675.956 0.229175 -1.67843 0
M  V30 7379 O 677.162 0.0876295 -1.79787 0
M  V30 7380 H 673.537 -0.235339 -0.714227 0
M  V30 7381 H 675.508 -1.70527 -2.44874 0
M  V30 7382 C 674.257 -0.25116 -3.46792 0
M  V30 7383 H 673.58 -1.02123 -3.86537 0
M  V30 7384 H 675.02 -0.0521409 -4.23968 0
M  V30 7385 C 673.479 1.02037 -3.21076 0
M  V30 7386 O 674.009 2.09862 -3.42522 0
M  V30 7387 N 672.215 0.946348 -2.74759 0
M  V30 7388 H 671.762 0.068777 -2.57508 0
M  V30 7389 H 671.72 1.79775 -2.57931 0
M  V30 7390 N 675.492 1.28418 -0.913599 0
M  V30 7391 C 676.908 1.47411 -0.611728 0
M  V30 7392 C 677.108 1.83018 0.843008 0
M  V30 7393 O 676.164 1.93505 1.6221 0
M  V30 7394 C 677.477 2.57703 -1.5495 0
M  V30 7395 C 679.025 2.71572 -1.5562 0
M  V30 7396 C 679.5 3.85008 -2.48058 0
M  V30 7397 N 680.991 3.92361 -2.46184 0
M  V30 7398 C 681.726 4.79516 -3.14407 0
M  V30 7399 N 681.222 5.71262 -3.91958 0
M  V30 7400 N 683.015 4.73125 -3.03495 0
M  V30 7401 H 675.166 1.03585 -1.85429 0
M  V30 7402 H 677.429 0.515907 -0.795326 0
M  V30 7403 H 677.135 2.38298 -2.58663 0
M  V30 7404 H 677.009 3.54801 -1.28048 0
M  V30 7405 H 679.396 2.90366 -0.526441 0
M  V30 7406 H 679.477 1.75006 -1.86565 0
M  V30 7407 H 679.121 3.66969 -3.51136 0
M  V30 7408 H 679.051 4.80971 -2.14416 0
M  V30 7409 H 681.542 3.26749 -1.89851 0
M  V30 7410 H 681.855 6.34593 -4.41034 0
M  V30 7411 H 680.2 5.71103 -3.96063 0
M  V30 7412 H 683.391 4.00442 -2.42413 0
M  V30 7413 H 683.564 5.40834 -3.56935 0
M  V30 7414 N 676.97 0.677563 1.42291 0
M  V30 7415 C 677.92 -0.0218641 2.2799 0
M  V30 7416 C 678.904 -0.770816 1.41235 0
M  V30 7417 O 680.096 -0.649273 1.64662 0
M  V30 7418 C 677.225 -0.970449 3.29298 0
M  V30 7419 C 676.311 -0.218695 4.23536 0
M  V30 7420 N 676.702 0.777908 4.99782 0
M  V30 7421 C 675 -0.456748 4.43655 0
M  V30 7422 C 675.701 1.22632 5.68627 0
M  V30 7423 N 674.677 0.55573 5.40752 0
M  V30 7424 H 678.479 0.742516 2.84366 0
M  V30 7425 H 675.993 0.506862 1.54288 0
M  V30 7426 H 677.99 -1.48652 3.89497 0
M  V30 7427 H 676.65 -1.73463 2.74483 0
M  V30 7428 H 677.661 1.15754 5.04798 0
M  V30 7429 H 674.338 -1.20021 3.99877 0
M  V30 7430 H 675.728 2.05231 6.39789 0
M  V30 7431 N 678.448 -1.51871 0.421078 0
M  V30 7432 C 679.673 -2.0684 -0.152371 0
M  V30 7433 C 680.098 -1.28802 -1.37083 0
M  V30 7434 O 679.456 -0.321482 -1.78427 0
M  V30 7435 C 679.504 -3.57532 -0.469368 0
M  V30 7436 O 678.608 -3.81818 -1.55848 0
M  V30 7437 H 677.949 -0.663939 -0.00898586 0
M  V30 7438 H 680.479 -1.95674 0.597724 0
M  V30 7439 H 680.489 -4.01515 -0.724553 0
M  V30 7440 H 679.164 -4.13761 0.421276 0
M  V30 7441 H 677.741 -3.49709 -1.29453 0
M  V30 7442 N 679.926 -0.151884 -1.56866 0
M  V30 7443 C 681.337 0.368128 -1.83035 0
M  V30 7444 C 681.688 1.64402 -1.07082 0
M  V30 7445 O 680.813 2.14056 -0.317647 0
M  V30 7446 C 681.408 0.674676 -3.32014 0
M  V30 7447 C 679.967 1.13919 -3.58747 0
M  V30 7448 C 679.114 0.164833 -2.7681 0
M  V30 7449 H 682.065 -0.376499 -1.54169 0
M  V30 7450 H 682.086 1.52883 -3.48435 0
M  V30 7451 H 681.598 -0.254113 -3.87267 0
M  V30 7452 H 679.699 2.08375 -3.08886 0
M  V30 7453 H 679.812 1.06179 -4.67186 0
M  V30 7454 H 678.176 0.658419 -2.46043 0
M  V30 7455 H 678.959 -0.757633 -3.34836 0
M  V30 7456 N 681.404 1.57128 0.121893 0
M  V30 7457 C 682.629 1.89254 0.848385 0
M  V30 7458 C 683.054 0.743527 1.72781 0
M  V30 7459 O 682.412 -0.306056 1.78698 0
M  V30 7460 C 682.46 3.20113 1.66012 0
M  V30 7461 O 681.564 3.05815 2.76679 0
M  V30 7462 H 680.905 0.621103 0.234793 0
M  V30 7463 H 683.435 2.0433 0.10516 0
M  V30 7464 H 683.445 3.52761 2.04996 0
M  V30 7465 H 682.12 4.03336 1.01452 0
M  V30 7466 H 680.697 2.84627 2.40918 0
M  V30 7467 N 682.882 -0.391992 1.52647 0
M  V30 7468 C 684.13 -1.13507 1.67214 0
M  V30 7469 C 684.451 -1.90575 0.41304 0
M  V30 7470 O 683.721 -1.87348 -0.572498 0
M  V30 7471 H 682.301 -0.422013 0.616372 0
M  V30 7472 H 684.963 -0.44502 1.89751 0
M  V30 7473 H 684.059 -1.83964 2.52118 0
M  V30 7474 N 684.36 -1.4356 -0.65026 0
M  V30 7475 C 685.609 -1.44619 -1.406 0
M  V30 7476 C 685.922 -0.0752645 -1.95455 0
M  V30 7477 O 687.128 0.0366832 -2.71475 0
M  V30 7478 C 685.584 -2.54511 -2.54465 0
M  V30 7479 C 685.192 -3.97723 -2.06204 0
M  V30 7480 C 686.936 -2.64768 -3.31811 0
M  V30 7481 C 684.843 -4.99075 -3.17298 0
M  V30 7482 H 683.773 -0.537983 -0.52829 0
M  V30 7483 H 686.424 -1.69559 -0.701561 0
M  V30 7484 H 684.806 -2.22777 -3.27393 0
M  V30 7485 H 685.98 -4.38932 -1.40267 0
M  V30 7486 H 684.295 -3.91538 -1.41729 0
M  V30 7487 H 686.892 -3.37664 -4.14593 0
M  V30 7488 H 687.235 -1.69936 -3.80036 0
M  V30 7489 H 687.768 -2.95817 -2.65964 0
M  V30 7490 H 684.507 -5.95469 -2.74038 0
M  V30 7491 H 684.027 -4.62476 -3.81937 0
M  V30 7492 H 685.706 -5.21913 -3.82382 0
M  V30 7493 N 685.838 0.888903 -1.30139 0
M  V30 7494 C 687.068 1.67115 -1.21474 0
M  V30 7495 C 687.476 1.87852 0.225472 0
M  V30 7496 O 686.819 1.42324 1.16145 0
M  V30 7497 C 686.881 3.0713 -1.86846 0
M  V30 7498 C 686.545 3.09582 -3.36167 0
M  V30 7499 C 687.542 2.88929 -4.32222 0
M  V30 7500 C 685.227 3.31304 -3.77549 0
M  V30 7501 C 687.221 2.89949 -5.67634 0
M  V30 7502 C 684.908 3.31954 -5.13079 0
M  V30 7503 C 685.906 3.113 -6.07932 0
M  V30 7504 O 685.594 3.11758 -7.40987 0
M  V30 7505 H 685.326 0.528372 -0.421662 0
M  V30 7506 H 687.88 1.11919 -1.7223 0
M  V30 7507 H 686.11 3.63973 -1.30615 0
M  V30 7508 H 687.799 3.6749 -1.72354 0
M  V30 7509 H 688.565 2.71948 -4.01584 0
M  V30 7510 H 684.444 3.46417 -3.04165 0
M  V30 7511 H 687.988 2.73746 -6.41645 0
M  V30 7512 H 683.885 3.48469 -5.43359 0
M  V30 7513 H 684.653 3.27951 -7.49927 0
M  V30 7514 N 687.317 1.12792 1.10072 0
M  V30 7515 C 688.265 0.794523 2.18609 0
M  V30 7516 C 689.259 -0.220271 1.67962 0
M  V30 7517 O 690.465 -0.0780938 1.79831 0
M  V30 7518 H 686.84 0.239123 0.712969 0
M  V30 7519 H 688.811 1.71823 2.43966 0
M  V30 7520 C 687.56 0.269548 3.46654 0
M  V30 7521 H 686.883 1.04171 3.8599 0
M  V30 7522 H 688.323 0.0746242 4.23934 0
M  V30 7523 C 686.782 -1.00333 3.21613 0
M  V30 7524 O 687.312 -2.08042 3.4363 0
M  V30 7525 N 685.518 -0.931763 2.75257 0
M  V30 7526 H 685.065 -0.0551197 2.57541 0
M  V30 7527 H 685.023 -1.78405 2.58881 0
M  V30 7528 N 688.795 -1.27931 0.920396 0
M  V30 7529 C 690.044 -1.93975 0.552867 0
M  V30 7530 C 690.357 -1.73193 -0.909035 0
M  V30 7531 O 691.563 -2.33515 -1.38502 0
M  V30 7532 C 690.019 -3.47463 0.937947 0
M  V30 7533 C 689.627 -3.77013 2.42003 0
M  V30 7534 C 691.371 -4.19628 0.64132 0
M  V30 7535 C 689.278 -5.23841 2.74489 0
M  V30 7536 H 688.208 -0.726146 0.203046 0
M  V30 7537 H 690.859 -1.45339 1.12022 0
M  V30 7538 H 689.241 -3.94867 0.299317 0
M  V30 7539 H 690.415 -3.40393 3.10595 0
M  V30 7540 H 688.73 -3.18035 2.6878 0
M  V30 7541 H 691.327 -5.27729 0.860622 0
M  V30 7542 H 691.67 -4.14164 -0.421168 0
M  V30 7543 H 692.203 -3.78022 1.23872 0
M  V30 7544 H 688.942 -5.34388 3.79618 0
M  V30 7545 H 688.462 -5.61634 2.1054 0
M  V30 7546 H 690.141 -5.91647 2.61845 0
M  V30 7547 N 690.273 -0.685099 -1.4193 0
M  V30 7548 C 691.221 -0.00165985 -2.326 0
M  V30 7549 C 692.215 0.779678 -1.50391 0
M  V30 7550 O 693.421 0.68648 -1.66395 0
M  V30 7551 H 689.796 0.0182616 -0.751778 0
M  V30 7552 H 691.767 -0.783592 -2.87928 0
M  V30 7553 C 690.516 0.928385 -3.35077 0
M  V30 7554 H 689.839 0.336578 -3.98381 0
M  V30 7555 H 691.279 1.37509 -4.01083 0
M  V30 7556 C 689.738 2.03964 -2.68142 0
M  V30 7557 O 690.268 3.12727 -2.5212 0
M  V30 7558 N 688.474 1.81433 -2.27003 0
M  V30 7559 H 688.021 0.929807 -2.40234 0
M  V30 7560 H 687.979 2.55973 -1.82552 0
M  V30 7561 N 691.751 1.51645 -0.429126 0
M  V30 7562 C 692.997 2.02314 0.140286 0
M  V30 7563 C 693.33 1.31314 1.43074 0
M  V30 7564 O 692.605 0.425531 1.89788 0
M  V30 7565 C 692.888 3.5822 0.36749 0
M  V30 7566 C 692.741 4.39846 -0.941039 0
M  V30 7567 C 694.06 4.25055 1.14089 0
M  V30 7568 H 691.179 0.735335 0.0495112 0
M  V30 7569 H 693.821 1.81358 -0.566514 0
M  V30 7570 H 691.971 3.76207 0.969556 0
M  V30 7571 H 693.643 4.33527 -1.57646 0
M  V30 7572 H 691.886 4.05259 -1.54751 0
M  V30 7573 H 692.557 5.47069 -0.73621 0
M  V30 7574 H 695.033 4.11288 0.630986 0
M  V30 7575 H 693.909 5.34038 1.26863 0
M  V30 7576 H 694.17 3.85358 2.16683 0
M  V30 7577 N 693.229 0.160201 1.56784 0
M  V30 7578 C 694.457 -0.494165 2.00912 0
M  V30 7579 C 694.872 -1.57548 1.04038 0
M  V30 7580 O 694.229 -1.82457 0.0394581 0
M  V30 7581 C 694.28 -1.08271 3.44905 0
M  V30 7582 O 694.001 -0.0445704 4.38077 0
M  V30 7583 C 695.502 -1.8164 4.04378 0
M  V30 7584 H 692.722 -0.127498 0.658776 0
M  V30 7585 H 695.266 0.258665 2.02858 0
M  V30 7586 H 693.421 -1.78609 3.4377 0
M  V30 7587 H 693.835 -0.477544 5.22322 0
M  V30 7588 H 695.309 -2.18094 5.07089 0
M  V30 7589 H 695.786 -2.70727 3.45838 0
M  V30 7590 H 696.392 -1.15969 4.09184 0
M  V30 7591 N 694.707 -1.5719 -0.113559 0
M  V30 7592 C 695.935 -1.89328 -0.834422 0
M  V30 7593 C 696.35 -0.752018 -1.73177 0
M  V30 7594 O 695.707 0.276912 -1.80387 0
M  V30 7595 C 695.758 -3.20962 -1.66329 0
M  V30 7596 O 695.479 -4.30695 -0.802069 0
M  V30 7597 C 696.98 -3.6684 -2.48884 0
M  V30 7598 H 694.2 -0.626769 -0.239587 0
M  V30 7599 H 696.744 -2.04273 -0.0963195 0
M  V30 7600 H 694.899 -3.0767 -2.35409 0
M  V30 7601 H 695.313 -5.06175 -1.37431 0
M  V30 7602 H 696.787 -4.61692 -3.02563 0
M  V30 7603 H 697.264 -2.93765 -3.26495 0
M  V30 7604 H 697.87 -3.82938 -1.85036 0
M  V30 7605 N 696.185 0.383891 -1.52853 0
M  V30 7606 C 697.115 1.47559 -1.80965 0
M  V30 7607 C 698.096 1.5669 -0.661986 0
M  V30 7608 O 699.281 1.71556 -0.910072 0
M  V30 7609 C 696.411 2.85114 -1.98312 0
M  V30 7610 C 695.365 2.9082 -3.14019 0
M  V30 7611 C 694.691 4.30873 -3.16627 0
M  V30 7612 C 695.991 2.60001 -4.52986 0
M  V30 7613 H 697.685 1.24283 -2.72386 0
M  V30 7614 H 695.231 0.596445 -1.31067 0
M  V30 7615 H 697.184 3.61496 -2.16561 0
M  V30 7616 H 695.908 3.09738 -1.03585 0
M  V30 7617 H 694.567 2.16886 -2.9556 0
M  V30 7618 H 694.215 4.52545 -2.19573 0
M  V30 7619 H 693.915 4.3561 -3.94357 0
M  V30 7620 H 695.439 5.09154 -3.37038 0
M  V30 7621 H 696.853 3.261 -4.71521 0
M  V30 7622 H 695.25 2.76081 -5.32822 0
M  V30 7623 H 696.32 1.5532 -4.59351 0
M  V30 7624 N 697.663 1.43903 0.642637 0
M  V30 7625 C 698.909 1.46296 1.40447 0
M  V30 7626 C 699.242 0.0908361 1.93987 0
M  V30 7627 O 698.517 -0.889884 1.72949 0
M  V30 7628 C 698.8 2.51399 2.57819 0
M  V30 7629 C 698.653 3.97926 2.09702 0
M  V30 7630 C 699.972 2.53125 3.60022 0
M  V30 7631 H 697.091 0.532676 0.509338 0
M  V30 7632 H 699.733 1.75515 0.727635 0
M  V30 7633 H 697.883 2.26614 3.1556 0
M  V30 7634 H 699.555 4.33804 1.5688 0
M  V30 7635 H 697.798 4.10252 1.40982 0
M  V30 7636 H 698.469 4.67096 2.94152 0
M  V30 7637 H 700.945 2.75242 3.12059 0
M  V30 7638 H 699.821 3.28589 4.39682 0
M  V30 7639 H 700.082 1.56895 4.13324 0
M  V30 7640 N 699.141 -0.881989 1.30609 0
M  V30 7641 C 700.366 -1.67236 1.22665 0
M  V30 7642 C 700.791 -1.8696 -0.206777 0
M  V30 7643 O 700.149 -1.4027 -1.14865 0
M  V30 7644 C 700.197 -3.02446 1.96363 0
M  V30 7645 O 699.301 -3.91614 1.29276 0
M  V30 7646 H 698.642 -0.510902 0.424117 0
M  V30 7647 H 701.172 -1.10055 1.72479 0
M  V30 7648 H 701.182 -3.52468 2.055 0
M  V30 7649 H 699.857 -2.8741 3.00613 0
M  V30 7650 H 698.434 -3.50055 1.28514 0
M  V30 7651 N 700.619 -1.13374 -1.09472 0
M  V30 7652 C 701.867 -0.893422 -1.8128 0
M  V30 7653 C 702.188 0.582029 -1.86111 0
M  V30 7654 O 701.458 1.42305 -1.34633 0
M  V30 7655 H 700.038 -0.327543 -0.67136 0
M  V30 7656 H 702.7 -1.43018 -1.32408 0
M  V30 7657 H 701.796 -1.28374 -2.84476 0
M  V30 7658 N 702.098 1.27442 -0.927168 0
M  V30 7659 C 703.509 1.76385 -0.611979 0
M  V30 7660 C 703.86 1.75715 0.872853 0
M  V30 7661 O 702.985 1.3603 1.683 0
M  V30 7662 C 703.58 3.20303 -1.10414 0
M  V30 7663 C 702.139 3.66916 -0.839628 0
M  V30 7664 C 701.286 2.46859 -1.26317 0
M  V30 7665 H 704.237 1.13716 -1.107 0
M  V30 7666 H 704.258 3.77811 -0.451578 0
M  V30 7667 H 703.77 3.20759 -2.18484 0
M  V30 7668 H 701.871 3.71906 0.227292 0
M  V30 7669 H 701.984 4.56415 -1.45679 0
M  V30 7670 H 700.348 2.45407 -0.681723 0
M  V30 7671 H 701.131 2.50025 -2.3525 0
M  V30 7672 N 703.576 0.692616 1.41565 0
M  V30 7673 C 704.987 0.297478 1.84315 0
M  V30 7674 C 705.338 -1.16379 1.57957 0
M  V30 7675 O 704.463 -1.89303 1.0485 0
M  V30 7676 C 705.058 0.533136 3.34579 0
M  V30 7677 C 703.617 0.191944 3.7591 0
M  V30 7678 C 702.764 0.816873 2.64995 0
M  V30 7679 H 705.715 0.893488 1.31158 0
M  V30 7680 H 705.736 -0.209105 3.79925 0
M  V30 7681 H 705.248 1.59674 3.53731 0
M  V30 7682 H 703.349 -0.867512 3.6236 0
M  V30 7683 H 703.462 0.644902 4.7474 0
M  V30 7684 H 701.826 0.246715 2.53502 0
M  V30 7685 H 702.609 1.88429 2.86966 0
M  V30 7686 N 705.054 -1.51416 0.437162 0
M  V30 7687 C 705.984 -2.30631 -0.364922 0
M  V30 7688 C 706.965 -1.36037 -1.02118 0
M  V30 7689 O 708.15 -1.64956 -1.02485 0
M  V30 7690 C 705.28 -3.1482 -1.46648 0
M  V30 7691 C 704.234 -4.17691 -0.933717 0
M  V30 7692 C 703.56 -4.904 -2.13101 0
M  V30 7693 C 704.86 -5.2229 0.0317201 0
M  V30 7694 H 706.554 -2.97932 0.29614 0
M  V30 7695 H 704.1 -1.4328 0.143865 0
M  V30 7696 H 706.053 -3.69017 -2.03481 0
M  V30 7697 H 704.777 -2.4534 -2.15583 0
M  V30 7698 H 703.436 -3.64545 -0.387602 0
M  V30 7699 H 703.084 -4.17423 -2.80654 0
M  V30 7700 H 702.784 -5.59962 -1.78092 0
M  V30 7701 H 704.308 -5.4742 -2.70487 0
M  V30 7702 H 705.722 -5.7156 -0.446302 0
M  V30 7703 H 704.119 -5.99378 0.29437 0
M  V30 7704 H 705.189 -4.75131 0.968447 0
M  V30 7705 N 706.532 -0.168513 -1.56696 0
M  V30 7706 C 707.757 0.486688 -2.01609 0
M  V30 7707 C 708.182 1.56203 -1.04796 0
M  V30 7708 O 707.54 1.8128 -0.0270596 0
M  V30 7709 C 707.588 1.04451 -3.45141 0
M  V30 7710 O 706.692 2.15862 -3.51393 0
M  V30 7711 H 706.033 0.116831 -0.653641 0
M  V30 7712 H 708.563 -0.271579 -2.0279 0
M  V30 7713 H 708.573 1.36782 -3.84389 0
M  V30 7714 H 707.248 0.257155 -4.15104 0
M  V30 7715 H 705.825 1.84597 -3.24004 0
M  V30 7716 N 708.01 1.57248 0.105221 0
M  V30 7717 C 709.287 1.76566 0.841647 0
M  V30 7718 C 709.667 0.747566 1.9742 0
M  V30 7719 O 709.015 -0.225886 2.27381 0
M  V30 7720 C 709.225 3.22016 1.3456 0
M  V30 7721 C 710.573 3.84911 1.79244 0
M  V30 7722 O 711.597 3.25703 1.44207 0
M  V30 7723 O 710.456 4.89008 2.43995 0
M  V30 7724 H 707.55 0.723443 0.400698 0
M  V30 7725 H 710.096 1.69472 0.0878893 0
M  V30 7726 H 708.868 3.87644 0.533685 0
M  V30 7727 H 708.491 3.33703 2.16167 0
M  V30 7728 N 709.488 -0.375779 1.53054 0
M  V30 7729 C 710.765 -1.13453 1.59336 0
M  V30 7730 C 711.145 -2.07379 0.394614 0
M  V30 7731 O 710.493 -2.2004 -0.616 0
M  V30 7732 C 710.703 -1.8826 2.93869 0
M  V30 7733 C 712.051 -2.43155 3.48081 0
M  V30 7734 O 713.075 -1.984 2.95831 0
M  V30 7735 O 711.934 -3.24944 4.39401 0
M  V30 7736 H 709.028 -0.519856 0.643179 0
M  V30 7737 H 711.574 -0.379865 1.65394 0
M  V30 7738 H 710.346 -1.19652 3.72558 0
M  V30 7739 H 709.969 -2.70658 2.91256 0
M  V30 7740 N 710.966 -1.44241 -0.634997 0
M  V30 7741 C 712.191 -1.50516 -1.42687 0
M  V30 7742 C 712.616 -0.129864 -1.87651 0
M  V30 7743 O 711.974 0.880164 -1.58502 0
M  V30 7744 C 712.022 -2.4714 -2.62591 0
M  V30 7745 O 711.126 -1.97025 -3.62291 0
M  V30 7746 H 710.467 -0.50841 -0.427101 0
M  V30 7747 H 712.997 -1.89337 -0.775408 0
M  V30 7748 H 713.007 -2.65048 -3.10183 0
M  V30 7749 H 711.682 -3.47039 -2.29209 0
M  V30 7750 H 710.259 -1.88866 -3.21534 0
M  V30 7751 N 712.444 0.87505 -1.31075 0
M  V30 7752 C 713.692 1.62447 -1.20231 0
M  V30 7753 C 714.013 1.93506 0.240888 0
M  V30 7754 O 713.283 1.57847 1.16022 0
M  V30 7755 H 711.863 0.602207 -0.441991 0
M  V30 7756 H 714.525 1.04788 -1.64334 0
M  V30 7757 H 713.621 2.57031 -1.77036 0
M  V30 7758 N 713.922 1.13953 1.08869 0
M  V30 7759 C 714.885 0.824991 2.13838 0
M  V30 7760 C 715.885 -0.168198 1.59918 0
M  V30 7761 O 717.075 0.0595778 1.74098 0
M  V30 7762 C 714.207 0.228938 3.4013 0
M  V30 7763 H 715.4 1.75521 2.43171 0
M  V30 7764 H 712.953 0.94492 1.24503 0
M  V30 7765 H 713.688 -0.710227 3.16427 0
M  V30 7766 H 713.473 0.944243 3.80561 0
M  V30 7767 H 714.963 0.0259223 4.17592 0
M  V30 7768 N 715.4 -1.26948 0.933913 0
M  V30 7769 C 716.677 -1.89212 0.495784 0
M  V30 7770 C 717.057 -1.84469 -1.02637 0
M  V30 7771 O 716.405 -1.29409 -1.88323 0
M  V30 7772 C 716.615 -3.32865 1.0489 0
M  V30 7773 C 717.963 -4.09749 1.11315 0
M  V30 7774 O 718.987 -3.41905 0.998966 0
M  V30 7775 O 717.846 -5.31061 1.28983 0
M  V30 7776 H 714.94 -0.811284 0.160459 0
M  V30 7777 H 717.486 -1.35171 1.02601 0
M  V30 7778 H 716.258 -3.30642 2.09265 0
M  V30 7779 H 715.881 -3.94435 0.500692 0
M  V30 7780 N 716.879 -0.700114 -1.41195 0
M  V30 7781 C 717.809 -0.0521132 -2.33442 0
M  V30 7782 C 718.79 0.76228 -1.52063 0
M  V30 7783 O 719.975 0.714336 -1.80585 0
M  V30 7784 C 717.105 0.881693 -3.35922 0
M  V30 7785 C 716.059 0.174062 -4.27646 0
M  V30 7786 C 715.385 1.22254 -5.20536 0
M  V30 7787 C 716.685 -0.962396 -5.13357 0
M  V30 7788 H 718.379 -0.822574 -2.87879 0
M  V30 7789 H 715.925 -0.397011 -1.38419 0
M  V30 7790 H 717.878 1.34429 -3.99383 0
M  V30 7791 H 716.602 1.68387 -2.79845 0
M  V30 7792 H 715.261 -0.268551 -3.65615 0
M  V30 7793 H 714.909 2.01736 -4.60773 0
M  V30 7794 H 714.609 0.754038 -5.82742 0
M  V30 7795 H 716.133 1.68555 -5.86874 0
M  V30 7796 H 717.547 -0.579875 -5.7036 0
M  V30 7797 H 715.944 -1.35828 -5.84526 0
M  V30 7798 H 717.014 -1.80003 -4.50252 0
M  V30 7799 N 718.357 1.51182 -0.445186 0
M  V30 7800 C 719.768 1.86693 0.0160999 0
M  V30 7801 C 720.119 1.36183 1.4124 0
M  V30 7802 O 719.244 0.715895 2.04215 0
M  V30 7803 C 719.839 3.38781 0.0359918 0
M  V30 7804 C 718.398 3.73799 0.441715 0
M  V30 7805 C 717.545 2.74947 -0.360511 0
M  V30 7806 H 720.496 1.44294 -0.660674 0
M  V30 7807 H 720.517 3.71026 0.843813 0
M  V30 7808 H 720.029 3.75513 -0.980378 0
M  V30 7809 H 718.13 3.42659 1.4634 0
M  V30 7810 H 718.243 4.78829 0.16106 0
M  V30 7811 H 716.607 2.54047 0.182269 0
M  V30 7812 H 717.39 3.14521 -1.3759 0
M  V30 7813 N 719.835 0.176821 1.56605 0
M  V30 7814 C 720.767 -0.782836 2.15417 0
M  V30 7815 C 721.78 -1.18982 1.11117 0
M  V30 7816 O 722.969 -1.12872 1.38283 0
M  V30 7817 C 720.069 -2.06596 2.68647 0
M  V30 7818 C 719.242 -1.82167 3.9766 0
M  V30 7819 C 718.301 -2.94751 4.35899 0
M  V30 7820 O 717.327 -2.65148 5.03672 0
M  V30 7821 N 718.529 -4.2267 3.97907 0
M  V30 7822 H 721.294 -0.280012 2.98389 0
M  V30 7823 H 718.855 -0.00577529 1.61899 0
M  V30 7824 H 720.847 -2.81018 2.91223 0
M  V30 7825 H 719.417 -2.48054 1.90232 0
M  V30 7826 H 718.637 -0.916208 3.83405 0
M  V30 7827 H 719.925 -1.6322 4.81909 0
M  V30 7828 H 719.323 -4.4958 3.43357 0
M  V30 7829 H 717.88 -4.93778 4.25472 0
M  V30 7830 N 721.313 -1.57302 -0.09688 0
M  V30 7831 C 722.246 -1.97179 -1.14872 0
M  V30 7832 C 723.224 -0.844734 -1.38935 0
M  V30 7833 O 724.408 -1.10487 -1.52725 0
M  V30 7834 C 721.535 -2.28703 -2.49826 0
M  V30 7835 C 720.581 -3.51158 -2.42054 0
M  V30 7836 S 721.414 -5.0294 -1.83879 0
M  V30 7837 C 722.57 -5.37639 -3.2046 0
M  V30 7838 H 722.803 -2.86088 -0.808771 0
M  V30 7839 H 720.336 -1.51368 -0.304492 0
M  V30 7840 H 722.294 -2.47541 -3.27466 0
M  V30 7841 H 720.955 -1.40368 -2.8099 0
M  V30 7842 H 720.148 -3.70651 -3.41517 0
M  V30 7843 H 719.75 -3.31821 -1.72543 0
M  V30 7844 H 722.042 -5.34175 -4.16729 0
M  V30 7845 H 722.985 -6.38677 -3.05773 0
M  V30 7846 H 723.393 -4.651 -3.19909 0
M  V30 7847 N 722.791 0.367657 -1.53252 0
M  V30 7848 C 723.701 1.47415 -1.82499 0
M  V30 7849 C 724.717 1.58711 -0.713222 0
M  V30 7850 O 725.893 1.74644 -1.00306 0
M  V30 7851 C 722.958 2.82706 -2.00694 0
M  V30 7852 C 722.019 2.80955 -3.24596 0
M  V30 7853 C 721.252 4.09793 -3.41914 0
M  V30 7854 O 721.475 5.05852 -2.63572 0
M  V30 7855 O 720.409 4.15731 -4.3526 0
M  V30 7856 H 724.235 1.25624 -2.765 0
M  V30 7857 H 721.82 0.557559 -1.38606 0
M  V30 7858 H 723.702 3.62873 -2.14246 0
M  V30 7859 H 722.377 3.04479 -1.09883 0
M  V30 7860 H 721.284 1.99494 -3.16469 0
M  V30 7861 H 722.617 2.64136 -4.15323 0
M  V30 7862 N 724.269 1.44576 0.627338 0
M  V30 7863 C 725.219 1.48168 1.73293 0
M  V30 7864 C 726.203 0.347045 1.57113 0
M  V30 7865 O 727.395 0.592605 1.66785 0
M  V30 7866 C 724.524 1.43236 3.11991 0
M  V30 7867 C 723.61 2.61828 3.33627 0
M  V30 7868 N 724.001 3.87053 3.25612 0
M  V30 7869 C 722.299 2.57104 3.64436 0
M  V30 7870 C 723 4.66093 3.48041 0
M  V30 7871 N 721.976 3.97228 3.71095 0
M  V30 7872 H 725.778 2.42832 1.6556 0
M  V30 7873 H 723.292 1.39592 0.829934 0
M  V30 7874 H 725.289 1.43893 3.91281 0
M  V30 7875 H 723.949 0.496133 3.20887 0
M  V30 7876 H 724.96 4.18966 3.04447 0
M  V30 7877 H 721.637 1.72295 3.8029 0
M  V30 7878 H 723.027 5.75117 3.47404 0
M  V30 7879 N 725.747 -0.868086 1.31537 0
M  V30 7880 C 726.679 -1.98165 1.15166 0
M  V30 7881 C 727.692 -1.6255 0.0902335 0
M  V30 7882 O 728.881 -1.75272 0.33791 0
M  V30 7883 C 725.981 -3.30772 0.737776 0
M  V30 7884 C 725.154 -3.94716 1.88462 0
M  V30 7885 C 724.213 -5.05641 1.45648 0
M  V30 7886 O 723.239 -5.2636 2.16642 0
M  V30 7887 N 724.441 -5.79474 0.34493 0
M  V30 7888 H 727.206 -2.12754 2.11083 0
M  V30 7889 H 724.767 -1.04217 1.23897 0
M  V30 7890 H 726.759 -4.02366 0.434032 0
M  V30 7891 H 725.329 -3.1233 -0.129834 0
M  V30 7892 H 724.549 -3.16079 2.35558 0
M  V30 7893 H 725.837 -4.34175 2.65273 0
M  V30 7894 H 725.235 -5.65164 -0.246259 0
M  V30 7895 H 723.792 -6.51722 0.100728 0
M  V30 7896 N 727.225 -1.14528 -1.08264 0
M  V30 7897 C 728.175 -0.802141 -2.13424 0
M  V30 7898 C 729.159 0.209362 -1.59532 0
M  V30 7899 O 730.351 0.0114859 -1.76996 0
M  V30 7900 C 727.48 -0.282938 -3.42132 0
M  V30 7901 C 726.566 -1.32405 -4.02902 0
M  V30 7902 N 726.957 -2.52861 -4.38058 0
M  V30 7903 C 725.255 -1.17462 -4.30254 0
M  V30 7904 C 725.956 -3.1952 -4.86088 0
M  V30 7905 N 724.932 -2.46921 -4.84284 0
M  V30 7906 H 728.734 -1.71843 -2.38426 0
M  V30 7907 H 726.248 -1.02936 -1.2561 0
M  V30 7908 H 728.245 -0.0188053 -4.16896 0
M  V30 7909 H 726.905 0.627533 -3.18578 0
M  V30 7910 H 727.916 -2.90078 -4.2904 0
M  V30 7911 H 724.593 -0.323283 -4.16246 0
M  V30 7912 H 725.983 -4.2223 -5.22658 0
M  V30 7913 O 728.742 1.2085 -1.07133 0
M  V30 7914 H 729.433 1.78311 -0.756635 0
M  V30 END ATOM
M  V30 BEGIN BOND
M  V30 END BOND
M  V30 END CTAB
M  END
$$$$
