drugbank_target|Q92806 G protein-activated inward rectifier potassium channel 3 (DB00898; DB11633)
 OpenBabel12092121013D

  0  0  0     0  0            999 V3000
M  V30 BEGIN CTAB
M  V30 COUNTS 6119 6190 0 0 0
M  V30 BEGIN ATOM
M  V30 1 H -0.908 1.98254 -0.117106 0
M  V30 2 N 0 1.576 0 0
M  V30 3 C 0.933 2.03868 1.02534 0
M  V30 4 C 1.911 0.928543 1.3348 0
M  V30 5 O 3.095 1.19667 1.45644 0
M  V30 6 C 0.222 2.43627 2.35294 0
M  V30 7 C -0.732 3.65373 2.2001 0
M  V30 8 S 0.101 5.13292 1.52614 0
M  V30 9 C 1.257 5.56322 2.86805 0
M  V30 10 H 1.49 2.90518 0.631377 0
M  V30 11 H -0.977 1.52953 0.210867 0
M  V30 12 H 0.981 2.67203 3.11629 0
M  V30 13 H -0.358 1.57376 2.7183 0
M  V30 14 H -1.165 3.90944 3.18086 0
M  V30 15 H -1.563 3.418 1.51819 0
M  V30 16 H 0.729 5.58782 3.83104 0
M  V30 17 H 1.672 6.56266 2.65933 0
M  V30 18 H 2.08 4.83886 2.90714 0
M  V30 19 N 1.4781 -0.272755 1.55222 0
M  V30 20 C 2.4411 -1.32041 1.87344 0
M  V30 21 C 3.4411 -1.42342 0.74803 0
M  V30 22 O 4.6311 -1.41488 1.0162 0
M  V30 23 C 1.7631 -2.70173 2.07893 0
M  V30 24 H 2.9561 -1.04789 2.80997 0
M  V30 25 H 0.5091 -0.51083 1.47717 0
M  V30 26 H 1.2441 -3.02605 1.16622 0
M  V30 27 H 1.0291 -2.64082 2.89833 0
M  V30 28 H 2.5191 -3.45869 2.34017 0
M  V30 29 N 2.9562 -1.48159 -0.537278 0
M  V30 30 C 3.8882 -1.58218 -1.65831 0
M  V30 31 C 4.9012 -0.466948 -1.5596 0
M  V30 32 O 6.0902 -0.73747 -1.62553 0
M  V30 33 C 3.1902 -1.48906 -3.04434 0
M  V30 34 C 2.3632 -2.75343 -3.3986 0
M  V30 35 C 1.4222 -2.59588 -4.57712 0
M  V30 36 O 0.4482 -3.33457 -4.61297 0
M  V30 37 N 1.6502 -1.68724 -5.55439 0
M  V30 38 H 4.4152 -2.54891 -1.57641 0
M  V30 39 H 1.9762 -1.4479 -0.724386 0
M  V30 40 H 3.9682 -1.36072 -3.81139 0
M  V30 41 H 2.5382 -0.602368 -3.06741 0
M  V30 42 H 1.7582 -3.02795 -2.52406 0
M  V30 43 H 3.0462 -3.5924 -3.60311 0
M  V30 44 H 2.4442 -1.07898 -5.55315 0
M  V30 45 H 1.0012 -1.61832 -6.3139 0
M  V30 46 N 4.4343 0.785586 -1.36625 0
M  V30 47 C 5.3443 1.92964 -1.33425 0
M  V30 48 C 6.3603 1.72394 -0.235851 0
M  V30 49 O 7.5363 1.95866 -0.468878 0
M  V30 50 C 4.6013 3.27884 -1.12662 0
M  V30 51 C 3.6623 3.61204 -2.32013 0
M  V30 52 C 2.8953 4.89687 -2.12231 0
M  V30 53 O 3.1183 5.59704 -1.09945 0
M  V30 54 O 2.0523 5.21752 -3.00098 0
M  V30 55 H 5.8783 1.98613 -2.29753 0
M  V30 56 H 3.4633 0.926384 -1.17211 0
M  V30 57 H 5.3453 4.08614 -1.03016 0
M  V30 58 H 4.0203 3.23118 -0.193991 0
M  V30 59 H 2.9273 2.80765 -2.47228 0
M  V30 60 H 4.2603 3.70698 -3.23796 0
M  V30 61 N 5.9124 1.20967 1.01018 0
M  V30 62 C 6.8604 0.961223 2.1181 0
M  V30 63 C 7.8544 -0.0897034 1.69162 0
M  V30 64 O 9.0604 0.0612271 1.79896 0
M  V30 65 H 5.4354 0.29355 0.692338 0
M  V30 66 H 7.4064 1.90178 2.29946 0
M  V30 67 C 6.1554 0.536854 3.4353 0
M  V30 68 H 5.4784 1.33713 3.76777 0
M  V30 69 H 6.9184 0.402286 4.22087 0
M  V30 70 C 5.3774 -0.751574 3.2841 0
M  V30 71 O 5.9074 -1.80841 3.58691 0
M  V30 72 N 4.1134 -0.716079 2.81639 0
M  V30 73 H 3.6604 0.144236 2.57196 0
M  V30 74 H 3.6184 -1.57847 2.71904 0
M  V30 75 N 7.3905 -1.2043 1.01659 0
M  V30 76 C 8.3535 -2.21433 0.591616 0
M  V30 77 C 9.3535 -1.57203 -0.338226 0
M  V30 78 O 10.5435 -1.73737 -0.126918 0
M  V30 79 C 7.6755 -3.40628 -0.136058 0
M  V30 80 H 8.8685 -2.60545 1.48514 0
M  V30 81 H 6.4215 -1.33893 0.806379 0
M  V30 82 H 7.1565 -3.07019 -1.04449 0
M  V30 83 H 6.9415 -3.88475 0.531917 0
M  V30 84 H 8.4315 -4.15475 -0.420735 0
M  V30 85 N 8.8686 -0.792821 -1.36206 0
M  V30 86 C 9.8316 -0.199459 -2.2833 0
M  V30 87 C 10.8316 0.605189 -1.48977 0
M  V30 88 O 12.0216 0.425685 -1.68919 0
M  V30 89 C 9.1536 0.723523 -3.33134 0
M  V30 90 H 10.3466 -1.01181 -2.82316 0
M  V30 91 H 7.8996 -0.562485 -1.45828 0
M  V30 92 H 8.6346 1.56008 -2.84309 0
M  V30 93 H 8.4196 0.148436 -3.91819 0
M  V30 94 H 9.9096 1.13344 -4.01924 0
M  V30 95 N 10.3467 1.47872 -0.545128 0
M  V30 96 C 11.5937 2.02493 -0.0165858 0
M  V30 97 C 11.9217 1.42073 1.32836 0
M  V30 98 O 11.1767 0.561459 1.87473 0
M  V30 99 C 11.4757 3.57131 0.13867 0
M  V30 100 C 11.1417 4.36411 -1.13384 0
M  V30 101 C 9.8037 4.57792 -1.48256 0
M  V30 102 C 12.1557 4.82223 -1.97764 0
M  V30 103 C 9.4837 5.22233 -2.67376 0
M  V30 104 C 11.8357 5.47977 -3.16076 0
M  V30 105 C 10.4997 5.67593 -3.51275 0
M  V30 106 H 9.7697 0.740975 -0.00606918 0
M  V30 107 H 12.4167 1.77683 -0.714207 0
M  V30 108 H 10.7217 3.80865 0.919172 0
M  V30 109 H 12.4187 3.97031 0.562782 0
M  V30 110 H 9.0087 4.2004 -0.852297 0
M  V30 111 H 13.1927 4.65493 -1.72132 0
M  V30 112 H 8.4487 5.35616 -2.94831 0
M  V30 113 H 12.6227 5.8244 -3.81755 0
M  V30 114 H 10.2497 6.17298 -4.43675 0
M  V30 115 N 11.8248 0.280983 1.55075 0
M  V30 116 C 13.0498 -0.340154 2.04592 0
M  V30 117 C 13.4748 -1.48246 1.15779 0
M  V30 118 O 12.8328 -1.80614 0.15761 0
M  V30 119 C 12.8808 -0.793104 3.5177 0
M  V30 120 O 11.9848 -1.89981 3.66034 0
M  V30 121 H 11.3258 -0.0694289 0.66036 0
M  V30 122 H 13.8558 0.416993 2.00306 0
M  V30 123 H 13.8658 -1.08729 3.93245 0
M  V30 124 H 12.5408 0.0426163 4.15878 0
M  V30 125 H 11.1178 -1.60771 3.36463 0
M  V30 126 N 13.3029 -1.57598 0.00835791 0
M  V30 127 C 14.7139 -1.7892 -0.53333 0
M  V30 128 C 15.0649 -0.916609 -1.73473 0
M  V30 129 O 14.1899 -0.121336 -2.1606 0
M  V30 130 C 14.7849 -3.24488 -0.974313 0
M  V30 131 C 13.3439 -3.46878 -1.46125 0
M  V30 132 C 12.4909 -2.74157 -0.416302 0
M  V30 133 H 15.4419 -1.56958 0.234495 0
M  V30 134 H 15.4629 -3.3306 -1.83988 0
M  V30 135 H 14.9749 -3.87972 -0.099718 0
M  V30 136 H 13.0759 -2.8862 -2.35646 0
M  V30 137 H 13.1889 -4.55572 -1.48295 0
M  V30 138 H 11.5529 -2.39022 -0.87981 0
M  V30 139 H 12.3359 -3.40345 0.44947 0
M  V30 140 N 14.781 0.264519 -1.55364 0
M  V30 141 C 16.029 0.993021 -1.76021 0
M  V30 142 C 16.35 1.86511 -0.569099 0
M  V30 143 O 15.62 1.91438 0.415735 0
M  V30 144 H 14.2 0.369639 -0.649135 0
M  V30 145 H 16.862 0.286707 -1.9278 0
M  V30 146 H 15.958 1.62502 -2.66457 0
M  V30 147 N 16.2591 1.48442 0.529413 0
M  V30 148 C 17.1911 1.59095 1.64989 0
M  V30 149 C 18.2041 0.475212 1.5571 0
M  V30 150 O 19.3931 0.746081 1.6216 0
M  V30 151 C 16.4931 1.50518 3.0364 0
M  V30 152 C 15.6661 2.77142 3.38395 0
M  V30 153 C 14.7251 2.62012 4.56329 0
M  V30 154 O 13.7511 3.35898 4.59522 0
M  V30 155 N 14.9531 1.71667 5.54536 0
M  V30 156 H 17.7181 2.55723 1.56287 0
M  V30 157 H 15.2791 1.45173 0.716697 0
M  V30 158 H 17.2711 1.38091 3.80412 0
M  V30 159 H 15.8411 0.618627 3.06418 0
M  V30 160 H 15.0611 3.0413 2.50796 0
M  V30 161 H 16.3491 3.61146 3.58401 0
M  V30 162 H 15.7471 1.10841 5.54735 0
M  V30 163 H 14.3041 1.65178 6.30523 0
M  V30 164 N 17.7372 -0.778329 1.37039 0
M  V30 165 C 18.6472 -1.92253 1.34446 0
M  V30 166 C 19.6632 -1.72267 0.244991 0
M  V30 167 O 20.8392 -1.95615 0.479258 0
M  V30 168 C 17.9042 -3.27282 1.144 0
M  V30 169 C 16.9652 -3.59969 2.33925 0
M  V30 170 C 16.1982 -4.88555 2.14825 0
M  V30 171 O 16.4212 -5.59113 1.12912 0
M  V30 172 O 15.3552 -5.20153 3.02861 0
M  V30 173 H 19.1812 -1.97392 2.30803 0
M  V30 174 H 16.7662 -0.920154 1.17701 0
M  V30 175 H 18.6482 -4.08062 1.05182 0
M  V30 176 H 17.3232 -3.23011 0.211124 0
M  V30 177 H 16.2302 -2.7945 2.48714 0
M  V30 178 H 17.5632 -3.68976 3.25757 0
M  V30 179 N 19.2153 -1.21501 -1.00376 0
M  V30 180 C 20.1253 -0.991447 -2.12621 0
M  V30 181 C 21.1413 0.0568446 -1.73907 0
M  V30 182 O 22.3173 -0.13348 -2.00957 0
M  V30 183 C 19.3823 -0.560312 -3.42142 0
M  V30 184 C 18.4433 -1.68096 -3.95022 0
M  V30 185 C 17.6763 -1.2703 -5.18362 0
M  V30 186 O 17.8993 -0.144438 -5.70217 0
M  V30 187 O 16.8333 -2.08269 -5.64719 0
M  V30 188 H 20.6593 -1.93158 -2.34358 0
M  V30 189 H 18.2443 -0.999999 -1.10997 0
M  V30 190 H 20.1263 -0.329724 -4.20108 0
M  V30 191 H 18.8013 0.351089 -3.2179 0
M  V30 192 H 17.7083 -1.96597 -3.18278 0
M  V30 193 H 19.0413 -2.56983 -4.19786 0
M  V30 194 N 20.6934 1.19889 -1.02296 0
M  V30 195 C 22.1044 1.71124 -0.746568 0
M  V30 196 C 22.4554 1.81939 0.734335 0
M  V30 197 O 21.5804 1.48639 1.57275 0
M  V30 198 C 22.1754 3.10804 -1.34857 0
M  V30 199 C 20.7344 3.59323 -1.1209 0
M  V30 200 C 19.8814 2.3635 -1.45031 0
M  V30 201 H 22.8324 1.04813 -1.19163 0
M  V30 202 H 22.8534 3.73186 -0.742437 0
M  V30 203 H 22.3654 3.029 -2.42638 0
M  V30 204 H 20.4664 3.7255 -0.0610337 0
M  V30 205 H 20.5794 4.4378 -1.80544 0
M  V30 206 H 18.9434 2.39399 -0.869487 0
M  V30 207 H 19.7264 2.31081 -2.53883 0
M  V30 208 N 22.1715 0.800033 1.35784 0
M  V30 209 C 23.5825 0.439142 1.81462 0
M  V30 210 C 23.9335 -1.03813 1.66485 0
M  V30 211 O 23.0585 -1.80626 1.19177 0
M  V30 212 C 23.6535 0.790314 3.29453 0
M  V30 213 C 22.2125 0.482111 3.733 0
M  V30 214 C 21.3595 1.01938 2.57883 0
M  V30 215 H 24.3105 0.992254 1.23855 0
M  V30 216 H 24.3315 0.0853677 3.80404 0
M  V30 217 H 23.8435 1.86554 3.40322 0
M  V30 218 H 21.9445 -0.584652 3.67984 0
M  V30 219 H 22.0575 1.01015 4.6833 0
M  V30 220 H 20.4215 0.442043 2.50835 0
M  V30 221 H 21.2045 2.10059 2.71533 0
M  V30 222 N 23.6496 -1.47581 0.552962 0
M  V30 223 C 25.0656 -1.5818 0.212424 0
M  V30 224 C 25.2656 -1.55213 -1.28496 0
M  V30 225 O 24.3216 -1.45329 -2.06484 0
M  V30 226 C 25.6346 -2.88865 0.835318 0
M  V30 227 C 27.1826 -3.0244 0.806156 0
M  V30 228 C 27.6576 -4.35819 1.40804 0
M  V30 229 N 29.1486 -4.42444 1.37103 0
M  V30 230 C 29.8836 -5.44202 1.80641 0
M  V30 231 N 29.3796 -6.52795 2.32015 0
M  V30 232 N 31.1726 -5.35222 1.71738 0
M  V30 233 H 23.3236 -1.47753 1.52587 0
M  V30 234 H 25.5866 -0.702941 0.636064 0
M  V30 235 H 25.2926 -2.9676 1.88749 0
M  V30 236 H 25.1666 -3.7579 0.325848 0
M  V30 237 H 27.5536 -2.94144 -0.237317 0
M  V30 238 H 27.6346 -2.17068 1.35334 0
M  V30 239 H 27.2786 -4.44871 2.45056 0
M  V30 240 H 27.2086 -5.19916 0.836338 0
M  V30 241 H 29.6996 -3.6456 0.995202 0
M  V30 242 H 30.0126 -7.26609 2.63171 0
M  V30 243 H 28.3576 -6.53696 2.36023 0
M  V30 244 H 31.5486 -4.49284 1.31382 0
M  V30 245 H 31.7216 -6.14389 2.05987 0
M  V30 246 N 25.1277 -0.289203 -1.54924 0
M  V30 247 C 26.5437 0.0645403 -1.59469 0
M  V30 248 C 26.7437 1.53419 -1.30632 0
M  V30 249 O 25.7997 2.2852 -1.074 0
M  V30 250 C 27.1127 -0.32278 -2.98963 0
M  V30 251 C 28.6607 -0.270564 -3.11828 0
M  V30 252 C 29.1357 -0.632532 -4.53611 0
M  V30 253 N 30.6267 -0.584617 -4.59496 0
M  V30 254 C 31.3617 -0.837314 -5.67254 0
M  V30 255 N 30.8577 -1.15536 -6.83098 0
M  V30 256 N 32.6507 -0.765166 -5.56868 0
M  V30 257 H 24.8017 -1.24714 -1.71931 0
M  V30 258 H 27.0647 -0.504809 -0.802416 0
M  V30 259 H 26.7707 -1.34541 -3.24948 0
M  V30 260 H 26.6447 0.32944 -3.75759 0
M  V30 261 H 29.0317 0.742805 -2.85598 0
M  V30 262 H 29.1127 -0.957242 -2.37214 0
M  V30 263 H 28.7567 -1.64365 -4.80569 0
M  V30 264 H 28.6867 0.07609 -5.26545 0
M  V30 265 H 31.1777 -0.349248 -3.76283 0
M  V30 266 H 31.4907 -1.33447 -7.61191 0
M  V30 267 H 29.8357 -1.19328 -6.84679 0
M  V30 268 H 33.0267 -0.516432 -4.65243 0
M  V30 269 H 33.1997 -0.965477 -6.40767 0
M  V30 270 N 26.6058 1.57591 -0.0167156 0
M  V30 271 C 28.0218 1.55946 0.339557 0
M  V30 272 C 28.2218 1.02109 1.73713 0
M  V30 273 O 27.2778 0.662303 2.43659 0
M  V30 274 C 28.5908 3.00037 0.199499 0
M  V30 275 C 30.1388 3.11805 0.273193 0
M  V30 276 C 30.6138 4.57713 0.162068 0
M  V30 277 N 32.1048 4.6268 0.219444 0
M  V30 278 C 32.8398 5.73185 0.157054 0
M  V30 279 N 32.3358 6.92786 0.0442936 0
M  V30 280 N 34.1288 5.61707 0.21014 0
M  V30 281 H 26.2798 1.90921 -0.930758 0
M  V30 282 H 28.5428 0.877674 -0.358319 0
M  V30 283 H 28.2488 3.4333 -0.76273 0
M  V30 284 H 28.1228 3.64387 0.974786 0
M  V30 285 H 30.5098 2.68433 1.22587 0
M  V30 286 H 30.5908 2.50201 -0.532256 0
M  V30 287 H 30.2348 5.01763 -0.78714 0
M  V30 288 H 30.1648 5.17283 0.986222 0
M  V30 289 H 32.6558 3.76649 0.307246 0
M  V30 290 H 32.9688 7.728 0.00304069 0
M  V30 291 H 31.3138 6.94999 0.00968457 0
M  V30 292 H 34.5048 4.6716 0.296546 0
M  V30 293 H 34.6778 6.47807 0.158054 0
M  V30 294 N 28.0839 -0.256276 1.55502 0
M  V30 295 C 29.3319 -0.983672 1.76545 0
M  V30 296 C 29.6529 -1.86206 0.578982 0
M  V30 297 O 28.9229 -1.91656 -0.405577 0
M  V30 298 H 27.5029 -0.366191 0.651086 0
M  V30 299 H 30.1649 -0.276479 1.92929 0
M  V30 300 H 29.2609 -1.61087 2.67315 0
M  V30 301 N 29.562 -1.4872 -0.521534 0
M  V30 302 C 30.978 -1.35028 -0.850855 0
M  V30 303 C 31.178 -0.367712 -1.98116 0
M  V30 304 O 30.234 0.208037 -2.51642 0
M  V30 305 C 31.547 -2.75263 -1.21041 0
M  V30 306 C 33.095 -2.83813 -1.31981 0
M  V30 307 C 33.57 -4.24769 -1.71276 0
M  V30 308 N 35.061 -4.27482 -1.78363 0
M  V30 309 C 35.796 -5.33494 -2.1017 0
M  V30 310 N 35.292 -6.49775 -2.40343 0
M  V30 311 N 37.085 -5.20894 -2.11248 0
M  V30 312 H 29.236 -2.11214 0.22413 0
M  V30 313 H 31.499 -0.947252 0.0376439 0
M  V30 314 H 31.205 -3.48765 -0.453415 0
M  V30 315 H 31.079 -3.09327 -2.15863 0
M  V30 316 H 33.466 -2.10561 -2.06756 0
M  V30 317 H 33.547 -2.53358 -0.352596 0
M  V30 318 H 33.191 -4.9854 -0.970588 0
M  V30 319 H 33.121 -4.52673 -2.69062 0
M  V30 320 H 35.612 -3.43611 -1.57288 0
M  V30 321 H 35.925 -7.26402 -2.63743 0
M  V30 322 H 34.27 -6.53035 -2.37844 0
M  V30 323 H 37.461 -4.29065 -1.87139 0
M  V30 324 H 37.634 -6.03612 -2.35704 0
M  V30 325 N 31.0401 0.771051 -1.3745 0
M  V30 326 C 31.9721 1.89352 -1.29146 0
M  V30 327 C 32.9851 1.61477 -0.207124 0
M  V30 328 O 34.1741 1.72382 -0.463324 0
M  V30 329 C 31.2741 3.24596 -0.974195 0
M  V30 330 C 30.4471 3.80111 -2.16413 0
M  V30 331 C 29.5061 4.93832 -1.81703 0
M  V30 332 O 28.5321 5.09382 -2.54006 0
M  V30 333 N 29.7341 5.75483 -0.761573 0
M  V30 334 H 32.4991 1.96991 -2.25864 0
M  V30 335 H 30.0601 0.950191 -1.31084 0
M  V30 336 H 32.0521 3.98193 -0.722828 0
M  V30 337 H 30.6221 3.12454 -0.0955527 0
M  V30 338 H 29.8421 2.98284 -2.57721 0
M  V30 339 H 31.1301 4.13932 -2.95867 0
M  V30 340 H 30.5281 5.65469 -0.161609 0
M  V30 341 H 29.0851 6.49302 -0.570064 0
M  V30 342 N 32.5182 1.22032 0.997298 0
M  V30 343 C 33.9342 0.979326 1.26021 0
M  V30 344 C 34.1342 -0.32972 1.98784 0
M  V30 345 O 33.1902 -1.05345 2.29475 0
M  V30 346 C 34.5032 2.17509 2.07631 0
M  V30 347 C 36.0512 2.21817 2.2083 0
M  V30 348 C 36.5262 3.40933 3.05825 0
M  V30 349 N 38.0172 3.41067 3.13412 0
M  V30 350 C 38.7522 4.29885 3.79455 0
M  V30 351 N 38.2482 5.28914 4.47462 0
M  V30 352 N 40.0412 4.17673 3.76173 0
M  V30 353 H 32.1922 2.06202 0.509352 0
M  V30 354 H 34.4552 0.90334 0.287541 0
M  V30 355 H 34.1612 3.12415 1.61524 0
M  V30 356 H 34.0352 2.17206 3.08385 0
M  V30 357 H 36.4222 1.27462 2.66153 0
M  V30 358 H 36.5032 2.2616 1.1952 0
M  V30 359 H 36.1472 4.35586 2.61203 0
M  V30 360 H 36.0772 3.33829 4.07266 0
M  V30 361 H 38.5682 2.69406 2.65007 0
M  V30 362 H 38.8812 5.92973 4.95583 0
M  V30 363 H 37.2262 5.32831 4.46224 0
M  V30 364 H 40.4172 3.39564 3.22202 0
M  V30 365 H 40.5902 4.87098 4.27363 0
M  V30 366 N 33.9963 -1.19345 1.0293 0
M  V30 367 C 35.2263 -1.92717 0.744563 0
M  V30 368 C 35.6343 -1.75751 -0.700579 0
M  V30 369 O 34.9773 -1.07703 -1.48815 0
M  V30 370 C 35.0393 -3.44828 1.01657 0
M  V30 371 C 34.7033 -3.85564 2.45335 0
M  V30 372 C 35.7003 -3.90286 3.43472 0
M  V30 373 C 33.3853 -4.1719 2.79746 0
M  V30 374 C 35.3793 -4.26065 4.74075 0
M  V30 375 C 33.0663 -4.52642 4.10559 0
M  V30 376 C 34.0643 -4.57054 5.07534 0
M  V30 377 O 33.7523 -4.91685 6.36004 0
M  V30 378 H 33.4843 -0.618977 0.271742 0
M  V30 379 H 36.0383 -1.52415 1.37691 0
M  V30 380 H 34.2683 -3.85314 0.327084 0
M  V30 381 H 35.9573 -3.99437 0.721427 0
M  V30 382 H 36.7233 -3.66002 3.18225 0
M  V30 383 H 32.6023 -4.1294 2.04943 0
M  V30 384 H 36.1463 -4.29423 5.49765 0
M  V30 385 H 32.0433 -4.76383 4.35579 0
M  V30 386 H 32.8113 -5.09631 6.40483 0
M  V30 387 N 35.4744 -0.807222 -1.35358 0
M  V30 388 C 36.7204 -0.388463 -1.99045 0
M  V30 389 C 37.0534 1.04184 -1.63888 0
M  V30 390 O 36.3284 1.72292 -0.902535 0
M  V30 391 C 36.6114 -0.572783 -3.55515 0
M  V30 392 C 36.4644 -2.04807 -4.00468 0
M  V30 393 C 37.7834 0.00114064 -4.401 0
M  V30 394 H 34.9024 -0.142619 -0.723069 0
M  V30 395 H 37.5444 -1.01687 -1.60498 0
M  V30 396 H 35.6944 -0.0378425 -3.88482 0
M  V30 397 H 37.3664 -2.64544 -3.77908 0
M  V30 398 H 35.6094 -2.54427 -3.51353 0
M  V30 399 H 36.2804 -2.12792 -5.09337 0
M  V30 400 H 38.7564 -0.455716 -4.13597 0
M  V30 401 H 37.6324 -0.157737 -5.48673 0
M  V30 402 H 37.8934 1.09488 -4.28328 0
M  V30 403 N 36.9525 1.47285 -0.560781 0
M  V30 404 C 37.8625 2.33846 0.187954 0
M  V30 405 C 38.8785 1.48412 0.908293 0
M  V30 406 O 40.0545 1.81332 0.876388 0
M  V30 407 C 37.1195 3.25178 1.2025 0
M  V30 408 C 36.1805 4.26504 0.489208 0
M  V30 409 C 35.4135 5.13472 1.45542 0
M  V30 410 O 35.6365 5.02959 2.6905 0
M  V30 411 O 34.5705 5.93902 0.977963 0
M  V30 412 H 38.3965 2.99177 -0.522177 0
M  V30 413 H 35.9815 1.45903 -0.321364 0
M  V30 414 H 37.8635 3.81584 1.78805 0
M  V30 415 H 36.5385 2.6247 1.89449 0
M  V30 416 H 35.4455 3.73847 -0.137627 0
M  V30 417 H 36.7785 4.91935 -0.161399 0
M  V30 418 N 38.4306 0.297415 1.54768 0
M  V30 419 C 39.3776 -0.580276 2.23386 0
M  V30 420 C 40.3476 -1.13238 1.21517 0
M  V30 421 O 41.5326 -1.17757 1.50126 0
M  V30 422 C 38.6726 -1.74801 2.97555 0
M  V30 423 C 37.7856 -1.22764 4.1419 0
M  V30 424 C 36.9206 -2.35895 4.75949 0
M  V30 425 C 35.9596 -1.80974 5.84735 0
M  V30 426 N 35.0966 -2.87664 6.40464 0
M  V30 427 H 39.9366 0.0114833 2.97998 0
M  V30 428 H 37.4736 0.0174361 1.4709 0
M  V30 429 H 39.4316 -2.43475 3.38786 0
M  V30 430 H 38.0616 -2.31145 2.25326 0
M  V30 431 H 37.1136 -0.433271 3.77924 0
M  V30 432 H 38.4256 -0.785551 4.92575 0
M  V30 433 H 37.5796 -3.12523 5.20014 0
M  V30 434 H 36.3186 -2.83429 3.96887 0
M  V30 435 H 35.3236 -1.02834 5.40097 0
M  V30 436 H 36.5486 -1.34348 6.65678 0
M  V30 437 H 34.4946 -3.34538 5.64287 0
M  V30 438 H 34.4116 -2.4794 7.14186 0
M  V30 439 H 35.6796 -3.642 6.89187 0
M  V30 440 N 39.9087 -1.5758 0.0250728 0
M  V30 441 C 41.1857 -1.82917 -0.692873 0
M  V30 442 C 41.5657 -0.908137 -1.90568 0
M  V30 443 O 40.9137 0.0372298 -2.2847 0
M  V30 444 C 41.1237 -3.32034 -1.07492 0
M  V30 445 C 42.4717 -3.98406 -1.46826 0
M  V30 446 O 43.4957 -3.36505 -1.16801 0
M  V30 447 O 42.3547 -5.07497 -2.02754 0
M  V30 448 H 39.4487 -0.754079 -0.33955 0
M  V30 449 H 41.9947 -1.69619 0.0524456 0
M  V30 450 H 40.7667 -3.90728 -0.211552 0
M  V30 451 H 40.3897 -3.50424 -1.87854 0
M  V30 452 N 41.3868 0.248026 -1.55636 0
M  V30 453 C 42.6348 0.974295 -1.77065 0
M  V30 454 C 42.9558 1.85897 -0.588849 0
M  V30 455 O 42.2258 1.91868 0.395407 0
M  V30 456 H 40.8058 0.362733 -0.653019 0
M  V30 457 H 43.4678 0.266244 -1.93073 0
M  V30 458 H 42.5638 1.59667 -2.68166 0
M  V30 459 N 42.8649 1.48995 0.513639 0
M  V30 460 C 44.2809 1.35478 0.843682 0
M  V30 461 C 44.4809 0.378213 1.97919 0
M  V30 462 O 43.5369 -0.194689 2.51748 0
M  V30 463 C 44.8499 2.75901 1.1958 0
M  V30 464 C 46.3979 2.84509 1.30474 0
M  V30 465 C 46.8729 4.25671 1.69021 0
M  V30 466 N 48.3639 4.28422 1.76094 0
M  V30 467 C 49.0989 5.34601 2.07338 0
M  V30 468 N 48.5949 6.5104 2.36894 0
M  V30 469 N 50.3879 5.22007 2.08483 0
M  V30 470 H 42.5389 2.11092 -0.235328 0
M  V30 471 H 44.8019 0.947039 -0.0426669 0
M  V30 472 H 44.5079 3.49001 0.434913 0
M  V30 473 H 44.3819 3.10467 2.1422 0
M  V30 474 H 46.7689 2.11655 2.05637 0
M  V30 475 H 46.8499 2.53542 0.339155 0
M  V30 476 H 46.4939 4.99048 0.944135 0
M  V30 477 H 46.4239 4.54094 2.66658 0
M  V30 478 H 48.9149 3.44441 1.55464 0
M  V30 479 H 49.2279 7.2779 2.59887 0
M  V30 480 H 47.5729 6.54287 2.34378 0
M  V30 481 H 50.7639 4.30051 1.84861 0
M  V30 482 H 50.9369 6.04854 2.325 0
M  V30 483 N 44.343 -0.763751 1.37857 0
M  V30 484 C 45.583 -1.53551 1.34913 0
M  V30 485 C 45.947 -1.91895 -0.0635882 0
M  V30 486 O 47.148 -2.67916 -0.217825 0
M  V30 487 C 45.419 -2.76126 2.26912 0
M  V30 488 S 46.978 -3.66105 2.41893 0
M  V30 489 H 43.796 -0.52559 0.478828 0
M  V30 490 H 46.398 -0.897435 1.73685 0
M  V30 491 H 45.102 -2.4605 3.28463 0
M  V30 492 H 44.633 -3.44887 1.89253 0
M  V30 493 H 46.648 -4.68473 1.63545 0
M  V30 494 N 45.8211 -1.22559 -0.990812 0
M  V30 495 C 46.7691 -0.994798 -2.10253 0
M  V30 496 C 47.7631 0.0627798 -1.69284 0
M  V30 497 O 48.9691 -0.0898392 -1.79776 0
M  V30 498 H 45.3441 -0.304527 -0.687581 0
M  V30 499 H 47.3151 -1.93812 -2.26891 0
M  V30 500 C 46.0641 -0.591439 -3.42633 0
M  V30 501 H 45.3871 -1.3969 -3.74602 0
M  V30 502 H 46.8271 -0.469385 -4.21394 0
M  V30 503 C 45.2861 0.699232 -3.29564 0
M  V30 504 O 45.8161 1.75112 -3.61523 0
M  V30 505 N 44.0221 0.671182 -2.82743 0
M  V30 506 H 43.5691 -0.185136 -2.56934 0
M  V30 507 H 43.5271 1.53502 -2.7438 0
M  V30 508 N 47.2992 1.18797 -1.03562 0
M  V30 509 C 48.5452 1.8893 -0.737113 0
M  V30 510 C 48.8782 1.79837 0.732956 0
M  V30 511 O 48.1532 1.19525 1.5344 0
M  V30 512 C 48.4362 3.39607 -1.19745 0
M  V30 513 C 48.2892 3.57537 -2.72924 0
M  V30 514 C 49.6082 4.33069 -0.783526 0
M  V30 515 H 46.7272 0.686057 -0.269249 0
M  V30 516 H 49.3692 1.39797 -1.28673 0
M  V30 517 H 47.5192 3.81583 -0.729855 0
M  V30 518 H 49.1912 3.24688 -3.27682 0
M  V30 519 H 47.4342 3.00363 -3.12993 0
M  V30 520 H 48.1052 4.63238 -3.00191 0
M  V30 521 H 50.5812 3.98846 -1.18581 0
M  V30 522 H 49.4572 5.3707 -1.13343 0
M  V30 523 H 49.7182 4.40986 0.313681 0
M  V30 524 N 48.7773 0.814389 1.34928 0
M  V30 525 C 49.7093 0.187834 2.28429 0
M  V30 526 C 50.7223 -0.617374 1.5064 0
M  V30 527 O 51.9113 -0.448454 1.72775 0
M  V30 528 C 49.0113 -0.755962 3.30361 0
M  V30 529 C 48.1843 0.00456686 4.374 0
M  V30 530 C 47.2433 -0.858876 5.19143 0
M  V30 531 O 46.2693 -0.306968 5.68372 0
M  V30 532 N 47.4713 -2.17988 5.38016 0
M  V30 533 H 50.2363 0.991105 2.82838 0
M  V30 534 H 47.7973 0.670561 1.4736 0
M  V30 535 H 49.7893 -1.338 3.81942 0
M  V30 536 H 48.3593 -1.46001 2.7641 0
M  V30 537 H 47.5793 0.767865 3.86649 0
M  V30 538 H 48.8673 0.528422 5.06049 0
M  V30 539 H 48.2653 -2.65212 4.99679 0
M  V30 540 H 46.8223 -2.71098 5.92747 0
M  V30 541 N 50.2554 -1.46986 0.568584 0
M  V30 542 C 51.1874 -2.28233 -0.210337 0
M  V30 543 C 52.2004 -1.37682 -0.868767 0
M  V30 544 O 53.3894 -1.62406 -0.740705 0
M  V30 545 C 50.4894 -3.12293 -1.3163 0
M  V30 546 C 49.6624 -4.30878 -0.7525 0
M  V30 547 C 48.7214 -4.96445 -1.74439 0
M  V30 548 O 47.7474 -5.54482 -1.286 0
M  V30 549 N 48.9494 -4.92171 -3.07812 0
M  V30 550 H 51.7144 -2.95723 0.486648 0
M  V30 551 H 49.2754 -1.56742 0.405409 0
M  V30 552 H 51.2674 -3.53022 -1.97883 0
M  V30 553 H 49.8374 -2.46971 -1.91636 0
M  V30 554 H 49.0574 -3.94104 0.0871128 0
M  V30 555 H 50.3454 -5.07558 -0.35536 0
M  V30 556 H 49.7434 -4.46239 -3.47688 0
M  V30 557 H 48.3004 -5.36884 -3.69592 0
M  V30 558 N 51.7335 -0.305618 -1.54608 0
M  V30 559 C 52.9815 0.301701 -1.99835 0
M  V30 560 C 53.3025 1.54054 -1.19551 0
M  V30 561 O 52.5725 1.93702 -0.292658 0
M  V30 562 H 51.1525 0.114468 -0.738178 0
M  V30 563 H 53.8145 -0.418016 -1.90364 0
M  V30 564 H 52.9105 0.570548 -3.06841 0
M  V30 565 N 53.2116 1.57565 -0.0334293 0
M  V30 566 C 54.1596 2.1164 0.96496 0
M  V30 567 C 55.1536 1.04398 1.33407 0
M  V30 568 O 56.3596 1.22828 1.3158 0
M  V30 569 H 52.7346 0.676222 0.32898 0
M  V30 570 H 54.7056 2.94455 0.483614 0
M  V30 571 C 53.4546 2.66207 2.23672 0
M  V30 572 H 52.7776 3.48378 1.96145 0
M  V30 573 H 54.2176 3.07685 2.9173 0
M  V30 574 C 52.6766 1.59151 2.96939 0
M  V30 575 O 53.2066 0.993858 3.89211 0
M  V30 576 N 51.4126 1.31093 2.59351 0
M  V30 577 H 50.9596 1.7988 1.84393 0
M  V30 578 H 50.9176 0.596889 3.08682 0
M  V30 579 N 54.6897 -0.239769 1.55765 0
M  V30 580 C 55.9357 -0.968234 1.78194 0
M  V30 581 C 56.2687 -1.84701 0.599938 0
M  V30 582 O 55.5437 -1.9031 -0.401524 0
M  V30 583 C 55.8267 -1.8227 3.10564 0
M  V30 584 C 55.6797 -0.971633 4.3918 0
M  V30 585 C 56.9987 -2.80388 3.39221 0
M  V30 586 H 54.1177 -0.350572 0.648281 0
M  V30 587 H 56.7597 -0.238259 1.885 0
M  V30 588 H 54.9097 -2.44507 3.01908 0
M  V30 589 H 56.5817 -0.367408 4.59835 0
M  V30 590 H 54.8247 -0.276276 4.32919 0
M  V30 591 H 55.4957 -1.60346 5.28198 0
M  V30 592 H 57.9717 -2.28287 3.47885 0
M  V30 593 H 56.8477 -3.3729 4.33044 0
M  V30 594 H 57.1087 -3.57212 2.60484 0
M  V30 595 N 56.1678 -1.49265 -0.50573 0
M  V30 596 C 57.5838 -1.35923 -0.836486 0
M  V30 597 C 57.7838 -0.388704 -1.97715 0
M  V30 598 O 56.8398 0.181336 -2.51848 0
M  V30 599 C 58.1528 -2.76531 -1.18115 0
M  V30 600 C 59.7008 -2.85197 -1.28964 0
M  V30 601 C 60.1758 -4.26561 -1.66761 0
M  V30 602 N 61.6668 -4.2935 -1.73819 0
M  V30 603 C 62.4018 -5.35693 -2.045 0
M  V30 604 N 61.8978 -6.52287 -2.33438 0
M  V30 605 N 63.6908 -5.23105 -2.05711 0
M  V30 606 H 55.8418 -2.10965 0.246519 0
M  V30 607 H 58.1048 -0.9468 0.0476887 0
M  V30 608 H 57.8108 -3.49226 -0.416398 0
M  V30 609 H 57.6848 -3.11599 -2.1257 0
M  V30 610 H 60.0718 -2.12742 -2.04511 0
M  V30 611 H 60.1528 -2.53718 -0.325704 0
M  V30 612 H 59.7968 -4.99541 -0.917656 0
M  V30 613 H 59.7268 -4.55502 -2.64246 0
M  V30 614 H 62.2178 -3.4526 -1.53635 0
M  V30 615 H 62.5308 -7.29158 -2.56024 0
M  V30 616 H 60.8758 -6.55521 -2.30905 0
M  V30 617 H 64.0668 -4.31026 -1.82577 0
M  V30 618 H 64.2398 -6.06078 -2.29289 0
M  V30 619 N 57.6459 0.756429 -1.3826 0
M  V30 620 C 58.5559 1.9009 -1.37488 0
M  V30 621 C 59.5719 1.71855 -0.272366 0
M  V30 622 O 60.7479 1.94827 -0.510318 0
M  V30 623 C 57.8129 3.25421 -1.19592 0
M  V30 624 C 56.8739 3.56202 -2.39622 0
M  V30 625 C 56.1069 4.85075 -2.2257 0
M  V30 626 O 56.3299 5.57246 -1.21793 0
M  V30 627 O 55.2639 5.15269 -3.11098 0
M  V30 628 H 59.0899 1.93695 -2.33914 0
M  V30 629 H 56.6749 0.901313 -1.1915 0
M  V30 630 H 58.5569 4.06337 -1.11661 0
M  V30 631 H 57.2319 3.22634 -0.262486 0
M  V30 632 H 56.1389 2.75458 -2.53128 0
M  V30 633 H 57.4719 3.63747 -3.31586 0
M  V30 634 N 59.124 1.23083 0.984299 0
M  V30 635 C 60.352 1.08714 1.76037 0
M  V30 636 C 60.767 -0.361691 1.85303 0
M  V30 637 O 60.124 -1.25034 1.32939 0
M  V30 638 C 60.175 1.70206 3.18923 0
M  V30 639 O 59.896 3.09423 3.10144 0
M  V30 640 C 61.397 1.61227 4.12941 0
M  V30 641 H 58.617 0.380664 0.552572 0
M  V30 642 H 61.161 1.62853 1.23689 0
M  V30 643 H 59.316 1.20109 3.6831 0
M  V30 644 H 59.73 3.39188 4.00065 0
M  V30 645 H 61.204 2.08962 5.10919 0
M  V30 646 H 61.681 0.570375 4.35481 0
M  V30 647 H 62.287 2.10671 3.69456 0
M  V30 648 N 60.6021 -1.18246 1.0419 0
M  V30 649 C 61.8321 -1.91916 0.764961 0
M  V30 650 C 62.2401 -1.76485 -0.681898 0
M  V30 651 O 61.5831 -1.09275 -1.47664 0
M  V30 652 C 61.6451 -3.4373 1.05309 0
M  V30 653 C 61.3091 -3.8294 2.4941 0
M  V30 654 C 62.3061 -3.86621 3.47592 0
M  V30 655 C 59.9911 -4.142 2.84155 0
M  V30 656 C 61.9851 -4.21013 4.78568 0
M  V30 657 C 59.6721 -4.48262 4.15337 0
M  V30 658 C 60.6701 -4.51645 5.12353 0
M  V30 659 O 60.3581 -4.84911 6.41183 0
M  V30 660 H 60.0901 -0.61606 0.278292 0
M  V30 661 H 62.6441 -1.50947 1.39299 0
M  V30 662 H 60.8741 -3.84946 0.367933 0
M  V30 663 H 62.5631 -3.9865 0.763752 0
M  V30 664 H 63.3291 -3.62607 3.22089 0
M  V30 665 H 59.2081 -4.10743 2.09311 0
M  V30 666 H 62.7521 -4.23568 5.54289 0
M  V30 667 H 58.6491 -4.71737 4.40607 0
M  V30 668 H 59.4171 -5.02809 6.45852 0
M  V30 669 N 62.0802 -0.821533 -1.34494 0
M  V30 670 C 63.4962 -0.507117 -1.51329 0
M  V30 671 C 63.6962 0.968964 -1.76673 0
M  V30 672 O 62.7522 1.75348 -1.81685 0
M  V30 673 C 64.0652 -1.36544 -2.67911 0
M  V30 674 C 65.6132 -1.36242 -2.81793 0
M  V30 675 C 66.0882 -2.2052 -4.01416 0
M  V30 676 N 67.5792 -2.18136 -4.08621 0
M  V30 677 C 68.3142 -2.80095 -5.00334 0
M  V30 678 N 67.8102 -3.51039 -5.9728 0
M  V30 679 N 69.6032 -2.69656 -4.93196 0
M  V30 680 H 61.7542 -1.77729 -1.16302 0
M  V30 681 H 64.0172 -0.757291 -0.570276 0
M  V30 682 H 63.7232 -2.41361 -2.55808 0
M  V30 683 H 63.5972 -1.02917 -3.62888 0
M  V30 684 H 65.9842 -0.322041 -2.93338 0
M  V30 685 H 66.0652 -1.73866 -1.87628 0
M  V30 686 H 65.7092 -3.24607 -3.90631 0
M  V30 687 H 65.6392 -1.80247 -4.94791 0
M  V30 688 H 68.1302 -1.6653 -3.39229 0
M  V30 689 H 68.4432 -3.95565 -6.63889 0
M  V30 690 H 66.7882 -3.55145 -5.97409 0
M  V30 691 H 69.9792 -2.13808 -4.16418 0
M  V30 692 H 70.1522 -3.1823 -5.64476 0
M  V30 693 N 63.5583 1.46682 -0.576371 0
M  V30 694 C 64.7883 2.06498 -0.0648694 0
M  V30 695 C 65.1963 1.42665 1.24271 0
M  V30 696 O 64.5393 0.523886 1.76071 0
M  V30 697 C 64.6013 3.5904 0.181816 0
M  V30 698 C 64.2653 4.45028 -1.0392 0
M  V30 699 C 65.2623 4.81959 -1.94966 0
M  V30 700 C 62.9473 4.86259 -1.25927 0
M  V30 701 C 64.9413 5.58942 -3.06371 0
M  V30 702 C 62.6283 5.63002 -2.37638 0
M  V30 703 C 63.6263 5.99257 -3.2769 0
M  V30 704 O 63.3143 6.7445 -4.37461 0
M  V30 705 H 63.0463 0.674028 -0.0515987 0
M  V30 706 H 65.6003 1.89393 -0.794951 0
M  V30 707 H 63.8303 3.74429 0.966436 0
M  V30 708 H 65.5193 4.00806 0.641047 0
M  V30 709 H 66.2853 4.50689 -1.79177 0
M  V30 710 H 62.1643 4.57494 -0.567448 0
M  V30 711 H 65.7083 5.87158 -3.76684 0
M  V30 712 H 61.6053 5.93686 -2.53392 0
M  V30 713 H 62.3733 6.92867 -4.35749 0
M  V30 714 N 65.0364 0.313813 1.54444 0
M  V30 715 C 65.9664 -0.549454 2.26943 0
M  V30 716 C 66.9474 -1.12741 1.27372 0
M  V30 717 O 68.1324 -1.15436 1.56167 0
M  V30 718 C 65.2624 -1.71523 3.01989 0
M  V30 719 C 64.2164 -1.26703 4.08816 0
M  V30 720 C 63.5424 -2.51898 4.71647 0
M  V30 721 C 64.8424 -0.388962 5.2085 0
M  V30 722 H 66.5364 0.0552661 2.99349 0
M  V30 723 H 64.0824 0.0280207 1.43973 0
M  V30 724 H 66.0354 -2.32535 3.51433 0
M  V30 725 H 64.7594 -2.34639 2.27183 0
M  V30 726 H 63.4184 -0.679896 3.6024 0
M  V30 727 H 63.0664 -3.13356 3.93468 0
M  V30 728 H 62.7664 -2.22605 5.43802 0
M  V30 729 H 64.2904 -3.1369 5.23861 0
M  V30 730 H 65.7044 -0.905107 5.6611 0
M  V30 731 H 64.1014 -0.18924 5.99802 0
M  V30 732 H 65.1714 0.582699 4.81386 0
M  V30 733 N 66.5145 -1.57545 0.0417849 0
M  V30 734 C 67.7425 -1.96624 -0.643928 0
M  V30 735 C 68.1575 -0.918897 -1.64929 0
M  V30 736 O 67.5145 0.0979323 -1.82237 0
M  V30 737 C 67.5655 -3.35781 -1.33914 0
M  V30 738 O 67.2865 -4.365 -0.374048 0
M  V30 739 C 68.7875 -3.89566 -2.1155 0
M  V30 740 H 66.0075 -0.647316 -0.176702 0
M  V30 741 H 68.5515 -2.04229 0.105304 0
M  V30 742 H 66.7065 -3.29357 -2.03968 0
M  V30 743 H 67.1205 -5.17248 -0.869179 0
M  V30 744 H 68.5945 -4.89242 -2.55628 0
M  V30 745 H 69.0715 -3.24488 -2.9598 0
M  V30 746 H 69.6775 -3.99298 -1.46427 0
M  V30 747 N 67.9926 0.231505 -1.5589 0
M  V30 748 C 69.2696 0.981096 -1.69215 0
M  V30 749 C 69.6496 2.02799 -0.586164 0
M  V30 750 O 68.9976 2.24823 0.408253 0
M  V30 751 C 69.2076 1.60054 -3.10135 0
M  V30 752 C 70.5556 2.09658 -3.69227 0
M  V30 753 O 71.5796 1.69967 -3.13033 0
M  V30 754 O 70.4386 2.8258 -4.67772 0
M  V30 755 H 67.5326 0.457653 -0.688827 0
M  V30 756 H 70.0786 0.224073 -1.68214 0
M  V30 757 H 68.8506 0.844105 -3.82087 0
M  V30 758 H 68.4736 2.42336 -3.15212 0
M  V30 759 N 69.4707 1.49531 0.497807 0
M  V30 760 C 70.4007 1.6935 1.60757 0
M  V30 761 C 71.3817 0.542218 1.61227 0
M  V30 762 O 72.5667 0.778417 1.77917 0
M  V30 763 C 69.6967 1.76298 2.99226 0
M  V30 764 C 68.6507 2.91248 3.13622 0
M  V30 765 C 67.9767 2.83312 4.53474 0
M  V30 766 C 69.2767 4.3214 2.93346 0
M  V30 767 H 70.9707 2.62263 1.44425 0
M  V30 768 H 68.5167 1.26208 0.693367 0
M  V30 769 H 70.4697 1.88749 3.76765 0
M  V30 770 H 69.1937 0.799871 3.16654 0
M  V30 771 H 67.8527 2.78404 2.38509 0
M  V30 772 H 67.5007 1.84902 4.67782 0
M  V30 773 H 67.2007 3.60465 4.64046 0
M  V30 774 H 68.7247 2.97775 5.33069 0
M  V30 775 H 70.1387 4.45649 3.60652 0
M  V30 776 H 68.5357 5.1054 3.15387 0
M  V30 777 H 69.6057 4.46363 1.89441 0
M  V30 778 N 70.9488 -0.749086 1.3866 0
M  V30 779 C 72.1958 -1.50833 1.35114 0
M  V30 780 C 72.5238 -1.94415 -0.0574049 0
M  V30 781 O 71.7788 -1.66065 -1.03541 0
M  V30 782 C 72.0778 -2.7712 2.25697 0
M  V30 783 C 71.7438 -2.52477 3.73585 0
M  V30 784 C 70.4058 -2.45466 4.13884 0
M  V30 785 C 72.7578 -2.31066 4.67181 0
M  V30 786 C 70.0858 -2.15064 5.45861 0
M  V30 787 C 72.4378 -2.02183 5.9942 0
M  V30 788 C 71.1018 -1.93631 6.38798 0
M  V30 789 H 70.3718 -0.551936 0.494416 0
M  V30 790 H 73.0188 -0.860979 1.71054 0
M  V30 791 H 71.3238 -3.46528 1.82827 0
M  V30 792 H 73.0208 -3.35096 2.20254 0
M  V30 793 H 69.6108 -2.58807 3.41638 0
M  V30 794 H 73.7948 -2.35459 4.3689 0
M  V30 795 H 69.0508 -2.06954 5.75308 0
M  V30 796 H 73.2248 -1.8462 6.71482 0
M  V30 797 H 70.8518 -1.69839 7.40985 0
M  V30 798 N 72.4269 -1.23603 -0.977757 0
M  V30 799 C 73.6549 -1.09646 -1.75458 0
M  V30 800 C 74.0699 0.351859 -1.85492 0
M  V30 801 O 73.4269 1.24327 -1.336 0
M  V30 802 C 73.4779 -1.71895 -3.18016 0
M  V30 803 O 73.1989 -3.11063 -3.08498 0
M  V30 804 C 74.6999 -1.63415 -4.12081 0
M  V30 805 H 71.9199 -0.38359 -0.550545 0
M  V30 806 H 74.4639 -1.63507 -1.22824 0
M  V30 807 H 72.6189 -1.22061 -3.67668 0
M  V30 808 H 73.0329 -3.41305 -3.9826 0
M  V30 809 H 74.5069 -2.11669 -5.09804 0
M  V30 810 H 74.9839 -0.593462 -4.35172 0
M  V30 811 H 75.5899 -2.12628 -3.68334 0
M  V30 812 N 73.905 1.17692 -1.04816 0
M  V30 813 C 75.133 1.91786 -0.776254 0
M  V30 814 C 75.548 1.76604 0.667577 0
M  V30 815 O 74.905 1.10067 1.45573 0
M  V30 816 C 74.956 3.42967 -1.14263 0
M  V30 817 O 74.677 3.57678 -2.52978 0
M  V30 818 C 76.178 4.34144 -0.896311 0
M  V30 819 H 73.398 0.608624 -0.282519 0
M  V30 820 H 75.942 1.49268 -1.39783 0
M  V30 821 H 74.097 3.83245 -0.565874 0
M  V30 822 H 74.511 4.51319 -2.67229 0
M  V30 823 H 75.985 5.38744 -1.20244 0
M  V30 824 H 76.462 4.38876 0.168636 0
M  V30 825 H 77.068 3.99574 -1.45672 0
M  V30 826 N 75.3831 0.828654 1.34056 0
M  V30 827 C 76.3131 0.269443 2.3194 0
M  V30 828 C 77.2941 -0.617247 1.58506 0
M  V30 829 O 78.4791 -0.542931 1.86456 0
M  V30 830 C 75.6091 -0.564793 3.42677 0
M  V30 831 C 74.5631 0.225241 4.27407 0
M  V30 832 C 73.8891 -0.7321 5.29664 0
M  V30 833 C 75.1891 1.43663 5.02154 0
M  V30 834 H 76.8831 1.08728 2.7896 0
M  V30 835 H 74.4291 0.524283 1.34117 0
M  V30 836 H 76.3821 -0.966233 4.10173 0
M  V30 837 H 75.1061 -1.41574 2.9432 0
M  V30 838 H 73.7651 0.608117 3.61521 0
M  V30 839 H 73.4131 -1.57916 4.77568 0
M  V30 840 H 73.1131 -0.20767 5.87233 0
M  V30 841 H 74.6371 -1.13128 6.00029 0
M  V30 842 H 76.0511 1.1089 5.62473 0
M  V30 843 H 74.4481 1.89711 5.69324 0
M  V30 844 H 75.5181 2.21181 4.31517 0
M  V30 845 N 76.8612 -1.46375 0.584142 0
M  V30 846 C 78.1072 -2.02678 0.0703716 0
M  V30 847 C 78.4402 -1.4545 -1.28678 0
M  V30 848 O 77.7152 -0.62014 -1.84349 0
M  V30 849 C 77.9982 -3.60099 0.00614674 0
M  V30 850 C 77.8512 -4.27709 1.3923 0
M  V30 851 C 79.1702 -4.34598 -0.693742 0
M  V30 852 H 76.2892 -0.736504 0.027047 0
M  V30 853 H 78.9312 -1.74501 0.751615 0
M  V30 854 H 77.0812 -3.84236 -0.574009 0
M  V30 855 H 78.7532 -4.14832 2.01773 0
M  V30 856 H 76.9962 -3.87016 1.95962 0
M  V30 857 H 77.6672 -5.36478 1.29982 0
M  V30 858 H 80.1432 -4.15615 -0.200869 0
M  V30 859 H 79.0192 -5.44318 -0.707714 0
M  V30 860 H 79.2802 -4.05759 -1.75533 0
M  V30 861 N 78.3393 -0.321999 -1.54275 0
M  V30 862 C 79.6163 0.335232 -1.92706 0
M  V30 863 C 79.9963 1.70006 -1.25145 0
M  V30 864 O 79.3443 2.25067 -0.394596 0
M  V30 865 C 79.5543 0.429008 -3.46353 0
M  V30 866 C 80.9023 0.690029 -4.18956 0
M  V30 867 O 81.9263 0.511992 -3.52501 0
M  V30 868 O 80.7853 1.03338 -5.36641 0
M  V30 869 H 77.8793 0.191143 -0.804608 0
M  V30 870 H 80.4253 -0.3716 -1.65581 0
M  V30 871 H 79.1973 -0.529611 -3.87699 0
M  V30 872 H 78.8203 1.18348 -3.79578 0
M  V30 873 N 79.8174 1.5752 -0.0501392 0
M  V30 874 C 80.7474 2.14502 0.922566 0
M  V30 875 C 81.7284 1.06642 1.3252 0
M  V30 876 O 82.9134 1.34577 1.4001 0
M  V30 877 C 80.0434 2.68916 2.19776 0
M  V30 878 C 78.9974 3.8175 1.93523 0
M  V30 879 C 78.3234 4.22677 3.27487 0
M  V30 880 C 79.6234 5.06932 1.25765 0
M  V30 881 H 81.3174 2.9603 0.447952 0
M  V30 882 H 78.8634 1.42401 0.214024 0
M  V30 883 H 80.8164 3.07419 2.88222 0
M  V30 884 H 79.5404 1.84578 2.69441 0
M  V30 885 H 78.1994 3.43718 1.27489 0
M  V30 886 H 77.8474 3.35291 3.74952 0
M  V30 887 H 77.5474 4.98725 3.1072 0
M  V30 888 H 79.0714 4.63779 3.97166 0
M  V30 889 H 80.4854 5.42888 1.84244 0
M  V30 890 H 78.8824 5.88116 1.19328 0
M  V30 891 H 79.9524 4.84337 0.233536 0
M  V30 892 N 81.2955 -0.223234 1.56011 0
M  V30 893 C 82.2275 -1.30006 1.88762 0
M  V30 894 C 83.2405 -1.43129 0.775746 0
M  V30 895 O 84.4295 -1.44057 1.05403 0
M  V30 896 C 81.5295 -2.67589 2.07965 0
M  V30 897 C 80.7025 -2.76434 3.38973 0
M  V30 898 C 79.7615 -3.95019 3.47629 0
M  V30 899 O 78.7875 -3.83436 4.20672 0
M  V30 900 N 79.9895 -5.09249 2.78649 0
M  V30 901 H 82.7545 -1.02238 2.81722 0
M  V30 902 H 80.3155 -0.413278 1.56536 0
M  V30 903 H 82.3075 -3.45297 2.11073 0
M  V30 904 H 80.8775 -2.87964 1.21638 0
M  V30 905 H 80.0975 -1.85216 3.47978 0
M  V30 906 H 81.3855 -2.79313 4.25278 0
M  V30 907 H 80.7835 -5.21556 2.19081 0
M  V30 908 H 79.3405 -5.85007 2.8742 0
M  V30 909 N 82.7736 -1.49793 -0.48987 0
M  V30 910 C 84.0196 -1.61049 -1.24236 0
M  V30 911 C 84.3746 -0.298412 -1.90072 0
M  V30 912 O 83.6676 0.702262 -1.78266 0
M  V30 913 C 83.8616 -2.71488 -2.32441 0
M  V30 914 C 83.6906 -4.13308 -1.77218 0
M  V30 915 C 82.4606 -4.79955 -1.58023 0
M  V30 916 C 84.6586 -4.98176 -1.27772 0
M  V30 917 N 82.6406 -6.06052 -0.978465 0
M  V30 918 C 84.0116 -6.14843 -0.798 0
M  V30 919 C 86.0666 -4.84091 -1.16449 0
M  V30 920 C 84.7696 -7.18975 -0.216245 0
M  V30 921 C 86.7956 -5.88382 -0.596698 0
M  V30 922 C 86.1576 -7.04285 -0.127262 0
M  V30 923 H 82.2566 -0.643611 -0.444172 0
M  V30 924 H 84.8406 -1.86842 -0.54754 0
M  V30 925 H 83.0116 -2.47449 -2.99372 0
M  V30 926 H 84.7436 -2.72205 -2.99477 0
M  V30 927 H 81.4986 -4.36936 -1.82712 0
M  V30 928 H 81.9226 -6.73407 -0.696534 0
M  V30 929 H 86.5646 -3.94786 -1.5134 0
M  V30 930 H 84.2826 -8.0797 0.144903 0
M  V30 931 H 87.8686 -5.79545 -0.511716 0
M  V30 932 H 86.7486 -7.83606 0.30523 0
M  V30 933 N 84.2517 0.741722 -1.39055 0
M  V30 934 C 85.6677 1.04638 -1.20512 0
M  V30 935 C 85.8677 2.01405 -0.0620218 0
M  V30 936 O 84.9237 2.45547 0.588457 0
M  V30 937 C 86.2367 1.6151 -2.53643 0
M  V30 938 C 87.7847 1.73623 -2.6043 0
M  V30 939 C 88.2597 2.33906 -3.93767 0
M  V30 940 N 89.7507 2.41323 -3.9537 0
M  V30 941 C 90.4857 2.88888 -4.95309 0
M  V30 942 N 89.9817 3.36401 -6.05645 0
M  V30 943 N 91.7747 2.88037 -4.82692 0
M  V30 944 H 83.9257 0.0998155 -2.12165 0
M  V30 945 H 86.1887 0.106907 -0.941953 0
M  V30 946 H 85.8947 0.978739 -3.37807 0
M  V30 947 H 85.7687 2.60411 -2.72885 0
M  V30 948 H 88.1557 2.36384 -1.76655 0
M  V30 949 H 88.2367 0.733945 -2.45045 0
M  V30 950 H 87.8807 1.71776 -4.7797 0
M  V30 951 H 87.8107 3.34799 -4.06469 0
M  V30 952 H 90.3017 2.07734 -3.15682 0
M  V30 953 H 90.6147 3.71186 -6.77821 0
M  V30 954 H 88.9597 3.34427 -6.09248 0
M  V30 955 H 92.1507 2.50237 -3.95599 0
M  V30 956 H 92.3237 3.24792 -5.60726 0
M  V30 957 N 85.7298 1.2412 0.971189 0
M  V30 958 C 86.6598 1.05508 2.08304 0
M  V30 959 C 87.6408 -0.0308864 1.70072 0
M  V30 960 O 88.8258 0.135521 1.93727 0
M  V30 961 C 85.9558 0.655365 3.4106 0
M  V30 962 C 84.9098 1.68971 3.93234 0
M  V30 963 C 84.2358 1.14516 5.22293 0
M  V30 964 C 85.5358 3.08487 4.21465 0
M  V30 965 H 87.2298 1.98507 2.24132 0
M  V30 966 H 84.7758 0.955821 1.07704 0
M  V30 967 H 86.7288 0.51217 4.18276 0
M  V30 968 H 85.4528 -0.31032 3.25122 0
M  V30 969 H 84.1118 1.82106 3.18171 0
M  V30 970 H 83.7598 0.170189 5.02712 0
M  V30 971 H 83.4598 1.83635 5.58168 0
M  V30 972 H 84.9838 1.01401 6.02121 0
M  V30 973 H 86.3978 2.98601 4.89398 0
M  V30 974 H 84.7948 3.74926 4.68562 0
M  V30 975 H 85.8648 3.56787 3.28376 0
M  V30 976 N 87.2079 -1.17134 1.05439 0
M  V30 977 C 88.4329 -1.91913 0.786396 0
M  V30 978 C 88.8579 -1.7643 -0.652234 0
M  V30 979 O 88.2159 -1.08372 -1.45345 0
M  V30 980 C 88.2639 -3.40921 1.17497 0
M  V30 981 O 87.3679 -4.11244 0.308589 0
M  V30 982 H 86.7089 -0.598215 0.288158 0
M  V30 983 H 89.2389 -1.48457 1.4079 0
M  V30 984 H 89.2489 -3.91668 1.14281 0
M  V30 985 H 87.9239 -3.5151 2.22292 0
M  V30 986 H 86.5009 -3.70731 0.40157 0
M  V30 987 N 88.686 -0.835752 -1.33615 0
M  V30 988 C 89.616 -0.281739 -2.31794 0
M  V30 989 C 90.597 0.608833 -1.58831 0
M  V30 990 O 91.782 0.533035 -1.86741 0
M  V30 991 C 88.912 0.546612 -3.42971 0
M  V30 992 C 87.866 -0.247904 -4.27281 0
M  V30 993 C 87.192 0.704001 -5.30045 0
M  V30 994 C 88.492 -1.46324 -5.01385 0
M  V30 995 H 90.186 -1.10206 -2.78379 0
M  V30 996 H 87.732 -0.531388 -1.33837 0
M  V30 997 H 89.685 0.944467 -4.1068 0
M  V30 998 H 88.409 1.40011 -2.95067 0
M  V30 999 H 87.068 -0.627281 -3.61194 0
M  V30 1000 H 86.716 1.55381 -4.78399 0
M  V30 1001 H 86.416 0.176524 -5.87335 0
M  V30 1002 H 87.94 1.09944 -6.0062 0
M  V30 1003 H 89.354 -1.13871 -5.61877 0
M  V30 1004 H 87.751 -1.92728 -5.6831 0
M  V30 1005 H 88.821 -2.23467 -4.30338 0
M  V30 1006 N 90.1641 1.46063 -0.591896 0
M  V30 1007 C 91.0941 2.33172 0.123673 0
M  V30 1008 C 92.0751 1.45897 0.87453 0
M  V30 1009 O 93.2601 1.74698 0.848181 0
M  V30 1010 C 90.3901 3.28336 1.13194 0
M  V30 1011 C 89.3441 4.25124 0.495324 0
M  V30 1012 C 88.6701 5.09863 1.61071 0
M  V30 1013 C 89.9701 5.19143 -0.573425 0
M  V30 1014 H 91.6641 2.93252 -0.603646 0
M  V30 1015 H 89.2101 1.41014 -0.291741 0
M  V30 1016 H 91.1631 3.88137 1.64097 0
M  V30 1017 H 89.8871 2.66383 1.88965 0
M  V30 1018 H 88.5461 3.66599 0.00729452 0
M  V30 1019 H 88.1941 4.44288 2.35832 0
M  V30 1020 H 87.8941 5.75417 1.19035 0
M  V30 1021 H 89.4181 5.72529 2.12233 0
M  V30 1022 H 90.8321 5.73106 -0.1491 0
M  V30 1023 H 89.2291 5.93089 -0.914636 0
M  V30 1024 H 90.2991 4.62519 -1.45617 0
M  V30 1025 N 91.6422 0.330177 1.54103 0
M  V30 1026 C 92.8892 -0.270405 2.00686 0
M  V30 1027 C 93.2172 -1.51621 1.21825 0
M  V30 1028 O 92.4722 -1.93536 0.29025 0
M  V30 1029 C 92.7712 -0.643134 3.51566 0
M  V30 1030 C 92.4372 0.504251 4.48072 0
M  V30 1031 C 91.0992 0.819163 4.74176 0
M  V30 1032 C 93.4512 1.27465 5.05373 0
M  V30 1033 C 90.7792 1.90708 5.5484 0
M  V30 1034 C 93.1312 2.35271 5.87223 0
M  V30 1035 C 91.7952 2.67336 6.11627 0
M  V30 1036 H 91.0652 -0.0989482 0.734364 0
M  V30 1037 H 93.7122 0.455324 1.86008 0
M  V30 1038 H 92.0172 -1.44938 3.64006 0
M  V30 1039 H 93.7142 -1.11949 3.85056 0
M  V30 1040 H 90.3042 0.248733 4.27878 0
M  V30 1041 H 94.4882 1.04462 4.85182 0
M  V30 1042 H 89.7442 2.15991 5.71977 0
M  V30 1043 H 93.9182 2.95405 6.30641 0
M  V30 1044 H 91.5452 3.51763 6.73919 0
M  V30 1045 N 93.1203 -1.57491 0.0584922 0
M  V30 1046 C 94.3673 -1.92978 -0.613648 0
M  V30 1047 C 94.6953 -0.937461 -1.70417 0
M  V30 1048 O 93.9503 0.049078 -1.95638 0
M  V30 1049 C 94.2493 -3.3513 -1.24188 0
M  V30 1050 C 93.9153 -4.50037 -0.278826 0
M  V30 1051 C 92.5773 -4.81198 -0.0138447 0
M  V30 1052 C 94.9293 -5.19807 0.380777 0
M  V30 1053 C 92.2573 -5.79473 0.918052 0
M  V30 1054 C 94.6093 -6.19079 1.30091 0
M  V30 1055 C 93.2733 -6.48665 1.57449 0
M  V30 1056 H 92.5433 -0.706157 -0.22455 0
M  V30 1057 H 95.1903 -1.91082 0.126533 0
M  V30 1058 H 93.4953 -3.33429 -2.05749 0
M  V30 1059 H 95.1923 -3.59871 -1.769 0
M  V30 1060 H 91.7823 -4.25726 -0.495539 0
M  V30 1061 H 95.9663 -4.95939 0.189158 0
M  V30 1062 H 91.2223 -6.00727 1.1374 0
M  V30 1063 H 95.3963 -6.7225 1.81804 0
M  V30 1064 H 93.0233 -7.24628 2.29822 0
M  V30 1065 N 94.5984 0.214957 -1.56127 0
M  V30 1066 C 95.8444 0.939762 -1.79712 0
M  V30 1067 C 96.1774 1.83723 -0.629247 0
M  V30 1068 O 95.4524 1.90925 0.371197 0
M  V30 1069 C 95.7354 1.77306 -3.13424 0
M  V30 1070 C 95.5884 0.90164 -4.40671 0
M  V30 1071 C 96.9074 2.74956 -3.43638 0
M  V30 1072 H 94.0264 0.340214 -0.653776 0
M  V30 1073 H 96.6684 0.20824 -1.88855 0
M  V30 1074 H 94.8184 2.39673 -3.0576 0
M  V30 1075 H 96.4904 0.294206 -4.60361 0
M  V30 1076 H 94.7334 0.207368 -4.33304 0
M  V30 1077 H 95.4044 1.51923 -5.30682 0
M  V30 1078 H 97.8804 2.22724 -3.51473 0
M  V30 1079 H 96.7564 3.30358 -4.38355 0
M  V30 1080 H 97.0174 3.53023 -2.66134 0
M  V30 1081 N 96.0765 1.50051 0.48192 0
M  V30 1082 C 97.0065 1.71046 1.58951 0
M  V30 1083 C 97.9875 0.559288 1.60642 0
M  V30 1084 O 99.1725 0.797243 1.77081 0
M  V30 1085 C 96.3025 1.79462 2.97339 0
M  V30 1086 C 95.2565 2.94558 3.10515 0
M  V30 1087 C 94.5825 2.88105 4.50444 0
M  V30 1088 C 95.8825 4.35227 2.88747 0
M  V30 1089 H 97.5765 2.6378 1.41635 0
M  V30 1090 H 95.1225 1.26936 0.679942 0
M  V30 1091 H 97.0755 1.92734 3.74742 0
M  V30 1092 H 95.7995 0.833412 3.15788 0
M  V30 1093 H 94.4585 2.80918 2.35543 0
M  V30 1094 H 94.1065 1.89853 4.65795 0
M  V30 1095 H 93.8065 3.65366 4.60197 0
M  V30 1096 H 95.3305 3.03412 5.29881 0
M  V30 1097 H 96.7445 4.49449 3.55905 0
M  V30 1098 H 95.1415 5.13856 3.09955 0
M  V30 1099 H 96.2115 4.48347 1.84696 0
M  V30 1100 N 97.5546 -0.734337 1.39446 0
M  V30 1101 C 98.5176 -1.83004 1.37994 0
M  V30 1102 C 99.5176 -1.58397 0.276938 0
M  V30 1103 O 100.708 -1.65785 0.534875 0
M  V30 1104 C 97.8396 -3.20802 1.1532 0
M  V30 1105 H 99.0326 -1.85694 2.35494 0
M  V30 1106 H 96.5856 -0.938059 1.25021 0
M  V30 1107 H 97.3206 -3.23772 0.185036 0
M  V30 1108 H 97.1056 -3.4006 1.95197 0
M  V30 1109 H 98.5956 -4.00862 1.17046 0
M  V30 1110 N 99.0327 -1.24633 -0.964593 0
M  V30 1111 C 100.263 -1.11339 -1.74032 0
M  V30 1112 C 100.671 0.336593 -1.86182 0
M  V30 1113 O 100.014 1.24389 -1.35178 0
M  V30 1114 C 100.076 -1.68284 -3.1768 0
M  V30 1115 C 99.7397 -3.17196 -3.28992 0
M  V30 1116 C 100.737 -4.14308 -3.14078 0
M  V30 1117 C 98.4217 -3.57215 -3.53133 0
M  V30 1118 C 100.416 -5.4942 -3.23135 0
M  V30 1119 C 98.1027 -4.92468 -3.61827 0
M  V30 1120 C 99.1007 -5.8838 -3.46841 0
M  V30 1121 O 98.7887 -7.21173 -3.55197 0
M  V30 1122 H 98.5207 -0.389551 -0.552472 0
M  V30 1123 H 101.075 -1.65282 -1.21946 0
M  V30 1124 H 99.3047 -1.08777 -3.71085 0
M  V30 1125 H 100.994 -1.50234 -3.77074 0
M  V30 1126 H 101.76 -3.84731 -2.95308 0
M  V30 1127 H 97.6387 -2.83063 -3.63863 0
M  V30 1128 H 101.183 -6.24263 -3.11355 0
M  V30 1129 H 97.0797 -5.21714 -3.80111 0
M  V30 1130 H 97.8477 -7.29135 -3.71892 0
M  V30 1131 N 100.511 1.16574 -1.06058 0
M  V30 1132 C 101.474 2.19085 -0.673392 0
M  V30 1133 C 102.474 1.5835 0.279648 0
M  V30 1134 O 103.664 1.74088 0.0623488 0
M  V30 1135 C 100.796 3.40899 0.00954234 0
M  V30 1136 H 101.989 2.54853 -1.58081 0
M  V30 1137 H 99.5418 1.30808 -0.855516 0
M  V30 1138 H 100.277 3.10684 0.929826 0
M  V30 1139 H 100.062 3.86233 -0.67573 0
M  V30 1140 H 101.552 4.1675 0.266245 0
M  V30 1141 N 101.989 0.842826 1.3317 0
M  V30 1142 C 102.919 0.294028 2.31641 0
M  V30 1143 C 103.9 -0.600401 1.59151 0
M  V30 1144 O 105.085 -0.523124 1.87022 0
M  V30 1145 C 102.215 -0.528416 3.43257 0
M  V30 1146 C 101.169 0.27056 4.27144 0
M  V30 1147 C 100.495 -0.675881 5.30411 0
M  V30 1148 C 101.795 1.48981 5.00602 0
M  V30 1149 H 103.489 1.11681 2.77791 0
M  V30 1150 H 101.035 0.538478 1.33553 0
M  V30 1151 H 102.988 -0.922674 4.11175 0
M  V30 1152 H 101.712 -1.38445 2.95805 0
M  V30 1153 H 100.371 0.646427 3.60856 0
M  V30 1154 H 100.019 -1.52842 4.79216 0
M  V30 1155 H 99.7189 -0.145374 5.8742 0
M  V30 1156 H 101.243 -1.06757 6.01195 0
M  V30 1157 H 102.657 1.16849 5.61266 0
M  V30 1158 H 101.054 1.95739 5.6728 0
M  V30 1159 H 102.124 2.25746 4.29147 0
M  V30 1160 N 103.467 -1.45747 0.599634 0
M  V30 1161 C 104.695 -2.06668 0.0978551 0
M  V30 1162 C 105.11 -1.44562 -1.21439 0
M  V30 1163 O 104.467 -0.556923 -1.73795 0
M  V30 1164 C 104.518 -3.61456 -0.0567044 0
M  V30 1165 O 104.239 -4.21242 1.20361 0
M  V30 1166 C 105.74 -4.39345 -0.590869 0
M  V30 1167 H 102.96 -0.667825 0.0651943 0
M  V30 1168 H 105.504 -1.87115 0.82511 0
M  V30 1169 H 103.659 -3.80378 -0.734251 0
M  V30 1170 H 104.073 -5.14323 1.02821 0
M  V30 1171 H 105.547 -5.48182 -0.648131 0
M  V30 1172 H 106.024 -4.08568 -1.61147 0
M  V30 1173 H 106.63 -4.25268 0.0523679 0
M  V30 1174 N 104.945 -0.338344 -1.53925 0
M  V30 1175 C 106.191 0.252842 -2.01822 0
M  V30 1176 C 106.546 1.48612 -1.22197 0
M  V30 1177 O 105.839 1.89238 -0.299892 0
M  V30 1178 C 106.033 0.62448 -3.51902 0
M  V30 1179 C 105.862 -0.571235 -4.46057 0
M  V30 1180 C 104.632 -1.07493 -4.93734 0
M  V30 1181 C 106.83 -1.42807 -4.94076 0
M  V30 1182 N 104.812 -2.23351 -5.71828 0
M  V30 1183 C 106.183 -2.43362 -5.70241 0
M  V30 1184 C 108.238 -1.45412 -4.76193 0
M  V30 1185 C 106.941 -3.46346 -6.30426 0
M  V30 1186 C 108.967 -2.47274 -5.37224 0
M  V30 1187 C 108.329 -3.46555 -6.13253 0
M  V30 1188 H 104.428 0.0559669 -0.779995 0
M  V30 1189 H 107.012 -0.476732 -1.88773 0
M  V30 1190 H 105.183 1.32317 -3.65167 0
M  V30 1191 H 106.915 1.19841 -3.86549 0
M  V30 1192 H 103.67 -0.643848 -4.69203 0
M  V30 1193 H 104.094 -2.81834 -6.15548 0
M  V30 1194 H 108.736 -0.700171 -4.16962 0
M  V30 1195 H 106.454 -4.22638 -6.88769 0
M  V30 1196 H 110.04 -2.50109 -5.25297 0
M  V30 1197 H 108.92 -4.24083 -6.59638 0
M  V30 1198 N 106.423 1.57458 -0.0668435 0
M  V30 1199 C 107.353 2.15468 0.899764 0
M  V30 1200 C 108.334 1.08042 1.31381 0
M  V30 1201 O 109.519 1.36054 1.38574 0
M  V30 1202 C 106.649 2.71232 2.16911 0
M  V30 1203 C 105.603 3.83781 1.89463 0
M  V30 1204 C 104.929 4.26127 3.22986 0
M  V30 1205 C 106.229 5.08238 1.20381 0
M  V30 1206 H 107.923 2.96488 0.416529 0
M  V30 1207 H 105.469 1.4262 0.198908 0
M  V30 1208 H 107.422 3.10458 2.84945 0
M  V30 1209 H 106.146 1.87426 2.67468 0
M  V30 1210 H 104.805 3.45051 1.23836 0
M  V30 1211 H 104.453 3.39249 3.71374 0
M  V30 1212 H 104.153 5.01993 3.05413 0
M  V30 1213 H 105.677 4.67966 3.92225 0
M  V30 1214 H 107.091 5.44811 1.78475 0
M  V30 1215 H 105.488 5.89349 1.13083 0
M  V30 1216 H 106.558 4.84558 0.182153 0
M  V30 1217 N 107.901 -0.206675 1.56239 0
M  V30 1218 C 109.148 -0.928842 1.79941 0
M  V30 1219 C 109.476 -1.83734 0.638131 0
M  V30 1220 O 108.731 -1.92039 -0.376746 0
M  V30 1221 C 109.03 -1.78675 3.09532 0
M  V30 1222 C 108.696 -1.03022 4.38973 0
M  V30 1223 C 107.358 -0.821302 4.74139 0
M  V30 1224 C 109.71 -0.497081 5.18824 0
M  V30 1225 C 107.038 -0.0675719 5.86661 0
M  V30 1226 C 109.39 0.24338 6.32132 0
M  V30 1227 C 108.054 0.463422 6.65889 0
M  V30 1228 H 107.324 -0.339887 0.658451 0
M  V30 1229 H 109.971 -0.195977 1.90495 0
M  V30 1230 H 108.276 -2.58794 2.94165 0
M  V30 1231 H 109.973 -2.34792 3.25075 0
M  V30 1232 H 106.563 -1.20306 4.11369 0
M  V30 1233 H 110.747 -0.645921 4.92079 0
M  V30 1234 H 106.003 0.112995 6.11296 0
M  V30 1235 H 110.177 0.66393 6.93228 0
M  V30 1236 H 107.804 1.04938 7.52922 0
M  V30 1237 N 109.379 -1.50304 -0.473955 0
M  V30 1238 C 110.626 -1.6115 -1.22625 0
M  V30 1239 C 110.954 -0.310517 -1.92005 0
M  V30 1240 O 110.209 0.703419 -1.82621 0
M  V30 1241 C 110.508 -2.73938 -2.29549 0
M  V30 1242 C 110.174 -4.14519 -1.7744 0
M  V30 1243 C 108.836 -4.5277 -1.62949 0
M  V30 1244 C 111.188 -5.02392 -1.3875 0
M  V30 1245 C 108.516 -5.76639 -1.08187 0
M  V30 1246 C 110.868 -6.26805 -0.854309 0
M  V30 1247 C 109.532 -6.63861 -0.696011 0
M  V30 1248 H 108.802 -0.589691 -0.448715 0
M  V30 1249 H 111.449 -1.84228 -0.522705 0
M  V30 1250 H 109.754 -2.44937 -3.05799 0
M  V30 1251 H 111.451 -2.79534 -2.87509 0
M  V30 1252 H 108.041 -3.8434 -1.89685 0
M  V30 1253 H 112.225 -4.73474 -1.4878 0
M  V30 1254 H 107.481 -6.04027 -0.946666 0
M  V30 1255 H 111.655 -6.94258 -0.545843 0
M  V30 1256 H 109.282 -7.59722 -0.26952 0
M  V30 1257 N 110.857 0.726932 -1.39834 0
M  V30 1258 C 112.105 1.4837 -1.37225 0
M  V30 1259 C 112.426 1.94979 0.0284857 0
M  V30 1260 O 111.696 1.69555 0.981213 0
M  V30 1261 H 110.276 0.55043 -0.505011 0
M  V30 1262 H 112.938 0.862468 -1.74778 0
M  V30 1263 H 112.034 2.36198 -2.04003 0
M  V30 1264 N 112.336 1.25143 0.95797 0
M  V30 1265 C 113.299 1.05321 2.03569 0
M  V30 1266 C 114.299 0.007152 1.60798 0
M  V30 1267 O 115.489 0.24903 1.72411 0
M  V30 1268 C 112.621 0.598394 3.35607 0
M  V30 1269 H 113.814 2.00986 2.22586 0
M  V30 1270 H 111.367 1.07502 1.13459 0
M  V30 1271 H 112.102 -0.361014 3.22284 0
M  V30 1272 H 111.887 1.35351 3.67998 0
M  V30 1273 H 113.377 0.48104 4.1482 0
M  V30 1274 N 113.814 -1.1601 1.06675 0
M  V30 1275 C 115.063 -1.85973 0.780818 0
M  V30 1276 C 115.376 -1.82819 -0.695444 0
M  V30 1277 O 116.582 -2.484 -1.09589 0
M  V30 1278 C 115.038 -3.33757 1.34665 0
M  V30 1279 C 114.646 -3.45374 2.85343 0
M  V30 1280 C 116.39 -4.0895 1.13843 0
M  V30 1281 C 114.297 -4.87266 3.35151 0
M  V30 1282 H 113.227 -0.696661 0.288407 0
M  V30 1283 H 115.878 -1.30903 1.28595 0
M  V30 1284 H 114.26 -3.88456 0.769274 0
M  V30 1285 H 115.434 -3.00816 3.49065 0
M  V30 1286 H 113.749 -2.83619 3.04876 0
M  V30 1287 H 116.346 -5.13654 1.4854 0
M  V30 1288 H 116.689 -4.16229 0.0770282 0
M  V30 1289 H 117.222 -3.605 1.68179 0
M  V30 1290 H 113.961 -4.85168 4.40786 0
M  V30 1291 H 113.481 -5.32433 2.76179 0
M  V30 1292 H 115.16 -5.56097 3.30704 0
M  V30 1293 N 115.292 -0.849877 -1.32721 0
M  V30 1294 C 116.538 -0.460855 -1.9811 0
M  V30 1295 C 116.893 0.971716 -1.66059 0
M  V30 1296 O 116.186 1.67184 -0.935944 0
M  V30 1297 C 116.38 -0.631272 -3.51781 0
M  V30 1298 C 116.209 -2.07886 -3.98765 0
M  V30 1299 C 114.979 -2.71637 -4.26077 0
M  V30 1300 C 117.177 -3.04889 -4.14182 0
M  V30 1301 N 115.159 -4.07356 -4.59276 0
M  V30 1302 C 116.53 -4.25583 -4.50865 0
M  V30 1303 C 118.585 -3.01148 -3.96503 0
M  V30 1304 C 117.288 -5.43027 -4.71714 0
M  V30 1305 C 119.314 -4.17832 -4.18533 0
M  V30 1306 C 118.676 -5.37284 -4.55528 0
M  V30 1307 H 114.775 -0.217283 -0.751207 0
M  V30 1308 H 117.359 -1.10026 -1.60631 0
M  V30 1309 H 115.53 -0.0215966 -3.88394 0
M  V30 1310 H 117.262 -0.212614 -4.04141 0
M  V30 1311 H 114.017 -2.22705 -4.17971 0
M  V30 1312 H 114.441 -4.77351 -4.80068 0
M  V30 1313 H 119.083 -2.0992 -3.67006 0
M  V30 1314 H 116.801 -6.34791 -5.00066 0
M  V30 1315 H 120.387 -4.16368 -4.06361 0
M  V30 1316 H 119.267 -6.26071 -4.72234 0
M  V30 1317 N 116.77 1.45427 -0.607355 0
M  V30 1318 C 118.016 2.03097 -0.111035 0
M  V30 1319 C 118.371 1.46735 1.24445 0
M  V30 1320 O 117.664 0.632478 1.8086 0
M  V30 1321 C 117.858 3.57398 -0.0129263 0
M  V30 1322 C 117.687 4.28726 -1.35735 0
M  V30 1323 C 116.457 4.66659 -1.93798 0
M  V30 1324 C 118.655 4.60699 -2.28607 0
M  V30 1325 N 116.637 5.22845 -3.21723 0
M  V30 1326 C 118.008 5.17716 -3.41131 0
M  V30 1327 C 120.063 4.42638 -2.27982 0
M  V30 1328 C 118.766 5.58576 -4.53194 0
M  V30 1329 C 120.792 4.84531 -3.39093 0
M  V30 1330 C 120.154 5.4164 -4.50339 0
M  V30 1331 H 116.253 0.777476 -0.083994 0
M  V30 1332 H 118.837 1.77249 -0.805655 0
M  V30 1333 H 117.008 3.82907 0.650914 0
M  V30 1334 H 118.74 4.01722 0.490033 0
M  V30 1335 H 115.495 4.50207 -1.47007 0
M  V30 1336 H 115.919 5.55438 -3.87063 0
M  V30 1337 H 120.561 3.97798 -1.43235 0
M  V30 1338 H 118.279 6.02382 -5.38667 0
M  V30 1339 H 121.865 4.72289 -3.39757 0
M  V30 1340 H 120.745 5.73461 -5.34895 0
M  V30 1341 N 118.248 0.346503 1.53744 0
M  V30 1342 C 119.178 -0.501193 2.28058 0
M  V30 1343 C 120.159 -1.10014 1.29734 0
M  V30 1344 O 121.344 -1.12097 1.58581 0
M  V30 1345 C 118.474 -1.65078 3.05559 0
M  V30 1346 C 117.428 -1.18003 4.11411 0
M  V30 1347 C 116.754 -2.41837 4.76884 0
M  V30 1348 C 118.054 -0.278394 5.21558 0
M  V30 1349 H 119.748 0.11875 2.99164 0
M  V30 1350 H 117.294 0.0585531 1.43881 0
M  V30 1351 H 119.247 -2.25028 3.56287 0
M  V30 1352 H 117.971 -2.29767 2.32109 0
M  V30 1353 H 116.63 -0.603331 3.61601 0
M  V30 1354 H 116.278 -3.0494 4.00026 0
M  V30 1355 H 115.978 -2.1102 5.48402 0
M  V30 1356 H 117.502 -3.02508 5.30397 0
M  V30 1357 H 118.916 -0.784823 5.67903 0
M  V30 1358 H 117.313 -0.0619707 6.00068 0
M  V30 1359 H 118.383 0.684677 4.80042 0
M  V30 1360 N 119.726 -1.57421 0.075193 0
M  V30 1361 C 120.975 -1.92794 -0.592731 0
M  V30 1362 C 121.288 -0.957478 -1.70563 0
M  V30 1363 O 122.494 -1.20417 -2.43335 0
M  V30 1364 C 120.95 -3.42495 -1.10569 0
M  V30 1365 C 120.558 -4.47994 -0.0236121 0
M  V30 1366 C 122.302 -3.86864 -1.74748 0
M  V30 1367 C 120.209 -5.88829 -0.550803 0
M  V30 1368 H 119.139 -0.719591 -0.225177 0
M  V30 1369 H 121.79 -1.82902 0.147978 0
M  V30 1370 H 120.172 -3.47471 -1.89947 0
M  V30 1371 H 121.346 -4.54637 0.751099 0
M  V30 1372 H 119.661 -4.13113 0.522159 0
M  V30 1373 H 122.258 -4.8947 -2.15229 0
M  V30 1374 H 122.601 -3.24417 -2.60882 0
M  V30 1375 H 123.134 -3.84504 -1.01986 0
M  V30 1376 H 119.873 -6.54929 0.273457 0
M  V30 1377 H 119.393 -5.85698 -1.29296 0
M  V30 1378 H 121.072 -6.38811 -1.02613 0
M  V30 1379 N 121.204 0.198386 -1.56346 0
M  V30 1380 C 122.167 1.22952 -1.93431 0
M  V30 1381 C 123.167 1.38611 -0.815092 0
M  V30 1382 O 124.357 1.36479 -1.08255 0
M  V30 1383 C 121.489 2.59946 -2.20546 0
M  V30 1384 H 122.682 0.912626 -2.85677 0
M  V30 1385 H 120.235 0.43977 -1.49986 0
M  V30 1386 H 120.97 2.96696 -1.30927 0
M  V30 1387 H 120.755 2.49953 -3.02102 0
M  V30 1388 H 122.245 3.3431 -2.50253 0
M  V30 1389 N 122.682 1.50554 0.465978 0
M  V30 1390 C 123.912 1.65323 1.23903 0
M  V30 1391 C 124.32 0.338051 1.86155 0
M  V30 1392 O 123.663 -0.690518 1.70228 0
M  V30 1393 C 123.725 2.69048 2.3844 0
M  V30 1394 C 123.389 4.12462 1.96784 0
M  V30 1395 C 124.386 4.98168 1.48745 0
M  V30 1396 C 122.071 4.58407 2.05349 0
M  V30 1397 C 124.065 6.27868 1.0982 0
M  V30 1398 C 121.752 5.88112 1.66035 0
M  V30 1399 C 122.75 6.72668 1.18349 0
M  V30 1400 O 122.438 7.99951 0.795825 0
M  V30 1401 H 122.17 0.558629 0.38067 0
M  V30 1402 H 124.724 1.97561 0.562022 0
M  V30 1403 H 122.954 2.32062 3.09328 0
M  V30 1404 H 124.643 2.72985 3.0039 0
M  V30 1405 H 125.409 4.63885 1.41546 0
M  V30 1406 H 121.288 3.92735 2.41414 0
M  V30 1407 H 124.832 6.93819 0.725293 0
M  V30 1408 H 120.729 6.21914 1.72895 0
M  V30 1409 H 121.497 8.13265 0.924222 0
M  V30 1410 N 124.16 -0.719506 1.40217 0
M  V30 1411 C 125.408 -1.47641 1.3801 0
M  V30 1412 C 125.729 -1.94992 -0.018145 0
M  V30 1413 O 124.999 -1.70073 -0.972207 0
M  V30 1414 H 123.579 -0.547744 0.507923 0
M  V30 1415 H 126.241 -0.853187 1.75233 0
M  V30 1416 H 125.337 -2.35112 2.05253 0
M  V30 1417 N 125.638 -1.25649 -0.95132 0
M  V30 1418 C 127.054 -1.02542 -1.223 0
M  V30 1419 C 127.254 0.255715 -1.99871 0
M  V30 1420 O 126.31 0.967558 -2.33226 0
M  V30 1421 C 127.623 -2.25065 -1.99415 0
M  V30 1422 C 129.171 -2.29861 -2.12446 0
M  V30 1423 C 129.646 -3.52048 -2.92961 0
M  V30 1424 N 131.137 -3.52465 -3.00538 0
M  V30 1425 C 131.872 -4.43672 -3.63239 0
M  V30 1426 N 131.368 -5.45157 -4.27523 0
M  V30 1427 N 133.161 -4.31346 -3.60412 0
M  V30 1428 H 125.312 -2.07951 -0.432471 0
M  V30 1429 H 127.575 -0.91339 -0.253816 0
M  V30 1430 H 127.281 -3.18194 -1.49817 0
M  V30 1431 H 127.155 -2.28502 -3.00111 0
M  V30 1432 H 129.542 -1.37252 -2.61239 0
M  V30 1433 H 129.623 -2.3044 -1.11044 0
M  V30 1434 H 129.267 -4.44981 -2.44856 0
M  V30 1435 H 129.197 -3.48715 -3.94596 0
M  V30 1436 H 131.688 -2.79056 -2.54826 0
M  V30 1437 H 132.001 -6.10958 -4.73234 0
M  V30 1438 H 130.346 -5.49025 -4.26141 0
M  V30 1439 H 133.537 -3.51288 -3.09377 0
M  V30 1440 H 133.71 -5.02624 -4.0899 0
M  V30 1441 N 127.117 1.15442 -1.07289 0
M  V30 1442 C 128.365 1.85845 -0.794096 0
M  V30 1443 C 128.686 1.82692 0.681809 0
M  V30 1444 O 127.956 1.26741 1.49377 0
M  V30 1445 H 126.536 0.688089 -0.290763 0
M  V30 1446 H 129.198 1.39947 -1.3565 0
M  V30 1447 H 128.294 2.91001 -1.12804 0
M  V30 1448 N 128.595 0.856903 1.32268 0
M  V30 1449 C 129.872 0.382583 1.91822 0
M  V30 1450 C 130.252 -1.13407 1.78051 0
M  V30 1451 O 129.6 -1.95673 1.18001 0
M  V30 1452 C 129.81 0.849446 3.38505 0
M  V30 1453 C 131.158 0.867936 4.15634 0
M  V30 1454 O 132.182 0.794232 3.47232 0
M  V30 1455 O 131.041 0.972286 5.37781 0
M  V30 1456 H 128.135 0.112014 0.819379 0
M  V30 1457 H 130.681 0.943952 1.41024 0
M  V30 1458 H 129.453 1.89267 3.42482 0
M  V30 1459 H 129.076 0.265652 3.96712 0
M  V30 1460 N 130.073 -1.45103 0.615059 0
M  V30 1461 C 131.003 -2.33339 -0.0865619 0
M  V30 1462 C 131.984 -1.4727 -0.851209 0
M  V30 1463 O 133.169 -1.76026 -0.820281 0
M  V30 1464 C 130.299 -3.30095 -1.07956 0
M  V30 1465 C 129.253 -4.25858 -0.427628 0
M  V30 1466 C 128.579 -5.12361 -1.5294 0
M  V30 1467 C 129.879 -5.18165 0.655944 0
M  V30 1468 H 131.573 -2.92254 0.650224 0
M  V30 1469 H 129.119 -1.40532 0.314138 0
M  V30 1470 H 131.072 -3.90698 -1.57901 0
M  V30 1471 H 129.796 -2.69355 -1.84703 0
M  V30 1472 H 128.455 -3.66564 0.0510292 0
M  V30 1473 H 128.103 -4.47984 -2.28734 0
M  V30 1474 H 127.803 -5.77238 -1.09865 0
M  V30 1475 H 129.327 -5.75833 -2.03098 0
M  V30 1476 H 130.741 -5.72796 0.240257 0
M  V30 1477 H 129.138 -5.91559 1.00888 0
M  V30 1478 H 130.208 -4.60144 1.52957 0
M  V30 1479 N 131.551 -0.354651 -1.53558 0
M  V30 1480 C 132.461 0.50515 -2.29097 0
M  V30 1481 C 133.477 1.10223 -1.34636 0
M  V30 1482 O 134.653 1.11553 -1.67684 0
M  V30 1483 C 131.718 1.63479 -3.05738 0
M  V30 1484 C 130.779 1.06636 -4.15845 0
M  V30 1485 C 130.012 2.14217 -4.88822 0
M  V30 1486 O 130.235 3.35137 -4.61562 0
M  V30 1487 O 129.169 1.77887 -5.75013 0
M  V30 1488 H 132.995 -0.109237 -3.03503 0
M  V30 1489 H 130.58 -0.119357 -1.48922 0
M  V30 1490 H 132.462 2.2918 -3.5363 0
M  V30 1491 H 131.137 2.23478 -2.34178 0
M  V30 1492 H 130.044 0.373565 -3.7223 0
M  V30 1493 H 131.377 0.511081 -4.89539 0
M  V30 1494 N 133.029 1.57378 -0.0835403 0
M  V30 1495 C 133.979 2.09916 0.889905 0
M  V30 1496 C 134.963 1.01151 1.25129 0
M  V30 1497 O 136.155 1.27443 1.2283 0
M  V30 1498 C 133.284 2.67379 2.15322 0
M  V30 1499 C 132.37 3.83167 1.81779 0
M  V30 1500 N 132.761 4.91665 1.18739 0
M  V30 1501 C 131.059 3.92685 2.11459 0
M  V30 1502 C 131.76 5.72409 1.0355 0
M  V30 1503 N 130.736 5.21062 1.54906 0
M  V30 1504 H 134.538 2.91188 0.398378 0
M  V30 1505 H 132.052 1.61956 0.120013 0
M  V30 1506 H 134.049 3.0334 2.8599 0
M  V30 1507 H 132.709 1.87558 2.65051 0
M  V30 1508 H 133.72 5.10784 0.855604 0
M  V30 1509 H 130.397 3.23856 2.63483 0
M  V30 1510 H 131.787 6.69699 0.543425 0
M  V30 1511 N 134.507 -0.190092 1.56449 0
M  V30 1512 C 135.437 -1.23816 1.97969 0
M  V30 1513 C 136.418 -1.47201 0.852395 0
M  V30 1514 O 137.603 -1.58854 1.1171 0
M  V30 1515 C 134.733 -2.5813 2.3235 0
M  V30 1516 C 133.687 -2.49348 3.47864 0
M  V30 1517 C 133.013 -3.8798 3.67934 0
M  V30 1518 C 134.313 -2.01424 4.81898 0
M  V30 1519 H 136.007 -0.89311 2.85769 0
M  V30 1520 H 133.553 -0.428177 1.37487 0
M  V30 1521 H 135.506 -3.31637 2.59991 0
M  V30 1522 H 134.23 -2.94386 1.41438 0
M  V30 1523 H 132.889 -1.78297 3.20321 0
M  V30 1524 H 132.537 -4.21597 2.74344 0
M  V30 1525 H 132.237 -3.82978 4.45648 0
M  V30 1526 H 133.761 -4.63101 3.97957 0
M  V30 1527 H 135.175 -2.64693 5.08538 0
M  V30 1528 H 133.572 -2.07413 5.63116 0
M  V30 1529 H 134.642 -0.967677 4.75146 0
M  V30 1530 N 135.985 -1.50799 -0.457987 0
M  V30 1531 C 136.895 -1.73426 -1.57989 0
M  V30 1532 C 137.911 -0.617745 -1.62665 0
M  V30 1533 O 139.087 -0.897614 -1.80291 0
M  V30 1534 C 136.152 -1.83557 -2.94122 0
M  V30 1535 C 135.213 -3.07345 -2.99729 0
M  V30 1536 C 134.446 -3.16983 -4.29368 0
M  V30 1537 O 134.669 -2.33077 -5.20607 0
M  V30 1538 O 133.603 -4.09812 -4.40837 0
M  V30 1539 H 137.429 -2.68555 -1.41817 0
M  V30 1540 H 135.014 -1.35052 -0.638859 0
M  V30 1541 H 136.896 -1.92326 -3.74952 0
M  V30 1542 H 135.571 -0.916137 -3.10465 0
M  V30 1543 H 134.478 -3.04068 -2.1793 0
M  V30 1544 H 135.811 -3.9891 -2.88326 0
M  V30 1545 N 137.463 0.71206 -1.40597 0
M  V30 1546 C 138.74 1.46536 -1.29563 0
M  V30 1547 C 139.12 2.10931 0.0844217 0
M  V30 1548 O 138.468 2.00418 1.0975 0
M  V30 1549 C 138.678 2.49821 -2.43701 0
M  V30 1550 C 140.026 3.15551 -2.841 0
M  V30 1551 O 141.05 2.60142 -2.4332 0
M  V30 1552 O 139.909 4.15867 -3.54566 0
M  V30 1553 H 137.003 0.651801 -0.509004 0
M  V30 1554 H 139.549 0.743935 -1.52524 0
M  V30 1555 H 138.321 2.00778 -3.35863 0
M  V30 1556 H 137.944 3.29495 -2.22528 0
M  V30 1557 N 138.941 1.26152 0.944643 0
M  V30 1558 C 140.169 1.14259 1.72489 0
M  V30 1559 C 140.584 -0.302555 1.8636 0
M  V30 1560 O 139.941 -1.20741 1.36849 0
M  V30 1561 C 139.992 1.80266 3.13347 0
M  V30 1562 O 139.713 3.19133 3.00143 0
M  V30 1563 C 141.214 1.74283 4.07603 0
M  V30 1564 H 138.434 0.398051 0.540181 0
M  V30 1565 H 140.978 1.66706 1.18446 0
M  V30 1566 H 139.133 1.31766 3.64303 0
M  V30 1567 H 139.547 3.51744 3.89071 0
M  V30 1568 H 141.021 2.25111 5.04013 0
M  V30 1569 H 141.498 0.708631 4.33446 0
M  V30 1570 H 142.104 2.22319 3.62567 0
M  V30 1571 N 140.419 -1.14872 1.07899 0
M  V30 1572 C 141.382 -2.17986 0.708161 0
M  V30 1573 C 142.382 -1.58775 -0.25442 0
M  V30 1574 O 143.572 -1.74166 -0.034645 0
M  V30 1575 C 140.704 -3.40871 0.0446929 0
M  V30 1576 H 141.897 -2.52306 1.62116 0
M  V30 1577 H 139.45 -1.2943 0.876218 0
M  V30 1578 H 140.185 -3.12124 -0.880281 0
M  V30 1579 H 139.97 -3.8511 0.737091 0
M  V30 1580 H 141.46 -4.17121 -0.19991 0
M  V30 1581 N 141.898 -0.863906 -1.31812 0
M  V30 1582 C 143.144 -0.481841 -1.9761 0
M  V30 1583 C 143.499 0.954048 -1.6708 0
M  V30 1584 O 142.792 1.66182 -0.953624 0
M  V30 1585 C 142.986 -0.668547 -3.51091 0
M  V30 1586 C 142.815 -2.12103 -3.96538 0
M  V30 1587 C 141.585 -2.76141 -4.23171 0
M  V30 1588 C 143.783 -3.09265 -4.10925 0
M  V30 1589 N 141.765 -4.12205 -4.54929 0
M  V30 1590 C 143.136 -4.30341 -4.46326 0
M  V30 1591 C 145.191 -3.05337 -3.93286 0
M  V30 1592 C 143.894 -5.48 -4.65928 0
M  V30 1593 C 145.92 -4.22248 -4.14078 0
M  V30 1594 C 145.282 -5.42085 -4.49804 0
M  V30 1595 H 141.381 -0.225238 -0.74886 0
M  V30 1596 H 143.965 -1.11723 -1.59455 0
M  V30 1597 H 142.136 -0.0627898 -3.88349 0
M  V30 1598 H 143.868 -0.255467 -4.03893 0
M  V30 1599 H 140.623 -2.27125 -4.15585 0
M  V30 1600 H 141.047 -4.82416 -4.74978 0
M  V30 1601 H 145.689 -2.138 -3.64759 0
M  V30 1602 H 143.407 -6.40059 -4.93305 0
M  V30 1603 H 146.993 -4.20654 -4.01922 0
M  V30 1604 H 145.873 -6.31044 -4.65567 0
M  V30 1605 N 143.376 1.44774 -0.622745 0
M  V30 1606 C 144.604 2.06487 -0.130722 0
M  V30 1607 C 145.019 1.46476 1.19123 0
M  V30 1608 O 144.376 0.584502 1.72887 0
M  V30 1609 C 144.427 3.615 -0.000807207 0
M  V30 1610 O 144.148 4.19274 -1.27048 0
M  V30 1611 C 145.649 4.40229 0.520898 0
M  V30 1612 H 142.869 0.666704 -0.0758106 0
M  V30 1613 H 145.413 1.85779 -0.854774 0
M  V30 1614 H 143.568 3.81498 0.673643 0
M  V30 1615 H 143.982 5.12622 -1.1099 0
M  V30 1616 H 145.456 5.49144 0.560838 0
M  V30 1617 H 145.933 4.1108 1.54627 0
M  V30 1618 H 146.539 4.25131 -0.120018 0
M  V30 1619 N 144.854 0.36279 1.53368 0
M  V30 1620 C 146.265 -0.117022 1.86333 0
M  V30 1621 C 146.616 -1.48397 1.28347 0
M  V30 1622 O 145.741 -2.07787 0.604428 0
M  V30 1623 C 146.336 -0.21912 3.38091 0
M  V30 1624 C 144.895 -0.643184 3.70864 0
M  V30 1625 C 144.042 0.211318 2.76494 0
M  V30 1626 H 146.993 0.581687 1.47655 0
M  V30 1627 H 147.014 -1.04319 3.6592 0
M  V30 1628 H 146.526 0.775902 3.80265 0
M  V30 1629 H 144.627 -1.64654 3.34245 0
M  V30 1630 H 144.74 -0.41973 4.77258 0
M  V30 1631 H 143.104 -0.319367 2.5269 0
M  V30 1632 H 143.887 1.20383 3.21501 0
M  V30 1633 N 146.332 -1.57332 0.0918853 0
M  V30 1634 C 147.572 -1.96117 -0.575988 0
M  V30 1635 C 147.936 -0.972499 -1.65549 0
M  V30 1636 O 149.137 -1.24872 -2.38034 0
M  V30 1637 C 147.408 -3.39407 -1.11973 0
M  V30 1638 S 148.967 -4.00185 -1.79992 0
M  V30 1639 H 145.785 -0.685682 -0.188045 0
M  V30 1640 H 148.387 -1.94755 0.170525 0
M  V30 1641 H 147.091 -4.09131 -0.322504 0
M  V30 1642 H 146.622 -3.44358 -1.90214 0
M  V30 1643 H 148.637 -3.88728 -3.08391 0
M  V30 1644 N 147.81 0.181792 -1.56548 0
M  V30 1645 C 149.056 0.901431 -1.81665 0
M  V30 1646 C 149.389 1.82347 -0.668075 0
M  V30 1647 O 148.664 1.91669 0.330615 0
M  V30 1648 C 148.947 1.70618 -3.17115 0
M  V30 1649 C 148.8 0.807964 -4.42484 0
M  V30 1650 C 150.119 2.67605 -3.49393 0
M  V30 1651 H 147.238 0.32627 -0.660846 0
M  V30 1652 H 149.88 0.168134 -1.89255 0
M  V30 1653 H 148.03 2.33133 -3.10775 0
M  V30 1654 H 149.702 0.19649 -4.60881 0
M  V30 1655 H 147.945 0.115411 -4.33646 0
M  V30 1656 H 148.616 1.40632 -5.33785 0
M  V30 1657 H 151.092 2.15218 -3.56118 0
M  V30 1658 H 149.968 3.20985 -4.45264 0
M  V30 1659 H 150.229 3.47298 -2.73563 0
M  V30 1660 N 149.288 1.51039 0.449983 0
M  V30 1661 C 150.236 1.71995 1.5659 0
M  V30 1662 C 151.23 0.586029 1.5894 0
M  V30 1663 O 152.436 0.76709 1.62837 0
M  V30 1664 H 148.811 0.543233 0.520001 0
M  V30 1665 H 150.782 2.65562 1.36085 0
M  V30 1666 C 149.531 1.8506 2.9436 0
M  V30 1667 H 148.854 2.71712 2.93279 0
M  V30 1668 H 150.294 2.0374 3.71842 0
M  V30 1669 C 148.753 0.607277 3.31382 0
M  V30 1670 O 149.283 -0.243903 4.00959 0
M  V30 1671 N 147.489 0.455073 2.87015 0
M  V30 1672 H 147.036 1.14879 2.30566 0
M  V30 1673 H 146.994 -0.375611 3.12148 0
M  V30 1674 N 150.766 -0.704594 1.40972 0
M  V30 1675 C 151.714 -1.83994 1.42299 0
M  V30 1676 C 152.708 -1.66684 0.302111 0
M  V30 1677 O 153.914 -1.73655 0.473697 0
M  V30 1678 H 150.289 -0.606171 0.44504 0
M  V30 1679 H 152.26 -1.79992 2.38003 0
M  V30 1680 C 151.009 -3.21946 1.31323 0
M  V30 1681 H 150.332 -3.35878 2.16855 0
M  V30 1682 H 151.772 -4.01491 1.36311 0
M  V30 1683 C 150.231 -3.36891 0.0245977 0
M  V30 1684 O 150.761 -3.90687 -0.934153 0
M  V30 1685 N 148.967 -2.90559 -0.0485243 0
M  V30 1686 H 148.514 -2.46968 0.732419 0
M  V30 1687 H 148.472 -3.00937 -0.910171 0
M  V30 1688 N 152.244 -1.26651 -0.937939 0
M  V30 1689 C 153.174 -1.10993 -2.05433 0
M  V30 1690 C 154.155 -0.0142161 -1.70094 0
M  V30 1691 O 155.34 -0.186837 -1.93299 0
M  V30 1692 C 152.47 -0.745561 -3.39203 0
M  V30 1693 C 151.424 -1.79337 -3.88616 0
M  V30 1694 C 150.75 -1.28324 -5.19073 0
M  V30 1695 C 152.05 -3.19553 -4.13138 0
M  V30 1696 H 153.744 -2.0438 -2.1879 0
M  V30 1697 H 151.29 -0.984041 -1.05131 0
M  V30 1698 H 153.243 -0.622888 -4.16771 0
M  V30 1699 H 151.967 0.22401 -3.25831 0
M  V30 1700 H 150.626 -1.90477 -3.13231 0
M  V30 1701 H 150.274 -0.303414 -5.02084 0
M  V30 1702 H 149.974 -1.98369 -5.53103 0
M  V30 1703 H 151.498 -1.1733 -5.99221 0
M  V30 1704 H 152.912 -3.11471 -4.81309 0
M  V30 1705 H 151.309 -3.87218 -4.58457 0
M  V30 1706 H 152.379 -3.65368 -3.18801 0
M  V30 1707 N 153.722 1.14298 -1.08507 0
M  V30 1708 C 154.67 2.21483 -0.710483 0
M  V30 1709 C 155.664 1.66998 0.284234 0
M  V30 1710 O 156.87 1.79401 0.146692 0
M  V30 1711 H 153.245 0.721578 -0.211729 0
M  V30 1712 H 155.216 2.50348 -1.62384 0
M  V30 1713 C 153.965 3.4743 -0.137007 0
M  V30 1714 H 153.288 3.89686 -0.893592 0
M  V30 1715 H 154.728 4.2391 0.0872789 0
M  V30 1716 C 153.187 3.17548 1.12538 0
M  V30 1717 O 153.717 3.35437 2.21009 0
M  V30 1718 N 151.923 2.71499 1.03617 0
M  V30 1719 H 151.47 2.57143 0.153403 0
M  V30 1720 H 151.428 2.51881 1.88158 0
M  V30 1721 N 155.201 0.870884 1.31352 0
M  V30 1722 C 156.449 0.48132 1.96285 0
M  V30 1723 C 156.77 -0.969813 1.69173 0
M  V30 1724 O 156.04 -1.67998 1.00764 0
M  V30 1725 H 154.62 0.175002 0.726212 0
M  V30 1726 H 157.282 1.11087 1.60143 0
M  V30 1727 H 156.378 0.639825 3.05471 0
M  V30 1728 N 156.679 -1.44442 0.630414 0
M  V30 1729 C 157.926 -2.02052 0.134617 0
M  V30 1730 C 158.254 -1.49576 -1.24327 0
M  V30 1731 O 157.509 -0.669806 -1.83881 0
M  V30 1732 C 157.808 -3.57332 0.0697835 0
M  V30 1733 C 157.474 -4.29058 1.38635 0
M  V30 1734 C 156.136 -4.4837 1.74694 0
M  V30 1735 C 158.488 -4.69872 2.25543 0
M  V30 1736 C 155.816 -5.05756 2.97369 0
M  V30 1737 C 158.168 -5.28616 3.47487 0
M  V30 1738 C 156.832 -5.46147 3.8377 0
M  V30 1739 H 156.102 -0.739361 0.0492598 0
M  V30 1740 H 158.749 -1.73217 0.816586 0
M  V30 1741 H 157.054 -3.85577 -0.695553 0
M  V30 1742 H 158.751 -3.99637 -0.330344 0
M  V30 1743 H 155.341 -4.14357 1.09574 0
M  V30 1744 H 159.525 -4.54666 1.98979 0
M  V30 1745 H 154.781 -5.17515 3.25558 0
M  V30 1746 H 158.955 -5.59192 4.15063 0
M  V30 1747 H 156.582 -5.9038 4.7891 0
M  V30 1748 N 158.157 -0.370918 -1.53173 0
M  V30 1749 C 159.403 0.217423 -2.01631 0
M  V30 1750 C 159.736 1.47983 -1.25756 0
M  V30 1751 O 159.011 1.91274 -0.352764 0
M  V30 1752 C 159.294 0.503982 -3.56556 0
M  V30 1753 C 159.147 -0.77243 -4.43118 0
M  V30 1754 C 160.466 1.30234 -4.20389 0
M  V30 1755 H 157.585 0.0775486 -0.732909 0
M  V30 1756 H 160.227 -0.496863 -1.83388 0
M  V30 1757 H 158.377 1.11248 -3.72231 0
M  V30 1758 H 160.049 -1.4098 -4.39229 0
M  V30 1759 H 158.292 -1.39167 -4.10871 0
M  V30 1760 H 158.963 -0.526815 -5.4948 0
M  V30 1761 H 161.439 0.787546 -4.08579 0
M  V30 1762 H 160.315 1.47158 -5.28806 0
M  V30 1763 H 160.576 2.31237 -3.76805 0
M  V30 1764 N 159.635 1.57281 -0.100228 0
M  V30 1765 C 160.598 2.13158 0.842398 0
M  V30 1766 C 161.598 1.06202 1.20738 0
M  V30 1767 O 162.788 1.32066 1.13597 0
M  V30 1768 C 159.92 2.65639 2.13655 0
M  V30 1769 H 161.113 2.97766 0.357114 0
M  V30 1770 H 158.666 1.5559 0.148823 0
M  V30 1771 H 159.401 1.84566 2.66657 0
M  V30 1772 H 159.186 3.43844 1.88451 0
M  V30 1773 H 160.676 3.08846 2.81077 0
M  V30 1774 N 161.113 -0.173488 1.56642 0
M  V30 1775 C 162.076 -1.19859 1.95362 0
M  V30 1776 C 163.076 -1.37296 0.83704 0
M  V30 1777 O 164.266 -1.34739 1.10413 0
M  V30 1778 C 161.398 -2.56405 2.24654 0
M  V30 1779 H 162.591 -0.867062 2.87092 0
M  V30 1780 H 160.144 -0.415853 1.50666 0
M  V30 1781 H 160.879 -2.94576 1.35631 0
M  V30 1782 H 160.664 -2.45115 3.06041 0
M  V30 1783 H 162.154 -3.30287 2.5554 0
M  V30 1784 N 162.591 -1.51276 -0.441967 0
M  V30 1785 C 163.838 -1.63715 -1.19179 0
M  V30 1786 C 164.166 -0.351175 -1.91303 0
M  V30 1787 O 163.421 0.664524 -1.84072 0
M  V30 1788 C 163.72 -2.78746 -2.23686 0
M  V30 1789 C 163.386 -4.18189 -1.68607 0
M  V30 1790 C 162.048 -4.56125 -1.53308 0
M  V30 1791 C 164.4 -5.05222 -1.28062 0
M  V30 1792 C 161.728 -5.78804 -0.959317 0
M  V30 1793 C 164.08 -6.28476 -0.721162 0
M  V30 1794 C 162.744 -6.65188 -0.55504 0
M  V30 1795 H 162.014 -0.599076 -0.436106 0
M  V30 1796 H 164.661 -1.85296 -0.48351 0
M  V30 1797 H 162.966 -2.51369 -3.00535 0
M  V30 1798 H 164.663 -2.8557 -2.81515 0
M  V30 1799 H 161.253 -3.88277 -1.8149 0
M  V30 1800 H 165.437 -4.76524 -1.38704 0
M  V30 1801 H 160.693 -6.05899 -0.81833 0
M  V30 1802 H 164.867 -6.95259 -0.398458 0
M  V30 1803 H 162.494 -7.60123 -0.108311 0
M  V30 1804 N 164.069 0.697108 -1.41344 0
M  V30 1805 C 164.999 1.82353 -1.45841 0
M  V30 1806 C 165.98 1.67115 -0.317247 0
M  V30 1807 O 167.165 1.86871 -0.528474 0
M  V30 1808 C 164.295 3.20476 -1.33838 0
M  V30 1809 C 163.249 3.50415 -2.4575 0
M  V30 1810 C 162.575 4.87878 -2.18813 0
M  V30 1811 C 163.875 3.49546 -3.88091 0
M  V30 1812 H 165.569 1.78846 -2.40113 0
M  V30 1813 H 163.115 0.859028 -1.15571 0
M  V30 1814 H 165.068 3.98988 -1.35596 0
M  V30 1815 H 163.792 3.24604 -0.360498 0
M  V30 1816 H 162.451 2.74253 -2.43271 0
M  V30 1817 H 162.099 4.8863 -1.19371 0
M  V30 1818 H 161.799 5.08875 -2.93803 0
M  V30 1819 H 163.323 5.68702 -2.22284 0
M  V30 1820 H 164.737 4.18066 -3.92293 0
M  V30 1821 H 163.134 3.82075 -4.62751 0
M  V30 1822 H 164.204 2.48552 -4.16353 0
M  V30 1823 N 165.547 1.27147 0.931209 0
M  V30 1824 C 166.794 1.13278 1.67852 0
M  V30 1825 C 167.122 -0.32204 1.91815 0
M  V30 1826 O 166.377 -1.25224 1.50391 0
M  V30 1827 C 166.676 1.8579 3.05314 0
M  V30 1828 C 166.342 3.35657 3.01073 0
M  V30 1829 C 165.004 3.76536 2.99623 0
M  V30 1830 C 167.356 4.31299 2.92627 0
M  V30 1831 C 164.684 5.11426 2.87506 0
M  V30 1832 C 167.036 5.66242 2.82051 0
M  V30 1833 C 165.7 6.06418 2.7895 0
M  V30 1834 H 164.97 0.414515 0.614214 0
M  V30 1835 H 167.617 1.57712 1.08624 0
M  V30 1836 H 165.922 1.33854 3.68226 0
M  V30 1837 H 167.619 1.72491 3.62005 0
M  V30 1838 H 164.209 3.03146 3.02986 0
M  V30 1839 H 168.393 4.00692 2.92848 0
M  V30 1840 H 163.649 5.41705 2.83489 0
M  V30 1841 H 167.823 6.40026 2.74481 0
M  V30 1842 H 165.45 7.10895 2.69318 0
M  V30 1843 N 167.025 -1.13721 1.09112 0
M  V30 1844 C 168.25 -1.89314 0.847053 0
M  V30 1845 C 168.675 -1.78416 -0.595774 0
M  V30 1846 O 168.033 -1.12942 -1.41823 0
M  V30 1847 C 168.081 -3.3701 1.28284 0
M  V30 1848 O 167.185 -4.10054 0.439267 0
M  V30 1849 H 166.526 -0.588745 0.307044 0
M  V30 1850 H 169.056 -1.43902 1.45442 0
M  V30 1851 H 169.066 -3.87834 1.26683 0
M  V30 1852 H 167.741 -3.4426 2.33363 0
M  V30 1853 H 166.318 -3.69266 0.519312 0
M  V30 1854 N 168.503 -0.877838 -1.30888 0
M  V30 1855 C 169.752 -0.488793 -1.95688 0
M  V30 1856 C 170.065 0.965485 -1.70111 0
M  V30 1857 O 171.271 1.46104 -2.28836 0
M  V30 1858 C 169.727 -0.823201 -3.50359 0
M  V30 1859 C 169.335 -2.29477 -3.84765 0
M  V30 1860 C 171.079 -0.503009 -4.21509 0
M  V30 1861 C 168.986 -2.57118 -5.32583 0
M  V30 1862 H 167.916 -0.179062 -0.732429 0
M  V30 1863 H 170.567 -1.07183 -1.48943 0
M  V30 1864 H 168.949 -0.169331 -3.95638 0
M  V30 1865 H 170.123 -2.99236 -3.5042 0
M  V30 1866 H 168.438 -2.58178 -3.267 0
M  V30 1867 H 171.035 -0.68665 -5.30273 0
M  V30 1868 H 171.378 0.557109 -4.12555 0
M  V30 1869 H 171.911 -1.11376 -3.8189 0
M  V30 1870 H 168.65 -3.61843 -5.4658 0
M  V30 1871 H 168.17 -1.91961 -5.68253 0
M  V30 1872 H 169.849 -2.42251 -5.99936 0
M  V30 1873 N 169.982 1.44106 -0.638065 0
M  V30 1874 C 170.892 2.34513 0.0637334 0
M  V30 1875 C 171.908 1.53018 0.828346 0
M  V30 1876 O 173.084 1.85723 0.779036 0
M  V30 1877 C 170.149 3.31095 1.02844 0
M  V30 1878 C 169.21 4.28497 0.26244 0
M  V30 1879 C 168.443 5.20465 1.1812 0
M  V30 1880 O 168.666 5.16514 2.42011 0
M  V30 1881 O 167.6 5.98251 0.661774 0
M  V30 1882 H 171.426 2.95989 -0.68003 0
M  V30 1883 H 169.011 1.43994 -0.398252 0
M  V30 1884 H 170.893 3.90526 1.58327 0
M  V30 1885 H 169.568 2.72144 1.7527 0
M  V30 1886 H 168.475 3.72592 -0.335602 0
M  V30 1887 H 169.808 4.90388 -0.421936 0
M  V30 1888 N 171.46 0.379036 1.52974 0
M  V30 1889 C 172.688 -0.20679 2.05864 0
M  V30 1890 C 173.103 -1.41356 1.25155 0
M  V30 1891 O 172.46 -1.8009 0.295588 0
M  V30 1892 C 172.511 -0.587045 3.56702 0
M  V30 1893 O 172.232 0.571776 4.34353 0
M  V30 1894 C 173.733 -1.22983 4.25899 0
M  V30 1895 H 170.953 -0.0336123 0.670158 0
M  V30 1896 H 173.497 0.541298 1.97206 0
M  V30 1897 H 171.652 -1.28504 3.65466 0
M  V30 1898 H 172.066 0.261544 5.23847 0
M  V30 1899 H 173.54 -1.44635 5.32715 0
M  V30 1900 H 174.017 -2.19416 3.80465 0
M  V30 1901 H 174.623 -0.572892 4.21424 0
M  V30 1902 N 172.938 -1.57226 0.108567 0
M  V30 1903 C 173.848 -2.18292 -0.859401 0
M  V30 1904 C 174.864 -1.15612 -1.30038 0
M  V30 1905 O 176.04 -1.48039 -1.36552 0
M  V30 1906 C 173.105 -2.762 -2.09558 0
M  V30 1907 C 172.166 -3.93881 -1.70752 0
M  V30 1908 C 171.399 -4.49018 -2.88477 0
M  V30 1909 O 171.622 -4.03068 -4.036 0
M  V30 1910 O 170.556 -5.39852 -2.66164 0
M  V30 1911 H 174.382 -3.01441 -0.369769 0
M  V30 1912 H 171.967 -1.48945 -0.1165 0
M  V30 1913 H 173.849 -3.13156 -2.81978 0
M  V30 1914 H 172.524 -1.96089 -2.57548 0
M  V30 1915 H 171.431 -3.61713 -0.954714 0
M  V30 1916 H 172.764 -4.75396 -1.27513 0
M  V30 1917 N 174.416 0.165178 -1.56732 0
M  V30 1918 C 175.644 0.896218 -1.86482 0
M  V30 1919 C 176.059 1.75555 -0.694675 0
M  V30 1920 O 175.416 1.79379 0.33607 0
M  V30 1921 C 175.467 1.76792 -3.1532 0
M  V30 1922 O 175.188 0.943239 -4.27825 0
M  V30 1923 C 176.689 2.6081 -3.58459 0
M  V30 1924 H 173.909 0.260064 -0.618553 0
M  V30 1925 H 176.453 0.163428 -2.03846 0
M  V30 1926 H 174.608 2.45398 -2.99764 0
M  V30 1927 H 175.022 1.53998 -5.01383 0
M  V30 1928 H 176.496 3.17579 -4.51495 0
M  V30 1929 H 176.973 3.35977 -2.82872 0
M  V30 1930 H 177.579 1.97526 -3.76648 0
M  V30 1931 N 175.894 1.51508 0.433938 0
M  V30 1932 C 177.122 1.68157 1.20543 0
M  V30 1933 C 177.537 0.380362 1.84929 0
M  V30 1934 O 176.894 -0.641446 1.70856 0
M  V30 1935 C 176.945 2.79965 2.28696 0
M  V30 1936 O 176.666 4.05045 1.66943 0
M  V30 1937 C 178.167 3.07912 3.18912 0
M  V30 1938 H 175.387 0.56421 0.363191 0
M  V30 1939 H 177.931 1.97941 0.513754 0
M  V30 1940 H 176.086 2.5277 2.93574 0
M  V30 1941 H 176.5 4.67165 2.38448 0
M  V30 1942 H 177.974 3.89719 3.90926 0
M  V30 1943 H 178.451 2.20456 3.79863 0
M  V30 1944 H 179.057 3.36779 2.59731 0
M  V30 1945 N 177.372 -0.689602 1.41712 0
M  V30 1946 C 178.621 -1.44534 1.40686 0
M  V30 1947 C 178.934 -1.95588 0.0213352 0
M  V30 1948 O 180.14 -2.71271 -0.111534 0
M  V30 1949 C 178.596 -2.61387 2.47396 0
M  V30 1950 C 178.204 -2.17094 3.91885 0
M  V30 1951 C 179.948 -3.38986 2.55517 0
M  V30 1952 C 177.855 -3.3094 4.90135 0
M  V30 1953 H 176.785 -0.542925 0.52321 0
M  V30 1954 H 179.436 -0.748054 1.6756 0
M  V30 1955 H 177.818 -3.33412 2.13664 0
M  V30 1956 H 178.992 -1.52318 4.34897 0
M  V30 1957 H 177.307 -1.52473 3.8748 0
M  V30 1958 H 179.904 -4.23747 3.26102 0
M  V30 1959 H 180.247 -3.84578 1.59391 0
M  V30 1960 H 180.78 -2.74021 2.8837 0
M  V30 1961 H 177.519 -2.90355 5.87685 0
M  V30 1962 H 177.039 -3.94546 4.51767 0
M  V30 1963 H 178.718 -3.9663 5.11169 0
M  V30 1964 N 178.85 -1.27639 -0.924453 0
M  V30 1965 C 180.098 -1.13941 -1.66918 0
M  V30 1966 C 180.419 0.314589 -1.92446 0
M  V30 1967 O 179.689 1.21964 -1.53303 0
M  V30 1968 H 178.269 -0.418678 -0.618642 0
M  V30 1969 H 180.931 -1.60213 -1.10985 0
M  V30 1970 H 180.027 -1.67094 -2.63602 0
M  V30 1971 N 180.328 1.1314 -1.09713 0
M  V30 1972 C 181.558 1.88048 -0.855656 0
M  V30 1973 C 181.966 1.79537 0.596919 0
M  V30 1974 O 181.309 1.16196 1.42282 0
M  V30 1975 C 181.371 3.38314 -1.21589 0
M  V30 1976 C 181.035 3.70605 -2.67397 0
M  V30 1977 C 182.032 3.69596 -3.65643 0
M  V30 1978 C 179.717 4.0017 -3.03593 0
M  V30 1979 C 181.711 3.977 -4.9811 0
M  V30 1980 C 179.398 4.27935 -4.36251 0
M  V30 1981 C 180.396 4.26685 -5.33318 0
M  V30 1982 O 180.084 4.53767 -6.63589 0
M  V30 1983 H 179.816 0.60208 -0.307368 0
M  V30 1984 H 182.37 1.44128 -1.46343 0
M  V30 1985 H 180.6 3.82752 -0.551177 0
M  V30 1986 H 182.289 3.94552 -0.953083 0
M  V30 1987 H 183.055 3.46826 -3.39023 0
M  V30 1988 H 178.934 4.00289 -2.2867 0
M  V30 1989 H 182.478 3.9664 -5.73866 0
M  V30 1990 H 178.375 4.50178 -4.62613 0
M  V30 1991 H 179.143 4.71422 -6.69107 0
M  V30 1992 N 181.806 0.884767 1.30421 0
M  V30 1993 C 183.054 0.502112 1.95763 0
M  V30 1994 C 183.375 -0.951815 1.70192 0
M  V30 1995 O 182.645 -1.6692 1.0254 0
M  V30 1996 H 181.225 0.182694 0.724315 0
M  V30 1997 H 183.887 1.1278 1.58955 0
M  V30 1998 H 182.983 0.672188 3.04775 0
M  V30 1999 N 183.284 -1.43765 0.645699 0
M  V30 2000 C 184.234 -2.27884 -0.0726442 0
M  V30 2001 C 185.218 -1.39483 -0.802086 0
M  V30 2002 O 186.41 -1.63174 -0.685791 0
M  V30 2003 C 183.539 -3.27055 -1.04356 0
M  V30 2004 C 182.625 -4.22944 -0.312985 0
M  V30 2005 N 183.016 -5.01391 0.666386 0
M  V30 2006 C 181.314 -4.42528 -0.55546 0
M  V30 2007 C 182.015 -5.71217 1.09935 0
M  V30 2008 N 180.991 -5.41856 0.435137 0
M  V30 2009 H 184.793 -2.85949 0.678988 0
M  V30 2010 H 182.307 -1.55378 0.472368 0
M  V30 2011 H 184.304 -3.86089 -1.57292 0
M  V30 2012 H 182.964 -2.70551 -1.79534 0
M  V30 2013 H 183.975 -5.07252 1.04481 0
M  V30 2014 H 180.652 -3.97104 -1.28899 0
M  V30 2015 H 182.042 -6.44202 1.90929 0
M  V30 2016 N 184.763 -0.387143 -1.52771 0
M  V30 2017 C 186.179 -0.037007 -1.59557 0
M  V30 2018 C 186.379 1.44801 -1.40124 0
M  V30 2019 O 185.435 2.21227 -1.21716 0
M  V30 2020 C 186.748 -0.512256 -2.96305 0
M  V30 2021 C 188.296 -0.468328 -3.09476 0
M  V30 2022 C 188.771 -0.919731 -4.4867 0
M  V30 2023 N 190.262 -0.875656 -4.54848 0
M  V30 2024 C 190.997 -1.19637 -5.6078 0
M  V30 2025 N 190.493 -1.58745 -6.74368 0
M  V30 2026 N 192.286 -1.11776 -5.50874 0
M  V30 2027 H 184.437 -1.35395 -1.63652 0
M  V30 2028 H 186.7 -0.554818 -0.768688 0
M  V30 2029 H 186.406 -1.54935 -3.15734 0
M  V30 2030 H 186.28 0.089805 -3.77093 0
M  V30 2031 H 188.667 0.559671 -2.89744 0
M  V30 2032 H 188.748 -1.10616 -2.30646 0
M  V30 2033 H 188.392 -1.94595 -4.69143 0
M  V30 2034 H 188.322 -0.258927 -5.25963 0
M  V30 2035 H 190.813 -0.587843 -3.733 0
M  V30 2036 H 191.126 -1.81586 -7.51163 0
M  V30 2037 H 189.471 -1.6263 -6.75705 0
M  V30 2038 H 192.662 -0.811264 -4.61016 0
M  V30 2039 H 192.835 -1.37103 -6.3333 0
M  V30 2040 N 186.241 1.57166 -0.116904 0
M  V30 2041 C 187.487 1.95412 0.542405 0
M  V30 2042 C 187.82 1.00019 1.66463 0
M  V30 2043 O 187.095 0.0370346 1.94465 0
M  V30 2044 C 187.378 3.43615 1.07708 0
M  V30 2045 C 187.231 4.49781 -0.0415868 0
M  V30 2046 C 188.55 3.93616 1.96861 0
M  V30 2047 H 185.669 0.710543 0.195696 0
M  V30 2048 H 188.311 1.89027 -0.192038 0
M  V30 2049 H 186.461 3.49187 1.70296 0
M  V30 2050 H 188.133 4.56308 -0.676793 0
M  V30 2051 H 186.376 4.28033 -0.705019 0
M  V30 2052 H 187.047 5.50733 0.373717 0
M  V30 2053 H 189.523 3.90335 1.44146 0
M  V30 2054 H 188.399 4.97838 2.3119 0
M  V30 2055 H 188.66 3.34188 2.89432 0
M  V30 2056 N 187.719 -0.156864 1.56817 0
M  V30 2057 C 188.968 -0.869504 1.81996 0
M  V30 2058 C 189.281 -1.82777 0.696545 0
M  V30 2059 O 190.487 -2.58384 0.833658 0
M  V30 2060 C 188.943 -1.59679 3.22538 0
M  V30 2061 C 188.551 -0.681431 4.42787 0
M  V30 2062 C 190.295 -2.2968 3.56997 0
M  V30 2063 C 188.202 -1.40978 5.74351 0
M  V30 2064 H 187.132 -0.328438 0.678708 0
M  V30 2065 H 189.783 -0.1223 1.83092 0
M  V30 2066 H 188.165 -2.38927 3.158 0
M  V30 2067 H 189.339 0.0751166 4.60739 0
M  V30 2068 H 187.654 -0.0903431 4.16302 0
M  V30 2069 H 190.251 -2.84794 4.52544 0
M  V30 2070 H 190.594 -3.05707 2.82576 0
M  V30 2071 H 191.127 -1.57361 3.65352 0
M  V30 2072 H 187.866 -0.691561 6.51842 0
M  V30 2073 H 187.386 -2.13929 5.60352 0
M  V30 2074 H 189.065 -1.95337 6.16808 0
M  V30 2075 N 189.197 -1.51736 -0.425897 0
M  V30 2076 C 190.425 -1.68794 -1.1965 0
M  V30 2077 C 190.84 -0.390164 -1.84725 0
M  V30 2078 O 190.197 0.632376 -1.71194 0
M  V30 2079 C 190.248 -2.81174 -2.27208 0
M  V30 2080 O 189.969 -4.05925 -1.64793 0
M  V30 2081 C 191.47 -3.09599 -3.17275 0
M  V30 2082 H 188.69 -0.566128 -0.360194 0
M  V30 2083 H 191.234 -1.98211 -0.503249 0
M  V30 2084 H 189.389 -2.54324 -2.9223 0
M  V30 2085 H 189.803 -4.68423 -2.35967 0
M  V30 2086 H 191.277 -3.91786 -3.88854 0
M  V30 2087 H 191.754 -2.22468 -3.78688 0
M  V30 2088 H 192.36 -3.38151 -2.57941 0
M  V30 2089 N 190.675 0.682077 -1.42076 0
M  V30 2090 C 191.952 1.43755 -1.32642 0
M  V30 2091 C 192.332 2.11063 0.0396611 0
M  V30 2092 O 191.68 2.02701 1.05474 0
M  V30 2093 C 191.89 2.44596 -2.48946 0
M  V30 2094 C 193.238 3.09454 -2.9073 0
M  V30 2095 O 194.262 2.54922 -2.48783 0
M  V30 2096 O 193.121 4.08253 -3.63307 0
M  V30 2097 H 190.215 0.640857 -0.522715 0
M  V30 2098 H 192.761 0.711415 -1.54068 0
M  V30 2099 H 191.533 1.93609 -3.40046 0
M  V30 2100 H 191.156 3.24701 -2.29467 0
M  V30 2101 N 192.153 1.28127 0.917671 0
M  V30 2102 C 193.085 1.07517 2.02417 0
M  V30 2103 C 194.098 0.0281099 1.62776 0
M  V30 2104 O 195.287 0.270748 1.76435 0
M  V30 2105 C 192.387 0.610957 3.33347 0
M  V30 2106 C 191.56 1.73255 4.01624 0
M  V30 2107 C 190.619 1.26238 5.10833 0
M  V30 2108 O 189.645 1.96389 5.34247 0
M  V30 2109 N 190.847 0.123448 5.80369 0
M  V30 2110 H 193.612 2.02806 2.20658 0
M  V30 2111 H 191.173 1.19827 1.08871 0
M  V30 2112 H 193.165 0.280101 4.0373 0
M  V30 2113 H 191.735 -0.24898 3.11607 0
M  V30 2114 H 190.955 2.23319 3.24842 0
M  V30 2115 H 192.243 2.48503 4.43986 0
M  V30 2116 H 191.641 -0.461847 5.63812 0
M  V30 2117 H 190.198 -0.148158 6.51632 0
M  V30 2118 N 193.631 -1.12557 1.10312 0
M  V30 2119 C 194.871 -1.8568 0.854543 0
M  V30 2120 C 195.235 -1.82091 -0.608843 0
M  V30 2121 O 196.436 -2.50544 -0.973717 0
M  V30 2122 C 194.707 -3.2942 1.38626 0
M  V30 2123 S 196.266 -4.19931 1.27293 0
M  V30 2124 H 193.084 -0.640427 0.308827 0
M  V30 2125 H 195.686 -1.35599 1.40831 0
M  V30 2126 H 194.39 -3.2959 2.44537 0
M  V30 2127 H 193.921 -3.84566 0.82902 0
M  V30 2128 H 195.936 -4.95668 0.229776 0
M  V30 2129 N 195.109 -0.891671 -1.2995 0
M  V30 2130 C 196.52 -0.563104 -1.78006 0
M  V30 2131 C 196.871 0.920978 -1.73241 0
M  V30 2132 O 195.996 1.71987 -1.31337 0
M  V30 2133 C 196.591 -1.01539 -3.23226 0
M  V30 2134 C 195.15 -0.738124 -3.69092 0
M  V30 2135 C 194.297 -1.19461 -2.50249 0
M  V30 2136 H 197.248 -1.07522 -1.16725 0
M  V30 2137 H 197.269 -0.347217 -3.78912 0
M  V30 2138 H 196.781 -2.09555 -3.26662 0
M  V30 2139 H 194.882 0.329766 -3.71138 0
M  V30 2140 H 194.995 -1.33037 -4.60259 0
M  V30 2141 H 193.359 -0.613787 -2.47194 0
M  V30 2142 H 194.142 -2.28265 -2.56417 0
M  V30 2143 N 196.587 1.43421 -0.653314 0
M  V30 2144 C 197.497 2.34568 0.0388565 0
M  V30 2145 C 198.513 1.53888 0.81207 0
M  V30 2146 O 199.689 1.86539 0.759294 0
M  V30 2147 C 196.754 3.32167 0.993269 0
M  V30 2148 C 195.815 4.28751 0.216977 0
M  V30 2149 C 195.048 5.21688 1.12593 0
M  V30 2150 O 195.271 5.19052 2.36519 0
M  V30 2151 O 194.205 5.98919 0.598284 0
M  V30 2152 H 198.031 2.95251 -0.711386 0
M  V30 2153 H 195.616 1.43564 -0.413502 0
M  V30 2154 H 197.498 3.92183 1.54176 0
M  V30 2155 H 196.173 2.73987 1.72374 0
M  V30 2156 H 195.08 3.72215 -0.375101 0
M  V30 2157 H 196.413 4.89913 -0.473924 0
M  V30 2158 N 198.065 0.39524 1.52563 0
M  V30 2159 C 199.313 -0.184678 2.01254 0
M  V30 2160 C 199.634 -1.46822 1.28329 0
M  V30 2161 O 198.904 -1.91666 0.405094 0
M  V30 2162 H 197.484 -0.0712355 0.743596 0
M  V30 2163 H 200.146 0.528293 1.87603 0
M  V30 2164 H 199.242 -0.390681 3.09645 0
M  V30 2165 N 199.544 -1.57102 0.125237 0
M  V30 2166 C 200.793 -1.94582 -0.531095 0
M  V30 2167 C 201.106 -1.01126 -1.6743 0
M  V30 2168 O 202.312 -1.28097 -2.39381 0
M  V30 2169 C 200.768 -3.45839 -0.996164 0
M  V30 2170 C 200.376 -4.47842 0.118926 0
M  V30 2171 C 202.12 -3.92227 -1.62352 0
M  V30 2172 C 200.027 -5.90284 -0.363192 0
M  V30 2173 H 198.957 -0.726391 -0.20217 0
M  V30 2174 H 201.608 -1.82339 0.206092 0
M  V30 2175 H 199.99 -3.53338 -1.78796 0
M  V30 2176 H 201.164 -4.52018 0.895358 0
M  V30 2177 H 199.479 -4.11243 0.653324 0
M  V30 2178 H 202.076 -4.96069 -1.99548 0
M  V30 2179 H 202.419 -3.32552 -2.50429 0
M  V30 2180 H 202.952 -3.87554 -0.897019 0
M  V30 2181 H 199.691 -6.53728 0.481679 0
M  V30 2182 H 199.211 -5.89515 -1.10597 0
M  V30 2183 H 200.89 -6.41752 -0.822377 0
M  V30 2184 N 201.022 0.148545 -1.56898 0
M  V30 2185 C 202.268 0.862694 -1.83536 0
M  V30 2186 C 202.601 1.80889 -0.706604 0
M  V30 2187 O 201.876 1.92328 0.289885 0
M  V30 2188 C 202.159 1.63853 -3.20662 0
M  V30 2189 C 202.012 0.713925 -4.44098 0
M  V30 2190 C 203.331 2.60133 -3.54991 0
M  V30 2191 H 200.45 0.312179 -0.667618 0
M  V30 2192 H 203.092 0.127953 -1.89569 0
M  V30 2193 H 201.242 2.26489 -3.1565 0
M  V30 2194 H 202.914 0.098686 -4.61194 0
M  V30 2195 H 201.157 0.0234019 -4.33794 0
M  V30 2196 H 201.828 1.29278 -5.36648 0
M  V30 2197 H 204.304 2.07616 -3.60603 0
M  V30 2198 H 203.18 3.11468 -4.51972 0
M  V30 2199 H 203.441 3.41417 -2.80868 0
M  V30 2200 N 202.5 1.5196 0.417844 0
M  V30 2201 C 203.43 1.77634 1.51554 0
M  V30 2202 C 204.411 0.626918 1.58126 0
M  V30 2203 O 205.596 0.871632 1.7354 0
M  V30 2204 C 202.726 1.91911 2.8946 0
M  V30 2205 C 201.68 3.07463 2.97743 0
M  V30 2206 C 201.006 3.06951 4.37819 0
M  V30 2207 C 202.306 4.47082 2.70027 0
M  V30 2208 H 204 2.6955 1.3032 0
M  V30 2209 H 201.546 1.29706 0.625492 0
M  V30 2210 H 203.499 2.08455 3.6623 0
M  V30 2211 H 202.223 0.966598 3.11969 0
M  V30 2212 H 200.882 2.90656 2.23416 0
M  V30 2213 H 200.53 2.09438 4.57323 0
M  V30 2214 H 200.23 3.84556 4.44286 0
M  V30 2215 H 201.754 3.25613 5.16535 0
M  V30 2216 H 203.168 4.6414 3.36522 0
M  V30 2217 H 201.565 5.2654 2.87881 0
M  V30 2218 H 202.635 4.55777 1.65514 0
M  V30 2219 N 203.978 -0.674533 1.42435 0
M  V30 2220 C 204.908 -1.80009 1.48724 0
M  V30 2221 C 205.889 -1.6659 0.343793 0
M  V30 2222 O 207.074 -1.86007 0.558137 0
M  V30 2223 C 204.204 -3.18306 1.38919 0
M  V30 2224 C 203.158 -3.46461 2.51294 0
M  V30 2225 C 202.484 -4.84335 2.26547 0
M  V30 2226 C 203.784 -3.43328 3.93603 0
M  V30 2227 H 205.478 -1.75004 2.42928 0
M  V30 2228 H 203.024 -0.840533 1.16923 0
M  V30 2229 H 204.977 -3.9678 1.41927 0
M  V30 2230 H 203.701 -3.2399 0.412094 0
M  V30 2231 H 202.36 -2.70348 2.47604 0
M  V30 2232 H 202.008 -4.86669 1.2713 0
M  V30 2233 H 201.708 -5.04136 3.01861 0
M  V30 2234 H 203.232 -5.65094 2.31304 0
M  V30 2235 H 204.646 -4.11772 3.98894 0
M  V30 2236 H 203.043 -3.74664 4.68771 0
M  V30 2237 H 204.113 -2.41897 4.20255 0
M  V30 2238 N 205.456 -1.28612 -0.910864 0
M  V30 2239 C 206.386 -1.15326 -2.03032 0
M  V30 2240 C 207.367 -0.0502924 -1.70026 0
M  V30 2241 O 208.552 -0.227797 -1.92859 0
M  V30 2242 C 205.682 -0.817343 -3.37545 0
M  V30 2243 C 204.636 -1.8754 -3.84724 0
M  V30 2244 C 203.962 -1.39305 -5.16235 0
M  V30 2245 C 205.262 -3.28244 -4.06267 0
M  V30 2246 H 206.956 -2.08975 -2.14406 0
M  V30 2247 H 204.502 -1.00612 -1.03021 0
M  V30 2248 H 206.455 -0.711151 -4.15356 0
M  V30 2249 H 205.179 0.154846 -3.26233 0
M  V30 2250 H 203.838 -1.97079 -3.09121 0
M  V30 2251 H 203.486 -0.409846 -5.01328 0
M  V30 2252 H 203.186 -2.10057 -5.48771 0
M  V30 2253 H 204.71 -1.30014 -5.96598 0
M  V30 2254 H 206.124 -3.21611 -4.74594 0
M  V30 2255 H 204.521 -3.96855 -4.5014 0
M  V30 2256 H 205.591 -3.72048 -3.10979 0
M  V30 2257 N 206.934 1.1197 -1.10907 0
M  V30 2258 C 207.864 2.19928 -0.784473 0
M  V30 2259 C 208.845 1.6833 0.244726 0
M  V30 2260 O 210.03 1.93892 0.109418 0
M  V30 2261 C 207.16 3.46597 -0.220827 0
M  V30 2262 C 206.114 4.11376 -1.18127 0
M  V30 2263 C 205.44 5.32554 -0.478594 0
M  V30 2264 C 206.74 4.56945 -2.52979 0
M  V30 2265 H 208.434 2.47337 -1.68715 0
M  V30 2266 H 205.98 1.18879 -0.812642 0
M  V30 2267 H 207.933 4.21396 0.0184278 0
M  V30 2268 H 206.657 3.1863 0.717113 0
M  V30 2269 H 205.316 3.38564 -1.40606 0
M  V30 2270 H 204.964 5.00856 0.463976 0
M  V30 2271 H 204.664 5.76844 -1.11912 0
M  V30 2272 H 206.188 6.10096 -0.248 0
M  V30 2273 H 207.602 5.23093 -2.3462 0
M  V30 2274 H 205.999 5.1203 -3.12962 0
M  V30 2275 H 207.069 3.70676 -3.12614 0
M  V30 2276 N 208.412 0.89855 1.29475 0
M  V30 2277 C 209.344 0.332726 2.26772 0
M  V30 2278 C 210.357 -0.520323 1.54261 0
M  V30 2279 O 211.546 -0.337668 1.75277 0
M  V30 2280 C 208.646 -0.544334 3.345 0
M  V30 2281 C 207.819 0.282728 4.36485 0
M  V30 2282 C 206.878 -0.526982 5.23555 0
M  V30 2283 O 205.904 0.0551165 5.69173 0
M  V30 2284 N 207.106 -1.83331 5.5079 0
M  V30 2285 H 209.871 1.16897 2.75962 0
M  V30 2286 H 207.432 0.762919 1.42798 0
M  V30 2287 H 209.424 -1.09239 3.89678 0
M  V30 2288 H 207.994 -1.28127 2.85136 0
M  V30 2289 H 207.214 1.01221 3.80983 0
M  V30 2290 H 208.502 0.84918 5.01664 0
M  V30 2291 H 207.9 -2.32898 5.15534 0
M  V30 2292 H 206.457 -2.32852 6.08788 0
M  V30 2293 N 209.89 -1.43072 0.660911 0
M  V30 2294 C 210.853 -2.29194 -0.0166406 0
M  V30 2295 C 211.853 -1.42609 -0.742912 0
M  V30 2296 O 213.043 -1.64155 -0.583004 0
M  V30 2297 C 210.175 -3.24831 -1.0343 0
M  V30 2298 H 211.368 -2.90596 0.741208 0
M  V30 2299 H 208.921 -1.5048 0.422532 0
M  V30 2300 H 209.656 -2.68339 -1.82111 0
M  V30 2301 H 209.441 -3.88676 -0.517082 0
M  V30 2302 H 210.931 -3.89451 -1.50723 0
M  V30 2303 N 211.368 -0.403325 -1.52352 0
M  V30 2304 C 212.617 0.175668 -2.00934 0
M  V30 2305 C 212.93 1.46718 -1.29356 0
M  V30 2306 O 214.136 2.12708 -1.68724 0
M  V30 2307 C 212.592 0.363612 -3.58058 0
M  V30 2308 C 212.2 -0.915472 -4.38547 0
M  V30 2309 C 213.944 0.89821 -4.14888 0
M  V30 2310 C 211.851 -0.695035 -5.87302 0
M  V30 2311 H 210.781 0.0694234 -0.750797 0
M  V30 2312 H 213.432 -0.527879 -1.75743 0
M  V30 2313 H 211.814 1.12935 -3.79555 0
M  V30 2314 H 212.988 -1.68691 -4.28812 0
M  V30 2315 H 211.303 -1.37606 -3.93006 0
M  V30 2316 H 213.9 1.07907 -5.23699 0
M  V30 2317 H 214.243 1.87126 -3.71873 0
M  V30 2318 H 214.776 0.191681 -3.97338 0
M  V30 2319 H 211.515 -1.63948 -6.34666 0
M  V30 2320 H 211.035 0.0372116 -5.99788 0
M  V30 2321 H 212.714 -0.33497 -6.46132 0
M  V30 2322 N 212.846 1.57033 -0.133567 0
M  V30 2323 C 213.776 2.1909 0.807567 0
M  V30 2324 C 214.757 1.13517 1.26681 0
M  V30 2325 O 215.942 1.41809 1.32679 0
M  V30 2326 C 213.072 2.80188 2.05212 0
M  V30 2327 C 212.026 3.91471 1.73015 0
M  V30 2328 C 211.352 4.39443 3.04622 0
M  V30 2329 C 212.652 5.12886 0.987168 0
M  V30 2330 H 214.346 2.97988 0.290403 0
M  V30 2331 H 211.892 1.43335 0.138239 0
M  V30 2332 H 213.845 3.22264 2.71521 0
M  V30 2333 H 212.569 1.98601 2.59278 0
M  V30 2334 H 211.228 3.49993 1.0909 0
M  V30 2335 H 210.876 3.54695 3.56651 0
M  V30 2336 H 210.576 5.14495 2.83847 0
M  V30 2337 H 212.1 4.8418 3.72024 0
M  V30 2338 H 213.514 5.51891 1.55208 0
M  V30 2339 H 211.911 5.93615 0.87985 0
M  V30 2340 H 212.981 4.84894 -0.0235286 0
M  V30 2341 N 214.325 -0.140222 1.56975 0
M  V30 2342 C 215.573 -0.850005 1.83356 0
M  V30 2343 C 215.894 -1.81399 0.71551 0
M  V30 2344 O 215.164 -1.94136 -0.262294 0
M  V30 2345 H 213.744 -0.316886 0.676456 0
M  V30 2346 H 216.406 -0.132608 1.94448 0
M  V30 2347 H 215.502 -1.40814 2.78528 0
M  V30 2348 N 215.803 -1.52179 -0.40978 0
M  V30 2349 C 217.028 -1.70347 -1.18308 0
M  V30 2350 C 217.453 -0.411887 -1.83535 0
M  V30 2351 O 216.811 0.630587 -1.6998 0
M  V30 2352 C 216.859 -2.83977 -2.22238 0
M  V30 2353 O 215.963 -2.495 -3.28365 0
M  V30 2354 H 215.304 -0.567103 -0.345384 0
M  V30 2355 H 217.834 -1.98879 -0.480445 0
M  V30 2356 H 217.844 -3.0887 -2.66577 0
M  V30 2357 H 216.519 -3.77685 -1.74146 0
M  V30 2358 H 215.096 -2.35277 -2.89308 0
M  V30 2359 N 217.281 0.66697 -1.42791 0
M  V30 2360 C 218.214 1.79177 -1.41318 0
M  V30 2361 C 219.192 1.60234 -0.276401 0
M  V30 2362 O 220.376 1.82602 -0.46785 0
M  V30 2363 C 217.503 3.16289 -1.21157 0
M  V30 2364 C 216.549 3.53964 -2.37932 0
M  V30 2365 S 217.382 3.55501 -4.00474 0
M  V30 2366 C 218.538 4.95292 -3.8267 0
M  V30 2367 H 218.771 1.80153 -2.365 0
M  V30 2368 H 216.304 0.838357 -1.29657 0
M  V30 2369 H 218.262 3.95428 -1.10212 0
M  V30 2370 H 216.923 3.1289 -0.275481 0
M  V30 2371 H 216.116 4.53646 -2.19594 0
M  V30 2372 H 215.718 2.82204 -2.45432 0
M  V30 2373 H 218.01 5.83584 -3.44145 0
M  V30 2374 H 218.953 5.18679 -4.82055 0
M  V30 2375 H 219.361 4.68179 -3.15386 0
M  V30 2376 N 218.759 1.29093 0.90403 0
M  V30 2377 C 220.005 1.16986 1.65656 0
M  V30 2378 C 220.338 -0.278925 1.92186 0
M  V30 2379 O 219.613 -1.2019 1.5292 0
M  V30 2380 C 219.896 1.97908 3.0084 0
M  V30 2381 C 219.749 3.50903 2.81403 0
M  V30 2382 C 221.068 1.80208 4.01513 0
M  V30 2383 H 218.187 0.426346 0.601164 0
M  V30 2384 H 220.829 1.58518 1.04747 0
M  V30 2385 H 218.979 1.62616 3.52829 0
M  V30 2386 H 220.651 3.96153 2.36348 0
M  V30 2387 H 218.894 3.76045 2.1627 0
M  V30 2388 H 219.565 4.02791 3.77443 0
M  V30 2389 H 222.041 2.11025 3.58619 0
M  V30 2390 H 220.917 2.39184 4.94047 0
M  V30 2391 H 221.178 0.756119 4.35586 0
M  V30 2392 N 220.237 -1.11381 1.11499 0
M  V30 2393 C 221.185 -2.19522 0.768956 0
M  V30 2394 C 222.179 -1.67693 -0.239857 0
M  V30 2395 O 223.385 -1.79727 -0.0990755 0
M  V30 2396 H 219.76 -0.715711 0.230786 0
M  V30 2397 H 221.731 -2.45954 1.68964 0
M  V30 2398 C 220.48 -3.46945 0.229073 0
M  V30 2399 H 219.803 -3.8718 0.996596 0
M  V30 2400 H 221.243 -4.23993 0.0251441 0
M  V30 2401 C 219.702 -3.2042 -1.04079 0
M  V30 2402 O 220.232 -3.41178 -2.12038 0
M  V30 2403 N 218.438 -2.74151 -0.963823 0
M  V30 2404 H 217.985 -2.57459 -0.0851722 0
M  V30 2405 H 217.943 -2.56781 -1.81414 0
M  V30 2406 N 221.715 -0.905404 -1.28997 0
M  V30 2407 C 222.678 -0.392253 -2.25819 0
M  V30 2408 C 223.678 0.476753 -1.5357 0
M  V30 2409 O 224.868 0.280994 -1.71919 0
M  V30 2410 C 222 0.438588 -3.38067 0
M  V30 2411 H 223.193 -1.24743 -2.72725 0
M  V30 2412 H 220.746 -0.684051 -1.40536 0
M  V30 2413 H 221.481 1.31352 -2.96508 0
M  V30 2414 H 221.266 -0.184167 -3.91667 0
M  V30 2415 H 222.756 0.78873 -4.10084 0
M  V30 2416 N 223.193 1.4272 -0.668489 0
M  V30 2417 C 224.44 2.01624 -0.18814 0
M  V30 2418 C 224.768 1.5282 1.20317 0
M  V30 2419 O 224.023 0.718323 1.8204 0
M  V30 2420 C 224.322 3.57021 -0.164499 0
M  V30 2421 C 223.988 4.25232 -1.49962 0
M  V30 2422 C 222.65 4.4358 -1.8652 0
M  V30 2423 C 225.002 4.63727 -2.37921 0
M  V30 2424 C 222.33 4.97694 -3.10674 0
M  V30 2425 C 224.682 5.19218 -3.6138 0
M  V30 2426 C 223.346 5.3578 -3.98115 0
M  V30 2427 H 222.616 0.737795 -0.0688454 0
M  V30 2428 H 225.263 1.70991 -0.862225 0
M  V30 2429 H 223.568 3.87285 0.593079 0
M  V30 2430 H 225.265 4.00372 0.224271 0
M  V30 2431 H 221.855 4.11306 -1.20522 0
M  V30 2432 H 226.039 4.4923 -2.10964 0
M  V30 2433 H 221.295 5.08702 -3.39164 0
M  V30 2434 H 225.469 5.4799 -4.29743 0
M  V30 2435 H 223.096 5.77475 -4.94395 0
M  V30 2436 N 224.671 0.411399 1.52136 0
M  V30 2437 C 225.604 -0.457614 2.23565 0
M  V30 2438 C 226.582 -1.04613 1.24478 0
M  V30 2439 O 227.766 -1.09356 1.53536 0
M  V30 2440 C 224.893 -1.6354 2.96602 0
M  V30 2441 C 223.939 -1.17005 4.10137 0
M  V30 2442 S 224.772 -0.13333 5.35334 0
M  V30 2443 C 225.928 -1.31638 6.119 0
M  V30 2444 H 226.161 0.148883 2.96927 0
M  V30 2445 H 223.694 0.195713 1.53155 0
M  V30 2446 H 225.652 -2.31074 3.39286 0
M  V30 2447 H 224.313 -2.21324 2.22878 0
M  V30 2448 H 223.506 -2.05005 4.60422 0
M  V30 2449 H 223.108 -0.573319 3.6958 0
M  V30 2450 H 225.4 -2.23957 6.39413 0
M  V30 2451 H 226.343 -0.854014 7.02931 0
M  V30 2452 H 226.751 -1.54321 5.42997 0
M  V30 2453 N 226.149 -1.5696 0.141893 0
M  V30 2454 C 227.395 -1.9625 -0.511248 0
M  V30 2455 C 227.728 -1.02654 -1.64851 0
M  V30 2456 O 227.003 -0.0679676 -1.94381 0
M  V30 2457 C 227.286 -3.45285 -1.02227 0
M  V30 2458 C 227.139 -4.49658 0.113138 0
M  V30 2459 C 228.458 -3.96698 -1.90574 0
M  V30 2460 H 225.577 -0.713567 -0.184367 0
M  V30 2461 H 228.219 -1.88698 0.222087 0
M  V30 2462 H 226.369 -3.51852 -1.64719 0
M  V30 2463 H 228.041 -4.55174 0.749302 0
M  V30 2464 H 226.284 -4.26857 0.773026 0
M  V30 2465 H 226.955 -5.51258 -0.286053 0
M  V30 2466 H 229.431 -3.92578 -1.37918 0
M  V30 2467 H 228.307 -5.01453 -2.2324 0
M  V30 2468 H 228.568 -3.3875 -2.84079 0
M  V30 2469 N 227.627 0.131896 -1.57047 0
M  V30 2470 C 228.875 0.840269 -1.83804 0
M  V30 2471 C 229.196 1.81017 -0.72512 0
M  V30 2472 O 228.466 1.94272 0.251995 0
M  V30 2473 H 227.046 0.313294 -0.678127 0
M  V30 2474 H 229.708 0.122294 -1.94516 0
M  V30 2475 H 228.804 1.39335 -2.79271 0
M  V30 2476 N 229.106 1.52395 0.401703 0
M  V30 2477 C 230.346 1.68498 1.15705 0
M  V30 2478 C 230.71 0.409748 1.87577 0
M  V30 2479 O 231.911 0.446983 2.65058 0
M  V30 2480 C 230.182 2.87789 2.11924 0
M  V30 2481 S 231.741 3.24415 2.95466 0
M  V30 2482 H 228.559 0.593267 0.391862 0
M  V30 2483 H 231.161 1.90408 0.443282 0
M  V30 2484 H 229.865 3.7884 1.57824 0
M  V30 2485 H 229.396 2.68175 2.87829 0
M  V30 2486 H 231.411 2.73614 4.13944 0
M  V30 2487 N 230.584 -0.659388 1.43143 0
M  V30 2488 C 231.517 -1.78425 1.42267 0
M  V30 2489 C 232.495 -1.60085 0.284894 0
M  V30 2490 O 233.679 -1.82351 0.477527 0
M  V30 2491 C 230.806 -3.15642 1.22833 0
M  V30 2492 C 229.852 -3.52698 2.39806 0
M  V30 2493 S 230.685 -3.53372 4.02353 0
M  V30 2494 C 231.841 -4.93256 3.85291 0
M  V30 2495 H 232.074 -1.78897 2.37452 0
M  V30 2496 H 229.607 -0.831469 1.301 0
M  V30 2497 H 231.565 -3.94838 1.12308 0
M  V30 2498 H 230.226 -3.12739 0.29207 0
M  V30 2499 H 229.419 -4.52475 2.21996 0
M  V30 2500 H 229.021 -2.80899 2.46925 0
M  V30 2501 H 231.313 -5.81751 3.47235 0
M  V30 2502 H 232.256 -5.16115 4.84799 0
M  V30 2503 H 232.664 -4.665 3.17865 0
M  V30 2504 N 232.062 -1.29571 -0.897171 0
M  V30 2505 C 233.309 -1.17689 -1.6479 0
M  V30 2506 C 233.637 0.27107 -1.92602 0
M  V30 2507 O 232.892 1.21193 -1.53658 0
M  V30 2508 C 233.191 -1.9382 -3.00281 0
M  V30 2509 C 232.857 -3.43522 -2.92068 0
M  V30 2510 C 231.519 -3.84348 -2.89535 0
M  V30 2511 C 233.871 -4.38906 -2.81089 0
M  V30 2512 C 231.199 -5.18869 -2.73846 0
M  V30 2513 C 233.551 -5.73521 -2.66939 0
M  V30 2514 C 232.215 -6.13601 -2.62774 0
M  V30 2515 H 231.485 -0.430654 -0.603008 0
M  V30 2516 H 234.132 -1.60536 -1.04404 0
M  V30 2517 H 232.437 -1.4357 -3.64547 0
M  V30 2518 H 234.134 -1.82028 -3.57305 0
M  V30 2519 H 230.724 -3.11072 -2.94842 0
M  V30 2520 H 234.908 -4.08315 -2.82121 0
M  V30 2521 H 230.164 -5.4903 -2.69027 0
M  V30 2522 H 234.338 -6.47078 -2.57416 0
M  V30 2523 H 231.965 -7.17786 -2.50375 0
M  V30 2524 N 233.54 1.10788 -1.12088 0
M  V30 2525 C 234.786 1.82942 -0.875226 0
M  V30 2526 C 235.119 1.84779 0.597538 0
M  V30 2527 O 234.394 1.30578 1.44152 0
M  V30 2528 C 234.677 3.29789 -1.44606 0
M  V30 2529 C 234.53 3.36307 -2.98693 0
M  V30 2530 C 235.849 4.26064 -1.10261 0
M  V30 2531 H 232.968 0.664195 -0.319397 0
M  V30 2532 H 235.61 1.29867 -1.38689 0
M  V30 2533 H 233.76 3.75118 -1.01089 0
M  V30 2534 H 235.432 2.99487 -3.50864 0
M  V30 2535 H 233.675 2.76318 -3.34411 0
M  V30 2536 H 234.346 4.39694 -3.33726 0
M  V30 2537 H 236.822 3.88951 -1.4784 0
M  V30 2538 H 235.698 5.27183 -1.52869 0
M  V30 2539 H 235.959 4.42098 -0.0142953 0
M  V30 2540 N 235.018 0.912232 1.28515 0
M  V30 2541 C 235.965 0.397954 2.27343 0
M  V30 2542 C 236.935 -0.526766 1.57526 0
M  V30 2543 O 238.12 -0.449292 1.85435 0
M  V30 2544 C 235.26 -0.357263 3.43246 0
M  V30 2545 C 234.373 0.599788 4.27816 0
M  V30 2546 C 233.508 -0.173725 5.30916 0
M  V30 2547 C 232.547 0.777039 6.07148 0
M  V30 2548 N 231.684 0.0371398 7.0209 0
M  V30 2549 H 236.524 1.24577 2.70711 0
M  V30 2550 H 234.061 0.625612 1.33133 0
M  V30 2551 H 236.019 -0.8113 4.09236 0
M  V30 2552 H 234.649 -1.16943 3.00872 0
M  V30 2553 H 233.701 1.17235 3.61884 0
M  V30 2554 H 235.013 1.32704 4.80823 0
M  V30 2555 H 234.167 -0.688394 6.02782 0
M  V30 2556 H 232.906 -0.934041 4.78672 0
M  V30 2557 H 231.911 1.3031 5.34134 0
M  V30 2558 H 233.136 1.53689 6.61481 0
M  V30 2559 H 231.082 -0.705213 6.52198 0
M  V30 2560 H 230.999 0.704249 7.52713 0
M  V30 2561 H 232.267 -0.457383 7.78157 0
M  V30 2562 N 236.496 -1.42363 0.676048 0
M  V30 2563 C 237.745 -2.00745 0.196037 0
M  V30 2564 C 238.058 -1.54083 -1.20489 0
M  V30 2565 O 239.264 -2.04891 -1.78134 0
M  V30 2566 C 237.72 -3.58651 0.299616 0
M  V30 2567 C 237.328 -4.143 1.70468 0
M  V30 2568 C 239.072 -4.24326 -0.121619 0
M  V30 2569 C 236.979 -5.64574 1.76096 0
M  V30 2570 H 235.909 -0.750787 0.0695301 0
M  V30 2571 H 238.56 -1.63072 0.841412 0
M  V30 2572 H 236.942 -3.93833 -0.413673 0
M  V30 2573 H 238.116 -3.90575 2.44515 0
M  V30 2574 H 236.431 -3.61081 2.07387 0
M  V30 2575 H 239.028 -5.34607 -0.0997362 0
M  V30 2576 H 239.371 -3.99897 -1.15708 0
M  V30 2577 H 239.904 -3.94108 0.540706 0
M  V30 2578 H 236.643 -5.93804 2.77628 0
M  V30 2579 H 236.163 -5.90286 1.06406 0
M  V30 2580 H 237.842 -6.29013 1.51496 0
M  V30 2581 N 237.974 -0.419461 -1.51915 0
M  V30 2582 C 239.199 0.154572 -2.06823 0
M  V30 2583 C 239.624 1.3722 -1.28656 0
M  V30 2584 O 238.982 1.78461 -0.319583 0
M  V30 2585 C 239.03 0.473172 -3.57482 0
M  V30 2586 O 238.134 1.56255 -3.81652 0
M  V30 2587 H 237.475 0.0096924 -0.663929 0
M  V30 2588 H 240.005 -0.595642 -1.95738 0
M  V30 2589 H 240.015 0.728825 -4.01438 0
M  V30 2590 H 238.69 -0.416873 -4.13805 0
M  V30 2591 H 237.267 1.29825 -3.49571 0
M  V30 2592 N 239.452 1.56882 -0.150215 0
M  V30 2593 C 240.384 2.14057 0.819286 0
M  V30 2594 C 241.397 1.09082 1.20851 0
M  V30 2595 O 242.586 1.36347 1.15203 0
M  V30 2596 C 239.686 2.65102 2.11127 0
M  V30 2597 C 238.859 3.94511 1.88891 0
M  V30 2598 C 237.918 4.30834 3.02107 0
M  V30 2599 O 236.944 4.99099 2.73659 0
M  V30 2600 N 238.146 3.90676 4.29363 0
M  V30 2601 H 240.911 2.97871 0.330618 0
M  V30 2602 H 238.472 1.61866 0.0332538 0
M  V30 2603 H 240.464 2.86411 2.85921 0
M  V30 2604 H 239.034 1.85994 2.51247 0
M  V30 2605 H 238.254 3.81795 0.981152 0
M  V30 2606 H 239.542 4.7907 1.71376 0
M  V30 2607 H 238.94 3.35677 4.55343 0
M  V30 2608 H 237.497 4.1703 5.00928 0
M  V30 2609 N 240.93 -0.123565 1.57115 0
M  V30 2610 C 242.341 -0.681198 1.73829 0
M  V30 2611 C 242.692 -1.80535 0.768214 0
M  V30 2612 O 241.817 -2.16317 -0.0599103 0
M  V30 2613 C 242.412 -1.24246 3.15196 0
M  V30 2614 C 240.971 -1.74643 3.33432 0
M  V30 2615 C 240.118 -0.644284 2.69711 0
M  V30 2616 H 243.069 0.102315 1.5837 0
M  V30 2617 H 243.09 -2.11216 3.16493 0
M  V30 2618 H 242.602 -0.424062 3.85776 0
M  V30 2619 H 240.703 -2.58974 2.67886 0
M  V30 2620 H 240.816 -1.85902 4.41562 0
M  V30 2621 H 239.18 -1.07676 2.3082 0
M  V30 2622 H 239.963 0.163058 3.42913 0
M  V30 2623 N 242.408 -1.52605 -0.393616 0
M  V30 2624 C 243.356 -1.77688 -1.50099 0
M  V30 2625 C 244.35 -0.644615 -1.56656 0
M  V30 2626 O 245.556 -0.826997 -1.59877 0
M  V30 2627 H 241.931 -0.562159 -0.499481 0
M  V30 2628 H 243.902 -2.7043 -1.26135 0
M  V30 2629 C 242.651 -1.95858 -2.87289 0
M  V30 2630 H 241.974 -2.8241 -2.82992 0
M  V30 2631 H 243.414 -2.174 -3.64024 0
M  V30 2632 C 241.873 -0.729848 -3.28899 0
M  V30 2633 O 242.403 0.0949217 -4.01588 0
M  V30 2634 N 240.609 -0.561283 -2.85128 0
M  V30 2635 H 240.156 -1.23357 -2.26143 0
M  V30 2636 H 240.114 0.2595 -3.13327 0
M  V30 2637 N 243.887 0.651787 -1.4349 0
M  V30 2638 C 244.834 1.76462 -1.4876 0
M  V30 2639 C 245.804 1.62641 -0.337189 0
M  V30 2640 O 246.989 1.82864 -0.544544 0
M  V30 2641 C 244.129 3.14623 -1.41796 0
M  V30 2642 C 243.242 3.39568 -2.67053 0
M  V30 2643 C 242.377 4.67585 -2.52068 0
M  V30 2644 C 241.416 4.85639 -3.72587 0
M  V30 2645 N 240.553 6.04915 -3.56402 0
M  V30 2646 H 245.393 1.71293 -2.43849 0
M  V30 2647 H 242.93 0.835889 -1.21043 0
M  V30 2648 H 244.888 3.94496 -1.35753 0
M  V30 2649 H 243.518 3.18859 -0.50288 0
M  V30 2650 H 242.57 2.53783 -2.8337 0
M  V30 2651 H 243.882 3.48795 -3.56572 0
M  V30 2652 H 243.036 5.55586 -2.4374 0
M  V30 2653 H 241.775 4.60681 -1.60075 0
M  V30 2654 H 240.78 3.96073 -3.81321 0
M  V30 2655 H 242.005 4.94372 -4.65589 0
M  V30 2656 H 239.951 5.9914 -2.67146 0
M  V30 2657 H 239.868 6.15106 -4.39524 0
M  V30 2658 H 241.136 6.95533 -3.51929 0
M  V30 2659 N 245.365 1.30045 0.890287 0
M  V30 2660 C 246.781 1.08261 1.17268 0
M  V30 2661 C 246.981 -0.160063 2.00863 0
M  V30 2662 O 246.037 -0.855181 2.37577 0
M  V30 2663 C 247.35 2.34323 1.8845 0
M  V30 2664 C 248.898 2.39735 2.01237 0
M  V30 2665 C 249.373 3.65625 2.7583 0
M  V30 2666 N 250.864 3.66402 2.83379 0
M  V30 2667 C 251.599 4.60498 3.41657 0
M  V30 2668 N 251.095 5.64933 4.01026 0
M  V30 2669 N 252.888 4.48051 3.39421 0
M  V30 2670 H 245.039 2.09777 0.332762 0
M  V30 2671 H 247.302 0.92446 0.209948 0
M  V30 2672 H 247.008 3.2498 1.34465 0
M  V30 2673 H 246.882 2.4256 2.88867 0
M  V30 2674 H 249.269 1.4956 2.54393 0
M  V30 2675 H 249.35 2.35476 0.999232 0
M  V30 2676 H 248.994 4.56156 2.23347 0
M  V30 2677 H 248.924 3.67144 3.77509 0
M  V30 2678 H 251.415 2.90896 2.41222 0
M  V30 2679 H 251.728 6.32841 4.43545 0
M  V30 2680 H 250.073 5.68732 3.99461 0
M  V30 2681 H 253.264 3.65649 2.92264 0
M  V30 2682 H 253.437 5.21565 3.84544 0
M  V30 2683 N 246.843 -1.10192 1.12674 0
M  V30 2684 C 247.806 -2.14786 0.799979 0
M  V30 2685 C 248.806 -1.59711 -0.18685 0
M  V30 2686 O 249.996 -1.74156 0.0392558 0
M  V30 2687 C 247.128 -3.40374 0.189228 0
M  V30 2688 H 248.321 -2.45203 1.72671 0
M  V30 2689 H 245.874 -1.25597 0.930326 0
M  V30 2690 H 246.609 -3.15577 -0.747107 0
M  V30 2691 H 246.394 -3.81637 0.899766 0
M  V30 2692 H 247.884 -4.17594 -0.0228143 0
M  V30 2693 N 248.321 -0.919034 -1.28029 0
M  V30 2694 C 249.284 -0.416182 -2.2539 0
M  V30 2695 C 250.284 0.460438 -1.54067 0
M  V30 2696 O 251.474 0.262744 -1.72207 0
M  V30 2697 C 248.606 0.402707 -3.38513 0
M  V30 2698 H 249.799 -1.27629 -2.71387 0
M  V30 2699 H 247.352 -0.698919 -1.39803 0
M  V30 2700 H 248.087 1.282 -2.97885 0
M  V30 2701 H 247.872 -0.225698 -3.9145 0
M  V30 2702 H 249.362 0.745191 -4.10897 0
M  V30 2703 N 249.799 1.42003 -0.683588 0
M  V30 2704 C 251.027 2.05746 -0.218182 0
M  V30 2705 C 251.442 1.51396 1.12804 0
M  V30 2706 O 250.799 0.657303 1.70252 0
M  V30 2707 C 250.85 3.61171 -0.154131 0
M  V30 2708 O 250.571 4.13508 -1.44716 0
M  V30 2709 C 252.072 4.42042 0.333713 0
M  V30 2710 H 249.292 0.662888 -0.10402 0
M  V30 2711 H 251.836 1.81987 -0.9328 0
M  V30 2712 H 249.991 3.84012 0.511231 0
M  V30 2713 H 250.405 5.07453 -1.32632 0
M  V30 2714 H 251.879 5.51028 0.327423 0
M  V30 2715 H 252.356 4.17269 1.37053 0
M  V30 2716 H 252.962 4.24239 -0.300222 0
M  V30 2717 N 251.277 0.427512 1.51691 0
M  V30 2718 C 252.207 -0.3796 2.30394 0
M  V30 2719 C 253.188 -1.02982 1.35384 0
M  V30 2720 O 254.373 -1.03534 1.643 0
M  V30 2721 C 251.503 -1.48649 3.1388 0
M  V30 2722 C 250.457 -0.960294 4.17088 0
M  V30 2723 C 249.783 -2.16219 4.89033 0
M  V30 2724 C 251.083 -0.00153679 5.223 0
M  V30 2725 H 252.777 0.277164 2.98114 0
M  V30 2726 H 250.323 0.134739 1.43368 0
M  V30 2727 H 252.276 -2.05826 3.67714 0
M  V30 2728 H 251 -2.1714 2.43962 0
M  V30 2729 H 249.659 -0.410806 3.64291 0
M  V30 2730 H 249.307 -2.83307 4.15628 0
M  V30 2731 H 249.007 -1.81654 5.58816 0
M  V30 2732 H 250.531 -2.73968 5.45687 0
M  V30 2733 H 251.945 -0.482687 5.71264 0
M  V30 2734 H 250.342 0.256199 5.99553 0
M  V30 2735 H 251.412 0.938174 4.75738 0
M  V30 2736 N 252.755 -1.56801 0.158532 0
M  V30 2737 C 254.001 -1.96781 -0.490405 0
M  V30 2738 C 254.334 -1.04397 -1.63753 0
M  V30 2739 O 253.609 -0.0885805 -1.94298 0
M  V30 2740 C 253.892 -3.4635 -0.985594 0
M  V30 2741 C 253.745 -4.49512 0.160824 0
M  V30 2742 C 255.064 -3.98697 -1.86355 0
M  V30 2743 H 252.183 -0.715482 -0.176788 0
M  V30 2744 H 254.825 -1.88451 0.242088 0
M  V30 2745 H 252.975 -3.53579 -1.60978 0
M  V30 2746 H 254.647 -4.54353 0.797537 0
M  V30 2747 H 252.89 -4.26013 0.818256 0
M  V30 2748 H 253.561 -5.51531 -0.227569 0
M  V30 2749 H 256.037 -3.94019 -1.33746 0
M  V30 2750 H 254.913 -5.03792 -2.17909 0
M  V30 2751 H 255.174 -3.41744 -2.8047 0
M  V30 2752 N 254.233 0.115231 -1.57178 0
M  V30 2753 C 255.48 0.822351 -1.8505 0
M  V30 2754 C 255.808 1.79701 -0.744168 0
M  V30 2755 O 255.063 1.93909 0.26414 0
M  V30 2756 C 255.362 1.60324 -3.19423 0
M  V30 2757 C 255.028 0.772536 -4.44233 0
M  V30 2758 C 253.69 0.543468 -4.78121 0
M  V30 2759 C 256.042 0.193746 -5.2084 0
M  V30 2760 C 253.37 -0.274583 -5.86057 0
M  V30 2761 C 255.722 -0.611517 -6.29637 0
M  V30 2762 C 254.386 -0.850867 -6.62055 0
M  V30 2763 H 253.656 0.30092 -0.677147 0
M  V30 2764 H 256.303 0.0845802 -1.91313 0
M  V30 2765 H 254.608 2.41203 -3.08753 0
M  V30 2766 H 256.305 2.1544 -3.38211 0
M  V30 2767 H 252.895 0.96117 -4.17683 0
M  V30 2768 H 257.079 0.357926 -4.95008 0
M  V30 2769 H 252.335 -0.469206 -6.09597 0
M  V30 2770 H 256.509 -1.06697 -6.88178 0
M  V30 2771 H 254.136 -1.48657 -7.45523 0
M  V30 2772 N 255.711 1.52812 0.385517 0
M  V30 2773 C 256.936 1.72207 1.15583 0
M  V30 2774 C 257.361 0.441034 1.82857 0
M  V30 2775 O 256.719 -0.603465 1.70962 0
M  V30 2776 C 256.767 2.87476 2.17692 0
M  V30 2777 O 255.871 2.54693 3.24354 0
M  V30 2778 H 255.212 0.572526 0.336319 0
M  V30 2779 H 257.742 1.99618 0.448744 0
M  V30 2780 H 257.752 3.13072 2.6163 0
M  V30 2781 H 256.427 3.80408 1.68115 0
M  V30 2782 H 255.004 2.3985 2.85529 0
M  V30 2783 N 257.189 -0.644168 1.43834 0
M  V30 2784 C 258.414 -1.43642 1.49605 0
M  V30 2785 C 258.839 -1.8773 0.117913 0
M  V30 2786 O 258.197 -1.57938 -0.890239 0
M  V30 2787 C 258.245 -2.6416 2.45463 0
M  V30 2788 O 257.349 -3.63538 1.94714 0
M  V30 2789 H 256.69 -0.430329 0.50568 0
M  V30 2790 H 259.22 -0.787448 1.8884 0
M  V30 2791 H 259.23 -3.11864 2.63068 0
M  V30 2792 H 257.905 -2.31414 3.45572 0
M  V30 2793 H 256.482 -3.2273 1.86814 0
M  V30 2794 N 258.668 -1.30515 -0.883378 0
M  V30 2795 C 259.618 -1.13641 -1.9766 0
M  V30 2796 C 260.602 -0.0511314 -1.60819 0
M  V30 2797 O 261.794 -0.274623 -1.74857 0
M  V30 2798 C 258.923 -0.831976 -3.33066 0
M  V30 2799 C 258.009 -1.95759 -3.76217 0
M  V30 2800 N 258.4 -3.20313 -3.9145 0
M  V30 2801 C 256.698 -1.85431 -4.05625 0
M  V30 2802 C 257.399 -3.93856 -4.2808 0
M  V30 2803 N 256.375 -3.21919 -4.38029 0
M  V30 2804 H 260.177 -2.08106 -2.07531 0
M  V30 2805 H 257.691 -1.21877 -1.0733 0
M  V30 2806 H 259.688 -0.692102 -4.11115 0
M  V30 2807 H 258.348 0.104588 -3.24532 0
M  V30 2808 H 259.359 -3.55583 -3.76538 0
M  V30 2809 H 256.036 -0.991531 -4.05555 0
M  V30 2810 H 257.426 -5.01125 -4.47575 0
M  V30 2811 N 260.146 1.09593 -1.13257 0
M  V30 2812 C 261.109 2.14359 -0.811358 0
M  V30 2813 C 262.109 1.59808 0.178377 0
M  V30 2814 O 263.299 1.74132 -0.0484911 0
M  V30 2815 C 260.431 3.40269 -0.207276 0
M  V30 2816 H 261.624 2.44284 -1.73969 0
M  V30 2817 H 259.177 1.25102 -0.936973 0
M  V30 2818 H 259.912 3.15969 0.73036 0
M  V30 2819 H 259.697 3.81154 -0.919992 0
M  V30 2820 H 261.187 4.176 0.000667944 0
M  V30 2821 N 261.624 0.925811 1.2754 0
M  V30 2822 C 262.87 0.566092 1.94739 0
M  V30 2823 C 263.203 -0.890057 1.72603 0
M  V30 2824 O 262.478 -1.63467 1.05399 0
M  V30 2825 C 262.761 0.89054 3.48915 0
M  V30 2826 C 262.614 2.4003 3.80402 0
M  V30 2827 C 263.933 0.395101 4.38323 0
M  V30 2828 H 261.052 0.20714 0.707292 0
M  V30 2829 H 263.694 1.15725 1.50691 0
M  V30 2830 H 261.844 0.387452 3.86563 0
M  V30 2831 H 263.516 2.97494 3.52555 0
M  V30 2832 H 261.759 2.85028 3.2702 0
M  V30 2833 H 262.43 2.57785 4.8811 0
M  V30 2834 H 264.906 0.826241 4.07814 0
M  V30 2835 H 263.782 0.651086 5.45025 0
M  V30 2836 H 264.043 -0.704798 4.36446 0
M  V30 2837 N 263.102 -1.41638 0.69111 0
M  V30 2838 C 264.348 -2.01598 0.220519 0
M  V30 2839 C 264.681 -1.54594 -1.17535 0
M  V30 2840 O 263.956 -0.755177 -1.79241 0
M  V30 2841 C 264.239 -3.59062 0.273243 0
M  V30 2842 C 264.092 -4.16203 1.70573 0
M  V30 2843 C 265.411 -4.38546 -0.369457 0
M  V30 2844 H 262.53 -0.732468 0.0816045 0
M  V30 2845 H 265.172 -1.68445 0.878986 0
M  V30 2846 H 263.322 -3.87435 -0.287411 0
M  V30 2847 H 264.994 -3.98722 2.31989 0
M  V30 2848 H 263.237 -3.71414 2.2413 0
M  V30 2849 H 263.908 -5.25358 1.69419 0
M  V30 2850 H 266.384 -4.1596 0.107977 0
M  V30 2851 H 265.26 -5.48069 -0.302002 0
M  V30 2852 H 265.521 -4.17662 -1.44951 0
M  V30 2853 N 264.58 -0.43555 -1.51462 0
M  V30 2854 C 265.805 0.132627 -2.06976 0
M  V30 2855 C 266.23 1.35848 -1.30104 0
M  V30 2856 O 265.588 1.78112 -0.338493 0
M  V30 2857 C 265.636 0.43523 -3.57964 0
M  V30 2858 O 264.74 1.52198 -3.83288 0
M  V30 2859 H 264.081 0.00265 -0.663995 0
M  V30 2860 H 266.611 -0.616369 -1.95095 0
M  V30 2861 H 266.621 0.686206 -4.02188 0
M  V30 2862 H 265.296 -0.460739 -4.1334 0
M  V30 2863 H 263.873 1.2611 -3.50928 0
M  V30 2864 N 266.058 1.56714 -0.166846 0
M  V30 2865 C 266.988 2.20754 0.760913 0
M  V30 2866 C 267.969 1.16178 1.24244 0
M  V30 2867 O 269.154 1.44592 1.29641 0
M  V30 2868 C 266.284 2.84478 1.99223 0
M  V30 2869 C 265.238 3.95053 1.64672 0
M  V30 2870 C 264.564 4.45805 2.95232 0
M  V30 2871 C 265.864 5.14865 0.878155 0
M  V30 2872 H 267.558 2.98537 0.22713 0
M  V30 2873 H 265.104 1.43596 0.107805 0
M  V30 2874 H 267.057 3.27951 2.64624 0
M  V30 2875 H 265.781 2.04056 2.55007 0
M  V30 2876 H 264.44 3.52228 1.01641 0
M  V30 2877 H 264.088 3.62181 3.49047 0
M  V30 2878 H 263.788 5.204 2.7287 0
M  V30 2879 H 265.312 4.91962 3.6167 0
M  V30 2880 H 266.726 5.55059 1.43466 0
M  V30 2881 H 265.123 5.95348 0.753738 0
M  V30 2882 H 266.193 4.84735 -0.126377 0
M  V30 2883 N 267.536 -0.106894 1.57237 0
M  V30 2884 C 268.952 -0.46078 1.52804 0
M  V30 2885 C 269.152 -1.81184 0.881746 0
M  V30 2886 O 268.208 -2.48102 0.469224 0
M  V30 2887 C 269.521 -0.434127 2.9755 0
M  V30 2888 C 271.069 -0.516821 3.08704 0
M  V30 2889 C 271.544 -0.520436 4.55033 0
M  V30 2890 N 273.035 -0.58153 4.59535 0
M  V30 2891 C 273.77 -0.605973 5.70189 0
M  V30 2892 N 273.266 -0.587331 6.90306 0
M  V30 2893 N 275.059 -0.649895 5.5833 0
M  V30 2894 H 267.21 0.778203 1.9763 0
M  V30 2895 H 269.473 0.288403 0.903066 0
M  V30 2896 H 269.179 0.491197 3.48253 0
M  V30 2897 H 269.053 -1.25748 3.55622 0
M  V30 2898 H 271.44 -1.43256 2.57995 0
M  V30 2899 H 271.521 0.334449 2.53604 0
M  V30 2900 H 271.165 0.391313 5.0639 0
M  V30 2901 H 271.095 -1.38876 5.07958 0
M  V30 2902 H 273.586 -0.60161 3.73081 0
M  V30 2903 H 273.899 -0.60894 7.70397 0
M  V30 2904 H 272.244 -0.554564 6.92784 0
M  V30 2905 H 275.435 -0.661907 4.63397 0
M  V30 2906 H 275.608 -0.665476 6.44574 0
M  V30 2907 N 269.014 -1.53014 -0.377408 0
M  V30 2908 C 270.291 -1.59215 -1.13622 0
M  V30 2909 C 270.671 -0.392407 -2.07421 0
M  V30 2910 O 270.019 0.618342 -2.19975 0
M  V30 2911 C 270.229 -2.93669 -1.88573 0
M  V30 2912 C 271.577 -3.47822 -2.43526 0
M  V30 2913 O 272.601 -2.9562 -1.98715 0
M  V30 2914 O 271.46 -4.39055 -3.25412 0
M  V30 2915 H 268.554 -0.642625 -0.52054 0
M  V30 2916 H 271.1 -1.65353 -0.381625 0
M  V30 2917 H 269.872 -3.7243 -1.20048 0
M  V30 2918 H 269.495 -2.90968 -2.70968 0
M  V30 2919 N 270.492 0.636531 -1.44174 0
M  V30 2920 C 271.74 1.39343 -1.46383 0
M  V30 2921 C 272.061 1.94766 -0.0955715 0
M  V30 2922 O 271.331 1.75452 0.871395 0
M  V30 2923 H 269.911 0.517199 -0.538994 0
M  V30 2924 H 272.573 0.74957 -1.7991 0
M  V30 2925 H 271.669 2.22746 -2.18611 0
M  V30 2926 N 271.97 1.30982 0.876444 0
M  V30 2927 C 273.386 1.09498 1.16113 0
M  V30 2928 C 273.586 -0.13875 2.01022 0
M  V30 2929 O 272.642 -0.829935 2.38471 0
M  V30 2930 C 273.955 2.36308 1.85954 0
M  V30 2931 C 275.503 2.41856 1.98683 0
M  V30 2932 C 275.978 3.6853 2.71937 0
M  V30 2933 N 277.469 3.69387 2.79477 0
M  V30 2934 C 278.204 4.64096 3.36753 0
M  V30 2935 N 277.7 5.69155 3.95012 0
M  V30 2936 N 279.493 4.51626 3.3465 0
M  V30 2937 H 271.644 2.10118 0.310494 0
M  V30 2938 H 273.907 0.926634 0.200131 0
M  V30 2939 H 273.613 3.26388 1.31011 0
M  V30 2940 H 273.487 2.4561 2.86278 0
M  V30 2941 H 275.874 1.52249 2.52793 0
M  V30 2942 H 275.955 2.36523 0.9742 0
M  V30 2943 H 275.599 4.58499 2.18496 0
M  V30 2944 H 275.529 3.71127 3.73593 0
M  V30 2945 H 278.02 2.93438 2.38123 0
M  V30 2946 H 278.333 6.3751 4.36808 0
M  V30 2947 H 276.678 5.72937 3.93406 0
M  V30 2948 H 279.869 3.68728 2.8837 0
M  V30 2949 H 280.042 5.25614 3.7899 0
M  V30 2950 N 273.449 -1.08991 1.13837 0
M  V30 2951 C 274.379 -2.17771 0.842507 0
M  V30 2952 C 275.36 -1.6892 -0.20001 0
M  V30 2953 O 276.545 -1.94113 -0.0579731 0
M  V30 2954 C 273.675 -3.4589 0.312644 0
M  V30 2955 C 272.629 -4.08099 1.28992 0
M  V30 2956 C 271.955 -5.31098 0.619623 0
M  V30 2957 C 273.255 -4.50077 2.65005 0
M  V30 2958 H 274.949 -2.42777 1.75213 0
M  V30 2959 H 272.495 -1.16682 0.843875 0
M  V30 2960 H 274.448 -4.21297 0.0933043 0
M  V30 2961 H 273.172 -3.20419 -0.632382 0
M  V30 2962 H 271.831 -3.34717 1.49533 0
M  V30 2963 H 271.479 -5.0191 -0.33102 0
M  V30 2964 H 271.179 -5.73674 1.27167 0
M  V30 2965 H 272.703 -6.09224 0.409669 0
M  V30 2966 H 274.117 -5.16688 2.48407 0
M  V30 2967 H 272.514 -5.03553 3.26427 0
M  V30 2968 H 273.584 -3.62257 3.22332 0
M  V30 2969 N 274.927 -0.932562 -1.27047 0
M  V30 2970 C 276.167 -0.582919 -1.95912 0
M  V30 2971 C 276.531 0.860629 -1.71631 0
M  V30 2972 O 277.732 1.31878 -2.34225 0
M  V30 2973 C 276.003 -0.905673 -3.45734 0
M  V30 2974 S 277.562 -0.665277 -4.33727 0
M  V30 2975 H 274.38 -0.215 -0.677714 0
M  V30 2976 H 276.982 -1.20204 -1.54179 0
M  V30 2977 H 275.686 -1.95386 -3.60905 0
M  V30 2978 H 275.217 -0.275939 -3.92431 0
M  V30 2979 H 277.232 0.474635 -4.93925 0
M  V30 2980 N 276.405 1.4127 -0.698611 0
M  V30 2981 C 277.335 2.33447 -0.049629 0
M  V30 2982 C 278.316 1.51982 0.763898 0
M  V30 2983 O 279.501 1.80509 0.716257 0
M  V30 2984 C 276.631 3.35828 0.885267 0
M  V30 2985 C 275.585 4.27627 0.178613 0
M  V30 2986 C 274.911 5.20406 1.22807 0
M  V30 2987 C 276.211 5.13459 -0.956933 0
M  V30 2988 H 277.905 2.87966 -0.81951 0
M  V30 2989 H 275.451 1.38461 -0.395538 0
M  V30 2990 H 277.404 3.9924 1.34854 0
M  V30 2991 H 276.128 2.79666 1.68685 0
M  V30 2992 H 274.787 3.65643 -0.26466 0
M  V30 2993 H 274.435 4.60558 2.02226 0
M  V30 2994 H 274.135 5.82661 0.760239 0
M  V30 2995 H 275.659 5.86695 1.69179 0
M  V30 2996 H 277.073 5.70421 -0.573805 0
M  V30 2997 H 275.47 5.8467 -1.35205 0
M  V30 2998 H 276.54 4.50443 -1.79524 0
M  V30 2999 N 277.883 0.443576 1.51229 0
M  V30 3000 C 278.816 -0.410089 2.24485 0
M  V30 3001 C 279.794 -1.01949 1.26669 0
M  V30 3002 O 280.978 -1.06075 1.55821 0
M  V30 3003 C 278.105 -1.57211 3.00004 0
M  V30 3004 C 277.151 -1.08279 4.12526 0
M  V30 3005 S 277.984 -0.0197476 5.35496 0
M  V30 3006 C 279.14 -1.18629 6.14555 0
M  V30 3007 H 279.373 0.211832 2.96544 0
M  V30 3008 H 276.906 0.228156 1.52705 0
M  V30 3009 H 278.864 -2.23825 3.44111 0
M  V30 3010 H 277.525 -2.16547 2.27522 0
M  V30 3011 H 276.718 -1.95193 4.64667 0
M  V30 3012 H 276.32 -0.494797 3.70713 0
M  V30 3013 H 278.612 -2.10344 6.4402 0
M  V30 3014 H 279.555 -0.70472 7.04584 0
M  V30 3015 H 279.963 -1.42768 5.46148 0
M  V30 3016 N 279.361 -1.56624 0.175154 0
M  V30 3017 C 280.608 -1.96999 -0.468811 0
M  V30 3018 C 280.936 -1.06129 -1.62994 0
M  V30 3019 O 280.191 -0.0961771 -1.95464 0
M  V30 3020 C 280.49 -3.43419 -0.989864 0
M  V30 3021 C 280.156 -4.50866 0.0557687 0
M  V30 3022 C 278.818 -4.79975 0.343134 0
M  V30 3023 C 281.17 -5.15551 0.765308 0
M  V30 3024 C 278.498 -5.71066 1.34536 0
M  V30 3025 C 280.85 -6.07724 1.75654 0
M  V30 3026 C 279.514 -6.35199 2.05132 0
M  V30 3027 H 278.784 -0.720869 -0.17155 0
M  V30 3028 H 281.431 -1.89616 0.267924 0
M  V30 3029 H 279.736 -3.47772 -1.80449 0
M  V30 3030 H 281.433 -3.72002 -1.49719 0
M  V30 3031 H 278.023 -4.28229 -0.178381 0
M  V30 3032 H 282.207 -4.9317 0.556513 0
M  V30 3033 H 277.463 -5.90635 1.57988 0
M  V30 3034 H 281.637 -6.56912 2.31169 0
M  V30 3035 H 279.264 -7.05584 2.8294 0
M  V30 3036 N 280.839 0.0985539 -1.57292 0
M  V30 3037 C 282.255 0.45267 -1.53046 0
M  V30 3038 C 282.455 1.80713 -0.891342 0
M  V30 3039 O 281.511 2.4785 -0.482375 0
M  V30 3040 C 282.824 0.418341 -2.97776 0
M  V30 3041 C 284.372 0.500443 -3.08973 0
M  V30 3042 C 284.847 0.496297 -4.55303 0
M  V30 3043 N 286.338 0.557151 -4.59837 0
M  V30 3044 C 287.073 0.575726 -5.70502 0
M  V30 3045 N 286.569 0.550714 -6.90608 0
M  V30 3046 N 288.362 0.620277 -5.58667 0
M  V30 3047 H 280.513 -0.788673 -1.97215 0
M  V30 3048 H 282.776 -0.293188 -0.901524 0
M  V30 3049 H 282.482 -0.509659 -3.47988 0
M  V30 3050 H 282.356 1.2386 -3.56284 0
M  V30 3051 H 284.743 1.41886 -2.58751 0
M  V30 3052 H 284.824 -0.347894 -2.53423 0
M  V30 3053 H 284.468 -0.418162 -5.06176 0
M  V30 3054 H 284.398 1.3618 -5.08687 0
M  V30 3055 H 286.889 0.581816 -3.73394 0
M  V30 3056 H 287.202 0.568075 -7.70709 0
M  V30 3057 H 285.547 0.517816 -6.93068 0
M  V30 3058 H 288.738 0.637322 -4.63741 0
M  V30 3059 H 288.911 0.631283 -6.44918 0
M  V30 3060 N 282.317 1.53212 0.369288 0
M  V30 3061 C 283.563 1.69466 1.11397 0
M  V30 3062 C 283.896 0.443257 1.89074 0
M  V30 3063 O 283.171 -0.559386 1.86282 0
M  V30 3064 C 283.454 2.9422 2.07621 0
M  V30 3065 C 283.307 4.29508 1.33577 0
M  V30 3066 C 284.626 3.14565 3.07794 0
M  V30 3067 H 281.745 0.616667 0.403597 0
M  V30 3068 H 284.387 1.85845 0.395179 0
M  V30 3069 H 282.537 2.80387 2.68916 0
M  V30 3070 H 284.209 4.55147 0.750955 0
M  V30 3071 H 282.452 4.29088 0.637618 0
M  V30 3072 H 283.123 5.12926 2.03989 0
M  V30 3073 H 285.599 3.2756 2.56601 0
M  V30 3074 H 284.475 4.03297 3.72348 0
M  V30 3075 H 284.736 2.29675 3.77759 0
M  V30 3076 N 283.795 -0.628877 1.44509 0
M  V30 3077 C 285.043 -1.38565 1.4712 0
M  V30 3078 C 285.364 -1.94712 0.105899 0
M  V30 3079 O 284.634 -1.75912 -0.862079 0
M  V30 3080 H 283.214 -0.514333 0.541729 0
M  V30 3081 H 285.876 -0.740018 1.80305 0
M  V30 3082 H 284.972 -2.21583 2.19789 0
M  V30 3083 N 285.273 -1.31445 -0.869486 0
M  V30 3084 C 286.55 -1.11795 -1.60503 0
M  V30 3085 C 286.93 0.327168 -2.08549 0
M  V30 3086 O 286.278 1.32135 -1.8642 0
M  V30 3087 C 286.488 -2.13258 -2.76265 0
M  V30 3088 C 287.836 -2.45805 -3.46215 0
M  V30 3089 O 288.86 -2.11688 -2.86473 0
M  V30 3090 O 287.719 -3.04228 -4.5399 0
M  V30 3091 H 284.813 -0.430421 -0.706163 0
M  V30 3092 H 287.359 -1.42925 -0.914907 0
M  V30 3093 H 286.131 -3.10461 -2.3818 0
M  V30 3094 H 285.754 -1.83035 -3.52964 0
M  V30 3095 N 286.751 1.08385 -1.14413 0
M  V30 3096 C 287.681 2.17321 -0.854044 0
M  V30 3097 C 288.662 1.69024 0.191049 0
M  V30 3098 O 289.847 1.94141 0.0476779 0
M  V30 3099 C 286.977 3.45719 -0.330983 0
M  V30 3100 C 285.931 4.07409 -1.31155 0
M  V30 3101 C 285.257 5.30762 -0.64778 0
M  V30 3102 C 286.557 4.48665 -2.67388 0
M  V30 3103 H 288.251 2.41845 -1.76498 0
M  V30 3104 H 285.797 1.16233 -0.850051 0
M  V30 3105 H 287.75 4.21241 -0.115645 0
M  V30 3106 H 286.474 3.2075 0.615381 0
M  V30 3107 H 285.133 3.33919 -1.51306 0
M  V30 3108 H 284.781 5.02078 0.304398 0
M  V30 3109 H 284.481 5.72992 -1.30207 0
M  V30 3110 H 286.005 6.08998 -0.441972 0
M  V30 3111 H 287.419 5.15364 -2.51143 0
M  V30 3112 H 285.816 5.01814 -3.29093 0
M  V30 3113 H 286.886 3.60543 -3.24248 0
M  V30 3114 N 288.23 0.939286 1.26551 0
M  V30 3115 C 289.646 0.641304 1.46149 0
M  V30 3116 C 289.846 -0.805964 1.84679 0
M  V30 3117 O 288.902 -1.58278 1.96734 0
M  V30 3118 C 290.215 1.6011 2.54529 0
M  V30 3119 C 291.763 1.6106 2.68382 0
M  V30 3120 C 292.238 2.55765 3.79932 0
M  V30 3121 N 293.729 2.5404 3.87322 0
M  V30 3122 C 294.464 3.24004 4.73085 0
M  V30 3123 N 293.96 4.03388 5.63249 0
M  V30 3124 N 295.753 3.12965 4.66914 0
M  V30 3125 H 287.904 1.87478 0.998285 0
M  V30 3126 H 290.167 0.805559 0.499779 0
M  V30 3127 H 289.873 2.63412 2.33039 0
M  V30 3128 H 289.747 1.35171 3.52149 0
M  V30 3129 H 292.134 0.584835 2.89247 0
M  V30 3130 H 292.215 1.90053 1.71212 0
M  V30 3131 H 291.859 3.58458 3.5982 0
M  V30 3132 H 291.789 2.24063 4.76554 0
M  V30 3133 H 294.28 1.96396 3.22858 0
M  V30 3134 H 294.593 4.5373 6.25579 0
M  V30 3135 H 292.938 4.07489 5.63008 0
M  V30 3136 H 296.129 2.50432 3.95476 0
M  V30 3137 H 296.302 3.67759 5.33533 0
M  V30 3138 N 289.708 -1.40897 0.706093 0
M  V30 3139 C 290.933 -2.05895 0.249435 0
M  V30 3140 C 291.358 -1.52823 -1.09666 0
M  V30 3141 O 290.716 -0.659589 -1.68876 0
M  V30 3142 C 290.764 -3.59872 0.22904 0
M  V30 3143 O 289.868 -4.04708 -0.792784 0
M  V30 3144 H 289.209 -0.653206 0.119241 0
M  V30 3145 H 291.739 -1.80471 0.96391 0
M  V30 3146 H 291.749 -4.07951 0.0634791 0
M  V30 3147 H 290.424 -3.97866 1.21141 0
M  V30 3148 H 289.001 -3.68111 -0.59572 0
M  V30 3149 N 291.186 -0.45159 -1.50991 0
M  V30 3150 C 292.411 0.110667 -2.07105 0
M  V30 3151 C 292.836 1.3446 -1.31538 0
M  V30 3152 O 292.194 1.77743 -0.357365 0
M  V30 3153 C 292.242 0.397238 -3.58405 0
M  V30 3154 O 291.346 1.48124 -3.84881 0
M  V30 3155 H 290.687 -0.00439271 -0.663985 0
M  V30 3156 H 293.217 -0.637026 -1.9443 0
M  V30 3157 H 293.227 0.64351 -4.02893 0
M  V30 3158 H 291.902 -0.504553 -4.12828 0
M  V30 3159 H 290.479 1.22381 -3.52246 0
M  V30 3160 N 292.664 1.56529 -0.183458 0
M  V30 3161 C 293.614 2.1515 0.754605 0
M  V30 3162 C 294.598 1.08904 1.18443 0
M  V30 3163 O 295.79 1.34997 1.14476 0
M  V30 3164 C 292.919 2.80531 1.97881 0
M  V30 3165 C 292.005 3.93952 1.57043 0
M  V30 3166 N 292.396 4.98221 0.87231 0
M  V30 3167 C 290.694 4.05338 1.86057 0
M  V30 3168 C 291.395 5.77836 0.669377 0
M  V30 3169 N 290.371 5.29858 1.21454 0
M  V30 3170 H 294.173 2.93132 0.212387 0
M  V30 3171 H 291.687 1.62391 0.0167725 0
M  V30 3172 H 293.684 3.20914 2.6612 0
M  V30 3173 H 292.344 2.04035 2.52586 0
M  V30 3174 H 293.355 5.15191 0.529033 0
M  V30 3175 H 290.032 3.39957 2.42354 0
M  V30 3176 H 291.422 6.71799 0.116422 0
M  V30 3177 N 294.142 -0.090211 1.57342 0
M  V30 3178 C 295.391 -0.791531 1.8552 0
M  V30 3179 C 295.704 -1.79659 0.773441 0
M  V30 3180 O 296.91 -2.54616 0.942497 0
M  V30 3181 C 295.366 -1.45856 3.2902 0
M  V30 3182 C 294.974 -0.493017 4.45279 0
M  V30 3183 C 296.718 -2.14332 3.66418 0
M  V30 3184 C 294.625 -1.16491 5.79814 0
M  V30 3185 H 293.555 -0.299356 0.692027 0
M  V30 3186 H 296.206 -0.0445343 1.83446 0
M  V30 3187 H 294.588 -2.25318 3.2565 0
M  V30 3188 H 295.762 0.270464 4.60006 0
M  V30 3189 H 294.077 0.0863061 4.16311 0
M  V30 3190 H 296.674 -2.65344 4.64216 0
M  V30 3191 H 297.017 -2.93447 2.95287 0
M  V30 3192 H 297.55 -1.41724 3.71698 0
M  V30 3193 H 294.289 -0.41447 6.54188 0
M  V30 3194 H 293.809 -1.8997 5.68921 0
M  V30 3195 H 295.488 -1.69001 6.24538 0
M  V30 3196 N 295.62 -1.53406 -0.361157 0
M  V30 3197 C 296.866 -1.70054 -1.10496 0
M  V30 3198 C 297.199 -0.453278 -1.88836 0
M  V30 3199 O 296.474 0.5495 -1.86576 0
M  V30 3200 C 296.757 -2.95317 -2.06058 0
M  V30 3201 C 296.61 -4.3021 -1.31298 0
M  V30 3202 C 297.929 -3.16193 -3.06121 0
M  V30 3203 H 295.048 -0.618799 -0.400321 0
M  V30 3204 H 297.69 -1.86052 -0.385318 0
M  V30 3205 H 295.84 -2.81809 -2.67425 0
M  V30 3206 H 297.512 -4.55538 -0.726807 0
M  V30 3207 H 295.755 -4.29421 -0.614853 0
M  V30 3208 H 296.426 -5.14 -2.01265 0
M  V30 3209 H 298.902 -3.28916 -2.5486 0
M  V30 3210 H 297.778 -4.05266 -3.70204 0
M  V30 3211 H 298.039 -2.31676 -3.76535 0
M  V30 3212 N 297.098 0.621204 -1.44841 0
M  V30 3213 C 298.008 1.7612 -1.5498 0
M  V30 3214 C 299.024 1.68477 -0.434927 0
M  V30 3215 O 300.2 1.89076 -0.693693 0
M  V30 3216 C 297.265 3.1254 -1.50065 0
M  V30 3217 C 296.326 3.31741 -2.72482 0
M  V30 3218 C 295.559 4.61653 -2.67792 0
M  V30 3219 O 295.782 5.431 -1.74352 0
M  V30 3220 O 294.716 4.83271 -3.58794 0
M  V30 3221 H 298.542 1.70518 -2.51311 0
M  V30 3222 H 296.127 0.783643 -1.27198 0
M  V30 3223 H 298.009 3.93844 -1.49882 0
M  V30 3224 H 296.684 3.18663 -0.568806 0
M  V30 3225 H 295.591 2.50077 -2.7823 0
M  V30 3226 H 296.924 3.30486 -3.64746 0
M  V30 3227 N 298.576 1.31904 0.862503 0
M  V30 3228 C 299.539 1.20131 1.95195 0
M  V30 3229 C 300.539 0.126409 1.60302 0
M  V30 3230 O 301.729 0.376234 1.70089 0
M  V30 3231 C 298.861 0.845691 3.30244 0
M  V30 3232 H 300.054 2.16943 2.07064 0
M  V30 3233 H 297.607 1.15622 1.05172 0
M  V30 3234 H 298.342 -0.120957 3.24074 0
M  V30 3235 H 298.127 1.62276 3.56944 0
M  V30 3236 H 299.617 0.787418 4.10109 0
M  V30 3237 N 300.054 -1.07777 1.14986 0
M  V30 3238 C 301.279 -1.84558 0.946213 0
M  V30 3239 C 301.704 -1.81323 -0.500362 0
M  V30 3240 O 301.062 -1.20301 -1.35637 0
M  V30 3241 C 301.11 -3.29736 1.45968 0
M  V30 3242 O 300.214 -4.07149 0.65601 0
M  V30 3243 H 299.555 -0.571641 0.33782 0
M  V30 3244 H 302.085 -1.35991 1.52865 0
M  V30 3245 H 302.095 -3.80574 1.47063 0
M  V30 3246 H 300.77 -3.31406 2.51283 0
M  V30 3247 H 299.347 -3.65994 0.714322 0
M  V30 3248 N 301.532 -0.945985 -1.26051 0
M  V30 3249 C 302.781 -0.591836 -1.92822 0
M  V30 3250 C 303.094 0.873956 -1.7499 0
M  V30 3251 O 304.3 1.33769 -2.36259 0
M  V30 3252 C 302.756 -1.00776 -3.45503 0
M  V30 3253 C 302.364 -2.4955 -3.7206 0
M  V30 3254 C 304.108 -0.725735 -4.1825 0
M  V30 3255 C 302.015 -2.84988 -5.18205 0
M  V30 3256 H 300.945 -0.217635 -0.721908 0
M  V30 3257 H 303.596 -1.14927 -1.43052 0
M  V30 3258 H 301.978 -0.378812 -3.94184 0
M  V30 3259 H 303.152 -3.1739 -3.34066 0
M  V30 3260 H 301.467 -2.75133 -3.12555 0
M  V30 3261 H 304.064 -0.966771 -5.25887 0
M  V30 3262 H 304.407 0.337639 -4.14929 0
M  V30 3263 H 304.94 -1.31463 -3.7545 0
M  V30 3264 H 301.679 -3.90307 -5.26631 0
M  V30 3265 H 301.199 -2.21813 -5.57278 0
M  V30 3266 H 302.878 -2.73712 -5.86252 0
M  V30 3267 N 303.011 1.40521 -0.713556 0
M  V30 3268 C 304.427 1.54839 -0.386907 0
M  V30 3269 C 304.627 1.68532 1.1045 0
M  V30 3270 O 303.683 1.67377 1.89053 0
M  V30 3271 C 304.996 2.77792 -1.15118 0
M  V30 3272 C 306.544 2.91607 -1.13729 0
M  V30 3273 C 307.019 4.1747 -1.88368 0
M  V30 3274 N 308.51 4.24466 -1.85427 0
M  V30 3275 C 309.245 5.20755 -2.40004 0
M  V30 3276 N 308.741 6.22965 -3.03129 0
M  V30 3277 N 310.534 5.1282 -2.30158 0
M  V30 3278 H 302.685 1.29879 -1.68063 0
M  V30 3279 H 304.948 0.627896 -0.710247 0
M  V30 3280 H 304.654 2.73944 -2.20561 0
M  V30 3281 H 304.528 3.6984 -0.741477 0
M  V30 3282 H 306.915 2.94959 -0.0910608 0
M  V30 3283 H 306.996 2.00682 -1.5862 0
M  V30 3284 H 306.64 4.1488 -2.9298 0
M  V30 3285 H 306.57 5.074 -1.40898 0
M  V30 3286 H 309.061 3.51241 -1.3942 0
M  V30 3287 H 309.374 6.92859 -3.42295 0
M  V30 3288 H 307.719 6.23415 -3.07212 0
M  V30 3289 H 310.91 4.31899 -1.80501 0
M  V30 3290 H 311.083 5.87689 -2.72993 0
M  V30 3291 N 304.489 0.459591 1.5075 0
M  V30 3292 C 305.452 -0.329093 2.26825 0
M  V30 3293 C 306.452 -0.930481 1.31144 0
M  V30 3294 O 307.642 -0.801453 1.54669 0
M  V30 3295 C 304.774 -1.46768 3.07688 0
M  V30 3296 H 305.967 0.337924 2.9799 0
M  V30 3297 H 303.52 0.213336 1.54837 0
M  V30 3298 H 304.255 -2.17009 2.40993 0
M  V30 3299 H 304.04 -1.04238 3.77991 0
M  V30 3300 H 305.53 -2.02433 3.65254 0
M  V30 3301 N 305.967 -1.56429 0.191757 0
M  V30 3302 C 306.914 -2.18936 -0.730454 0
M  V30 3303 C 307.884 -1.13557 -1.21219 0
M  V30 3304 O 309.069 -1.41794 -1.27668 0
M  V30 3305 C 306.209 -2.85013 -1.9458 0
M  V30 3306 C 305.322 -4.04909 -1.50574 0
M  V30 3307 C 304.457 -4.58853 -2.67634 0
M  V30 3308 C 303.496 -5.71114 -2.20217 0
M  V30 3309 N 302.633 -6.19478 -3.30442 0
M  V30 3310 H 307.473 -2.97389 -0.190664 0
M  V30 3311 H 305.01 -1.46869 -0.0823694 0
M  V30 3312 H 306.968 -3.21492 -2.65893 0
M  V30 3313 H 305.598 -2.09129 -2.45896 0
M  V30 3314 H 304.65 -3.74115 -0.688605 0
M  V30 3315 H 305.962 -4.86113 -1.11784 0
M  V30 3316 H 305.116 -4.97619 -3.47074 0
M  V30 3317 H 303.855 -3.76749 -3.09696 0
M  V30 3318 H 302.86 -5.31879 -1.3923 0
M  V30 3319 H 304.085 -6.55033 -1.79189 0
M  V30 3320 H 302.031 -5.40297 -3.72041 0
M  V30 3321 H 301.948 -6.95725 -2.9581 0
M  V30 3322 H 303.216 -6.62898 -4.10106 0
M  V30 3323 N 307.445 0.0818655 -1.57387 0
M  V30 3324 C 308.375 1.09885 -2.06028 0
M  V30 3325 C 309.356 1.4098 -0.951774 0
M  V30 3326 O 310.541 1.50781 -1.22387 0
M  V30 3327 C 307.671 2.4151 -2.4958 0
M  V30 3328 C 306.625 2.24792 -3.64215 0
M  V30 3329 C 305.951 3.61712 -3.93787 0
M  V30 3330 C 307.251 1.67749 -4.94629 0
M  V30 3331 H 308.945 0.694128 -2.91243 0
M  V30 3332 H 306.491 0.332448 -1.4011 0
M  V30 3333 H 308.444 3.12939 -2.82219 0
M  V30 3334 H 307.168 2.83943 -1.61381 0
M  V30 3335 H 305.827 1.55807 -3.31843 0
M  V30 3336 H 305.475 4.01697 -3.02735 0
M  V30 3337 H 305.175 3.51368 -4.70971 0
M  V30 3338 H 306.699 4.34587 -4.28913 0
M  V30 3339 H 308.113 2.29032 -5.25564 0
M  V30 3340 H 306.51 1.68128 -5.76067 0
M  V30 3341 H 307.58 0.638059 -4.80684 0
M  V30 3342 N 308.923 1.53595 0.353017 0
M  V30 3343 C 310.172 1.69603 1.09168 0
M  V30 3344 C 310.485 0.460925 1.90092 0
M  V30 3345 O 311.691 0.501774 2.66823 0
M  V30 3346 C 310.147 2.99872 1.9901 0
M  V30 3347 C 309.755 4.30687 1.23339 0
M  V30 3348 C 311.499 3.25246 2.72792 0
M  V30 3349 C 309.406 5.52036 2.12156 0
M  V30 3350 H 308.336 0.631966 0.411261 0
M  V30 3351 H 310.987 1.80096 0.351802 0
M  V30 3352 H 309.369 2.83212 2.7678 0
M  V30 3353 H 310.543 4.58019 0.505456 0
M  V30 3354 H 308.858 4.11853 0.613663 0
M  V30 3355 H 311.455 4.13095 3.39495 0
M  V30 3356 H 311.798 2.41846 3.38846 0
M  V30 3357 H 312.331 3.42638 2.021 0
M  V30 3358 H 309.07 6.37951 1.50659 0
M  V30 3359 H 308.59 5.28966 2.82764 0
M  V30 3360 H 310.269 5.87313 2.71427 0
M  V30 3361 N 310.401 -0.613514 1.45168 0
M  V30 3362 C 311.817 -0.933629 1.29443 0
M  V30 3363 C 312.017 -2.00028 0.243101 0
M  V30 3364 O 311.073 -2.49848 -0.364992 0
M  V30 3365 C 312.386 -1.38018 2.67155 0
M  V30 3366 C 313.934 -1.49471 2.75004 0
M  V30 3367 C 314.409 -1.97503 4.13227 0
M  V30 3368 N 315.9 -2.04746 4.15491 0
M  V30 3369 C 316.635 -2.43121 5.19307 0
M  V30 3370 N 316.131 -2.80506 6.33473 0
M  V30 3371 N 317.924 -2.43408 5.06664 0
M  V30 3372 H 310.075 0.0916097 2.12202 0
M  V30 3373 H 312.338 -0.0216655 0.947752 0
M  V30 3374 H 312.044 -0.670625 3.45247 0
M  V30 3375 H 311.918 -2.34784 2.95222 0
M  V30 3376 H 314.305 -2.19519 1.9722 0
M  V30 3377 H 314.386 -0.510342 2.50657 0
M  V30 3378 H 314.03 -1.28045 4.91495 0
M  V30 3379 H 313.96 -2.96843 4.34962 0
M  V30 3380 H 316.451 -1.78468 3.33103 0
M  V30 3381 H 316.764 -3.08652 7.08487 0
M  V30 3382 H 315.109 -2.78216 6.36884 0
M  V30 3383 H 318.3 -2.13604 4.16523 0
M  V30 3384 H 318.473 -2.72989 5.87691 0
M  V30 3385 N 311.879 -1.3236 -0.855495 0
M  V30 3386 C 313.104 -1.2601 -1.64731 0
M  V30 3387 C 313.529 0.169068 -1.87339 0
M  V30 3388 O 312.887 1.12016 -1.42556 0
M  V30 3389 C 312.935 -2.02417 -2.98429 0
M  V30 3390 O 312.039 -1.3714 -3.8893 0
M  V30 3391 H 311.38 -0.434325 -0.502253 0
M  V30 3392 H 313.91 -1.74661 -1.06558 0
M  V30 3393 H 313.92 -2.12559 -3.48257 0
M  V30 3394 H 312.595 -3.06343 -2.81295 0
M  V30 3395 H 311.172 -1.3554 -3.47395 0
M  V30 3396 N 313.357 1.07166 -1.15556 0
M  V30 3397 C 314.773 1.31899 -0.898603 0
M  V30 3398 C 314.973 1.96333 0.453383 0
M  V30 3399 O 314.029 2.22438 1.19489 0
M  V30 3400 C 315.342 2.20826 -2.04099 0
M  V30 3401 C 316.89 2.34269 -2.07574 0
M  V30 3402 C 317.365 3.26546 -3.21141 0
M  V30 3403 N 318.856 3.34127 -3.20801 0
M  V30 3404 C 319.591 4.05595 -4.05315 0
M  V30 3405 N 319.087 4.79661 -4.99897 0
M  V30 3406 N 320.88 4.01555 -3.93332 0
M  V30 3407 H 313.031 0.637302 -2.02613 0
M  V30 3408 H 315.294 0.343468 -0.883591 0
M  V30 3409 H 315 1.80744 -3.01703 0
M  V30 3410 H 314.874 3.21364 -1.97496 0
M  V30 3411 H 317.261 2.73603 -1.10568 0
M  V30 3412 H 317.342 1.33429 -2.18244 0
M  V30 3413 H 316.986 2.87931 -4.184 0
M  V30 3414 H 316.916 4.27345 -3.07708 0
M  V30 3415 H 319.407 2.81336 -2.52306 0
M  V30 3416 H 319.72 5.31694 -5.60822 0
M  V30 3417 H 318.065 4.78671 -5.03884 0
M  V30 3418 H 321.256 3.42806 -3.18751 0
M  V30 3419 H 321.429 4.56987 -4.5942 0
M  V30 3420 N 314.835 0.952656 1.25548 0
M  V30 3421 C 315.767 0.428609 2.25157 0
M  V30 3422 C 316.78 -0.454428 1.56329 0
M  V30 3423 O 317.969 -0.263023 1.76552 0
M  V30 3424 C 315.069 -0.401972 3.36508 0
M  V30 3425 C 314.242 0.467601 4.34893 0
M  V30 3426 C 313.301 -0.30445 5.25319 0
M  V30 3427 O 312.327 0.296473 5.68427 0
M  V30 3428 N 313.529 -1.59805 5.5807 0
M  V30 3429 H 316.294 1.28497 2.70756 0
M  V30 3430 H 313.855 0.822798 1.39433 0
M  V30 3431 H 315.847 -0.926134 3.9396 0
M  V30 3432 H 314.417 -1.15918 2.90313 0
M  V30 3433 H 313.637 1.17288 3.76347 0
M  V30 3434 H 314.925 1.06119 4.97611 0
M  V30 3435 H 314.323 -2.10823 5.24948 0
M  V30 3436 H 312.88 -2.06822 6.18116 0
M  V30 3437 N 316.313 -1.40141 0.720998 0
M  V30 3438 C 317.541 -2.05096 0.272656 0
M  V30 3439 C 317.956 -1.54334 -1.0875 0
M  V30 3440 O 317.313 -0.702211 -1.6845 0
M  V30 3441 C 317.364 -3.60636 0.249835 0
M  V30 3442 O 317.085 -4.09526 1.55629 0
M  V30 3443 C 318.586 -4.42772 -0.216396 0
M  V30 3444 H 315.806 -0.659897 0.121558 0
M  V30 3445 H 318.35 -1.79449 0.980723 0
M  V30 3446 H 316.505 -3.85232 -0.409237 0
M  V30 3447 H 316.919 -5.03758 1.4604 0
M  V30 3448 H 318.393 -5.51702 -0.181212 0
M  V30 3449 H 318.87 -4.20756 -1.25941 0
M  V30 3450 H 319.476 -4.23294 0.412596 0
M  V30 3451 N 317.792 -0.46758 -1.50504 0
M  V30 3452 C 318.722 0.318381 -2.31319 0
M  V30 3453 C 319.703 0.993564 -1.38066 0
M  V30 3454 O 320.888 0.991411 -1.66987 0
M  V30 3455 C 318.018 1.40275 -3.17711 0
M  V30 3456 C 316.972 0.849373 -4.19487 0
M  V30 3457 C 316.298 2.03177 -4.94594 0
M  V30 3458 C 317.598 -0.136942 -5.2212 0
M  V30 3459 H 319.292 -0.356106 -2.97275 0
M  V30 3460 H 316.838 -0.172703 -1.42961 0
M  V30 3461 H 318.791 1.96004 -3.73042 0
M  V30 3462 H 317.515 2.10596 -2.49634 0
M  V30 3463 H 316.174 0.314076 -3.65252 0
M  V30 3464 H 315.822 2.72187 -4.22993 0
M  V30 3465 H 315.522 1.66774 -5.63436 0
M  V30 3466 H 317.046 2.59403 -5.52759 0
M  V30 3467 H 318.46 0.331056 -5.72343 0
M  V30 3468 H 316.857 -0.41507 -5.98663 0
M  V30 3469 H 317.927 -1.06398 -4.73083 0
M  V30 3470 N 319.27 1.56325 -0.20005 0
M  V30 3471 C 320.18 2.22931 0.730668 0
M  V30 3472 C 321.196 1.22997 1.23076 0
M  V30 3473 O 322.372 1.55748 1.27689 0
M  V30 3474 C 319.437 2.87948 1.93098 0
M  V30 3475 C 318.498 4.03166 1.47497 0
M  V30 3476 C 317.731 4.65073 2.61807 0
M  V30 3477 O 317.954 4.25913 3.79413 0
M  V30 3478 O 316.888 5.54452 2.34237 0
M  V30 3479 H 320.714 3.03084 0.193391 0
M  V30 3480 H 318.299 1.49371 0.0294621 0
M  V30 3481 H 320.181 3.29063 2.6324 0
M  V30 3482 H 318.856 2.10771 2.45677 0
M  V30 3483 H 317.763 3.66664 0.742201 0
M  V30 3484 H 319.096 4.82022 0.995796 0
M  V30 3485 N 320.748 -0.0735177 1.57428 0
M  V30 3486 C 321.996 -0.771472 1.86796 0
M  V30 3487 C 322.317 -1.78201 0.791804 0
M  V30 3488 O 321.587 -1.95074 -0.179718 0
M  V30 3489 H 320.167 -0.28791 0.689287 0
M  V30 3490 H 322.829 -0.0500161 1.94836 0
M  V30 3491 H 321.925 -1.28874 2.8425 0
M  V30 3492 N 322.226 -1.5378 -0.344866 0
M  V30 3493 C 323.136 -1.84667 -1.4469 0
M  V30 3494 C 324.152 -0.736704 -1.57635 0
M  V30 3495 O 325.328 -1.02888 -1.73136 0
M  V30 3496 C 322.393 -2.04869 -2.79696 0
M  V30 3497 C 321.454 -3.28731 -2.76106 0
M  V30 3498 C 320.687 -3.4796 -4.04673 0
M  V30 3499 O 320.91 -2.71052 -5.01883 0
M  V30 3500 O 319.844 -4.41383 -4.09224 0
M  V30 3501 H 323.67 -2.78334 -1.21506 0
M  V30 3502 H 321.255 -1.39418 -0.536921 0
M  V30 3503 H 323.137 -2.19609 -3.59652 0
M  V30 3504 H 321.812 -1.14391 -3.02814 0
M  V30 3505 H 320.719 -3.19396 -1.94774 0
M  V30 3506 H 322.052 -4.19198 -2.57941 0
M  V30 3507 N 323.704 0.605807 -1.45491 0
M  V30 3508 C 324.951 1.36476 -1.49601 0
M  V30 3509 C 325.279 1.94007 -0.138452 0
M  V30 3510 O 324.534 1.75638 0.863114 0
M  V30 3511 C 324.833 2.53012 -2.52428 0
M  V30 3512 C 324.499 2.13617 -3.97087 0
M  V30 3513 C 323.161 2.02587 -4.36477 0
M  V30 3514 C 325.513 1.82899 -4.88055 0
M  V30 3515 C 322.841 1.59064 -5.64726 0
M  V30 3516 C 325.193 1.40861 -6.16718 0
M  V30 3517 C 323.857 1.28391 -6.55036 0
M  V30 3518 H 323.127 0.499402 -0.547429 0
M  V30 3519 H 325.774 0.684546 -1.78847 0
M  V30 3520 H 324.079 3.26379 -2.16758 0
M  V30 3521 H 325.776 3.1124 -2.52845 0
M  V30 3522 H 322.366 2.23129 -3.65939 0
M  V30 3523 H 326.55 1.90317 -4.58359 0
M  V30 3524 H 321.806 1.48034 -5.93208 0
M  V30 3525 H 325.98 1.16138 -6.86648 0
M  V30 3526 H 323.607 0.944403 -7.54311 0
M  V30 3527 N 325.182 1.32811 0.848464 0
M  V30 3528 C 326.431 1.23075 1.59798 0
M  V30 3529 C 326.744 -0.204419 1.94529 0
M  V30 3530 O 327.95 -0.423701 2.68173 0
M  V30 3531 C 326.406 2.15594 2.88179 0
M  V30 3532 C 326.014 3.64228 2.60849 0
M  V30 3533 C 327.758 2.14709 3.66197 0
M  V30 3534 C 325.665 4.48689 3.85269 0
M  V30 3535 H 324.595 0.457091 0.599653 0
M  V30 3536 H 327.246 1.57813 0.936342 0
M  V30 3537 H 325.628 1.73778 3.55833 0
M  V30 3538 H 326.802 4.14424 2.01467 0
M  V30 3539 H 325.117 3.67306 1.96151 0
M  V30 3540 H 327.714 2.75046 4.58534 0
M  V30 3541 H 328.057 1.13966 4.00397 0
M  V30 3542 H 328.59 2.54837 3.05455 0
M  V30 3543 H 325.329 5.5027 3.56207 0
M  V30 3544 H 324.849 4.03241 4.44024 0
M  V30 3545 H 326.528 4.62006 4.52946 0
M  V30 3546 N 326.66 -1.06551 1.16123 0
M  V30 3547 C 328.071 -1.60768 0.949232 0
M  V30 3548 C 328.422 -1.89523 -0.507508 0
M  V30 3549 O 327.547 -1.66671 -1.38021 0
M  V30 3550 C 328.142 -2.92086 1.71671 0
M  V30 3551 C 326.701 -3.43015 1.54977 0
M  V30 3552 C 325.848 -2.16947 1.72711 0
M  V30 3553 H 328.799 -0.895354 1.31031 0
M  V30 3554 H 328.82 -3.6138 1.19099 0
M  V30 3555 H 328.332 -2.71127 2.7769 0
M  V30 3556 H 326.433 -3.69039 0.513873 0
M  V30 3557 H 326.546 -4.18516 2.33198 0
M  V30 3558 H 324.91 -2.27041 1.15431 0
M  V30 3559 H 325.693 -1.98473 2.80113 0
M  V30 3560 N 328.138 -0.959301 -1.25041 0
M  V30 3561 C 329.068 -0.501388 -2.28053 0
M  V30 3562 C 330.049 0.454673 -1.63911 0
M  V30 3563 O 331.234 0.352618 -1.90972 0
M  V30 3564 C 328.364 0.217224 -3.4662 0
M  V30 3565 C 327.318 -0.654034 -4.22973 0
M  V30 3566 C 326.644 0.195589 -5.34342 0
M  V30 3567 C 327.944 -1.93447 -4.85155 0
M  V30 3568 H 329.638 -1.36238 -2.66608 0
M  V30 3569 H 327.184 -0.656534 -1.28163 0
M  V30 3570 H 329.137 0.548732 -4.17812 0
M  V30 3571 H 327.861 1.1125 -3.07068 0
M  V30 3572 H 326.52 -0.968693 -3.5357 0
M  V30 3573 H 326.168 1.09076 -4.91031 0
M  V30 3574 H 325.868 -0.384091 -5.86343 0
M  V30 3575 H 327.392 0.521958 -6.08365 0
M  V30 3576 H 328.806 -1.66908 -5.48466 0
M  V30 3577 H 327.203 -2.46018 -5.47353 0
M  V30 3578 H 328.273 -2.63466 -4.07079 0
M  V30 3579 N 329.616 1.39756 -0.72842 0
M  V30 3580 C 330.566 2.2792 -0.0603424 0
M  V30 3581 C 331.55 1.43922 0.719399 0
M  V30 3582 O 332.742 1.66895 0.589489 0
M  V30 3583 C 329.871 3.32582 0.851104 0
M  V30 3584 C 328.957 4.24049 0.0658641 0
M  V30 3585 N 329.348 4.96653 -0.957578 0
M  V30 3586 C 327.646 4.45013 0.296509 0
M  V30 3587 C 328.347 5.63836 -1.43052 0
M  V30 3588 N 327.323 5.38397 -0.750315 0
M  V30 3589 H 331.125 2.81504 -0.84455 0
M  V30 3590 H 328.639 1.5236 -0.562155 0
M  V30 3591 H 330.636 3.94603 1.34514 0
M  V30 3592 H 329.296 2.80558 1.63454 0
M  V30 3593 H 330.307 5.00297 -1.33877 0
M  V30 3594 H 326.984 4.03943 1.05527 0
M  V30 3595 H 328.374 6.31974 -2.28163 0
M  V30 3596 N 331.094 0.475555 1.50254 0
M  V30 3597 C 332.026 -0.352649 2.26471 0
M  V30 3598 C 333.039 -0.953165 1.3198 0
M  V30 3599 O 334.228 -0.840815 1.57457 0
M  V30 3600 C 331.328 -1.50902 3.0345 0
M  V30 3601 C 330.501 -1.02047 4.25329 0
M  V30 3602 C 329.56 -2.05142 4.84565 0
M  V30 3603 O 328.586 -1.63023 5.45355 0
M  V30 3604 N 329.788 -3.37987 4.71959 0
M  V30 3605 H 332.553 0.300767 2.98187 0
M  V30 3606 H 330.114 0.306598 1.5897 0
M  V30 3607 H 332.106 -2.19572 3.39956 0
M  V30 3608 H 330.676 -2.06705 2.34504 0
M  V30 3609 H 329.896 -0.159507 3.93877 0
M  V30 3610 H 331.184 -0.672061 5.04342 0
M  V30 3611 H 330.582 -3.74913 4.23623 0
M  V30 3612 H 329.139 -4.02443 5.12721 0
M  V30 3613 N 332.573 -1.56217 0.208337 0
M  V30 3614 C 333.801 -2.02337 -0.43215 0
M  V30 3615 C 334.216 -1.08834 -1.54275 0
M  V30 3616 O 333.573 -0.0955462 -1.8225 0
M  V30 3617 C 333.624 -3.48072 -0.976138 0
M  V30 3618 O 333.345 -4.38007 0.0901621 0
M  V30 3619 C 334.846 -4.09773 -1.69119 0
M  V30 3620 H 332.066 -0.662385 -0.10718 0
M  V30 3621 H 334.61 -2.01966 0.320923 0
M  V30 3622 H 332.765 -3.49099 -1.67954 0
M  V30 3623 H 333.179 -5.23543 -0.316701 0
M  V30 3624 H 334.653 -5.13556 -2.02397 0
M  V30 3625 H 335.13 -3.53999 -2.59964 0
M  V30 3626 H 335.736 -4.12556 -1.03332 0
M  V30 3627 N 334.051 0.0651679 -1.57465 0
M  V30 3628 C 335.328 0.79644 -1.78651 0
M  V30 3629 C 335.708 1.95454 -0.797566 0
M  V30 3630 O 335.056 2.27882 0.167946 0
M  V30 3631 C 335.266 1.26322 -3.25337 0
M  V30 3632 C 336.614 1.6939 -3.89348 0
M  V30 3633 O 337.638 1.35872 -3.29268 0
M  V30 3634 O 336.497 2.31471 -4.95059 0
M  V30 3635 H 333.591 0.382157 -0.733407 0
M  V30 3636 H 336.137 0.0447311 -1.69641 0
M  V30 3637 H 334.909 0.434859 -3.88876 0
M  V30 3638 H 334.532 2.07604 -3.39096 0
M  V30 3639 N 335.529 1.53961 0.336706 0
M  V30 3640 C 336.459 1.85417 1.41925 0
M  V30 3641 C 337.44 0.709856 1.5458 0
M  V30 3642 O 338.625 0.962396 1.68676 0
M  V30 3643 C 335.755 2.06985 2.78881 0
M  V30 3644 C 334.709 3.22813 2.81026 0
M  V30 3645 C 334.035 3.29727 4.20932 0
M  V30 3646 C 335.335 4.60767 2.45949 0
M  V30 3647 H 337.029 2.76079 1.15848 0
M  V30 3648 H 334.575 1.32839 0.555859 0
M  V30 3649 H 336.528 2.27575 3.54665 0
M  V30 3650 H 335.252 1.13061 3.06406 0
M  V30 3651 H 333.911 3.0209 2.07695 0
M  V30 3652 H 333.559 2.33385 4.45579 0
M  V30 3653 H 333.259 4.07566 4.23277 0
M  V30 3654 H 334.783 3.52536 4.98549 0
M  V30 3655 H 336.197 4.81325 3.11446 0
M  V30 3656 H 334.594 5.4106 2.59566 0
M  V30 3657 H 335.664 4.6391 1.41122 0
M  V30 3658 N 337.007 -0.598083 1.45811 0
M  V30 3659 C 338.232 -1.3881 1.54099 0
M  V30 3660 C 338.657 -1.8726 0.177578 0
M  V30 3661 O 338.015 -1.6069 -0.839541 0
M  V30 3662 C 338.063 -2.56217 2.53743 0
M  V30 3663 O 337.167 -3.5716 2.06182 0
M  V30 3664 H 336.508 -0.414024 0.519115 0
M  V30 3665 H 339.038 -0.726971 1.91249 0
M  V30 3666 H 339.048 -3.03337 2.72856 0
M  V30 3667 H 337.723 -2.20303 3.5276 0
M  V30 3668 H 336.3 -3.16624 1.96987 0
M  V30 3669 N 338.485 -1.33259 -0.841409 0
M  V30 3670 C 339.731 -1.24757 -1.59886 0
M  V30 3671 C 340.064 0.186913 -1.93298 0
M  V30 3672 O 339.339 1.12757 -1.5848 0
M  V30 3673 C 339.622 -2.12036 -2.91055 0
M  V30 3674 C 339.475 -3.63929 -2.6434 0
M  V30 3675 C 340.794 -1.9916 -3.92458 0
M  V30 3676 H 337.913 -0.454542 -0.580138 0
M  V30 3677 H 340.555 -1.63335 -0.970647 0
M  V30 3678 H 338.705 -1.79265 -3.44669 0
M  V30 3679 H 340.377 -4.06978 -2.17178 0
M  V30 3680 H 338.62 -3.85935 -1.98082 0
M  V30 3681 H 339.291 -4.20341 -3.57796 0
M  V30 3682 H 341.767 -2.27895 -3.48143 0
M  V30 3683 H 340.643 -2.62484 -4.82072 0
M  V30 3684 H 340.904 -0.963082 -4.31482 0
M  V30 3685 N 339.963 1.05934 -1.16686 0
M  V30 3686 C 341.211 1.78447 -0.948744 0
M  V30 3687 C 341.532 1.87813 0.524523 0
M  V30 3688 O 340.802 1.38945 1.38098 0
M  V30 3689 H 339.382 0.660971 -0.348033 0
M  V30 3690 H 342.044 1.27947 -1.47022 0
M  V30 3691 H 341.14 2.80394 -1.37061 0
M  V30 3692 N 341.441 0.965919 1.2453 0
M  V30 3693 C 342.688 0.626831 1.92554 0
M  V30 3694 C 343.016 -0.837739 1.75534 0
M  V30 3695 O 342.271 -1.61793 1.10098 0
M  V30 3696 C 342.57 0.945428 3.44669 0
M  V30 3697 C 342.236 2.39785 3.81856 0
M  V30 3698 C 340.898 2.79483 3.91718 0
M  V30 3699 C 343.25 3.34055 4.00071 0
M  V30 3700 C 340.578 4.12496 4.1721 0
M  V30 3701 C 342.93 4.66694 4.27059 0
M  V30 3702 C 341.594 5.06172 4.3514 0
M  V30 3703 H 340.864 0.229374 0.704605 0
M  V30 3704 H 343.511 1.21707 1.4785 0
M  V30 3705 H 341.816 0.272926 3.90848 0
M  V30 3706 H 343.513 0.661484 3.95507 0
M  V30 3707 H 340.103 2.08003 3.74743 0
M  V30 3708 H 344.287 3.04571 3.91855 0
M  V30 3709 H 339.543 4.42709 4.21685 0
M  V30 3710 H 343.717 5.3971 4.40097 0
M  V30 3711 H 341.344 6.09262 4.54646 0
M  V30 3712 N 342.919 -1.39368 0.735821 0
M  V30 3713 C 344.196 -1.94465 0.210395 0
M  V30 3714 C 344.576 -1.67254 -1.28799 0
M  V30 3715 O 343.924 -1.00123 -2.05396 0
M  V30 3716 C 344.134 -3.4472 0.544897 0
M  V30 3717 C 345.482 -4.21708 0.494689 0
M  V30 3718 O 346.506 -3.52922 0.482136 0
M  V30 3719 O 345.365 -5.44299 0.489947 0
M  V30 3720 H 342.459 -0.826096 0.0386666 0
M  V30 3721 H 345.005 -1.48863 0.814735 0
M  V30 3722 H 343.777 -3.57963 1.58045 0
M  V30 3723 H 343.4 -3.97502 -0.08837 0
M  V30 3724 N 344.397 -0.483516 -1.5 0
M  V30 3725 C 345.625 0.0644831 -2.06799 0
M  V30 3726 C 346.04 1.32399 -1.34596 0
M  V30 3727 O 345.397 1.77626 -0.418946 0
M  V30 3728 C 345.448 0.339927 -3.59898 0
M  V30 3729 O 345.169 -0.869635 -4.29382 0
M  V30 3730 C 346.67 0.933515 -4.33359 0
M  V30 3731 H 343.89 -0.0126333 -0.670881 0
M  V30 3732 H 346.434 -0.675864 -1.93009 0
M  V30 3733 H 344.589 1.03022 -3.7345 0
M  V30 3734 H 345.003 -0.62179 -5.20801 0
M  V30 3735 H 346.477 1.07593 -5.41413 0
M  V30 3736 H 346.954 1.92685 -3.94676 0
M  V30 3737 H 347.56 0.281221 -4.24369 0
M  V30 3738 N 345.875 1.56104 -0.216619 0
M  V30 3739 C 347.123 1.97781 0.415593 0
M  V30 3740 C 347.444 1.10536 1.60645 0
M  V30 3741 O 346.714 0.181303 1.95059 0
M  V30 3742 H 345.294 0.730415 0.156534 0
M  V30 3743 H 347.956 1.92445 -0.308366 0
M  V30 3744 H 347.052 3.03072 0.74525 0
M  V30 3745 N 347.353 -0.0568162 1.57498 0
M  V30 3746 C 348.63 -0.786954 1.79071 0
M  V30 3747 C 349.01 -1.95028 0.80792 0
M  V30 3748 O 348.358 -2.27968 -0.155858 0
M  V30 3749 C 348.568 -1.24594 3.26002 0
M  V30 3750 C 349.916 -1.67323 3.90241 0
M  V30 3751 O 350.94 -1.34124 3.29984 0
M  V30 3752 O 349.799 -2.28842 4.9628 0
M  V30 3753 H 346.893 -0.378262 0.735423 0
M  V30 3754 H 349.439 -0.035734 1.69662 0
M  V30 3755 H 348.211 -0.41423 3.89101 0
M  V30 3756 H 347.834 -2.05803 3.40192 0
M  V30 3757 N 348.832 -1.54138 -0.328536 0
M  V30 3758 C 350.109 -1.62749 -1.08499 0
M  V30 3759 C 350.489 -0.458198 -2.06067 0
M  V30 3760 O 349.837 0.548046 -2.2183 0
M  V30 3761 C 350.047 -2.99519 -1.79135 0
M  V30 3762 C 351.395 -3.55394 -2.32337 0
M  V30 3763 O 352.419 -3.01792 -1.89209 0
M  V30 3764 O 351.278 -4.49186 -3.11279 0
M  V30 3765 H 348.372 -0.65886 -0.499832 0
M  V30 3766 H 350.918 -1.66484 -0.328826 0
M  V30 3767 H 349.69 -3.76061 -1.08139 0
M  V30 3768 H 349.313 -2.99441 -2.61574 0
M  V30 3769 N 350.31 0.590341 -1.46126 0
M  V30 3770 C 351.726 0.912917 -1.30912 0
M  V30 3771 C 351.926 1.99616 -0.274893 0
M  V30 3772 O 350.982 2.50397 0.325197 0
M  V30 3773 C 352.295 1.3375 -2.69317 0
M  V30 3774 C 353.843 1.45077 -2.77348 0
M  V30 3775 C 354.318 1.90904 -4.16317 0
M  V30 3776 N 355.809 1.9811 -4.18696 0
M  V30 3777 C 356.544 2.34828 -5.23109 0
M  V30 3778 N 356.04 2.70393 -6.37856 0
M  V30 3779 N 357.833 2.35317 -5.10473 0
M  V30 3780 H 349.984 -0.125358 -2.1203 0
M  V30 3781 H 352.247 0.00658481 -0.947977 0
M  V30 3782 H 351.953 0.615614 -3.4627 0
M  V30 3783 H 351.827 2.30058 -2.9892 0
M  V30 3784 H 354.214 2.16353 -2.00687 0
M  V30 3785 H 354.295 0.4704 -2.51438 0
M  V30 3786 H 353.939 1.20209 -4.9347 0
M  V30 3787 H 353.869 2.89886 -4.39629 0
M  V30 3788 H 356.36 1.73146 -3.359 0
M  V30 3789 H 356.673 2.97341 -7.13308 0
M  V30 3790 H 355.018 2.68048 -6.41229 0
M  V30 3791 H 358.209 2.0695 -4.19868 0
M  V30 3792 H 358.382 2.63605 -5.9196 0
M  V30 3793 N 351.788 1.33704 0.83433 0
M  V30 3794 C 352.718 1.26967 1.95963 0
M  V30 3795 C 353.699 0.149337 1.69443 0
M  V30 3796 O 354.884 0.339852 1.91203 0
M  V30 3797 C 352.014 1.01275 3.32206 0
M  V30 3798 C 350.968 2.09652 3.73136 0
M  V30 3799 C 350.294 1.69166 5.07235 0
M  V30 3800 C 351.594 3.51372 3.86439 0
M  V30 3801 H 353.288 2.2112 2.01857 0
M  V30 3802 H 350.834 1.06447 0.969793 0
M  V30 3803 H 352.787 0.952106 4.10503 0
M  V30 3804 H 351.511 0.0356203 3.26581 0
M  V30 3805 H 350.17 2.14766 2.97104 0
M  V30 3806 H 349.818 0.701437 4.98085 0
M  V30 3807 H 349.518 2.41694 5.35591 0
M  V30 3808 H 351.042 1.64576 5.88003 0
M  V30 3809 H 352.456 3.48734 4.55036 0
M  V30 3810 H 350.853 4.22425 4.26236 0
M  V30 3811 H 351.923 3.89546 2.88759 0
M  V30 3812 N 353.266 -1.05314 1.17247 0
M  V30 3813 C 354.513 -1.78293 0.960091 0
M  V30 3814 C 354.841 -1.87658 -0.51136 0
M  V30 3815 O 354.096 -1.3718 -1.39571 0
M  V30 3816 C 354.395 -3.2229 1.54479 0
M  V30 3817 C 354.061 -3.32987 3.04024 0
M  V30 3818 C 352.723 -3.35613 3.44844 0
M  V30 3819 C 355.075 -3.34102 4.00031 0
M  V30 3820 C 352.403 -3.36982 4.8027 0
M  V30 3821 C 354.755 -3.3701 5.35357 0
M  V30 3822 C 353.419 -3.37923 5.75642 0
M  V30 3823 H 352.689 -0.652422 0.351322 0
M  V30 3824 H 355.336 -1.23782 1.46117 0
M  V30 3825 H 353.641 -3.7972 0.965391 0
M  V30 3826 H 355.338 -3.77376 1.35603 0
M  V30 3827 H 351.928 -3.31655 2.71483 0
M  V30 3828 H 356.112 -3.31276 3.69554 0
M  V30 3829 H 351.368 -3.35999 5.10798 0
M  V30 3830 H 355.542 -3.36822 6.09528 0
M  V30 3831 H 353.169 -3.38738 6.80559 0
M  V30 3832 N 354.744 -0.972509 -1.24016 0
M  V30 3833 C 355.674 -0.525548 -2.27509 0
M  V30 3834 C 356.655 0.437262 -1.64384 0
M  V30 3835 O 357.84 0.332343 -1.91335 0
M  V30 3836 C 354.97 0.180448 -3.46831 0
M  V30 3837 C 353.924 -0.698859 -4.22256 0
M  V30 3838 C 353.25 0.138903 -5.3452 0
M  V30 3839 C 354.55 -1.98582 -4.83076 0
M  V30 3840 H 356.244 -1.39058 -2.65148 0
M  V30 3841 H 353.79 -0.67009 -1.27459 0
M  V30 3842 H 355.743 0.504387 -4.18371 0
M  V30 3843 H 354.467 1.07987 -3.08231 0
M  V30 3844 H 353.126 -1.00614 -3.52523 0
M  V30 3845 H 352.774 1.03862 -4.9216 0
M  V30 3846 H 352.474 -0.446259 -5.85903 0
M  V30 3847 H 353.998 0.457404 -6.08884 0
M  V30 3848 H 355.412 -1.72715 -5.46665 0
M  V30 3849 H 353.809 -2.5181 -5.44713 0
M  V30 3850 H 354.879 -2.67769 -4.04262 0
M  V30 3851 N 356.222 1.38976 -0.743202 0
M  V30 3852 C 357.468 2.0064 -0.295189 0
M  V30 3853 C 357.801 1.5885 1.11716 0
M  V30 3854 O 357.076 0.821181 1.76315 0
M  V30 3855 C 357.359 3.578 -0.406318 0
M  V30 3856 C 357.212 4.09586 -1.85903 0
M  V30 3857 C 358.531 4.39616 0.206439 0
M  V30 3858 H 355.65 0.728935 -0.108733 0
M  V30 3859 H 358.292 1.65067 -0.940897 0
M  V30 3860 H 356.442 3.88235 0.143419 0
M  V30 3861 H 358.114 3.89837 -2.46627 0
M  V30 3862 H 356.357 3.6284 -2.3776 0
M  V30 3863 H 357.028 5.18708 -1.888 0
M  V30 3864 H 359.504 4.15273 -0.262283 0
M  V30 3865 H 358.38 5.48812 0.0983819 0
M  V30 3866 H 358.641 4.22754 1.2935 0
M  V30 3867 N 357.7 0.491464 1.49741 0
M  V30 3868 C 358.925 -0.0557177 2.07325 0
M  V30 3869 C 359.35 -1.30925 1.35056 0
M  V30 3870 O 358.708 -1.76733 0.404365 0
M  V30 3871 C 358.756 -0.302074 3.59333 0
M  V30 3872 O 357.86 -1.37868 3.88672 0
M  V30 3873 H 357.201 0.0219956 0.663636 0
M  V30 3874 H 359.731 0.688352 1.92673 0
M  V30 3875 H 359.741 -0.536464 4.04458 0
M  V30 3876 H 358.416 0.61383 4.11345 0
M  V30 3877 H 356.993 -1.12999 3.55367 0
M  V30 3878 N 359.178 -1.55987 0.224894 0
M  V30 3879 C 360.589 -1.84553 -0.282345 0
M  V30 3880 C 360.94 -1.14634 -1.59227 0
M  V30 3881 O 360.065 -0.417155 -2.12341 0
M  V30 3882 C 360.66 -3.348 -0.519062 0
M  V30 3883 C 359.219 -3.63671 -0.970604 0
M  V30 3884 C 358.366 -2.77277 -0.0355261 0
M  V30 3885 H 361.317 -1.52245 0.448006 0
M  V30 3886 H 361.338 -3.55187 -1.36463 0
M  V30 3887 H 360.85 -3.8566 0.43449 0
M  V30 3888 H 358.951 -3.1827 -1.9374 0
M  V30 3889 H 359.064 -4.71631 -0.842698 0
M  V30 3890 H 357.428 -2.48846 -0.542927 0
M  V30 3891 H 358.211 -3.30937 0.913003 0
M  V30 3892 N 360.656 0.0484629 -1.57525 0
M  V30 3893 C 361.586 1.0549 -2.08313 0
M  V30 3894 C 362.567 1.38929 -0.981463 0
M  V30 3895 O 363.752 1.48151 -1.25558 0
M  V30 3896 C 360.882 2.36162 -2.54646 0
M  V30 3897 C 359.836 2.17016 -3.68901 0
M  V30 3898 C 359.162 3.53278 -4.01371 0
M  V30 3899 C 360.462 1.57219 -4.98076 0
M  V30 3900 H 362.156 0.632195 -2.92649 0
M  V30 3901 H 359.702 0.302654 -1.40784 0
M  V30 3902 H 361.655 3.06882 -2.88793 0
M  V30 3903 H 360.379 2.80456 -1.67368 0
M  V30 3904 H 359.038 1.48733 -3.35073 0
M  V30 3905 H 358.686 3.95185 -3.11188 0
M  V30 3906 H 358.386 3.41299 -4.78318 0
M  V30 3907 H 359.91 4.25391 -4.38035 0
M  V30 3908 H 361.324 2.17832 -5.30304 0
M  V30 3909 H 359.721 1.55871 -5.79503 0
M  V30 3910 H 360.791 0.535956 -4.81929 0
M  V30 3911 N 362.134 1.5431 0.320358 0
M  V30 3912 C 363.38 1.72924 1.05949 0
M  V30 3913 C 363.713 0.503185 1.87568 0
M  V30 3914 O 362.988 -0.499839 1.87968 0
M  V30 3915 C 363.271 3.00676 1.98156 0
M  V30 3916 C 363.124 4.3354 1.19845 0
M  V30 3917 C 364.443 3.24198 2.9763 0
M  V30 3918 H 361.562 0.629195 0.383774 0
M  V30 3919 H 364.204 1.87008 0.335854 0
M  V30 3920 H 362.354 2.888 2.59859 0
M  V30 3921 H 364.026 4.57305 0.605773 0
M  V30 3922 H 362.269 4.309 0.500784 0
M  V30 3923 H 362.94 5.19156 1.87567 0
M  V30 3924 H 365.416 3.35557 2.4605 0
M  V30 3925 H 364.292 4.14938 3.59329 0
M  V30 3926 H 364.553 2.41577 3.7026 0
M  V30 3927 N 363.613 -0.582584 1.46437 0
M  V30 3928 C 364.862 -1.337 1.5102 0
M  V30 3929 C 365.175 -1.94891 0.166359 0
M  V30 3930 O 366.381 -2.71351 0.0899954 0
M  V30 3931 C 364.837 -2.42315 2.66104 0
M  V30 3932 C 364.445 -1.87427 4.06909 0
M  V30 3933 C 366.189 -3.19099 2.79958 0
M  V30 3934 C 364.096 -2.93672 5.13333 0
M  V30 3935 H 363.026 -0.502619 0.562041 0
M  V30 3936 H 365.677 -0.621701 1.72647 0
M  V30 3937 H 364.059 -3.16645 2.37807 0
M  V30 3938 H 365.233 -1.19639 4.44998 0
M  V30 3939 H 363.548 -1.2331 3.97723 0
M  V30 3940 H 366.145 -3.9839 3.56636 0
M  V30 3941 H 366.488 -3.71695 1.87479 0
M  V30 3942 H 367.021 -2.51875 3.07902 0
M  V30 3943 H 363.76 -2.45962 6.07604 0
M  V30 3944 H 363.28 -3.59948 4.79789 0
M  V30 3945 H 364.959 -3.5762 5.39182 0
M  V30 3946 N 365.091 -1.34144 -0.827227 0
M  V30 3947 C 366.316 -1.29476 -1.62021 0
M  V30 3948 C 366.741 0.129292 -1.87655 0
M  V30 3949 O 366.099 1.08967 -1.449 0
M  V30 3950 C 366.147 -2.08702 -2.94068 0
M  V30 3951 O 365.251 -1.45359 -3.85933 0
M  V30 3952 H 364.592 -0.444881 -0.492927 0
M  V30 3953 H 367.122 -1.76882 -1.02829 0
M  V30 3954 H 367.132 -2.19898 -3.43669 0
M  V30 3955 H 365.807 -3.12241 -2.74734 0
M  V30 3956 H 364.384 -1.42879 -3.44442 0
M  V30 3957 N 366.569 1.04691 -1.17803 0
M  V30 3958 C 367.519 2.10856 -0.867391 0
M  V30 3959 C 368.503 1.601 0.160206 0
M  V30 3960 O 369.695 1.76948 -0.042947 0
M  V30 3961 C 366.824 3.411 -0.388012 0
M  V30 3962 C 365.91 3.9864 -1.44732 0
M  V30 3963 N 366.301 4.30075 -2.66212 0
M  V30 3964 C 364.599 4.26439 -1.30637 0
M  V30 3965 C 365.3 4.76033 -3.34317 0
M  V30 3966 N 364.276 4.76462 -2.61696 0
M  V30 3967 H 368.078 2.33029 -1.79094 0
M  V30 3968 H 365.592 1.22386 -1.0675 0
M  V30 3969 H 367.589 4.16641 -0.146994 0
M  V30 3970 H 366.249 3.20357 0.529271 0
M  V30 3971 H 367.26 4.19917 -3.03134 0
M  V30 3972 H 363.937 4.15056 -0.451129 0
M  V30 3973 H 365.327 5.09427 -4.38103 0
M  V30 3974 N 368.047 0.979072 1.23499 0
M  V30 3975 C 368.957 0.526431 2.28617 0
M  V30 3976 C 369.973 -0.418126 1.68901 0
M  V30 3977 O 371.149 -0.288372 1.99325 0
M  V30 3978 C 368.214 -0.165235 3.46306 0
M  V30 3979 C 367.275 0.82056 4.21385 0
M  V30 3980 C 366.508 0.161807 5.33455 0
M  V30 3981 O 366.731 -1.04742 5.60701 0
M  V30 3982 O 365.665 0.859708 5.95729 0
M  V30 3983 H 369.491 1.4006 2.69475 0
M  V30 3984 H 367.076 0.746643 1.29405 0
M  V30 3985 H 368.958 -0.553287 4.17752 0
M  V30 3986 H 367.633 -1.01419 3.07402 0
M  V30 3987 H 366.54 1.25929 3.52268 0
M  V30 3988 H 367.873 1.63828 4.64135 0
M  V30 3989 N 369.525 -1.3858 0.750561 0
M  V30 3990 C 370.774 -1.99424 0.302172 0
M  V30 3991 C 371.087 -1.60254 -1.12152 0
M  V30 3992 O 372.293 -2.14046 -1.67023 0
M  V30 3993 C 370.749 -3.56558 0.489307 0
M  V30 3994 C 370.357 -4.04682 1.92189 0
M  V30 3995 C 372.101 -4.24374 0.103478 0
M  V30 3996 C 370.008 -5.54446 2.05775 0
M  V30 3997 H 368.938 -0.746046 0.10923 0
M  V30 3998 H 371.589 -1.58383 0.92667 0
M  V30 3999 H 369.971 -3.95472 -0.204329 0
M  V30 4000 H 371.145 -3.77065 2.64875 0
M  V30 4001 H 369.46 -3.4958 2.26236 0
M  V30 4002 H 372.057 -5.34384 0.183787 0
M  V30 4003 H 372.4 -4.05468 -0.943481 0
M  V30 4004 H 372.933 -3.90688 0.748854 0
M  V30 4005 H 369.672 -5.78252 3.08714 0
M  V30 4006 H 369.192 -5.83816 1.37546 0
M  V30 4007 H 370.871 -6.20099 1.84626 0
M  V30 4008 N 371.003 -0.499398 -1.49478 0
M  V30 4009 C 372.28 0.108629 -1.95298 0
M  V30 4010 C 372.66 1.54282 -1.44084 0
M  V30 4011 O 372.008 2.18944 -0.653908 0
M  V30 4012 C 372.218 0.0229111 -3.48992 0
M  V30 4013 C 373.566 0.197643 -4.2414 0
M  V30 4014 O 374.59 0.0981735 -3.56065 0
M  V30 4015 O 373.449 0.401669 -5.45022 0
M  V30 4016 H 370.543 0.096181 -0.821388 0
M  V30 4017 H 373.089 -0.561822 -1.6013 0
M  V30 4018 H 371.861 -0.977321 -3.78899 0
M  V30 4019 H 371.484 0.733579 -3.90774 0
M  V30 4020 N 372.481 1.55866 -0.233164 0
M  V30 4021 C 373.444 2.1953 0.658715 0
M  V30 4022 C 374.444 1.16053 1.11303 0
M  V30 4023 O 375.634 1.41218 1.01996 0
M  V30 4024 C 372.766 2.82791 1.90373 0
M  V30 4025 H 373.959 2.99721 0.10347 0
M  V30 4026 H 371.512 1.56291 0.0164245 0
M  V30 4027 H 372.247 2.06501 2.50056 0
M  V30 4028 H 372.032 3.58578 1.58632 0
M  V30 4029 H 373.522 3.31556 2.53891 0
M  V30 4030 N 373.959 -0.0401083 1.57549 0
M  V30 4031 C 374.922 -1.02871 2.04817 0
M  V30 4032 C 375.922 -1.29708 0.950388 0
M  V30 4033 O 377.112 -1.24897 1.21435 0
M  V30 4034 C 374.244 -2.36443 2.45576 0
M  V30 4035 H 375.437 -0.620631 2.93408 0
M  V30 4036 H 372.99 -0.286667 1.53649 0
M  V30 4037 H 373.725 -2.82021 1.60108 0
M  V30 4038 H 373.51 -2.18296 3.25713 0
M  V30 4039 H 375 -3.07441 2.82612 0
M  V30 4040 N 375.437 -1.54477 -0.31217 0
M  V30 4041 C 376.662 -1.77526 -1.07235 0
M  V30 4042 C 377.087 -0.527775 -1.80544 0
M  V30 4043 O 376.445 0.52121 -1.73646 0
M  V30 4044 C 376.493 -2.97535 -2.03728 0
M  V30 4045 O 375.597 -2.69878 -3.11833 0
M  V30 4046 H 374.938 -0.58792 -0.30862 0
M  V30 4047 H 377.468 -2.01532 -0.352993 0
M  V30 4048 H 377.478 -3.25198 -2.46395 0
M  V30 4049 H 376.153 -3.87996 -1.49774 0
M  V30 4050 H 374.73 -2.53199 -2.7376 0
M  V30 4051 N 376.915 0.57481 -1.46744 0
M  V30 4052 C 378.326 1.15695 -1.46532 0
M  V30 4053 C 378.677 1.95068 -0.210425 0
M  V30 4054 O 377.802 2.05241 0.685944 0
M  V30 4055 C 378.397 2.1048 -2.65487 0
M  V30 4056 C 376.956 2.64002 -2.68291 0
M  V30 4057 C 376.103 1.40026 -2.39349 0
M  V30 4058 H 379.054 0.362325 -1.54509 0
M  V30 4059 H 379.075 2.94074 -2.41455 0
M  V30 4060 H 378.587 1.52683 -3.56805 0
M  V30 4061 H 376.688 3.25646 -1.81067 0
M  V30 4062 H 376.801 3.06197 -3.68483 0
M  V30 4063 H 375.165 1.70106 -1.89568 0
M  V30 4064 H 375.948 0.840485 -3.32852 0
M  V30 4065 N 378.394 1.34581 0.820102 0
M  V30 4066 C 379.641 1.27096 1.57648 0
M  V30 4067 C 379.969 -0.158317 1.93855 0
M  V30 4068 O 379.224 -1.12028 1.60463 0
M  V30 4069 C 379.523 2.10997 2.8847 0
M  V30 4070 C 379.189 3.59966 2.71543 0
M  V30 4071 C 377.851 4.00575 2.66634 0
M  V30 4072 C 380.203 4.54548 2.55021 0
M  V30 4073 C 377.531 5.33953 2.43128 0
M  V30 4074 C 379.883 5.88109 2.33047 0
M  V30 4075 C 378.547 6.27878 2.26552 0
M  V30 4076 H 377.817 0.465078 0.576874 0
M  V30 4077 H 380.464 1.6635 0.948671 0
M  V30 4078 H 378.769 1.6458 3.55557 0
M  V30 4079 H 380.466 2.0255 3.46084 0
M  V30 4080 H 377.056 3.27733 2.76205 0
M  V30 4081 H 381.24 4.24069 2.57835 0
M  V30 4082 H 376.496 5.63781 2.3656 0
M  V30 4083 H 380.67 6.60985 2.19251 0
M  V30 4084 H 378.297 7.31162 2.081 0
M  V30 4085 N 379.872 -1.04064 1.18357 0
M  V30 4086 C 381.118 -1.77658 0.990412 0
M  V30 4087 C 381.473 -1.86446 -0.474944 0
M  V30 4088 O 380.766 -1.36153 -1.34807 0
M  V30 4089 C 380.96 -3.20634 1.57888 0
M  V30 4090 C 380.789 -3.25782 3.09994 0
M  V30 4091 C 379.559 -3.34411 3.7881 0
M  V30 4092 C 381.757 -3.13791 4.0748 0
M  V30 4093 N 379.739 -3.28809 5.18418 0
M  V30 4094 C 381.11 -3.15689 5.33611 0
M  V30 4095 C 383.165 -2.97833 3.98998 0
M  V30 4096 C 381.868 -3.03268 6.52243 0
M  V30 4097 C 383.894 -2.86759 5.17227 0
M  V30 4098 C 383.256 -2.893 6.4225 0
M  V30 4099 H 379.355 -0.661901 0.416427 0
M  V30 4100 H 381.939 -1.23968 1.50133 0
M  V30 4101 H 380.11 -3.7267 1.09414 0
M  V30 4102 H 381.842 -3.82525 1.32124 0
M  V30 4103 H 378.597 -3.40144 3.29543 0
M  V30 4104 H 379.021 -3.29448 5.91433 0
M  V30 4105 H 383.663 -2.94698 3.03171 0
M  V30 4106 H 381.381 -3.05156 7.48268 0
M  V30 4107 H 384.967 -2.75465 5.12455 0
M  V30 4108 H 383.847 -2.80818 7.32196 0
M  V30 4109 N 381.35 -0.985608 -1.22978 0
M  V30 4110 C 382.26 -0.538548 -2.28335 0
M  V30 4111 C 383.276 0.409163 -1.69121 0
M  V30 4112 O 384.452 0.277797 -1.99475 0
M  V30 4113 C 381.517 0.146867 -3.46389 0
M  V30 4114 C 380.578 -0.842896 -4.20944 0
M  V30 4115 C 379.811 -0.190095 -5.33361 0
M  V30 4116 O 380.034 1.01767 -5.61248 0
M  V30 4117 O 378.968 -0.891289 -5.95264 0
M  V30 4118 H 382.794 -1.41487 -2.68729 0
M  V30 4119 H 380.379 -0.753495 -1.29007 0
M  V30 4120 H 382.261 0.531125 -4.1804 0
M  V30 4121 H 380.936 0.997871 -3.07935 0
M  V30 4122 H 379.843 -1.27795 -3.51595 0
M  V30 4123 H 381.176 -1.66287 -4.6326 0
M  V30 4124 N 382.828 1.3818 -0.7579 0
M  V30 4125 C 383.791 2.28764 -0.141286 0
M  V30 4126 C 384.791 1.47388 0.642907 0
M  V30 4127 O 385.981 1.67781 0.468536 0
M  V30 4128 C 383.113 3.31184 0.808069 0
M  V30 4129 H 384.306 2.848 -0.939633 0
M  V30 4130 H 381.859 1.47212 -0.525191 0
M  V30 4131 H 382.594 2.80247 1.63193 0
M  V30 4132 H 382.379 3.91314 0.248104 0
M  V30 4133 H 383.869 3.98909 1.23536 0
M  V30 4134 N 384.306 0.507319 1.49211 0
M  V30 4135 C 385.531 -0.033725 2.07373 0
M  V30 4136 C 385.956 -1.29485 1.36437 0
M  V30 4137 O 385.314 -1.76294 0.423087 0
M  V30 4138 C 385.362 -0.263945 3.59633 0
M  V30 4139 O 384.466 -1.33737 3.90113 0
M  V30 4140 H 383.807 0.0290331 0.663365 0
M  V30 4141 H 386.337 0.708749 1.91932 0
M  V30 4142 H 386.347 -0.493536 4.05004 0
M  V30 4143 H 385.022 0.657424 4.10671 0
M  V30 4144 H 383.599 -1.09224 3.56545 0
M  V30 4145 N 385.784 -1.5574 0.241426 0
M  V30 4146 C 387.2 -1.59196 -0.113548 0
M  V30 4147 C 387.4 -1.25852 -1.57364 0
M  V30 4148 O 386.456 -1.00322 -2.31715 0
M  V30 4149 C 387.769 -2.99814 0.230695 0
M  V30 4150 C 389.317 -3.12513 0.174547 0
M  V30 4151 C 389.792 -4.55342 0.492744 0
M  V30 4152 N 391.283 -4.61076 0.443043 0
M  V30 4153 C 392.018 -5.6956 0.662484 0
M  V30 4154 N 391.514 -6.86328 0.944761 0
M  V30 4155 N 393.307 -5.58957 0.593564 0
M  V30 4156 H 385.458 -1.75685 1.19368 0
M  V30 4157 H 387.721 -0.81756 0.479896 0
M  V30 4158 H 387.427 -3.28932 1.24485 0
M  V30 4159 H 387.301 -3.74568 -0.444833 0
M  V30 4160 H 389.688 -2.83179 -0.830277 0
M  V30 4161 H 389.769 -2.40045 0.883845 0
M  V30 4162 H 389.413 -4.85396 1.4951 0
M  V30 4163 H 389.343 -5.26062 -0.23797 0
M  V30 4164 H 391.834 -3.77179 0.233374 0
M  V30 4165 H 392.147 -7.64935 1.09977 0
M  V30 4166 H 390.492 -6.88025 0.982175 0
M  V30 4167 H 393.683 -4.66611 0.373123 0
M  V30 4168 H 393.856 -6.43433 0.767981 0
M  V30 4169 N 387.262 0.0317525 -1.57568 0
M  V30 4170 C 388.678 0.38735 -1.54828 0
M  V30 4171 C 388.878 1.7677 -0.967187 0
M  V30 4172 O 387.934 2.45581 -0.587063 0
M  V30 4173 C 389.247 0.291667 -2.99282 0
M  V30 4174 C 390.795 0.368946 -3.10818 0
M  V30 4175 C 391.27 0.302741 -4.56998 0
M  V30 4176 N 392.761 0.361617 -4.61786 0
M  V30 4177 C 393.496 0.333238 -5.72431 0
M  V30 4178 N 392.992 0.257308 -6.92322 0
M  V30 4179 N 394.785 0.382769 -5.60795 0
M  V30 4180 H 386.936 -0.871609 -1.93692 0
M  V30 4181 H 389.199 -0.331161 -0.888277 0
M  V30 4182 H 388.905 -0.656794 -3.45513 0
M  V30 4183 H 388.779 1.08638 -3.61217 0
M  V30 4184 H 391.166 1.30784 -2.64536 0
M  V30 4185 H 391.247 -0.455066 -2.5172 0
M  V30 4186 H 390.891 -0.632473 -5.03947 0
M  V30 4187 H 390.821 1.14482 -5.14005 0
M  V30 4188 H 393.312 0.422923 -3.75526 0
M  V30 4189 H 393.625 0.24068 -7.72425 0
M  V30 4190 H 391.97 0.223396 -6.94641 0
M  V30 4191 H 395.161 0.44006 -4.66027 0
M  V30 4192 H 395.334 0.357184 -6.47015 0
M  V30 4193 N 388.74 1.54641 0.303973 0
M  V30 4194 C 389.703 1.84646 1.35789 0
M  V30 4195 C 390.703 0.7192 1.4382 0
M  V30 4196 O 391.893 0.987491 1.43507 0
M  V30 4197 C 389.025 2.02407 2.74307 0
M  V30 4198 H 390.218 2.78829 1.10429 0
M  V30 4199 H 387.771 1.46658 0.540487 0
M  V30 4200 H 388.506 1.10502 3.04893 0
M  V30 4201 H 388.291 2.84453 2.69868 0
M  V30 4202 H 389.781 2.27002 3.50514 0
M  V30 4203 N 390.218 -0.567019 1.47046 0
M  V30 4204 C 391.148 -1.68482 1.61667 0
M  V30 4205 C 392.129 -1.6358 0.466418 0
M  V30 4206 O 393.314 -1.81354 0.694574 0
M  V30 4207 C 390.444 -3.07124 1.62148 0
M  V30 4208 C 389.398 -3.26867 2.76301 0
M  V30 4209 C 388.724 -4.66196 2.61849 0
M  V30 4210 C 390.024 -3.13186 4.17986 0
M  V30 4211 H 391.718 -1.56502 2.5524 0
M  V30 4212 H 389.264 -0.751486 1.22836 0
M  V30 4213 H 391.217 -3.8516 1.70968 0
M  V30 4214 H 389.941 -3.2004 0.651287 0
M  V30 4215 H 388.6 -2.51237 2.66975 0
M  V30 4216 H 388.248 -4.75898 1.62879 0
M  V30 4217 H 387.948 -4.80356 3.38425 0
M  V30 4218 H 389.472 -5.46379 2.72584 0
M  V30 4219 H 390.886 -3.81049 4.2834 0
M  V30 4220 H 389.283 -3.3886 4.95272 0
M  V30 4221 H 390.353 -2.10057 4.3704 0
M  V30 4222 N 391.696 -1.35014 -0.812953 0
M  V30 4223 C 392.606 -1.2951 -1.95613 0
M  V30 4224 C 393.622 -0.20107 -1.72834 0
M  V30 4225 O 394.798 -0.42932 -1.96771 0
M  V30 4226 C 391.863 -1.06033 -3.30088 0
M  V30 4227 C 390.924 -2.24688 -3.65805 0
M  V30 4228 C 390.157 -2.02322 -4.93864 0
M  V30 4229 O 390.38 -0.986464 -5.61805 0
M  V30 4230 O 389.314 -2.89525 -5.27692 0
M  V30 4231 H 393.14 -2.25705 -2.03202 0
M  V30 4232 H 390.725 -1.15321 -0.949811 0
M  V30 4233 H 392.607 -0.94763 -4.10607 0
M  V30 4234 H 391.282 -0.128852 -3.23443 0
M  V30 4235 H 390.189 -2.41521 -2.85689 0
M  V30 4236 H 391.522 -3.16261 -3.77147 0
M  V30 4237 N 393.175 1.03435 -1.18907 0
M  V30 4238 C 394.591 1.28973 -0.940111 0
M  V30 4239 C 394.791 1.97676 0.390691 0
M  V30 4240 O 393.847 2.26127 1.12352 0
M  V30 4241 C 395.16 2.14221 -2.11021 0
M  V30 4242 C 396.708 2.27547 -2.14922 0
M  V30 4243 C 397.183 3.16164 -3.31367 0
M  V30 4244 N 398.674 3.23752 -3.31269 0
M  V30 4245 C 399.409 3.92495 -4.18014 0
M  V30 4246 N 398.905 4.63515 -5.14904 0
M  V30 4247 N 400.698 3.88838 -4.05908 0
M  V30 4248 H 392.849 0.57252 -2.04538 0
M  V30 4249 H 395.112 0.315184 -0.894071 0
M  V30 4250 H 394.818 1.71054 -3.073 0
M  V30 4251 H 394.692 3.14919 -2.0762 0
M  V30 4252 H 397.079 2.69947 -1.19217 0
M  V30 4253 H 397.16 1.26418 -2.22378 0
M  V30 4254 H 396.804 2.74474 -4.27348 0
M  V30 4255 H 396.734 4.17339 -3.21148 0
M  V30 4256 H 399.225 2.73167 -2.61129 0
M  V30 4257 H 399.538 5.13583 -5.77453 0
M  V30 4258 H 397.883 4.62398 -5.18857 0
M  V30 4259 H 401.074 3.32491 -3.29495 0
M  V30 4260 H 401.247 4.4214 -4.73726 0
M  V30 4261 N 394.653 0.992116 1.22453 0
M  V30 4262 C 395.93 0.583508 1.86694 0
M  V30 4263 C 396.31 -0.9392 1.89056 0
M  V30 4264 O 395.658 -1.82081 1.38053 0
M  V30 4265 C 395.868 1.20304 3.2761 0
M  V30 4266 C 397.216 1.30308 4.0411 0
M  V30 4267 O 398.24 1.15737 3.36873 0
M  V30 4268 O 397.099 1.53615 5.24466 0
M  V30 4269 H 394.193 0.198129 0.802916 0
M  V30 4270 H 396.739 1.08794 1.30238 0
M  V30 4271 H 395.511 2.24461 3.2052 0
M  V30 4272 H 395.134 0.684144 3.9167 0
M  V30 4273 N 396.131 -1.37776 0.765217 0
M  V30 4274 C 397.408 -1.93975 0.251596 0
M  V30 4275 C 397.788 -1.69949 -1.25222 0
M  V30 4276 O 397.136 -1.04457 -2.03226 0
M  V30 4277 C 397.346 -3.43487 0.617895 0
M  V30 4278 C 398.694 -4.20564 0.584029 0
M  V30 4279 O 399.718 -3.5182 0.556888 0
M  V30 4280 O 398.577 -5.43138 0.605291 0
M  V30 4281 H 395.671 -0.82509 0.0561806 0
M  V30 4282 H 398.217 -1.47101 0.846128 0
M  V30 4283 H 396.989 -3.5453 1.65602 0
M  V30 4284 H 396.612 -3.976 -0.00403411 0
M  V30 4285 N 397.609 -0.515225 -1.4894 0
M  V30 4286 C 398.856 0.024215 -2.02486 0
M  V30 4287 C 399.184 1.35671 -1.39368 0
M  V30 4288 O 398.439 1.88566 -0.523574 0
M  V30 4289 C 398.738 0.210595 -3.56779 0
M  V30 4290 C 398.404 -1.04569 -4.38607 0
M  V30 4291 C 397.066 -1.39002 -4.60686 0
M  V30 4292 C 399.418 -1.88008 -4.86109 0
M  V30 4293 C 396.746 -2.568 -5.27514 0
M  V30 4294 C 399.098 -3.04972 -5.54234 0
M  V30 4295 C 397.762 -3.39768 -5.74555 0
M  V30 4296 H 397.032 0.00886088 -0.740947 0
M  V30 4297 H 399.679 -0.678263 -1.79086 0
M  V30 4298 H 397.984 0.99572 -3.78936 0
M  V30 4299 H 399.681 0.642659 -3.95817 0
M  V30 4300 H 396.271 -0.767497 -4.21672 0
M  V30 4301 H 400.455 -1.62719 -4.68867 0
M  V30 4302 H 395.711 -2.8398 -5.41447 0
M  V30 4303 H 399.885 -3.69943 -5.90013 0
M  V30 4304 H 397.512 -4.31148 -6.26112 0
M  V30 4305 N 399.087 1.5561 -0.249682 0
M  V30 4306 C 399.997 2.25143 0.659375 0
M  V30 4307 C 401.013 1.2685 1.19101 0
M  V30 4308 O 402.189 1.59732 1.22669 0
M  V30 4309 C 399.254 2.93945 1.8384 0
M  V30 4310 C 398.315 4.07655 1.34596 0
M  V30 4311 C 397.548 4.73167 2.46878 0
M  V30 4312 O 397.771 4.37768 3.65671 0
M  V30 4313 O 396.705 5.61623 2.16478 0
M  V30 4314 H 400.531 3.03545 0.0968698 0
M  V30 4315 H 398.116 1.49389 -0.018074 0
M  V30 4316 H 399.998 3.37271 2.52638 0
M  V30 4317 H 398.673 2.18481 2.38847 0
M  V30 4318 H 397.58 3.68839 0.625174 0
M  V30 4319 H 398.913 4.84946 0.841941 0
M  V30 4320 N 400.565 -0.0233959 1.57583 0
M  V30 4321 C 401.814 -0.712133 1.8871 0
M  V30 4322 C 402.127 -1.76217 0.848944 0
M  V30 4323 O 403.333 -2.50389 1.04964 0
M  V30 4324 C 401.789 -1.3177 3.3491 0
M  V30 4325 C 401.397 -0.303715 4.46969 0
M  V30 4326 C 403.141 -1.98598 3.75179 0
M  V30 4327 C 401.048 -0.917945 5.84233 0
M  V30 4328 H 399.978 -0.269735 0.704101 0
M  V30 4329 H 402.629 0.0333114 1.8347 0
M  V30 4330 H 401.011 -2.11304 3.34913 0
M  V30 4331 H 402.185 0.465325 4.58445 0
M  V30 4332 H 400.5 0.2628 4.1557 0
M  V30 4333 H 403.097 -2.45416 4.75053 0
M  V30 4334 H 403.44 -2.80659 3.07468 0
M  V30 4335 H 403.973 -1.25831 3.77374 0
M  V30 4336 H 400.712 -0.136633 6.55358 0
M  V30 4337 H 400.232 -1.65669 5.76467 0
M  V30 4338 H 401.911 -1.4236 6.31144 0
M  V30 4339 N 402.043 -1.548 -0.295768 0
M  V30 4340 C 403.289 -1.74588 -1.03184 0
M  V30 4341 C 403.622 -0.532962 -1.86744 0
M  V30 4342 O 402.897 0.469872 -1.88739 0
M  V30 4343 C 403.18 -3.03791 -1.93347 0
M  V30 4344 C 403.033 -4.35392 -1.12933 0
M  V30 4345 C 404.352 -3.28892 -2.92435 0
M  V30 4346 H 401.471 -0.635221 -0.373715 0
M  V30 4347 H 404.113 -1.87519 -0.30606 0
M  V30 4348 H 402.263 -2.92898 -2.55232 0
M  V30 4349 H 403.935 -4.58211 -0.532943 0
M  V30 4350 H 402.178 -4.31642 -0.432168 0
M  V30 4351 H 402.849 -5.22074 -1.79284 0
M  V30 4352 H 405.325 -3.39429 -2.4068 0
M  V30 4353 H 404.201 -4.20603 -3.52682 0
M  V30 4354 H 404.462 -2.47437 -3.6637 0
M  V30 4355 N 403.521 0.559213 -1.47345 0
M  V30 4356 C 404.767 1.31843 -1.54095 0
M  V30 4357 C 405.1 1.93149 -0.201726 0
M  V30 4358 O 404.375 1.77759 0.789428 0
M  V30 4359 C 404.658 2.43006 -2.65744 0
M  V30 4360 C 404.511 1.86581 -4.09277 0
M  V30 4361 C 405.83 3.44943 -2.73318 0
M  V30 4362 H 402.949 0.478012 -0.560957 0
M  V30 4363 H 405.591 0.625977 -1.79392 0
M  V30 4364 H 403.741 3.02072 -2.44305 0
M  V30 4365 H 405.413 1.31792 -4.42073 0
M  V30 4366 H 403.656 1.17268 -4.17649 0
M  V30 4367 H 404.327 2.66933 -4.83168 0
M  V30 4368 H 406.803 2.95793 -2.92653 0
M  V30 4369 H 405.679 4.20153 -3.53218 0
M  V30 4370 H 405.94 4.03665 -1.80296 0
M  V30 4371 N 404.999 1.35443 0.805782 0
M  V30 4372 C 406.248 1.28097 1.55801 0
M  V30 4373 C 406.561 -0.142428 1.95081 0
M  V30 4374 O 407.767 -0.33817 2.69386 0
M  V30 4375 C 406.223 2.24653 2.81174 0
M  V30 4376 C 405.831 3.72342 2.49129 0
M  V30 4377 C 407.575 2.2625 3.59181 0
M  V30 4378 C 405.482 4.60719 3.70799 0
M  V30 4379 H 404.412 0.475937 0.584808 0
M  V30 4380 H 407.063 1.60712 0.885661 0
M  V30 4381 H 405.445 1.85011 3.50124 0
M  V30 4382 H 406.619 4.20624 1.88181 0
M  V30 4383 H 404.934 3.73361 1.84366 0
M  V30 4384 H 407.531 2.89495 4.49552 0
M  V30 4385 H 407.874 1.26647 3.96568 0
M  V30 4386 H 408.407 2.64426 2.97193 0
M  V30 4387 H 405.146 5.61324 3.3852 0
M  V30 4388 H 404.666 4.17163 4.3097 0
M  V30 4389 H 406.345 4.76182 4.38018 0
M  V30 4390 N 406.477 -1.02803 1.19454 0
M  V30 4391 C 407.407 -2.12999 0.956758 0
M  V30 4392 C 408.388 -1.69743 -0.110188 0
M  V30 4393 O 409.573 -1.94148 0.0450038 0
M  V30 4394 C 406.703 -3.43746 0.495553 0
M  V30 4395 C 405.657 -4.00688 1.50443 0
M  V30 4396 C 404.983 -5.27067 0.900275 0
M  V30 4397 C 406.283 -4.35397 2.8849 0
M  V30 4398 H 407.977 -2.33148 1.87836 0
M  V30 4399 H 405.523 -1.12045 0.904539 0
M  V30 4400 H 407.476 -4.2021 0.316493 0
M  V30 4401 H 406.2 -3.23321 -0.461646 0
M  V30 4402 H 404.859 -3.2632 1.67065 0
M  V30 4403 H 404.507 -5.02959 -0.064503 0
M  V30 4404 H 404.207 -5.66127 1.57397 0
M  V30 4405 H 405.731 -6.06196 0.73203 0
M  V30 4406 H 407.145 -5.02795 2.75446 0
M  V30 4407 H 405.542 -4.85541 3.52661 0
M  V30 4408 H 406.612 -3.44662 3.41081 0
M  V30 4409 N 407.956 -0.998596 -1.21925 0
M  V30 4410 C 408.866 -0.562736 -2.27751 0
M  V30 4411 C 409.882 0.391203 -1.69545 0
M  V30 4412 O 411.058 0.256625 -1.99758 0
M  V30 4413 C 408.123 0.11012 -3.46525 0
M  V30 4414 C 407.184 -0.887495 -4.20026 0
M  V30 4415 C 406.417 -0.246654 -5.3313 0
M  V30 4416 O 406.64 0.958088 -5.62296 0
M  V30 4417 O 405.574 -0.954374 -5.94286 0
M  V30 4418 H 409.4 -1.44329 -2.67213 0
M  V30 4419 H 406.985 -0.767135 -1.28201 0
M  V30 4420 H 408.867 0.486756 -4.18579 0
M  V30 4421 H 407.542 0.965154 -3.08976 0
M  V30 4422 H 406.449 -1.31517 -3.5022 0
M  V30 4423 H 407.782 -1.71191 -4.6147 0
M  V30 4424 N 409.434 1.37368 -0.772513 0
M  V30 4425 C 410.682 1.99279 -0.336516 0
M  V30 4426 C 411.003 1.6163 1.09091 0
M  V30 4427 O 410.273 0.882109 1.74916 0
M  V30 4428 H 408.853 0.737063 -0.121435 0
M  V30 4429 H 411.515 1.67836 -0.990809 0
M  V30 4430 H 410.611 3.09332 -0.414763 0
M  V30 4431 N 410.912 0.523116 1.48665 0
M  V30 4432 C 411.845 -0.290518 2.26343 0
M  V30 4433 C 412.823 -0.950913 1.31895 0
M  V30 4434 O 414.007 -0.976662 1.61225 0
M  V30 4435 C 411.134 -1.41088 3.07915 0
M  V30 4436 C 410.18 -0.862597 4.17686 0
M  V30 4437 S 411.013 0.264135 5.34848 0
M  V30 4438 C 412.169 -0.858864 6.19979 0
M  V30 4439 H 412.402 0.368726 2.95005 0
M  V30 4440 H 409.935 0.30878 1.51281 0
M  V30 4441 H 411.893 -2.0527 3.55492 0
M  V30 4442 H 410.554 -2.04182 2.38681 0
M  V30 4443 H 409.747 -1.70287 4.74361 0
M  V30 4444 H 409.349 -0.297595 3.72814 0
M  V30 4445 H 411.641 -1.7591 6.54264 0
M  V30 4446 H 412.584 -0.330244 7.07329 0
M  V30 4447 H 412.992 -1.13617 5.52948 0
M  V30 4448 N 412.39 -1.55475 0.257931 0
M  V30 4449 C 413.636 -1.99502 -0.364266 0
M  V30 4450 C 413.969 -1.146 -1.56782 0
M  V30 4451 O 413.244 -0.211968 -1.93342 0
M  V30 4452 C 413.527 -3.51917 -0.763333 0
M  V30 4453 C 413.38 -4.4758 0.446371 0
M  V30 4454 C 414.699 -4.09742 -1.60623 0
M  V30 4455 H 411.818 -0.725277 -0.130929 0
M  V30 4456 H 414.46 -1.8653 0.361446 0
M  V30 4457 H 412.61 -3.63101 -1.38166 0
M  V30 4458 H 414.282 -4.48362 1.08487 0
M  V30 4459 H 412.525 -4.19947 1.08753 0
M  V30 4460 H 413.196 -5.51862 0.123645 0
M  V30 4461 H 415.672 -4.01727 -1.08418 0
M  V30 4462 H 414.548 -5.16631 -1.85429 0
M  V30 4463 H 414.809 -3.58889 -2.58169 0
M  V30 4464 N 413.868 0.0150385 -1.57593 0
M  V30 4465 C 414.778 1.02791 -2.10882 0
M  V30 4466 C 415.794 1.38702 -1.0506 0
M  V30 4467 O 416.97 1.47739 -1.36877 0
M  V30 4468 C 414.035 2.30568 -2.58919 0
M  V30 4469 C 413.096 2.01108 -3.79281 0
M  V30 4470 C 412.329 3.22794 -4.25018 0
M  V30 4471 O 412.552 4.33959 -3.70183 0
M  V30 4472 O 411.486 3.07672 -5.17322 0
M  V30 4473 H 415.312 0.604973 -2.97613 0
M  V30 4474 H 412.897 0.23292 -1.47573 0
M  V30 4475 H 414.779 3.05662 -2.90084 0
M  V30 4476 H 413.454 2.72129 -1.75293 0
M  V30 4477 H 412.361 1.23537 -3.53114 0
M  V30 4478 H 413.694 1.64394 -4.63935 0
M  V30 4479 N 415.346 1.54954 0.287554 0
M  V30 4480 C 416.309 1.86076 1.33823 0
M  V30 4481 C 417.309 0.734414 1.43049 0
M  V30 4482 O 418.499 1.00266 1.42452 0
M  V30 4483 C 415.631 2.05305 2.72144 0
M  V30 4484 H 416.824 2.79984 1.07465 0
M  V30 4485 H 414.377 1.47223 0.524902 0
M  V30 4486 H 415.112 1.1373 3.03704 0
M  V30 4487 H 414.897 2.873 2.66836 0
M  V30 4488 H 416.387 2.30706 3.48087 0
M  V30 4489 N 416.824 -0.551391 1.4764 0
M  V30 4490 C 418.052 -1.33357 1.58189 0
M  V30 4491 C 418.467 -1.87342 0.234199 0
M  V30 4492 O 417.824 -1.65301 -0.77343 0
M  V30 4493 C 417.875 -2.49942 2.61173 0
M  V30 4494 O 417.596 -1.98187 3.90709 0
M  V30 4495 C 419.097 -3.42072 2.8196 0
M  V30 4496 H 416.317 -0.40631 0.533998 0
M  V30 4497 H 418.861 -0.667367 1.93304 0
M  V30 4498 H 417.016 -3.12489 2.28975 0
M  V30 4499 H 417.43 -2.74342 4.47031 0
M  V30 4500 H 418.904 -4.20278 3.57869 0
M  V30 4501 H 419.381 -3.95978 1.89995 0
M  V30 4502 H 419.987 -2.85336 3.15378 0
M  V30 4503 N 418.302 -1.35869 -0.798587 0
M  V30 4504 C 419.55 -1.29332 -1.55298 0
M  V30 4505 C 419.871 0.129729 -1.94568 0
M  V30 4506 O 419.141 1.06796 -1.6423 0
M  V30 4507 H 417.721 -0.475737 -0.57592 0
M  V30 4508 H 420.383 -1.70062 -0.952093 0
M  V30 4509 H 419.479 -1.91458 -2.46476 0
M  V30 4510 N 419.78 1.02168 -1.19998 0
M  V30 4511 C 420.713 2.10232 -0.887558 0
M  V30 4512 C 421.691 1.61827 0.158317 0
M  V30 4513 O 422.875 1.88471 0.0330249 0
M  V30 4514 C 420.002 3.37092 -0.32964 0
M  V30 4515 C 419.048 4.0438 -1.3557 0
M  V30 4516 S 419.881 4.48956 -2.91888 0
M  V30 4517 C 421.037 5.79024 -2.37658 0
M  V30 4518 H 421.27 2.36409 -1.80272 0
M  V30 4519 H 418.803 1.15211 -1.0279 0
M  V30 4520 H 420.761 4.10498 -0.0142824 0
M  V30 4521 H 419.422 3.08996 0.563941 0
M  V30 4522 H 418.615 4.95632 -0.9146 0
M  V30 4523 H 418.217 3.37176 -1.61828 0
M  V30 4524 H 420.509 6.53942 -1.77103 0
M  V30 4525 H 421.452 6.27924 -3.27287 0
M  V30 4526 H 421.86 5.35043 -1.79971 0
M  V30 4527 N 421.258 1.00505 1.21394 0
M  V30 4528 C 422.486 0.706609 1.9446 0
M  V30 4529 C 422.901 -0.73081 1.74082 0
M  V30 4530 O 422.258 -1.49446 1.04747 0
M  V30 4531 C 422.309 1.01824 3.46863 0
M  V30 4532 O 422.03 2.39919 3.66566 0
M  V30 4533 C 423.531 0.739216 4.37093 0
M  V30 4534 H 420.751 0.260394 0.618414 0
M  V30 4535 H 423.295 1.34311 1.54211 0
M  V30 4536 H 421.45 0.427343 3.85036 0
M  V30 4537 H 421.864 2.50784 4.6066 0
M  V30 4538 H 423.338 1.00744 5.42729 0
M  V30 4539 H 423.815 -0.326746 4.37983 0
M  V30 4540 H 424.421 1.31173 4.04566 0
M  V30 4541 N 422.737 -1.36956 0.779787 0
M  V30 4542 C 423.977 -2.01328 0.353043 0
M  V30 4543 C 424.341 -1.60558 -1.05286 0
M  V30 4544 O 425.542 -2.1745 -1.58016 0
M  V30 4545 C 423.813 -3.53874 0.500822 0
M  V30 4546 S 425.372 -4.38506 0.16053 0
M  V30 4547 H 422.19 -0.69799 0.13539 0
M  V30 4548 H 424.792 -1.67016 1.01617 0
M  V30 4549 H 423.496 -3.81034 1.52451 0
M  V30 4550 H 423.027 -3.92994 -0.178574 0
M  V30 4551 H 425.042 -4.85153 -1.04121 0
M  V30 4552 N 424.215 -0.530993 -1.48385 0
M  V30 4553 C 425.147 0.268353 -2.27624 0
M  V30 4554 C 426.16 0.903525 -1.35426 0
M  V30 4555 O 427.349 0.781796 -1.60469 0
M  V30 4556 C 424.449 1.39535 -3.08842 0
M  V30 4557 C 423.622 0.861913 -4.28824 0
M  V30 4558 C 422.681 1.87016 -4.91845 0
M  V30 4559 O 421.707 1.4267 -5.5103 0
M  V30 4560 N 422.909 3.20238 -4.84178 0
M  V30 4561 H 425.674 -0.41123 -2.96865 0
M  V30 4562 H 423.235 -0.365387 -1.57723 0
M  V30 4563 H 425.227 2.06803 -3.47871 0
M  V30 4564 H 423.797 1.97859 -2.42014 0
M  V30 4565 H 423.017 0.0132126 -3.94198 0
M  V30 4566 H 424.305 0.484415 -5.06489 0
M  V30 4567 H 423.703 3.58932 -4.37246 0
M  V30 4568 H 422.26 3.83136 -5.27305 0
M  V30 4569 N 425.693 1.55336 -0.266172 0
M  V30 4570 C 426.656 2.20878 0.612001 0
M  V30 4571 C 427.656 1.18388 1.08816 0
M  V30 4572 O 428.846 1.4335 0.989774 0
M  V30 4573 C 425.978 2.86765 1.84332 0
M  V30 4574 H 427.171 2.99873 0.0398718 0
M  V30 4575 H 424.724 1.56291 -0.0167309 0
M  V30 4576 H 425.459 2.11759 2.45619 0
M  V30 4577 H 425.244 3.61862 1.5099 0
M  V30 4578 H 426.734 3.36867 2.46801 0
M  V30 4579 N 427.171 -0.0066808 1.57599 0
M  V30 4580 C 428.587 -0.36267 1.55425 0
M  V30 4581 C 428.787 -1.75209 0.995187 0
M  V30 4582 O 427.843 -2.44616 0.626058 0
M  V30 4583 C 429.156 -0.244017 2.99708 0
M  V30 4584 C 430.704 -0.319451 3.11366 0
M  V30 4585 C 431.179 -0.229998 4.57422 0
M  V30 4586 N 432.67 -0.288105 4.62303 0
M  V30 4587 C 433.405 -0.242127 5.72889 0
M  V30 4588 N 432.901 -0.147133 6.92644 0
M  V30 4589 N 434.694 -0.293502 5.61333 0
M  V30 4590 H 426.845 0.902314 1.92281 0
M  V30 4591 H 429.108 0.34525 0.882896 0
M  V30 4592 H 428.814 0.711678 3.44424 0
M  V30 4593 H 428.688 -1.02877 3.629 0
M  V30 4594 H 431.075 -1.26559 2.66584 0
M  V30 4595 H 431.156 0.495055 2.50964 0
M  V30 4596 H 430.8 0.712566 5.02877 0
M  V30 4597 H 430.73 -1.0629 5.15761 0
M  V30 4598 H 433.221 -0.363126 3.76151 0
M  V30 4599 H 433.534 -0.117763 7.7271 0
M  V30 4600 H 431.879 -0.112857 6.94908 0
M  V30 4601 H 435.07 -0.365864 4.66668 0
M  V30 4602 H 435.243 -0.254204 6.47501 0
M  V30 4603 N 428.649 -1.55105 -0.279332 0
M  V30 4604 C 429.874 -1.7976 -1.03446 0
M  V30 4605 C 430.299 -0.565952 -1.79384 0
M  V30 4606 O 429.657 0.484259 -1.74713 0
M  V30 4607 C 429.705 -3.0179 -1.97371 0
M  V30 4608 O 428.809 -2.76432 -3.06038 0
M  V30 4609 H 428.15 -0.594334 -0.29608 0
M  V30 4610 H 430.68 -2.02235 -0.310165 0
M  V30 4611 H 430.69 -3.30351 -2.39441 0
M  V30 4612 H 429.365 -3.91085 -1.4151 0
M  V30 4613 H 427.942 -2.58949 -2.68328 0
M  V30 4614 N 430.127 0.543554 -1.4793 0
M  V30 4615 C 431.352 1.32995 -1.59145 0
M  V30 4616 C 431.777 1.86472 -0.246956 0
M  V30 4617 O 431.135 1.63696 0.779324 0
M  V30 4618 C 431.183 2.46623 -2.63077 0
M  V30 4619 O 430.287 3.49261 -2.19295 0
M  V30 4620 H 429.628 0.394472 -0.534124 0
M  V30 4621 H 432.158 0.655489 -1.93816 0
M  V30 4622 H 432.168 2.93001 -2.83926 0
M  V30 4623 H 430.843 2.07059 -3.60693 0
M  V30 4624 H 429.42 3.09094 -2.08603 0
M  V30 4625 N 431.605 1.3629 0.791371 0
M  V30 4626 C 432.835 1.33368 1.57786 0
M  V30 4627 C 433.243 -0.0875188 1.88997 0
M  V30 4628 O 432.586 -1.05427 1.50435 0
M  V30 4629 C 432.648 2.08802 2.92646 0
M  V30 4630 C 432.312 3.57903 2.84174 0
M  V30 4631 C 433.309 4.52191 2.56553 0
M  V30 4632 C 430.994 4.00762 3.02812 0
M  V30 4633 C 432.988 5.87315 2.47669 0
M  V30 4634 C 430.675 5.35977 2.93551 0
M  V30 4635 C 431.673 6.29066 2.66017 0
M  V30 4636 O 431.361 7.61798 2.56746 0
M  V30 4637 H 431.093 0.459166 0.496128 0
M  V30 4638 H 433.647 1.79952 0.990269 0
M  V30 4639 H 431.877 1.56878 3.53449 0
M  V30 4640 H 433.566 1.98762 3.53904 0
M  V30 4641 H 434.332 4.20393 2.41858 0
M  V30 4642 H 430.211 3.2868 3.2325 0
M  V30 4643 H 433.755 6.59943 2.26099 0
M  V30 4644 H 429.652 5.67384 3.07808 0
M  V30 4645 H 430.42 7.71898 2.72242 0
M  V30 4646 N 433.083 -1.0153 1.20538 0
M  V30 4647 C 434.013 -2.11972 0.979295 0
M  V30 4648 C 434.994 -1.6985 -0.0921787 0
M  V30 4649 O 436.179 -1.94089 0.0655932 0
M  V30 4650 C 433.309 -3.43201 0.531984 0
M  V30 4651 C 432.263 -3.9907 1.54685 0
M  V30 4652 C 431.589 -5.26082 0.956127 0
M  V30 4653 C 432.889 -4.32313 2.93092 0
M  V30 4654 H 434.583 -2.31143 1.90298 0
M  V30 4655 H 432.129 -1.11079 0.916372 0
M  V30 4656 H 434.082 -4.1985 0.361044 0
M  V30 4657 H 432.806 -3.23792 -0.427327 0
M  V30 4658 H 431.465 -3.2453 1.70517 0
M  V30 4659 H 431.113 -5.02999 -0.0111538 0
M  V30 4660 H 430.813 -5.64426 1.63393 0
M  V30 4661 H 432.337 -6.05386 0.796284 0
M  V30 4662 H 433.751 -4.99845 2.80763 0
M  V30 4663 H 432.148 -4.81774 3.57791 0
M  V30 4664 H 433.218 -3.41025 3.44717 0
M  V30 4665 N 434.561 -1.01147 -1.20859 0
M  V30 4666 C 435.807 -0.698899 -1.90377 0
M  V30 4667 C 436.14 0.76904 -1.78324 0
M  V30 4668 O 435.415 1.55817 -1.16409 0
M  V30 4669 C 435.698 -1.12878 -3.41951 0
M  V30 4670 C 435.551 -2.65665 -3.62963 0
M  V30 4671 C 436.87 -0.696114 -4.3456 0
M  V30 4672 H 433.989 -0.255372 -0.691342 0
M  V30 4673 H 436.631 -1.25831 -1.42361 0
M  V30 4674 H 434.781 -0.652827 -3.82976 0
M  V30 4675 H 436.453 -3.21074 -3.31224 0
M  V30 4676 H 434.696 -3.06878 -3.06608 0
M  V30 4677 H 435.367 -2.90797 -4.69192 0
M  V30 4678 H 437.843 -1.10521 -4.01154 0
M  V30 4679 H 436.719 -1.025 -5.39245 0
M  V30 4680 H 436.98 0.402465 -4.40264 0
M  V30 4681 N 436.039 1.36541 -0.78704 0
M  V30 4682 C 437.316 1.9355 -0.282424 0
M  V30 4683 C 437.696 1.71919 1.22503 0
M  V30 4684 O 437.044 1.07677 2.01539 0
M  V30 4685 C 437.254 3.4246 -0.672462 0
M  V30 4686 C 438.602 4.19582 -0.650863 0
M  V30 4687 O 439.626 3.50889 -0.612789 0
M  V30 4688 O 438.485 5.42106 -0.691623 0
M  V30 4689 H 435.579 0.824091 -0.0693 0
M  V30 4690 H 438.125 1.45736 -0.869423 0
M  V30 4691 H 436.897 3.51851 -1.71221 0
M  V30 4692 H 436.52 3.97556 -0.0592211 0
M  V30 4693 N 437.518 0.538854 1.48102 0
M  V30 4694 C 438.428 -0.222648 2.33541 0
M  V30 4695 C 439.444 -0.930225 1.47047 0
M  V30 4696 O 440.62 -0.903211 1.80011 0
M  V30 4697 C 437.685 -1.25064 3.23357 0
M  V30 4698 C 436.746 -0.552469 4.2573 0
M  V30 4699 C 435.979 -1.53149 5.11254 0
M  V30 4700 O 436.202 -2.76487 4.9891 0
M  V30 4701 O 435.136 -1.06602 5.92385 0
M  V30 4702 H 438.962 0.477707 2.99919 0
M  V30 4703 H 436.547 0.299669 1.46364 0
M  V30 4704 H 438.429 -1.8445 3.78888 0
M  V30 4705 H 437.104 -1.93325 2.59629 0
M  V30 4706 H 436.011 0.082114 3.7401 0
M  V30 4707 H 437.344 0.0883526 4.92121 0
M  V30 4708 N 438.996 -1.55193 0.274407 0
M  V30 4709 C 440.242 -1.99877 -0.343086 0
M  V30 4710 C 440.575 -1.16256 -1.55558 0
M  V30 4711 O 439.85 -0.232462 -1.93106 0
M  V30 4712 C 440.133 -3.52706 -0.725965 0
M  V30 4713 C 439.986 -4.47081 0.493818 0
M  V30 4714 C 441.305 -4.11422 -1.56268 0
M  V30 4715 H 438.424 -0.726625 -0.123229 0
M  V30 4716 H 441.066 -1.86136 0.38121 0
M  V30 4717 H 439.216 -3.64546 -1.34307 0
M  V30 4718 H 440.888 -4.47186 1.13237 0
M  V30 4719 H 439.131 -4.1877 1.13201 0
M  V30 4720 H 439.802 -5.51699 0.18217 0
M  V30 4721 H 442.278 -4.02855 -1.04151 0
M  V30 4722 H 441.154 -5.18568 -1.79939 0
M  V30 4723 H 441.415 -3.61607 -2.54348 0
M  V30 4724 N 440.474 -0.00167713 -1.576 0
M  V30 4725 C 441.404 0.988091 -2.11563 0
M  V30 4726 C 442.385 1.35736 -1.02517 0
M  V30 4727 O 443.57 1.44082 -1.30208 0
M  V30 4728 C 440.7 2.27941 -2.62031 0
M  V30 4729 C 439.654 2.0517 -3.75619 0
M  V30 4730 C 438.98 3.4033 -4.12407 0
M  V30 4731 C 440.28 1.41294 -5.02825 0
M  V30 4732 H 441.974 0.538771 -2.94513 0
M  V30 4733 H 439.52 0.257712 -1.41675 0
M  V30 4734 H 441.473 2.97539 -2.9841 0
M  V30 4735 H 440.197 2.74989 -1.76205 0
M  V30 4736 H 438.856 1.37998 -3.39635 0
M  V30 4737 H 438.504 3.85085 -3.23603 0
M  V30 4738 H 438.204 3.25909 -4.88935 0
M  V30 4739 H 439.728 4.1124 -4.51347 0
M  V30 4740 H 441.142 2.00851 -5.36965 0
M  V30 4741 H 439.539 1.37356 -5.84169 0
M  V30 4742 H 440.609 0.382362 -4.8339 0
M  V30 4743 N 441.952 1.55251 0.271103 0
M  V30 4744 C 443.198 1.7713 0.999832 0
M  V30 4745 C 443.553 0.56659 1.83868 0
M  V30 4746 O 442.846 -0.44069 1.86463 0
M  V30 4747 C 443.04 3.01879 1.91321 0
M  V30 4748 C 442.869 4.34368 1.16426 0
M  V30 4749 C 441.639 4.97593 0.879169 0
M  V30 4750 C 443.837 5.1131 0.553749 0
M  V30 4751 N 441.819 6.13813 0.103618 0
M  V30 4752 C 443.19 6.19938 -0.0875442 0
M  V30 4753 C 445.245 4.95754 0.461782 0
M  V30 4754 C 443.948 7.14703 -0.811942 0
M  V30 4755 C 445.974 5.90875 -0.249027 0
M  V30 4756 C 445.336 6.98893 -0.879051 0
M  V30 4757 H 441.435 0.700407 0.347784 0
M  V30 4758 H 444.019 1.92744 0.275314 0
M  V30 4759 H 442.19 2.87637 2.60997 0
M  V30 4760 H 443.922 3.12154 2.57569 0
M  V30 4761 H 440.677 4.58538 1.18491 0
M  V30 4762 H 441.101 6.76455 -0.271543 0
M  V30 4763 H 445.743 4.12342 0.934552 0
M  V30 4764 H 443.461 7.97634 -1.29639 0
M  V30 4765 H 447.047 5.80916 -0.320529 0
M  V30 4766 H 445.927 7.71231 -1.42031 0
M  V30 4767 N 443.43 -0.535701 1.48216 0
M  V30 4768 C 444.678 -1.28928 1.55634 0
M  V30 4769 C 444.999 -1.93645 0.229514 0
M  V30 4770 O 444.269 -1.81038 -0.74846 0
M  V30 4771 H 442.849 -0.47884 0.573342 0
M  V30 4772 H 445.511 -0.623853 1.84646 0
M  V30 4773 H 444.607 -2.07157 2.33436 0
M  V30 4774 N 444.908 -1.36708 -0.784132 0
M  V30 4775 C 445.858 -1.2799 -1.88686 0
M  V30 4776 C 446.842 -0.170282 -1.59996 0
M  V30 4777 O 448.034 -0.403571 -1.72338 0
M  V30 4778 C 445.163 -1.07674 -3.25977 0
M  V30 4779 C 444.249 -2.23127 -3.60659 0
M  V30 4780 N 444.64 -3.48467 -3.66612 0
M  V30 4781 C 442.938 -2.15009 -3.90752 0
M  V30 4782 C 443.639 -4.24525 -3.97685 0
M  V30 4783 N 442.615 -3.53524 -4.12943 0
M  V30 4784 H 446.417 -2.22927 -1.91522 0
M  V30 4785 H 443.931 -1.29503 -0.979933 0
M  V30 4786 H 445.928 -0.995151 -4.04849 0
M  V30 4787 H 444.588 -0.13643 -3.24413 0
M  V30 4788 H 445.599 -3.82534 -3.49125 0
M  V30 4789 H 442.276 -1.28963 -3.97083 0
M  V30 4790 H 443.666 -5.32944 -4.0917 0
M  V30 4791 N 446.386 1.0089 -1.21074 0
M  V30 4792 C 447.802 1.2695 -0.967257 0
M  V30 4793 C 448.002 1.9846 0.348673 0
M  V30 4794 O 447.058 2.28459 1.0753 0
M  V30 4795 C 448.371 2.09697 -2.15517 0
M  V30 4796 C 449.919 2.22937 -2.197 0
M  V30 4797 C 450.394 3.09064 -3.37999 0
M  V30 4798 N 451.885 3.16653 -3.38061 0
M  V30 4799 C 452.62 3.8354 -4.26245 0
M  V30 4800 N 452.116 4.52488 -5.2462 0
M  V30 4801 N 453.909 3.80141 -4.14064 0
M  V30 4802 H 446.06 0.529005 -2.05707 0
M  V30 4803 H 448.323 0.296148 -0.900556 0
M  V30 4804 H 448.029 1.64497 -3.10859 0
M  V30 4805 H 447.903 3.10444 -2.14253 0
M  V30 4806 H 450.29 2.67357 -1.24916 0
M  V30 4807 H 450.371 1.21673 -2.2501 0
M  V30 4808 H 450.015 2.65347 -4.33074 0
M  V30 4809 H 449.945 4.10433 -3.29928 0
M  V30 4810 H 452.436 2.67566 -2.66865 0
M  V30 4811 H 452.749 5.01219 -5.88217 0
M  V30 4812 H 451.094 4.51288 -5.28549 0
M  V30 4813 H 454.285 3.25427 -3.36474 0
M  V30 4814 H 454.458 4.31992 -4.82998 0
M  V30 4815 N 447.864 1.01787 1.20321 0
M  V30 4816 C 449.111 0.707936 1.89722 0
M  V30 4817 C 449.439 -0.762535 1.78929 0
M  V30 4818 O 448.694 -1.56977 1.16861 0
M  V30 4819 C 448.993 1.09076 3.40349 0
M  V30 4820 C 448.659 2.55765 3.71342 0
M  V30 4821 C 447.321 2.95845 3.79511 0
M  V30 4822 C 449.673 3.50723 3.85542 0
M  V30 4823 C 447.001 4.2982 3.99339 0
M  V30 4824 C 449.353 4.84387 4.06881 0
M  V30 4825 C 448.017 5.24172 4.1328 0
M  V30 4826 H 447.287 0.259052 0.694243 0
M  V30 4827 H 449.934 1.27868 1.42555 0
M  V30 4828 H 448.239 0.438453 3.89339 0
M  V30 4829 H 449.936 0.828636 3.92345 0
M  V30 4830 H 446.526 2.2371 3.65584 0
M  V30 4831 H 450.71 3.20916 3.78585 0
M  V30 4832 H 445.966 4.60196 4.02529 0
M  V30 4833 H 450.14 5.57891 4.1681 0
M  V30 4834 H 447.767 6.27997 4.28396 0
M  V30 4835 N 449.342 -1.36122 0.79427 0
M  V30 4836 C 450.57 -2.03362 0.380989 0
M  V30 4837 C 450.985 -1.59881 -1.00416 0
M  V30 4838 O 450.342 -0.790515 -1.6449 0
M  V30 4839 C 450.393 -3.58804 0.440649 0
M  V30 4840 O 450.114 -4.007 1.77118 0
M  V30 4841 C 451.615 -4.43296 0.0186117 0
M  V30 4842 H 448.835 -0.652526 0.156367 0
M  V30 4843 H 451.379 -1.73998 1.07447 0
M  V30 4844 H 449.534 -3.8686 -0.204458 0
M  V30 4845 H 449.948 -4.95309 1.72538 0
M  V30 4846 H 451.422 -5.51887 0.111488 0
M  V30 4847 H 451.899 -4.2684 -1.03461 0
M  V30 4848 H 452.505 -4.20512 0.636395 0
M  V30 4849 N 450.82 -0.546701 -1.47814 0
M  V30 4850 C 452.045 -0.021268 -2.07389 0
M  V30 4851 C 452.47 1.25822 -1.39822 0
M  V30 4852 O 451.828 1.75111 -0.46968 0
M  V30 4853 C 451.876 0.168502 -3.60206 0
M  V30 4854 O 450.98 1.23347 -3.93522 0
M  V30 4855 H 450.321 -0.0466108 -0.662362 0
M  V30 4856 H 452.851 -0.759387 -1.89985 0
M  V30 4857 H 452.861 0.385982 -4.0617 0
M  V30 4858 H 451.536 -0.766075 -4.08784 0
M  V30 4859 H 450.113 0.997319 -3.59316 0
M  V30 4860 N 452.299 1.55045 -0.282633 0
M  V30 4861 C 453.545 2.00056 0.332481 0
M  V30 4862 C 453.878 1.1708 1.54939 0
M  V30 4863 O 453.153 0.2427 1.9298 0
M  V30 4864 C 453.436 3.53086 0.70725 0
M  V30 4865 C 453.289 4.46813 -0.517521 0
M  V30 4866 C 454.608 4.12245 1.54084 0
M  V30 4867 H 451.727 0.727268 0.119373 0
M  V30 4868 H 454.369 1.85932 -0.391076 0
M  V30 4869 H 452.519 3.65253 1.32372 0
M  V30 4870 H 454.191 4.46579 -1.15607 0
M  V30 4871 H 452.434 4.18163 -1.1542 0
M  V30 4872 H 453.105 5.51595 -0.211426 0
M  V30 4873 H 455.581 4.03401 1.02013 0
M  V30 4874 H 454.457 5.19515 1.77186 0
M  V30 4875 H 454.718 3.62951 2.52427 0
M  V30 4876 N 453.777 0.010035 1.57597 0
M  V30 4877 C 454.707 -0.976857 2.12084 0
M  V30 4878 C 455.688 -1.35191 1.03235 0
M  V30 4879 O 456.873 -1.43389 1.3097 0
M  V30 4880 C 454.003 -2.26548 2.63236 0
M  V30 4881 C 452.957 -2.03175 3.76701 0
M  V30 4882 C 452.283 -3.38138 4.14206 0
M  V30 4883 C 453.583 -1.38625 5.03568 0
M  V30 4884 H 455.277 -0.523145 2.94794 0
M  V30 4885 H 452.823 -0.250195 1.4181 0
M  V30 4886 H 454.776 -2.95952 2.99984 0
M  V30 4887 H 453.5 -2.74051 1.77661 0
M  V30 4888 H 452.159 -1.36195 3.40362 0
M  V30 4889 H 451.807 -3.83363 3.25641 0
M  V30 4890 H 451.507 -3.23312 4.90656 0
M  V30 4891 H 453.031 -4.08841 4.53521 0
M  V30 4892 H 454.445 -1.98 5.38023 0
M  V30 4893 H 452.842 -1.34256 5.84889 0
M  V30 4894 H 453.912 -0.356722 4.83586 0
M  V30 4895 N 455.255 -1.55392 -0.262866 0
M  V30 4896 C 456.483 -1.80513 -1.01108 0
M  V30 4897 C 456.898 -0.583533 -1.79556 0
M  V30 4898 O 456.255 0.447585 -1.76926 0
M  V30 4899 C 456.306 -3.03648 -1.96164 0
M  V30 4900 O 456.027 -4.2109 -1.20893 0
M  V30 4901 C 457.528 -3.41448 -2.82715 0
M  V30 4902 H 454.748 -0.601079 -0.298236 0
M  V30 4903 H 457.292 -2.02425 -0.290582 0
M  V30 4904 H 455.447 -2.83832 -2.63663 0
M  V30 4905 H 455.861 -4.90771 -1.85051 0
M  V30 4906 H 457.335 -4.30751 -3.45192 0
M  V30 4907 H 457.812 -2.61308 -3.53008 0
M  V30 4908 H 458.418 -3.63559 -2.20693 0
M  V30 4909 N 456.733 0.527833 -1.48498 0
M  V30 4910 C 457.663 1.64136 -1.66077 0
M  V30 4911 C 458.644 1.62286 -0.509625 0
M  V30 4912 O 459.829 1.79449 -0.742413 0
M  V30 4913 C 456.959 3.02717 -1.70234 0
M  V30 4914 C 455.913 3.19426 -2.8487 0
M  V30 4915 C 455.239 4.5909 -2.74118 0
M  V30 4916 C 456.539 3.01993 -4.26142 0
M  V30 4917 H 458.233 1.4968 -2.593 0
M  V30 4918 H 455.779 0.718654 -1.24785 0
M  V30 4919 H 457.732 3.80491 -1.8112 0
M  V30 4920 H 456.456 3.18201 -0.735911 0
M  V30 4921 H 455.115 2.4407 -2.73542 0
M  V30 4922 H 454.763 4.71413 -1.7544 0
M  V30 4923 H 454.463 4.71214 -3.51042 0
M  V30 4924 H 455.987 5.3896 -2.86974 0
M  V30 4925 H 457.401 3.69558 -4.38292 0
M  V30 4926 H 455.798 3.2561 -5.04082 0
M  V30 4927 H 456.868 1.98396 -4.42456 0
M  V30 4928 N 458.211 1.37122 0.776871 0
M  V30 4929 C 459.121 1.34651 1.9211 0
M  V30 4930 C 460.137 0.246824 1.7224 0
M  V30 4931 O 461.313 0.48134 1.95563 0
M  V30 4932 C 458.378 1.14748 3.2716 0
M  V30 4933 C 457.439 2.34308 3.5972 0
M  V30 4934 C 456.672 2.15345 4.88326 0
M  V30 4935 O 456.895 1.13507 5.58992 0
M  V30 4936 O 455.829 3.03414 5.1983 0
M  V30 4937 H 459.655 2.31013 1.97146 0
M  V30 4938 H 457.24 1.17799 0.918901 0
M  V30 4939 H 459.122 1.05616 4.0795 0
M  V30 4940 H 457.797 0.214562 3.22988 0
M  V30 4941 H 456.704 2.49011 2.79185 0
M  V30 4942 H 458.037 3.26149 3.68629 0
M  V30 4943 N 459.689 -1.00246 1.21608 0
M  V30 4944 C 460.966 -1.71336 0.943568 0
M  V30 4945 C 461.346 -2.03972 -0.543943 0
M  V30 4946 O 460.694 -1.71545 -1.50946 0
M  V30 4947 C 460.904 -2.97094 1.83128 0
M  V30 4948 C 462.252 -3.70071 2.08165 0
M  V30 4949 O 463.276 -3.07081 1.80498 0
M  V30 4950 O 462.135 -4.83376 2.54971 0
M  V30 4951 H 459.229 -0.747386 0.354039 0
M  V30 4952 H 461.775 -1.05967 1.32549 0
M  V30 4953 H 460.547 -2.69407 2.83788 0
M  V30 4954 H 460.17 -3.70204 1.45034 0
M  V30 4955 N 461.167 -1.02423 -1.1978 0
M  V30 4956 C 462.415 -0.716569 -1.8897 0
M  V30 4957 C 462.736 0.756769 -1.79716 0
M  V30 4958 O 462.006 1.5449 -1.20456 0
M  V30 4959 H 460.586 -0.262062 -0.699523 0
M  V30 4960 H 463.248 -1.29747 -1.45436 0
M  V30 4961 H 462.344 -1.00675 -2.95417 0
M  V30 4962 N 462.645 1.35699 -0.801477 0
M  V30 4963 C 463.892 1.98913 -0.379459 0
M  V30 4964 C 464.22 1.63592 1.05204 0
M  V30 4965 O 463.475 0.888563 1.74365 0
M  V30 4966 C 463.774 3.53828 -0.504041 0
M  V30 4967 C 463.44 4.09002 -1.8981 0
M  V30 4968 C 462.102 4.23783 -2.27951 0
M  V30 4969 C 464.454 4.38939 -2.81038 0
M  V30 4970 C 461.782 4.65816 -3.56696 0
M  V30 4971 C 464.134 4.82409 -4.09224 0
M  V30 4972 C 462.798 4.95395 -4.4737 0
M  V30 4973 H 462.068 0.727874 -0.138854 0
M  V30 4974 H 464.715 1.61994 -1.02128 0
M  V30 4975 H 463.02 3.91175 0.221242 0
M  V30 4976 H 464.717 4.00687 -0.158361 0
M  V30 4977 H 461.307 3.97946 -1.59176 0
M  V30 4978 H 465.491 4.27077 -2.52821 0
M  V30 4979 H 460.747 4.74059 -3.86106 0
M  V30 4980 H 464.921 5.04535 -4.80018 0
M  V30 4981 H 462.548 5.27724 -5.47185 0
M  V30 4982 N 464.123 0.554532 1.47522 0
M  V30 4983 C 465.353 0.0342074 2.06572 0
M  V30 4984 C 465.761 -1.26375 1.40805 0
M  V30 4985 O 465.104 -1.7683 0.49769 0
M  V30 4986 C 465.166 -0.235096 3.5873 0
M  V30 4987 C 464.83 0.973024 4.46521 0
M  V30 4988 C 465.827 1.8779 4.848 0
M  V30 4989 C 463.512 1.18694 4.88075 0
M  V30 4990 C 465.506 2.98039 5.63428 0
M  V30 4991 C 463.193 2.29254 5.66468 0
M  V30 4992 C 464.191 3.18757 6.04055 0
M  V30 4993 O 463.879 4.27401 6.8087 0
M  V30 4994 H 463.611 0.041587 0.67472 0
M  V30 4995 H 466.165 0.766748 1.90552 0
M  V30 4996 H 464.395 -1.02191 3.72953 0
M  V30 4997 H 466.084 -0.700477 3.9981 0
M  V30 4998 H 466.85 1.72467 4.53299 0
M  V30 4999 H 462.729 0.49947 4.58286 0
M  V30 5000 H 466.273 3.67926 5.92685 0
M  V30 5001 H 462.17 2.4455 5.97382 0
M  V30 5002 H 462.938 4.25415 6.9926 0
M  V30 5003 N 465.601 -1.54893 0.290851 0
M  V30 5004 C 466.511 -2.26812 -0.59945 0
M  V30 5005 C 467.527 -1.29963 -1.15696 0
M  V30 5006 O 468.703 -1.62928 -1.18391 0
M  V30 5007 C 465.768 -2.98716 -1.75982 0
M  V30 5008 C 464.829 -4.1108 -1.2374 0
M  V30 5009 C 464.062 -4.79546 -2.34246 0
M  V30 5010 O 464.285 -4.47309 -3.53936 0
M  V30 5011 O 463.219 -5.67165 -2.01512 0
M  V30 5012 H 467.045 -3.03696 -0.0163561 0
M  V30 5013 H 464.63 -1.49289 0.0576755 0
M  V30 5014 H 466.512 -3.43851 -2.43607 0
M  V30 5015 H 465.187 -2.24737 -2.3297 0
M  V30 5016 H 464.094 -3.70367 -0.527163 0
M  V30 5017 H 465.427 -4.87007 -0.71307 0
M  V30 5018 N 467.08 -0.0183926 -1.57589 0
M  V30 5019 C 468.326 0.663543 -1.91638 0
M  V30 5020 C 468.659 1.72392 -0.894134 0
M  V30 5021 O 467.934 1.94316 0.0846449 0
M  V30 5022 C 468.217 1.28984 -3.36207 0
M  V30 5023 C 468.07 0.239761 -4.49161 0
M  V30 5024 C 469.389 2.2109 -3.80536 0
M  V30 5025 H 466.508 0.239746 -0.696915 0
M  V30 5026 H 469.15 -0.073456 -1.89858 0
M  V30 5027 H 467.3 1.91799 -3.37854 0
M  V30 5028 H 468.972 -0.390119 -4.59647 0
M  V30 5029 H 467.215 -0.435972 -4.31604 0
M  V30 5030 H 467.886 0.717383 -5.47319 0
M  V30 5031 H 470.362 1.68273 -3.80557 0
M  V30 5032 H 469.238 2.61869 -4.82406 0
M  V30 5033 H 469.499 3.09764 -3.15434 0
M  V30 5034 N 468.558 1.5553 0.254621 0
M  V30 5035 C 469.835 1.6774 1.00611 0
M  V30 5036 C 470.215 0.555993 2.03647 0
M  V30 5037 O 469.563 -0.441583 2.24193 0
M  V30 5038 C 469.773 3.07725 1.6464 0
M  V30 5039 C 471.121 3.66074 2.15116 0
M  V30 5040 O 472.145 3.10476 1.74595 0
M  V30 5041 O 471.004 4.63526 2.89493 0
M  V30 5042 H 468.098 0.681958 0.467828 0
M  V30 5043 H 470.644 1.67863 0.24902 0
M  V30 5044 H 469.416 3.80792 0.900734 0
M  V30 5045 H 469.039 3.1158 2.46989 0
M  V30 5046 N 470.036 -0.519951 1.48776 0
M  V30 5047 C 471.266 -1.29783 1.60748 0
M  V30 5048 C 471.674 -1.87253 0.27072 0
M  V30 5049 O 471.017 -1.67628 -0.751438 0
M  V30 5050 C 471.079 -2.47984 2.60277 0
M  V30 5051 C 470.743 -2.11526 4.051 0
M  V30 5052 C 471.74 -1.66608 4.92481 0
M  V30 5053 C 469.425 -2.21742 4.50706 0
M  V30 5054 C 471.419 -1.32384 6.23501 0
M  V30 5055 C 469.106 -1.87129 5.81744 0
M  V30 5056 C 470.104 -1.42523 6.67964 0
M  V30 5057 O 469.792 -1.0837 7.96562 0
M  V30 5058 H 469.524 -0.400562 0.544542 0
M  V30 5059 H 472.078 -0.632879 1.95407 0
M  V30 5060 H 470.308 -3.17493 2.2076 0
M  V30 5061 H 471.997 -3.10036 2.61978 0
M  V30 5062 H 472.763 -1.58178 4.58481 0
M  V30 5063 H 468.642 -2.55415 3.83776 0
M  V30 5064 H 472.186 -0.974949 6.90754 0
M  V30 5065 H 468.083 -1.95204 6.15277 0
M  V30 5066 H 468.851 -1.21681 8.09405 0
M  V30 5067 N 471.514 -1.37532 -0.769588 0
M  V30 5068 C 472.477 -1.33292 -1.86456 0
M  V30 5069 C 473.477 -0.236537 -1.59051 0
M  V30 5070 O 474.667 -0.492511 -1.67093 0
M  V30 5071 C 471.799 -1.07118 -3.23633 0
M  V30 5072 H 472.992 -2.30692 -1.91628 0
M  V30 5073 H 470.545 -1.22593 -0.969572 0
M  V30 5074 H 471.28 -0.102578 -3.24138 0
M  V30 5075 H 471.065 -1.86479 -3.44917 0
M  V30 5076 H 472.555 -1.06806 -4.03711 0
M  V30 5077 N 472.992 0.995999 -1.22138 0
M  V30 5078 C 474.217 1.77601 -1.0711 0
M  V30 5079 C 474.642 1.84339 0.374264 0
M  V30 5080 O 474 1.29359 1.27028 0
M  V30 5081 C 474.048 3.18897 -1.68336 0
M  V30 5082 O 473.152 4.01663 -0.934928 0
M  V30 5083 H 472.493 0.547011 -0.376397 0
M  V30 5084 H 475.023 1.25137 -1.6187 0
M  V30 5085 H 475.033 3.69539 -1.72931 0
M  V30 5086 H 473.708 3.13308 -2.73516 0
M  V30 5087 H 472.285 3.60204 -0.964751 0
M  V30 5088 N 474.47 1.03057 1.19235 0
M  V30 5089 C 475.717 0.728019 1.88961 0
M  V30 5090 C 476.045 -0.743515 1.79728 0
M  V30 5091 O 475.3 -1.55729 1.1852 0
M  V30 5092 C 475.599 1.1268 3.39172 0
M  V30 5093 C 475.265 2.5969 3.68608 0
M  V30 5094 C 473.927 2.99854 3.76352 0
M  V30 5095 C 476.279 3.54793 3.81801 0
M  V30 5096 C 473.607 4.34031 3.94758 0
M  V30 5097 C 475.959 4.88675 4.0172 0
M  V30 5098 C 474.623 5.28526 4.07697 0
M  V30 5099 H 473.893 0.266401 0.691456 0
M  V30 5100 H 476.54 1.29373 1.41191 0
M  V30 5101 H 474.845 0.479722 3.88852 0
M  V30 5102 H 476.542 0.870203 3.91444 0
M  V30 5103 H 473.132 2.27575 3.63191 0
M  V30 5104 H 477.316 3.24914 3.7516 0
M  V30 5105 H 472.572 4.6444 3.97625 0
M  V30 5106 H 476.746 5.6228 4.1087 0
M  V30 5107 H 474.373 6.32506 4.21712 0
M  V30 5108 N 475.948 -1.35272 0.808662 0
M  V30 5109 C 476.898 -2.27181 0.193124 0
M  V30 5110 C 477.882 -1.47871 -0.634265 0
M  V30 5111 O 479.074 -1.70048 -0.491182 0
M  V30 5112 C 476.203 -3.36979 -0.655751 0
M  V30 5113 C 475.289 -4.23712 0.181481 0
M  V30 5114 N 475.68 -4.90225 1.24551 0
M  V30 5115 C 473.978 -4.45985 -0.0365493 0
M  V30 5116 C 474.679 -5.54537 1.75682 0
M  V30 5117 N 473.655 -5.33107 1.06294 0
M  V30 5118 H 477.457 -2.76101 1.00724 0
M  V30 5119 H 474.971 -1.48823 0.650029 0
M  V30 5120 H 476.968 -4.01774 -1.11279 0
M  V30 5121 H 475.628 -2.89611 -1.46819 0
M  V30 5122 H 476.639 -4.91641 1.62818 0
M  V30 5123 H 473.316 -4.09409 -0.817964 0
M  V30 5124 H 474.706 -6.17597 2.64621 0
M  V30 5125 N 477.426 -0.562348 -1.47226 0
M  V30 5126 C 478.336 0.185466 -2.33866 0
M  V30 5127 C 479.352 0.906713 -1.48508 0
M  V30 5128 O 480.528 0.874458 -1.81425 0
M  V30 5129 C 477.593 1.19904 -3.25306 0
M  V30 5130 C 476.654 0.484669 -4.26555 0
M  V30 5131 C 475.887 1.44996 -5.13626 0
M  V30 5132 O 476.11 2.68515 -5.03245 0
M  V30 5133 O 475.044 0.971642 -5.94006 0
M  V30 5134 H 478.87 -0.525361 -2.99121 0
M  V30 5135 H 476.455 -0.322916 -1.45868 0
M  V30 5136 H 478.337 1.78399 -3.81774 0
M  V30 5137 H 477.012 1.8917 -2.62672 0
M  V30 5138 H 475.919 -0.141605 -3.73832 0
M  V30 5139 H 477.252 -0.166634 -4.91918 0
M  V30 5140 N 478.904 1.54736 -0.299062 0
M  V30 5141 C 480.132 2.04512 0.313447 0
M  V30 5142 C 480.547 1.17643 1.47667 0
M  V30 5143 O 479.904 0.20164 1.81383 0
M  V30 5144 C 479.955 3.53171 0.771542 0
M  V30 5145 O 479.676 4.36736 -0.345379 0
M  V30 5146 C 481.177 4.18936 1.4494 0
M  V30 5147 H 478.397 0.667507 0.0683784 0
M  V30 5148 H 480.941 1.99752 -0.438129 0
M  V30 5149 H 479.096 3.58298 1.47314 0
M  V30 5150 H 479.51 5.24499 0.0109219 0
M  V30 5151 H 480.984 5.24482 1.72111 0
M  V30 5152 H 481.461 3.68554 2.38883 0
M  V30 5153 H 482.067 4.17879 0.791028 0
M  V30 5154 N 480.382 0.0267497 1.57577 0
M  V30 5155 C 481.629 -0.652404 1.91703 0
M  V30 5156 C 481.957 -1.72271 0.902936 0
M  V30 5157 O 481.212 -1.955 -0.0884843 0
M  V30 5158 C 481.511 -1.30914 3.3256 0
M  V30 5159 C 481.177 -0.369441 4.49384 0
M  V30 5160 C 479.839 -0.110791 4.81072 0
M  V30 5161 C 482.191 0.275971 5.20469 0
M  V30 5162 C 479.519 0.801116 5.81205 0
M  V30 5163 C 481.871 1.17592 6.21575 0
M  V30 5164 C 480.535 1.44348 6.51705 0
M  V30 5165 H 479.805 -0.238732 0.70149 0
M  V30 5166 H 482.452 0.0880091 1.91298 0
M  V30 5167 H 480.757 -2.12425 3.29216 0
M  V30 5168 H 482.454 -1.84115 3.56234 0
M  V30 5169 H 479.044 -0.581211 4.24641 0
M  V30 5170 H 483.228 0.0892 4.9622 0
M  V30 5171 H 478.484 1.01614 6.02897 0
M  V30 5172 H 482.658 1.68223 6.75777 0
M  V30 5173 H 480.285 2.15176 7.29111 0
M  V30 5174 N 481.861 -1.55662 -0.24637 0
M  V30 5175 C 482.771 -1.93495 -1.32653 0
M  V30 5176 C 483.787 -0.835462 -1.5263 0
M  V30 5177 O 484.963 -1.1369 -1.66242 0
M  V30 5178 C 482.028 -2.22242 -2.66101 0
M  V30 5179 C 481.089 -3.45625 -2.54641 0
M  V30 5180 C 480.322 -3.72991 -3.81724 0
M  V30 5181 O 480.545 -3.02421 -4.8363 0
M  V30 5182 O 479.479 -4.66515 -3.80325 0
M  V30 5183 H 483.305 -2.85498 -1.03559 0
M  V30 5184 H 480.89 -1.42551 -0.44717 0
M  V30 5185 H 482.772 -2.42037 -3.44958 0
M  V30 5186 H 481.447 -1.33417 -2.94926 0
M  V30 5187 H 480.354 -3.31136 -1.74067 0
M  V30 5188 H 481.687 -4.34754 -2.3076 0
M  V30 5189 N 483.339 0.512053 -1.4905 0
M  V30 5190 C 484.585 1.26874 -1.58212 0
M  V30 5191 C 484.918 1.9241 -0.263073 0
M  V30 5192 O 484.193 1.80181 0.732476 0
M  V30 5193 C 484.476 2.34428 -2.73341 0
M  V30 5194 C 484.329 1.73466 -4.15006 0
M  V30 5195 C 485.648 3.36073 -2.84154 0
M  V30 5196 H 482.767 0.459924 -0.575881 0
M  V30 5197 H 485.409 0.568587 -1.81293 0
M  V30 5198 H 483.559 2.94146 -2.53792 0
M  V30 5199 H 485.231 1.17661 -4.46042 0
M  V30 5200 H 483.474 1.03921 -4.21168 0
M  V30 5201 H 484.145 2.51426 -4.91415 0
M  V30 5202 H 486.621 2.86332 -3.01916 0
M  V30 5203 H 485.497 4.08703 -3.66406 0
M  V30 5204 H 485.758 3.97725 -1.93048 0
M  V30 5205 N 484.817 1.37938 0.762283 0
M  V30 5206 C 486.228 1.30094 1.33912 0
M  V30 5207 C 486.579 -0.0472026 1.96143 0
M  V30 5208 O 485.704 -0.94917 1.94473 0
M  V30 5209 C 486.299 2.35592 2.43478 0
M  V30 5210 C 484.858 2.31353 2.96905 0
M  V30 5211 C 484.005 2.18919 1.70205 0
M  V30 5212 H 486.956 1.48423 0.561816 0
M  V30 5213 H 486.977 2.00806 3.23199 0
M  V30 5214 H 486.489 3.33701 1.98155 0
M  V30 5215 H 484.59 1.36799 3.46579 0
M  V30 5216 H 484.703 3.25147 3.51875 0
M  V30 5217 H 483.067 1.65624 1.93496 0
M  V30 5218 H 483.85 3.18956 1.26973 0
M  V30 5219 N 486.295 -0.989507 1.22664 0
M  V30 5220 C 487.523 -1.76496 1.07967 0
M  V30 5221 C 487.938 -1.85148 -0.369543 0
M  V30 5222 O 487.295 -1.32408 -1.25596 0
M  V30 5223 C 487.346 -3.19642 1.68853 0
M  V30 5224 O 487.067 -3.11453 3.08105 0
M  V30 5225 C 488.568 -4.13621 1.59475 0
M  V30 5226 H 485.788 -0.55418 0.378319 0
M  V30 5227 H 488.332 -1.24378 1.62328 0
M  V30 5228 H 486.487 -3.68816 1.18547 0
M  V30 5229 H 486.901 -4.01499 3.37489 0
M  V30 5230 H 488.375 -5.11801 2.06795 0
M  V30 5231 H 488.852 -4.35718 0.55191 0
M  V30 5232 H 489.458 -3.70346 2.09103 0
M  V30 5233 N 487.773 -1.03688 -1.18687 0
M  V30 5234 C 489.184 -0.766488 -1.70241 0
M  V30 5235 C 489.535 0.713052 -1.82784 0
M  V30 5236 O 488.66 1.55529 -1.50465 0
M  V30 5237 C 489.255 -1.38475 -3.09209 0
M  V30 5238 C 487.814 -1.16276 -3.5799 0
M  V30 5239 C 486.961 -1.4778 -2.34641 0
M  V30 5240 H 489.912 -1.20378 -1.03415 0
M  V30 5241 H 489.933 -0.785939 -3.72295 0
M  V30 5242 H 489.445 -2.46157 -3.00048 0
M  V30 5243 H 487.546 -0.104508 -3.72453 0
M  V30 5244 H 487.659 -1.8571 -4.41643 0
M  V30 5245 H 486.023 -0.897366 -2.38368 0
M  V30 5246 H 486.806 -2.56562 -2.28102 0
M  V30 5247 N 489.251 1.34841 -0.815825 0
M  V30 5248 C 490.476 2.03261 -0.41226 0
M  V30 5249 C 490.901 1.61055 0.971751 0
M  V30 5250 O 490.259 0.7917 1.63101 0
M  V30 5251 C 490.307 3.56914 -0.514289 0
M  V30 5252 O 489.411 4.09728 0.468675 0
M  V30 5253 H 488.752 0.641664 -0.170771 0
M  V30 5254 H 491.282 1.72241 -1.10427 0
M  V30 5255 H 491.292 4.06156 -0.387457 0
M  V30 5256 H 489.967 3.86982 -1.52375 0
M  V30 5257 H 488.544 3.71681 0.301316 0
M  V30 5258 N 490.729 0.570148 1.46925 0
M  V30 5259 C 491.969 0.0534743 2.0433 0
M  V30 5260 C 492.333 -1.27729 1.4335 0
M  V30 5261 O 493.534 -1.88244 1.91879 0
M  V30 5262 C 491.805 -0.0244296 3.57392 0
M  V30 5263 S 493.364 -0.485351 4.36108 0
M  V30 5264 H 490.182 0.0313908 0.710307 0
M  V30 5265 H 492.784 0.759808 1.80131 0
M  V30 5266 H 491.488 0.948261 3.99295 0
M  V30 5267 H 491.019 -0.753922 3.86108 0
M  V30 5268 H 493.034 -1.74258 4.64595 0
M  V30 5269 N 492.207 -1.54576 0.307264 0
M  V30 5270 C 493.432 -2.05139 -0.305379 0
M  V30 5271 C 493.857 -1.18278 -1.46259 0
M  V30 5272 O 493.215 -0.188243 -1.8032 0
M  V30 5273 C 493.263 -3.53066 -0.733283 0
M  V30 5274 O 492.367 -3.69206 -1.83741 0
M  V30 5275 H 491.708 -0.661444 -0.0582105 0
M  V30 5276 H 494.238 -1.99569 0.450931 0
M  V30 5277 H 494.248 -3.95034 -1.02039 0
M  V30 5278 H 492.923 -4.15746 0.113198 0
M  V30 5279 H 491.5 -3.39143 -1.55037 0
M  V30 5280 N 493.685 -0.035106 -1.57561 0
M  V30 5281 C 494.648 0.929819 -2.09492 0
M  V30 5282 C 495.648 1.25026 -1.01119 0
M  V30 5283 O 496.838 1.18961 -1.27255 0
M  V30 5284 C 493.97 2.24457 -2.56577 0
M  V30 5285 H 495.163 0.479935 -2.96035 0
M  V30 5286 H 492.716 0.213033 -1.54841 0
M  V30 5287 H 493.451 2.74061 -1.73382 0
M  V30 5288 H 493.236 2.02508 -3.35757 0
M  V30 5289 H 494.726 2.93607 -2.96959 0
M  V30 5290 N 495.163 1.55791 0.238111 0
M  V30 5291 C 496.579 1.48411 0.587045 0
M  V30 5292 C 496.779 0.72702 1.87927 0
M  V30 5293 O 495.835 0.259942 2.51158 0
M  V30 5294 C 497.148 2.92873 0.681623 0
M  V30 5295 C 498.696 3.03295 0.773363 0
M  V30 5296 C 499.171 4.49082 0.899428 0
M  V30 5297 N 500.662 4.53056 0.964075 0
M  V30 5298 C 501.397 5.63117 1.08104 0
M  V30 5299 N 500.893 6.82969 1.16299 0
M  V30 5300 N 502.686 5.50933 1.11488 0
M  V30 5301 H 494.837 2.0345 -0.610076 0
M  V30 5302 H 497.1 0.924034 -0.211813 0
M  V30 5303 H 496.806 3.51142 -0.19802 0
M  V30 5304 H 496.68 3.43851 1.55069 0
M  V30 5305 H 499.067 2.45101 1.64346 0
M  V30 5306 H 499.148 2.55513 -0.121034 0
M  V30 5307 H 498.792 5.07889 0.0338586 0
M  V30 5308 H 498.722 4.94553 1.809 0
M  V30 5309 H 501.213 3.66737 0.91173 0
M  V30 5310 H 501.526 7.62598 1.25155 0
M  V30 5311 H 499.871 6.85712 1.13241 0
M  V30 5312 H 503.062 4.56231 1.0474 0
M  V30 5313 H 503.235 6.36743 1.20259 0
M  V30 5314 N 496.642 -0.504142 1.49319 0
M  V30 5315 C 497.552 -1.63248 1.68486 0
M  V30 5316 C 498.568 -1.64488 0.567432 0
M  V30 5317 O 499.744 -1.82966 0.841749 0
M  V30 5318 C 496.809 -2.99627 1.74426 0
M  V30 5319 C 495.87 -3.09039 2.97982 0
M  V30 5320 C 495.103 -4.38913 3.0363 0
M  V30 5321 O 495.326 -5.27528 2.16958 0
M  V30 5322 O 494.26 -4.53231 3.96062 0
M  V30 5323 H 498.086 -1.50008 2.64067 0
M  V30 5324 H 495.671 -0.680086 1.33023 0
M  V30 5325 H 497.553 -3.80689 1.80705 0
M  V30 5326 H 496.228 -3.13136 0.820233 0
M  V30 5327 H 495.135 -2.27177 2.97223 0
M  V30 5328 H 496.468 -3.00456 3.89855 0
M  V30 5329 N 498.12 -1.38341 -0.754957 0
M  V30 5330 C 499.05 -1.38176 -1.88227 0
M  V30 5331 C 500.031 -0.247873 -1.68284 0
M  V30 5332 O 501.216 -0.45075 -1.88896 0
M  V30 5333 C 498.346 -1.20471 -3.25736 0
M  V30 5334 C 497.3 -2.3105 -3.60278 0
M  V30 5335 C 496.626 -1.98452 -4.96509 0
M  V30 5336 C 497.926 -3.73305 -3.65295 0
M  V30 5337 H 499.62 -2.32512 -1.88622 0
M  V30 5338 H 497.166 -1.1192 -0.906082 0
M  V30 5339 H 499.119 -1.18982 -4.04254 0
M  V30 5340 H 497.843 -0.225965 -3.25817 0
M  V30 5341 H 496.502 -2.31723 -2.84078 0
M  V30 5342 H 496.15 -0.990641 -4.93148 0
M  V30 5343 H 495.85 -2.7251 -5.20588 0
M  V30 5344 H 497.374 -1.98578 -5.77407 0
M  V30 5345 H 498.788 -3.7467 -4.3393 0
M  V30 5346 H 497.185 -4.46557 -4.00883 0
M  V30 5347 H 498.255 -4.05719 -2.65556 0
M  V30 5348 N 499.598 0.982988 -1.23187 0
M  V30 5349 C 500.561 2.05649 -1.01198 0
M  V30 5350 C 501.561 1.6078 0.0252464 0
M  V30 5351 O 502.751 1.72878 -0.214243 0
M  V30 5352 C 499.883 3.36744 -0.530656 0
M  V30 5353 H 501.076 2.2659 -1.96461 0
M  V30 5354 H 498.629 1.15602 -1.05195 0
M  V30 5355 H 499.364 3.21492 0.425873 0
M  V30 5356 H 499.149 3.7065 -1.2791 0
M  V30 5357 H 500.639 4.15705 -0.397366 0
M  V30 5358 N 501.076 1.04316 1.18135 0
M  V30 5359 C 501.986 0.646876 2.25505 0
M  V30 5360 C 503.002 -0.328008 1.7088 0
M  V30 5361 O 504.178 -0.182309 2.00573 0
M  V30 5362 C 501.243 0.0185664 3.46695 0
M  V30 5363 C 500.304 1.04277 4.16443 0
M  V30 5364 C 499.537 0.444352 5.31847 0
M  V30 5365 O 499.76 -0.748735 5.65465 0
M  V30 5366 O 498.694 1.17428 5.90334 0
M  V30 5367 H 502.52 1.54147 2.61672 0
M  V30 5368 H 500.105 0.814188 1.25265 0
M  V30 5369 H 501.987 -0.331068 4.20097 0
M  V30 5370 H 500.662 -0.849814 3.12346 0
M  V30 5371 H 499.569 1.44425 3.45098 0
M  V30 5372 H 500.902 1.882 4.54798 0
M  V30 5373 N 502.554 -1.34406 0.822964 0
M  V30 5374 C 503.517 -2.2783 0.250271 0
M  V30 5375 C 504.517 -1.50288 -0.571854 0
M  V30 5376 O 505.707 -1.69825 -0.387952 0
M  V30 5377 C 502.839 -3.34663 -0.649137 0
M  V30 5378 H 504.032 -2.79992 1.07444 0
M  V30 5379 H 501.585 -1.44539 0.594829 0
M  V30 5380 H 502.32 -2.87714 -1.49637 0
M  V30 5381 H 502.105 -3.92052 -0.0611199 0
M  V30 5382 H 503.595 -4.04349 -1.04363 0
M  V30 5383 N 504.032 -0.577932 -1.46621 0
M  V30 5384 C 504.995 0.147805 -2.28723 0
M  V30 5385 C 505.995 0.823325 -1.38123 0
M  V30 5386 O 507.185 0.676011 -1.60548 0
M  V30 5387 C 504.317 1.21853 -3.18378 0
M  V30 5388 H 505.51 -0.573654 -2.94362 0
M  V30 5389 H 503.063 -0.335703 -1.52652 0
M  V30 5390 H 503.798 1.97173 -2.57475 0
M  V30 5391 H 503.583 0.738714 -3.85078 0
M  V30 5392 H 505.073 1.72768 -3.80186 0
M  V30 5393 N 505.51 1.54411 -0.315457 0
M  V30 5394 C 506.473 2.22713 0.54142 0
M  V30 5395 C 507.473 1.2179 1.04995 0
M  V30 5396 O 508.663 1.46426 0.943667 0
M  V30 5397 C 505.795 2.92485 1.75116 0
M  V30 5398 H 506.988 2.99849 -0.0555508 0
M  V30 5399 H 504.541 1.56159 -0.0664453 0
M  V30 5400 H 505.276 2.19466 2.38758 0
M  V30 5401 H 505.061 3.66483 1.39401 0
M  V30 5402 H 506.551 3.44548 2.35959 0
M  V30 5403 N 506.988 0.0434614 1.5754 0
M  V30 5404 C 508.404 -0.313039 1.565 0
M  V30 5405 C 508.604 -1.71954 1.05043 0
M  V30 5406 O 507.66 -2.425 0.703564 0
M  V30 5407 C 508.973 -0.148544 3.00333 0
M  V30 5408 C 510.521 -0.220231 3.12224 0
M  V30 5409 C 510.996 -0.0843565 4.57922 0
M  V30 5410 N 512.487 -0.140881 4.62986 0
M  V30 5411 C 513.222 -0.0597443 5.73369 0
M  V30 5412 N 512.718 0.0733004 6.92761 0
M  V30 5413 N 514.511 -0.11477 5.61983 0
M  V30 5414 H 506.662 0.96303 1.89313 0
M  V30 5415 H 508.925 0.373164 0.871466 0
M  V30 5416 H 508.631 0.820894 3.41986 0
M  V30 5417 H 508.505 -0.912798 3.65989 0
M  V30 5418 H 510.892 -1.18014 2.70475 0
M  V30 5419 H 510.973 0.574646 2.49262 0
M  V30 5420 H 510.617 0.872192 5.00355 0
M  V30 5421 H 510.547 -0.898281 5.18882 0
M  V30 5422 H 513.038 -0.243273 3.77116 0
M  V30 5423 H 513.351 0.128128 7.72694 0
M  V30 5424 H 511.696 0.10828 6.94916 0
M  V30 5425 H 514.887 -0.217212 4.67596 0
M  V30 5426 H 515.06 -0.0480779 6.47982 0
M  V30 5427 N 508.466 -1.55915 -0.229846 0
M  V30 5428 C 509.396 -1.94754 -1.28815 0
M  V30 5429 C 510.377 -0.814657 -1.49323 0
M  V30 5430 O 511.562 -1.07631 -1.61645 0
M  V30 5431 C 508.692 -2.25705 -2.63959 0
M  V30 5432 C 507.646 -3.41406 -2.5812 0
M  V30 5433 C 506.972 -3.57941 -3.97218 0
M  V30 5434 C 508.272 -4.76616 -2.13623 0
M  V30 5435 H 509.966 -2.83404 -0.965547 0
M  V30 5436 H 507.512 -1.36353 -0.463028 0
M  V30 5437 H 509.465 -2.51467 -3.38146 0
M  V30 5438 H 508.189 -1.339 -2.9789 0
M  V30 5439 H 506.848 -3.1568 -1.86391 0
M  V30 5440 H 506.496 -2.63526 -4.28443 0
M  V30 5441 H 506.196 -4.35757 -3.94195 0
M  V30 5442 H 507.72 -3.86042 -4.73079 0
M  V30 5443 H 509.134 -5.01637 -2.77549 0
M  V30 5444 H 507.531 -5.57655 -2.21677 0
M  V30 5445 H 508.601 -4.7253 -1.08829 0
M  V30 5446 N 509.944 0.496216 -1.49584 0
M  V30 5447 C 511.221 1.25755 -1.49816 0
M  V30 5448 C 511.601 2.09859 -0.228572 0
M  V30 5449 O 510.949 2.14449 0.788908 0
M  V30 5450 C 511.159 2.11017 -2.7798 0
M  V30 5451 C 512.507 2.70047 -3.27658 0
M  V30 5452 O 513.531 2.21281 -2.79129 0
M  V30 5453 O 512.39 3.58834 -4.1219 0
M  V30 5454 H 509.484 0.569322 -0.599834 0
M  V30 5455 H 512.03 0.510094 -1.61852 0
M  V30 5456 H 510.802 1.48879 -3.61871 0
M  V30 5457 H 510.425 2.92947 -2.68827 0
M  V30 5458 N 511.423 1.38739 0.74761 0
M  V30 5459 C 512.386 1.36241 1.84312 0
M  V30 5460 C 513.386 0.261811 1.58654 0
M  V30 5461 O 514.576 0.519031 1.66288 0
M  V30 5462 C 511.708 1.12253 3.21888 0
M  V30 5463 H 512.901 2.33712 1.87933 0
M  V30 5464 H 510.454 1.2412 0.949946 0
M  V30 5465 H 511.189 0.154133 3.23934 0
M  V30 5466 H 510.974 1.91943 3.41907 0
M  V30 5467 H 512.464 1.13215 4.0196 0
M  V30 5468 N 512.901 -0.976442 1.23707 0
M  V30 5469 C 513.851 -2.0544 0.988851 0
M  V30 5470 C 514.835 -1.60762 -0.0665901 0
M  V30 5471 O 516.027 -1.76396 0.14604 0
M  V30 5472 C 513.156 -3.38258 0.586223 0
M  V30 5473 C 512.242 -3.89523 1.67728 0
M  V30 5474 N 512.633 -4.13823 2.90834 0
M  V30 5475 C 510.931 -4.18097 1.55277 0
M  V30 5476 C 511.632 -4.55731 3.61502 0
M  V30 5477 N 510.608 -4.60394 2.8903 0
M  V30 5478 H 514.41 -2.22191 1.92376 0
M  V30 5479 H 511.924 -1.15954 1.13704 0
M  V30 5480 H 513.921 -4.15075 0.389658 0
M  V30 5481 H 512.581 -3.22898 -0.341594 0
M  V30 5482 H 513.592 -4.01529 3.271 0
M  V30 5483 H 510.269 -4.11719 0.692351 0
M  V30 5484 H 511.659 -4.83018 4.67059 0
M  V30 5485 N 514.379 -1.04941 -1.1758 0
M  V30 5486 C 515.309 -0.669172 -2.23706 0
M  V30 5487 C 516.29 0.331835 -1.66832 0
M  V30 5488 O 517.475 0.209988 -1.93061 0
M  V30 5489 C 514.605 -0.0404889 -3.47276 0
M  V30 5490 C 513.559 -0.965983 -4.16957 0
M  V30 5491 C 512.885 -0.201312 -5.34321 0
M  V30 5492 C 514.185 -2.28902 -4.69469 0
M  V30 5493 H 515.879 -1.55639 -2.55767 0
M  V30 5494 H 513.425 -0.749793 -1.22939 0
M  V30 5495 H 515.378 0.237298 -4.20731 0
M  V30 5496 H 514.102 0.881658 -3.14475 0
M  V30 5497 H 512.761 -1.22829 -3.45411 0
M  V30 5498 H 512.409 0.723519 -4.97769 0
M  V30 5499 H 512.109 -0.817968 -5.81879 0
M  V30 5500 H 513.633 0.0692499 -6.10561 0
M  V30 5501 H 515.047 -2.07132 -5.34574 0
M  V30 5502 H 513.444 -2.85942 -5.27596 0
M  V30 5503 H 514.514 -2.92937 -3.86414 0
M  V30 5504 N 515.857 1.33968 -0.830081 0
M  V30 5505 C 517.087 2.01987 -0.434142 0
M  V30 5506 C 517.495 1.62639 0.96671 0
M  V30 5507 O 516.838 0.831151 1.63822 0
M  V30 5508 C 516.9 3.5648 -0.465018 0
M  V30 5509 C 516.564 4.19176 -1.82045 0
M  V30 5510 C 517.561 4.39181 -2.78237 0
M  V30 5511 C 515.246 4.55792 -2.11089 0
M  V30 5512 C 517.24 4.94937 -4.01642 0
M  V30 5513 C 514.927 5.11258 -3.34752 0
M  V30 5514 C 515.925 5.30775 -4.29845 0
M  V30 5515 O 515.613 5.85064 -5.51322 0
M  V30 5516 H 515.345 0.653847 -0.171639 0
M  V30 5517 H 517.899 1.72066 -1.12171 0
M  V30 5518 H 516.129 3.8569 0.279284 0
M  V30 5519 H 517.818 4.05804 -0.0881334 0
M  V30 5520 H 518.584 4.11249 -2.57097 0
M  V30 5521 H 514.463 4.39901 -1.3787 0
M  V30 5522 H 518.007 5.10086 -4.75876 0
M  V30 5523 H 513.904 5.38619 -3.55753 0
M  V30 5524 H 514.672 6.03489 -5.5294 0
M  V30 5525 N 517.335 0.585699 1.46312 0
M  V30 5526 C 518.581 0.0808731 2.03239 0
M  V30 5527 C 518.936 -1.26609 1.44872 0
M  V30 5528 O 518.229 -1.81779 0.60556 0
M  V30 5529 C 518.423 -0.0401312 3.57377 0
M  V30 5530 C 518.252 1.29356 4.30694 0
M  V30 5531 C 517.022 1.86849 4.69484 0
M  V30 5532 C 519.22 2.21742 4.64042 0
M  V30 5533 N 517.202 3.13926 5.27564 0
M  V30 5534 C 518.573 3.33408 5.22723 0
M  V30 5535 C 520.628 2.21386 4.45974 0
M  V30 5536 C 519.331 4.44852 5.65242 0
M  V30 5537 C 521.357 3.31862 4.89511 0
M  V30 5538 C 520.719 4.42248 5.48266 0
M  V30 5539 H 516.818 0.072443 0.778637 0
M  V30 5540 H 519.402 0.779254 1.78426 0
M  V30 5541 H 517.573 -0.707686 3.81898 0
M  V30 5542 H 519.305 -0.549615 4.00951 0
M  V30 5543 H 516.06 1.40307 4.52339 0
M  V30 5544 H 516.484 3.78775 5.61122 0
M  V30 5545 H 521.126 1.37314 3.99881 0
M  V30 5546 H 518.844 5.29665 6.10312 0
M  V30 5547 H 522.43 3.32708 4.7728 0
M  V30 5548 H 521.31 5.26323 5.81338 0
M  V30 5549 N 518.813 -1.54241 0.323641 0
M  V30 5550 C 520.038 -2.05452 -0.283605 0
M  V30 5551 C 520.463 -1.19823 -1.44997 0
M  V30 5552 O 519.821 -0.207358 -1.8011 0
M  V30 5553 C 519.869 -3.53823 -0.695795 0
M  V30 5554 O 518.973 -3.71134 -1.79815 0
M  V30 5555 H 518.314 -0.662024 -0.0511917 0
M  V30 5556 H 520.844 -1.99079 0.472073 0
M  V30 5557 H 520.854 -3.96094 -0.978434 0
M  V30 5558 H 519.529 -4.15602 0.157287 0
M  V30 5559 H 518.106 -3.40768 -1.51431 0
M  V30 5560 N 520.291 -0.0518155 -1.57515 0
M  V30 5561 C 521.54 0.621286 -1.91893 0
M  V30 5562 C 521.853 1.71966 -0.932052 0
M  V30 5563 O 523.059 2.45096 -1.16791 0
M  V30 5564 C 521.515 1.15641 -3.40816 0
M  V30 5565 C 521.123 0.0901146 -4.47909 0
M  V30 5566 C 522.867 1.80472 -3.84227 0
M  V30 5567 C 520.774 0.638154 -5.87947 0
M  V30 5568 H 519.704 0.235835 -0.716169 0
M  V30 5569 H 522.355 -0.120809 -1.83102 0
M  V30 5570 H 520.737 1.95084 -3.44613 0
M  V30 5571 H 521.911 -0.683525 -4.55702 0
M  V30 5572 H 520.226 -0.460774 -4.13843 0
M  V30 5573 H 522.823 2.22471 -4.86221 0
M  V30 5574 H 523.166 2.65669 -3.20508 0
M  V30 5575 H 523.699 1.07683 -3.82948 0
M  V30 5576 H 520.438 -0.176202 -6.55263 0
M  V30 5577 H 519.958 1.37976 -5.83714 0
M  V30 5578 H 521.637 1.12085 -6.37217 0
M  V30 5579 N 521.769 1.56035 0.221574 0
M  V30 5580 C 523.18 1.69229 0.788567 0
M  V30 5581 C 523.531 0.653814 1.84986 0
M  V30 5582 O 522.656 -0.195065 2.15519 0
M  V30 5583 C 523.251 3.06809 1.43713 0
M  V30 5584 C 521.81 3.21858 1.95152 0
M  V30 5585 C 520.957 2.65155 0.811685 0
M  V30 5586 H 523.908 1.587 -0.00307894 0
M  V30 5587 H 523.929 3.02666 2.30594 0
M  V30 5588 H 523.441 3.82369 0.664475 0
M  V30 5589 H 521.542 2.51167 2.7522 0
M  V30 5590 H 521.655 4.29073 2.1315 0
M  V30 5591 H 520.019 2.23635 1.21899 0
M  V30 5592 H 520.802 3.43261 0.0516987 0
M  V30 5593 N 523.247 -0.488276 1.49845 0
M  V30 5594 C 524.472 -1.26997 1.63971 0
M  V30 5595 C 524.897 -1.85427 0.315994 0
M  V30 5596 O 524.255 -1.66475 -0.718032 0
M  V30 5597 C 524.303 -2.36689 2.72049 0
M  V30 5598 O 523.407 -3.40882 2.32107 0
M  V30 5599 H 522.748 -0.374376 0.548396 0
M  V30 5600 H 525.278 -0.583104 1.96115 0
M  V30 5601 H 525.288 -2.82262 2.94605 0
M  V30 5602 H 523.963 -1.93529 3.68129 0
M  V30 5603 H 522.54 -3.01139 2.19931 0
M  V30 5604 N 524.725 -1.39134 -0.740242 0
M  V30 5605 C 526.141 -1.20623 -1.0451 0
M  V30 5606 C 526.341 -0.0641651 -2.01398 0
M  V30 5607 O 525.397 0.585843 -2.4561 0
M  V30 5608 C 526.71 -2.53815 -1.6124 0
M  V30 5609 C 528.258 -2.60615 -1.73346 0
M  V30 5610 C 528.733 -3.94015 -2.33486 0
M  V30 5611 N 530.224 -3.95627 -2.40902 0
M  V30 5612 C 530.959 -4.95616 -2.88361 0
M  V30 5613 N 530.455 -6.06003 -3.35756 0
M  V30 5614 N 532.248 -4.82998 -2.87523 0
M  V30 5615 H 524.399 -2.12176 -0.0975576 0
M  V30 5616 H 526.662 -0.942066 -0.105904 0
M  V30 5617 H 526.368 -3.37911 -0.975144 0
M  V30 5618 H 526.242 -2.73162 -2.6012 0
M  V30 5619 H 528.629 -1.76906 -2.36195 0
M  V30 5620 H 528.71 -2.45123 -0.731336 0
M  V30 5621 H 528.354 -4.78153 -1.71267 0
M  V30 5622 H 528.284 -4.06825 -3.34366 0
M  V30 5623 H 530.775 -3.15903 -2.07398 0
M  V30 5624 H 531.088 -6.78215 -3.70464 0
M  V30 5625 H 529.433 -6.09604 -3.33778 0
M  V30 5626 H 532.624 -3.95866 -2.49816 0
M  V30 5627 H 532.797 -5.61072 -3.24196 0
M  V30 5628 N 526.204 0.969867 -1.24223 0
M  V30 5629 C 527.134 2.08191 -1.05729 0
M  V30 5630 C 528.115 1.70075 0.0290765 0
M  V30 5631 O 529.3 1.93712 -0.137583 0
M  V30 5632 C 526.43 3.40991 -0.658995 0
M  V30 5633 C 525.384 3.93054 -1.69389 0
M  V30 5634 C 524.71 5.22171 -1.15072 0
M  V30 5635 C 526.01 4.21137 -3.08935 0
M  V30 5636 H 527.704 2.23921 -1.98746 0
M  V30 5637 H 525.25 1.07602 -0.956967 0
M  V30 5638 H 527.203 4.18221 -0.51662 0
M  V30 5639 H 525.927 3.25155 0.30686 0
M  V30 5640 H 524.586 3.17977 -1.82444 0
M  V30 5641 H 524.234 5.02694 -0.175539 0
M  V30 5642 H 523.934 5.57973 -1.84229 0
M  V30 5643 H 525.458 6.02013 -1.02042 0
M  V30 5644 H 526.872 4.8908 -2.99121 0
M  V30 5645 H 525.269 4.68163 -3.75425 0
M  V30 5646 H 526.339 3.27996 -3.57137 0
M  V30 5647 N 527.682 1.05563 1.17022 0
M  V30 5648 C 528.959 0.68165 1.83338 0
M  V30 5649 C 529.339 -0.837665 1.93769 0
M  V30 5650 O 528.687 -1.74507 1.47511 0
M  V30 5651 C 528.897 1.375 3.20772 0
M  V30 5652 C 530.245 1.51545 3.96635 0
M  V30 5653 O 531.269 1.33431 3.30264 0
M  V30 5654 O 530.128 1.812 5.15586 0
M  V30 5655 H 527.222 0.240412 0.791285 0
M  V30 5656 H 529.768 1.15545 1.24288 0
M  V30 5657 H 528.54 2.41135 3.08171 0
M  V30 5658 H 528.163 0.890798 3.87493 0
M  V30 5659 N 529.16 -1.33526 0.837174 0
M  V30 5660 C 530.07 -2.33023 0.271568 0
M  V30 5661 C 531.086 -1.63272 -0.601514 0
M  V30 5662 O 532.262 -1.94939 -0.506038 0
M  V30 5663 C 529.327 -3.42382 -0.545448 0
M  V30 5664 C 528.388 -4.27857 0.351709 0
M  V30 5665 C 527.621 -5.31994 -0.426409 0
M  V30 5666 O 527.844 -5.45763 -1.65828 0
M  V30 5667 O 526.778 -6.01572 0.1987 0
M  V30 5668 H 530.604 -2.83256 1.09545 0
M  V30 5669 H 528.189 -1.36837 0.599655 0
M  V30 5670 H 530.071 -4.09122 -1.00979 0
M  V30 5671 H 528.746 -2.94369 -1.34641 0
M  V30 5672 H 527.653 -3.6399 0.863853 0
M  V30 5673 H 528.986 -4.79349 1.1174 0
M  V30 5674 N 530.638 -0.59345 -1.46 0
M  V30 5675 C 531.585 0.133618 -2.30413 0
M  V30 5676 C 532.555 0.873736 -1.41262 0
M  V30 5677 O 533.74 0.862279 -1.70204 0
M  V30 5678 C 530.88 1.13434 -3.25924 0
M  V30 5679 C 529.993 0.39656 -4.30176 0
M  V30 5680 C 529.128 1.38575 -5.12806 0
M  V30 5681 C 528.167 0.634984 -6.08797 0
M  V30 5682 N 527.304 1.57276 -6.84258 0
M  V30 5683 H 532.144 -0.592252 -2.92055 0
M  V30 5684 H 529.681 -0.303874 -1.43927 0
M  V30 5685 H 531.639 1.72752 -3.79753 0
M  V30 5686 H 530.269 1.82779 -2.66067 0
M  V30 5687 H 529.321 -0.311861 -3.79119 0
M  V30 5688 H 530.633 -0.189869 -4.98438 0
M  V30 5689 H 529.787 2.05141 -5.70966 0
M  V30 5690 H 528.526 2.00611 -4.44529 0
M  V30 5691 H 527.531 -0.0443925 -5.49782 0
M  V30 5692 H 528.756 0.0198678 -6.79097 0
M  V30 5693 H 526.702 2.18103 -6.18682 0
M  V30 5694 H 526.619 1.03941 -7.48821 0
M  V30 5695 H 527.887 2.22844 -7.46968 0
M  V30 5696 N 532.116 1.54067 -0.331816 0
M  V30 5697 C 533.362 2.01012 0.268667 0
M  V30 5698 C 533.695 1.2195 1.51136 0
M  V30 5699 O 532.97 0.303972 1.9211 0
M  V30 5700 C 533.253 3.55158 0.59456 0
M  V30 5701 C 533.106 4.4494 -0.659409 0
M  V30 5702 C 534.425 4.16939 1.4089 0
M  V30 5703 H 531.544 0.730698 0.0961756 0
M  V30 5704 H 534.186 1.84593 -0.450031 0
M  V30 5705 H 532.336 3.6928 1.20685 0
M  V30 5706 H 534.008 4.42675 -1.29756 0
M  V30 5707 H 532.251 4.1428 -1.28665 0
M  V30 5708 H 532.922 5.50643 -0.386804 0
M  V30 5709 H 535.398 4.06443 0.891272 0
M  V30 5710 H 534.274 5.24889 1.60569 0
M  V30 5711 H 534.535 3.70798 2.40752 0
M  V30 5712 N 533.594 0.0601682 1.57485 0
M  V30 5713 C 534.504 -0.926121 2.15546 0
M  V30 5714 C 535.52 -1.33532 1.11558 0
M  V30 5715 O 536.696 -1.4104 1.4377 0
M  V30 5716 C 533.761 -2.17952 2.69625 0
M  V30 5717 C 532.822 -1.82783 3.88444 0
M  V30 5718 C 532.055 -3.02148 4.39935 0
M  V30 5719 O 532.278 -4.15803 3.90466 0
M  V30 5720 O 531.212 -2.82639 5.31412 0
M  V30 5721 H 535.038 -0.462289 3.00161 0
M  V30 5722 H 532.623 -0.162246 1.48516 0
M  V30 5723 H 534.505 -2.91474 3.04337 0
M  V30 5724 H 533.18 -2.63456 1.88077 0
M  V30 5725 H 532.087 -1.06549 3.58606 0
M  V30 5726 H 533.42 -1.42072 4.7125 0
M  V30 5727 N 535.072 -1.5615 -0.213296 0
M  V30 5728 C 535.982 -1.96265 -1.28519 0
M  V30 5729 C 536.998 -0.86765 -1.50824 0
M  V30 5730 O 538.174 -1.17191 -1.63793 0
M  V30 5731 C 535.239 -2.27836 -2.61327 0
M  V30 5732 C 534.3 -3.50949 -2.47252 0
M  V30 5733 C 533.533 -3.81004 -3.73727 0
M  V30 5734 O 533.756 -3.12612 -4.77106 0
M  V30 5735 O 532.69 -4.74477 -3.70344 0
M  V30 5736 H 536.516 -2.87631 -0.974795 0
M  V30 5737 H 534.101 -1.43467 -0.416832 0
M  V30 5738 H 535.983 -2.49299 -3.39747 0
M  V30 5739 H 534.658 -1.39643 -2.9203 0
M  V30 5740 H 533.565 -3.34754 -1.67004 0
M  V30 5741 H 534.898 -4.39551 -2.21486 0
M  V30 5742 N 536.55 0.480323 -1.50102 0
M  V30 5743 C 537.46 1.60547 -1.71061 0
M  V30 5744 C 538.476 1.63564 -0.593529 0
M  V30 5745 O 539.652 1.81604 -0.870751 0
M  V30 5746 C 536.717 2.96814 -1.79171 0
M  V30 5747 C 535.778 3.04259 -3.02861 0
M  V30 5748 C 535.011 4.34027 -3.10574 0
M  V30 5749 O 535.234 5.24009 -2.25323 0
M  V30 5750 O 534.168 4.46873 -4.03223 0
M  V30 5751 H 537.994 1.45788 -2.6642 0
M  V30 5752 H 535.579 0.658838 -1.34088 0
M  V30 5753 H 537.461 3.77765 -1.86738 0
M  V30 5754 H 536.136 3.11791 -0.869947 0
M  V30 5755 H 535.043 2.22419 -3.008 0
M  V30 5756 H 536.376 2.94216 -3.94586 0
M  V30 5757 N 538.028 1.39524 0.732853 0
M  V30 5758 C 539.276 1.36594 1.48951 0
M  V30 5759 C 539.597 -0.0367507 1.94965 0
M  V30 5760 O 538.867 -0.988391 1.69138 0
M  V30 5761 H 537.447 0.502673 0.552566 0
M  V30 5762 H 540.109 1.74411 0.869869 0
M  V30 5763 H 539.205 2.03 2.3706 0
M  V30 5764 N 539.506 -0.963266 1.24736 0
M  V30 5765 C 540.469 -2.04013 1.04457 0
M  V30 5766 C 541.469 -1.608 0.000335555 0
M  V30 5767 O 542.659 -1.72515 0.241719 0
M  V30 5768 C 539.791 -3.35858 0.584162 0
M  V30 5769 H 540.984 -2.23436 2.00041 0
M  V30 5770 H 538.537 -1.13914 1.07021 0
M  V30 5771 H 539.272 -3.22128 -0.374673 0
M  V30 5772 H 539.057 -3.68568 1.3379 0
M  V30 5773 H 540.547 -4.1502 0.463451 0
M  V30 5774 N 540.985 -1.06182 -1.16461 0
M  V30 5775 C 542.233 -0.776326 -1.86595 0
M  V30 5776 C 542.554 0.69921 -1.82033 0
M  V30 5777 O 541.824 1.50579 -1.2531 0
M  V30 5778 H 540.404 -0.284184 -0.690832 0
M  V30 5779 H 543.066 -1.34308 -1.41235 0
M  V30 5780 H 542.162 -1.10022 -2.92064 0
M  V30 5781 N 542.463 1.3308 -0.844243 0
M  V30 5782 C 543.373 2.32876 -0.283922 0
M  V30 5783 C 544.389 1.63589 0.592846 0
M  V30 5784 O 545.565 1.95205 0.495693 0
M  V30 5785 C 542.63 3.42667 0.527283 0
M  V30 5786 C 541.691 4.27664 -0.374394 0
M  V30 5787 C 540.924 5.32212 0.39819 0
M  V30 5788 O 541.147 5.46635 1.62932 0
M  V30 5789 O 540.081 6.01458 -0.2306 0
M  V30 5790 H 543.907 2.82671 -1.11045 0
M  V30 5791 H 541.492 1.36518 -0.606903 0
M  V30 5792 H 543.374 4.09652 0.988078 0
M  V30 5793 H 542.049 2.95079 1.33078 0
M  V30 5794 H 540.956 3.63526 -0.883144 0
M  V30 5795 H 542.289 4.78749 -1.1428 0
M  V30 5796 N 543.941 0.601185 1.45683 0
M  V30 5797 C 545.189 0.0936957 2.01883 0
M  V30 5798 C 545.51 -1.2779 1.47291 0
M  V30 5799 O 544.78 -1.84279 0.664691 0
M  V30 5800 H 543.36 0.0316466 0.746329 0
M  V30 5801 H 546.022 0.781137 1.78562 0
M  V30 5802 H 545.118 0.0386297 3.12076 0
M  V30 5803 N 545.419 -1.53889 0.339982 0
M  V30 5804 C 546.382 -2.23547 -0.50592 0
M  V30 5805 C 547.382 -1.23445 -1.03044 0
M  V30 5806 O 548.572 -1.47909 -0.920253 0
M  V30 5807 C 545.704 -2.95234 -1.7044 0
M  V30 5808 H 546.897 -2.99722 0.103247 0
M  V30 5809 H 544.45 -1.56033 0.0912804 0
M  V30 5810 H 545.185 -2.23236 -2.35236 0
M  V30 5811 H 544.97 -3.68654 -1.33553 0
M  V30 5812 H 546.46 -3.48258 -2.30447 0
M  V30 5813 N 546.897 -0.0685191 -1.57451 0
M  V30 5814 C 548.145 0.60016 -1.92983 0
M  V30 5815 C 548.466 1.70348 -0.949028 0
M  V30 5816 O 547.736 1.959 0.00335647 0
M  V30 5817 H 546.316 0.224682 -0.712409 0
M  V30 5818 H 548.978 -0.125605 -1.94495 0
M  V30 5819 H 548.074 1.02759 -2.94698 0
M  V30 5820 N 548.375 1.56261 0.205012 0
M  V30 5821 C 549.623 1.79684 0.925096 0
M  V30 5822 C 549.944 0.63989 1.84202 0
M  V30 5823 O 549.214 -0.342345 1.92885 0
M  V30 5824 H 547.794 0.662774 0.344587 0
M  V30 5825 H 550.456 1.93734 0.212899 0
M  V30 5826 H 549.552 2.72467 1.52211 0
M  V30 5827 N 549.853 -0.472356 1.50355 0
M  V30 5828 C 550.763 -1.59637 1.7191 0
M  V30 5829 C 551.779 -1.63247 0.602195 0
M  V30 5830 O 552.955 -1.81139 0.880369 0
M  V30 5831 C 550.02 -2.9586 1.80742 0
M  V30 5832 C 549.081 -3.02649 3.04471 0
M  V30 5833 C 548.314 -4.32374 3.12872 0
M  V30 5834 O 548.537 -5.22807 2.28099 0
M  V30 5835 O 547.471 -4.44728 4.05587 0
M  V30 5836 H 551.297 -1.44373 2.67189 0
M  V30 5837 H 548.882 -0.651717 1.34436 0
M  V30 5838 H 550.764 -3.7677 1.88739 0
M  V30 5839 H 549.439 -3.11325 0.88647 0
M  V30 5840 H 548.346 -2.20821 3.01975 0
M  V30 5841 H 549.679 -2.92119 3.9614 0
M  V30 5842 N 551.331 -1.39911 -0.725443 0
M  V30 5843 C 552.294 -1.39156 -1.82121 0
M  V30 5844 C 553.294 -0.287018 -1.58218 0
M  V30 5845 O 554.484 -0.545421 -1.65441 0
M  V30 5846 C 551.616 -1.1736 -3.20062 0
M  V30 5847 H 552.809 -2.36672 -1.84191 0
M  V30 5848 H 550.362 -1.25615 -0.930079 0
M  V30 5849 H 551.097 -0.205648 -3.23647 0
M  V30 5850 H 550.882 -1.97358 -3.3881 0
M  V30 5851 H 552.372 -1.19596 -4.00108 0
M  V30 5852 N 552.809 0.956637 -1.25245 0
M  V30 5853 C 554.057 1.69764 -1.09657 0
M  V30 5854 C 554.378 1.91583 0.363464 0
M  V30 5855 O 553.648 1.50149 1.25825 0
M  V30 5856 H 552.228 0.629097 -0.402798 0
M  V30 5857 H 554.89 1.15026 -1.57337 0
M  V30 5858 H 553.986 2.67769 -1.60331 0
M  V30 5859 N 554.287 1.06798 1.15896 0
M  V30 5860 C 555.25 0.687328 2.18651 0
M  V30 5861 C 556.25 -0.269559 1.58524 0
M  V30 5862 O 557.44 -0.0512627 1.74125 0
M  V30 5863 C 554.572 0.0121642 3.40898 0
M  V30 5864 H 555.765 1.59701 2.53842 0
M  V30 5865 H 553.318 0.863828 1.3026 0
M  V30 5866 H 554.053 -0.910025 3.1127 0
M  V30 5867 H 553.838 0.700309 3.85795 0
M  V30 5868 H 555.328 -0.239703 4.16911 0
M  V30 5869 N 555.766 -1.3263 0.851289 0
M  V30 5870 C 557.043 -1.91982 0.374448 0
M  V30 5871 C 557.423 -1.77568 -1.14161 0
M  V30 5872 O 556.771 -1.1717 -1.96172 0
M  V30 5873 C 556.981 -3.38862 0.835088 0
M  V30 5874 C 558.329 -4.15999 0.850309 0
M  V30 5875 O 559.353 -3.47566 0.779505 0
M  V30 5876 O 558.212 -5.38189 0.949481 0
M  V30 5877 H 555.306 -0.819846 0.10854 0
M  V30 5878 H 557.852 -1.41422 0.937966 0
M  V30 5879 H 556.624 -3.43281 1.87814 0
M  V30 5880 H 556.247 -3.96821 0.248833 0
M  V30 5881 N 557.244 -0.608902 -1.45362 0
M  V30 5882 C 558.191 0.109172 -2.30542 0
M  V30 5883 C 559.161 0.858704 -1.42181 0
M  V30 5884 O 560.346 0.844178 -1.71109 0
M  V30 5885 C 557.486 1.09971 -3.27109 0
M  V30 5886 C 556.599 0.350911 -4.30572 0
M  V30 5887 C 555.734 1.33129 -5.14247 0
M  V30 5888 C 554.773 0.570377 -6.09437 0
M  V30 5889 N 553.91 1.5001 -6.85887 0
M  V30 5890 H 558.75 -0.623195 -2.91411 0
M  V30 5891 H 556.287 -0.319122 -1.43597 0
M  V30 5892 H 558.245 1.68714 -3.81564 0
M  V30 5893 H 556.875 1.79947 -2.67991 0
M  V30 5894 H 555.927 -0.352054 -3.78767 0
M  V30 5895 H 557.239 -0.242725 -4.98209 0
M  V30 5896 H 556.393 1.99074 -5.73109 0
M  V30 5897 H 555.132 1.95885 -4.46632 0
M  V30 5898 H 554.137 -0.102702 -5.49704 0
M  V30 5899 H 555.362 -0.0521607 -6.7908 0
M  V30 5900 H 553.308 2.11529 -6.2096 0
M  V30 5901 H 553.225 0.959934 -7.49881 0
M  V30 5902 H 554.493 2.14909 -7.49289 0
M  V30 5903 N 558.722 1.53707 -0.348139 0
M  V30 5904 C 559.632 2.28881 0.514857 0
M  V30 5905 C 560.648 1.34168 1.10793 0
M  V30 5906 O 561.824 1.6721 1.12262 0
M  V30 5907 C 558.889 3.05042 1.64774 0
M  V30 5908 C 557.95 4.15389 1.08398 0
M  V30 5909 C 557.183 4.87909 2.16287 0
M  V30 5910 O 557.406 4.60137 3.3709 0
M  V30 5911 O 556.34 5.74254 1.80323 0
M  V30 5912 H 560.166 3.03547 -0.0963699 0
M  V30 5913 H 557.751 1.48972 -0.113043 0
M  V30 5914 H 559.633 3.52656 2.30677 0
M  V30 5915 H 558.308 2.33228 2.24469 0
M  V30 5916 H 557.215 3.72068 0.389341 0
M  V30 5917 H 558.548 4.89318 0.531829 0
M  V30 5918 N 560.2 0.0768682 1.57412 0
M  V30 5919 C 561.132 -0.918248 2.10002 0
M  V30 5920 C 562.145 -1.25808 1.03325 0
M  V30 5921 O 563.334 -1.21438 1.30824 0
M  V30 5922 C 560.434 -2.23263 2.54964 0
M  V30 5923 C 559.607 -2.07088 3.8527 0
M  V30 5924 C 558.666 -3.21876 4.16272 0
M  V30 5925 O 557.692 -2.96643 4.8579 0
M  V30 5926 N 558.894 -4.4712 3.70221 0
M  V30 5927 H 561.659 -0.469209 2.96004 0
M  V30 5928 H 559.22 -0.108725 1.61535 0
M  V30 5929 H 561.212 -2.9897 2.72762 0
M  V30 5930 H 559.782 -2.59649 1.74072 0
M  V30 5931 H 559.002 -1.15818 3.76802 0
M  V30 5932 H 560.29 -1.93537 4.70554 0
M  V30 5933 H 559.688 -4.70506 3.1407 0
M  V30 5934 H 558.245 -5.19837 3.93209 0
M  V30 5935 N 561.678 -1.56367 -0.196722 0
M  V30 5936 C 562.626 -1.95304 -1.2633 0
M  V30 5937 C 563.62 -0.838252 -1.47206 0
M  V30 5938 O 564.826 -1.02325 -1.48087 0
M  V30 5939 H 561.201 -0.621013 -0.424083 0
M  V30 5940 H 563.172 -2.84254 -0.907879 0
M  V30 5941 C 561.921 -2.3074 -2.60104 0
M  V30 5942 H 561.244 -3.16047 -2.44856 0
M  V30 5943 H 562.684 -2.61849 -3.33484 0
M  V30 5944 C 561.143 -1.14143 -3.16975 0
M  V30 5945 O 561.673 -0.415602 -3.99544 0
M  V30 5946 N 559.879 -0.91867 -2.75697 0
M  V30 5947 H 559.426 -1.51065 -2.08656 0
M  V30 5948 H 559.384 -0.140321 -3.14087 0
M  V30 5949 N 563.156 0.464375 -1.50603 0
M  V30 5950 C 564.404 1.21356 -1.61608 0
M  V30 5951 C 564.725 1.92329 -0.321643 0
M  V30 5952 O 563.995 1.84403 0.661232 0
M  V30 5953 H 562.575 0.45094 -0.595535 0
M  V30 5954 H 565.237 0.535046 -1.87412 0
M  V30 5955 H 564.333 1.95783 -2.43054 0
M  V30 5956 N 564.634 1.40294 0.718013 0
M  V30 5957 C 565.874 1.39888 1.49032 0
M  V30 5958 C 566.238 -0.000462935 1.92 0
M  V30 5959 O 567.439 -0.129622 2.68487 0
M  V30 5960 C 565.71 2.35868 2.68516 0
M  V30 5961 S 567.269 2.53799 3.57954 0
M  V30 5962 H 564.087 0.495849 0.509563 0
M  V30 5963 H 566.689 1.76541 0.839846 0
M  V30 5964 H 565.393 3.36375 2.35117 0
M  V30 5965 H 564.924 2.0049 3.38478 0
M  V30 5966 H 566.939 1.78859 4.62843 0
M  V30 5967 N 566.112 -0.949982 1.2575 0
M  V30 5968 C 567.042 -2.06483 1.09028 0
M  V30 5969 C 568.023 -1.701 -0.00201532 0
M  V30 5970 O 569.208 -1.93469 0.168383 0
M  V30 5971 C 566.338 -3.39899 0.71316 0
M  V30 5972 C 565.292 -3.90309 1.75621 0
M  V30 5973 C 564.618 -5.20274 1.23365 0
M  V30 5974 C 565.918 -4.16169 3.15596 0
M  V30 5975 H 567.612 -2.20731 2.02283 0
M  V30 5976 H 565.158 -1.06066 0.973964 0
M  V30 5977 H 567.111 -4.17346 0.58309 0
M  V30 5978 H 565.835 -3.25602 -0.255091 0
M  V30 5979 H 564.494 -3.15035 1.8748 0
M  V30 5980 H 564.142 -5.02351 0.255491 0
M  V30 5981 H 563.842 -5.54971 1.93082 0
M  V30 5982 H 565.366 -6.00314 1.11607 0
M  V30 5983 H 566.78 -4.84259 3.06864 0
M  V30 5984 H 565.177 -4.62131 3.82825 0
M  V30 5985 H 566.247 -3.22273 3.6231 0
M  V30 5986 N 567.59 -1.07411 -1.15328 0
M  V30 5987 C 569.001 -0.820261 -1.67716 0
M  V30 5988 C 569.352 0.654539 -1.8496 0
M  V30 5989 O 568.477 1.50664 -1.55337 0
M  V30 5990 C 569.072 -1.48242 -3.04647 0
M  V30 5991 C 567.631 -1.27606 -3.5411 0
M  V30 5992 C 566.778 -1.5517 -2.29821 0
M  V30 5993 H 569.729 -1.23608 -0.995332 0
M  V30 5994 H 569.75 -0.903984 -3.69606 0
M  V30 5995 H 569.262 -2.55578 -2.92064 0
M  V30 5996 H 567.363 -0.222948 -3.71932 0
M  V30 5997 H 567.476 -1.99667 -4.35511 0
M  V30 5998 H 565.84 -0.972747 -2.35393 0
M  V30 5999 H 566.623 -2.63689 -2.19824 0
M  V30 6000 N 569.068 1.32177 -0.85831 0
M  V30 6001 C 570.479 1.79381 -0.517621 0
M  V30 6002 C 570.83 1.70841 0.964769 0
M  V30 6003 O 569.955 1.26917 1.75274 0
M  V30 6004 C 570.55 3.25706 -0.932801 0
M  V30 6005 C 569.109 3.70851 -0.643953 0
M  V30 6006 C 568.256 2.53208 -1.13054 0
M  V30 6007 H 571.207 1.19424 -1.04516 0
M  V30 6008 H 571.228 3.79673 -0.250674 0
M  V30 6009 H 570.74 3.31889 -2.01174 0
M  V30 6010 H 568.841 3.70178 0.424112 0
M  V30 6011 H 568.954 4.63495 -1.21281 0
M  V30 6012 H 567.318 2.48676 -0.550679 0
M  V30 6013 H 568.101 2.62143 -2.21666 0
M  V30 6014 N 570.547 0.616602 1.45037 0
M  V30 6015 C 571.958 0.199359 1.85633 0
M  V30 6016 C 572.309 -1.24588 1.51566 0
M  V30 6017 O 571.434 -1.94594 0.94668 0
M  V30 6018 C 572.029 0.355033 3.36935 0
M  V30 6019 C 570.588 -0.00758748 3.76399 0
M  V30 6020 C 569.735 0.675256 2.68953 0
M  V30 6021 H 572.686 0.822708 1.3571 0
M  V30 6022 H 572.707 -0.410201 3.78282 0
M  V30 6023 H 572.219 1.40699 3.61698 0
M  V30 6024 H 570.32 -1.05837 3.57252 0
M  V30 6025 H 570.433 0.392346 4.77491 0
M  V30 6026 H 568.797 0.111992 2.54454 0
M  V30 6027 H 569.58 1.72952 2.96551 0
M  V30 6028 N 572.025 -1.5352 0.356285 0
M  V30 6029 C 572.935 -2.29151 -0.502712 0
M  V30 6030 C 573.951 -1.34753 -1.1008 0
M  V30 6031 O 575.127 -1.67803 -1.11374 0
M  V30 6032 C 572.192 -3.05911 -1.63154 0
M  V30 6033 C 571.253 -4.15958 -1.06194 0
M  V30 6034 C 570.486 -4.8905 -2.13696 0
M  V30 6035 O 570.709 -4.61919 -3.34645 0
M  V30 6036 O 569.643 -5.75202 -1.77275 0
M  V30 6037 H 573.469 -3.03492 0.112466 0
M  V30 6038 H 571.054 -1.4891 0.120942 0
M  V30 6039 H 572.936 -3.53874 -2.28804 0
M  V30 6040 H 571.611 -2.34415 -2.23229 0
M  V30 6041 H 570.518 -3.7227 -0.369603 0
M  V30 6042 H 571.851 -4.89593 -0.505872 0
M  V30 6043 N 573.503 -0.0852151 -1.57369 0
M  V30 6044 C 574.728 0.592872 -1.98746 0
M  V30 6045 C 575.153 1.61538 -0.963689 0
M  V30 6046 O 574.511 1.81168 0.069071 0
M  V30 6047 C 574.559 1.22599 -3.39119 0
M  V30 6048 O 573.663 2.34185 -3.39457 0
M  V30 6049 H 573.004 0.151314 -0.646529 0
M  V30 6050 H 575.534 -0.163703 -2.03944 0
M  V30 6051 H 575.544 1.56965 -3.76598 0
M  V30 6052 H 574.219 0.476831 -4.13158 0
M  V30 6053 H 572.796 2.01512 -3.13763 0
M  V30 6054 N 574.981 1.5647 0.188427 0
M  V30 6055 C 575.891 1.98285 1.2538 0
M  V30 6056 C 576.907 0.891535 1.49424 0
M  V30 6057 O 578.083 1.19782 1.61908 0
M  V30 6058 C 575.148 2.31965 2.57669 0
M  V30 6059 C 574.209 3.54838 2.41638 0
M  V30 6060 C 573.442 3.86901 3.67618 0
M  V30 6061 O 573.665 3.20163 4.72072 0
M  V30 6062 O 572.599 4.80309 3.62749 0
M  V30 6063 H 576.425 2.89145 0.928912 0
M  V30 6064 H 574.01 1.44112 0.393955 0
M  V30 6065 H 575.892 2.54673 3.35737 0
M  V30 6066 H 574.567 1.44271 2.89771 0
M  V30 6067 H 573.474 3.37369 1.61658 0
M  V30 6068 H 574.807 4.43019 2.14465 0
M  V30 6069 N 576.459 -0.456382 1.50847 0
M  V30 6070 C 577.684 -1.2349 1.66628 0
M  V30 6071 C 578.109 -1.84715 0.355254 0
M  V30 6072 O 577.467 -1.67961 -0.682559 0
M  V30 6073 C 577.515 -2.30865 2.77009 0
M  V30 6074 O 576.619 -3.35882 2.39285 0
M  V30 6075 H 575.96 -0.36266 0.556214 0
M  V30 6076 H 578.49 -0.541374 1.97308 0
M  V30 6077 H 578.5 -2.75949 3.00526 0
M  V30 6078 H 577.175 -1.85677 3.72152 0
M  V30 6079 H 575.752 -2.96406 2.26269 0
M  V30 6080 N 577.937 -1.40673 -0.710563 0
M  V30 6081 C 578.884 -1.41336 -1.82463 0
M  V30 6082 C 579.854 -0.269648 -1.63897 0
M  V30 6083 O 581.039 -0.468463 -1.8496 0
M  V30 6084 C 578.179 -1.28665 -3.20218 0
M  V30 6085 C 577.292 -2.52784 -3.5032 0
M  V30 6086 C 576.427 -2.32517 -4.77608 0
M  V30 6087 C 575.466 -3.52187 -5.0063 0
M  V30 6088 N 574.603 -3.31084 -6.19135 0
M  V30 6089 H 579.443 -2.36558 -1.8123 0
M  V30 6090 H 576.98 -1.17483 -0.885226 0
M  V30 6091 H 578.938 -1.19324 -3.99772 0
M  V30 6092 H 577.568 -0.370602 -3.20666 0
M  V30 6093 H 576.62 -2.72634 -2.65283 0
M  V30 6094 H 577.932 -3.41845 -3.63241 0
M  V30 6095 H 577.086 -2.20558 -5.65189 0
M  V30 6096 H 575.825 -1.40889 -4.66906 0
M  V30 6097 H 574.83 -3.64617 -4.11502 0
M  V30 6098 H 576.055 -4.44749 -5.13201 0
M  V30 6099 H 574.001 -2.42143 -6.09674 0
M  V30 6100 H 573.918 -4.13713 -6.32754 0
M  V30 6101 H 575.186 -3.22868 -7.0949 0
M  V30 6102 N 579.415 0.9433 -1.26252 0
M  V30 6103 C 580.661 1.69175 -1.11837 0
M  V30 6104 C 580.994 1.91238 0.337891 0
M  V30 6105 O 580.269 1.49152 1.24836 0
M  V30 6106 C 580.552 3.06783 -1.88563 0
M  V30 6107 C 580.405 2.9206 -3.42083 0
M  V30 6108 C 581.724 4.06865 -1.67776 0
M  V30 6109 H 578.843 0.61399 -0.407658 0
M  V30 6110 H 581.485 1.09572 -1.55222 0
M  V30 6111 H 579.635 3.57663 -1.51689 0
M  V30 6112 H 581.307 2.48419 -3.88698 0
M  V30 6113 H 579.55 2.27731 -3.69217 0
M  V30 6114 H 580.221 3.89651 -3.90994 0
M  V30 6115 H 582.697 3.64939 -1.99897 0
M  V30 6116 H 581.573 5.01168 -2.23879 0
M  V30 6117 H 581.834 4.37705 -0.621816 0
M  V30 6118 O 580.932 1.20358 1.07685 0
M  V30 6119 H 581.623 0.957266 1.68393 0
M  V30 END ATOM
M  V30 BEGIN BOND
M  V30 END BOND
M  V30 END CTAB
M  END
$$$$
