drugbank_target|Q92887 Canalicular multispecific organic anion transporter 1 (DB00171; DB01138)
 OpenBabel12092119473D

  0  0  0     0  0            999 V3000
M  V30 BEGIN CTAB
M  V30 COUNTS 24803 25051 0 0 0
M  V30 BEGIN ATOM
M  V30 1 H -0.908 1.98254 -0.117106 0
M  V30 2 N 0 1.576 0 0
M  V30 3 C 0.933 2.03868 1.02534 0
M  V30 4 C 1.911 0.928543 1.3348 0
M  V30 5 O 3.095 1.19667 1.45644 0
M  V30 6 C 0.222 2.43627 2.35294 0
M  V30 7 C -0.732 3.65373 2.2001 0
M  V30 8 S 0.101 5.13292 1.52614 0
M  V30 9 C 1.257 5.56322 2.86805 0
M  V30 10 H 1.49 2.90518 0.631377 0
M  V30 11 H -0.977 1.52953 0.210867 0
M  V30 12 H 0.981 2.67203 3.11629 0
M  V30 13 H -0.358 1.57376 2.7183 0
M  V30 14 H -1.165 3.90944 3.18086 0
M  V30 15 H -1.563 3.418 1.51819 0
M  V30 16 H 0.729 5.58782 3.83104 0
M  V30 17 H 1.672 6.56266 2.65933 0
M  V30 18 H 2.08 4.83886 2.90714 0
M  V30 19 N 1.4781 -0.272755 1.55222 0
M  V30 20 C 2.4081 -1.34136 1.91127 0
M  V30 21 C 3.3891 -1.51513 0.773168 0
M  V30 22 O 4.5741 -1.64552 1.03132 0
M  V30 23 C 1.7041 -2.70083 2.1834 0
M  V30 24 C 0.6581 -2.67437 3.34158 0
M  V30 25 C -0.0159 -4.06938 3.46851 0
M  V30 26 C 1.2841 -2.26686 4.70543 0
M  V30 27 H 2.9781 -1.04333 2.80633 0
M  V30 28 H 0.5241 -0.500454 1.35024 0
M  V30 29 H 2.4771 -3.44952 2.42046 0
M  V30 30 H 1.2011 -3.01469 1.25634 0
M  V30 31 H -0.1399 -1.95026 3.1042 0
M  V30 32 H -0.4919 -4.35547 2.51611 0
M  V30 33 H -0.7919 -4.06062 4.2472 0
M  V30 34 H 0.7321 -4.83545 3.72849 0
M  V30 35 H 2.1461 -2.91277 4.93792 0
M  V30 36 H 0.5431 -2.36971 5.5133 0
M  V30 37 H 1.6131 -1.21818 4.69349 0
M  V30 38 N 2.9562 -1.48159 -0.537278 0
M  V30 39 C 3.8662 -1.64807 -1.6696 0
M  V30 40 C 4.8822 -0.530651 -1.65711 0
M  V30 41 O 6.0582 -0.800784 -1.84796 0
M  V30 42 C 3.1232 -1.67708 -3.03438 0
M  V30 43 C 2.1842 -2.91025 -3.156 0
M  V30 44 C 1.4172 -2.93778 -4.45567 0
M  V30 45 O 1.6402 -2.05153 -5.3223 0
M  V30 46 O 0.5742 -3.85868 -4.61941 0
M  V30 47 H 4.4002 -2.6066 -1.55853 0
M  V30 48 H 1.9852 -1.31475 -0.709549 0
M  V30 49 H 3.8672 -1.7218 -3.84619 0
M  V30 50 H 2.5422 -0.750278 -3.14885 0
M  V30 51 H 1.4492 -2.92089 -2.33741 0
M  V30 52 H 2.7822 -3.83065 -3.09066 0
M  V30 53 N 4.4343 0.785586 -1.36625 0
M  V30 54 C 5.3813 1.89838 -1.31264 0
M  V30 55 C 6.3513 1.65115 -0.180633 0
M  V30 56 O 7.5363 1.87222 -0.36777 0
M  V30 57 C 4.6763 3.26706 -1.11163 0
M  V30 58 C 3.7893 3.63476 -2.33472 0
M  V30 59 C 2.9243 4.89481 -2.06353 0
M  V30 60 C 1.9633 5.18941 -3.24602 0
M  V30 61 N 1.1003 6.36131 -2.97123 0
M  V30 62 H 5.9403 1.93756 -2.26413 0
M  V30 63 H 3.4773 0.947454 -1.12524 0
M  V30 64 H 5.4353 4.05639 -0.975337 0
M  V30 65 H 4.0653 3.222 -0.196674 0
M  V30 66 H 3.1173 2.79636 -2.57891 0
M  V30 67 H 4.4293 3.81193 -3.21704 0
M  V30 68 H 3.5833 5.76288 -1.89675 0
M  V30 69 H 2.3223 4.73841 -1.15437 0
M  V30 70 H 1.3273 4.30615 -3.41834 0
M  V30 71 H 2.5523 5.36498 -4.16349 0
M  V30 72 H 0.4983 6.21875 -2.08823 0
M  V30 73 H 0.4153 6.54198 -3.78894 0
M  V30 74 H 1.6833 7.2591 -2.84033 0
M  V30 75 N 5.9124 1.20967 1.01018 0
M  V30 76 C 7.1594 1.02374 1.74716 0
M  V30 77 C 7.4874 -0.443375 1.89379 0
M  V30 78 O 6.7424 -1.34535 1.42123 0
M  V30 79 C 7.0414 1.65997 3.16512 0
M  V30 80 C 6.7074 3.15831 3.2181 0
M  V30 81 C 5.3694 3.56719 3.22963 0
M  V30 82 C 7.7214 4.11816 3.19464 0
M  V30 83 C 5.0494 4.92107 3.19449 0
M  V30 84 C 7.4014 5.47158 3.17491 0
M  V30 85 C 6.0654 5.87451 3.16951 0
M  V30 86 H 5.3354 0.374614 0.639332 0
M  V30 87 H 7.9824 1.50485 1.18434 0
M  V30 88 H 6.2874 1.10166 3.75993 0
M  V30 89 H 7.9844 1.49119 3.72242 0
M  V30 90 H 4.5744 2.83263 3.21652 0
M  V30 91 H 8.7584 3.81257 3.17737 0
M  V30 92 H 4.0144 5.22579 3.17366 0
M  V30 93 H 8.1884 6.21274 3.14629 0
M  V30 94 H 5.8154 6.92329 3.13983 0
M  V30 95 N 7.3905 -1.2043 1.01659 0
M  V30 96 C 8.6305 -1.91507 0.714456 0
M  V30 97 C 8.9945 -1.77073 -0.742237 0
M  V30 98 O 10.1955 -2.42631 -1.15688 0
M  V30 99 C 8.4665 -3.38795 1.13809 0
M  V30 100 S 10.0255 -4.28216 0.957925 0
M  V30 101 H 6.8435 -0.661571 0.260471 0
M  V30 102 H 9.4455 -1.45671 1.30384 0
M  V30 103 H 8.1495 -3.46822 2.19415 0
M  V30 104 H 7.6805 -3.89656 0.541474 0
M  V30 105 H 9.6955 -4.96007 -0.138531 0
M  V30 106 N 8.8686 -0.792821 -1.36206 0
M  V30 107 C 9.8166 -0.181555 -2.3189 0
M  V30 108 C 10.8106 0.661025 -1.55971 0
M  V30 109 O 12.0166 0.555728 -1.71206 0
M  V30 110 H 8.3916 -0.0399382 -0.750939 0
M  V30 111 H 10.3626 -1.00394 -2.81005 0
M  V30 112 C 9.1116 0.666444 -3.41253 0
M  V30 113 H 8.4346 0.0274489 -3.99791 0
M  V30 114 H 9.8746 1.06076 -4.10517 0
M  V30 115 C 8.3336 1.82614 -2.83114 0
M  V30 116 O 8.8636 2.9229 -2.75553 0
M  V30 117 N 7.0696 1.63333 -2.40356 0
M  V30 118 H 6.6166 0.741217 -2.46706 0
M  V30 119 H 6.5746 2.41087 -2.01803 0
M  V30 120 N 10.3467 1.47872 -0.545128 0
M  V30 121 C 11.5717 2.07391 -0.0190611 0
M  V30 122 C 11.9967 1.39688 1.25971 0
M  V30 123 O 11.3547 0.467816 1.7516 0
M  V30 124 C 11.4027 3.60188 0.172335 0
M  V30 125 O 10.5067 3.9339 1.23766 0
M  V30 126 H 9.8477 0.662411 -0.0459059 0
M  V30 127 H 12.3777 1.90066 -0.757365 0
M  V30 128 H 12.3877 4.06129 0.390305 0
M  V30 129 H 11.0627 4.08865 -0.761725 0
M  V30 130 H 9.6397 3.5921 1.00114 0
M  V30 131 N 11.8248 0.280983 1.55075 0
M  V30 132 C 13.0528 -0.337293 2.04132 0
M  V30 133 C 13.4678 -1.4903 1.15912 0
M  V30 134 O 12.8248 -1.81606 0.180459 0
M  V30 135 C 12.8758 -0.812706 3.52246 0
M  V30 136 O 12.5968 0.294387 4.3711 0
M  V30 137 C 14.0978 -1.4982 4.17216 0
M  V30 138 H 11.3178 -0.0761638 0.666663 0
M  V30 139 H 13.8618 0.414787 2.00249 0
M  V30 140 H 12.0168 -1.51486 3.56554 0
M  V30 141 H 12.4308 -0.0721325 5.2445 0
M  V30 142 H 13.9048 -1.7822 5.22438 0
M  V30 143 H 14.3818 -2.43168 3.65741 0
M  V30 144 H 14.9878 -0.839742 4.16927 0
M  V30 145 N 13.3029 -1.57598 0.00835791 0
M  V30 146 C 14.5499 -1.90928 -0.674732 0
M  V30 147 C 14.8779 -0.88277 -1.73313 0
M  V30 148 O 14.1329 0.111294 -1.95383 0
M  V30 149 C 14.4319 -3.3101 -1.34787 0
M  V30 150 C 14.0979 -4.48922 -0.421861 0
M  V30 151 C 12.7599 -4.8091 -0.166927 0
M  V30 152 C 15.1119 -5.20755 0.215211 0
M  V30 153 C 12.4399 -5.821 0.733232 0
M  V30 154 C 14.7919 -6.22905 1.1033 0
M  V30 155 C 13.4559 -6.53346 1.36733 0
M  V30 156 H 12.7259 -0.698656 -0.246902 0
M  V30 157 H 15.3729 -1.91387 0.0656779 0
M  V30 158 H 13.6779 -3.26714 -2.16253 0
M  V30 159 H 15.3749 -3.54061 -1.8826 0
M  V30 160 H 11.9649 -4.23934 -0.630729 0
M  V30 161 H 16.1489 -4.9629 0.0312829 0
M  V30 162 H 11.4049 -6.04042 0.945712 0
M  V30 163 H 15.5789 -6.77694 1.60325 0
M  V30 164 H 13.2059 -7.31573 2.06652 0
M  V30 165 N 14.781 0.264519 -1.55364 0
M  V30 166 C 16.027 0.992314 -1.77552 0
M  V30 167 C 16.382 1.83626 -0.574379 0
M  V30 168 O 15.675 1.86648 0.432782 0
M  V30 169 C 15.869 1.9004 -3.02687 0
M  V30 170 C 15.698 1.14583 -4.34857 0
M  V30 171 C 14.468 0.858068 -4.97961 0
M  V30 172 C 16.666 0.532069 -5.1154 0
M  V30 173 N 14.648 0.0775974 -6.13851 0
M  V30 174 C 16.019 -0.113823 -6.19896 0
M  V30 175 C 18.074 0.440763 -4.95945 0
M  V30 176 C 16.777 -0.842231 -7.14352 0
M  V30 177 C 18.803 -0.274072 -5.90765 0
M  V30 178 C 18.165 -0.90867 -6.98515 0
M  V30 179 H 14.264 0.344811 -0.701875 0
M  V30 180 H 16.848 0.267141 -1.92859 0
M  V30 181 H 15.019 2.59775 -2.88741 0
M  V30 182 H 16.751 2.56243 -3.13243 0
M  V30 183 H 13.506 1.16547 -4.59036 0
M  V30 184 H 13.93 -0.300216 -6.76334 0
M  V30 185 H 18.572 0.917064 -4.12735 0
M  V30 186 H 16.29 -1.33019 -7.97077 0
M  V30 187 H 19.876 -0.345151 -5.80775 0
M  V30 188 H 18.756 -1.45299 -7.70622 0
M  V30 189 N 16.2591 1.48442 0.529413 0
M  V30 190 C 17.2071 1.63452 1.65487 0
M  V30 191 C 18.2011 0.500955 1.61823 0
M  V30 192 O 19.4071 0.679695 1.66674 0
M  V30 193 H 15.7821 0.514905 0.548066 0
M  V30 194 H 17.7531 2.57975 1.49971 0
M  V30 195 C 16.5021 1.69196 3.03756 0
M  V30 196 H 15.8251 2.55784 3.07269 0
M  V30 197 H 17.2651 1.83743 3.82119 0
M  V30 198 C 15.7241 0.430765 3.34135 0
M  V30 199 O 16.2541 -0.4561 3.99102 0
M  V30 200 N 14.4601 0.302293 2.89023 0
M  V30 201 H 14.0071 1.02496 2.36331 0
M  V30 202 H 13.9651 -0.540546 3.09718 0
M  V30 203 N 17.7372 -0.778329 1.37039 0
M  V30 204 C 18.9622 -1.57248 1.35233 0
M  V30 205 C 19.3872 -1.87999 -0.0615568 0
M  V30 206 O 18.7452 -1.48734 -1.03672 0
M  V30 207 C 18.7932 -2.86353 2.19167 0
M  V30 208 O 17.8972 -3.80442 1.59178 0
M  V30 209 H 17.2382 -0.476569 0.462362 0
M  V30 210 H 19.7682 -0.963853 1.80474 0
M  V30 211 H 19.7782 -3.35519 2.32145 0
M  V30 212 H 18.4532 -2.63299 3.21942 0
M  V30 213 H 17.0302 -3.39067 1.55203 0
M  V30 214 N 19.2153 -1.21501 -1.00376 0
M  V30 215 C 20.4403 -1.05977 -1.78279 0
M  V30 216 C 20.8653 0.385994 -1.84097 0
M  V30 217 O 20.2233 1.27849 -1.28547 0
M  V30 218 C 20.2713 -1.66302 -3.19963 0
M  V30 219 O 19.3753 -0.909333 -4.0225 0
M  V30 220 H 18.7163 -0.372906 -0.549397 0
M  V30 221 H 21.2463 -1.6107 -1.26165 0
M  V30 222 H 21.2563 -1.70574 -3.70632 0
M  V30 223 H 19.9313 -2.71515 -3.15043 0
M  V30 224 H 18.5083 -0.941795 -3.60811 0
M  V30 225 N 20.6934 1.19889 -1.02296 0
M  V30 226 C 21.9404 1.8942 -0.715972 0
M  V30 227 C 22.2684 1.79251 0.754944 0
M  V30 228 O 21.5234 1.17526 1.56481 0
M  V30 229 C 21.8224 3.39883 -1.10518 0
M  V30 230 C 21.4884 3.70254 -2.57337 0
M  V30 231 C 20.1504 3.78254 -2.97452 0
M  V30 232 C 22.5024 3.84052 -3.52354 0
M  V30 233 C 19.8304 3.97514 -4.31509 0
M  V30 234 C 22.1824 4.04824 -4.86108 0
M  V30 235 C 20.8464 4.11054 -5.25919 0
M  V30 236 H 20.1164 0.693138 -0.261993 0
M  V30 237 H 22.7634 1.42012 -1.28472 0
M  V30 238 H 21.0684 3.8915 -0.454953 0
M  V30 239 H 22.7654 3.9199 -0.845261 0
M  V30 240 H 19.3554 3.64632 -2.25258 0
M  V30 241 H 23.5394 3.77221 -3.22518 0
M  V30 242 H 18.7954 4.00574 -4.61898 0
M  V30 243 H 22.9694 4.14442 -5.59653 0
M  V30 244 H 20.5964 4.2573 -6.29808 0
M  V30 245 N 22.1715 0.800033 1.35784 0
M  V30 246 C 23.1015 0.220184 2.3246 0
M  V30 247 C 24.0825 -0.65073 1.57161 0
M  V30 248 O 25.2675 -0.582359 1.85263 0
M  V30 249 C 22.3975 -0.637353 3.41402 0
M  V30 250 C 21.3515 0.134531 4.27789 0
M  V30 251 C 20.6775 -0.844285 5.27992 0
M  V30 252 C 21.9775 1.32979 5.05088 0
M  V30 253 H 23.6715 1.02787 2.81203 0
M  V30 254 H 21.2175 0.495717 1.35199 0
M  V30 255 H 23.1705 -1.05302 4.08031 0
M  V30 256 H 21.8945 -1.47785 2.91251 0
M  V30 257 H 20.5535 0.531296 3.6273 0
M  V30 258 H 20.2015 -1.68011 4.74111 0
M  V30 259 H 19.9015 -0.332184 5.8666 0
M  V30 260 H 21.4255 -1.2583 5.97494 0
M  V30 261 H 22.8395 0.98934 5.64699 0
M  V30 262 H 21.2365 1.77593 5.7322 0
M  V30 263 H 22.3065 2.11978 4.36111 0
M  V30 264 N 23.6496 -1.47581 0.552962 0
M  V30 265 C 24.9266 -1.95563 -0.0381515 0
M  V30 266 C 25.3066 -1.49552 -1.48988 0
M  V30 267 O 24.6546 -0.732414 -2.16444 0
M  V30 268 C 24.8646 -3.48848 0.102919 0
M  V30 269 C 26.2126 -4.24577 -0.0446082 0
M  V30 270 O 27.2366 -3.56187 0.0302548 0
M  V30 271 O 26.0956 -5.46116 -0.204923 0
M  V30 272 H 23.1896 -0.824321 -0.0665067 0
M  V30 273 H 25.7356 -1.58001 0.619186 0
M  V30 274 H 24.5076 -3.75129 1.11328 0
M  V30 275 H 24.1306 -3.93165 -0.592224 0
M  V30 276 N 25.1277 -0.289203 -1.54924 0
M  V30 277 C 26.3527 0.329299 -2.04769 0
M  V30 278 C 26.7777 1.4763 -1.16564 0
M  V30 279 O 26.1357 1.80527 -0.167186 0
M  V30 280 C 26.1837 0.774438 -3.52186 0
M  V30 281 O 25.2877 1.88038 -3.67036 0
M  V30 282 H 24.6287 0.0659259 -0.660719 0
M  V30 283 H 27.1587 -0.42761 -2.00082 0
M  V30 284 H 27.1687 1.06642 -3.93816 0
M  V30 285 H 25.8437 -0.0646707 -4.1585 0
M  V30 286 H 24.4207 1.58985 -3.3731 0
M  V30 287 N 26.6058 1.57591 -0.0167156 0
M  V30 288 C 28.0168 1.79201 0.523834 0
M  V30 289 C 28.3678 0.925796 1.72984 0
M  V30 290 O 27.4928 0.132792 2.15992 0
M  V30 291 C 28.0878 3.25 0.957091 0
M  V30 292 C 26.6468 3.47648 1.44283 0
M  V30 293 C 25.7938 2.74374 0.401757 0
M  V30 294 H 28.7448 1.56831 -0.242816 0
M  V30 295 H 28.7658 3.34031 1.82219 0
M  V30 296 H 28.2778 3.88019 0.0791415 0
M  V30 297 H 26.3788 2.89866 2.34113 0
M  V30 298 H 26.4918 4.56352 1.45877 0
M  V30 299 H 24.8558 2.39485 0.867121 0
M  V30 300 H 25.6388 3.40102 -0.467513 0
M  V30 301 N 28.0839 -0.256276 1.55502 0
M  V30 302 C 28.9939 -1.33882 1.92647 0
M  V30 303 C 30.0099 -1.53159 0.825727 0
M  V30 304 O 31.1859 -1.66963 1.12629 0
M  V30 305 C 28.2509 -2.6751 2.20543 0
M  V30 306 C 27.3119 -2.56836 3.43997 0
M  V30 307 C 26.5449 -3.84092 3.70553 0
M  V30 308 O 26.7679 -4.85545 2.99336 0
M  V30 309 O 25.7019 -3.83288 4.64084 0
M  V30 310 H 29.5279 -1.05374 2.84833 0
M  V30 311 H 27.1129 -0.456237 1.42263 0
M  V30 312 H 28.9949 -3.46492 2.39835 0
M  V30 313 H 27.6699 -2.9577 1.31536 0
M  V30 314 H 26.5769 -1.76172 3.30021 0
M  V30 315 H 27.9099 -2.33523 4.33275 0
M  V30 316 N 29.562 -1.4872 -0.521534 0
M  V30 317 C 30.525 -1.63379 -1.60748 0
M  V30 318 C 31.525 -0.50661 -1.52611 0
M  V30 319 O 32.715 -0.772601 -1.5613 0
M  V30 320 C 29.847 -1.61192 -3.00383 0
M  V30 321 H 31.04 -2.60217 -1.49087 0
M  V30 322 H 28.593 -1.37444 -0.744235 0
M  V30 323 H 29.328 -0.65863 -3.17541 0
M  V30 324 H 29.113 -2.43032 -3.07698 0
M  V30 325 H 30.603 -1.7466 -3.7932 0
M  V30 326 N 31.0401 0.771051 -1.3745 0
M  V30 327 C 32.3171 1.519 -1.23231 0
M  V30 328 C 32.6971 2.10383 0.173809 0
M  V30 329 O 32.0451 1.95583 1.18151 0
M  V30 330 C 32.2551 2.59933 -2.32886 0
M  V30 331 C 33.6031 3.27316 -2.70461 0
M  V30 332 O 34.6271 2.70228 -2.32068 0
M  V30 333 O 33.4861 4.30531 -3.36608 0
M  V30 334 H 30.5801 0.672803 -0.480901 0
M  V30 335 H 33.1261 0.807957 -1.49232 0
M  V30 336 H 31.8981 2.14842 -3.27045 0
M  V30 337 H 31.5211 3.38637 -2.08353 0
M  V30 338 N 32.5182 1.22032 0.997298 0
M  V30 339 C 33.4482 1.01065 2.10495 0
M  V30 340 C 34.4292 -0.0669542 1.69968 0
M  V30 341 O 35.6142 0.0943987 1.9397 0
M  V30 342 C 32.7442 0.582874 3.42374 0
M  V30 343 C 31.6982 1.60592 3.96729 0
M  V30 344 C 31.0242 1.03412 5.24605 0
M  V30 345 C 32.3242 2.99478 4.27914 0
M  V30 346 H 34.0182 1.93708 2.28292 0
M  V30 347 H 31.5642 0.932761 1.09707 0
M  V30 348 H 33.5172 0.423332 4.19268 0
M  V30 349 H 32.2412 -0.379213 3.24391 0
M  V30 350 H 30.9002 1.75316 3.21963 0
M  V30 351 H 30.5482 0.063518 5.0296 0
M  V30 352 H 30.2482 1.71754 5.61938 0
M  V30 353 H 31.7722 0.886066 6.04137 0
M  V30 354 H 33.1862 2.88153 4.95622 0
M  V30 355 H 31.5832 3.64903 4.76409 0
M  V30 356 H 32.6532 3.49742 3.3587 0
M  V30 357 N 33.9963 -1.19345 1.0293 0
M  V30 358 C 35.4073 -1.70725 0.755633 0
M  V30 359 C 35.7583 -1.82326 -0.724676 0
M  V30 360 O 34.8833 -1.49471 -1.56484 0
M  V30 361 C 35.4783 -3.10084 1.36503 0
M  V30 362 C 34.0373 -3.58723 1.13994 0
M  V30 363 C 33.1843 -2.35577 1.46283 0
M  V30 364 H 36.1353 -1.0418 1.19718 0
M  V30 365 H 36.1563 -3.72787 0.762217 0
M  V30 366 H 35.6683 -3.01609 2.44241 0
M  V30 367 H 33.7693 -3.72512 0.0807901 0
M  V30 368 H 33.8823 -4.42816 1.82894 0
M  V30 369 H 32.2463 -2.38935 0.88217 0
M  V30 370 H 33.0293 -2.29731 2.55105 0
M  V30 371 N 35.4744 -0.807222 -1.35358 0
M  V30 372 C 36.4044 -0.232509 -2.3234 0
M  V30 373 C 37.3854 0.642386 -1.57504 0
M  V30 374 O 38.5704 0.572526 -1.85569 0
M  V30 375 C 35.7004 0.619238 -3.41735 0
M  V30 376 C 34.6544 -0.157215 -4.27711 0
M  V30 377 C 33.9804 0.816273 -5.28433 0
M  V30 378 C 35.2804 -1.35656 -5.04376 0
M  V30 379 H 36.9744 -1.04276 -2.80654 0
M  V30 380 H 34.5204 -0.50288 -1.34934 0
M  V30 381 H 36.4734 1.03137 -4.08584 0
M  V30 382 H 35.1974 1.46239 -2.92031 0
M  V30 383 H 33.8564 -0.550525 -3.62443 0
M  V30 384 H 33.5044 1.65494 -4.74996 0
M  V30 385 H 33.2044 0.301067 -5.86828 0
M  V30 386 H 34.7284 1.22659 -5.98153 0
M  V30 387 H 36.1424 -1.01927 -5.64166 0
M  V30 388 H 34.5394 -1.8063 -5.7227 0
M  V30 389 H 35.6094 -2.14288 -4.34981 0
M  V30 390 N 36.9525 1.47285 -0.560781 0
M  V30 391 C 38.1925 2.0436 -0.0404627 0
M  V30 392 C 38.5565 1.42534 1.28639 0
M  V30 393 O 39.7575 1.90677 1.89462 0
M  V30 394 C 38.0285 3.57369 0.0471856 0
M  V30 395 S 39.5875 4.3579 0.513109 0
M  V30 396 H 36.4055 0.710492 -0.0268674 0
M  V30 397 H 39.0075 1.80611 -0.748323 0
M  V30 398 H 37.7115 3.9989 -0.922817 0
M  V30 399 H 37.2425 3.8562 0.778491 0
M  V30 400 H 39.2575 4.63476 1.77212 0
M  V30 401 N 38.4306 0.297415 1.54768 0
M  V30 402 C 39.6776 -0.312913 2.00068 0
M  V30 403 C 40.0056 -1.54171 1.18582 0
M  V30 404 O 39.2606 -1.94108 0.249133 0
M  V30 405 C 39.5596 -0.717561 3.50123 0
M  V30 406 C 39.2256 0.409095 4.4904 0
M  V30 407 C 37.8876 0.718399 4.75807 0
M  V30 408 C 40.2396 1.16717 5.07963 0
M  V30 409 C 37.5676 1.78896 5.5876 0
M  V30 410 C 39.9196 2.22762 5.92081 0
M  V30 411 C 38.5836 2.54303 6.1716 0
M  V30 412 H 37.8536 -0.114503 0.7321 0
M  V30 413 H 40.5006 0.415767 1.86932 0
M  V30 414 H 38.8056 -1.52627 3.60849 0
M  V30 415 H 40.5026 -1.20091 3.82595 0
M  V30 416 H 37.0926 0.157918 4.28309 0
M  V30 417 H 41.2766 0.941466 4.87289 0
M  V30 418 H 36.5326 2.0381 5.7643 0
M  V30 419 H 40.7066 2.81962 6.36765 0
M  V30 420 H 38.3336 3.3739 6.81229 0
M  V30 421 N 39.9087 -1.5758 0.0250728 0
M  V30 422 C 40.8187 -2.1343 -0.973905 0
M  V30 423 C 41.8347 -1.08556 -1.35984 0
M  V30 424 O 43.0107 -1.40592 -1.44207 0
M  V30 425 C 40.0757 -2.64703 -2.23904 0
M  V30 426 C 39.1367 -3.84276 -1.91391 0
M  V30 427 C 38.3697 -4.33095 -3.11873 0
M  V30 428 O 38.5927 -3.81107 -4.24398 0
M  V30 429 O 37.5267 -5.24984 -2.94406 0
M  V30 430 H 41.3527 -2.99057 -0.529036 0
M  V30 431 H 38.9377 -1.48118 -0.195288 0
M  V30 432 H 40.8197 -2.97769 -2.98181 0
M  V30 433 H 39.4947 -1.82161 -2.6758 0
M  V30 434 H 38.4017 -3.56143 -1.14511 0
M  V30 435 H 39.7347 -4.67968 -1.52534 0
M  V30 436 N 41.3868 0.248026 -1.55636 0
M  V30 437 C 42.3188 1.32993 -1.8667 0
M  V30 438 C 43.3318 1.44345 -0.752877 0
M  V30 439 O 44.5208 1.45715 -1.03098 0
M  V30 440 C 41.6208 2.70863 -2.03682 0
M  V30 441 C 40.7938 2.81792 -3.34532 0
M  V30 442 C 39.8528 4.005 -3.41301 0
M  V30 443 O 38.8788 3.9008 -4.14519 0
M  V30 444 N 40.0808 5.13618 -2.70512 0
M  V30 445 H 42.8458 1.06707 -2.8006 0
M  V30 446 H 40.4068 0.438129 -1.55859 0
M  V30 447 H 42.3988 3.48612 -2.05553 0
M  V30 448 H 40.9688 2.89862 -1.17041 0
M  V30 449 H 40.1888 1.90729 -3.44987 0
M  V30 450 H 41.4768 2.86043 -4.20781 0
M  V30 451 H 40.8748 5.24975 -2.10755 0
M  V30 452 H 39.4318 5.89505 -2.78077 0
M  V30 453 N 42.8649 1.48995 0.513639 0
M  V30 454 C 44.0929 1.61531 1.29288 0
M  V30 455 C 44.5079 0.281801 1.86685 0
M  V30 456 O 43.8649 -0.731111 1.67215 0
M  V30 457 C 43.9159 2.67449 2.43215 0
M  V30 458 O 43.6369 3.95626 1.88179 0
M  V30 459 C 45.1379 2.90575 3.34785 0
M  V30 460 H 42.3579 0.544165 0.392588 0
M  V30 461 H 44.9019 1.9494 0.617956 0
M  V30 462 H 43.0569 2.36853 3.0656 0
M  V30 463 H 43.4709 4.53868 2.62876 0
M  V30 464 H 44.9449 3.68449 4.11035 0
M  V30 465 H 45.4219 2.00011 3.91015 0
M  V30 466 H 46.0279 3.22538 2.77218 0
M  V30 467 N 44.343 -0.763751 1.37857 0
M  V30 468 C 45.589 -1.52483 1.33704 0
M  V30 469 C 45.922 -1.94051 -0.0759612 0
M  V30 470 O 45.197 -1.64675 -1.03501 0
M  V30 471 C 45.48 -2.78441 2.28348 0
M  V30 472 C 45.333 -2.43075 3.78463 0
M  V30 473 C 46.652 -3.80415 2.21298 0
M  V30 474 H 43.771 -0.553169 0.487005 0
M  V30 475 H 46.413 -0.875562 1.68624 0
M  V30 476 H 44.563 -3.33842 1.987 0
M  V30 477 H 46.235 -1.93527 4.18742 0
M  V30 478 H 44.478 -1.75666 3.96641 0
M  V30 479 H 45.149 -3.33149 4.40132 0
M  V30 480 H 47.625 -3.34527 2.47449 0
M  V30 481 H 46.501 -4.66257 2.89647 0
M  V30 482 H 46.762 -4.25262 1.20849 0
M  V30 483 N 45.8211 -1.22559 -0.990812 0
M  V30 484 C 46.7511 -1.0218 -2.09956 0
M  V30 485 C 47.7321 0.0579394 -1.70001 0
M  V30 486 O 48.9171 -0.104684 -1.93918 0
M  V30 487 C 46.0471 -0.601023 -3.4206 0
M  V30 488 C 45.0011 -1.62694 -3.95872 0
M  V30 489 C 44.3271 -1.06193 -5.24049 0
M  V30 490 C 45.6271 -3.01743 -4.2632 0
M  V30 491 H 47.3211 -1.94916 -2.27262 0
M  V30 492 H 44.8671 -0.938566 -1.09211 0
M  V30 493 H 46.8201 -0.445561 -4.19038 0
M  V30 494 H 45.5441 0.362005 -3.24588 0
M  V30 495 H 44.2031 -1.77021 -3.21028 0
M  V30 496 H 43.8511 -0.0901903 -5.02919 0
M  V30 497 H 43.5511 -1.74732 -5.61019 0
M  V30 498 H 45.0751 -0.918092 -6.03658 0
M  V30 499 H 46.4891 -2.90777 -4.94087 0
M  V30 500 H 44.8861 -3.67425 -4.74467 0
M  V30 501 H 45.9561 -3.51518 -3.34011 0
M  V30 502 N 47.2992 1.18797 -1.03562 0
M  V30 503 C 48.5452 1.8893 -0.737113 0
M  V30 504 C 48.8782 1.79837 0.732956 0
M  V30 505 O 48.1532 1.19525 1.5344 0
M  V30 506 C 48.4362 3.39607 -1.19745 0
M  V30 507 C 48.2892 3.57537 -2.72924 0
M  V30 508 C 49.6082 4.33069 -0.783526 0
M  V30 509 H 46.7272 0.686057 -0.269249 0
M  V30 510 H 49.3692 1.39797 -1.28673 0
M  V30 511 H 47.5192 3.81583 -0.729855 0
M  V30 512 H 49.1912 3.24688 -3.27682 0
M  V30 513 H 47.4342 3.00363 -3.12993 0
M  V30 514 H 48.1052 4.63238 -3.00191 0
M  V30 515 H 50.5812 3.98846 -1.18581 0
M  V30 516 H 49.4572 5.3707 -1.13343 0
M  V30 517 H 49.7182 4.40986 0.313681 0
M  V30 518 N 48.7773 0.814389 1.34928 0
M  V30 519 C 50.0233 0.408167 1.99263 0
M  V30 520 C 50.3783 -1.0154 1.63424 0
M  V30 521 O 49.6713 -1.69607 0.891289 0
M  V30 522 C 49.8653 0.537781 3.53331 0
M  V30 523 C 49.6943 1.9724 4.04137 0
M  V30 524 C 48.4643 2.60245 4.33129 0
M  V30 525 C 50.6623 2.93801 4.2212 0
M  V30 526 N 48.6443 3.95036 4.69914 0
M  V30 527 C 50.0153 4.1348 4.6199 0
M  V30 528 C 52.0703 2.9053 4.04348 0
M  V30 529 C 50.7733 5.3033 4.85945 0
M  V30 530 C 52.7993 4.06589 4.29464 0
M  V30 531 C 52.1613 5.25017 4.69613 0
M  V30 532 H 48.2603 0.197289 0.756704 0
M  V30 533 H 50.8443 1.05728 1.63492 0
M  V30 534 H 49.0153 -0.0813868 3.88315 0
M  V30 535 H 50.7473 0.105389 4.04563 0
M  V30 536 H 47.5023 2.11545 4.23728 0
M  V30 537 H 47.9263 4.64455 4.92555 0
M  V30 538 H 52.5683 2.00115 3.72443 0
M  V30 539 H 50.2863 6.21309 5.16721 0
M  V30 540 H 53.8723 4.05447 4.17257 0
M  V30 541 H 52.7523 6.1333 4.88667 0
M  V30 542 N 50.2554 -1.46986 0.568584 0
M  V30 543 C 51.5044 -2.01646 0.0465894 0
M  V30 544 C 51.8174 -1.44721 -1.31587 0
M  V30 545 O 53.0234 -1.91113 -1.92842 0
M  V30 546 C 51.4794 -3.59885 0.032752 0
M  V30 547 C 51.0874 -4.25804 1.39266 0
M  V30 548 C 52.8314 -4.22255 -0.436038 0
M  V30 549 C 50.7384 -5.76081 1.33732 0
M  V30 550 H 49.6684 -0.753876 0.013647 0
M  V30 551 H 52.3194 -1.68864 0.718131 0
M  V30 552 H 50.7014 -3.8968 -0.704669 0
M  V30 553 H 51.8754 -4.07637 2.1487 0
M  V30 554 H 50.1904 -3.7547 1.80032 0
M  V30 555 H 52.7874 -5.32394 -0.49602 0
M  V30 556 H 53.1304 -3.90212 -1.45053 0
M  V30 557 H 53.6634 -3.97033 0.246877 0
M  V30 558 H 50.4024 -6.12761 2.32817 0
M  V30 559 H 49.9224 -5.96553 0.623267 0
M  V30 560 H 51.6014 -6.38518 1.0442 0
M  V30 561 N 51.7335 -0.305618 -1.54608 0
M  V30 562 C 53.1445 0.186098 -1.8577 0
M  V30 563 C 53.4955 1.53058 -1.22751 0
M  V30 564 O 52.6205 2.09888 -0.526893 0
M  V30 565 C 53.2155 0.344449 -3.37044 0
M  V30 566 C 51.7745 0.780384 -3.68221 0
M  V30 567 C 50.9215 -0.108554 -2.77087 0
M  V30 568 H 53.8725 -0.526485 -1.49712 0
M  V30 569 H 53.8935 1.17828 -3.61796 0
M  V30 570 H 53.4055 -0.634235 -3.82883 0
M  V30 571 H 51.5065 1.76945 -3.27904 0
M  V30 572 H 51.6195 0.596572 -4.75371 0
M  V30 573 H 49.9835 0.412931 -2.5133 0
M  V30 574 H 50.7665 -1.08368 -3.25747 0
M  V30 575 N 53.2116 1.57565 -0.0334293 0
M  V30 576 C 54.1416 2.13511 0.945265 0
M  V30 577 C 55.1226 1.05231 1.33643 0
M  V30 578 O 56.3076 1.33084 1.41429 0
M  V30 579 C 53.4376 2.6657 2.22616 0
M  V30 580 C 52.3916 3.79676 1.97561 0
M  V30 581 C 51.7176 4.1918 3.31952 0
M  V30 582 C 53.0176 5.0557 1.31135 0
M  V30 583 H 54.7116 2.95538 0.479325 0
M  V30 584 H 52.2576 1.42166 0.229115 0
M  V30 585 H 54.2106 3.04344 2.91466 0
M  V30 586 H 52.9346 1.8171 2.71384 0
M  V30 587 H 51.5936 3.42347 1.31127 0
M  V30 588 H 51.2416 3.31296 3.78487 0
M  V30 589 H 50.9416 4.95402 3.15992 0
M  V30 590 H 52.4656 4.59541 4.02063 0
M  V30 591 H 53.8796 5.40903 1.89992 0
M  V30 592 H 52.2766 5.86818 1.25559 0
M  V30 593 H 53.3466 4.84062 0.284894 0
M  V30 594 N 54.6897 -0.239769 1.55765 0
M  V30 595 C 55.9377 -0.964892 1.77579 0
M  V30 596 C 56.2587 -1.85582 0.598699 0
M  V30 597 O 55.5287 -1.92075 -0.385226 0
M  V30 598 H 54.1087 -0.359265 0.654933 0
M  V30 599 H 56.7707 -0.256001 1.93211 0
M  V30 600 H 55.8667 -1.58243 2.69009 0
M  V30 601 N 56.1678 -1.49265 -0.50573 0
M  V30 602 C 57.3978 -1.61979 -1.28243 0
M  V30 603 C 57.8058 -0.288576 -1.86986 0
M  V30 604 O 57.1488 0.735408 -1.68337 0
M  V30 605 C 57.2108 -2.62632 -2.45489 0
M  V30 606 C 56.8748 -4.071 -2.07651 0
M  V30 607 C 57.8718 -4.94049 -1.61901 0
M  V30 608 C 55.5568 -4.52801 -2.17431 0
M  V30 609 C 57.5508 -6.24736 -1.26428 0
M  V30 610 C 55.2378 -5.83503 -1.8157 0
M  V30 611 C 56.2358 -6.69294 -1.36142 0
M  V30 612 O 55.9238 -7.9756 -1.00764 0
M  V30 613 H 55.6558 -0.54834 -0.395347 0
M  V30 614 H 58.2098 -1.96002 -0.614204 0
M  V30 615 H 56.4398 -2.2378 -3.15372 0
M  V30 616 H 58.1288 -2.64925 -3.07522 0
M  V30 617 H 58.8948 -4.5997 -1.53795 0
M  V30 618 H 54.7738 -3.86196 -2.51742 0
M  V30 619 H 58.3178 -6.91652 -0.908992 0
M  V30 620 H 54.2148 -6.17112 -1.89324 0
M  V30 621 H 54.9828 -8.10529 -1.13952 0
M  V30 622 N 57.6459 0.756429 -1.3826 0
M  V30 623 C 58.5759 1.88374 -1.37976 0
M  V30 624 C 59.5569 1.68311 -0.246082 0
M  V30 625 O 60.7419 1.88944 -0.44874 0
M  V30 626 C 57.8719 3.25864 -1.20125 0
M  V30 627 C 56.8259 3.60523 -2.30666 0
M  V30 628 C 56.1519 4.9672 -1.97923 0
M  V30 629 C 57.4519 3.65692 -3.72916 0
M  V30 630 H 59.1459 1.88869 -2.32312 0
M  V30 631 H 56.6919 0.907272 -1.11824 0
M  V30 632 H 58.6449 4.0438 -1.18552 0
M  V30 633 H 57.3689 3.25841 -0.222498 0
M  V30 634 H 56.0279 2.84324 -2.3142 0
M  V30 635 H 55.6759 4.93253 -0.985393 0
M  V30 636 H 55.3759 5.20878 -2.71955 0
M  V30 637 H 56.8999 5.77618 -1.97964 0
M  V30 638 H 58.3139 4.34328 -3.74208 0
M  V30 639 H 56.7109 4.01358 -4.4613 0
M  V30 640 H 57.7809 2.65987 -4.05436 0
M  V30 641 N 59.124 1.23083 0.984299 0
M  V30 642 C 60.37 1.07221 1.72845 0
M  V30 643 C 60.725 -0.387453 1.88458 0
M  V30 644 O 60.018 -1.28309 1.42293 0
M  V30 645 C 60.212 1.72673 3.1292 0
M  V30 646 C 60.041 3.24853 3.10967 0
M  V30 647 C 58.811 3.93998 3.16376 0
M  V30 648 C 61.009 4.21674 2.94441 0
M  V30 649 N 58.991 5.33192 3.04268 0
M  V30 650 C 60.362 5.47756 2.90453 0
M  V30 651 C 62.417 4.12457 2.78897 0
M  V30 652 C 61.12 6.6568 2.72512 0
M  V30 653 C 63.146 5.3004 2.62319 0
M  V30 654 C 62.508 6.55046 2.59026 0
M  V30 655 H 58.607 0.44685 0.641755 0
M  V30 656 H 61.191 1.55753 1.16829 0
M  V30 657 H 59.362 1.26679 3.67161 0
M  V30 658 H 61.094 1.49824 3.75945 0
M  V30 659 H 57.849 3.45052 3.24401 0
M  V30 660 H 58.273 6.06157 3.015 0
M  V30 661 H 62.915 3.16588 2.80235 0
M  V30 662 H 60.633 7.61689 2.69919 0
M  V30 663 H 64.219 5.24747 2.5126 0
M  V30 664 H 63.099 7.44498 2.46357 0
M  V30 665 N 60.6021 -1.18246 1.0419 0
M  V30 666 C 61.5321 -2.24127 0.654914 0
M  V30 667 C 62.5131 -1.66617 -0.342451 0
M  V30 668 O 63.6981 -1.92924 -0.222277 0
M  V30 669 C 60.8281 -3.47295 0.0183757 0
M  V30 670 C 59.7821 -4.17563 0.939414 0
M  V30 671 C 59.1081 -5.34438 0.167286 0
M  V30 672 C 60.4081 -4.70917 2.25908 0
M  V30 673 H 62.1021 -2.56753 1.54007 0
M  V30 674 H 59.6481 -1.23414 0.74195 0
M  V30 675 H 61.6011 -4.20572 -0.264082 0
M  V30 676 H 60.3251 -3.13907 -0.901664 0
M  V30 677 H 58.9841 -3.46186 1.20628 0
M  V30 678 H 58.6321 -4.97298 -0.7552 0
M  V30 679 H 58.3321 -5.82388 0.780901 0
M  V30 680 H 59.8561 -6.10504 -0.108125 0
M  V30 681 H 61.2701 -5.35882 2.03724 0
M  V30 682 H 59.6671 -5.29406 2.82577 0
M  V30 683 H 60.7371 -3.88272 2.9047 0
M  V30 684 N 62.0802 -0.821533 -1.34494 0
M  V30 685 C 63.0102 -0.257138 -2.3208 0
M  V30 686 C 63.9912 0.625645 -1.58176 0
M  V30 687 O 65.1762 0.552811 -1.86166 0
M  V30 688 C 62.3062 0.582958 -3.42372 0
M  V30 689 C 61.2602 -0.202571 -4.2752 0
M  V30 690 C 60.5862 0.760179 -5.29269 0
M  V30 691 C 61.8862 -1.40998 -5.02908 0
M  V30 692 H 63.5802 -1.07247 -2.79532 0
M  V30 693 H 61.1262 -0.517163 -1.34393 0
M  V30 694 H 63.0792 0.987972 -4.09655 0
M  V30 695 H 61.8032 1.43133 -2.93565 0
M  V30 696 H 60.4622 -0.588936 -3.61838 0
M  V30 697 H 60.1102 1.60447 -4.76724 0
M  V30 698 H 59.8102 0.238809 -5.87115 0
M  V30 699 H 61.3342 1.16308 -5.9942 0
M  V30 700 H 62.7482 -1.07905 -5.63054 0
M  V30 701 H 61.1452 -1.86689 -5.70322 0
M  V30 702 H 62.2152 -2.1889 -4.32684 0
M  V30 703 N 63.5583 1.46682 -0.576371 0
M  V30 704 C 64.5213 2.28707 0.150239 0
M  V30 705 C 65.5213 1.38035 0.824794 0
M  V30 706 O 66.7113 1.60476 0.677719 0
M  V30 707 C 63.8433 3.18248 1.22192 0
M  V30 708 H 65.0363 2.94423 -0.570521 0
M  V30 709 H 62.5893 1.52688 -0.334078 0
M  V30 710 H 63.3243 2.57265 1.97447 0
M  V30 711 H 63.1093 3.85 0.742812 0
M  V30 712 H 64.5993 3.80001 1.73172 0
M  V30 713 N 65.0364 0.313813 1.54444 0
M  V30 714 C 66.4474 -0.176243 1.85866 0
M  V30 715 C 66.7984 -1.52405 1.23561 0
M  V30 716 O 65.9234 -2.09605 0.538016 0
M  V30 717 C 66.5184 -0.32657 3.37222 0
M  V30 718 C 65.0774 -0.760846 3.6863 0
M  V30 719 C 64.2244 0.123247 2.77026 0
M  V30 720 H 67.1754 0.534418 1.49431 0
M  V30 721 H 67.1964 -1.15908 3.62416 0
M  V30 722 H 66.7084 0.654531 3.82541 0
M  V30 723 H 64.8094 -1.75204 3.28838 0
M  V30 724 H 64.9224 -0.571353 4.75681 0
M  V30 725 H 63.2864 -0.399597 2.51546 0
M  V30 726 H 64.0694 1.10094 3.25168 0
M  V30 727 N 66.5145 -1.57545 0.0417849 0
M  V30 728 C 67.7605 -1.93424 -0.629168 0
M  V30 729 C 68.1155 -0.919564 -1.69002 0
M  V30 730 O 67.4085 0.0626178 -1.91498 0
M  V30 731 C 67.6025 -3.33794 -1.27735 0
M  V30 732 C 67.4315 -4.48822 -0.280806 0
M  V30 733 C 66.2015 -5.05148 0.123869 0
M  V30 734 C 68.3995 -5.12148 0.470012 0
M  V30 735 N 66.3815 -6.03703 1.11426 0
M  V30 736 C 67.7525 -6.05921 1.31377 0
M  V30 737 C 69.8075 -4.95078 0.529343 0
M  V30 738 C 68.5105 -6.84459 2.21152 0
M  V30 739 C 70.5365 -5.74235 1.41448 0
M  V30 740 C 69.8985 -6.67634 2.24598 0
M  V30 741 H 65.9975 -0.755418 -0.202158 0
M  V30 742 H 68.5815 -1.94378 0.111923 0
M  V30 743 H 66.7525 -3.33635 -1.98852 0
M  V30 744 H 68.4845 -3.56988 -1.90635 0
M  V30 745 H 65.2395 -4.72923 -0.253178 0
M  V30 746 H 65.6635 -6.57674 1.60607 0
M  V30 747 H 70.3055 -4.22683 -0.0992798 0
M  V30 748 H 68.0235 -7.56151 2.85063 0
M  V30 749 H 71.6095 -5.63057 1.46484 0
M  V30 750 H 70.4895 -7.27817 2.9198 0
M  V30 751 N 67.9926 0.231505 -1.5589 0
M  V30 752 C 68.9246 1.31006 -1.8807 0
M  V30 753 C 69.9376 1.43539 -0.768145 0
M  V30 754 O 71.1266 1.44614 -1.04638 0
M  V30 755 C 68.2266 2.68688 -2.06543 0
M  V30 756 C 67.3996 2.78228 -3.37502 0
M  V30 757 C 66.4586 3.96857 -3.4553 0
M  V30 758 O 65.4846 3.85662 -4.18633 0
M  V30 759 N 66.6866 5.1072 -2.75944 0
M  V30 760 H 69.4516 1.03731 -2.81176 0
M  V30 761 H 67.0126 0.421573 -1.56315 0
M  V30 762 H 69.0046 3.46412 -2.09239 0
M  V30 763 H 67.5746 2.88605 -1.20109 0
M  V30 764 H 66.7946 1.87059 -3.46991 0
M  V30 765 H 68.0826 2.81564 -4.23791 0
M  V30 766 H 67.4806 5.2271 -2.16311 0
M  V30 767 H 66.0376 5.86523 -2.84314 0
M  V30 768 N 69.4707 1.49531 0.497807 0
M  V30 769 C 70.4007 1.6935 1.60757 0
M  V30 770 C 71.3817 0.542218 1.61227 0
M  V30 771 O 72.5667 0.778417 1.77917 0
M  V30 772 C 69.6967 1.76298 2.99226 0
M  V30 773 C 68.6507 2.91248 3.13622 0
M  V30 774 C 67.9767 2.83312 4.53474 0
M  V30 775 C 69.2767 4.3214 2.93346 0
M  V30 776 H 70.9707 2.62263 1.44425 0
M  V30 777 H 68.5167 1.26208 0.693367 0
M  V30 778 H 70.4697 1.88749 3.76765 0
M  V30 779 H 69.1937 0.799871 3.16654 0
M  V30 780 H 67.8527 2.78404 2.38509 0
M  V30 781 H 67.5007 1.84902 4.67782 0
M  V30 782 H 67.2007 3.60465 4.64046 0
M  V30 783 H 68.7247 2.97775 5.33069 0
M  V30 784 H 70.1387 4.45649 3.60652 0
M  V30 785 H 68.5357 5.1054 3.15387 0
M  V30 786 H 69.6057 4.46363 1.89441 0
M  V30 787 N 70.9488 -0.749086 1.3866 0
M  V30 788 C 71.8788 -1.8764 1.38973 0
M  V30 789 C 72.8598 -1.68178 0.255004 0
M  V30 790 O 74.0448 -1.88704 0.458754 0
M  V30 791 C 71.1748 -3.25222 1.21851 0
M  V30 792 C 70.1288 -3.59295 2.32575 0
M  V30 793 C 69.4548 -4.95663 2.00555 0
M  V30 794 C 70.7548 -3.63709 3.7485 0
M  V30 795 H 72.4488 -1.87635 2.3331 0
M  V30 796 H 69.9948 -0.901329 1.12303 0
M  V30 797 H 71.9478 -4.03746 1.20695 0
M  V30 798 H 70.6718 -3.25719 0.239775 0
M  V30 799 H 69.3308 -2.83093 2.32925 0
M  V30 800 H 68.9788 -4.92724 1.01154 0
M  V30 801 H 68.6788 -5.19429 2.74714 0
M  V30 802 H 70.2028 -5.7656 2.01024 0
M  V30 803 H 71.6168 -4.32338 3.76506 0
M  V30 804 H 70.0138 -3.98986 4.48252 0
M  V30 805 H 71.0838 -2.63834 4.06841 0
M  V30 806 N 72.4269 -1.23603 -0.977757 0
M  V30 807 C 73.3769 -0.986664 -2.05545 0
M  V30 808 C 74.3609 0.0683009 -1.60755 0
M  V30 809 O 75.5529 -0.144162 -1.76412 0
M  V30 810 C 72.6819 -0.582623 -3.3832 0
M  V30 811 C 71.7679 -1.67313 -3.89701 0
M  V30 812 N 72.1589 -2.90394 -4.14132 0
M  V30 813 C 70.4569 -1.54832 -4.18262 0
M  V30 814 C 71.1579 -3.61017 -4.56116 0
M  V30 815 N 70.1339 -2.8854 -4.60701 0
M  V30 816 H 73.9359 -1.92139 -2.22396 0
M  V30 817 H 71.4499 -1.1358 -1.16074 0
M  V30 818 H 73.4469 -0.38524 -4.15116 0
M  V30 819 H 72.1069 0.34503 -3.22862 0
M  V30 820 H 73.1179 -3.26673 -4.01877 0
M  V30 821 H 69.7949 -0.687969 -4.11793 0
M  V30 822 H 71.1849 -4.66544 -4.83514 0
M  V30 823 N 73.905 1.17692 -1.04816 0
M  V30 824 C 75.151 1.88137 -0.75711 0
M  V30 825 C 75.484 1.80604 0.713841 0
M  V30 826 O 74.759 1.21146 1.52164 0
M  V30 827 C 75.042 3.38318 -1.2334 0
M  V30 828 C 74.895 3.54622 -2.76701 0
M  V30 829 C 76.214 4.32214 -0.829415 0
M  V30 830 H 73.333 0.683163 -0.27651 0
M  V30 831 H 75.975 1.38424 -1.30149 0
M  V30 832 H 74.125 3.80787 -0.770286 0
M  V30 833 H 75.797 3.21194 -3.31107 0
M  V30 834 H 74.04 2.97026 -3.16161 0
M  V30 835 H 74.711 4.60028 -3.05088 0
M  V30 836 H 77.187 3.97565 -1.22805 0
M  V30 837 H 76.063 5.35838 -1.19033 0
M  V30 838 H 76.324 4.41294 0.266891 0
M  V30 839 N 75.3831 0.828654 1.34056 0
M  V30 840 C 76.6131 0.431993 2.02033 0
M  V30 841 C 77.0211 -0.96844 1.62536 0
M  V30 842 O 76.3641 -1.6391 0.829408 0
M  V30 843 C 76.4261 0.461224 3.56529 0
M  V30 844 C 76.0901 1.81599 4.1937 0
M  V30 845 C 77.0871 2.7777 4.39477 0
M  V30 846 C 74.7721 2.10604 4.56017 0
M  V30 847 C 76.7661 4.01115 4.95364 0
M  V30 848 C 74.4531 3.34207 5.11614 0
M  V30 849 C 75.4511 4.2928 5.31232 0
M  V30 850 O 75.1391 5.50699 5.8565 0
M  V30 851 H 74.8711 0.170943 0.654029 0
M  V30 852 H 77.4251 1.11988 1.72185 0
M  V30 853 H 75.6551 -0.283388 3.8566 0
M  V30 854 H 77.3441 0.0838149 4.05813 0
M  V30 855 H 78.1101 2.56659 4.11523 0
M  V30 856 H 73.9891 1.37402 4.40047 0
M  V30 857 H 77.5331 4.75333 5.10592 0
M  V30 858 H 73.4301 3.55179 5.38997 0
M  V30 859 H 74.1981 5.52298 6.04077 0
M  V30 860 N 76.8612 -1.46375 0.584142 0
M  V30 861 C 77.8082 -2.30323 -0.148286 0
M  V30 862 C 78.7782 -1.40703 -0.882713 0
M  V30 863 O 79.9632 -1.69651 -0.873099 0
M  V30 864 C 77.1032 -3.25196 -1.15507 0
M  V30 865 C 76.2162 -4.29915 -0.423943 0
M  V30 866 C 75.3512 -5.11914 -1.41838 0
M  V30 867 C 74.3902 -6.08381 -0.673736 0
M  V30 868 N 73.5272 -6.83242 -1.6163 0
M  V30 869 H 78.3672 -2.92427 0.573644 0
M  V30 870 H 75.9042 -1.44118 0.294703 0
M  V30 871 H 77.8622 -3.78646 -1.75166 0
M  V30 872 H 76.4922 -2.64898 -1.8447 0
M  V30 873 H 75.5442 -3.7931 0.287714 0
M  V30 874 H 76.8562 -4.98549 0.158128 0
M  V30 875 H 76.0102 -5.69648 -2.08773 0
M  V30 876 H 74.7492 -4.43243 -2.03438 0
M  V30 877 H 73.7542 -5.49799 0.00938483 0
M  V30 878 H 74.9792 -6.79071 -0.0631082 0
M  V30 879 H 72.9252 -6.1728 -2.22038 0
M  V30 880 H 72.8422 -7.48144 -1.08707 0
M  V30 881 H 74.1102 -7.45534 -2.27596 0
M  V30 882 N 78.3393 -0.321999 -1.54275 0
M  V30 883 C 79.5643 0.285791 -2.05422 0
M  V30 884 C 79.9893 1.45124 -1.19669 0
M  V30 885 O 79.3473 1.80132 -0.205441 0
M  V30 886 C 79.3953 0.69956 -3.53749 0
M  V30 887 O 78.4993 1.8021 -3.70942 0
M  V30 888 H 77.8403 0.0518962 -0.661969 0
M  V30 889 H 80.3703 -0.469954 -1.9913 0
M  V30 890 H 80.3803 0.982649 -3.9599 0
M  V30 891 H 79.0553 -0.152864 -4.15619 0
M  V30 892 H 77.6323 1.51794 -3.40607 0
M  V30 893 N 79.8174 1.5752 -0.0501392 0
M  V30 894 C 81.2334 1.56631 0.306402 0
M  V30 895 C 81.4334 1.0577 1.71508 0
M  V30 896 O 80.4894 0.713837 2.422 0
M  V30 897 C 81.8024 3.00393 0.135811 0
M  V30 898 C 83.3504 3.12315 0.206993 0
M  V30 899 C 83.8254 4.57954 0.064944 0
M  V30 900 N 85.3164 4.63041 0.121254 0
M  V30 901 C 86.0514 5.73389 0.0354381 0
M  V30 902 N 85.5474 6.92724 -0.102666 0
M  V30 903 N 87.3404 5.62026 0.090946 0
M  V30 904 H 79.4914 1.88903 -0.971046 0
M  V30 905 H 81.7544 0.869876 -0.376855 0
M  V30 906 H 81.4604 3.41635 -0.835384 0
M  V30 907 H 81.3344 3.66373 0.897275 0
M  V30 908 H 83.7214 2.70973 1.16866 0
M  V30 909 H 83.8024 2.49016 -0.585208 0
M  V30 910 H 83.4464 4.99981 -0.893394 0
M  V30 911 H 83.3764 5.19258 0.876277 0
M  V30 912 H 85.8674 3.77216 0.227284 0
M  V30 913 H 86.1804 7.72633 -0.160882 0
M  V30 914 H 84.5254 6.94864 -0.137737 0
M  V30 915 H 87.7164 4.67684 0.197388 0
M  V30 916 H 87.8894 6.47997 0.0206089 0
M  V30 917 N 81.2955 -0.223234 1.56011 0
M  V30 918 C 82.5235 -0.964812 1.83027 0
M  V30 919 C 82.9385 -1.78013 0.62904 0
M  V30 920 O 82.2955 -1.78008 -0.402414 0
M  V30 921 C 82.3465 -1.88373 3.08542 0
M  V30 922 O 82.0675 -1.10137 4.2403 0
M  V30 923 C 83.5685 -2.73934 3.48533 0
M  V30 924 H 80.7885 -0.282842 0.608475 0
M  V30 925 H 83.3325 -0.238971 2.03099 0
M  V30 926 H 81.4875 -2.56354 2.9045 0
M  V30 927 H 81.9015 -1.72501 4.95322 0
M  V30 928 H 83.3755 -3.34117 4.39397 0
M  V30 929 H 83.8525 -3.46244 2.70207 0
M  V30 930 H 84.4585 -2.11369 3.69057 0
M  V30 931 N 82.7736 -1.49793 -0.48987 0
M  V30 932 C 83.7206 -1.67281 -1.59014 0
M  V30 933 C 84.6906 -0.514177 -1.57941 0
M  V30 934 O 85.8756 -0.742533 -1.75759 0
M  V30 935 C 83.0156 -1.75569 -2.97102 0
M  V30 936 C 82.1286 -3.0281 -3.08107 0
M  V30 937 C 81.2636 -3.02008 -4.36995 0
M  V30 938 C 80.3026 -4.23782 -4.41673 0
M  V30 939 N 79.4396 -4.20826 -5.62005 0
M  V30 940 H 84.2796 -2.61224 -1.43409 0
M  V30 941 H 81.8166 -1.29508 -0.697565 0
M  V30 942 H 83.7746 -1.78354 -3.77155 0
M  V30 943 H 82.4046 -0.850827 -3.11385 0
M  V30 944 H 81.4566 -3.09584 -2.21047 0
M  V30 945 H 82.7686 -3.92801 -3.07423 0
M  V30 946 H 81.9226 -3.03418 -5.25378 0
M  V30 947 H 80.6616 -2.09815 -4.4026 0
M  V30 948 H 79.6666 -4.22604 -3.5169 0
M  V30 949 H 80.8916 -5.17181 -4.40115 0
M  V30 950 H 78.8376 -3.31476 -5.66091 0
M  V30 951 H 78.7546 -5.04564 -5.62984 0
M  V30 952 H 80.0226 -4.26355 -6.52565 0
M  V30 953 N 84.2517 0.741722 -1.39055 0
M  V30 954 C 85.6677 1.04638 -1.20512 0
M  V30 955 C 85.8677 2.01405 -0.0620218 0
M  V30 956 O 84.9237 2.45547 0.588457 0
M  V30 957 C 86.2367 1.6151 -2.53643 0
M  V30 958 C 87.7847 1.73623 -2.6043 0
M  V30 959 C 88.2597 2.33906 -3.93767 0
M  V30 960 N 89.7507 2.41323 -3.9537 0
M  V30 961 C 90.4857 2.88888 -4.95309 0
M  V30 962 N 89.9817 3.36401 -6.05645 0
M  V30 963 N 91.7747 2.88037 -4.82692 0
M  V30 964 H 83.9257 0.0998155 -2.12165 0
M  V30 965 H 86.1887 0.106907 -0.941953 0
M  V30 966 H 85.8947 0.978739 -3.37807 0
M  V30 967 H 85.7687 2.60411 -2.72885 0
M  V30 968 H 88.1557 2.36384 -1.76655 0
M  V30 969 H 88.2367 0.733945 -2.45045 0
M  V30 970 H 87.8807 1.71776 -4.7797 0
M  V30 971 H 87.8107 3.34799 -4.06469 0
M  V30 972 H 90.3017 2.07734 -3.15682 0
M  V30 973 H 90.6147 3.71186 -6.77821 0
M  V30 974 H 88.9597 3.34427 -6.09248 0
M  V30 975 H 92.1507 2.50237 -3.95599 0
M  V30 976 H 92.3237 3.24792 -5.60726 0
M  V30 977 N 85.7298 1.2412 0.971189 0
M  V30 978 C 86.9548 1.10667 1.75407 0
M  V30 979 C 87.3798 -0.337048 1.85056 0
M  V30 980 O 86.7378 -1.24396 1.31892 0
M  V30 981 C 86.7858 1.74726 3.15441 0
M  V30 982 O 85.8898 1.01566 3.99697 0
M  V30 983 H 85.2308 0.387341 0.539317 0
M  V30 984 H 87.7608 1.64358 1.2185 0
M  V30 985 H 87.7708 1.80341 3.6598 0
M  V30 986 H 86.4458 2.79773 3.07734 0
M  V30 987 H 85.0228 1.03713 3.58187 0
M  V30 988 N 87.2079 -1.17134 1.05439 0
M  V30 989 C 88.4329 -1.91913 0.786396 0
M  V30 990 C 88.8579 -1.7643 -0.652234 0
M  V30 991 O 88.2159 -1.08372 -1.45345 0
M  V30 992 C 88.2639 -3.40921 1.17497 0
M  V30 993 O 87.3679 -4.11244 0.308589 0
M  V30 994 H 86.7089 -0.598215 0.288158 0
M  V30 995 H 89.2389 -1.48457 1.4079 0
M  V30 996 H 89.2489 -3.91668 1.14281 0
M  V30 997 H 87.9239 -3.5151 2.22292 0
M  V30 998 H 86.5009 -3.70731 0.40157 0
M  V30 999 N 88.686 -0.835752 -1.33615 0
M  V30 1000 C 89.914 -0.443344 -2.02094 0
M  V30 1001 C 90.329 0.954522 -1.62894 0
M  V30 1002 O 89.686 1.61982 -0.840723 0
M  V30 1003 C 89.737 -0.550775 -3.5728 0
M  V30 1004 O 89.458 -1.89356 -3.95065 0
M  V30 1005 C 90.959 -0.154919 -4.43029 0
M  V30 1006 H 88.179 -0.176359 -0.647409 0
M  V30 1007 H 90.723 -1.12746 -1.70612 0
M  V30 1008 H 88.878 0.0853997 -3.87306 0
M  V30 1009 H 89.292 -1.87687 -4.89769 0
M  V30 1010 H 90.766 -0.281144 -5.51284 0
M  V30 1011 H 91.243 0.902863 -4.2982 0
M  V30 1012 H 91.849 -0.765404 -4.18356 0
M  V30 1013 N 90.1641 1.46063 -0.591896 0
M  V30 1014 C 91.3921 2.06717 -0.0868936 0
M  V30 1015 C 91.8071 1.43916 1.22203 0
M  V30 1016 O 91.1641 0.547698 1.74088 0
M  V30 1017 C 91.2151 3.6142 0.0758725 0
M  V30 1018 O 90.9361 4.21874 -1.18126 0
M  V30 1019 C 92.4371 4.39025 0.61416 0
M  V30 1020 H 89.6571 0.668162 -0.0616518 0
M  V30 1021 H 92.2011 1.8755 -0.815175 0
M  V30 1022 H 90.3561 3.79983 0.754413 0
M  V30 1023 H 90.7701 5.14861 -1.00092 0
M  V30 1024 H 92.2441 5.4783 0.677193 0
M  V30 1025 H 92.7211 4.07708 1.63312 0
M  V30 1026 H 93.3271 4.2529 -0.0298142 0
M  V30 1027 N 91.6422 0.330177 1.54103 0
M  V30 1028 C 92.5892 -0.532762 2.24567 0
M  V30 1029 C 93.5592 -1.10635 1.23892 0
M  V30 1030 O 94.7442 -1.14546 1.5259 0
M  V30 1031 C 91.8842 -1.6845 3.01195 0
M  V30 1032 C 90.9972 -1.13951 4.167 0
M  V30 1033 C 90.1322 -2.25746 4.80845 0
M  V30 1034 C 89.1712 -1.6853 5.88442 0
M  V30 1035 N 88.3082 -2.74014 6.46421 0
M  V30 1036 H 93.1482 0.0746905 2.97906 0
M  V30 1037 H 90.6852 0.048632 1.4702 0
M  V30 1038 H 92.6432 -2.36234 3.43874 0
M  V30 1039 H 91.2732 -2.26314 2.30178 0
M  V30 1040 H 90.3252 -0.35301 3.78758 0
M  V30 1041 H 91.6372 -0.680892 4.94131 0
M  V30 1042 H 90.7912 -3.01422 5.26526 0
M  V30 1043 H 89.5302 -2.74947 4.0281 0
M  V30 1044 H 88.5352 -0.913543 5.42157 0
M  V30 1045 H 89.7602 -1.20198 6.68378 0
M  V30 1046 H 87.7062 -3.22494 5.71256 0
M  V30 1047 H 87.6232 -2.32735 7.19285 0
M  V30 1048 H 88.8912 -3.49499 6.96757 0
M  V30 1049 N 93.1203 -1.57491 0.0584922 0
M  V30 1050 C 94.0503 -2.14988 -0.911178 0
M  V30 1051 C 95.0313 -1.07343 -1.31952 0
M  V30 1052 O 96.2163 -1.35318 -1.39294 0
M  V30 1053 C 93.3463 -2.70078 -2.18347 0
M  V30 1054 C 92.3003 -3.82771 -1.91495 0
M  V30 1055 C 91.6263 -4.24408 -3.25241 0
M  V30 1056 C 92.9263 -5.07592 -1.23075 0
M  V30 1057 H 94.6203 -2.96263 -0.432246 0
M  V30 1058 H 92.1663 -1.42512 -0.206469 0
M  V30 1059 H 94.1193 -3.08943 -2.86587 0
M  V30 1060 H 92.8433 -1.86005 -2.68458 0
M  V30 1061 H 91.5023 -3.44389 -1.25664 0
M  V30 1062 H 91.1503 -3.37275 -3.73168 0
M  V30 1063 H 90.8503 -5.00366 -3.08071 0
M  V30 1064 H 92.3743 -4.65879 -3.94701 0
M  V30 1065 H 93.7883 -5.43857 -1.81362 0
M  V30 1066 H 92.1853 -5.88741 -1.16207 0
M  V30 1067 H 93.2553 -4.84454 -0.207847 0
M  V30 1068 N 94.5984 0.214957 -1.56127 0
M  V30 1069 C 95.8284 0.953707 -1.8327 0
M  V30 1070 C 96.2364 1.78181 -0.636262 0
M  V30 1071 O 95.5794 1.79191 0.404516 0
M  V30 1072 C 95.6414 1.91516 -3.0424 0
M  V30 1073 C 95.3054 1.27094 -4.38972 0
M  V30 1074 C 96.3024 0.657575 -5.15725 0
M  V30 1075 C 93.9874 1.28073 -4.85698 0
M  V30 1076 C 95.9814 0.0625968 -6.37369 0
M  V30 1077 C 93.6684 0.681914 -6.07283 0
M  V30 1078 C 94.6664 0.0739046 -6.8296 0
M  V30 1079 O 94.3544 -0.515582 -8.02245 0
M  V30 1080 H 94.0864 0.284764 -0.613095 0
M  V30 1081 H 96.6404 0.233283 -2.04071 0
M  V30 1082 H 94.8704 2.67475 -2.79274 0
M  V30 1083 H 96.5594 2.52001 -3.18198 0
M  V30 1084 H 97.3254 0.642288 -4.80728 0
M  V30 1085 H 93.2044 1.74337 -4.26764 0
M  V30 1086 H 96.7484 -0.412593 -6.96379 0
M  V30 1087 H 92.6454 0.694636 -6.41752 0
M  V30 1088 H 93.4134 -0.410544 -8.1747 0
M  V30 1089 N 96.0765 1.50051 0.48192 0
M  V30 1090 C 97.0065 1.71046 1.58951 0
M  V30 1091 C 97.9875 0.559288 1.60642 0
M  V30 1092 O 99.1725 0.797243 1.77081 0
M  V30 1093 C 96.3025 1.79462 2.97339 0
M  V30 1094 C 95.2565 2.94558 3.10515 0
M  V30 1095 C 94.5825 2.88105 4.50444 0
M  V30 1096 C 95.8825 4.35227 2.88747 0
M  V30 1097 H 97.5765 2.6378 1.41635 0
M  V30 1098 H 95.1225 1.26936 0.679942 0
M  V30 1099 H 97.0755 1.92734 3.74742 0
M  V30 1100 H 95.7995 0.833412 3.15788 0
M  V30 1101 H 94.4585 2.80918 2.35543 0
M  V30 1102 H 94.1065 1.89853 4.65795 0
M  V30 1103 H 93.8065 3.65366 4.60197 0
M  V30 1104 H 95.3305 3.03412 5.29881 0
M  V30 1105 H 96.7445 4.49449 3.55905 0
M  V30 1106 H 95.1415 5.13856 3.09955 0
M  V30 1107 H 96.2115 4.48347 1.84696 0
M  V30 1108 N 97.5546 -0.734337 1.39446 0
M  V30 1109 C 98.5176 -1.83004 1.37994 0
M  V30 1110 C 99.5176 -1.58397 0.276938 0
M  V30 1111 O 100.708 -1.65785 0.534875 0
M  V30 1112 C 97.8396 -3.20802 1.1532 0
M  V30 1113 H 99.0326 -1.85694 2.35494 0
M  V30 1114 H 96.5856 -0.938059 1.25021 0
M  V30 1115 H 97.3206 -3.23772 0.185036 0
M  V30 1116 H 97.1056 -3.4006 1.95197 0
M  V30 1117 H 98.5956 -4.00862 1.17046 0
M  V30 1118 N 99.0327 -1.24633 -0.964593 0
M  V30 1119 C 99.9797 -1.04144 -2.05968 0
M  V30 1120 C 100.95 0.046262 -1.66036 0
M  V30 1121 O 102.135 -0.108972 -1.90489 0
M  V30 1122 C 99.2747 -0.65563 -3.38815 0
M  V30 1123 C 98.3877 -1.81714 -3.91923 0
M  V30 1124 C 97.5227 -1.37662 -5.13052 0
M  V30 1125 C 96.5617 -2.50788 -5.58365 0
M  V30 1126 N 95.6987 -2.07582 -6.70712 0
M  V30 1127 H 100.539 -1.9787 -2.22827 0
M  V30 1128 H 98.0757 -0.9855 -1.09208 0
M  V30 1129 H 100.034 -0.412954 -4.15151 0
M  V30 1130 H 98.6637 0.244627 -3.21872 0
M  V30 1131 H 97.7157 -2.1734 -3.12198 0
M  V30 1132 H 99.0277 -2.66705 -4.21509 0
M  V30 1133 H 98.1817 -1.093 -5.96773 0
M  V30 1134 H 96.9207 -0.497293 -4.85158 0
M  V30 1135 H 95.9257 -2.79906 -4.73215 0
M  V30 1136 H 97.1507 -3.39283 -5.88272 0
M  V30 1137 H 95.0967 -1.22051 -6.44546 0
M  V30 1138 H 95.0137 -2.86125 -6.99763 0
M  V30 1139 H 96.2817 -1.82369 -7.57867 0
M  V30 1140 N 100.511 1.16574 -1.06058 0
M  V30 1141 C 101.443 2.2045 -0.627239 0
M  V30 1142 C 102.456 1.59752 0.313534 0
M  V30 1143 O 103.645 1.78192 0.104896 0
M  V30 1144 C 100.745 3.3875 0.100974 0
M  V30 1145 C 99.9178 4.29008 -0.852687 0
M  V30 1146 C 98.9768 5.25944 -0.164152 0
M  V30 1147 O 98.0028 5.63535 -0.801047 0
M  V30 1148 N 99.2048 5.70075 1.09518 0
M  V30 1149 H 101.97 2.58249 -1.52077 0
M  V30 1150 H 99.5308 1.3156 -0.943594 0
M  V30 1151 H 101.523 4.00638 0.57194 0
M  V30 1152 H 100.093 2.99476 0.89628 0
M  V30 1153 H 99.3128 3.64419 -1.50308 0
M  V30 1154 H 100.601 4.86195 -1.49972 0
M  V30 1155 H 99.9988 5.41624 1.6328 0
M  V30 1156 H 98.5558 6.34067 1.51006 0
M  V30 1157 N 101.989 0.842826 1.3317 0
M  V30 1158 C 103.235 0.441099 1.97945 0
M  V30 1159 C 103.568 -0.998024 1.66593 0
M  V30 1160 O 102.843 -1.69839 0.947898 0
M  V30 1161 C 103.126 0.666841 3.53872 0
M  V30 1162 C 102.979 2.15352 3.94897 0
M  V30 1163 C 104.298 0.115544 4.39948 0
M  V30 1164 H 101.417 0.161739 0.719034 0
M  V30 1165 H 104.059 1.05907 1.57746 0
M  V30 1166 H 102.209 0.140828 3.88245 0
M  V30 1167 H 103.881 2.7447 3.70761 0
M  V30 1168 H 102.124 2.63653 3.44484 0
M  V30 1169 H 102.795 2.26221 5.03516 0
M  V30 1170 H 105.271 0.565213 4.12243 0
M  V30 1171 H 104.147 0.303152 5.48062 0
M  V30 1172 H 104.408 -0.980935 4.3108 0
M  V30 1173 N 103.467 -1.45747 0.599634 0
M  V30 1174 C 104.714 -2.02292 0.0917284 0
M  V30 1175 C 105.042 -1.46906 -1.27472 0
M  V30 1176 O 104.297 -0.630652 -1.8526 0
M  V30 1177 C 104.596 -3.57399 -0.00602758 0
M  V30 1178 C 104.262 -4.31902 1.29503 0
M  V30 1179 C 102.924 -4.51974 1.65144 0
M  V30 1180 C 105.276 -4.74551 2.15525 0
M  V30 1181 C 102.604 -5.11949 2.86574 0
M  V30 1182 C 104.956 -5.35868 3.36196 0
M  V30 1183 C 103.62 -5.54165 3.72099 0
M  V30 1184 H 102.89 -0.740239 0.0335658 0
M  V30 1185 H 105.537 -1.7491 0.779661 0
M  V30 1186 H 103.842 -3.84014 -0.777183 0
M  V30 1187 H 105.539 -3.98846 -0.415038 0
M  V30 1188 H 102.129 -4.16588 1.00761 0
M  V30 1189 H 106.313 -4.58784 1.8929 0
M  V30 1190 H 101.569 -5.24305 3.14507 0
M  V30 1191 H 105.743 -5.6787 4.03109 0
M  V30 1192 H 103.37 -6.00406 4.6628 0
M  V30 1193 N 104.945 -0.338344 -1.53925 0
M  V30 1194 C 106.191 0.260143 -2.01125 0
M  V30 1195 C 106.524 1.50617 -1.22589 0
M  V30 1196 O 105.799 1.91979 -0.312113 0
M  V30 1197 C 106.082 0.579499 -3.55407 0
M  V30 1198 C 105.935 -0.678264 -4.44657 0
M  V30 1199 C 107.254 1.39122 -4.17532 0
M  V30 1200 H 104.373 0.0930772 -0.731099 0
M  V30 1201 H 107.015 -0.457852 -1.84401 0
M  V30 1202 H 105.165 1.19118 -3.69788 0
M  V30 1203 H 106.837 -1.31631 -4.42121 0
M  V30 1204 H 105.08 -1.3042 -4.13731 0
M  V30 1205 H 105.751 -0.410143 -5.50474 0
M  V30 1206 H 108.227 0.874035 -4.06817 0
M  V30 1207 H 107.103 1.58342 -5.25565 0
M  V30 1208 H 107.364 2.39178 -3.71815 0
M  V30 1209 N 106.423 1.57458 -0.0668435 0
M  V30 1210 C 107.671 1.92919 0.602214 0
M  V30 1211 C 107.992 0.947215 1.70449 0
M  V30 1212 O 107.262 -0.00544117 1.95899 0
M  V30 1213 H 105.842 0.71217 0.22544 0
M  V30 1214 H 108.504 1.94508 -0.123535 0
M  V30 1215 H 107.6 2.94589 1.03073 0
M  V30 1216 N 107.901 -0.206675 1.56239 0
M  V30 1217 C 109.148 -0.928842 1.79941 0
M  V30 1218 C 109.476 -1.83734 0.638131 0
M  V30 1219 O 108.731 -1.92039 -0.376746 0
M  V30 1220 C 109.03 -1.78675 3.09532 0
M  V30 1221 C 108.696 -1.03022 4.38973 0
M  V30 1222 C 107.358 -0.821302 4.74139 0
M  V30 1223 C 109.71 -0.497081 5.18824 0
M  V30 1224 C 107.038 -0.0675719 5.86661 0
M  V30 1225 C 109.39 0.24338 6.32132 0
M  V30 1226 C 108.054 0.463422 6.65889 0
M  V30 1227 H 107.324 -0.339887 0.658451 0
M  V30 1228 H 109.971 -0.195977 1.90495 0
M  V30 1229 H 108.276 -2.58794 2.94165 0
M  V30 1230 H 109.973 -2.34792 3.25075 0
M  V30 1231 H 106.563 -1.20306 4.11369 0
M  V30 1232 H 110.747 -0.645921 4.92079 0
M  V30 1233 H 106.003 0.112995 6.11296 0
M  V30 1234 H 110.177 0.66393 6.93228 0
M  V30 1235 H 107.804 1.04938 7.52922 0
M  V30 1236 N 109.379 -1.50304 -0.473955 0
M  V30 1237 C 110.309 -1.71886 -1.58042 0
M  V30 1238 C 111.29 -0.567799 -1.60344 0
M  V30 1239 O 112.475 -0.806623 -1.76656 0
M  V30 1240 C 109.605 -1.81036 -2.96384 0
M  V30 1241 C 108.559 -2.962 -3.08949 0
M  V30 1242 C 107.885 -2.9049 -4.48909 0
M  V30 1243 C 109.185 -4.36752 -2.86434 0
M  V30 1244 H 110.879 -2.64527 -1.40234 0
M  V30 1245 H 108.425 -1.27295 -0.673201 0
M  V30 1246 H 110.378 -1.94719 -3.73714 0
M  V30 1247 H 109.102 -0.850147 -3.15341 0
M  V30 1248 H 107.761 -2.82164 -2.3405 0
M  V30 1249 H 107.409 -1.92321 -4.64781 0
M  V30 1250 H 107.109 -3.67802 -4.58253 0
M  V30 1251 H 108.633 -3.06218 -5.28264 0
M  V30 1252 H 110.047 -4.5133 -3.53517 0
M  V30 1253 H 108.444 -5.15493 -3.07225 0
M  V30 1254 H 109.514 -4.49321 -1.82316 0
M  V30 1255 N 110.857 0.726932 -1.39834 0
M  V30 1256 C 111.787 1.85405 -1.41941 0
M  V30 1257 C 112.768 1.67751 -0.281728 0
M  V30 1258 O 113.953 1.8795 -0.488717 0
M  V30 1259 C 111.083 3.23243 -1.2701 0
M  V30 1260 C 110.037 3.55549 -2.38262 0
M  V30 1261 C 109.363 4.9241 -2.08415 0
M  V30 1262 C 110.663 3.577 -3.80589 0
M  V30 1263 H 112.357 1.83899 -2.36266 0
M  V30 1264 H 109.903 0.883349 -1.13723 0
M  V30 1265 H 111.856 4.01775 -1.27103 0
M  V30 1266 H 110.58 3.25296 -0.291564 0
M  V30 1267 H 109.239 2.79351 -2.37399 0
M  V30 1268 H 108.887 4.91052 -1.0898 0
M  V30 1269 H 108.587 5.14992 -2.82943 0
M  V30 1270 H 110.111 5.73289 -2.10171 0
M  V30 1271 H 111.525 4.26293 -3.83337 0
M  V30 1272 H 109.922 3.91804 -4.54543 0
M  V30 1273 H 110.992 2.57328 -4.10987 0
M  V30 1274 N 112.336 1.25143 0.95797 0
M  V30 1275 C 113.585 1.0909 1.69654 0
M  V30 1276 C 113.898 -0.368548 1.92097 0
M  V30 1277 O 115.104 -0.649455 2.63618 0
M  V30 1278 C 113.56 1.90395 3.05414 0
M  V30 1279 C 113.168 3.4081 2.90779 0
M  V30 1280 C 114.912 1.82901 3.83076 0
M  V30 1281 C 112.819 4.14423 4.21909 0
M  V30 1282 H 111.749 0.404625 0.636235 0
M  V30 1283 H 114.4 1.4931 1.06672 0
M  V30 1284 H 112.782 1.42996 3.69281 0
M  V30 1285 H 113.956 3.95859 2.35865 0
M  V30 1286 H 112.271 3.49361 2.26575 0
M  V30 1287 H 114.868 2.35196 4.80195 0
M  V30 1288 H 115.211 0.796224 4.08615 0
M  V30 1289 H 115.744 2.28033 3.25954 0
M  V30 1290 H 112.483 5.18102 4.01561 0
M  V30 1291 H 112.003 3.64159 4.76601 0
M  V30 1292 H 113.682 4.21956 4.90471 0
M  V30 1293 N 113.814 -1.1601 1.06675 0
M  V30 1294 C 114.744 -2.22688 0.702307 0
M  V30 1295 C 115.725 -1.67306 -0.307032 0
M  V30 1296 O 116.91 -1.93352 -0.181305 0
M  V30 1297 C 114.04 -3.47178 0.092038 0
M  V30 1298 C 112.994 -4.15477 1.02777 0
M  V30 1299 C 112.32 -5.33963 0.28061 0
M  V30 1300 C 113.62 -4.66019 2.35846 0
M  V30 1301 H 115.314 -2.53429 1.59419 0
M  V30 1302 H 112.86 -1.21813 0.767961 0
M  V30 1303 H 114.813 -4.21037 -0.174814 0
M  V30 1304 H 113.537 -3.15749 -0.834877 0
M  V30 1305 H 112.196 -3.43549 1.27944 0
M  V30 1306 H 111.844 -4.98788 -0.649545 0
M  V30 1307 H 111.544 -5.806 0.904258 0
M  V30 1308 H 113.068 -6.10596 0.021396 0
M  V30 1309 H 114.482 -5.3144 2.15045 0
M  V30 1310 H 112.879 -5.23293 2.93743 0
M  V30 1311 H 113.949 -3.82023 2.98641 0
M  V30 1312 N 115.292 -0.849877 -1.32721 0
M  V30 1313 C 116.255 -0.296122 -2.27279 0
M  V30 1314 C 117.255 0.541458 -1.5141 0
M  V30 1315 O 118.445 0.353658 -1.70572 0
M  V30 1316 C 115.577 0.581579 -3.35902 0
M  V30 1317 H 116.77 -1.13064 -2.77771 0
M  V30 1318 H 114.323 -0.62383 -1.43311 0
M  V30 1319 H 115.058 1.43809 -2.9067 0
M  V30 1320 H 114.843 -0.0178814 -3.92096 0
M  V30 1321 H 116.333 0.961951 -4.0637 0
M  V30 1322 N 116.77 1.45427 -0.607355 0
M  V30 1323 C 117.733 2.28974 0.101693 0
M  V30 1324 C 118.733 1.39754 0.795329 0
M  V30 1325 O 119.923 1.61878 0.643527 0
M  V30 1326 C 117.055 3.20768 1.15414 0
M  V30 1327 H 118.248 2.93147 -0.632844 0
M  V30 1328 H 115.801 1.51945 -0.366391 0
M  V30 1329 H 116.536 2.61395 1.91945 0
M  V30 1330 H 116.321 3.86489 0.66098 0
M  V30 1331 H 117.811 3.83589 1.65073 0
M  V30 1332 N 118.248 0.346503 1.53744 0
M  V30 1333 C 119.497 -0.250122 2.00143 0
M  V30 1334 C 119.81 -1.51418 1.23822 0
M  V30 1335 O 121.016 -2.18823 1.60713 0
M  V30 1336 C 119.472 -0.496252 3.56462 0
M  V30 1337 C 119.08 0.752077 4.41642 0
M  V30 1338 C 120.824 -1.05157 4.11269 0
M  V30 1339 C 118.731 0.476583 5.89477 0
M  V30 1340 H 117.661 -0.0972409 0.747703 0
M  V30 1341 H 120.312 0.46229 1.77581 0
M  V30 1342 H 118.694 -1.26944 3.75102 0
M  V30 1343 H 119.868 1.5266 4.34778 0
M  V30 1344 H 118.183 1.22925 3.97842 0
M  V30 1345 H 120.78 -1.27269 5.19333 0
M  V30 1346 H 121.123 -2.00799 3.64672 0
M  V30 1347 H 121.656 -0.339019 3.96353 0
M  V30 1348 H 118.395 1.4028 6.40314 0
M  V30 1349 H 117.915 -0.259794 5.99237 0
M  V30 1350 H 119.594 0.0949315 6.4693 0
M  V30 1351 N 119.726 -1.57421 0.075193 0
M  V30 1352 C 120.636 -2.1642 -0.905511 0
M  V30 1353 C 121.652 -1.12828 -1.32461 0
M  V30 1354 O 122.828 -1.45109 -1.39661 0
M  V30 1355 C 119.893 -2.71693 -2.15369 0
M  V30 1356 C 118.954 -3.90171 -1.79068 0
M  V30 1357 C 118.187 -4.42798 -2.97936 0
M  V30 1358 O 118.41 -3.94416 -4.12058 0
M  V30 1359 O 117.344 -5.34085 -2.77555 0
M  V30 1360 H 121.17 -3.00588 -0.433626 0
M  V30 1361 H 118.755 -1.48664 -0.148067 0
M  V30 1362 H 120.637 -3.07104 -2.88557 0
M  V30 1363 H 119.312 -1.90582 -2.61649 0
M  V30 1364 H 118.219 -3.59606 -1.03122 0
M  V30 1365 H 119.552 -4.72584 -1.37569 0
M  V30 1366 N 121.204 0.198386 -1.56346 0
M  V30 1367 C 122.134 1.24865 -1.9731 0
M  V30 1368 C 123.115 1.47651 -0.844576 0
M  V30 1369 O 124.3 1.59444 -1.10866 0
M  V30 1370 C 121.43 2.59358 -2.30977 0
M  V30 1371 C 120.384 2.5119 -3.46537 0
M  V30 1372 C 119.71 3.89926 -3.65871 0
M  V30 1373 C 121.01 2.03977 -4.80823 0
M  V30 1374 H 122.704 0.908252 -2.85291 0
M  V30 1375 H 120.25 0.435462 -1.37258 0
M  V30 1376 H 122.203 3.33011 -2.58228 0
M  V30 1377 H 120.927 2.95132 -1.39874 0
M  V30 1378 H 119.586 1.79993 -3.19371 0
M  V30 1379 H 119.234 4.23046 -2.72105 0
M  V30 1380 H 118.934 3.85336 -4.4361 0
M  V30 1381 H 120.458 4.65205 -3.95495 0
M  V30 1382 H 121.872 2.67386 -5.07127 0
M  V30 1383 H 120.269 2.10397 -5.62008 0
M  V30 1384 H 121.339 0.992861 -4.74626 0
M  V30 1385 N 122.682 1.50554 0.465978 0
M  V30 1386 C 123.645 1.69233 1.54574 0
M  V30 1387 C 124.645 0.562901 1.50626 0
M  V30 1388 O 125.835 0.830016 1.53155 0
M  V30 1389 C 122.967 1.7223 2.94193 0
M  V30 1390 H 124.16 2.65571 1.39327 0
M  V30 1391 H 121.713 1.40111 0.692711 0
M  V30 1392 H 122.448 0.77603 3.14878 0
M  V30 1393 H 122.233 2.54285 2.98466 0
M  V30 1394 H 123.723 1.88618 3.72576 0
M  V30 1395 N 124.16 -0.719506 1.40217 0
M  V30 1396 C 125.09 -1.8465 1.42922 0
M  V30 1397 C 126.071 -1.67599 0.29062 0
M  V30 1398 O 127.256 -1.87688 0.498677 0
M  V30 1399 C 124.386 -3.22565 1.28722 0
M  V30 1400 C 123.34 -3.54281 2.40144 0
M  V30 1401 C 122.666 -4.91298 2.11023 0
M  V30 1402 C 123.966 -3.55676 3.82481 0
M  V30 1403 H 125.66 -1.82644 2.37237 0
M  V30 1404 H 123.206 -0.877305 1.1419 0
M  V30 1405 H 125.159 -4.01095 1.29232 0
M  V30 1406 H 123.883 -3.25137 0.308811 0
M  V30 1407 H 122.542 -2.78088 2.38877 0
M  V30 1408 H 122.19 -4.90468 1.11582 0
M  V30 1409 H 121.89 -5.13485 2.8567 0
M  V30 1410 H 123.414 -5.72166 2.13209 0
M  V30 1411 H 124.828 -4.24254 3.85592 0
M  V30 1412 H 123.225 -3.89388 4.56614 0
M  V30 1413 H 124.295 -2.55144 4.12346 0
M  V30 1414 N 125.638 -1.25649 -0.95132 0
M  V30 1415 C 126.884 -1.10757 -1.69884 0
M  V30 1416 C 127.217 0.350061 -1.91019 0
M  V30 1417 O 126.492 1.25783 -1.48354 0
M  V30 1418 C 126.775 -1.86606 -3.07978 0
M  V30 1419 C 126.628 -3.40217 -2.94232 0
M  V30 1420 C 127.947 -1.65182 -4.07925 0
M  V30 1421 H 125.066 -0.40374 -0.616574 0
M  V30 1422 H 127.708 -1.54521 -1.10558 0
M  V30 1423 H 125.858 -1.49409 -3.58621 0
M  V30 1424 H 127.53 -3.87108 -2.50889 0
M  V30 1425 H 125.773 -3.67759 -2.30078 0
M  V30 1426 H 126.444 -3.88505 -3.92133 0
M  V30 1427 H 128.92 -1.9757 -3.66204 0
M  V30 1428 H 127.796 -2.20683 -5.02583 0
M  V30 1429 H 128.057 -0.593933 -4.38092 0
M  V30 1430 N 127.117 1.15442 -1.07289 0
M  V30 1431 C 128.047 2.22312 -0.714107 0
M  V30 1432 C 129.028 1.67467 0.298155 0
M  V30 1433 O 130.213 1.93445 0.171048 0
M  V30 1434 C 127.343 3.47124 -0.110448 0
M  V30 1435 C 126.297 4.14926 -1.04979 0
M  V30 1436 C 125.623 5.33807 -0.308924 0
M  V30 1437 C 126.923 4.64762 -2.38314 0
M  V30 1438 H 128.617 2.5258 -1.6076 0
M  V30 1439 H 126.163 1.21404 -0.77441 0
M  V30 1440 H 128.116 4.21124 0.152482 0
M  V30 1441 H 126.84 3.16187 0.81812 0
M  V30 1442 H 125.499 3.42866 -1.29764 0
M  V30 1443 H 125.147 4.99126 0.623084 0
M  V30 1444 H 124.847 5.80113 -0.935036 0
M  V30 1445 H 126.371 6.10576 -0.0537771 0
M  V30 1446 H 127.785 5.30292 -2.1786 0
M  V30 1447 H 126.182 5.21728 -2.96514 0
M  V30 1448 H 127.252 3.80434 -3.00663 0
M  V30 1449 N 128.595 0.856903 1.32268 0
M  V30 1450 C 129.823 0.475439 2.01363 0
M  V30 1451 C 130.238 -0.928486 1.64392 0
M  V30 1452 O 129.595 -1.60624 0.866387 0
M  V30 1453 C 129.646 0.607545 3.56358 0
M  V30 1454 O 129.367 1.95617 3.92002 0
M  V30 1455 C 130.868 0.225382 4.42727 0
M  V30 1456 H 128.088 0.186636 0.644521 0
M  V30 1457 H 130.632 1.15446 1.68797 0
M  V30 1458 H 128.787 -0.0237719 3.87393 0
M  V30 1459 H 129.201 1.95455 4.86721 0
M  V30 1460 H 130.675 0.368813 5.50767 0
M  V30 1461 H 131.152 -0.834369 4.31202 0
M  V30 1462 H 131.758 0.831864 4.17085 0
M  V30 1463 N 130.073 -1.45103 0.615059 0
M  V30 1464 C 130.983 -2.34382 -0.101034 0
M  V30 1465 C 131.999 -1.51681 -0.852585 0
M  V30 1466 O 133.175 -1.8446 -0.808484 0
M  V30 1467 C 130.24 -3.29417 -1.08099 0
M  V30 1468 C 129.301 -4.28025 -0.330577 0
M  V30 1469 C 128.534 -5.1852 -1.26385 0
M  V30 1470 O 128.757 -5.12598 -2.50198 0
M  V30 1471 O 127.691 -5.97122 -0.756866 0
M  V30 1472 H 131.517 -2.97033 0.632855 0
M  V30 1473 H 129.102 -1.4461 0.375293 0
M  V30 1474 H 130.984 -3.87958 -1.6452 0
M  V30 1475 H 129.659 -2.69321 -1.79577 0
M  V30 1476 H 128.566 -3.73078 0.276283 0
M  V30 1477 H 129.899 -4.90997 0.343866 0
M  V30 1478 N 131.551 -0.354651 -1.53558 0
M  V30 1479 C 132.828 0.294281 -1.93374 0
M  V30 1480 C 133.208 1.67313 -1.28723 0
M  V30 1481 O 132.556 2.24179 -0.442247 0
M  V30 1482 C 132.766 0.355445 -3.47185 0
M  V30 1483 C 134.114 0.601007 -4.20325 0
M  V30 1484 O 135.138 0.437106 -3.53508 0
M  V30 1485 O 133.997 0.919322 -5.38712 0
M  V30 1486 H 131.091 0.174033 -0.808481 0
M  V30 1487 H 133.637 -0.406638 -1.64756 0
M  V30 1488 H 132.409 -0.611729 -3.86489 0
M  V30 1489 H 132.032 1.1027 -3.82003 0
M  V30 1490 N 133.029 1.57378 -0.0835403 0
M  V30 1491 C 134.254 1.98682 0.594987 0
M  V30 1492 C 134.679 0.961969 1.61641 0
M  V30 1493 O 134.037 -0.0709989 1.81161 0
M  V30 1494 C 134.085 3.38988 1.2296 0
M  V30 1495 O 133.189 3.39208 2.34546 0
M  V30 1496 H 132.53 0.646368 0.152002 0
M  V30 1497 H 135.06 2.03961 -0.161533 0
M  V30 1498 H 135.07 3.76431 1.57366 0
M  V30 1499 H 133.745 4.13107 0.481228 0
M  V30 1500 H 132.322 3.13548 2.01846 0
M  V30 1501 N 134.507 -0.190092 1.56449 0
M  V30 1502 C 135.755 -0.907908 1.80559 0
M  V30 1503 C 136.076 -1.83583 0.657438 0
M  V30 1504 O 135.346 -1.93203 -0.323924 0
M  V30 1505 H 133.926 -0.338247 0.666032 0
M  V30 1506 H 136.588 -0.194403 1.93928 0
M  V30 1507 H 135.684 -1.49604 2.73907 0
M  V30 1508 N 135.985 -1.50799 -0.457987 0
M  V30 1509 C 136.917 -1.66786 -1.57211 0
M  V30 1510 C 137.93 -0.548962 -1.53265 0
M  V30 1511 O 139.119 -0.8226 -1.58416 0
M  V30 1512 C 136.219 -1.64834 -2.96113 0
M  V30 1513 C 135.392 -2.92971 -3.24787 0
M  V30 1514 C 134.451 -2.83485 -4.43309 0
M  V30 1515 O 133.477 -3.5744 -4.42973 0
M  V30 1516 N 134.679 -1.97929 -5.45714 0
M  V30 1517 H 137.444 -2.62889 -1.43909 0
M  V30 1518 H 135.005 -1.48427 -0.646617 0
M  V30 1519 H 136.997 -1.56084 -3.7339 0
M  V30 1520 H 135.567 -0.764118 -3.03117 0
M  V30 1521 H 134.787 -3.15749 -2.36 0
M  V30 1522 H 136.075 -3.77834 -3.40762 0
M  V30 1523 H 135.473 -1.37182 -5.48815 0
M  V30 1524 H 134.03 -1.95073 -6.21924 0
M  V30 1525 N 137.463 0.71206 -1.40597 0
M  V30 1526 C 138.426 1.80785 -1.40888 0
M  V30 1527 C 139.426 1.57937 -0.302103 0
M  V30 1528 O 140.616 1.64913 -0.561182 0
M  V30 1529 C 137.748 3.18927 -1.20409 0
M  V30 1530 H 138.941 1.81924 -2.38419 0
M  V30 1531 H 136.494 0.91805 -1.26497 0
M  V30 1532 H 137.229 3.23436 -0.236522 0
M  V30 1533 H 137.014 3.36911 -2.00582 0
M  V30 1534 H 138.504 3.98949 -1.23408 0
M  V30 1535 N 138.941 1.26152 0.944643 0
M  V30 1536 C 140.169 1.14259 1.72489 0
M  V30 1537 C 140.584 -0.302555 1.8636 0
M  V30 1538 O 139.941 -1.20741 1.36849 0
M  V30 1539 C 139.992 1.80266 3.13347 0
M  V30 1540 O 139.713 3.19133 3.00143 0
M  V30 1541 C 141.214 1.74283 4.07603 0
M  V30 1542 H 138.434 0.398051 0.540181 0
M  V30 1543 H 140.978 1.66706 1.18446 0
M  V30 1544 H 139.133 1.31766 3.64303 0
M  V30 1545 H 139.547 3.51744 3.89071 0
M  V30 1546 H 141.021 2.25111 5.04013 0
M  V30 1547 H 141.498 0.708631 4.33446 0
M  V30 1548 H 142.104 2.22319 3.62567 0
M  V30 1549 N 140.419 -1.14872 1.07899 0
M  V30 1550 C 141.665 -1.86064 0.806725 0
M  V30 1551 C 141.998 -1.82434 -0.665706 0
M  V30 1552 O 141.273 -1.25138 -1.48899 0
M  V30 1553 C 141.556 -3.34929 1.32267 0
M  V30 1554 C 141.409 -3.47161 2.86006 0
M  V30 1555 C 142.728 -4.29863 0.943717 0
M  V30 1556 H 139.847 -0.675591 0.294526 0
M  V30 1557 H 142.489 -1.34925 1.33773 0
M  V30 1558 H 140.639 -3.78611 0.870974 0
M  V30 1559 H 142.311 -3.12302 3.39507 0
M  V30 1560 H 140.554 -2.88539 3.23925 0
M  V30 1561 H 141.225 -4.51777 3.17177 0
M  V30 1562 H 143.701 -3.9417 1.33302 0
M  V30 1563 H 142.577 -5.32494 1.33198 0
M  V30 1564 H 142.838 -4.41846 -0.149796 0
M  V30 1565 N 141.898 -0.863906 -1.31812 0
M  V30 1566 C 143.309 -0.52522 -1.7916 0
M  V30 1567 C 143.66 0.957518 -1.71248 0
M  V30 1568 O 142.785 1.74734 -1.27659 0
M  V30 1569 C 143.38 -0.9466 -3.25307 0
M  V30 1570 C 141.939 -0.659668 -3.70574 0
M  V30 1571 C 141.086 -1.14126 -2.52726 0
M  V30 1572 H 144.037 -1.05022 -1.1898 0
M  V30 1573 H 144.058 -0.266766 -3.79564 0
M  V30 1574 H 143.57 -2.02579 -3.31034 0
M  V30 1575 H 141.671 0.408416 -3.70355 0
M  V30 1576 H 141.784 -1.23245 -4.62977 0
M  V30 1577 H 140.148 -0.561216 -2.4844 0
M  V30 1578 H 140.931 -2.22775 -2.61201 0
M  V30 1579 N 143.376 1.44774 -0.622745 0
M  V30 1580 C 144.339 2.29069 0.0774015 0
M  V30 1581 C 145.339 1.4059 0.780461 0
M  V30 1582 O 146.529 1.62551 0.626322 0
M  V30 1583 C 143.661 3.21974 1.12006 0
M  V30 1584 H 144.854 2.92459 -0.663901 0
M  V30 1585 H 142.407 1.51548 -0.382486 0
M  V30 1586 H 143.142 2.63417 1.89162 0
M  V30 1587 H 142.927 3.87168 0.619951 0
M  V30 1588 H 144.417 3.85318 1.60995 0
M  V30 1589 N 144.854 0.36279 1.53368 0
M  V30 1590 C 146.1 -0.228113 2.01513 0
M  V30 1591 C 146.433 -1.48648 1.2497 0
M  V30 1592 O 145.708 -1.91459 0.342616 0
M  V30 1593 C 145.991 -0.522884 3.56284 0
M  V30 1594 C 145.844 0.74892 4.43521 0
M  V30 1595 C 147.163 -1.32461 4.19693 0
M  V30 1596 H 144.282 -0.0814343 0.732487 0
M  V30 1597 H 146.924 0.48713 1.83649 0
M  V30 1598 H 145.074 -1.1322 3.71636 0
M  V30 1599 H 146.746 1.38648 4.39971 0
M  V30 1600 H 144.989 1.36986 4.11603 0
M  V30 1601 H 145.66 0.497667 5.49752 0
M  V30 1602 H 148.136 -0.809203 4.08156 0
M  V30 1603 H 147.012 -1.49961 5.28018 0
M  V30 1604 H 147.273 -2.33232 3.75573 0
M  V30 1605 N 146.332 -1.57332 0.0918853 0
M  V30 1606 C 147.748 -1.57389 -0.264766 0
M  V30 1607 C 147.948 -1.10281 -1.68643 0
M  V30 1608 O 147.004 -0.777801 -2.40222 0
M  V30 1609 C 148.317 -3.00648 -0.0561195 0
M  V30 1610 C 149.865 -3.12754 -0.124116 0
M  V30 1611 C 150.34 -4.57965 0.0564972 0
M  V30 1612 N 151.831 -4.632 0.00155611 0
M  V30 1613 C 152.566 -5.73281 0.116598 0
M  V30 1614 N 152.062 -6.92208 0.286294 0
M  V30 1615 N 153.855 -5.6207 0.0580973 0
M  V30 1616 H 146.006 -1.86262 1.02079 0
M  V30 1617 H 148.269 -0.859579 0.399786 0
M  V30 1618 H 147.975 -3.393 0.925669 0
M  V30 1619 H 147.849 -3.68623 -0.799823 0
M  V30 1620 H 150.236 -2.73976 -1.09641 0
M  V30 1621 H 150.317 -2.47377 0.651024 0
M  V30 1622 H 149.961 -4.97436 1.02564 0
M  V30 1623 H 149.891 -5.21399 -0.738297 0
M  V30 1624 H 152.382 -3.77686 -0.127192 0
M  V30 1625 H 152.695 -7.71934 0.365676 0
M  V30 1626 H 151.04 -6.94254 0.32192 0
M  V30 1627 H 154.231 -4.68043 -0.0733204 0
M  V30 1628 H 154.404 -6.47824 0.151203 0
M  V30 1629 N 147.81 0.181792 -1.56548 0
M  V30 1630 C 149.04 0.914618 -1.85252 0
M  V30 1631 C 149.448 1.76791 -0.673914 0
M  V30 1632 O 148.791 1.80009 0.366416 0
M  V30 1633 C 148.853 1.85019 -3.08234 0
M  V30 1634 C 148.517 1.17754 -4.41569 0
M  V30 1635 C 149.514 0.548035 -5.17003 0
M  V30 1636 C 147.199 1.17742 -4.88305 0
M  V30 1637 C 149.193 -0.0726128 -6.37359 0
M  V30 1638 C 146.88 0.552946 -6.08593 0
M  V30 1639 C 147.878 -0.070978 -6.82963 0
M  V30 1640 O 147.566 -0.685635 -8.00971 0
M  V30 1641 H 147.298 0.271695 -0.618998 0
M  V30 1642 H 149.852 0.189944 -2.0452 0
M  V30 1643 H 148.082 2.61491 -2.84885 0
M  V30 1644 H 149.771 2.45195 -3.23472 0
M  V30 1645 H 150.537 0.540174 -4.81982 0
M  V30 1646 H 146.416 1.65246 -4.30366 0
M  V30 1647 H 149.96 -0.560213 -6.95347 0
M  V30 1648 H 145.857 0.558354 -6.43081 0
M  V30 1649 H 146.625 -0.58385 -8.16415 0
M  V30 1650 N 149.288 1.51039 0.449983 0
M  V30 1651 C 150.516 1.66869 1.2232 0
M  V30 1652 C 150.931 0.360727 1.85322 0
M  V30 1653 O 150.288 -0.659531 1.70166 0
M  V30 1654 C 150.339 2.77524 2.31652 0
M  V30 1655 O 150.06 4.03252 1.7123 0
M  V30 1656 C 151.561 3.04512 3.2216 0
M  V30 1657 H 148.781 0.560326 0.369155 0
M  V30 1658 H 151.325 1.97385 0.534719 0
M  V30 1659 H 149.48 2.49642 2.96239 0
M  V30 1660 H 149.894 4.64609 2.43389 0
M  V30 1661 H 151.368 3.85551 3.95038 0
M  V30 1662 H 151.845 2.16415 3.8218 0
M  V30 1663 H 152.451 3.34005 2.63288 0
M  V30 1664 N 150.766 -0.704594 1.40972 0
M  V30 1665 C 151.714 -1.83994 1.42299 0
M  V30 1666 C 152.708 -1.66684 0.302111 0
M  V30 1667 O 153.914 -1.73655 0.473697 0
M  V30 1668 H 150.289 -0.606171 0.44504 0
M  V30 1669 H 152.26 -1.79992 2.38003 0
M  V30 1670 C 151.009 -3.21946 1.31323 0
M  V30 1671 H 150.332 -3.35878 2.16855 0
M  V30 1672 H 151.772 -4.01491 1.36311 0
M  V30 1673 C 150.231 -3.36891 0.0245977 0
M  V30 1674 O 150.761 -3.90687 -0.934153 0
M  V30 1675 N 148.967 -2.90559 -0.0485243 0
M  V30 1676 H 148.514 -2.46968 0.732419 0
M  V30 1677 H 148.472 -3.00937 -0.910171 0
M  V30 1678 N 152.244 -1.26651 -0.937939 0
M  V30 1679 C 153.655 -1.1125 -1.49934 0
M  V30 1680 C 154.006 0.306077 -1.93798 0
M  V30 1681 O 153.131 1.19792 -1.80219 0
M  V30 1682 C 153.726 -2.01339 -2.72485 0
M  V30 1683 C 152.285 -1.90074 -3.24883 0
M  V30 1684 C 151.432 -1.94498 -1.97651 0
M  V30 1685 H 154.383 -1.39693 -0.753091 0
M  V30 1686 H 154.404 -1.56319 -3.46907 0
M  V30 1687 H 153.916 -3.04577 -2.40529 0
M  V30 1688 H 152.017 -0.897827 -3.61621 0
M  V30 1689 H 152.13 -2.75778 -3.9177 0
M  V30 1690 H 150.494 -1.38591 -2.13693 0
M  V30 1691 H 151.277 -2.99372 -1.68022 0
M  V30 1692 N 153.722 1.14298 -1.08507 0
M  V30 1693 C 154.947 1.8976 -0.837001 0
M  V30 1694 C 155.372 1.78097 0.605228 0
M  V30 1695 O 154.73 1.12188 1.4242 0
M  V30 1696 C 154.778 3.37685 -1.26495 0
M  V30 1697 O 153.882 4.10281 -0.417514 0
M  V30 1698 H 153.223 0.590365 -0.303917 0
M  V30 1699 H 155.753 1.44672 -1.44676 0
M  V30 1700 H 155.763 3.88501 -1.24625 0
M  V30 1701 H 154.438 3.45492 -2.31534 0
M  V30 1702 H 153.015 3.69536 -0.499722 0
M  V30 1703 N 155.201 0.870884 1.31352 0
M  V30 1704 C 156.131 0.343096 2.30966 0
M  V30 1705 C 157.112 -0.566507 1.60389 0
M  V30 1706 O 158.297 -0.483336 1.88089 0
M  V30 1707 C 155.427 -0.455487 3.443 0
M  V30 1708 C 154.381 0.361103 4.26474 0
M  V30 1709 C 153.707 -0.563221 5.31725 0
M  V30 1710 C 155.007 1.59566 4.97329 0
M  V30 1711 H 156.701 1.17548 2.75359 0
M  V30 1712 H 154.247 0.566686 1.32381 0
M  V30 1713 H 156.2 -0.83525 4.13039 0
M  V30 1714 H 154.924 -1.32139 2.98675 0
M  V30 1715 H 153.583 0.722825 3.59403 0
M  V30 1716 H 153.231 -1.42643 4.82351 0
M  V30 1717 H 152.931 -0.0207409 5.87596 0
M  V30 1718 H 154.455 -0.939808 6.03324 0
M  V30 1719 H 155.869 1.28728 5.58661 0
M  V30 1720 H 154.266 2.07728 5.63 0
M  V30 1721 H 155.336 2.34798 4.24262 0
M  V30 1722 N 156.679 -1.44442 0.630414 0
M  V30 1723 C 157.909 -2.06115 0.141465 0
M  V30 1724 C 158.317 -1.47179 -1.1889 0
M  V30 1725 O 157.66 -0.588873 -1.74006 0
M  V30 1726 C 157.722 -3.59467 -0.0484355 0
M  V30 1727 C 157.386 -4.40864 1.20366 0
M  V30 1728 C 158.383 -4.74391 2.12719 0
M  V30 1729 C 156.068 -4.8125 1.43887 0
M  V30 1730 C 158.062 -5.47186 3.26904 0
M  V30 1731 C 155.749 -5.53795 2.5837 0
M  V30 1732 C 156.747 -5.86682 3.49705 0
M  V30 1733 O 156.435 -6.57749 4.62191 0
M  V30 1734 H 156.167 -0.671648 0.0765792 0
M  V30 1735 H 158.721 -1.86312 0.864695 0
M  V30 1736 H 156.951 -3.77758 -0.826803 0
M  V30 1737 H 158.64 -4.02909 -0.491849 0
M  V30 1738 H 159.406 -4.43728 1.95781 0
M  V30 1739 H 155.285 -4.55073 0.736853 0
M  V30 1740 H 158.829 -5.72773 3.98217 0
M  V30 1741 H 154.726 -5.83872 2.75251 0
M  V30 1742 H 155.494 -6.76217 4.61164 0
M  V30 1743 N 158.157 -0.370918 -1.53173 0
M  V30 1744 C 159.087 0.464847 -2.28826 0
M  V30 1745 C 160.068 1.07936 -1.31468 0
M  V30 1746 O 161.253 1.0956 -1.60344 0
M  V30 1747 C 158.383 1.60196 -3.08147 0
M  V30 1748 C 157.337 1.11443 -4.13237 0
M  V30 1749 C 156.663 2.3422 -4.80672 0
M  V30 1750 C 157.963 0.195384 -5.21934 0
M  V30 1751 H 159.657 -0.166329 -2.98938 0
M  V30 1752 H 157.203 -0.0814359 -1.4377 0
M  V30 1753 H 159.156 2.19332 -3.59822 0
M  V30 1754 H 157.88 2.26045 -2.35735 0
M  V30 1755 H 156.539 0.545727 -3.62515 0
M  V30 1756 H 156.187 2.98537 -4.04827 0
M  V30 1757 H 155.887 2.02269 -5.51689 0
M  V30 1758 H 157.411 2.94032 -5.35143 0
M  V30 1759 H 158.825 0.694375 -5.69079 0
M  V30 1760 H 157.222 -0.0335027 -6.00091 0
M  V30 1761 H 158.292 -0.760961 -4.78892 0
M  V30 1762 N 159.635 1.57281 -0.100228 0
M  V30 1763 C 160.883 1.94153 0.561157 0
M  V30 1764 C 161.204 0.983157 1.68401 0
M  V30 1765 O 160.474 0.0361132 1.95867 0
M  V30 1766 H 159.054 0.716791 0.210283 0
M  V30 1767 H 161.716 1.94202 -0.164765 0
M  V30 1768 H 160.812 2.96709 0.968008 0
M  V30 1769 N 161.113 -0.173488 1.56642 0
M  V30 1770 C 162.341 -0.906095 1.86004 0
M  V30 1771 C 162.756 -1.75921 0.685355 0
M  V30 1772 O 162.113 -1.79198 -0.345578 0
M  V30 1773 C 162.164 -1.78462 3.14378 0
M  V30 1774 O 161.885 -0.965914 4.27319 0
M  V30 1775 C 163.386 -2.62707 3.57071 0
M  V30 1776 H 160.606 -0.263341 0.617165 0
M  V30 1777 H 163.15 -0.174236 2.03756 0
M  V30 1778 H 161.305 -2.46984 2.98459 0
M  V30 1779 H 161.719 -1.56655 5.00559 0
M  V30 1780 H 163.193 -3.19969 4.49804 0
M  V30 1781 H 163.67 -3.37472 2.81086 0
M  V30 1782 H 164.276 -1.99521 3.75595 0
M  V30 1783 N 162.591 -1.51276 -0.441967 0
M  V30 1784 C 163.837 -1.6492 -1.1905 0
M  V30 1785 C 164.192 -0.358731 -1.89026 0
M  V30 1786 O 163.485 0.645193 -1.8041 0
M  V30 1787 C 163.679 -2.78746 -2.23686 0
M  V30 1788 C 163.508 -4.18737 -1.63979 0
M  V30 1789 C 162.278 -4.84739 -1.42674 0
M  V30 1790 C 164.476 -5.01988 -1.11858 0
M  V30 1791 N 162.458 -6.08858 -0.785159 0
M  V30 1792 C 163.829 -6.17071 -0.601989 0
M  V30 1793 C 165.884 -4.87551 -1.0099 0
M  V30 1794 C 164.587 -7.19299 0.0126012 0
M  V30 1795 C 166.613 -5.89983 -0.409206 0
M  V30 1796 C 165.975 -7.04333 0.0968651 0
M  V30 1797 H 162.074 -0.657416 -0.423471 0
M  V30 1798 H 164.658 -1.8849 -0.48782 0
M  V30 1799 H 162.829 -2.56848 -2.91348 0
M  V30 1800 H 164.561 -2.81595 -2.90666 0
M  V30 1801 H 161.316 -4.42528 -1.68719 0
M  V30 1802 H 161.74 -6.75282 -0.481942 0
M  V30 1803 H 166.382 -3.99401 -1.38703 0
M  V30 1804 H 164.1 -8.071 0.401879 0
M  V30 1805 H 167.686 -5.8088 -0.327079 0
M  V30 1806 H 166.566 -7.82238 0.554373 0
M  V30 1807 N 164.069 0.697108 -1.41344 0
M  V30 1808 C 164.999 1.82353 -1.45841 0
M  V30 1809 C 165.98 1.67115 -0.317247 0
M  V30 1810 O 167.165 1.86871 -0.528474 0
M  V30 1811 C 164.295 3.20476 -1.33838 0
M  V30 1812 C 163.249 3.50415 -2.4575 0
M  V30 1813 C 162.575 4.87878 -2.18813 0
M  V30 1814 C 163.875 3.49546 -3.88091 0
M  V30 1815 H 165.569 1.78846 -2.40113 0
M  V30 1816 H 163.115 0.859028 -1.15571 0
M  V30 1817 H 165.068 3.98988 -1.35596 0
M  V30 1818 H 163.792 3.24604 -0.360498 0
M  V30 1819 H 162.451 2.74253 -2.43271 0
M  V30 1820 H 162.099 4.8863 -1.19371 0
M  V30 1821 H 161.799 5.08875 -2.93803 0
M  V30 1822 H 163.323 5.68702 -2.22284 0
M  V30 1823 H 164.737 4.18066 -3.92293 0
M  V30 1824 H 163.134 3.82075 -4.62751 0
M  V30 1825 H 164.204 2.48552 -4.16353 0
M  V30 1826 N 165.547 1.27147 0.931209 0
M  V30 1827 C 166.477 1.12081 2.04842 0
M  V30 1828 C 167.458 0.0232364 1.70084 0
M  V30 1829 O 168.643 0.197085 1.93197 0
M  V30 1830 C 165.773 0.76354 3.38803 0
M  V30 1831 C 164.727 1.81396 3.87659 0
M  V30 1832 C 164.053 1.31075 5.18385 0
M  V30 1833 C 165.353 3.21739 4.11438 0
M  V30 1834 H 167.047 2.05537 2.17703 0
M  V30 1835 H 164.593 0.989603 1.04608 0
M  V30 1836 H 166.546 0.644982 4.16435 0
M  V30 1837 H 165.27 -0.206727 3.25945 0
M  V30 1838 H 163.929 1.92136 3.12217 0
M  V30 1839 H 163.577 0.330037 5.01916 0
M  V30 1840 H 163.277 2.013 5.52044 0
M  V30 1841 H 164.801 1.20506 5.98591 0
M  V30 1842 H 166.215 3.14019 4.79651 0
M  V30 1843 H 164.612 3.89644 4.56397 0
M  V30 1844 H 165.682 3.67054 3.16859 0
M  V30 1845 N 167.025 -1.13721 1.09112 0
M  V30 1846 C 168.271 -1.85198 0.826414 0
M  V30 1847 C 168.604 -1.83129 -0.646319 0
M  V30 1848 O 167.879 -1.2671 -1.47563 0
M  V30 1849 C 168.162 -3.33507 1.35812 0
M  V30 1850 C 168.015 -3.44108 2.89672 0
M  V30 1851 C 169.334 -4.28838 0.989256 0
M  V30 1852 H 166.453 -0.67243 0.301675 0
M  V30 1853 H 169.095 -1.33499 1.35197 0
M  V30 1854 H 167.245 -3.77666 0.911082 0
M  V30 1855 H 168.917 -3.08684 3.428 0
M  V30 1856 H 167.16 -2.85087 3.26967 0
M  V30 1857 H 167.831 -4.48388 3.21951 0
M  V30 1858 H 170.307 -3.92734 1.37475 0
M  V30 1859 H 169.183 -5.31051 1.38838 0
M  V30 1860 H 169.444 -4.4198 -0.102924 0
M  V30 1861 N 168.503 -0.877838 -1.30888 0
M  V30 1862 C 169.433 -0.35534 -2.3078 0
M  V30 1863 C 170.414 0.557994 -1.60687 0
M  V30 1864 O 171.599 0.473355 -1.88343 0
M  V30 1865 C 168.729 0.437221 -3.44537 0
M  V30 1866 C 167.683 -0.383715 -4.26276 0
M  V30 1867 C 167.009 0.535014 -5.32017 0
M  V30 1868 C 168.309 -1.62201 -4.96476 0
M  V30 1869 H 170.003 -1.19007 -2.74732 0
M  V30 1870 H 167.549 -0.573698 -1.32078 0
M  V30 1871 H 169.502 0.813334 -4.13477 0
M  V30 1872 H 168.226 1.30553 -2.99372 0
M  V30 1873 H 166.885 -0.741874 -3.59015 0
M  V30 1874 H 166.533 1.40083 -4.831 0
M  V30 1875 H 166.233 -0.0104211 -5.87599 0
M  V30 1876 H 167.757 0.907799 -6.03814 0
M  V30 1877 H 169.171 -1.31689 -5.5797 0
M  V30 1878 H 167.568 -2.10711 -5.61891 0
M  V30 1879 H 168.638 -2.37044 -4.23011 0
M  V30 1880 N 169.982 1.44106 -0.638065 0
M  V30 1881 C 170.912 2.33448 0.0494287 0
M  V30 1882 C 171.893 1.48606 0.827672 0
M  V30 1883 O 173.078 1.77308 0.792173 0
M  V30 1884 C 170.208 3.31771 1.02691 0
M  V30 1885 C 169.162 4.26485 0.359823 0
M  V30 1886 C 168.488 5.14729 1.44769 0
M  V30 1887 C 169.788 5.17056 -0.738296 0
M  V30 1888 H 171.482 2.91183 -0.696636 0
M  V30 1889 H 169.028 1.40014 -0.336456 0
M  V30 1890 H 170.981 3.93161 1.51666 0
M  V30 1891 H 169.705 2.7226 1.80395 0
M  V30 1892 H 168.364 3.66437 -0.10934 0
M  V30 1893 H 168.012 4.51566 2.21578 0
M  V30 1894 H 167.712 5.78913 1.00668 0
M  V30 1895 H 169.236 5.78991 1.93911 0
M  V30 1896 H 170.65 5.72342 -0.331354 0
M  V30 1897 H 169.047 5.89879 -1.10286 0
M  V30 1898 H 170.117 4.57652 -1.60258 0
M  V30 1899 N 171.46 0.379036 1.52974 0
M  V30 1900 C 172.709 -0.207612 2.00629 0
M  V30 1901 C 173.022 -1.48758 1.27006 0
M  V30 1902 O 174.228 -2.15365 1.65318 0
M  V30 1903 C 172.684 -0.42053 3.57435 0
M  V30 1904 C 172.292 0.845587 4.39948 0
M  V30 1905 C 174.036 -0.964102 4.13407 0
M  V30 1906 C 171.943 0.601513 5.88333 0
M  V30 1907 H 170.873 -0.0813591 0.749598 0
M  V30 1908 H 173.524 0.499853 1.76561 0
M  V30 1909 H 171.906 -1.18959 3.7771 0
M  V30 1910 H 173.08 1.61848 4.31442 0
M  V30 1911 H 171.395 1.31336 3.95145 0
M  V30 1912 H 173.992 -1.16225 5.21916 0
M  V30 1913 H 174.335 -1.93019 3.68849 0
M  V30 1914 H 174.868 -0.25487 3.96983 0
M  V30 1915 H 171.607 1.53831 6.37194 0
M  V30 1916 H 171.127 -0.132628 5.99653 0
M  V30 1917 H 172.806 0.232134 6.46583 0
M  V30 1918 N 172.938 -1.57226 0.108567 0
M  V30 1919 C 173.87 -2.11809 -0.875752 0
M  V30 1920 C 174.883 -1.05839 -1.23701 0
M  V30 1921 O 176.072 -1.33245 -1.18778 0
M  V30 1922 C 173.172 -2.59411 -2.18081 0
M  V30 1923 C 172.345 -3.89364 -1.99284 0
M  V30 1924 C 171.404 -4.22672 -3.13424 0
M  V30 1925 O 170.43 -4.91668 -2.86795 0
M  V30 1926 N 171.632 -3.79154 -4.3957 0
M  V30 1927 H 174.397 -2.9689 -0.409477 0
M  V30 1928 H 171.958 -1.61721 -0.076158 0
M  V30 1929 H 173.95 -2.7873 -2.93414 0
M  V30 1930 H 172.52 -1.79268 -2.5609 0
M  V30 1931 H 171.74 -3.79059 -1.08203 0
M  V30 1932 H 173.028 -4.74358 -1.84017 0
M  V30 1933 H 172.426 -3.23486 -4.64083 0
M  V30 1934 H 170.983 -4.03602 -5.11809 0
M  V30 1935 N 174.416 0.165178 -1.56732 0
M  V30 1936 C 175.646 0.894919 -1.86212 0
M  V30 1937 C 176.054 1.76066 -0.692627 0
M  V30 1938 O 175.397 1.80387 0.347303 0
M  V30 1939 C 175.459 1.8174 -3.10179 0
M  V30 1940 C 175.123 1.13064 -4.42793 0
M  V30 1941 C 176.12 0.493169 -5.17556 0
M  V30 1942 C 173.805 1.12556 -4.89527 0
M  V30 1943 C 175.799 -0.140209 -6.37246 0
M  V30 1944 C 173.486 0.488366 -6.09145 0
M  V30 1945 C 174.484 -0.143411 -6.82849 0
M  V30 1946 O 174.172 -0.77055 -8.00199 0
M  V30 1947 H 173.904 0.265114 -0.621844 0
M  V30 1948 H 176.458 0.168242 -2.0471 0
M  V30 1949 H 174.688 2.58455 -2.87642 0
M  V30 1950 H 176.377 2.4175 -3.26055 0
M  V30 1951 H 177.143 0.489023 -4.82528 0
M  V30 1952 H 173.022 1.60672 -4.32094 0
M  V30 1953 H 176.566 -0.633932 -6.94714 0
M  V30 1954 H 172.463 0.490116 -6.43637 0
M  V30 1955 H 173.231 -0.670408 -8.1575 0
M  V30 1956 N 175.894 1.51508 0.433938 0
M  V30 1957 C 177.119 1.68443 1.21003 0
M  V30 1958 C 177.544 0.382636 1.84167 0
M  V30 1959 O 176.902 -0.65755 1.68956 0
M  V30 1960 C 176.95 2.80405 2.26727 0
M  V30 1961 O 176.054 2.44245 3.32292 0
M  V30 1962 H 175.395 0.561536 0.354363 0
M  V30 1963 H 177.925 1.9809 0.512024 0
M  V30 1964 H 177.935 3.0459 2.71457 0
M  V30 1965 H 176.61 3.74867 1.80132 0
M  V30 1966 H 175.187 2.30644 2.93015 0
M  V30 1967 N 177.372 -0.689602 1.41712 0
M  V30 1968 C 178.788 -1.00093 1.24312 0
M  V30 1969 C 178.988 -2.01036 0.136729 0
M  V30 1970 O 178.044 -2.47562 -0.496918 0
M  V30 1971 C 179.357 -1.51985 2.59463 0
M  V30 1972 C 180.905 -1.63838 2.66695 0
M  V30 1973 C 181.38 -2.1913 4.02177 0
M  V30 1974 N 182.871 -2.26483 4.04054 0
M  V30 1975 C 183.606 -2.70306 5.0569 0
M  V30 1976 N 183.102 -3.13691 6.17713 0
M  V30 1977 N 184.895 -2.69923 4.9305 0
M  V30 1978 H 177.046 -0.0210029 2.1239 0
M  V30 1979 H 179.309 -0.0718733 0.945272 0
M  V30 1980 H 179.015 -0.85269 3.41207 0
M  V30 1981 H 178.889 -2.50103 2.82362 0
M  V30 1982 H 181.276 -2.29664 1.85306 0
M  V30 1983 H 181.357 -0.642492 2.476 0
M  V30 1984 H 181.001 -1.53918 4.84016 0
M  V30 1985 H 180.931 -3.19482 4.18615 0
M  V30 1986 H 183.422 -1.95874 3.23174 0
M  V30 1987 H 183.735 -3.45773 6.9113 0
M  V30 1988 H 182.08 -3.11585 6.21241 0
M  V30 1989 H 185.271 -2.35382 4.04614 0
M  V30 1990 H 185.444 -3.03758 5.72394 0
M  V30 1991 N 178.85 -1.27639 -0.924453 0
M  V30 1992 C 179.782 -1.06442 -2.02985 0
M  V30 1993 C 180.795 -0.0194771 -1.62788 0
M  V30 1994 O 181.984 -0.261388 -1.76576 0
M  V30 1995 C 179.084 -0.59327 -3.33667 0
M  V30 1996 C 178.257 -1.71123 -4.02537 0
M  V30 1997 C 177.316 -1.23527 -5.11495 0
M  V30 1998 O 176.342 -1.93553 -5.35281 0
M  V30 1999 N 177.544 -0.0926678 -5.80426 0
M  V30 2000 H 180.309 -2.01633 -2.2173 0
M  V30 2001 H 177.87 -1.19248 -1.09505 0
M  V30 2002 H 179.862 -0.258686 -4.03872 0
M  V30 2003 H 178.432 0.265502 -3.1147 0
M  V30 2004 H 177.652 -2.21593 -3.26022 0
M  V30 2005 H 178.94 -2.46145 -4.45298 0
M  V30 2006 H 178.338 0.491741 -5.63559 0
M  V30 2007 H 176.895 0.182714 -6.51544 0
M  V30 2008 N 180.328 1.1314 -1.09713 0
M  V30 2009 C 181.574 1.84967 -0.846104 0
M  V30 2010 C 181.929 1.82082 0.621601 0
M  V30 2011 O 181.222 1.2501 1.452 0
M  V30 2012 C 181.416 3.32167 -1.3191 0
M  V30 2013 C 181.245 3.49386 -2.83125 0
M  V30 2014 C 180.015 3.63456 -3.51038 0
M  V30 2015 C 182.213 3.45179 -3.81256 0
M  V30 2016 N 180.195 3.68966 -4.9065 0
M  V30 2017 C 181.566 3.57094 -5.06837 0
M  V30 2018 C 183.621 3.28598 -3.74069 0
M  V30 2019 C 182.324 3.5414 -6.26081 0
M  V30 2020 C 184.35 3.26953 -4.92804 0
M  V30 2021 C 183.712 3.39422 -6.17229 0
M  V30 2022 H 179.811 0.692899 -0.362512 0
M  V30 2023 H 182.395 1.35506 -1.39808 0
M  V30 2024 H 180.566 3.80186 -0.794535 0
M  V30 2025 H 182.298 3.91815 -1.01308 0
M  V30 2026 H 179.053 3.65256 -3.01471 0
M  V30 2027 H 179.477 3.75404 -5.63383 0
M  V30 2028 H 184.119 3.17858 -2.78794 0
M  V30 2029 H 181.837 3.63653 -7.21653 0
M  V30 2030 H 185.423 3.15316 -4.88945 0
M  V30 2031 H 184.303 3.38114 -7.07565 0
M  V30 2032 N 181.806 0.884767 1.30421 0
M  V30 2033 C 183.046 0.509806 1.9794 0
M  V30 2034 C 183.41 -0.923736 1.68319 0
M  V30 2035 O 184.611 -1.40481 2.29169 0
M  V30 2036 C 182.882 0.776732 3.48858 0
M  V30 2037 S 184.441 0.503843 4.35898 0
M  V30 2038 H 181.259 0.189699 0.685227 0
M  V30 2039 H 183.861 1.14399 1.58535 0
M  V30 2040 H 182.565 1.81857 3.67908 0
M  V30 2041 H 182.096 0.1301 3.93185 0
M  V30 2042 H 184.111 -0.657625 4.91823 0
M  V30 2043 N 183.284 -1.43765 0.645699 0
M  V30 2044 C 184.53 -2.02197 0.156271 0
M  V30 2045 C 184.863 -1.50776 -1.22393 0
M  V30 2046 O 184.138 -0.697771 -1.81553 0
M  V30 2047 C 184.421 -3.59749 0.158872 0
M  V30 2048 C 184.274 -4.21419 1.57245 0
M  V30 2049 C 185.593 -4.37149 -0.50879 0
M  V30 2050 H 182.712 -0.734694 0.0582602 0
M  V30 2051 H 185.354 -1.71157 0.824951 0
M  V30 2052 H 183.504 -3.86325 -0.410525 0
M  V30 2053 H 185.176 -4.059 2.19186 0
M  V30 2054 H 183.419 -3.78356 2.122 0
M  V30 2055 H 184.09 -5.30482 1.52619 0
M  V30 2056 H 186.566 -4.16093 -0.024412 0
M  V30 2057 H 185.442 -5.4683 -0.476213 0
M  V30 2058 H 185.703 -4.12839 -1.58165 0
M  V30 2059 N 184.763 -0.387143 -1.52771 0
M  V30 2060 C 185.695 0.484089 -2.2403 0
M  V30 2061 C 186.708 1.02849 -1.26198 0
M  V30 2062 O 187.897 0.931186 -1.52286 0
M  V30 2063 C 184.997 1.68337 -2.94136 0
M  V30 2064 C 184.17 1.26672 -4.18656 0
M  V30 2065 C 183.229 2.33045 -4.7178 0
M  V30 2066 O 182.255 1.94541 -5.34923 0
M  V30 2067 N 183.457 3.64929 -4.5145 0
M  V30 2068 H 186.222 -0.126404 -2.99433 0
M  V30 2069 H 183.783 -0.213392 -1.60488 0
M  V30 2070 H 185.775 2.39019 -3.26577 0
M  V30 2071 H 184.345 2.20025 -2.22053 0
M  V30 2072 H 183.565 0.388878 -3.92277 0
M  V30 2073 H 184.853 0.964964 -4.99566 0
M  V30 2074 H 184.251 3.98974 -4.01044 0
M  V30 2075 H 182.808 4.31651 -4.88386 0
M  V30 2076 N 186.241 1.57166 -0.116904 0
M  V30 2077 C 187.188 2.15202 0.83408 0
M  V30 2078 C 188.158 1.07644 1.26499 0
M  V30 2079 O 189.343 1.35541 1.34288 0
M  V30 2080 C 186.483 2.75405 2.07957 0
M  V30 2081 C 185.596 3.97264 1.69721 0
M  V30 2082 C 184.731 4.45561 2.89221 0
M  V30 2083 C 183.77 5.59956 2.47215 0
M  V30 2084 N 182.907 6.03006 3.59622 0
M  V30 2085 H 187.747 2.96141 0.332335 0
M  V30 2086 H 185.284 1.46309 0.152349 0
M  V30 2087 H 187.242 3.08439 2.80929 0
M  V30 2088 H 185.872 1.97159 2.55594 0
M  V30 2089 H 184.924 3.70404 0.866316 0
M  V30 2090 H 186.236 4.80226 1.34849 0
M  V30 2091 H 185.39 4.80493 3.7042 0
M  V30 2092 H 184.129 3.61544 3.27318 0
M  V30 2093 H 183.134 5.2463 1.64448 0
M  V30 2094 H 184.359 6.45738 2.10238 0
M  V30 2095 H 182.305 5.21931 3.97396 0
M  V30 2096 H 182.222 6.80819 3.28667 0
M  V30 2097 H 183.49 6.42576 4.41267 0
M  V30 2098 N 187.719 -0.156864 1.56817 0
M  V30 2099 C 188.667 -1.21319 1.98455 0
M  V30 2100 C 189.661 -1.45025 0.875444 0
M  V30 2101 O 190.867 -1.45435 1.0606 0
M  V30 2102 H 187.242 -0.408142 0.631605 0
M  V30 2103 H 189.213 -0.835244 2.86472 0
M  V30 2104 C 187.962 -2.54148 2.37285 0
M  V30 2105 H 187.285 -2.36733 3.22176 0
M  V30 2106 H 188.725 -3.26712 2.70251 0
M  V30 2107 C 187.184 -3.13967 1.22173 0
M  V30 2108 O 187.714 -3.98357 0.517149 0
M  V30 2109 N 185.92 -2.7327 0.988536 0
M  V30 2110 H 185.467 -2.04744 1.56326 0
M  V30 2111 H 185.425 -3.13628 0.220209 0
M  V30 2112 N 189.197 -1.51736 -0.425897 0
M  V30 2113 C 190.422 -1.69082 -1.20108 0
M  V30 2114 C 190.847 -0.392398 -1.83962 0
M  V30 2115 O 190.205 0.64858 -1.69302 0
M  V30 2116 C 190.253 -2.81604 -2.25237 0
M  V30 2117 O 189.357 -2.46004 -3.30992 0
M  V30 2118 H 188.698 -0.563408 -0.35138 0
M  V30 2119 H 191.228 -1.98358 -0.501512 0
M  V30 2120 H 191.238 -3.06025 -2.69838 0
M  V30 2121 H 189.913 -3.75817 -1.78142 0
M  V30 2122 H 188.49 -2.32195 -2.91787 0
M  V30 2123 N 190.675 0.682077 -1.42076 0
M  V30 2124 C 191.921 1.44283 -1.43366 0
M  V30 2125 C 192.276 1.92344 -0.0465775 0
M  V30 2126 O 191.569 1.67517 0.929973 0
M  V30 2127 C 191.763 2.66036 -2.38662 0
M  V30 2128 C 191.592 2.29889 -3.86499 0
M  V30 2129 C 190.362 2.19599 -4.55087 0
M  V30 2130 C 192.56 1.91999 -4.77117 0
M  V30 2131 N 190.542 1.76478 -5.87987 0
M  V30 2132 C 191.913 1.59741 -5.99068 0
M  V30 2133 C 193.968 1.78927 -4.64639 0
M  V30 2134 C 192.671 1.15723 -7.0993 0
M  V30 2135 C 194.697 1.36314 -5.75476 0
M  V30 2136 C 194.059 1.04975 -6.96534 0
M  V30 2137 H 190.158 0.524739 -0.579805 0
M  V30 2138 H 192.742 0.787834 -1.78048 0
M  V30 2139 H 190.913 3.29237 -2.06053 0
M  V30 2140 H 192.645 3.32588 -2.30581 0
M  V30 2141 H 189.4 2.38433 -4.09202 0
M  V30 2142 H 189.824 1.57362 -6.58458 0
M  V30 2143 H 194.466 2.01805 -3.7153 0
M  V30 2144 H 192.184 0.91591 -8.02893 0
M  V30 2145 H 195.77 1.26731 -5.6783 0
M  V30 2146 H 194.65 0.725017 -7.80841 0
M  V30 2147 N 192.153 1.28127 0.917671 0
M  V30 2148 C 193.4 1.15052 1.66641 0
M  V30 2149 C 193.728 -0.301677 1.92146 0
M  V30 2150 O 192.983 -1.23622 1.51711 0
M  V30 2151 C 193.282 1.89018 3.03327 0
M  V30 2152 C 192.948 3.38832 2.97496 0
M  V30 2153 C 191.61 3.79693 2.95613 0
M  V30 2154 C 193.962 4.34378 2.88036 0
M  V30 2155 C 191.29 5.14447 2.82066 0
M  V30 2156 C 193.642 5.69201 2.7603 0
M  V30 2157 C 192.306 6.09343 2.72502 0
M  V30 2158 H 191.576 0.421006 0.609783 0
M  V30 2159 H 194.223 1.58855 1.06945 0
M  V30 2160 H 192.528 1.37752 3.66785 0
M  V30 2161 H 194.225 1.76321 3.60156 0
M  V30 2162 H 190.815 3.06342 2.99754 0
M  V30 2163 H 194.999 4.03775 2.88581 0
M  V30 2164 H 190.255 5.44681 2.77728 0
M  V30 2165 H 194.429 6.42901 2.67678 0
M  V30 2166 H 192.056 7.13712 2.61762 0
M  V30 2167 N 193.631 -1.12557 1.10312 0
M  V30 2168 C 194.561 -2.20341 0.772798 0
M  V30 2169 C 195.542 -1.68198 -0.25365 0
M  V30 2170 O 196.727 -1.93831 -0.119699 0
M  V30 2171 C 193.857 -3.46709 0.202443 0
M  V30 2172 C 192.811 -4.11996 1.15943 0
M  V30 2173 C 192.137 -5.328 0.450345 0
M  V30 2174 C 193.437 -4.5828 2.50552 0
M  V30 2175 H 195.131 -2.48229 1.674 0
M  V30 2176 H 192.677 -1.19308 0.806326 0
M  V30 2177 H 194.63 -4.2138 -0.0407752 0
M  V30 2178 H 193.354 -3.18245 -0.734001 0
M  V30 2179 H 192.013 -3.39305 1.38808 0
M  V30 2180 H 191.661 -5.00602 -0.490531 0
M  V30 2181 H 191.361 -5.7743 1.08851 0
M  V30 2182 H 192.885 -6.10219 0.215642 0
M  V30 2183 H 194.299 -5.2433 2.31843 0
M  V30 2184 H 192.696 -5.13683 3.10242 0
M  V30 2185 H 193.766 -3.72329 3.10643 0
M  V30 2186 N 195.109 -0.891671 -1.2995 0
M  V30 2187 C 196.334 -0.527932 -2.00568 0
M  V30 2188 C 196.759 0.877969 -1.66353 0
M  V30 2189 O 196.117 1.58301 -0.883762 0
M  V30 2190 C 196.165 -0.717745 -3.53385 0
M  V30 2191 O 195.269 0.233376 -4.11739 0
M  V30 2192 H 194.61 -0.20722 -0.630837 0
M  V30 2193 H 197.14 -1.20105 -1.65638 0
M  V30 2194 H 197.15 -0.619307 -4.03272 0
M  V30 2195 H 195.825 -1.74276 -3.77625 0
M  V30 2196 H 194.402 0.0880706 -3.72796 0
M  V30 2197 N 196.587 1.43421 -0.653314 0
M  V30 2198 C 197.517 2.33487 0.0246656 0
M  V30 2199 C 198.498 1.49475 0.811863 0
M  V30 2200 O 199.683 1.78139 0.773322 0
M  V30 2201 C 196.813 3.32841 0.99166 0
M  V30 2202 C 195.767 4.26842 0.314568 0
M  V30 2203 C 195.093 5.16236 1.39302 0
M  V30 2204 C 196.393 5.16243 -0.793095 0
M  V30 2205 H 198.087 2.90427 -0.727481 0
M  V30 2206 H 195.633 1.39649 -0.351287 0
M  V30 2207 H 197.586 3.94747 1.47487 0
M  V30 2208 H 196.31 2.74158 1.77497 0
M  V30 2209 H 194.969 3.663 -0.148199 0
M  V30 2210 H 194.617 4.53891 2.16776 0
M  V30 2211 H 194.317 5.79948 0.945223 0
M  V30 2212 H 195.841 5.81015 1.87759 0
M  V30 2213 H 197.255 5.71958 -0.392039 0
M  V30 2214 H 195.652 5.88676 -1.16536 0
M  V30 2215 H 196.722 4.55927 -1.65103 0
M  V30 2216 N 198.065 0.39524 1.52563 0
M  V30 2217 C 199.312 -0.185044 2.01653 0
M  V30 2218 C 199.64 -1.46317 1.28146 0
M  V30 2219 O 198.895 -1.9213 0.372074 0
M  V30 2220 C 199.194 -0.493444 3.53977 0
M  V30 2221 C 198.86 0.69384 4.4553 0
M  V30 2222 C 197.522 1.01954 4.70275 0
M  V30 2223 C 199.874 1.48785 4.99512 0
M  V30 2224 C 197.202 2.14069 5.46252 0
M  V30 2225 C 199.554 2.59965 5.76716 0
M  V30 2226 C 198.218 2.93037 5.99738 0
M  V30 2227 H 197.488 -0.0677123 0.7379 0
M  V30 2228 H 200.135 0.533807 1.8391 0
M  V30 2229 H 198.44 -1.29369 3.69825 0
M  V30 2230 H 200.137 -0.955163 3.89458 0
M  V30 2231 H 196.727 0.429987 4.26438 0
M  V30 2232 H 200.911 1.24946 4.80315 0
M  V30 2233 H 196.167 2.40056 5.62302 0
M  V30 2234 H 200.341 3.21887 6.17545 0
M  V30 2235 H 197.968 3.8003 6.58393 0
M  V30 2236 N 199.544 -1.57102 0.125237 0
M  V30 2237 C 200.79 -1.96488 -0.525753 0
M  V30 2238 C 201.145 -1.00786 -1.6389 0
M  V30 2239 O 200.438 -0.038979 -1.9156 0
M  V30 2240 C 200.632 -3.40096 -1.09862 0
M  V30 2241 C 200.461 -4.4968 -0.0425004 0
M  V30 2242 C 199.231 -5.03781 0.391463 0
M  V30 2243 C 201.429 -5.08936 0.740829 0
M  V30 2244 N 199.411 -5.96948 1.4327 0
M  V30 2245 C 200.782 -5.98105 1.6331 0
M  V30 2246 C 202.837 -4.91576 0.791029 0
M  V30 2247 C 201.54 -6.71774 2.57122 0
M  V30 2248 C 203.566 -5.6593 1.71688 0
M  V30 2249 C 202.928 -6.5479 2.59672 0
M  V30 2250 H 199.027 -0.765072 -0.161831 0
M  V30 2251 H 201.611 -1.93511 0.214801 0
M  V30 2252 H 199.782 -3.43707 -1.80887 0
M  V30 2253 H 201.514 -3.66591 -1.71444 0
M  V30 2254 H 198.269 -4.736 -0.00213584 0
M  V30 2255 H 198.693 -6.48236 1.95243 0
M  V30 2256 H 203.335 -4.22615 0.124915 0
M  V30 2257 H 201.053 -7.39977 3.24744 0
M  V30 2258 H 204.639 -5.54501 1.76125 0
M  V30 2259 H 203.519 -7.11316 3.30149 0
M  V30 2260 N 201.022 0.148545 -1.56898 0
M  V30 2261 C 202.271 0.85984 -1.82454 0
M  V30 2262 C 202.584 1.82406 -0.706229 0
M  V30 2263 O 203.79 2.57938 -0.847349 0
M  V30 2264 C 202.246 1.57967 -3.2338 0
M  V30 2265 C 201.854 0.65794 -4.43142 0
M  V30 2266 C 203.598 2.27784 -3.58211 0
M  V30 2267 C 201.505 1.3793 -5.75091 0
M  V30 2268 H 200.435 0.324834 -0.68044 0
M  V30 2269 H 203.086 0.112588 -1.83154 0
M  V30 2270 H 201.468 2.37249 -3.17063 0
M  V30 2271 H 202.642 -0.0995497 -4.60692 0
M  V30 2272 H 200.957 0.0682643 -4.16344 0
M  V30 2273 H 203.554 2.8239 -4.54048 0
M  V30 2274 H 203.897 3.04204 -2.84193 0
M  V30 2275 H 204.43 1.55421 -3.66182 0
M  V30 2276 H 201.169 0.656982 -6.52199 0
M  V30 2277 H 200.689 2.10954 -5.61479 0
M  V30 2278 H 202.368 1.92063 -6.17835 0
M  V30 2279 N 202.5 1.5196 0.417844 0
M  V30 2280 C 203.43 1.77634 1.51554 0
M  V30 2281 C 204.411 0.626918 1.58126 0
M  V30 2282 O 205.596 0.871632 1.7354 0
M  V30 2283 C 202.726 1.91911 2.8946 0
M  V30 2284 C 201.68 3.07463 2.97743 0
M  V30 2285 C 201.006 3.06951 4.37819 0
M  V30 2286 C 202.306 4.47082 2.70027 0
M  V30 2287 H 204 2.6955 1.3032 0
M  V30 2288 H 201.546 1.29706 0.625492 0
M  V30 2289 H 203.499 2.08455 3.6623 0
M  V30 2290 H 202.223 0.966598 3.11969 0
M  V30 2291 H 200.882 2.90656 2.23416 0
M  V30 2292 H 200.53 2.09438 4.57323 0
M  V30 2293 H 200.23 3.84556 4.44286 0
M  V30 2294 H 201.754 3.25613 5.16535 0
M  V30 2295 H 203.168 4.6414 3.36522 0
M  V30 2296 H 201.565 5.2654 2.87881 0
M  V30 2297 H 202.635 4.55777 1.65514 0
M  V30 2298 N 203.978 -0.674533 1.42435 0
M  V30 2299 C 205.203 -1.46784 1.46524 0
M  V30 2300 C 205.628 -1.87938 0.078066 0
M  V30 2301 O 204.986 -1.56014 -0.92354 0
M  V30 2302 C 205.034 -2.69307 2.39805 0
M  V30 2303 O 204.138 -3.67587 1.86959 0
M  V30 2304 H 203.479 -0.440959 0.496439 0
M  V30 2305 H 206.009 -0.827326 1.87127 0
M  V30 2306 H 206.019 -3.17374 2.56393 0
M  V30 2307 H 204.694 -2.38692 3.40586 0
M  V30 2308 H 203.271 -3.2662 1.79927 0
M  V30 2309 N 205.456 -1.28612 -0.910864 0
M  V30 2310 C 206.705 -1.15311 -1.65488 0
M  V30 2311 C 207.018 0.296999 -1.93332 0
M  V30 2312 O 208.224 0.551168 -2.65847 0
M  V30 2313 C 206.68 -2.01599 -2.98137 0
M  V30 2314 C 206.288 -3.51367 -2.7793 0
M  V30 2315 C 208.032 -1.96993 -3.76024 0
M  V30 2316 C 205.939 -4.29797 -4.06237 0
M  V30 2317 H 204.869 -0.42796 -0.620779 0
M  V30 2318 H 207.52 -1.53166 -1.01057 0
M  V30 2319 H 205.902 -1.56603 -3.63719 0
M  V30 2320 H 207.076 -4.0434 -2.21011 0
M  V30 2321 H 205.391 -3.57529 -2.13452 0
M  V30 2322 H 207.988 -2.52856 -4.71135 0
M  V30 2323 H 208.331 -0.94733 -4.05378 0
M  V30 2324 H 208.864 -2.39973 -3.17266 0
M  V30 2325 H 205.603 -5.32648 -3.82055 0
M  V30 2326 H 205.123 -3.81596 -4.62757 0
M  V30 2327 H 206.802 -4.39869 -4.74473 0
M  V30 2328 N 206.934 1.1197 -1.10907 0
M  V30 2329 C 207.864 2.19928 -0.784473 0
M  V30 2330 C 208.845 1.6833 0.244726 0
M  V30 2331 O 210.03 1.93892 0.109418 0
M  V30 2332 C 207.16 3.46597 -0.220827 0
M  V30 2333 C 206.114 4.11376 -1.18127 0
M  V30 2334 C 205.44 5.32554 -0.478594 0
M  V30 2335 C 206.74 4.56945 -2.52979 0
M  V30 2336 H 208.434 2.47337 -1.68715 0
M  V30 2337 H 205.98 1.18879 -0.812642 0
M  V30 2338 H 207.933 4.21396 0.0184278 0
M  V30 2339 H 206.657 3.1863 0.717113 0
M  V30 2340 H 205.316 3.38564 -1.40606 0
M  V30 2341 H 204.964 5.00856 0.463976 0
M  V30 2342 H 204.664 5.76844 -1.11912 0
M  V30 2343 H 206.188 6.10096 -0.248 0
M  V30 2344 H 207.602 5.23093 -2.3462 0
M  V30 2345 H 205.999 5.1203 -3.12962 0
M  V30 2346 H 207.069 3.70676 -3.12614 0
M  V30 2347 N 208.412 0.89855 1.29475 0
M  V30 2348 C 209.652 0.530771 1.97388 0
M  V30 2349 C 210.016 -0.905832 1.69289 0
M  V30 2350 O 211.217 -1.38042 2.30646 0
M  V30 2351 C 209.488 0.81369 3.48014 0
M  V30 2352 S 211.047 0.550048 4.35339 0
M  V30 2353 H 207.865 0.196956 0.683176 0
M  V30 2354 H 210.467 1.16074 1.57312 0
M  V30 2355 H 209.171 1.85749 3.65958 0
M  V30 2356 H 208.702 0.171795 3.93025 0
M  V30 2357 H 210.717 -0.605423 4.92493 0
M  V30 2358 N 209.89 -1.43072 0.660911 0
M  V30 2359 C 211.138 -2.01323 0.177094 0
M  V30 2360 C 211.459 -1.5245 -1.2159 0
M  V30 2361 O 210.729 -0.740322 -1.81373 0
M  V30 2362 H 209.309 -0.744382 0.0624804 0
M  V30 2363 H 211.971 -1.75179 0.854305 0
M  V30 2364 H 211.067 -3.11649 0.167641 0
M  V30 2365 N 211.368 -0.403325 -1.52352 0
M  V30 2366 C 212.596 0.174012 -2.06167 0
M  V30 2367 C 213.011 1.39347 -1.27388 0
M  V30 2368 O 212.368 1.79597 -0.324201 0
M  V30 2369 C 212.419 0.530223 -3.5759 0
M  V30 2370 O 212.14 -0.640806 -4.33388 0
M  V30 2371 C 213.641 1.16192 -4.27802 0
M  V30 2372 H 210.861 0.0229464 -0.670608 0
M  V30 2373 H 213.405 -0.572604 -1.9632 0
M  V30 2374 H 211.56 1.22673 -3.67464 0
M  V30 2375 H 211.974 -0.344851 -5.23365 0
M  V30 2376 H 213.448 1.36141 -5.34948 0
M  V30 2377 H 213.925 2.13335 -3.83907 0
M  V30 2378 H 214.531 0.505775 -4.22282 0
M  V30 2379 N 212.846 1.57033 -0.133567 0
M  V30 2380 C 214.093 1.95686 0.520877 0
M  V30 2381 C 214.421 1.0177 1.6575 0
M  V30 2382 O 213.676 0.0443195 1.9565 0
M  V30 2383 C 213.975 3.40674 1.08057 0
M  V30 2384 C 213.641 4.50855 0.0637899 0
M  V30 2385 C 212.303 4.80716 -0.215757 0
M  V30 2386 C 214.655 5.17398 -0.62835 0
M  V30 2387 C 211.983 5.74433 -1.19348 0
M  V30 2388 C 214.335 6.12167 -1.5948 0
M  V30 2389 C 212.999 6.40414 -1.88218 0
M  V30 2390 H 212.269 0.716067 0.190602 0
M  V30 2391 H 214.916 1.9026 -0.217556 0
M  V30 2392 H 213.221 3.42865 1.89606 0
M  V30 2393 H 214.918 3.67902 1.59529 0
M  V30 2394 H 211.508 4.27605 0.291855 0
M  V30 2395 H 215.692 4.94472 -0.425562 0
M  V30 2396 H 210.948 5.94616 -1.42272 0
M  V30 2397 H 215.122 6.6281 -2.13671 0
M  V30 2398 H 212.749 7.12838 -2.64133 0
M  V30 2399 N 214.325 -0.140222 1.56975 0
M  V30 2400 C 215.257 -1.19818 1.95388 0
M  V30 2401 C 216.27 -1.38816 0.850525 0
M  V30 2402 O 217.459 -1.38267 1.12891 0
M  V30 2403 C 214.559 -2.56189 2.21857 0
M  V30 2404 C 213.732 -2.58077 3.5315 0
M  V30 2405 C 212.791 -3.76037 3.6808 0
M  V30 2406 O 211.817 -3.60598 4.40406 0
M  V30 2407 N 213.019 -4.93763 3.05251 0
M  V30 2408 H 215.784 -0.871609 2.86746 0
M  V30 2409 H 213.345 -0.32972 1.58507 0
M  V30 2410 H 215.337 -3.33623 2.2908 0
M  V30 2411 H 213.907 -2.81111 1.36731 0
M  V30 2412 H 213.127 -1.6651 3.57307 0
M  V30 2413 H 214.415 -2.56377 4.39486 0
M  V30 2414 H 213.813 -5.09209 2.46419 0
M  V30 2415 H 212.37 -5.68949 3.18026 0
M  V30 2416 N 215.803 -1.52179 -0.40978 0
M  V30 2417 C 217.05 -1.66206 -1.15679 0
M  V30 2418 C 217.378 -0.391674 -1.90516 0
M  V30 2419 O 216.633 0.62533 -1.8544 0
M  V30 2420 C 216.932 -2.83428 -2.17723 0
M  V30 2421 C 216.598 -4.21672 -1.59699 0
M  V30 2422 C 215.26 -4.59274 -1.43599 0
M  V30 2423 C 217.612 -5.07825 -1.17317 0
M  V30 2424 C 214.94 -5.80709 -0.836328 0
M  V30 2425 C 217.292 -6.29864 -0.587691 0
M  V30 2426 C 215.956 -6.66216 -0.413818 0
M  V30 2427 H 215.226 -0.608192 -0.423301 0
M  V30 2428 H 217.873 -1.86279 -0.444097 0
M  V30 2429 H 216.178 -2.57687 -2.95135 0
M  V30 2430 H 217.875 -2.91477 -2.75394 0
M  V30 2431 H 214.465 -3.9204 -1.73213 0
M  V30 2432 H 218.649 -4.79359 -1.28565 0
M  V30 2433 H 213.905 -6.07498 -0.689626 0
M  V30 2434 H 218.079 -6.95948 -0.250894 0
M  V30 2435 H 215.706 -7.60182 0.0529471 0
M  V30 2436 N 217.281 0.66697 -1.42791 0
M  V30 2437 C 218.213 1.7925 -1.42836 0
M  V30 2438 C 219.226 1.59496 -0.326333 0
M  V30 2439 O 220.415 1.6847 -0.589916 0
M  V30 2440 C 217.515 3.16476 -1.21229 0
M  V30 2441 C 216.688 3.63011 -2.44013 0
M  V30 2442 C 215.747 4.78993 -2.17834 0
M  V30 2443 O 214.773 4.89137 -2.91091 0
M  V30 2444 N 215.975 5.68248 -1.18635 0
M  V30 2445 H 218.74 1.79695 -2.39854 0
M  V30 2446 H 216.301 0.850338 -1.37771 0
M  V30 2447 H 218.293 3.91734 -1.01621 0
M  V30 2448 H 216.863 3.10884 -0.32706 0
M  V30 2449 H 216.083 2.78346 -2.79137 0
M  V30 2450 H 217.371 3.90845 -3.25757 0
M  V30 2451 H 216.769 5.62712 -0.580615 0
M  V30 2452 H 215.326 6.43285 -1.05013 0
M  V30 2453 N 218.759 1.29093 0.90403 0
M  V30 2454 C 219.987 1.19689 1.68766 0
M  V30 2455 C 220.402 -0.243113 1.87228 0
M  V30 2456 O 219.759 -1.16326 1.40621 0
M  V30 2457 C 219.81 1.90144 3.07453 0
M  V30 2458 O 219.531 3.2852 2.89838 0
M  V30 2459 C 221.032 1.87162 4.01852 0
M  V30 2460 H 218.252 0.415035 0.527244 0
M  V30 2461 H 220.796 1.7039 1.13082 0
M  V30 2462 H 218.951 1.43289 3.59926 0
M  V30 2463 H 219.365 3.63944 3.77684 0
M  V30 2464 H 220.839 2.41032 4.96596 0
M  V30 2465 H 221.316 0.84617 4.30972 0
M  V30 2466 H 221.922 2.33741 3.5531 0
M  V30 2467 N 220.237 -1.11381 1.11499 0
M  V30 2468 C 221.167 -2.19509 0.796125 0
M  V30 2469 C 222.148 -1.68458 -0.235796 0
M  V30 2470 O 223.333 -1.93947 -0.0991344 0
M  V30 2471 C 220.463 -3.46475 0.239205 0
M  V30 2472 C 219.417 -4.10744 1.20307 0
M  V30 2473 C 218.743 -5.32293 0.50683 0
M  V30 2474 C 220.043 -4.55597 2.55399 0
M  V30 2475 H 221.737 -2.46439 1.70024 0
M  V30 2476 H 219.283 -1.18446 0.818935 0
M  V30 2477 H 221.236 -4.214 0.00392006 0
M  V30 2478 H 219.96 -3.19006 -0.700206 0
M  V30 2479 H 218.619 -3.37813 1.42399 0
M  V30 2480 H 218.267 -5.01095 -0.437408 0
M  V30 2481 H 217.967 -5.76243 1.1497 0
M  V30 2482 H 219.491 -6.09956 0.280351 0
M  V30 2483 H 220.905 -5.21841 2.37391 0
M  V30 2484 H 219.302 -5.10363 3.15673 0
M  V30 2485 H 220.372 -3.69013 3.14575 0
M  V30 2486 N 221.715 -0.905404 -1.28997 0
M  V30 2487 C 222.964 -0.530191 -1.94607 0
M  V30 2488 C 223.277 0.929185 -1.72121 0
M  V30 2489 O 224.483 1.41218 -2.31883 0
M  V30 2490 C 222.939 -0.897333 -3.48534 0
M  V30 2491 C 222.547 -2.37587 -3.79811 0
M  V30 2492 C 224.291 -0.592304 -4.20347 0
M  V30 2493 C 222.198 -2.68357 -5.27009 0
M  V30 2494 H 221.128 -0.194558 -0.728466 0
M  V30 2495 H 223.779 -1.10318 -1.46636 0
M  V30 2496 H 222.161 -0.253214 -3.9519 0
M  V30 2497 H 223.335 -3.06602 -3.43994 0
M  V30 2498 H 221.65 -2.6505 -3.2115 0
M  V30 2499 H 224.247 -0.798975 -5.28697 0
M  V30 2500 H 224.59 0.469474 -4.13644 0
M  V30 2501 H 225.123 -1.19452 -3.79442 0
M  V30 2502 H 221.862 -3.73355 -5.38782 0
M  V30 2503 H 221.382 -2.03971 -5.64053 0
M  V30 2504 H 223.061 -2.54922 -5.94663 0
M  V30 2505 N 223.193 1.4272 -0.668489 0
M  V30 2506 C 224.609 1.55992 -0.33745 0
M  V30 2507 C 224.809 1.64933 1.15756 0
M  V30 2508 O 223.865 1.61278 1.94282 0
M  V30 2509 C 225.178 2.81314 -1.06222 0
M  V30 2510 C 226.726 2.95078 -1.04394 0
M  V30 2511 C 227.201 4.23252 -1.74991 0
M  V30 2512 N 228.692 4.3015 -1.71829 0
M  V30 2513 C 229.427 5.28127 -2.23315 0
M  V30 2514 N 228.923 6.32293 -2.83156 0
M  V30 2515 N 230.716 5.19882 -2.13726 0
M  V30 2516 H 222.867 1.3516 -1.63846 0
M  V30 2517 H 225.13 0.650174 -0.689912 0
M  V30 2518 H 224.836 2.80823 -2.11734 0
M  V30 2519 H 224.71 3.72012 -0.62344 0
M  V30 2520 H 227.097 2.951 0.0028244 0
M  V30 2521 H 227.178 2.05627 -1.52155 0
M  V30 2522 H 226.822 4.2399 -2.79633 0
M  V30 2523 H 226.752 5.11626 -1.24685 0
M  V30 2524 H 229.243 3.55499 -1.28175 0
M  V30 2525 H 229.556 7.03398 -3.20079 0
M  V30 2526 H 227.901 6.32873 -2.87223 0
M  V30 2527 H 231.092 4.37423 -1.66669 0
M  V30 2528 H 231.265 5.96077 -2.54158 0
M  V30 2529 N 224.671 0.411399 1.52136 0
M  V30 2530 C 225.899 -0.163076 2.06256 0
M  V30 2531 C 226.314 -1.3867 1.28125 0
M  V30 2532 O 225.671 -1.79423 0.333721 0
M  V30 2533 C 225.722 -0.511252 3.57867 0
M  V30 2534 O 225.443 0.66378 4.33042 0
M  V30 2535 C 226.944 -1.13921 4.28412 0
M  V30 2536 H 224.164 -0.0193897 0.67072 0
M  V30 2537 H 226.708 0.583007 1.96013 0
M  V30 2538 H 224.863 -1.20723 3.6811 0
M  V30 2539 H 225.277 0.372601 5.23175 0
M  V30 2540 H 226.751 -1.33302 5.35663 0
M  V30 2541 H 227.228 -2.11296 3.85033 0
M  V30 2542 H 227.834 -0.483373 4.22544 0
M  V30 2543 N 226.149 -1.5696 0.141893 0
M  V30 2544 C 227.079 -2.19516 -0.795936 0
M  V30 2545 C 228.06 -1.14187 -1.26077 0
M  V30 2546 O 229.245 -1.42511 -1.31925 0
M  V30 2547 C 226.375 -2.81272 -2.03723 0
M  V30 2548 C 225.329 -3.92384 -1.70936 0
M  V30 2549 C 224.655 -4.41052 -3.02287 0
M  V30 2550 C 225.955 -5.13403 -0.959954 0
M  V30 2551 H 227.649 -2.98138 -0.274596 0
M  V30 2552 H 225.195 -1.43406 -0.130636 0
M  V30 2553 H 227.148 -3.237 -2.69808 0
M  V30 2554 H 225.872 -1.99973 -2.58221 0
M  V30 2555 H 224.531 -3.50566 -1.07232 0
M  V30 2556 H 224.179 -3.56582 -3.54765 0
M  V30 2557 H 223.879 -5.15993 -2.81114 0
M  V30 2558 H 225.403 -4.86146 -3.69451 0
M  V30 2559 H 226.817 -5.52706 -1.52279 0
M  V30 2560 H 225.214 -5.94073 -0.848357 0
M  V30 2561 H 226.284 -4.84875 0.0492434 0
M  V30 2562 N 227.627 0.131896 -1.57047 0
M  V30 2563 C 228.557 1.16384 -2.02428 0
M  V30 2564 C 229.538 1.43936 -0.90644 0
M  V30 2565 O 230.723 1.54599 -1.17528 0
M  V30 2566 C 227.853 2.49328 -2.4177 0
M  V30 2567 C 226.807 2.36266 -3.56879 0
M  V30 2568 C 226.133 3.74057 -3.8208 0
M  V30 2569 C 227.433 1.834 -4.89042 0
M  V30 2570 H 229.127 0.786433 -2.88887 0
M  V30 2571 H 226.673 0.376855 -1.38981 0
M  V30 2572 H 228.626 3.21759 -2.7212 0
M  V30 2573 H 227.35 2.88934 -1.52266 0
M  V30 2574 H 226.009 1.66286 -3.26718 0
M  V30 2575 H 225.657 4.11125 -2.89803 0
M  V30 2576 H 225.357 3.66174 -4.59554 0
M  V30 2577 H 226.881 4.48012 -4.1487 0
M  V30 2578 H 228.295 2.45636 -5.18011 0
M  V30 2579 H 226.692 1.8637 -5.70426 0
M  V30 2580 H 227.762 0.790662 -4.7841 0
M  V30 2581 N 229.106 1.52395 0.401703 0
M  V30 2582 C 230.038 1.72505 1.50912 0
M  V30 2583 C 231.051 0.605468 1.51122 0
M  V30 2584 O 232.24 0.880828 1.55254 0
M  V30 2585 C 229.34 1.75711 2.89791 0
M  V30 2586 C 228.513 3.04824 3.1369 0
M  V30 2587 C 227.572 2.99743 4.32482 0
M  V30 2588 O 226.598 3.73635 4.29402 0
M  V30 2589 N 227.8 2.18047 5.37992 0
M  V30 2590 H 230.565 2.68049 1.34052 0
M  V30 2591 H 228.126 1.50724 0.591084 0
M  V30 2592 H 230.118 1.69834 3.6734 0
M  V30 2593 H 228.688 0.876092 3.00072 0
M  V30 2594 H 227.908 3.2429 2.24119 0
M  V30 2595 H 229.196 3.90221 3.26504 0
M  V30 2596 H 228.594 1.57456 5.43345 0
M  V30 2597 H 227.151 2.18021 6.14256 0
M  V30 2598 N 230.584 -0.659388 1.43143 0
M  V30 2599 C 231.832 -1.41654 1.44147 0
M  V30 2600 C 232.153 -1.94893 0.0645739 0
M  V30 2601 O 231.423 -1.74044 -0.899198 0
M  V30 2602 H 230.003 -0.525708 0.530697 0
M  V30 2603 H 232.665 -0.778097 1.78694 0
M  V30 2604 H 231.761 -2.26195 2.1504 0
M  V30 2605 N 232.062 -1.29571 -0.897171 0
M  V30 2606 C 233.339 -1.08365 -1.62839 0
M  V30 2607 C 233.719 0.371331 -2.07808 0
M  V30 2608 O 233.067 1.3606 -1.83576 0
M  V30 2609 C 233.277 -2.0735 -2.80726 0
M  V30 2610 C 234.625 -2.38406 -3.51351 0
M  V30 2611 O 235.649 -2.05564 -2.90898 0
M  V30 2612 O 234.508 -2.9453 -4.60341 0
M  V30 2613 H 231.602 -0.415345 -0.715134 0
M  V30 2614 H 234.148 -1.40952 -0.945018 0
M  V30 2615 H 232.92 -3.05339 -2.44711 0
M  V30 2616 H 232.543 -1.75507 -3.56767 0
M  V30 2617 N 233.54 1.10788 -1.12088 0
M  V30 2618 C 234.488 2.19111 -0.780587 0
M  V30 2619 C 235.482 1.67818 0.230961 0
M  V30 2620 O 236.688 1.79777 0.0895427 0
M  V30 2621 H 233.063 0.714477 -0.234578 0
M  V30 2622 H 235.034 2.45055 -1.70266 0
M  V30 2623 C 233.783 3.46818 -0.24747 0
M  V30 2624 H 233.106 3.86646 -1.01712 0
M  V30 2625 H 234.546 4.23973 -0.0476291 0
M  V30 2626 C 233.005 3.20968 1.02378 0
M  V30 2627 O 233.535 3.42298 2.10226 0
M  V30 2628 N 231.741 2.74658 0.949271 0
M  V30 2629 H 231.288 2.57501 0.0715173 0
M  V30 2630 H 231.246 2.57739 1.80049 0
M  V30 2631 N 235.018 0.912232 1.28515 0
M  V30 2632 C 236.243 0.559774 1.99703 0
M  V30 2633 C 236.668 -0.851393 1.67729 0
M  V30 2634 O 236.026 -1.56875 0.908834 0
M  V30 2635 C 236.074 0.773874 3.52198 0
M  V30 2636 O 235.178 -0.167842 4.12058 0
M  V30 2637 H 234.519 0.21723 0.627461 0
M  V30 2638 H 237.049 1.22725 1.63706 0
M  V30 2639 H 237.059 0.683386 4.02236 0
M  V30 2640 H 235.734 1.80261 3.74805 0
M  V30 2641 H 234.311 -0.0287509 3.72889 0
M  V30 2642 N 236.496 -1.42363 0.676048 0
M  V30 2643 C 237.444 -2.32596 -0.0131507 0
M  V30 2644 C 238.438 -1.49891 -0.789238 0
M  V30 2645 O 239.644 -1.65955 -0.697061 0
M  V30 2646 H 236.019 -0.751647 -0.0230481 0
M  V30 2647 H 237.99 -2.88421 0.765243 0
M  V30 2648 C 236.739 -3.34479 -0.949702 0
M  V30 2649 H 236.062 -3.98158 -0.361938 0
M  V30 2650 H 237.502 -4.00199 -1.4006 0
M  V30 2651 C 235.961 -2.66838 -2.05667 0
M  V30 2652 O 236.491 -2.50124 -3.14326 0
M  V30 2653 N 234.697 -2.25843 -1.82875 0
M  V30 2654 H 234.244 -2.39637 -0.945085 0
M  V30 2655 H 234.202 -1.80918 -2.5713 0
M  V30 2656 N 237.974 -0.419461 -1.51915 0
M  V30 2657 C 238.904 0.391813 -2.30189 0
M  V30 2658 C 239.885 1.03699 -1.34836 0
M  V30 2659 O 241.07 1.04403 -1.63748 0
M  V30 2660 C 238.2 1.50312 -3.13087 0
M  V30 2661 C 237.154 0.9824 -4.16573 0
M  V30 2662 C 236.48 2.18809 -4.8788 0
M  V30 2663 C 237.78 0.0292356 -5.22292 0
M  V30 2664 H 239.474 -0.26135 -2.98257 0
M  V30 2665 H 237.02 -0.127134 -1.43438 0
M  V30 2666 H 238.973 2.07773 -3.66617 0
M  V30 2667 H 237.697 2.18431 -2.42807 0
M  V30 2668 H 236.356 0.430119 -3.64068 0
M  V30 2669 H 236.004 2.85507 -4.14119 0
M  V30 2670 H 235.704 1.84615 -5.57845 0
M  V30 2671 H 237.228 2.76858 -5.44226 0
M  V30 2672 H 238.642 0.512976 -5.71 0
M  V30 2673 H 237.039 -0.2244 -5.9968 0
M  V30 2674 H 238.109 -0.912931 -4.76228 0
M  V30 2675 N 239.452 1.56882 -0.150215 0
M  V30 2676 C 240.415 2.1573 0.774157 0
M  V30 2677 C 241.415 1.0999 1.17298 0
M  V30 2678 O 242.605 1.35613 1.09338 0
M  V30 2679 C 239.737 2.72302 2.05096 0
M  V30 2680 H 240.93 2.98752 0.262201 0
M  V30 2681 H 238.483 1.55985 0.099248 0
M  V30 2682 H 239.218 1.92956 2.6065 0
M  V30 2683 H 239.003 3.49665 1.77416 0
M  V30 2684 H 240.493 3.17632 2.71109 0
M  V30 2685 N 240.93 -0.123565 1.57115 0
M  V30 2686 C 242.16 -0.845233 1.88519 0
M  V30 2687 C 242.568 -1.74168 0.739064 0
M  V30 2688 O 241.911 -1.81244 -0.299355 0
M  V30 2689 C 241.973 -1.73452 3.14888 0
M  V30 2690 C 241.637 -1.01285 4.45635 0
M  V30 2691 C 242.634 -0.355774 5.18681 0
M  V30 2692 C 240.319 -0.99538 4.92339 0
M  V30 2693 C 242.313 0.309114 6.3665 0
M  V30 2694 C 240 -0.32669 6.10226 0
M  V30 2695 C 240.998 0.324406 6.82229 0
M  V30 2696 O 240.686 0.982437 7.97874 0
M  V30 2697 H 240.418 -0.248534 0.628655 0
M  V30 2698 H 242.972 -0.113907 2.05084 0
M  V30 2699 H 241.202 -2.50737 2.94394 0
M  V30 2700 H 242.891 -2.33021 3.32349 0
M  V30 2701 H 243.657 -0.360918 4.83655 0
M  V30 2702 H 239.536 -1.49159 4.36202 0
M  V30 2703 H 243.08 0.8179 6.92789 0
M  V30 2704 H 238.977 -0.319294 6.4471 0
M  V30 2705 H 239.745 0.886454 8.13686 0
M  V30 2706 N 242.408 -1.52605 -0.393616 0
M  V30 2707 C 243.633 -1.71592 -1.16495 0
M  V30 2708 C 244.058 -0.43133 -1.83088 0
M  V30 2709 O 243.416 0.612523 -1.7064 0
M  V30 2710 C 243.464 -2.86318 -2.19213 0
M  V30 2711 O 242.568 -2.52969 -3.257 0
M  V30 2712 H 241.909 -0.570734 -0.33935 0
M  V30 2713 H 244.439 -1.99377 -0.459324 0
M  V30 2714 H 244.449 -3.1168 -2.63286 0
M  V30 2715 H 243.124 -3.79511 -1.7013 0
M  V30 2716 H 241.701 -2.38332 -2.86797 0
M  V30 2717 N 243.887 0.651787 -1.4349 0
M  V30 2718 C 245.127 1.42345 -1.46688 0
M  V30 2719 C 245.491 1.91793 -0.0891023 0
M  V30 2720 O 246.692 2.688 0.00423594 0
M  V30 2721 C 244.963 2.57221 -2.48137 0
M  V30 2722 S 246.522 3.45725 -2.70221 0
M  V30 2723 H 243.34 0.485878 -0.51908 0
M  V30 2724 H 245.942 0.756578 -1.80267 0
M  V30 2725 H 244.646 2.1917 -3.46976 0
M  V30 2726 H 244.177 3.28757 -2.16061 0
M  V30 2727 H 246.192 4.53996 -2.00255 0
M  V30 2728 N 245.365 1.30045 0.890287 0
M  V30 2729 C 246.295 1.18541 2.01172 0
M  V30 2730 C 247.276 0.0773356 1.69924 0
M  V30 2731 O 248.461 0.25845 1.92473 0
M  V30 2732 C 245.591 0.870941 3.36202 0
M  V30 2733 C 244.545 1.93637 3.81692 0
M  V30 2734 C 243.871 1.475 5.13953 0
M  V30 2735 C 245.171 3.34666 4.00994 0
M  V30 2736 H 246.865 2.12359 2.11054 0
M  V30 2737 H 244.411 1.02238 1.01407 0
M  V30 2738 H 246.364 0.777141 4.14172 0
M  V30 2739 H 245.088 -0.102926 3.26438 0
M  V30 2740 H 243.747 2.01972 3.05946 0
M  V30 2741 H 243.395 0.489551 5.00612 0
M  V30 2742 H 243.095 2.1876 5.4536 0
M  V30 2743 H 244.619 1.39489 5.94454 0
M  V30 2744 H 246.033 3.2912 4.69417 0
M  V30 2745 H 244.43 4.03966 4.43769 0
M  V30 2746 H 245.5 3.76949 3.05021 0
M  V30 2747 N 246.843 -1.10192 1.12674 0
M  V30 2748 C 248.09 -1.82205 0.883606 0
M  V30 2749 C 248.418 -1.8532 -0.590492 0
M  V30 2750 O 247.673 -1.31137 -1.45264 0
M  V30 2751 C 247.972 -3.28552 1.4067 0
M  V30 2752 C 247.638 -3.45582 2.89627 0
M  V30 2753 C 246.3 -3.49937 3.30299 0
M  V30 2754 C 248.652 -3.50768 3.85501 0
M  V30 2755 C 245.98 -3.57049 4.65546 0
M  V30 2756 C 248.332 -3.59414 5.20581 0
M  V30 2757 C 246.996 -3.62034 5.60792 0
M  V30 2758 H 246.266 -0.666735 0.323334 0
M  V30 2759 H 248.913 -1.29868 1.40736 0
M  V30 2760 H 247.218 -3.83473 0.80347 0
M  V30 2761 H 248.915 -3.82788 1.19475 0
M  V30 2762 H 245.505 -3.42871 2.57172 0
M  V30 2763 H 249.689 -3.46651 3.55171 0
M  V30 2764 H 244.945 -3.57361 4.96088 0
M  V30 2765 H 249.119 -3.62371 5.94693 0
M  V30 2766 H 246.746 -3.67298 6.6558 0
M  V30 2767 N 248.321 -0.919034 -1.28029 0
M  V30 2768 C 249.568 -0.554934 -1.94748 0
M  V30 2769 C 249.896 0.90231 -1.72304 0
M  V30 2770 O 249.151 1.65767 -1.04018 0
M  V30 2771 C 249.45 -0.816855 -3.4794 0
M  V30 2772 C 249.116 -2.25448 -3.90492 0
M  V30 2773 C 247.778 -2.64752 -4.01821 0
M  V30 2774 C 250.13 -3.18977 -4.12193 0
M  V30 2775 C 247.458 -3.96727 -4.32232 0
M  V30 2776 C 249.81 -4.50523 -4.44086 0
M  V30 2777 C 248.474 -4.89673 -4.53626 0
M  V30 2778 H 247.744 -0.203065 -0.712633 0
M  V30 2779 H 250.391 -1.16136 -1.52265 0
M  V30 2780 H 248.696 -0.127677 -3.91592 0
M  V30 2781 H 250.393 -0.514238 -3.97689 0
M  V30 2782 H 246.983 -1.93952 -3.82205 0
M  V30 2783 H 251.167 -2.89817 -4.02889 0
M  V30 2784 H 246.423 -4.26754 -4.37825 0
M  V30 2785 H 250.597 -5.23005 -4.59825 0
M  V30 2786 H 248.224 -5.91969 -4.76946 0
M  V30 2787 N 249.799 1.42003 -0.683588 0
M  V30 2788 C 251.048 2.00638 -0.206681 0
M  V30 2789 C 251.361 1.5472 1.19671 0
M  V30 2790 O 252.567 2.05833 1.77045 0
M  V30 2791 C 251.023 3.58487 -0.318632 0
M  V30 2792 C 250.631 4.1339 -1.72663 0
M  V30 2793 C 252.375 4.24384 0.0991141 0
M  V30 2794 C 250.282 5.63633 -1.79087 0
M  V30 2795 H 249.212 0.750408 -0.0735107 0
M  V30 2796 H 251.863 1.62624 -0.850048 0
M  V30 2797 H 250.245 3.94047 0.392781 0
M  V30 2798 H 251.419 3.89273 -2.46583 0
M  V30 2799 H 249.734 3.59976 -2.09299 0
M  V30 2800 H 252.331 5.34652 0.0713833 0
M  V30 2801 H 252.674 4.00505 1.13586 0
M  V30 2802 H 253.207 3.93816 -0.561599 0
M  V30 2803 H 249.946 5.92323 -2.80774 0
M  V30 2804 H 249.466 5.89714 -1.09535 0
M  V30 2805 H 251.145 6.28201 -1.5483 0
M  V30 2806 N 251.277 0.427512 1.51691 0
M  V30 2807 C 252.502 -0.143601 2.06902 0
M  V30 2808 C 252.927 -1.36536 1.29382 0
M  V30 2809 O 252.285 -1.78289 0.329043 0
M  V30 2810 C 252.333 -0.454207 3.57728 0
M  V30 2811 O 251.437 -1.54228 3.82475 0
M  V30 2812 H 250.778 -0.00617128 0.663971 0
M  V30 2813 H 253.308 0.606014 1.95419 0
M  V30 2814 H 253.318 -0.707525 4.01818 0
M  V30 2815 H 251.993 0.438812 4.13579 0
M  V30 2816 H 250.57 -1.2797 3.50254 0
M  V30 2817 N 252.755 -1.56801 0.158532 0
M  V30 2818 C 253.985 -2.00568 -0.495583 0
M  V30 2819 C 254.393 -1.03774 -1.58201 0
M  V30 2820 O 253.736 -0.0285797 -1.83678 0
M  V30 2821 C 253.798 -3.40768 -1.14532 0
M  V30 2822 C 253.462 -4.56553 -0.202101 0
M  V30 2823 C 254.459 -5.16714 0.574675 0
M  V30 2824 C 252.144 -5.02197 -0.101648 0
M  V30 2825 C 254.138 -6.20939 1.43924 0
M  V30 2826 C 251.825 -6.06274 0.766508 0
M  V30 2827 C 252.823 -6.65515 1.53555 0
M  V30 2828 O 252.511 -7.67575 2.38922 0
M  V30 2829 H 252.243 -0.662893 -0.13247 0
M  V30 2830 H 254.797 -2.03829 0.253559 0
M  V30 2831 H 253.027 -3.34381 -1.94233 0
M  V30 2832 H 254.716 -3.6857 -1.70033 0
M  V30 2833 H 255.482 -4.82341 0.507167 0
M  V30 2834 H 251.361 -4.55807 -0.689994 0
M  V30 2835 H 254.905 -6.67107 2.03996 0
M  V30 2836 H 250.802 -6.40073 0.835266 0
M  V30 2837 H 251.57 -7.84844 2.32296 0
M  V30 2838 N 254.233 0.115231 -1.57178 0
M  V30 2839 C 255.481 0.820727 -1.84685 0
M  V30 2840 C 255.802 1.80237 -0.744279 0
M  V30 2841 O 255.072 1.94529 0.231375 0
M  V30 2842 H 253.652 0.306084 -0.681411 0
M  V30 2843 H 256.314 0.101656 -1.94635 0
M  V30 2844 H 255.41 1.36366 -2.80733 0
M  V30 2845 N 255.711 1.52812 0.385517 0
M  V30 2846 C 256.958 1.68026 1.1302 0
M  V30 2847 C 257.286 0.421934 1.89868 0
M  V30 2848 O 256.541 -0.595749 1.86412 0
M  V30 2849 C 256.84 2.86856 2.13187 0
M  V30 2850 C 256.506 4.24159 1.5297 0
M  V30 2851 C 255.168 4.61501 1.36274 0
M  V30 2852 C 257.52 5.09627 1.09223 0
M  V30 2853 C 254.848 5.81966 0.743837 0
M  V30 2854 C 257.2 6.30719 0.487411 0
M  V30 2855 C 255.864 6.6679 0.307777 0
M  V30 2856 H 255.134 0.614849 0.413571 0
M  V30 2857 H 257.781 1.86962 0.414405 0
M  V30 2858 H 256.086 2.6235 2.90998 0
M  V30 2859 H 257.783 2.95821 2.70722 0
M  V30 2860 H 254.373 3.94746 1.66954 0
M  V30 2861 H 258.557 4.81343 1.20922 0
M  V30 2862 H 253.813 6.08519 0.592891 0
M  V30 2863 H 257.987 6.96259 0.140143 0
M  V30 2864 H 255.614 7.60001 -0.173879 0
M  V30 2865 N 257.189 -0.644168 1.43834 0
M  V30 2866 C 258.121 -1.76955 1.45669 0
M  V30 2867 C 259.134 -1.58956 0.351666 0
M  V30 2868 O 260.323 -1.6751 0.616644 0
M  V30 2869 C 257.423 -3.14507 1.26248 0
M  V30 2870 C 256.596 -3.59083 2.49757 0
M  V30 2871 C 255.655 -4.75467 2.25427 0
M  V30 2872 O 254.681 -4.84444 2.98836 0
M  V30 2873 N 255.883 -5.66289 1.27661 0
M  V30 2874 H 258.648 -1.75856 2.42682 0
M  V30 2875 H 256.209 -0.828312 1.39106 0
M  V30 2876 H 258.201 -3.90067 1.0784 0
M  V30 2877 H 256.771 -3.10325 0.376478 0
M  V30 2878 H 255.991 -2.7387 2.8353 0
M  V30 2879 H 257.279 -3.85613 3.31934 0
M  V30 2880 H 256.677 -5.61718 0.670064 0
M  V30 2881 H 255.234 -6.41533 1.15234 0
M  V30 2882 N 258.668 -1.30515 -0.883378 0
M  V30 2883 C 259.917 -1.18795 -1.63005 0
M  V30 2884 C 260.23 0.255923 -1.93919 0
M  V30 2885 O 261.436 0.494654 -2.66956 0
M  V30 2886 C 259.892 -2.07878 -2.93794 0
M  V30 2887 C 259.5 -3.57184 -2.70414 0
M  V30 2888 C 261.244 -2.04924 -3.71761 0
M  V30 2889 C 259.151 -4.38317 -3.97029 0
M  V30 2890 H 258.081 -0.441031 -0.611562 0
M  V30 2891 H 260.732 -1.55275 -0.977854 0
M  V30 2892 H 259.114 -1.64283 -3.60315 0
M  V30 2893 H 260.288 -4.08937 -2.12384 0
M  V30 2894 H 258.603 -3.61976 -2.0582 0
M  V30 2895 H 261.2 -2.62792 -4.65665 0
M  V30 2896 H 261.543 -1.0331 -4.03277 0
M  V30 2897 H 262.076 -2.46649 -3.12104 0
M  V30 2898 H 258.815 -5.40632 -3.70671 0
M  V30 2899 H 258.335 -3.91326 -4.54559 0
M  V30 2900 H 260.014 -4.49834 -4.65036 0
M  V30 2901 N 260.146 1.09593 -1.13257 0
M  V30 2902 C 261.076 2.18214 -0.830946 0
M  V30 2903 C 262.057 1.68812 0.208966 0
M  V30 2904 O 263.242 1.9408 0.0682666 0
M  V30 2905 C 260.372 3.46051 -0.294296 0
M  V30 2906 C 259.326 4.08778 -1.26826 0
M  V30 2907 C 258.652 5.31419 -0.591449 0
M  V30 2908 C 259.952 4.51476 -2.62615 0
M  V30 2909 H 261.646 2.43703 -1.73923 0
M  V30 2910 H 259.192 1.17128 -0.837675 0
M  V30 2911 H 261.145 4.2134 -0.0709606 0
M  V30 2912 H 259.869 3.20079 0.649366 0
M  V30 2913 H 258.528 3.35505 -1.47756 0
M  V30 2914 H 258.176 5.01727 0.357633 0
M  V30 2915 H 257.876 5.74341 -1.24123 0
M  V30 2916 H 259.4 6.09433 -0.377355 0
M  V30 2917 H 260.814 5.17999 -2.45663 0
M  V30 2918 H 259.211 5.05277 -3.23752 0
M  V30 2919 H 260.281 3.63962 -3.20406 0
M  V30 2920 N 261.624 0.925811 1.2754 0
M  V30 2921 C 262.873 0.561084 1.93739 0
M  V30 2922 C 263.186 -0.901685 1.73577 0
M  V30 2923 O 264.392 -1.37511 2.34101 0
M  V30 2924 C 262.848 0.952668 3.47062 0
M  V30 2925 C 262.456 2.43599 3.75983 0
M  V30 2926 C 264.2 0.659103 4.19352 0
M  V30 2927 C 262.107 2.76707 5.22673 0
M  V30 2928 H 261.037 0.206122 0.725279 0
M  V30 2929 H 263.688 1.12637 1.44863 0
M  V30 2930 H 262.07 0.316053 3.94737 0
M  V30 2931 H 263.244 3.12035 3.39073 0
M  V30 2932 H 261.559 2.70125 3.16893 0
M  V30 2933 H 264.156 0.882985 5.27359 0
M  V30 2934 H 264.499 -0.403607 4.14339 0
M  V30 2935 H 265.032 1.25473 3.77494 0
M  V30 2936 H 261.771 3.8188 5.32774 0
M  V30 2937 H 261.291 2.12919 5.60737 0
M  V30 2938 H 262.97 2.6435 5.90532 0
M  V30 2939 N 263.102 -1.41638 0.69111 0
M  V30 2940 C 264.032 -2.3347 0.037248 0
M  V30 2941 C 265.013 -1.51575 -0.771947 0
M  V30 2942 O 266.198 -1.80126 -0.72582 0
M  V30 2943 C 263.328 -3.35354 -0.903064 0
M  V30 2944 C 262.282 -4.27526 -0.201288 0
M  V30 2945 C 261.608 -5.19747 -1.25565 0
M  V30 2946 C 262.908 -5.13959 0.929689 0
M  V30 2947 H 264.602 -2.88397 0.804227 0
M  V30 2948 H 262.148 -1.38669 0.388189 0
M  V30 2949 H 264.101 -3.98519 -1.36969 0
M  V30 2950 H 262.825 -2.78767 -1.70166 0
M  V30 2951 H 261.484 -3.65779 0.245265 0
M  V30 2952 H 261.132 -4.59479 -2.04666 0
M  V30 2953 H 260.832 -5.8225 -0.791128 0
M  V30 2954 H 262.356 -5.85789 -1.72288 0
M  V30 2955 H 263.77 -5.70718 0.543546 0
M  V30 2956 H 262.167 -5.85379 1.32103 0
M  V30 2957 H 263.237 -4.51389 1.77133 0
M  V30 2958 N 264.58 -0.43555 -1.51462 0
M  V30 2959 C 265.829 0.133007 -2.01261 0
M  V30 2960 C 266.142 1.43942 -1.32439 0
M  V30 2961 O 267.348 2.09081 -1.73198 0
M  V30 2962 C 265.804 0.287581 -3.58749 0
M  V30 2963 C 265.412 -1.00829 -4.36506 0
M  V30 2964 C 267.156 0.810004 -4.167 0
M  V30 2965 C 265.063 -0.819454 -5.85695 0
M  V30 2966 H 263.993 0.0534822 -0.752101 0
M  V30 2967 H 266.644 -0.565038 -1.74584 0
M  V30 2968 H 265.026 1.04859 -3.81865 0
M  V30 2969 H 266.2 -1.77749 -4.25138 0
M  V30 2970 H 264.515 -1.45911 -3.89999 0
M  V30 2971 H 267.112 0.967743 -5.2587 0
M  V30 2972 H 267.455 1.79196 -3.75758 0
M  V30 2973 H 267.988 0.107357 -3.97655 0
M  V30 2974 H 264.727 -1.77374 -6.31046 0
M  V30 2975 H 264.247 -0.0900208 -5.99732 0
M  V30 2976 H 265.926 -0.471949 -6.45276 0
M  V30 2977 N 266.058 1.56714 -0.166846 0
M  V30 2978 C 267.305 1.96747 0.479252 0
M  V30 2979 C 267.633 1.05263 1.63554 0
M  V30 2980 O 266.888 0.0858098 1.95512 0
M  V30 2981 C 267.187 3.42889 1.00806 0
M  V30 2982 C 266.853 4.50889 -0.0318574 0
M  V30 2983 C 265.515 4.8015 -0.317675 0
M  V30 2984 C 267.867 5.15949 -0.737956 0
M  V30 2985 C 265.195 5.71772 -1.31506 0
M  V30 2986 C 267.547 6.08647 -1.72429 0
M  V30 2987 C 266.211 6.36277 -2.0176 0
M  V30 2988 H 265.481 0.719949 0.175371 0
M  V30 2989 H 268.128 1.89756 -0.257864 0
M  V30 2990 H 266.433 3.4681 1.82291 0
M  V30 2991 H 268.13 3.71203 1.51689 0
M  V30 2992 H 264.72 4.28128 0.201088 0
M  V30 2993 H 268.904 4.93458 -0.530351 0
M  V30 2994 H 264.16 5.91465 -1.54853 0
M  V30 2995 H 268.334 6.58129 -2.27682 0
M  V30 2996 H 265.961 7.07075 -2.79194 0
M  V30 2997 N 267.536 -0.106894 1.57237 0
M  V30 2998 C 268.761 -0.830287 1.90055 0
M  V30 2999 C 269.186 -1.72064 0.75998 0
M  V30 3000 O 268.544 -1.78982 -0.288991 0
M  V30 3001 C 268.592 -1.6295 3.21683 0
M  V30 3002 O 267.696 -2.73748 3.08441 0
M  V30 3003 H 267.037 -0.228855 0.623315 0
M  V30 3004 H 269.567 -0.085658 2.04421 0
M  V30 3005 H 269.577 -2.01621 3.54701 0
M  V30 3006 H 268.252 -0.975989 4.04286 0
M  V30 3007 H 266.829 -2.38192 2.86913 0
M  V30 3008 N 269.014 -1.53014 -0.377408 0
M  V30 3009 C 269.977 -1.77957 -1.44444 0
M  V30 3010 C 270.977 -0.649763 -1.47087 0
M  V30 3011 O 272.167 -0.917897 -1.48055 0
M  V30 3012 C 269.299 -1.89089 -2.83651 0
M  V30 3013 H 270.492 -2.73243 -1.23606 0
M  V30 3014 H 268.045 -1.43912 -0.609844 0
M  V30 3015 H 268.78 -0.958293 -3.09818 0
M  V30 3016 H 268.565 -2.71254 -2.83132 0
M  V30 3017 H 270.055 -2.1002 -3.60945 0
M  V30 3018 N 270.492 0.636531 -1.44174 0
M  V30 3019 C 271.739 1.39619 -1.46672 0
M  V30 3020 C 272.067 1.94257 -0.0972691 0
M  V30 3021 O 271.322 1.73768 0.900175 0
M  V30 3022 C 271.621 2.58309 -2.47005 0
M  V30 3023 C 271.287 2.21992 -3.92467 0
M  V30 3024 C 269.949 2.118 -4.32081 0
M  V30 3025 C 272.301 1.9321 -4.84065 0
M  V30 3026 C 269.629 1.71007 -5.61225 0
M  V30 3027 C 271.981 1.53911 -6.13591 0
M  V30 3028 C 270.645 1.42257 -6.52165 0
M  V30 3029 H 269.915 0.510902 -0.536712 0
M  V30 3030 H 272.562 0.722328 -1.77355 0
M  V30 3031 H 270.867 3.30903 -2.09786 0
M  V30 3032 H 272.564 3.16533 -2.46186 0
M  V30 3033 H 269.154 2.30841 -3.61124 0
M  V30 3034 H 273.338 1.99997 -4.54219 0
M  V30 3035 H 268.594 1.60583 -5.89935 0
M  V30 3036 H 272.768 1.30677 -6.8403 0
M  V30 3037 H 270.395 1.10419 -7.52138 0
M  V30 3038 N 271.97 1.30982 0.876444 0
M  V30 3039 C 273.195 1.23373 1.66715 0
M  V30 3040 C 273.62 -0.19885 1.87046 0
M  V30 3041 O 272.978 -1.1427 1.40756 0
M  V30 3042 C 273.026 1.97644 3.01611 0
M  V30 3043 O 272.13 1.30935 3.91062 0
M  V30 3044 H 271.471 0.426279 0.509099 0
M  V30 3045 H 274.001 1.72944 1.09323 0
M  V30 3046 H 274.011 2.06992 3.51594 0
M  V30 3047 H 272.686 3.01829 2.86133 0
M  V30 3048 H 271.263 1.29996 3.49507 0
M  V30 3049 N 273.449 -1.08991 1.13837 0
M  V30 3050 C 274.359 -2.19301 0.833333 0
M  V30 3051 C 275.375 -1.73026 -0.183847 0
M  V30 3052 O 276.551 -2.01395 -0.0138092 0
M  V30 3053 C 273.616 -3.45323 0.308651 0
M  V30 3054 C 272.677 -4.06255 1.38764 0
M  V30 3055 C 271.91 -5.26262 0.887896 0
M  V30 3056 O 272.133 -5.69747 -0.27287 0
M  V30 3057 O 271.067 -5.78435 1.66421 0
M  V30 3058 H 274.893 -2.47854 1.75506 0
M  V30 3059 H 272.478 -1.18012 0.916166 0
M  V30 3060 H 274.36 -4.21394 0.0216739 0
M  V30 3061 H 273.035 -3.18362 -0.585431 0
M  V30 3062 H 271.942 -3.318 1.72799 0
M  V30 3063 H 273.275 -4.37452 2.25602 0
M  V30 3064 N 274.927 -0.932562 -1.27047 0
M  V30 3065 C 275.875 -0.42603 -2.28665 0
M  V30 3066 C 276.869 0.49219 -1.62092 0
M  V30 3067 O 278.075 0.371355 -1.76128 0
M  V30 3068 H 274.45 -0.119213 -0.742491 0
M  V30 3069 H 276.421 -1.29579 -2.68797 0
M  V30 3070 C 275.17 0.301426 -3.46391 0
M  V30 3071 H 274.493 -0.39595 -3.97834 0
M  V30 3072 H 275.933 0.6202 -4.1944 0
M  V30 3073 C 274.392 1.51616 -3.00856 0
M  V30 3074 O 274.922 2.61476 -3.04948 0
M  V30 3075 N 273.128 1.36969 -2.56296 0
M  V30 3076 H 272.675 0.475873 -2.53166 0
M  V30 3077 H 272.633 2.18368 -2.26192 0
M  V30 3078 N 276.405 1.4127 -0.698611 0
M  V30 3079 C 277.353 2.32588 -0.023855 0
M  V30 3080 C 278.347 1.51128 0.765292 0
M  V30 3081 O 279.553 1.67043 0.670571 0
M  V30 3082 H 275.928 0.751918 0.0110871 0
M  V30 3083 H 277.899 2.87167 -0.811031 0
M  V30 3084 C 276.648 3.35947 0.896369 0
M  V30 3085 H 275.971 3.98684 0.298548 0
M  V30 3086 H 277.411 4.02376 1.33676 0
M  V30 3087 C 275.87 2.70076 2.01396 0
M  V30 3088 O 276.4 2.55093 3.10307 0
M  V30 3089 N 274.606 2.28724 1.79259 0
M  V30 3090 H 274.153 2.4111 0.906841 0
M  V30 3091 H 274.111 1.84986 2.54219 0
M  V30 3092 N 277.883 0.443576 1.51229 0
M  V30 3093 C 278.793 -0.370721 2.31652 0
M  V30 3094 C 279.809 -1.02186 1.40833 0
M  V30 3095 O 280.985 -1.01586 1.73903 0
M  V30 3096 C 278.05 -1.45376 3.14749 0
M  V30 3097 C 277.111 -0.822099 4.21355 0
M  V30 3098 C 276.344 -1.85353 5.0048 0
M  V30 3099 O 276.567 -3.07656 4.80316 0
M  V30 3100 O 275.501 -1.4406 5.84406 0
M  V30 3101 H 279.327 0.286002 3.0235 0
M  V30 3102 H 276.912 0.20598 1.47973 0
M  V30 3103 H 278.794 -2.08173 3.66391 0
M  V30 3104 H 277.469 -2.09445 2.46809 0
M  V30 3105 H 276.376 -0.155909 3.73775 0
M  V30 3106 H 277.709 -0.224797 4.91686 0
M  V30 3107 N 279.361 -1.56624 0.175154 0
M  V30 3108 C 280.586 -2.01813 -0.478137 0
M  V30 3109 C 281.011 -1.05457 -1.55757 0
M  V30 3110 O 280.369 -0.0347439 -1.81267 0
M  V30 3111 C 280.417 -3.45581 -1.02987 0
M  V30 3112 O 279.521 -3.52305 -2.14371 0
M  V30 3113 H 278.862 -0.65413 -0.114059 0
M  V30 3114 H 281.392 -2.02673 0.280173 0
M  V30 3115 H 281.402 -3.84965 -1.35151 0
M  V30 3116 H 280.077 -4.1521 -0.239556 0
M  V30 3117 H 278.654 -3.24783 -1.83222 0
M  V30 3118 N 280.839 0.0985539 -1.57292 0
M  V30 3119 C 282.064 0.820196 -1.90493 0
M  V30 3120 C 282.489 1.71658 -0.769094 0
M  V30 3121 O 281.847 1.79133 0.279495 0
M  V30 3122 C 281.895 1.61242 -3.22542 0
M  V30 3123 O 280.999 2.72108 -3.09888 0
M  V30 3124 H 280.34 0.225547 -0.62452 0
M  V30 3125 H 282.87 0.0748159 -2.04463 0
M  V30 3126 H 282.88 1.99737 -3.55766 0
M  V30 3127 H 281.555 0.954535 -4.04798 0
M  V30 3128 H 280.132 2.36667 -2.88172 0
M  V30 3129 N 282.317 1.53212 0.369288 0
M  V30 3130 C 283.265 1.80054 1.47253 0
M  V30 3131 C 284.259 0.669456 1.55611 0
M  V30 3132 O 285.465 0.852328 1.58541 0
M  V30 3133 H 281.84 0.570034 0.490475 0
M  V30 3134 H 283.811 2.72403 1.21817 0
M  V30 3135 C 282.56 2.00403 2.84137 0
M  V30 3136 H 281.883 2.86876 2.78464 0
M  V30 3137 H 283.323 2.23164 3.60519 0
M  V30 3138 C 281.782 0.782081 3.27697 0
M  V30 3139 O 282.312 -0.0310205 4.01688 0
M  V30 3140 N 280.518 0.606573 2.84199 0
M  V30 3141 H 280.065 1.26939 2.24152 0
M  V30 3142 H 280.023 -0.20962 3.137 0
M  V30 3143 N 283.795 -0.628877 1.44509 0
M  V30 3144 C 284.743 -1.76193 1.51852 0
M  V30 3145 C 285.737 -1.64849 0.390042 0
M  V30 3146 O 286.943 -1.709 0.565082 0
M  V30 3147 H 283.318 -0.581728 0.476547 0
M  V30 3148 H 285.289 -1.67123 2.47209 0
M  V30 3149 C 284.038 -3.14533 1.48204 0
M  V30 3150 H 283.361 -3.23911 2.34354 0
M  V30 3151 H 284.801 -3.93701 1.57402 0
M  V30 3152 C 283.26 -3.36287 0.203142 0
M  V30 3153 O 283.79 -3.9509 -0.725745 0
M  V30 3154 N 281.996 -2.90408 0.105563 0
M  V30 3155 H 281.543 -2.42739 0.862301 0
M  V30 3156 H 281.501 -3.05339 -0.749371 0
M  V30 3157 N 285.273 -1.31445 -0.869486 0
M  V30 3158 C 286.684 -1.19042 -1.43826 0
M  V30 3159 C 287.035 0.202919 -1.95148 0
M  V30 3160 O 286.16 1.10071 -1.86315 0
M  V30 3161 C 286.755 -2.15499 -2.6143 0
M  V30 3162 C 285.314 -2.07028 -3.14351 0
M  V30 3163 C 284.461 -2.04701 -1.87063 0
M  V30 3164 H 287.412 -1.43489 -0.677984 0
M  V30 3165 H 287.433 -1.74488 -3.38134 0
M  V30 3166 H 286.945 -3.16899 -2.24046 0
M  V30 3167 H 285.046 -1.08825 -3.56354 0
M  V30 3168 H 285.159 -2.96157 -3.766 0
M  V30 3169 H 283.523 -1.49724 -2.06046 0
M  V30 3170 H 284.306 -3.07857 -1.51917 0
M  V30 3171 N 286.751 1.08385 -1.14413 0
M  V30 3172 C 287.976 1.85057 -0.936413 0
M  V30 3173 C 288.401 1.81055 0.509971 0
M  V30 3174 O 287.759 1.1958 1.36273 0
M  V30 3175 C 287.807 3.30505 -1.44217 0
M  V30 3176 O 286.911 4.07491 -0.634409 0
M  V30 3177 H 286.252 0.573425 -0.334784 0
M  V30 3178 H 288.782 1.36799 -1.52142 0
M  V30 3179 H 288.792 3.81348 -1.45043 0
M  V30 3180 H 287.467 3.32734 -2.49522 0
M  V30 3181 H 286.044 3.66368 -0.694902 0
M  V30 3182 N 288.23 0.939286 1.26551 0
M  V30 3183 C 289.455 0.602008 1.98471 0
M  V30 3184 C 289.88 -0.815624 1.69497 0
M  V30 3185 O 289.238 -1.54912 0.941905 0
M  V30 3186 C 289.286 0.848407 3.50477 0
M  V30 3187 O 288.39 -0.0804009 4.12322 0
M  V30 3188 H 287.731 0.23049 0.622712 0
M  V30 3189 H 290.261 1.2617 1.61066 0
M  V30 3190 H 290.271 0.768553 4.00696 0
M  V30 3191 H 288.946 1.88171 3.70897 0
M  V30 3192 H 287.523 0.0503508 3.72866 0
M  V30 3193 N 289.708 -1.40897 0.706093 0
M  V30 3194 C 290.957 -2.00284 0.238574 0
M  V30 3195 C 291.27 -1.56604 -1.17194 0
M  V30 3196 O 292.476 -2.08624 -1.73748 0
M  V30 3197 C 290.932 -3.57934 0.375623 0
M  V30 3198 C 290.54 -4.10591 1.79217 0
M  V30 3199 C 292.284 -4.24488 -0.0315857 0
M  V30 3200 C 290.191 -5.60712 1.88032 0
M  V30 3201 H 289.121 -0.749144 0.0854398 0
M  V30 3202 H 291.772 -1.61251 0.875813 0
M  V30 3203 H 290.154 -3.94622 -0.330042 0
M  V30 3204 H 291.328 -3.85301 2.52745 0
M  V30 3205 H 289.643 -3.56601 2.15 0
M  V30 3206 H 292.24 -5.34698 0.0136842 0
M  V30 3207 H 292.583 -4.02261 -1.072 0
M  V30 3208 H 293.116 -3.92873 0.624181 0
M  V30 3209 H 289.855 -5.87781 2.90161 0
M  V30 3210 H 289.375 -5.87896 1.18903 0
M  V30 3211 H 291.054 -6.25658 1.64805 0
M  V30 3212 N 291.186 -0.45159 -1.50991 0
M  V30 3213 C 292.149 0.341117 -2.26647 0
M  V30 3214 C 293.149 0.937422 -1.30649 0
M  V30 3215 O 294.339 0.809644 -1.54241 0
M  V30 3216 C 291.471 1.48398 -3.06905 0
M  V30 3217 H 292.664 -0.322117 -2.98165 0
M  V30 3218 H 290.217 -0.205122 -1.54948 0
M  V30 3219 H 290.952 2.18284 -2.39838 0
M  V30 3220 H 290.737 1.06241 -3.77432 0
M  V30 3221 H 292.227 2.04367 -3.64176 0
M  V30 3222 N 292.664 1.56529 -0.183458 0
M  V30 3223 C 293.889 2.02064 0.467428 0
M  V30 3224 C 294.314 1.06282 1.55196 0
M  V30 3225 O 293.672 0.0443565 1.81246 0
M  V30 3226 C 293.72 3.46122 1.01153 0
M  V30 3227 O 292.824 3.53437 2.12499 0
M  V30 3228 H 292.165 0.654726 0.110588 0
M  V30 3229 H 294.695 2.02521 -0.290917 0
M  V30 3230 H 294.705 3.85676 1.33108 0
M  V30 3231 H 293.38 4.15331 0.217533 0
M  V30 3232 H 291.957 3.2575 1.81497 0
M  V30 3233 N 294.142 -0.090211 1.57342 0
M  V30 3234 C 295.389 -0.792807 1.86335 0
M  V30 3235 C 295.717 -1.78494 0.772662 0
M  V30 3236 O 294.972 -1.94305 -0.233258 0
M  V30 3237 C 295.271 -1.55222 3.21933 0
M  V30 3238 C 294.937 -0.701765 4.45406 0
M  V30 3239 C 293.599 -0.467334 4.78925 0
M  V30 3240 C 295.951 -0.11086 5.21082 0
M  V30 3241 C 293.279 0.367785 5.85546 0
M  V30 3242 C 295.631 0.711609 6.28585 0
M  V30 3243 C 294.295 0.956086 6.60617 0
M  V30 3244 H 293.565 -0.290109 0.681849 0
M  V30 3245 H 296.212 -0.0541332 1.91423 0
M  V30 3246 H 294.517 -2.3626 3.12551 0
M  V30 3247 H 296.214 -2.10032 3.41595 0
M  V30 3248 H 292.804 -0.894598 4.1916 0
M  V30 3249 H 296.988 -0.279129 4.95514 0
M  V30 3250 H 292.244 0.566128 6.08773 0
M  V30 3251 H 296.418 1.17632 6.86393 0
M  V30 3252 H 294.045 1.60499 7.43064 0
M  V30 3253 N 295.62 -1.53406 -0.361157 0
M  V30 3254 C 296.55 -1.83136 -1.44857 0
M  V30 3255 C 297.531 -0.685174 -1.5569 0
M  V30 3256 O 298.716 -0.93544 -1.70186 0
M  V30 3257 C 295.846 -2.02522 -2.82138 0
M  V30 3258 C 294.8 -3.18302 -2.86126 0
M  V30 3259 C 294.126 -3.22989 -4.26125 0
M  V30 3260 C 295.426 -4.56796 -2.53248 0
M  V30 3261 H 297.12 -2.74201 -1.20226 0
M  V30 3262 H 294.666 -1.31938 -0.576922 0
M  V30 3263 H 296.619 -2.21904 -3.58241 0
M  V30 3264 H 295.343 -1.08172 -3.08166 0
M  V30 3265 H 294.002 -2.98747 -2.12475 0
M  V30 3266 H 293.65 -2.26267 -4.49235 0
M  V30 3267 H 293.35 -4.00781 -4.29708 0
M  V30 3268 H 294.874 -3.44559 -5.04094 0
M  V30 3269 H 296.288 -4.7631 -3.19064 0
M  V30 3270 H 294.685 -5.36862 -2.68141 0
M  V30 3271 H 295.755 -4.61606 -1.48484 0
M  V30 3272 N 297.098 0.621204 -1.44841 0
M  V30 3273 C 298.323 1.41244 -1.51871 0
M  V30 3274 C 298.748 1.87519 -0.147764 0
M  V30 3275 O 298.106 1.59334 0.865 0
M  V30 3276 C 298.154 2.60221 -2.49634 0
M  V30 3277 O 297.258 3.60395 -2.00473 0
M  V30 3278 H 296.599 0.42223 -0.512463 0
M  V30 3279 H 299.129 0.757305 -1.90069 0
M  V30 3280 H 299.139 3.0764 -2.67996 0
M  V30 3281 H 297.814 2.25887 -3.4921 0
M  V30 3282 H 296.391 3.19717 -1.91925 0
M  V30 3283 N 298.576 1.31904 0.862503 0
M  V30 3284 C 299.801 1.25135 1.65397 0
M  V30 3285 C 300.226 -0.179 1.87246 0
M  V30 3286 O 299.584 -1.1277 1.4196 0
M  V30 3287 C 299.632 2.00832 2.99498 0
M  V30 3288 O 298.736 1.35075 3.89652 0
M  V30 3289 H 298.077 0.431655 0.504549 0
M  V30 3290 H 300.607 1.74094 1.07483 0
M  V30 3291 H 300.617 2.10709 3.49379 0
M  V30 3292 H 299.292 3.04847 2.82916 0
M  V30 3293 H 297.869 1.33696 3.48109 0
M  V30 3294 N 300.054 -1.07777 1.14986 0
M  V30 3295 C 301.303 -1.79669 0.916617 0
M  V30 3296 C 301.616 -1.87474 -0.557917 0
M  V30 3297 O 302.822 -2.55845 -0.908617 0
M  V30 3298 C 301.278 -3.22848 1.59051 0
M  V30 3299 C 300.886 -3.23257 3.10176 0
M  V30 3300 C 302.63 -3.99379 1.43864 0
M  V30 3301 C 300.537 -4.61063 3.70372 0
M  V30 3302 H 299.467 -0.673349 0.33929 0
M  V30 3303 H 302.118 -1.21003 1.37951 0
M  V30 3304 H 300.5 -3.8168 1.0553 0
M  V30 3305 H 301.674 -2.74095 3.70417 0
M  V30 3306 H 299.989 -2.60222 3.25074 0
M  V30 3307 H 302.586 -5.0122 1.86232 0
M  V30 3308 H 302.929 -4.14511 0.385564 0
M  V30 3309 H 303.462 -3.47032 1.94457 0
M  V30 3310 H 300.201 -4.51135 4.7556 0
M  V30 3311 H 299.721 -5.1048 3.14913 0
M  V30 3312 H 301.4 -5.30034 3.71043 0
M  V30 3313 N 301.532 -0.945985 -1.26051 0
M  V30 3314 C 302.76 -0.613025 -1.9761 0
M  V30 3315 C 303.175 0.813035 -1.70397 0
M  V30 3316 O 302.532 1.54274 -0.974979 0
M  V30 3317 C 302.583 -0.85159 -3.51326 0
M  V30 3318 O 302.304 -2.22157 -3.77595 0
M  V30 3319 C 303.805 -0.529831 -4.40122 0
M  V30 3320 H 301.025 -0.230593 -0.630133 0
M  V30 3321 H 303.569 -1.268 -1.60443 0
M  V30 3322 H 301.724 -0.243151 -3.86636 0
M  V30 3323 H 302.138 -2.2852 -4.721 0
M  V30 3324 H 303.612 -0.747348 -5.46917 0
M  V30 3325 H 304.089 0.535341 -4.35925 0
M  V30 3326 H 304.695 -1.11721 -4.10364 0
M  V30 3327 N 303.011 1.40521 -0.713556 0
M  V30 3328 C 304.241 2.0494 -0.261395 0
M  V30 3329 C 304.649 1.53861 1.10107 0
M  V30 3330 O 303.992 0.689321 1.70276 0
M  V30 3331 C 304.054 3.59138 -0.161227 0
M  V30 3332 C 303.718 4.33096 -1.45865 0
M  V30 3333 C 304.715 4.61182 -2.40016 0
M  V30 3334 C 302.4 4.72043 -1.71701 0
M  V30 3335 C 304.394 5.27196 -3.58251 0
M  V30 3336 C 302.081 5.37789 -2.90218 0
M  V30 3337 C 303.079 5.65295 -3.83315 0
M  V30 3338 O 302.767 6.29683 -4.99754 0
M  V30 3339 H 302.499 0.666041 -0.115608 0
M  V30 3340 H 305.053 1.80954 -0.971849 0
M  V30 3341 H 303.283 3.81936 0.605153 0
M  V30 3342 H 304.972 4.05091 0.256105 0
M  V30 3343 H 305.738 4.31559 -2.21318 0
M  V30 3344 H 301.617 4.50003 -1.00092 0
M  V30 3345 H 305.161 5.48582 -4.30934 0
M  V30 3346 H 301.058 5.66831 -3.08825 0
M  V30 3347 H 301.826 6.4818 -4.99805 0
M  V30 3348 N 304.489 0.459591 1.5075 0
M  V30 3349 C 305.714 -0.0996819 2.0716 0
M  V30 3350 C 306.139 -1.33761 1.32249 0
M  V30 3351 O 305.497 -1.77551 0.366786 0
M  V30 3352 C 305.545 -0.378226 3.58611 0
M  V30 3353 O 304.649 -1.46081 3.85661 0
M  V30 3354 H 303.99 0.00791392 0.663953 0
M  V30 3355 H 306.52 0.647329 1.9409 0
M  V30 3356 H 306.53 -0.622135 4.03229 0
M  V30 3357 H 305.205 0.526439 4.12555 0
M  V30 3358 H 303.782 -1.20511 3.5289 0
M  V30 3359 N 305.967 -1.56429 0.191757 0
M  V30 3360 C 307.213 -1.98541 -0.441943 0
M  V30 3361 C 307.568 -1.07646 -1.59468 0
M  V30 3362 O 306.861 -0.120191 -1.91223 0
M  V30 3363 C 307.055 -3.44449 -0.953384 0
M  V30 3364 C 306.884 -4.49456 0.148262 0
M  V30 3365 C 305.654 -5.01668 0.604781 0
M  V30 3366 C 307.852 -5.05336 0.95602 0
M  V30 3367 N 305.834 -5.90334 1.6846 0
M  V30 3368 C 307.205 -5.9064 1.88531 0
M  V30 3369 C 309.26 -4.87779 0.998811 0
M  V30 3370 C 307.963 -6.60264 2.85383 0
M  V30 3371 C 309.989 -5.58139 1.95537 0
M  V30 3372 C 309.351 -6.43187 2.8721 0
M  V30 3373 H 305.45 -0.771247 -0.129236 0
M  V30 3374 H 308.034 -1.92426 0.296682 0
M  V30 3375 H 306.205 -3.5107 -1.66146 0
M  V30 3376 H 307.937 -3.73533 -1.55741 0
M  V30 3377 H 304.692 -4.73183 0.198736 0
M  V30 3378 H 305.116 -6.39371 2.22561 0
M  V30 3379 H 309.758 -4.21705 0.304048 0
M  V30 3380 H 307.476 -7.25538 3.55837 0
M  V30 3381 H 311.062 -5.46532 1.99484 0
M  V30 3382 H 309.942 -6.96674 3.60022 0
M  V30 3383 N 307.445 0.0818655 -1.57387 0
M  V30 3384 C 308.675 0.794954 -1.90694 0
M  V30 3385 C 309.083 1.72147 -0.784982 0
M  V30 3386 O 308.426 1.81974 0.251196 0
M  V30 3387 C 308.488 1.65042 -3.19376 0
M  V30 3388 C 308.152 0.894337 -4.48164 0
M  V30 3389 C 309.149 0.21813 -5.19442 0
M  V30 3390 C 306.834 0.864495 -4.94805 0
M  V30 3391 C 308.828 -0.477802 -6.35607 0
M  V30 3392 C 306.515 0.164785 -6.10878 0
M  V30 3393 C 307.513 -0.505173 -6.81129 0
M  V30 3394 O 307.201 -1.19363 -7.94989 0
M  V30 3395 H 306.933 0.231779 -0.635023 0
M  V30 3396 H 309.487 0.059493 -2.05314 0
M  V30 3397 H 307.717 2.42844 -3.00938 0
M  V30 3398 H 309.406 2.24127 -3.38411 0
M  V30 3399 H 310.172 0.232558 -4.84442 0
M  V30 3400 H 306.051 1.37542 -4.40004 0
M  V30 3401 H 309.595 -1.00129 -6.90377 0
M  V30 3402 H 305.492 0.148249 -6.4533 0
M  V30 3403 H 306.26 -1.10188 -8.11049 0
M  V30 3404 N 308.923 1.53595 0.353017 0
M  V30 3405 C 310.2 1.61002 1.11075 0
M  V30 3406 C 310.58 0.425356 2.0677 0
M  V30 3407 O 309.928 -0.583267 2.2093 0
M  V30 3408 C 310.138 2.96631 1.83877 0
M  V30 3409 C 311.486 3.51653 2.37961 0
M  V30 3410 O 312.51 2.98743 1.93987 0
M  V30 3411 O 311.369 4.44177 3.18386 0
M  V30 3412 H 308.463 0.650825 0.510251 0
M  V30 3413 H 311.009 1.6594 0.35527 0
M  V30 3414 H 309.781 3.74293 1.14108 0
M  V30 3415 H 309.404 2.95242 2.66304 0
M  V30 3416 N 310.401 -0.613514 1.45168 0
M  V30 3417 C 311.626 -1.40437 1.52618 0
M  V30 3418 C 312.051 -1.87438 0.157707 0
M  V30 3419 O 311.409 -1.59791 -0.856537 0
M  V30 3420 C 311.457 -2.58894 2.51011 0
M  V30 3421 O 310.561 -3.59326 2.02382 0
M  V30 3422 H 309.902 -0.419506 0.514695 0
M  V30 3423 H 312.432 -0.747215 1.90467 0
M  V30 3424 H 312.442 -3.06214 2.69624 0
M  V30 3425 H 311.117 -2.24032 3.50403 0
M  V30 3426 H 309.694 -3.18695 1.93618 0
M  V30 3427 N 311.879 -1.3236 -0.855495 0
M  V30 3428 C 313.128 -1.22226 -1.60448 0
M  V30 3429 C 313.441 0.214733 -1.94418 0
M  V30 3430 O 314.647 0.437917 -2.67945 0
M  V30 3431 C 313.103 -2.14063 -2.89318 0
M  V30 3432 C 312.711 -3.62839 -2.62777 0
M  V30 3433 C 314.455 -2.12764 -3.67331 0
M  V30 3434 C 312.362 -4.4664 -3.87643 0
M  V30 3435 H 311.292 -0.453904 -0.602069 0
M  V30 3436 H 313.943 -1.57314 -0.944698 0
M  V30 3437 H 312.325 -1.71889 -3.5675 0
M  V30 3438 H 313.499 -4.1335 -2.03662 0
M  V30 3439 H 311.814 -3.66261 -1.98096 0
M  V30 3440 H 314.411 -2.72611 -4.59987 0
M  V30 3441 H 314.754 -1.11841 -4.00995 0
M  V30 3442 H 315.287 -2.53214 -3.06802 0
M  V30 3443 H 312.026 -5.48373 -3.5912 0
M  V30 3444 H 311.546 -4.0088 -4.46156 0
M  V30 3445 H 313.225 -4.59597 -4.55389 0
M  V30 3446 N 313.357 1.07166 -1.15556 0
M  V30 3447 C 314.606 1.79181 -0.926132 0
M  V30 3448 C 314.919 1.87768 0.547967 0
M  V30 3449 O 316.125 2.56323 0.895036 0
M  V30 3450 C 314.581 3.22 -1.60761 0
M  V30 3451 C 314.189 3.21607 -3.11886 0
M  V30 3452 C 315.933 3.9861 -1.4598 0
M  V30 3453 C 313.84 4.59092 -3.72812 0
M  V30 3454 H 312.77 0.67154 -0.342856 0
M  V30 3455 H 315.421 1.2027 -1.3859 0
M  V30 3456 H 313.803 3.81115 -1.07553 0
M  V30 3457 H 314.977 2.72127 -3.71865 0
M  V30 3458 H 313.292 2.58495 -3.2645 0
M  V30 3459 H 315.889 5.00225 -1.88888 0
M  V30 3460 H 316.232 4.143 -0.407541 0
M  V30 3461 H 316.765 3.45996 -1.96295 0
M  V30 3462 H 313.504 4.48606 -4.77946 0
M  V30 3463 H 313.024 5.08803 -3.17616 0
M  V30 3464 H 314.703 5.28059 -3.73848 0
M  V30 3465 N 314.835 0.952656 1.25548 0
M  V30 3466 C 315.765 0.489287 2.28316 0
M  V30 3467 C 316.746 -0.463359 1.63667 0
M  V30 3468 O 317.931 -0.36274 1.90782 0
M  V30 3469 C 315.061 -0.235603 3.465 0
M  V30 3470 C 314.015 0.631593 4.23314 0
M  V30 3471 C 313.341 -0.223923 5.34231 0
M  V30 3472 C 314.641 1.90871 4.86174 0
M  V30 3473 H 316.335 1.34822 2.67326 0
M  V30 3474 H 313.881 0.649728 1.28509 0
M  V30 3475 H 315.834 -0.570882 4.17515 0
M  V30 3476 H 314.558 -1.12877 3.06474 0
M  V30 3477 H 313.217 0.949929 3.54079 0
M  V30 3478 H 312.865 -1.11678 4.90446 0
M  V30 3479 H 312.565 0.35299 5.86539 0
M  V30 3480 H 314.089 -0.554214 6.0808 0
M  V30 3481 H 315.503 1.63997 5.49343 0
M  V30 3482 H 313.9 2.43112 5.4865 0
M  V30 3483 H 314.97 2.61304 4.08471 0
M  V30 3484 N 316.313 -1.40141 0.720998 0
M  V30 3485 C 317.26 -2.30688 0.071919 0
M  V30 3486 C 318.23 -1.48476 -0.744584 0
M  V30 3487 O 319.415 -1.77201 -0.707423 0
M  V30 3488 C 316.555 -3.34724 -0.839855 0
M  V30 3489 C 315.668 -4.31998 -0.0122438 0
M  V30 3490 C 314.803 -5.23102 -0.923995 0
M  V30 3491 C 313.842 -6.12033 -0.0907969 0
M  V30 3492 N 312.979 -6.95537 -0.957718 0
M  V30 3493 H 317.819 -2.85628 0.849755 0
M  V30 3494 H 315.356 -1.40653 0.430726 0
M  V30 3495 H 317.314 -3.93618 -1.38279 0
M  V30 3496 H 315.944 -2.81274 -1.58381 0
M  V30 3497 H 314.996 -3.74841 0.64794 0
M  V30 3498 H 316.308 -4.94772 0.632595 0
M  V30 3499 H 315.462 -5.86953 -1.53527 0
M  V30 3500 H 314.201 -4.60615 -1.60264 0
M  V30 3501 H 313.206 -5.47207 0.533377 0
M  V30 3502 H 314.431 -6.76581 0.584428 0
M  V30 3503 H 312.377 -6.35633 -1.62192 0
M  V30 3504 H 312.294 -7.55099 -0.36904 0
M  V30 3505 H 313.562 -7.63832 -1.555 0
M  V30 3506 N 317.792 -0.46758 -1.50504 0
M  V30 3507 C 319.04 0.0884469 -2.01906 0
M  V30 3508 C 319.361 1.40532 -1.35188 0
M  V30 3509 O 318.631 1.89515 -0.496079 0
M  V30 3510 H 317.211 0.0356765 -0.746148 0
M  V30 3511 H 319.873 -0.6172 -1.84869 0
M  V30 3512 H 318.969 0.2425 -3.11156 0
M  V30 3513 N 319.27 1.56325 -0.20005 0
M  V30 3514 C 320.5 2.01811 0.442232 0
M  V30 3515 C 320.908 1.07932 1.55394 0
M  V30 3516 O 320.251 0.0772685 1.83537 0
M  V30 3517 C 320.313 3.43685 1.05457 0
M  V30 3518 C 319.977 4.56928 0.0809833 0
M  V30 3519 C 320.974 5.15009 -0.711471 0
M  V30 3520 C 318.659 5.0229 -0.0315364 0
M  V30 3521 C 320.653 6.16904 -1.60336 0
M  V30 3522 C 318.34 6.04028 -0.926981 0
M  V30 3523 C 319.338 6.6121 -1.71146 0
M  V30 3524 O 319.026 7.60971 -2.59189 0
M  V30 3525 H 318.758 0.666173 0.114848 0
M  V30 3526 H 321.312 2.03085 -0.307511 0
M  V30 3527 H 319.542 3.39413 1.85299 0
M  V30 3528 H 321.231 3.72948 1.60201 0
M  V30 3529 H 321.997 4.80827 -0.634873 0
M  V30 3530 H 317.876 4.57476 0.568902 0
M  V30 3531 H 321.42 6.61464 -2.21611 0
M  V30 3532 H 317.317 6.37634 -1.00468 0
M  V30 3533 H 318.085 7.7841 -2.53023 0
M  V30 3534 N 320.748 -0.0735177 1.57428 0
M  V30 3535 C 321.695 -1.08756 2.0357 0
M  V30 3536 C 322.665 -1.38559 0.916 0
M  V30 3537 O 323.85 -1.49656 1.18354 0
M  V30 3538 C 320.99 -2.39657 2.48311 0
M  V30 3539 C 320.103 -2.16399 3.73892 0
M  V30 3540 C 319.238 -3.40852 4.07423 0
M  V30 3541 C 318.277 -3.1295 5.2605 0
M  V30 3542 N 317.414 -4.29729 5.55228 0
M  V30 3543 H 322.254 -0.687104 2.8997 0
M  V30 3544 H 319.791 -0.327709 1.43403 0
M  V30 3545 H 321.749 -3.16081 2.72303 0
M  V30 3546 H 320.379 -2.77508 1.64891 0
M  V30 3547 H 319.431 -1.30676 3.57251 0
M  V30 3548 H 320.743 -1.91788 4.60455 0
M  V30 3549 H 319.897 -4.25671 4.32306 0
M  V30 3550 H 318.636 -3.68537 3.19425 0
M  V30 3551 H 317.641 -2.26526 5.00965 0
M  V30 3552 H 318.866 -2.86589 6.15665 0
M  V30 3553 H 316.812 -4.57448 4.70188 0
M  V30 3554 H 316.729 -4.08385 6.36206 0
M  V30 3555 H 317.997 -5.1555 5.84661 0
M  V30 3556 N 322.226 -1.5378 -0.344866 0
M  V30 3557 C 323.642 -1.44015 -0.687888 0
M  V30 3558 C 323.842 -0.595834 -1.92489 0
M  V30 3559 O 322.898 -0.0863064 -2.52352 0
M  V30 3560 C 324.211 -2.87481 -0.881758 0
M  V30 3561 C 325.759 -2.97247 -0.980459 0
M  V30 3562 C 326.234 -4.41819 -1.20665 0
M  V30 3563 N 327.725 -4.45339 -1.27389 0
M  V30 3564 C 328.46 -5.54333 -1.46639 0
M  V30 3565 N 327.956 -6.73335 -1.63071 0
M  V30 3566 N 329.749 -5.41944 -1.49176 0
M  V30 3567 H 321.9 -2.07169 0.468475 0
M  V30 3568 H 324.163 -0.93643 0.147655 0
M  V30 3569 H 323.869 -3.51672 -0.0443444 0
M  V30 3570 H 323.743 -3.32352 -1.78388 0
M  V30 3571 H 326.13 -2.33197 -1.8084 0
M  V30 3572 H 326.211 -2.5574 -0.0552713 0
M  V30 3573 H 325.855 -5.06449 -0.383652 0
M  V30 3574 H 325.785 -4.80917 -2.14539 0
M  V30 3575 H 328.276 -3.59585 -1.1622 0
M  V30 3576 H 328.589 -7.52165 -1.77391 0
M  V30 3577 H 326.934 -6.76282 -1.60209 0
M  V30 3578 H 330.125 -4.47932 -1.3592 0
M  V30 3579 H 330.298 -6.26946 -1.63837 0
M  V30 3580 N 323.704 0.605807 -1.45491 0
M  V30 3581 C 325.115 1.18777 -1.44045 0
M  V30 3582 C 325.466 1.95471 -0.169001 0
M  V30 3583 O 324.591 2.0374 0.729324 0
M  V30 3584 C 325.186 2.16064 -2.60963 0
M  V30 3585 C 323.745 2.69633 -2.62631 0
M  V30 3586 C 322.892 1.45072 -2.36325 0
M  V30 3587 H 325.843 0.395017 -1.53705 0
M  V30 3588 H 325.864 2.9913 -2.35163 0
M  V30 3589 H 325.376 1.60217 -3.53486 0
M  V30 3590 H 323.477 3.29414 -1.74119 0
M  V30 3591 H 323.59 3.13944 -3.61906 0
M  V30 3592 H 321.954 1.74089 -1.85917 0
M  V30 3593 H 322.737 0.910899 -3.30995 0
M  V30 3594 N 325.182 1.32811 0.848464 0
M  V30 3595 C 326.112 1.24882 1.97299 0
M  V30 3596 C 327.093 0.131357 1.69592 0
M  V30 3597 O 328.278 0.319553 1.91553 0
M  V30 3598 C 325.408 0.97746 3.33261 0
M  V30 3599 C 324.362 2.05682 3.75338 0
M  V30 3600 C 323.688 1.63777 5.09 0
M  V30 3601 C 324.988 3.47254 3.90144 0
M  V30 3602 H 326.682 2.18966 2.04191 0
M  V30 3603 H 324.228 1.05413 0.981029 0
M  V30 3604 H 326.181 0.908513 4.1149 0
M  V30 3605 H 324.905 0.000980011 3.266 0
M  V30 3606 H 323.564 2.11603 2.99366 0
M  V30 3607 H 323.212 0.648569 4.98801 0
M  V30 3608 H 322.912 2.36 5.38124 0
M  V30 3609 H 324.436 1.5833 5.89715 0
M  V30 3610 H 325.85 3.43888 4.58709 0
M  V30 3611 H 324.247 4.1788 4.30693 0
M  V30 3612 H 325.317 3.86462 2.92874 0
M  V30 3613 N 326.66 -1.06551 1.16123 0
M  V30 3614 C 327.888 -1.83005 0.965237 0
M  V30 3615 C 328.303 -1.82423 -0.486542 0
M  V30 3616 O 327.66 -1.24152 -1.33763 0
M  V30 3617 C 327.711 -3.29733 1.48183 0
M  V30 3618 O 327.432 -3.30416 2.87674 0
M  V30 3619 C 328.933 -4.22926 1.32848 0
M  V30 3620 H 326.153 -0.577118 0.342309 0
M  V30 3621 H 328.697 -1.3445 1.54089 0
M  V30 3622 H 326.852 -3.75609 0.948517 0
M  V30 3623 H 327.266 -4.22149 3.11272 0
M  V30 3624 H 328.74 -5.23916 1.73827 0
M  V30 3625 H 329.217 -4.38346 0.273692 0
M  V30 3626 H 329.823 -3.82894 1.85127 0
M  V30 3627 N 328.138 -0.959301 -1.25041 0
M  V30 3628 C 329.068 -0.501388 -2.28053 0
M  V30 3629 C 330.049 0.454673 -1.63911 0
M  V30 3630 O 331.234 0.352618 -1.90972 0
M  V30 3631 C 328.364 0.217224 -3.4662 0
M  V30 3632 C 327.318 -0.654034 -4.22973 0
M  V30 3633 C 326.644 0.195589 -5.34342 0
M  V30 3634 C 327.944 -1.93447 -4.85155 0
M  V30 3635 H 329.638 -1.36238 -2.66608 0
M  V30 3636 H 327.184 -0.656534 -1.28163 0
M  V30 3637 H 329.137 0.548732 -4.17812 0
M  V30 3638 H 327.861 1.1125 -3.07068 0
M  V30 3639 H 326.52 -0.968693 -3.5357 0
M  V30 3640 H 326.168 1.09076 -4.91031 0
M  V30 3641 H 325.868 -0.384091 -5.86343 0
M  V30 3642 H 327.392 0.521958 -6.08365 0
M  V30 3643 H 328.806 -1.66908 -5.48466 0
M  V30 3644 H 327.203 -2.46018 -5.47353 0
M  V30 3645 H 328.273 -2.63466 -4.07079 0
M  V30 3646 N 329.616 1.39756 -0.72842 0
M  V30 3647 C 330.526 2.34444 -0.0855374 0
M  V30 3648 C 331.542 1.57976 0.729356 0
M  V30 3649 O 332.718 1.90301 0.659346 0
M  V30 3650 C 329.783 3.36965 0.815798 0
M  V30 3651 C 328.844 4.29299 -0.0105996 0
M  V30 3652 C 328.077 5.26923 0.84781 0
M  V30 3653 O 328.3 5.30859 2.08673 0
M  V30 3654 O 327.234 6.01249 0.279969 0
M  V30 3655 H 331.06 2.91065 -0.866892 0
M  V30 3656 H 328.645 1.4117 -0.48902 0
M  V30 3657 H 330.527 3.99804 1.33171 0
M  V30 3658 H 329.202 2.82739 1.57608 0
M  V30 3659 H 328.109 3.69703 -0.571877 0
M  V30 3660 H 329.442 4.86712 -0.73295 0
M  V30 3661 N 331.094 0.475555 1.50254 0
M  V30 3662 C 332.371 -0.139685 1.95101 0
M  V30 3663 C 332.751 -1.56555 1.41611 0
M  V30 3664 O 332.099 -2.19956 0.618993 0
M  V30 3665 C 332.309 -0.0784298 3.48912 0
M  V30 3666 C 333.657 -0.265095 4.23772 0
M  V30 3667 O 334.681 -0.154808 3.55863 0
M  V30 3668 O 333.54 -0.488327 5.44314 0
M  V30 3669 H 330.634 -0.109236 0.819754 0
M  V30 3670 H 333.18 0.536276 1.61004 0
M  V30 3671 H 331.952 0.916918 3.80405 0
M  V30 3672 H 331.575 -0.795655 3.89558 0
M  V30 3673 N 332.573 -1.56217 0.208337 0
M  V30 3674 C 333.819 -1.98242 -0.427552 0
M  V30 3675 C 334.152 -1.09554 -1.60348 0
M  V30 3676 O 333.427 -0.15035 -1.93918 0
M  V30 3677 C 333.71 -3.4931 -0.874907 0
M  V30 3678 C 333.563 -4.48773 0.303751 0
M  V30 3679 C 334.882 -4.04424 -1.73577 0
M  V30 3680 H 332.001 -0.720744 -0.153936 0
M  V30 3681 H 334.643 -1.87586 0.30192 0
M  V30 3682 H 332.793 -3.58522 -1.49648 0
M  V30 3683 H 334.465 -4.51586 0.941682 0
M  V30 3684 H 332.708 -4.23194 0.953375 0
M  V30 3685 H 333.379 -5.51976 -0.0519883 0
M  V30 3686 H 335.855 -3.98075 -1.21143 0
M  V30 3687 H 334.731 -5.1047 -2.01771 0
M  V30 3688 H 334.992 -3.50494 -2.69456 0
M  V30 3689 N 334.051 0.0651679 -1.57465 0
M  V30 3690 C 335.297 0.758912 -1.88712 0
M  V30 3691 C 335.652 1.7485 -0.802819 0
M  V30 3692 O 334.945 1.90632 0.192359 0
M  V30 3693 C 335.139 1.50081 -3.24362 0
M  V30 3694 C 334.968 0.584579 -4.45884 0
M  V30 3695 C 333.738 0.219039 -5.04825 0
M  V30 3696 C 335.936 -0.121559 -5.14156 0
M  V30 3697 N 333.918 -0.702222 -6.09871 0
M  V30 3698 C 335.289 -0.899767 -6.13436 0
M  V30 3699 C 337.344 -0.192331 -4.97528 0
M  V30 3700 C 336.047 -1.74218 -6.97883 0
M  V30 3701 C 338.073 -1.02174 -5.82507 0
M  V30 3702 C 337.435 -1.78798 -6.8133 0
M  V30 3703 H 333.534 0.25293 -0.739967 0
M  V30 3704 H 336.118 0.0201744 -1.9469 0
M  V30 3705 H 334.289 2.21023 -3.1938 0
M  V30 3706 H 336.021 2.14409 -3.43236 0
M  V30 3707 H 332.776 0.57336 -4.70117 0
M  V30 3708 H 333.2 -1.15629 -6.67052 0
M  V30 3709 H 337.842 0.385741 -4.21037 0
M  V30 3710 H 335.56 -2.3312 -7.73745 0
M  V30 3711 H 339.146 -1.07957 -5.71696 0
M  V30 3712 H 338.026 -2.41942 -7.45945 0
M  V30 3713 N 335.529 1.53961 0.336706 0
M  V30 3714 C 336.439 1.85432 1.43708 0
M  V30 3715 C 337.455 0.745053 1.57242 0
M  V30 3716 O 338.631 1.03804 1.72588 0
M  V30 3717 C 335.696 2.06349 2.78605 0
M  V30 3718 C 334.757 3.30191 2.74358 0
M  V30 3719 C 333.99 3.50101 4.02822 0
M  V30 3720 O 334.213 2.7371 5.00439 0
M  V30 3721 O 333.147 4.43547 4.06878 0
M  V30 3722 H 336.973 2.78975 1.20028 0
M  V30 3723 H 334.558 1.39701 0.52952 0
M  V30 3724 H 336.44 2.21513 3.58483 0
M  V30 3725 H 335.115 1.15995 3.02203 0
M  V30 3726 H 334.022 3.20425 1.93078 0
M  V30 3727 H 335.355 4.2056 2.55715 0
M  V30 3728 N 337.007 -0.598083 1.45811 0
M  V30 3729 C 338.253 -1.35882 1.50545 0
M  V30 3730 C 338.586 -1.93616 0.150445 0
M  V30 3731 O 337.861 -1.75604 -0.83628 0
M  V30 3732 C 338.144 -2.49966 2.59208 0
M  V30 3733 C 337.997 -1.97367 4.04186 0
M  V30 3734 C 339.316 -3.52068 2.64076 0
M  V30 3735 H 336.435 -0.492717 0.548087 0
M  V30 3736 H 339.077 -0.673319 1.77669 0
M  V30 3737 H 337.227 -3.08443 2.3621 0
M  V30 3738 H 338.899 -1.43466 4.38423 0
M  V30 3739 H 337.142 -1.283 4.14393 0
M  V30 3740 H 337.813 -2.79649 4.75921 0
M  V30 3741 H 340.289 -3.03448 2.84708 0
M  V30 3742 H 339.165 -4.2937 3.41954 0
M  V30 3743 H 339.426 -4.08304 1.69531 0
M  V30 3744 N 338.485 -1.33259 -0.841409 0
M  V30 3745 C 339.762 -1.15174 -1.58096 0
M  V30 3746 C 340.142 0.282858 -2.09196 0
M  V30 3747 O 339.49 1.28151 -1.89181 0
M  V30 3748 C 339.7 -2.1907 -2.71679 0
M  V30 3749 C 341.048 -2.53093 -3.40924 0
M  V30 3750 O 342.072 -2.17717 -2.81918 0
M  V30 3751 O 340.931 -3.1379 -4.47435 0
M  V30 3752 H 338.025 -0.445303 -0.696875 0
M  V30 3753 H 340.571 -1.44833 -0.884385 0
M  V30 3754 H 339.343 -3.15443 -2.31541 0
M  V30 3755 H 338.966 -1.90481 -3.49002 0
M  V30 3756 N 339.963 1.05934 -1.16686 0
M  V30 3757 C 340.873 2.17014 -0.891183 0
M  V30 3758 C 341.889 1.73453 0.137907 0
M  V30 3759 O 343.065 2.01361 -0.039592 0
M  V30 3760 C 340.13 3.44384 -0.400099 0
M  V30 3761 C 339.191 4.02433 -1.49486 0
M  V30 3762 C 338.424 5.23723 -1.02711 0
M  V30 3763 O 338.647 5.7027 0.121716 0
M  V30 3764 O 337.581 5.7382 -1.81699 0
M  V30 3765 H 341.407 2.43113 -1.82015 0
M  V30 3766 H 338.992 1.15541 -0.947132 0
M  V30 3767 H 340.874 4.21189 -0.133392 0
M  V30 3768 H 339.549 3.19802 0.500817 0
M  V30 3769 H 338.456 3.27102 -1.81535 0
M  V30 3770 H 339.789 4.31317 -2.37121 0
M  V30 3771 N 341.441 0.965919 1.2453 0
M  V30 3772 C 342.351 0.502154 2.29163 0
M  V30 3773 C 343.367 -0.436017 1.68448 0
M  V30 3774 O 344.543 -0.309497 1.99008 0
M  V30 3775 C 341.608 -0.201956 3.46111 0
M  V30 3776 C 340.669 0.775821 4.22232 0
M  V30 3777 C 339.902 0.105217 5.33596 0
M  V30 3778 O 340.125 -1.10683 5.59558 0
M  V30 3779 O 339.059 0.796475 5.96607 0
M  V30 3780 H 342.885 1.37194 2.70946 0
M  V30 3781 H 340.47 0.732875 1.30189 0
M  V30 3782 H 342.352 -0.597564 4.17142 0
M  V30 3783 H 341.027 -1.04673 3.06309 0
M  V30 3784 H 339.934 1.22185 3.53584 0
M  V30 3785 H 341.267 1.58896 4.65846 0
M  V30 3786 N 342.919 -1.39368 0.735821 0
M  V30 3787 C 343.852 -2.28155 0.0451175 0
M  V30 3788 C 344.83 -1.44433 -0.746852 0
M  V30 3789 O 346.014 -1.73823 -0.729237 0
M  V30 3790 C 343.141 -3.253 -0.943266 0
M  V30 3791 C 342.187 -4.25826 -0.239685 0
M  V30 3792 S 343.02 -5.25166 1.04693 0
M  V30 3793 C 344.176 -6.2587 0.0611639 0
M  V30 3794 H 344.409 -2.86388 0.79807 0
M  V30 3795 H 341.942 -1.45104 0.527653 0
M  V30 3796 H 343.9 -3.81789 -1.50824 0
M  V30 3797 H 342.561 -2.66085 -1.66906 0
M  V30 3798 H 341.754 -4.94229 -0.987596 0
M  V30 3799 H 341.356 -3.73141 0.253274 0
M  V30 3800 H 343.648 -6.73007 -0.778941 0
M  V30 3801 H 344.591 -7.04508 0.712362 0
M  V30 3802 H 344.999 -5.63639 -0.311602 0
M  V30 3803 N 344.397 -0.483516 -1.5 0
M  V30 3804 C 345.344 0.304164 -2.28787 0
M  V30 3805 C 346.314 0.976114 -1.34392 0
M  V30 3806 O 347.499 0.986156 -1.63339 0
M  V30 3807 C 344.639 1.37298 -3.16612 0
M  V30 3808 C 343.752 0.714561 -4.26049 0
M  V30 3809 C 342.887 1.76232 -5.01114 0
M  V30 3810 C 341.926 1.08483 -6.0241 0
M  V30 3811 N 341.063 2.076 -6.70706 0
M  V30 3812 H 345.903 -0.373981 -2.95644 0
M  V30 3813 H 343.44 -0.196275 -1.45785 0
M  V30 3814 H 345.398 2.00445 -3.65893 0
M  V30 3815 H 344.028 2.02012 -2.51776 0
M  V30 3816 H 343.08 -0.0297798 -3.80388 0
M  V30 3817 H 344.392 0.180383 -4.98474 0
M  V30 3818 H 343.546 2.46929 -5.54176 0
M  V30 3819 H 342.285 2.33033 -4.28424 0
M  V30 3820 H 341.29 0.363545 -5.48597 0
M  V30 3821 H 342.515 0.523551 -6.77079 0
M  V30 3822 H 340.461 2.63394 -6.00799 0
M  V30 3823 H 340.378 1.59201 -7.39047 0
M  V30 3824 H 341.646 2.77639 -7.2838 0
M  V30 3825 N 345.875 1.56104 -0.216619 0
M  V30 3826 C 347.103 2.02563 0.421413 0
M  V30 3827 C 347.518 1.0965 1.53695 0
M  V30 3828 O 346.875 0.10521 1.82196 0
M  V30 3829 C 346.926 3.48584 0.957665 0
M  V30 3830 O 346.647 4.37953 -0.113389 0
M  V30 3831 C 348.148 4.10664 1.66943 0
M  V30 3832 H 345.368 0.662944 0.103665 0
M  V30 3833 H 347.912 2.01793 -0.331629 0
M  V30 3834 H 346.067 3.49985 1.661 0
M  V30 3835 H 346.481 5.23704 0.288932 0
M  V30 3836 H 347.955 5.14622 1.99671 0
M  V30 3837 H 348.432 3.55373 2.58083 0
M  V30 3838 H 349.038 4.13098 1.01142 0
M  V30 3839 N 347.353 -0.0568162 1.57498 0
M  V30 3840 C 348.3 -1.06591 2.04712 0
M  V30 3841 C 349.27 -1.3758 0.930644 0
M  V30 3842 O 350.455 -1.48392 1.19935 0
M  V30 3843 C 347.595 -2.3701 2.50839 0
M  V30 3844 C 346.708 -2.12421 3.76167 0
M  V30 3845 C 345.843 -3.36511 4.11015 0
M  V30 3846 C 344.882 -3.07353 5.2934 0
M  V30 3847 N 344.019 -4.23816 5.59754 0
M  V30 3848 H 348.859 -0.65631 2.90683 0
M  V30 3849 H 346.396 -0.312481 1.43743 0
M  V30 3850 H 348.354 -3.13175 2.7564 0
M  V30 3851 H 346.984 -2.75744 1.67825 0
M  V30 3852 H 346.036 -1.2688 3.58616 0
M  V30 3853 H 347.348 -1.86894 4.62463 0
M  V30 3854 H 346.502 -4.21062 4.36797 0
M  V30 3855 H 345.241 -3.65128 3.23315 0
M  V30 3856 H 344.246 -2.212 5.03339 0
M  V30 3857 H 345.471 -2.80043 6.1867 0
M  V30 3858 H 343.417 -4.52436 4.75014 0
M  V30 3859 H 343.334 -4.01614 6.40501 0
M  V30 3860 H 344.602 -5.0932 5.90096 0
M  V30 3861 N 348.832 -1.54138 -0.328536 0
M  V30 3862 C 350.06 -1.76062 -1.08673 0
M  V30 3863 C 350.475 -0.506852 -1.81869 0
M  V30 3864 O 349.832 0.522223 -1.74869 0
M  V30 3865 C 349.883 -2.95054 -2.08866 0
M  V30 3866 O 349.604 -4.15583 -1.38644 0
M  V30 3867 C 351.105 -3.2915 -2.96943 0
M  V30 3868 H 348.325 -0.587889 -0.323461 0
M  V30 3869 H 350.869 -2.0101 -0.376175 0
M  V30 3870 H 349.024 -2.72394 -2.75464 0
M  V30 3871 H 349.438 -4.82481 -2.05699 0
M  V30 3872 H 350.912 -4.15723 -3.63151 0
M  V30 3873 H 351.389 -2.461 -3.63774 0
M  V30 3874 H 351.995 -3.53871 -2.35914 0
M  V30 3875 N 350.31 0.590341 -1.46126 0
M  V30 3876 C 351.24 1.71032 -1.58966 0
M  V30 3877 C 352.221 1.64302 -0.440335 0
M  V30 3878 O 353.406 1.82436 -0.665634 0
M  V30 3879 C 350.536 3.09665 -1.57241 0
M  V30 3880 C 349.49 3.31221 -2.71066 0
M  V30 3881 C 348.816 4.70303 -2.54399 0
M  V30 3882 C 350.116 3.19796 -4.1295 0
M  V30 3883 H 351.81 1.60543 -2.52718 0
M  V30 3884 H 349.356 0.770933 -1.21625 0
M  V30 3885 H 351.309 3.87831 -1.64819 0
M  V30 3886 H 350.033 3.21036 -0.600289 0
M  V30 3887 H 348.692 2.55452 -2.62944 0
M  V30 3888 H 348.34 4.78429 -1.55288 0
M  V30 3889 H 348.04 4.85679 -3.30741 0
M  V30 3890 H 349.564 5.50647 -2.63857 0
M  V30 3891 H 350.978 3.87815 -4.22223 0
M  V30 3892 H 349.375 3.46696 -4.89818 0
M  V30 3893 H 350.445 2.16983 -4.33643 0
M  V30 3894 N 351.788 1.33704 0.83433 0
M  V30 3895 C 353.034 1.25603 1.59222 0
M  V30 3896 C 353.367 -0.176659 1.93395 0
M  V30 3897 O 352.642 -1.11915 1.59076 0
M  V30 3898 C 352.925 2.13576 2.89926 0
M  V30 3899 C 352.778 3.65326 2.62406 0
M  V30 3900 C 354.097 2.01238 3.91397 0
M  V30 3901 H 351.216 0.457613 0.577719 0
M  V30 3902 H 353.858 1.63848 0.961972 0
M  V30 3903 H 352.008 1.8109 3.43713 0
M  V30 3904 H 353.68 4.08124 2.15017 0
M  V30 3905 H 351.923 3.8698 1.96033 0
M  V30 3906 H 352.594 4.22232 3.55562 0
M  V30 3907 H 355.07 2.29738 3.46929 0
M  V30 3908 H 353.946 2.65036 4.80673 0
M  V30 3909 H 354.207 0.985951 4.30966 0
M  V30 3910 N 353.266 -1.05314 1.17247 0
M  V30 3911 C 354.491 -1.82509 0.985148 0
M  V30 3912 C 354.916 -1.82343 -0.461788 0
M  V30 3913 O 354.274 -1.23151 -1.33055 0
M  V30 3914 C 354.322 -3.26566 1.52929 0
M  V30 3915 O 353.426 -4.05666 0.742225 0
M  V30 3916 H 352.767 -0.564347 0.349869 0
M  V30 3917 H 355.297 -1.32718 1.55715 0
M  V30 3918 H 355.307 -3.77369 1.55103 0
M  V30 3919 H 353.982 -3.26001 2.58256 0
M  V30 3920 H 352.559 -3.64397 0.791794 0
M  V30 3921 N 354.744 -0.972509 -1.24016 0
M  V30 3922 C 355.691 -0.505969 -2.25186 0
M  V30 3923 C 356.661 0.451009 -1.5986 0
M  V30 3924 O 357.846 0.360307 -1.87367 0
M  V30 3925 C 354.986 0.193089 -3.44559 0
M  V30 3926 C 354.099 -0.803222 -4.24467 0
M  V30 3927 C 353.234 -0.0797793 -5.3114 0
M  V30 3928 C 352.273 -1.06583 -6.02749 0
M  V30 3929 N 351.41 -0.372074 -7.01113 0
M  V30 3930 H 356.25 -1.37351 -2.64459 0
M  V30 3931 H 353.787 -0.688419 -1.29997 0
M  V30 3932 H 355.745 0.615125 -4.1264 0
M  V30 3933 H 354.375 1.02455 -3.06109 0
M  V30 3934 H 353.427 -1.34368 -3.55878 0
M  V30 3935 H 354.739 -1.55494 -4.73944 0
M  V30 3936 H 353.893 0.400015 -6.0538 0
M  V30 3937 H 352.632 0.704597 -4.82583 0
M  V30 3938 H 351.637 -1.55645 -5.27309 0
M  V30 3939 H 352.862 -1.85074 -6.53395 0
M  V30 3940 H 350.808 0.393238 -6.5482 0
M  V30 3941 H 350.725 -1.06258 -7.48495 0
M  V30 3942 H 351.993 0.0855932 -7.79453 0
M  V30 3943 N 356.222 1.38976 -0.743202 0
M  V30 3944 C 357.469 2.00343 -0.294752 0
M  V30 3945 C 357.797 1.58983 1.12047 0
M  V30 3946 O 357.052 0.813809 1.77977 0
M  V30 3947 C 357.351 3.55647 -0.353517 0
M  V30 3948 C 357.017 4.16685 -1.72292 0
M  V30 3949 C 355.679 4.3307 -2.09771 0
M  V30 3950 C 358.031 4.50464 -2.62168 0
M  V30 3951 C 355.359 4.80526 -3.36618 0
M  V30 3952 C 357.711 4.99332 -3.88395 0
M  V30 3953 C 356.375 5.13924 -4.25956 0
M  V30 3954 H 355.645 0.733108 -0.107857 0
M  V30 3955 H 358.292 1.6618 -0.951651 0
M  V30 3956 H 356.597 3.89884 0.386954 0
M  V30 3957 H 358.294 4.00998 0.0117269 0
M  V30 3958 H 354.884 4.04339 -1.42155 0
M  V30 3959 H 359.068 4.37416 -2.3448 0
M  V30 3960 H 354.324 4.90008 -3.65653 0
M  V30 3961 H 358.498 5.2444 -4.58187 0
M  V30 3962 H 356.125 5.50457 -5.2431 0
M  V30 3963 N 357.7 0.491464 1.49741 0
M  V30 3964 C 358.61 -0.296835 2.32715 0
M  V30 3965 C 359.626 -0.976536 1.44013 0
M  V30 3966 O 360.802 -0.960023 1.77047 0
M  V30 3967 C 357.867 -1.35288 3.19215 0
M  V30 3968 C 356.928 -0.687632 4.23757 0
M  V30 3969 C 356.161 -1.69336 5.06123 0
M  V30 3970 O 356.384 -2.92219 4.89861 0
M  V30 3971 O 355.318 -1.25394 5.88693 0
M  V30 3972 H 359.144 0.382048 3.01287 0
M  V30 3973 H 356.729 0.252953 1.47243 0
M  V30 3974 H 358.611 -1.96411 3.72828 0
M  V30 3975 H 357.286 -2.01487 2.53347 0
M  V30 3976 H 356.193 -0.0369159 3.74082 0
M  V30 3977 H 357.526 -0.0682566 4.92153 0
M  V30 3978 N 359.178 -1.55987 0.224894 0
M  V30 3979 C 360.406 -2.02784 -0.410665 0
M  V30 3980 C 360.821 -1.10464 -1.53112 0
M  V30 3981 O 360.178 -0.114871 -1.82138 0
M  V30 3982 C 360.229 -3.49087 -0.939165 0
M  V30 3983 O 359.95 -4.37887 0.136614 0
M  V30 3984 C 361.451 -4.11543 -1.64763 0
M  V30 3985 H 358.671 -0.663484 -0.100148 0
M  V30 3986 H 361.215 -2.01614 0.342326 0
M  V30 3987 H 359.37 -3.50861 -1.64242 0
M  V30 3988 H 359.784 -5.23849 -0.261155 0
M  V30 3989 H 361.258 -5.15673 -1.96939 0
M  V30 3990 H 361.735 -3.56736 -2.56195 0
M  V30 3991 H 362.341 -4.13629 -0.989503 0
M  V30 3992 N 360.656 0.0484629 -1.57525 0
M  V30 3993 C 361.606 1.06246 -2.01732 0
M  V30 3994 C 362.59 1.33155 -0.903245 0
M  V30 3995 O 363.782 1.33065 -1.16717 0
M  V30 3996 C 360.911 2.36943 -2.48421 0
M  V30 3997 C 359.997 2.13208 -3.6661 0
M  V30 3998 N 360.388 1.5947 -4.80003 0
M  V30 3999 C 358.686 2.43581 -3.7361 0
M  V30 4000 C 359.387 1.51092 -5.61735 0
M  V30 4001 N 358.363 1.9797 -5.0627 0
M  V30 4002 H 362.165 0.640675 -2.86832 0
M  V30 4003 H 359.679 0.255134 -1.60383 0
M  V30 4004 H 361.676 3.10374 -2.78341 0
M  V30 4005 H 360.336 2.79818 -1.64718 0
M  V30 4006 H 361.347 1.28008 -5.01831 0
M  V30 4007 H 358.024 2.89662 -3.00669 0
M  V30 4008 H 359.414 1.10199 -6.62801 0
M  V30 4009 N 362.134 1.5431 0.320358 0
M  V30 4010 C 363.067 1.78769 1.41834 0
M  V30 4011 C 364.045 0.63783 1.49568 0
M  V30 4012 O 365.229 0.875628 1.66928 0
M  V30 4013 C 362.356 1.90712 2.79905 0
M  V30 4014 C 361.402 3.13023 2.89687 0
M  V30 4015 S 362.235 4.71554 2.53766 0
M  V30 4016 C 363.391 4.86408 3.93902 0
M  V30 4017 H 363.624 2.71619 1.20874 0
M  V30 4018 H 361.157 1.45474 0.517377 0
M  V30 4019 H 363.115 1.98279 3.59438 0
M  V30 4020 H 361.776 0.988343 2.98145 0
M  V30 4021 H 360.969 3.18124 3.90913 0
M  V30 4022 H 360.571 3.03803 2.18128 0
M  V30 4023 H 362.863 4.69241 4.88691 0
M  V30 4024 H 363.806 5.88508 3.93782 0
M  V30 4025 H 364.214 4.14689 3.83005 0
M  V30 4026 N 363.613 -0.582584 1.46437 0
M  V30 4027 C 364.56 -1.69164 1.5701 0
M  V30 4028 C 365.53 -1.60847 0.414403 0
M  V30 4029 O 366.715 -1.80058 0.631171 0
M  V30 4030 C 363.855 -3.075 1.56646 0
M  V30 4031 C 362.968 -3.2644 2.82951 0
M  V30 4032 C 362.103 -4.55026 2.7409 0
M  V30 4033 C 361.142 -4.6731 3.95333 0
M  V30 4034 N 360.279 -5.87221 3.84858 0
M  V30 4035 H 365.119 -1.59464 2.51744 0
M  V30 4036 H 362.656 -0.777186 1.24893 0
M  V30 4037 H 364.614 -3.8757 1.5442 0
M  V30 4038 H 363.244 -3.16096 0.654439 0
M  V30 4039 H 362.296 -2.39974 2.95155 0
M  V30 4040 H 363.608 -3.31385 3.72808 0
M  V30 4041 H 362.762 -5.43324 2.6997 0
M  V30 4042 H 361.501 -4.52519 1.81873 0
M  V30 4043 H 360.506 -3.77429 3.99784 0
M  V30 4044 H 361.731 -4.71595 4.88646 0
M  V30 4045 H 359.677 -5.85712 2.95427 0
M  V30 4046 H 359.594 -5.93435 4.6837 0
M  V30 4047 H 360.862 -6.7795 3.84713 0
M  V30 4048 N 365.091 -1.34144 -0.827227 0
M  V30 4049 C 366.507 -1.13732 -1.11969 0
M  V30 4050 C 366.707 0.0640463 -2.01398 0
M  V30 4051 O 365.763 0.740856 -2.41387 0
M  V30 4052 C 367.076 -2.43047 -1.77055 0
M  V30 4053 C 368.624 -2.49063 -1.89569 0
M  V30 4054 C 369.099 -3.78369 -2.58072 0
M  V30 4055 N 370.59 -3.79505 -2.65575 0
M  V30 4056 C 371.325 -4.76274 -3.19297 0
M  V30 4057 N 370.821 -5.83424 -3.73616 0
M  V30 4058 N 372.614 -4.63735 -3.17658 0
M  V30 4059 H 364.765 -2.11126 -0.232296 0
M  V30 4060 H 367.028 -0.933424 -0.165602 0
M  V30 4061 H 366.734 -3.31025 -1.18807 0
M  V30 4062 H 366.608 -2.56066 -2.76966 0
M  V30 4063 H 368.995 -1.61527 -2.46968 0
M  V30 4064 H 369.076 -2.39975 -0.885745 0
M  V30 4065 H 368.72 -4.66293 -2.01329 0
M  V30 4066 H 368.65 -3.84737 -3.59562 0
M  V30 4067 H 371.141 -3.02074 -2.27068 0
M  V30 4068 H 371.454 -6.53282 -4.12846 0
M  V30 4069 H 369.799 -5.87143 -3.71871 0
M  V30 4070 H 372.99 -3.79177 -2.74486 0
M  V30 4071 H 373.163 -5.39318 -3.59221 0
M  V30 4072 N 366.569 1.04691 -1.17803 0
M  V30 4073 C 367.479 2.16057 -0.914151 0
M  V30 4074 C 368.495 1.73589 0.119503 0
M  V30 4075 O 369.671 2.01308 -0.0609468 0
M  V30 4076 C 366.736 3.4394 -0.436603 0
M  V30 4077 C 365.797 4.00825 -1.53746 0
M  V30 4078 C 365.03 5.22604 -1.0826 0
M  V30 4079 O 365.253 5.70367 0.0612244 0
M  V30 4080 O 364.187 5.7186 -1.87775 0
M  V30 4081 H 368.013 2.41169 -1.84584 0
M  V30 4082 H 365.598 1.1453 -0.959334 0
M  V30 4083 H 367.48 4.21024 -0.178057 0
M  V30 4084 H 366.155 3.20316 0.466869 0
M  V30 4085 H 365.062 3.25158 -1.84995 0
M  V30 4086 H 366.395 4.28778 -2.41683 0
M  V30 4087 N 368.047 0.979072 1.23499 0
M  V30 4088 C 368.977 0.537606 2.27227 0
M  V30 4089 C 369.958 -0.428539 1.64613 0
M  V30 4090 O 371.143 -0.322191 1.91509 0
M  V30 4091 C 368.273 -0.162052 3.46922 0
M  V30 4092 C 367.227 0.721242 4.21879 0
M  V30 4093 C 366.553 -0.110555 5.34586 0
M  V30 4094 C 367.853 2.01141 4.82016 0
M  V30 4095 H 369.547 1.40462 2.64406 0
M  V30 4096 H 367.093 0.67684 1.27102 0
M  V30 4097 H 369.046 -0.482192 4.18632 0
M  V30 4098 H 367.77 -1.06351 3.08799 0
M  V30 4099 H 366.429 1.02482 3.51984 0
M  V30 4100 H 366.077 -1.0125 4.92704 0
M  V30 4101 H 365.777 0.477325 5.85658 0
M  V30 4102 H 367.301 -0.425107 6.09118 0
M  V30 4103 H 368.715 1.75612 5.45741 0
M  V30 4104 H 367.112 2.54695 5.43369 0
M  V30 4105 H 368.182 2.69909 4.02836 0
M  V30 4106 N 369.525 -1.3858 0.750561 0
M  V30 4107 C 370.457 -2.29057 0.0810714 0
M  V30 4108 C 371.47 -1.47596 -0.686973 0
M  V30 4109 O 372.659 -1.70495 -0.528563 0
M  V30 4110 C 369.759 -3.26475 -0.909247 0
M  V30 4111 C 368.932 -4.36945 -0.199478 0
M  V30 4112 C 367.991 -5.14572 -1.10011 0
M  V30 4113 O 367.017 -5.66321 -0.57177 0
M  V30 4114 N 368.219 -5.27262 -2.42849 0
M  V30 4115 H 370.984 -2.87153 0.858087 0
M  V30 4116 H 368.545 -1.50328 0.60109 0
M  V30 4117 H 370.537 -3.75285 -1.51471 0
M  V30 4118 H 369.107 -2.69298 -1.58736 0
M  V30 4119 H 368.327 -3.8981 0.586664 0
M  V30 4120 H 369.615 -5.07963 0.291783 0
M  V30 4121 H 369.013 -4.86763 -2.88233 0
M  V30 4122 H 367.57 -5.79456 -2.98453 0
M  V30 4123 N 371.003 -0.499398 -1.49478 0
M  V30 4124 C 371.95 0.279881 -2.29097 0
M  V30 4125 C 372.92 0.961805 -1.3542 0
M  V30 4126 O 374.105 0.968777 -1.64376 0
M  V30 4127 C 371.245 1.33932 -3.18051 0
M  V30 4128 C 370.358 0.669333 -4.26783 0
M  V30 4129 C 369.493 1.70907 -5.02955 0
M  V30 4130 C 368.532 1.02087 -6.03527 0
M  V30 4131 N 367.669 2.00474 -6.7287 0
M  V30 4132 H 372.509 -0.405317 -2.95231 0
M  V30 4133 H 370.046 -0.211726 -1.45568 0
M  V30 4134 H 372.004 1.96553 -3.67998 0
M  V30 4135 H 370.634 1.9933 -2.53904 0
M  V30 4136 H 369.686 -0.0701234 -3.80335 0
M  V30 4137 H 370.998 0.127503 -4.98637 0
M  V30 4138 H 370.152 2.41037 -5.56764 0
M  V30 4139 H 368.891 2.28476 -4.30871 0
M  V30 4140 H 367.896 0.305338 -5.48951 0
M  V30 4141 H 369.121 0.451708 -6.77596 0
M  V30 4142 H 367.067 2.57007 -6.03559 0
M  V30 4143 H 366.984 1.51353 -7.40694 0
M  V30 4144 H 368.252 2.69897 -7.31284 0
M  V30 4145 N 372.481 1.55866 -0.233164 0
M  V30 4146 C 373.444 2.1953 0.658715 0
M  V30 4147 C 374.444 1.16053 1.11303 0
M  V30 4148 O 375.634 1.41218 1.01996 0
M  V30 4149 C 372.766 2.82791 1.90373 0
M  V30 4150 H 373.959 2.99721 0.10347 0
M  V30 4151 H 371.512 1.56291 0.0164245 0
M  V30 4152 H 372.247 2.06501 2.50056 0
M  V30 4153 H 372.032 3.58578 1.58632 0
M  V30 4154 H 373.522 3.31556 2.53891 0
M  V30 4155 N 373.959 -0.0401083 1.57549 0
M  V30 4156 C 375.375 -0.395556 1.54621 0
M  V30 4157 C 375.575 -1.77281 0.957799 0
M  V30 4158 O 374.631 -2.45888 0.574031 0
M  V30 4159 C 375.944 -0.307535 2.99123 0
M  V30 4160 C 377.492 -0.385425 3.10618 0
M  V30 4161 C 377.967 -0.326973 4.56831 0
M  V30 4162 N 379.458 -0.386102 4.61588 0
M  V30 4163 C 380.193 -0.363591 5.72246 0
M  V30 4164 N 379.689 -0.29402 6.92176 0
M  V30 4165 N 381.482 -0.412503 5.60584 0
M  V30 4166 H 373.633 0.861325 1.94152 0
M  V30 4167 H 375.896 0.326445 0.890021 0
M  V30 4168 H 375.602 0.638461 3.45856 0
M  V30 4169 H 375.476 -1.10552 3.60636 0
M  V30 4170 H 377.863 -1.32185 2.63839 0
M  V30 4171 H 377.944 0.44171 2.51957 0
M  V30 4172 H 377.588 0.605738 5.04275 0
M  V30 4173 H 377.518 -1.17207 5.13391 0
M  V30 4174 H 380.009 -0.442832 3.75296 0
M  V30 4175 H 380.322 -0.28164 7.72287 0
M  V30 4176 H 378.667 -0.260232 6.94513 0
M  V30 4177 H 381.858 -0.464769 4.65787 0
M  V30 4178 H 382.031 -0.391492 6.46816 0
M  V30 4179 N 375.437 -1.54477 -0.31217 0
M  V30 4180 C 376.853 -1.45442 -0.657185 0
M  V30 4181 C 377.053 -0.63653 -1.91182 0
M  V30 4182 O 376.109 -0.139815 -2.52113 0
M  V30 4183 C 377.422 -2.89287 -0.82058 0
M  V30 4184 C 378.97 -2.9926 -0.917188 0
M  V30 4185 C 379.445 -4.44279 -1.11267 0
M  V30 4186 N 380.936 -4.4794 -1.17914 0
M  V30 4187 C 381.671 -5.57318 -1.34848 0
M  V30 4188 N 381.167 -6.76642 -1.48752 0
M  V30 4189 N 382.96 -5.44986 -1.37647 0
M  V30 4190 H 375.111 -2.06129 0.512313 0
M  V30 4191 H 377.374 -0.933088 0.167485 0
M  V30 4192 H 377.08 -3.51687 0.0302604 0
M  V30 4193 H 376.954 -3.36061 -1.71298 0
M  V30 4194 H 379.341 -2.36981 -1.75852 0
M  V30 4195 H 379.422 -2.558 -0.00101257 0
M  V30 4196 H 379.066 -5.07149 -0.27614 0
M  V30 4197 H 378.996 -4.85359 -2.04289 0
M  V30 4198 H 381.487 -3.61969 -1.08567 0
M  V30 4199 H 381.8 -7.55758 -1.61397 0
M  V30 4200 H 380.145 -6.79529 -1.45828 0
M  V30 4201 H 383.336 -4.50715 -1.26388 0
M  V30 4202 H 383.509 -6.3028 -1.50501 0
M  V30 4203 N 376.915 0.57481 -1.46744 0
M  V30 4204 C 377.878 1.66533 -1.57478 0
M  V30 4205 C 378.878 1.54338 -0.451263 0
M  V30 4206 O 380.068 1.58814 -0.715813 0
M  V30 4207 C 377.2 3.05999 -1.50259 0
M  V30 4208 H 378.393 1.58372 -2.54673 0
M  V30 4209 H 375.946 0.793301 -1.34672 0
M  V30 4210 H 376.681 3.19709 -0.543725 0
M  V30 4211 H 376.466 3.16259 -2.31781 0
M  V30 4212 H 377.956 3.8537 -1.60872 0
M  V30 4213 N 378.394 1.34581 0.820102 0
M  V30 4214 C 379.324 1.29038 1.94606 0
M  V30 4215 C 380.305 0.1673 1.69275 0
M  V30 4216 O 381.49 0.360112 1.90832 0
M  V30 4217 C 378.62 1.04793 3.31113 0
M  V30 4218 C 377.574 2.13597 3.70891 0
M  V30 4219 C 376.9 1.74537 5.05412 0
M  V30 4220 C 378.2 3.55451 3.8269 0
M  V30 4221 H 379.894 2.23248 1.99501 0
M  V30 4222 H 377.44 1.0747 0.958449 0
M  V30 4223 H 379.393 0.995592 4.0947 0
M  V30 4224 H 378.117 0.0702565 3.26524 0
M  V30 4225 H 376.776 2.17905 2.9481 0
M  V30 4226 H 376.424 0.754226 4.97313 0
M  V30 4227 H 376.124 2.47361 5.32997 0
M  V30 4228 H 377.648 1.70803 5.86224 0
M  V30 4229 H 379.062 3.5354 4.51312 0
M  V30 4230 H 377.459 4.26922 4.21732 0
M  V30 4231 H 378.529 3.92587 2.84611 0
M  V30 4232 N 379.872 -1.04064 1.18357 0
M  V30 4233 C 380.804 -2.12114 0.868358 0
M  V30 4234 C 381.817 -1.62247 -0.134045 0
M  V30 4235 O 383.006 -1.78253 0.0937933 0
M  V30 4236 C 380.106 -3.37773 0.276132 0
M  V30 4237 C 379.279 -4.16874 1.3242 0
M  V30 4238 C 378.338 -5.20861 0.747662 0
M  V30 4239 O 377.364 -5.51141 1.42239 0
M  V30 4240 N 378.566 -5.78715 -0.454823 0
M  V30 4241 H 381.331 -2.39748 1.79836 0
M  V30 4242 H 378.892 -1.20258 1.08396 0
M  V30 4243 H 380.884 -4.04513 -0.123133 0
M  V30 4244 H 379.454 -3.07581 -0.557895 0
M  V30 4245 H 378.674 -3.45456 1.89878 0
M  V30 4246 H 379.962 -4.66516 2.03078 0
M  V30 4247 H 379.36 -5.56415 -1.02073 0
M  V30 4248 H 377.917 -6.46921 -0.79601 0
M  V30 4249 N 381.35 -0.985608 -1.22978 0
M  V30 4250 C 382.766 -0.695104 -1.43668 0
M  V30 4251 C 382.966 0.736866 -1.87543 0
M  V30 4252 O 382.022 1.50868 -2.02473 0
M  V30 4253 C 383.335 -1.69447 -2.48412 0
M  V30 4254 C 384.883 -1.70909 -2.62219 0
M  V30 4255 C 385.358 -2.6969 -3.70178 0
M  V30 4256 N 386.849 -2.6824 -3.77626 0
M  V30 4257 C 387.584 -3.41339 -4.60733 0
M  V30 4258 N 387.08 -4.24015 -5.4789 0
M  V30 4259 N 388.873 -3.30079 -4.54977 0
M  V30 4260 H 381.024 -1.91054 -0.928016 0
M  V30 4261 H 383.287 -0.823553 -0.469536 0
M  V30 4262 H 382.993 -2.7188 -2.23102 0
M  V30 4263 H 382.867 -1.48147 -3.46889 0
M  V30 4264 H 385.254 -0.691785 -2.86877 0
M  V30 4265 H 385.335 -1.96276 -1.6404 0
M  V30 4266 H 384.979 -3.71566 -3.46268 0
M  V30 4267 H 384.909 -2.41595 -4.67909 0
M  V30 4268 H 387.4 -2.08243 -3.15346 0
M  V30 4269 H 387.713 -4.76636 -6.08308 0
M  V30 4270 H 386.058 -4.28104 -5.47496 0
M  V30 4271 H 389.249 -2.64937 -3.85909 0
M  V30 4272 H 389.422 -3.87308 -5.19516 0
M  V30 4273 N 382.828 1.3818 -0.7579 0
M  V30 4274 C 384.244 1.5353 -0.435972 0
M  V30 4275 C 384.444 1.71961 1.05032 0
M  V30 4276 O 383.5 1.73307 1.83633 0
M  V30 4277 C 384.813 2.73989 -1.23898 0
M  V30 4278 C 386.361 2.87841 -1.22949 0
M  V30 4279 C 386.836 4.11266 -2.01554 0
M  V30 4280 N 388.327 4.18352 -1.98837 0
M  V30 4281 C 389.062 5.12856 -2.5645 0
M  V30 4282 N 388.558 6.13005 -3.22794 0
M  V30 4283 N 390.351 5.05238 -2.46356 0
M  V30 4284 H 382.502 1.24467 -1.7211 0
M  V30 4285 H 384.765 0.604982 -0.729864 0
M  V30 4286 H 384.471 2.66789 -2.29165 0
M  V30 4287 H 384.345 3.67294 -0.858764 0
M  V30 4288 H 386.732 2.9452 -0.184854 0
M  V30 4289 H 386.813 1.95534 -1.64924 0
M  V30 4290 H 386.457 4.05349 -3.06031 0
M  V30 4291 H 386.387 5.02661 -1.5697 0
M  V30 4292 H 388.878 3.46628 -1.50524 0
M  V30 4293 H 389.191 6.81619 -3.64165 0
M  V30 4294 H 387.536 6.13325 -3.2689 0
M  V30 4295 H 390.727 4.25938 -1.9415 0
M  V30 4296 H 390.9 5.78707 -2.91552 0
M  V30 4297 N 384.306 0.507319 1.49211 0
M  V30 4298 C 385.238 -0.304532 2.27168 0
M  V30 4299 C 386.251 -0.924956 1.33972 0
M  V30 4300 O 387.44 -0.807227 1.59205 0
M  V30 4301 C 384.54 -1.44431 3.06583 0
M  V30 4302 C 383.713 -0.930026 4.27398 0
M  V30 4303 C 382.772 -1.94817 4.88807 0
M  V30 4304 O 381.798 -1.51418 5.4869 0
M  V30 4305 N 383 -3.279 4.79022 0
M  V30 4306 H 385.765 0.36395 2.97482 0
M  V30 4307 H 383.326 0.340249 1.58284 0
M  V30 4308 H 385.318 -2.12311 3.44537 0
M  V30 4309 H 383.888 -2.01684 2.38835 0
M  V30 4310 H 383.108 -0.0759244 3.94127 0
M  V30 4311 H 384.396 -0.564932 5.05654 0
M  V30 4312 H 383.794 -3.65843 4.3148 0
M  V30 4313 H 382.351 -3.91476 5.21142 0
M  V30 4314 N 385.784 -1.5574 0.241426 0
M  V30 4315 C 386.694 -2.2479 -0.671305 0
M  V30 4316 C 387.71 -1.26217 -1.19772 0
M  V30 4317 O 388.886 -1.59079 -1.23514 0
M  V30 4318 C 385.951 -2.92966 -1.85396 0
M  V30 4319 C 385.012 -4.06935 -1.36756 0
M  V30 4320 C 384.245 -4.71851 -2.49384 0
M  V30 4321 O 384.468 -4.35823 -3.67987 0
M  V30 4322 O 383.402 -5.60467 -2.19454 0
M  V30 4323 H 387.228 -3.0349 -0.112966 0
M  V30 4324 H 384.813 -1.49397 0.0101513 0
M  V30 4325 H 386.695 -3.35927 -2.54423 0
M  V30 4326 H 385.37 -2.17211 -2.40002 0
M  V30 4327 H 384.277 -3.68503 -0.644726 0
M  V30 4328 H 385.61 -4.84492 -0.867647 0
M  V30 4329 N 387.262 0.0317525 -1.57568 0
M  V30 4330 C 388.209 1.0332 -2.06382 0
M  V30 4331 C 389.179 1.36082 -0.952414 0
M  V30 4332 O 390.364 1.46466 -1.2228 0
M  V30 4333 C 387.504 2.32989 -2.54578 0
M  V30 4334 C 386.617 2.0641 -3.79498 0
M  V30 4335 C 385.752 3.2993 -4.16317 0
M  V30 4336 C 384.791 2.98893 -5.34162 0
M  V30 4337 N 383.928 4.14857 -5.66426 0
M  V30 4338 H 388.768 0.609982 -2.9169 0
M  V30 4339 H 386.305 0.289573 -1.44222 0
M  V30 4340 H 388.263 3.0875 -2.80587 0
M  V30 4341 H 386.893 2.73039 -1.7219 0
M  V30 4342 H 385.945 1.21158 -3.6059 0
M  V30 4343 H 387.257 1.79513 -4.65378 0
M  V30 4344 H 386.411 4.1406 -4.4344 0
M  V30 4345 H 385.15 3.59938 -3.29083 0
M  V30 4346 H 384.155 2.13164 -5.06795 0
M  V30 4347 H 385.38 2.70165 -6.23047 0
M  V30 4348 H 383.326 4.44821 -4.82151 0
M  V30 4349 H 383.243 3.91374 -6.4681 0
M  V30 4350 H 384.511 4.99868 -5.98124 0
M  V30 4351 N 388.74 1.54641 0.303973 0
M  V30 4352 C 389.965 1.78092 1.06292 0
M  V30 4353 C 390.39 0.537342 1.80262 0
M  V30 4354 O 389.748 -0.511993 1.7392 0
M  V30 4355 C 389.796 2.98612 2.02147 0
M  V30 4356 O 388.9 2.71528 3.10397 0
M  V30 4357 H 388.241 0.589548 0.305497 0
M  V30 4358 H 390.771 2.01716 0.3423 0
M  V30 4359 H 390.781 3.265 2.44667 0
M  V30 4360 H 389.456 3.88785 1.47714 0
M  V30 4361 H 388.033 2.54648 2.72413 0
M  V30 4362 N 390.218 -0.567019 1.47046 0
M  V30 4363 C 391.443 -1.3551 1.57009 0
M  V30 4364 C 391.868 -1.86841 0.217259 0
M  V30 4365 O 391.226 -1.62435 -0.805268 0
M  V30 4366 C 391.274 -2.50777 2.5912 0
M  V30 4367 O 390.378 -3.52706 2.13711 0
M  V30 4368 H 389.719 -0.402919 0.52778 0
M  V30 4369 H 392.249 -0.686241 1.92748 0
M  V30 4370 H 392.259 -2.97481 2.79229 0
M  V30 4371 H 390.934 -2.12771 3.57353 0
M  V30 4372 H 389.511 -3.12374 2.03659 0
M  V30 4373 N 391.696 -1.35014 -0.812953 0
M  V30 4374 C 392.628 -1.23262 -1.93233 0
M  V30 4375 C 393.641 -0.157371 -1.62038 0
M  V30 4376 O 394.83 -0.410096 -1.73725 0
M  V30 4377 C 391.93 -0.87392 -3.27438 0
M  V30 4378 C 391.103 -2.04622 -3.86586 0
M  V30 4379 C 390.162 -1.66432 -4.99186 0
M  V30 4380 O 389.188 -2.38222 -5.16951 0
M  V30 4381 N 390.39 -0.584248 -5.77552 0
M  V30 4382 H 393.155 -2.19699 -2.03844 0
M  V30 4383 H 390.716 -1.281 -0.99005 0
M  V30 4384 H 392.708 -0.600039 -4.00227 0
M  V30 4385 H 391.278 0.00057392 -3.126 0
M  V30 4386 H 390.498 -2.48427 -3.06068 0
M  V30 4387 H 391.786 -2.82999 -4.22835 0
M  V30 4388 H 391.184 0.0123526 -5.65699 0
M  V30 4389 H 389.741 -0.37013 -6.50748 0
M  V30 4390 N 393.175 1.03435 -1.18907 0
M  V30 4391 C 394.107 2.1165 -0.879595 0
M  V30 4392 C 395.12 1.62316 0.125439 0
M  V30 4393 O 396.309 1.78201 -0.103245 0
M  V30 4394 C 393.409 3.37622 -0.294042 0
M  V30 4395 C 392.582 4.16166 -1.34629 0
M  V30 4396 C 391.641 5.20457 -0.775274 0
M  V30 4397 O 390.667 5.50379 -1.4516 0
M  V30 4398 N 391.869 5.78949 0.424126 0
M  V30 4399 H 394.634 2.38791 -1.81105 0
M  V30 4400 H 392.195 1.19681 -1.09032 0
M  V30 4401 H 394.187 4.04572 0.101679 0
M  V30 4402 H 392.757 3.07873 0.541575 0
M  V30 4403 H 391.977 3.44444 -1.91707 0
M  V30 4404 H 393.265 4.65432 -2.05549 0
M  V30 4405 H 392.663 5.56948 0.991209 0
M  V30 4406 H 391.22 6.47334 0.761691 0
M  V30 4407 N 394.653 0.992116 1.22453 0
M  V30 4408 C 395.601 0.534644 2.26372 0
M  V30 4409 C 396.595 -0.414293 1.64256 0
M  V30 4410 O 397.801 -0.286899 1.77699 0
M  V30 4411 H 394.176 0.154502 0.735957 0
M  V30 4412 H 396.147 1.42256 2.62309 0
M  V30 4413 C 394.896 -0.135815 3.47435 0
M  V30 4414 H 394.219 0.585311 3.95492 0
M  V30 4415 H 395.659 -0.419374 4.21921 0
M  V30 4416 C 394.118 -1.37089 3.07747 0
M  V30 4417 O 394.648 -2.46629 3.17076 0
M  V30 4418 N 392.854 -1.24585 2.62539 0
M  V30 4419 H 392.401 -0.354542 2.55149 0
M  V30 4420 H 392.359 -2.07327 2.36353 0
M  V30 4421 N 396.131 -1.37776 0.765217 0
M  V30 4422 C 397.356 -2.04651 0.336537 0
M  V30 4423 C 397.781 -1.57337 -1.03086 0
M  V30 4424 O 397.139 -0.730621 -1.65927 0
M  V30 4425 C 397.187 -3.58577 0.381468 0
M  V30 4426 O 396.291 -4.07706 -0.62042 0
M  V30 4427 H 395.632 -0.64756 0.146838 0
M  V30 4428 H 398.162 -1.76221 1.03959 0
M  V30 4429 H 398.172 -4.07314 0.236448 0
M  V30 4430 H 396.847 -3.9237 1.37907 0
M  V30 4431 H 395.424 -3.70306 -0.439056 0
M  V30 4432 N 397.609 -0.515225 -1.4894 0
M  V30 4433 C 398.857 0.0241671 -2.02086 0
M  V30 4434 C 399.178 1.3616 -1.3959 0
M  V30 4435 O 398.448 1.87841 -0.556121 0
M  V30 4436 H 397.028 0.0119203 -0.746905 0
M  V30 4437 H 399.69 -0.675702 -1.82812 0
M  V30 4438 H 398.786 0.143385 -3.1177 0
M  V30 4439 N 399.087 1.5561 -0.249682 0
M  V30 4440 C 400.05 2.20217 0.635394 0
M  V30 4441 C 401.05 1.17227 1.10066 0
M  V30 4442 O 402.24 1.42292 1.00492 0
M  V30 4443 C 399.372 2.84794 1.87363 0
M  V30 4444 H 400.565 2.99814 0.0716752 0
M  V30 4445 H 398.118 1.563 -0.000153234 0
M  V30 4446 H 398.853 2.09142 2.47851 0
M  V30 4447 H 398.638 3.60241 1.5482 0
M  V30 4448 H 400.128 3.3423 2.5036 0
M  V30 4449 N 400.565 -0.0233959 1.57583 0
M  V30 4450 C 401.981 -0.379134 1.55031 0
M  V30 4451 C 402.181 -1.76255 0.976548 0
M  V30 4452 O 401.237 -2.45266 0.600078 0
M  V30 4453 C 402.55 -0.275792 2.99433 0
M  V30 4454 C 404.098 -0.352458 3.11009 0
M  V30 4455 C 404.573 -0.278501 4.57152 0
M  V30 4456 N 406.064 -0.337123 4.61972 0
M  V30 4457 C 406.799 -0.302876 5.726 0
M  V30 4458 N 406.295 -0.220589 6.92449 0
M  V30 4459 N 408.088 -0.353023 5.6099 0
M  V30 4460 H 400.239 0.881869 1.93227 0
M  V30 4461 H 402.502 0.335867 0.886509 0
M  V30 4462 H 402.208 0.675108 3.4516 0
M  V30 4463 H 402.082 -1.06721 3.61788 0
M  V30 4464 H 404.469 -1.29379 2.65226 0
M  V30 4465 H 404.55 0.468409 2.51475 0
M  V30 4466 H 404.194 0.659189 5.03604 0
M  V30 4467 H 404.124 -1.11755 5.14605 0
M  V30 4468 H 406.615 -0.403002 3.75745 0
M  V30 4469 H 406.928 -0.199713 7.72542 0
M  V30 4470 H 405.273 -0.186555 6.9475 0
M  V30 4471 H 408.464 -0.415339 4.66254 0
M  V30 4472 H 408.637 -0.322866 6.47195 0
M  V30 4473 N 402.043 -1.548 -0.295768 0
M  V30 4474 C 402.973 -1.89115 -1.36959 0
M  V30 4475 C 403.954 -0.75059 -1.52644 0
M  V30 4476 O 405.139 -1.00678 -1.66065 0
M  V30 4477 C 402.269 -2.14307 -2.73295 0
M  V30 4478 C 401.223 -3.30151 -2.72368 0
M  V30 4479 C 400.549 -3.40772 -4.12042 0
M  V30 4480 C 401.849 -4.67126 -2.33646 0
M  V30 4481 H 403.543 -2.79053 -1.08488 0
M  V30 4482 H 401.089 -1.34266 -0.520443 0
M  V30 4483 H 403.042 -2.36898 -3.48507 0
M  V30 4484 H 401.766 -1.21145 -3.03301 0
M  V30 4485 H 400.425 -3.0749 -1.99613 0
M  V30 4486 H 400.073 -2.45117 -4.39234 0
M  V30 4487 H 399.773 -4.18645 -4.12322 0
M  V30 4488 H 401.297 -3.6563 -4.89027 0
M  V30 4489 H 402.711 -4.89414 -2.98575 0
M  V30 4490 H 401.108 -5.47751 -2.45129 0
M  V30 4491 H 402.178 -4.67489 -1.28772 0
M  V30 4492 N 403.521 0.559213 -1.47345 0
M  V30 4493 C 404.932 1.14134 -1.47751 0
M  V30 4494 C 405.283 1.94834 -0.231103 0
M  V30 4495 O 404.408 2.05957 0.664137 0
M  V30 4496 C 405.003 2.07653 -2.67705 0
M  V30 4497 C 403.562 2.61141 -2.71076 0
M  V30 4498 C 402.709 1.3748 -2.40821 0
M  V30 4499 H 405.66 0.345917 -1.54884 0
M  V30 4500 H 405.681 2.91497 -2.44561 0
M  V30 4501 H 405.193 1.4889 -3.58404 0
M  V30 4502 H 403.294 3.23707 -1.84511 0
M  V30 4503 H 403.407 3.02272 -3.7171 0
M  V30 4504 H 401.771 1.68086 -1.91362 0
M  V30 4505 H 402.554 0.805135 -3.33725 0
M  V30 4506 N 404.999 1.35443 0.805782 0
M  V30 4507 C 406.247 1.28507 1.55982 0
M  V30 4508 C 406.568 -0.140046 1.94496 0
M  V30 4509 O 405.838 -1.07666 1.63661 0
M  V30 4510 H 404.418 0.472676 0.578434 0
M  V30 4511 H 407.08 1.69555 0.961098 0
M  V30 4512 H 406.176 1.90148 2.47488 0
M  V30 4513 N 406.477 -1.02803 1.19454 0
M  V30 4514 C 407.407 -2.12999 0.956758 0
M  V30 4515 C 408.388 -1.69743 -0.110188 0
M  V30 4516 O 409.573 -1.94148 0.0450038 0
M  V30 4517 C 406.703 -3.43746 0.495553 0
M  V30 4518 C 405.657 -4.00688 1.50443 0
M  V30 4519 C 404.983 -5.27067 0.900275 0
M  V30 4520 C 406.283 -4.35397 2.8849 0
M  V30 4521 H 407.977 -2.33148 1.87836 0
M  V30 4522 H 405.523 -1.12045 0.904539 0
M  V30 4523 H 407.476 -4.2021 0.316493 0
M  V30 4524 H 406.2 -3.23321 -0.461646 0
M  V30 4525 H 404.859 -3.2632 1.67065 0
M  V30 4526 H 404.507 -5.02959 -0.064503 0
M  V30 4527 H 404.207 -5.66127 1.57397 0
M  V30 4528 H 405.731 -6.06196 0.73203 0
M  V30 4529 H 407.145 -5.02795 2.75446 0
M  V30 4530 H 405.542 -4.85541 3.52661 0
M  V30 4531 H 406.612 -3.44662 3.41081 0
M  V30 4532 N 407.956 -0.998596 -1.21925 0
M  V30 4533 C 408.904 -0.546641 -2.26085 0
M  V30 4534 C 409.898 0.405576 -1.64473 0
M  V30 4535 O 411.104 0.277471 -1.77849 0
M  V30 4536 H 407.479 -0.158403 -0.735127 0
M  V30 4537 H 409.45 -1.43645 -2.61551 0
M  V30 4538 C 408.199 0.117388 -3.47502 0
M  V30 4539 H 407.522 -0.606277 -3.95176 0
M  V30 4540 H 408.962 0.396993 -4.22137 0
M  V30 4541 C 407.421 1.35455 -3.0847 0
M  V30 4542 O 407.951 2.44944 -3.18379 0
M  V30 4543 N 406.157 1.23191 -2.63196 0
M  V30 4544 H 405.704 0.341006 -2.55333 0
M  V30 4545 H 405.662 2.06071 -2.37449 0
M  V30 4546 N 409.434 1.37368 -0.772513 0
M  V30 4547 C 410.381 2.30262 -0.157488 0
M  V30 4548 C 411.351 1.51137 0.688965 0
M  V30 4549 O 412.536 1.79704 0.641168 0
M  V30 4550 C 409.676 3.37611 0.715045 0
M  V30 4551 C 408.789 4.31746 -0.148098 0
M  V30 4552 C 407.924 5.26171 0.729213 0
M  V30 4553 C 406.963 6.11948 -0.136418 0
M  V30 4554 N 406.1 6.98613 0.698914 0
M  V30 4555 H 410.94 2.82277 -0.955179 0
M  V30 4556 H 408.477 1.38957 -0.482631 0
M  V30 4557 H 410.435 3.98479 1.23575 0
M  V30 4558 H 409.065 2.86959 1.47833 0
M  V30 4559 H 408.117 3.72178 -0.786613 0
M  V30 4560 H 409.429 4.92084 -0.81579 0
M  V30 4561 H 408.583 5.92247 1.31637 0
M  V30 4562 H 407.322 4.66246 1.43059 0
M  V30 4563 H 406.327 5.4485 -0.736102 0
M  V30 4564 H 407.552 6.73945 -0.835134 0
M  V30 4565 H 405.498 6.41215 1.38489 0
M  V30 4566 H 405.415 7.55948 0.0885358 0
M  V30 4567 H 406.683 7.69077 1.27044 0
M  V30 4568 N 410.912 0.523116 1.48665 0
M  V30 4569 C 411.86 -0.256859 2.31177 0
M  V30 4570 C 412.854 -0.94199 1.40794 0
M  V30 4571 O 414.06 -0.867157 1.57735 0
M  V30 4572 H 410.435 -0.1017 0.745091 0
M  V30 4573 H 412.406 0.458739 2.94853 0
M  V30 4574 C 411.155 -1.29503 3.22683 0
M  V30 4575 H 410.478 -0.777248 3.92172 0
M  V30 4576 H 411.918 -1.81233 3.83315 0
M  V30 4577 C 410.377 -2.32501 2.43813 0
M  V30 4578 O 410.907 -3.3881 2.15803 0
M  V30 4579 N 409.113 -2.05538 2.05432 0
M  V30 4580 H 408.66 -1.19104 2.28412 0
M  V30 4581 H 408.618 -2.74676 1.52973 0
M  V30 4582 N 412.39 -1.55475 0.257931 0
M  V30 4583 C 413.322 -2.19192 -0.669881 0
M  V30 4584 C 414.335 -1.17148 -1.1305 0
M  V30 4585 O 415.524 -1.43959 -1.05537 0
M  V30 4586 C 412.624 -2.79016 -1.92363 0
M  V30 4587 C 411.797 -4.06586 -1.61265 0
M  V30 4588 C 410.856 -4.50622 -2.7171 0
M  V30 4589 O 409.882 -5.16765 -2.38627 0
M  V30 4590 N 411.084 -4.19325 -4.01431 0
M  V30 4591 H 413.849 -2.99441 -0.124635 0
M  V30 4592 H 411.41 -1.6171 0.0783311 0
M  V30 4593 H 413.402 -3.05427 -2.65511 0
M  V30 4594 H 411.972 -2.0286 -2.37837 0
M  V30 4595 H 411.192 -3.87646 -0.715811 0
M  V30 4596 H 412.48 -4.89737 -1.37967 0
M  V30 4597 H 411.878 -3.66247 -4.31138 0
M  V30 4598 H 410.435 -4.50547 -4.7101 0
M  V30 4599 N 413.868 0.0150385 -1.57593 0
M  V30 4600 C 415.093 0.718067 -1.94573 0
M  V30 4601 C 415.518 1.6734 -0.859005 0
M  V30 4602 O 414.876 1.80362 0.184147 0
M  V30 4603 C 414.924 1.43918 -3.30636 0
M  V30 4604 O 414.028 2.55299 -3.23876 0
M  V30 4605 H 413.369 0.192125 -0.635597 0
M  V30 4606 H 415.899 -0.0336708 -2.04572 0
M  V30 4607 H 415.909 1.80598 -3.65853 0
M  V30 4608 H 414.584 0.738619 -4.09289 0
M  V30 4609 H 413.161 2.21058 -3.00312 0
M  V30 4610 N 415.346 1.54954 0.287554 0
M  V30 4611 C 416.278 1.83224 1.37701 0
M  V30 4612 C 417.291 0.715898 1.46215 0
M  V30 4613 O 418.48 0.993565 1.48292 0
M  V30 4614 C 415.58 1.96723 2.75959 0
M  V30 4615 C 414.753 3.27253 2.90215 0
M  V30 4616 C 413.812 3.30998 4.09056 0
M  V30 4617 O 412.838 4.04457 4.00503 0
M  V30 4618 N 414.04 2.57353 5.20336 0
M  V30 4619 H 416.805 2.77254 1.138 0
M  V30 4620 H 414.366 1.54694 0.477652 0
M  V30 4621 H 416.358 1.96615 3.5373 0
M  V30 4622 H 414.928 1.09626 2.92747 0
M  V30 4623 H 414.148 3.40022 1.99447 0
M  V30 4624 H 415.436 4.13365 2.96659 0
M  V30 4625 H 414.834 1.97327 5.30169 0
M  V30 4626 H 413.391 2.62984 5.96391 0
M  V30 4627 N 416.824 -0.551391 1.4764 0
M  V30 4628 C 418.049 -1.33837 1.58437 0
M  V30 4629 C 418.474 -1.866 0.237063 0
M  V30 4630 O 417.832 -1.6328 -0.787994 0
M  V30 4631 C 417.88 -2.48014 2.61766 0
M  V30 4632 O 416.984 -3.50419 2.1744 0
M  V30 4633 H 416.325 -0.397299 0.532024 0
M  V30 4634 H 418.855 -0.665759 1.93465 0
M  V30 4635 H 418.865 -2.94503 2.82369 0
M  V30 4636 H 417.54 -2.08969 3.5959 0
M  V30 4637 H 416.117 -3.10196 2.06961 0
M  V30 4638 N 418.302 -1.35869 -0.798587 0
M  V30 4639 C 419.234 -1.25305 -1.91915 0
M  V30 4640 C 420.247 -0.174548 -1.61862 0
M  V30 4641 O 421.436 -0.428499 -1.73281 0
M  V30 4642 C 418.536 -0.9086 -3.26493 0
M  V30 4643 C 417.709 -2.08711 -3.84394 0
M  V30 4644 C 416.768 -1.71717 -4.97393 0
M  V30 4645 O 415.794 -2.43692 -5.14396 0
M  V30 4646 N 416.996 -0.645473 -5.769 0
M  V30 4647 H 419.761 -2.21849 -2.01502 0
M  V30 4648 H 417.322 -1.29143 -0.976408 0
M  V30 4649 H 419.314 -0.642455 -3.99568 0
M  V30 4650 H 417.884 -0.0325815 -3.12583 0
M  V30 4651 H 417.104 -2.51659 -3.03416 0
M  V30 4652 H 418.392 -2.87468 -4.19809 0
M  V30 4653 H 417.79 -0.047648 -5.6568 0
M  V30 4654 H 416.347 -0.43913 -6.50319 0
M  V30 4655 N 419.78 1.02168 -1.19998 0
M  V30 4656 C 421.057 1.72816 -0.916191 0
M  V30 4657 C 421.437 2.03081 0.576325 0
M  V30 4658 O 420.785 1.69122 1.53656 0
M  V30 4659 C 420.995 2.9997 -1.78378 0
M  V30 4660 C 422.343 3.73336 -2.02251 0
M  V30 4661 O 423.367 3.09914 -1.75589 0
M  V30 4662 O 422.226 4.87371 -2.47249 0
M  V30 4663 H 419.32 0.752924 -0.342103 0
M  V30 4664 H 421.866 1.08062 -1.30846 0
M  V30 4665 H 420.638 2.73888 -2.79466 0
M  V30 4666 H 420.261 3.72464 -1.39126 0
M  V30 4667 N 421.258 1.00505 1.21394 0
M  V30 4668 C 422.221 0.570459 2.21987 0
M  V30 4669 C 423.221 -0.353211 1.56873 0
M  V30 4670 O 424.411 -0.14349 1.73608 0
M  V30 4671 C 421.543 -0.168555 3.40483 0
M  V30 4672 H 422.736 1.46021 2.6195 0
M  V30 4673 H 420.289 0.793565 1.34656 0
M  V30 4674 H 421.024 -1.07374 3.06009 0
M  V30 4675 H 420.809 0.494823 3.88965 0
M  V30 4676 H 422.299 -0.460362 4.15055 0
M  V30 4677 N 422.737 -1.36956 0.779787 0
M  V30 4678 C 423.667 -2.32761 0.185651 0
M  V30 4679 C 424.648 -1.56177 -0.673989 0
M  V30 4680 O 425.833 -1.84378 -0.609797 0
M  V30 4681 C 422.963 -3.40418 -0.687964 0
M  V30 4682 C 421.917 -4.27941 0.0710102 0
M  V30 4683 C 421.243 -5.26681 -0.922573 0
M  V30 4684 C 422.543 -5.07006 1.25467 0
M  V30 4685 H 424.237 -2.82698 0.986008 0
M  V30 4686 H 421.783 -1.3592 0.475592 0
M  V30 4687 H 423.736 -4.06423 -1.11348 0
M  V30 4688 H 422.46 -2.89025 -1.52093 0
M  V30 4689 H 421.119 -3.63478 0.47739 0
M  V30 4690 H 420.767 -4.71565 -1.7503 0
M  V30 4691 H 420.467 -5.86103 -0.419237 0
M  V30 4692 H 421.991 -5.9556 -1.34686 0
M  V30 4693 H 423.405 -5.66105 0.905401 0
M  V30 4694 H 421.802 -5.75793 1.69063 0
M  V30 4695 H 422.872 -4.3921 2.05481 0
M  V30 4696 N 424.215 -0.530993 -1.48385 0
M  V30 4697 C 425.461 0.00274135 -2.028 0
M  V30 4698 C 425.794 1.33838 -1.40716 0
M  V30 4699 O 425.069 1.86465 -0.553277 0
M  V30 4700 C 425.352 0.123676 -3.59888 0
M  V30 4701 C 425.205 -1.2372 -4.3245 0
M  V30 4702 C 426.524 0.849967 -4.31814 0
M  V30 4703 H 423.643 -0.000477758 -0.737 0
M  V30 4704 H 426.285 -0.688217 -1.77098 0
M  V30 4705 H 424.435 0.712157 -3.81917 0
M  V30 4706 H 426.107 -1.86687 -4.21836 0
M  V30 4707 H 424.35 -1.81882 -3.93829 0
M  V30 4708 H 425.021 -1.10557 -5.40815 0
M  V30 4709 H 427.497 0.350572 -4.14621 0
M  V30 4710 H 426.373 0.903486 -5.41413 0
M  V30 4711 H 426.634 1.90047 -3.99167 0
M  V30 4712 N 425.693 1.55336 -0.266172 0
M  V30 4713 C 426.623 2.25146 0.618981 0
M  V30 4714 C 427.604 1.23845 1.16604 0
M  V30 4715 O 428.789 1.52544 1.20183 0
M  V30 4716 C 425.919 2.96572 1.80728 0
M  V30 4717 C 424.873 4.04726 1.39215 0
M  V30 4718 C 424.199 4.63678 2.66283 0
M  V30 4719 C 425.499 5.19407 0.548942 0
M  V30 4720 H 427.193 2.99377 0.0368116 0
M  V30 4721 H 424.739 1.43991 0.0162651 0
M  V30 4722 H 426.692 3.44116 2.43232 0
M  V30 4723 H 425.416 2.19861 2.41514 0
M  V30 4724 H 424.075 3.57979 0.790351 0
M  V30 4725 H 423.723 3.83646 3.25308 0
M  V30 4726 H 423.423 5.367 2.39222 0
M  V30 4727 H 424.947 5.13967 3.29651 0
M  V30 4728 H 426.361 5.63059 1.07876 0
M  V30 4729 H 424.758 5.98936 0.373593 0
M  V30 4730 H 425.828 4.8295 -0.434394 0
M  V30 4731 N 427.171 -0.0066808 1.57599 0
M  V30 4732 C 428.081 -1.01671 2.11424 0
M  V30 4733 C 429.097 -1.38143 1.05795 0
M  V30 4734 O 430.273 -1.47011 1.37658 0
M  V30 4735 C 427.338 -2.29192 2.60139 0
M  V30 4736 C 426.399 -1.99094 3.80342 0
M  V30 4737 C 425.632 -3.20535 4.26724 0
M  V30 4738 O 425.855 -4.3199 3.72479 0
M  V30 4739 O 424.789 -3.04924 5.18946 0
M  V30 4740 H 428.615 -0.589181 2.9793 0
M  V30 4741 H 426.2 -0.225091 1.47695 0
M  V30 4742 H 428.082 -3.0412 2.917 0
M  V30 4743 H 426.757 -2.71195 1.76733 0
M  V30 4744 H 425.664 -1.21663 3.53764 0
M  V30 4745 H 426.997 -1.61931 4.648 0
M  V30 4746 N 428.649 -1.55105 -0.279332 0
M  V30 4747 C 429.926 -1.66119 -1.03267 0
M  V30 4748 C 430.306 -0.523525 -2.04505 0
M  V30 4749 O 429.654 0.477194 -2.23462 0
M  V30 4750 C 429.864 -3.05067 -1.69515 0
M  V30 4751 C 431.212 -3.62606 -2.20912 0
M  V30 4752 O 432.236 -3.07659 -1.79512 0
M  V30 4753 O 431.095 -4.58861 -2.96831 0
M  V30 4754 H 428.189 -0.674429 -0.478618 0
M  V30 4755 H 430.735 -1.67446 -0.275694 0
M  V30 4756 H 429.507 -3.79311 -0.9612 0
M  V30 4757 H 429.13 -3.07611 -2.51915 0
M  V30 4758 N 430.127 0.543554 -1.4793 0
M  V30 4759 C 431.373 1.30201 -1.55485 0
M  V30 4760 C 431.706 1.92925 -0.222201 0
M  V30 4761 O 430.981 1.78586 0.77053 0
M  V30 4762 C 431.264 2.40174 -2.68307 0
M  V30 4763 C 431.117 1.8223 -4.11233 0
M  V30 4764 C 432.436 3.42024 -2.76961 0
M  V30 4765 H 429.555 0.472036 -0.565996 0
M  V30 4766 H 432.197 0.606914 -1.80046 0
M  V30 4767 H 430.347 2.99463 -2.47495 0
M  V30 4768 H 432.019 1.27096 -4.43446 0
M  V30 4769 H 430.262 1.12832 -4.18869 0
M  V30 4770 H 430.933 2.61793 -4.85972 0
M  V30 4771 H 433.409 2.92672 -2.95774 0
M  V30 4772 H 432.285 4.16383 -3.57654 0
M  V30 4773 H 432.546 4.0173 -1.84568 0
M  V30 4774 N 431.605 1.3629 0.791371 0
M  V30 4775 C 432.515 1.32606 1.93527 0
M  V30 4776 C 433.531 0.228541 1.72493 0
M  V30 4777 O 434.707 0.460571 1.96063 0
M  V30 4778 C 431.772 1.11271 3.28359 0
M  V30 4779 C 430.833 2.3048 3.62185 0
M  V30 4780 C 430.066 2.10154 4.90583 0
M  V30 4781 O 430.289 1.07572 5.60165 0
M  V30 4782 O 429.223 2.97884 5.23019 0
M  V30 4783 H 433.049 2.28909 1.99585 0
M  V30 4784 H 430.634 1.16818 0.931344 0
M  V30 4785 H 432.516 1.01283 4.09047 0
M  V30 4786 H 431.191 0.180292 3.23198 0
M  V30 4787 H 430.098 2.46036 2.81811 0
M  V30 4788 H 431.431 3.22221 3.72068 0
M  V30 4789 N 433.083 -1.0153 1.20538 0
M  V30 4790 C 434.03 -2.10098 0.955383 0
M  V30 4791 C 435 -1.65702 -0.114878 0
M  V30 4792 O 436.185 -1.90776 0.0301118 0
M  V30 4793 C 433.325 -3.41236 0.514969 0
M  V30 4794 C 432.438 -3.99102 1.65353 0
M  V30 4795 C 431.573 -5.18306 1.16329 0
M  V30 4796 C 430.612 -5.68258 2.27485 0
M  V30 4797 N 429.749 -6.78722 1.7967 0
M  V30 4798 H 434.589 -2.30818 1.88486 0
M  V30 4799 H 432.126 -1.13189 0.939499 0
M  V30 4800 H 434.084 -4.16504 0.240935 0
M  V30 4801 H 432.714 -3.20585 -0.377512 0
M  V30 4802 H 431.766 -3.20918 2.04245 0
M  V30 4803 H 433.078 -4.32177 2.49047 0
M  V30 4804 H 432.232 -6.00782 0.845302 0
M  V30 4805 H 430.971 -4.86799 0.296254 0
M  V30 4806 H 429.976 -4.84385 2.60099 0
M  V30 4807 H 431.201 -6.01798 3.14667 0
M  V30 4808 H 429.147 -6.49042 0.95295 0
M  V30 4809 H 429.064 -7.10996 2.56944 0
M  V30 4810 H 430.332 -7.64759 1.50875 0
M  V30 4811 N 434.561 -1.01147 -1.20859 0
M  V30 4812 C 435.508 -0.577354 -2.23462 0
M  V30 4813 C 436.478 0.399922 -1.61214 0
M  V30 4814 O 437.663 0.300515 -1.88419 0
M  V30 4815 C 434.803 0.083372 -3.44999 0
M  V30 4816 C 433.916 -0.937856 -4.21697 0
M  V30 4817 C 433.051 -0.248717 -5.30617 0
M  V30 4818 C 432.09 -1.25705 -5.99053 0
M  V30 4819 N 431.227 -0.594939 -6.99575 0
M  V30 4820 H 436.067 -1.45695 -2.59956 0
M  V30 4821 H 433.604 -0.729428 -1.27741 0
M  V30 4822 H 435.562 0.483535 -4.14388 0
M  V30 4823 H 434.192 0.926645 -3.09214 0
M  V30 4824 H 433.244 -1.45622 -3.51423 0
M  V30 4825 H 434.556 -1.70493 -4.68757 0
M  V30 4826 H 433.71 0.207215 -6.06346 0
M  V30 4827 H 432.449 0.55071 -4.84581 0
M  V30 4828 H 431.454 -1.72343 -5.2209 0
M  V30 4829 H 432.679 -2.05767 -6.47176 0
M  V30 4830 H 430.625 0.184713 -6.5574 0
M  V30 4831 H 430.542 -1.30017 -7.44736 0
M  V30 4832 H 431.81 -0.162427 -7.79331 0
M  V30 4833 N 436.039 1.36541 -0.78704 0
M  V30 4834 C 436.986 2.30082 -0.181901 0
M  V30 4835 C 437.956 1.5186 0.672896 0
M  V30 4836 O 439.141 1.80374 0.622072 0
M  V30 4837 C 436.281 3.3835 0.679197 0
M  V30 4838 C 435.394 4.31565 -0.193882 0
M  V30 4839 C 434.529 5.26915 0.673364 0
M  V30 4840 C 433.568 6.11769 -0.201315 0
M  V30 4841 N 432.705 6.99315 0.624777 0
M  V30 4842 H 437.545 2.81248 -0.985064 0
M  V30 4843 H 435.082 1.38437 -0.497342 0
M  V30 4844 H 437.04 3.99767 1.19341 0
M  V30 4845 H 435.67 2.8851 1.44781 0
M  V30 4846 H 434.722 3.71323 -0.826044 0
M  V30 4847 H 436.034 4.91191 -0.867937 0
M  V30 4848 H 435.188 5.9361 1.25348 0
M  V30 4849 H 433.927 4.67737 1.38105 0
M  V30 4850 H 432.932 5.44039 -0.793849 0
M  V30 4851 H 434.157 6.73022 -0.906568 0
M  V30 4852 H 432.103 6.42648 1.3168 0
M  V30 4853 H 432.02 7.56 0.00835237 0
M  V30 4854 H 433.288 7.70382 1.18879 0
M  V30 4855 N 437.518 0.538854 1.48102 0
M  V30 4856 C 438.465 -0.219042 2.29758 0
M  V30 4857 C 439.435 -0.925562 1.37922 0
M  V30 4858 O 440.62 -0.924855 1.66886 0
M  V30 4859 C 437.76 -1.25452 3.2149 0
M  V30 4860 C 436.873 -0.555943 4.28408 0
M  V30 4861 C 436.008 -1.57512 5.0731 0
M  V30 4862 C 435.047 -0.860498 6.06021 0
M  V30 4863 N 434.184 -1.82564 6.77949 0
M  V30 4864 H 439.024 0.483449 2.94052 0
M  V30 4865 H 436.561 0.250247 1.44956 0
M  V30 4866 H 438.519 -1.86727 3.7308 0
M  V30 4867 H 437.149 -1.92528 2.591 0
M  V30 4868 H 436.201 0.170938 3.80016 0
M  V30 4869 H 437.513 0.00474616 4.988 0
M  V30 4870 H 436.667 -2.26191 5.62959 0
M  V30 4871 H 435.406 -2.16972 4.36778 0
M  V30 4872 H 434.411 -0.159686 5.49568 0
M  V30 4873 H 435.636 -0.271897 6.78555 0
M  V30 4874 H 433.582 -2.40915 6.10161 0
M  V30 4875 H 433.499 -1.31662 7.44447 0
M  V30 4876 H 434.767 -2.50414 7.38182 0
M  V30 4877 N 438.996 -1.55193 0.274407 0
M  V30 4878 C 439.943 -2.225 -0.613374 0
M  V30 4879 C 440.913 -1.19823 -1.15029 0
M  V30 4880 O 442.098 -1.48362 -1.19973 0
M  V30 4881 C 439.238 -2.94927 -1.79199 0
M  V30 4882 C 438.351 -4.12322 -1.28899 0
M  V30 4883 C 437.486 -4.72394 -2.42934 0
M  V30 4884 C 436.525 -5.81984 -1.89634 0
M  V30 4885 N 435.662 -6.36123 -2.9714 0
M  V30 4886 H 440.502 -2.97982 -0.032756 0
M  V30 4887 H 438.039 -1.47099 -0.00440146 0
M  V30 4888 H 439.997 -3.35134 -2.48478 0
M  V30 4889 H 438.627 -2.2187 -2.34465 0
M  V30 4890 H 437.679 -3.7724 -0.489327 0
M  V30 4891 H 438.991 -4.91355 -0.858587 0
M  V30 4892 H 438.145 -5.15317 -3.20208 0
M  V30 4893 H 436.884 -3.92636 -2.8929 0
M  V30 4894 H 435.889 -5.38511 -1.1084 0
M  V30 4895 H 437.114 -6.6361 -1.44215 0
M  V30 4896 H 435.06 -5.59259 -3.42878 0
M  V30 4897 H 434.977 -7.10427 -2.58515 0
M  V30 4898 H 436.245 -6.83704 -3.74391 0
M  V30 4899 N 440.474 -0.00167713 -1.576 0
M  V30 4900 C 441.699 0.69739 -1.95323 0
M  V30 4901 C 442.124 1.6642 -0.876706 0
M  V30 4902 O 441.482 1.80548 0.165007 0
M  V30 4903 C 441.53 1.40403 -3.32144 0
M  V30 4904 O 440.634 2.5185 -3.26566 0
M  V30 4905 H 439.975 0.185373 -0.637599 0
M  V30 4906 H 442.505 -0.0553665 -2.04525 0
M  V30 4907 H 442.515 1.76707 -3.67748 0
M  V30 4908 H 441.19 0.695167 -4.10049 0
M  V30 4909 H 439.767 2.17861 -3.0264 0
M  V30 4910 N 441.952 1.55251 0.271103 0
M  V30 4911 C 443.2 1.75599 1.00047 0
M  V30 4912 C 443.521 0.561188 1.8675 0
M  V30 4913 O 442.791 -0.423846 1.9126 0
M  V30 4914 H 441.371 0.647562 0.372387 0
M  V30 4915 H 444.033 1.92656 0.294876 0
M  V30 4916 H 443.129 2.65766 1.6363 0
M  V30 4917 N 443.43 -0.535701 1.48216 0
M  V30 4918 C 444.658 -1.31671 1.59594 0
M  V30 4919 C 445.073 -1.87083 0.254056 0
M  V30 4920 O 444.43 -1.66112 -0.755854 0
M  V30 4921 C 444.481 -2.47158 2.63809 0
M  V30 4922 O 444.202 -1.94032 3.92789 0
M  V30 4923 C 445.703 -3.39062 2.85573 0
M  V30 4924 H 442.923 -0.400623 0.538277 0
M  V30 4925 H 445.467 -0.646827 1.94001 0
M  V30 4926 H 443.622 -3.10043 2.32276 0
M  V30 4927 H 444.036 -2.69585 4.49916 0
M  V30 4928 H 445.51 -4.16459 3.62306 0
M  V30 4929 H 445.987 -3.93941 1.94184 0
M  V30 4930 H 446.593 -2.81975 3.18387 0
M  V30 4931 N 444.908 -1.36708 -0.784132 0
M  V30 4932 C 445.855 -1.31466 -1.89698 0
M  V30 4933 C 446.825 -0.18239 -1.65096 0
M  V30 4934 O 448.01 -0.369762 -1.87183 0
M  V30 4935 C 445.15 -1.1151 -3.26588 0
M  V30 4936 C 444.263 -2.33859 -3.63227 0
M  V30 4937 C 443.398 -2.06873 -4.89262 0
M  V30 4938 C 442.437 -3.25154 -5.18595 0
M  V30 4939 N 441.574 -2.978 -6.35814 0
M  V30 4940 H 446.414 -2.26619 -1.93515 0
M  V30 4941 H 443.951 -1.12625 -0.946256 0
M  V30 4942 H 445.909 -0.979653 -4.05535 0
M  V30 4943 H 444.539 -0.200103 -3.22179 0
M  V30 4944 H 443.591 -2.58188 -2.79362 0
M  V30 4945 H 444.903 -3.22109 -3.8085 0
M  V30 4946 H 444.057 -1.90289 -5.76086 0
M  V30 4947 H 442.796 -1.15942 -4.73718 0
M  V30 4948 H 441.801 -3.42292 -4.30251 0
M  V30 4949 H 443.026 -4.1692 -5.36055 0
M  V30 4950 H 440.972 -2.09485 -6.21653 0
M  V30 4951 H 440.889 -3.7959 -6.53794 0
M  V30 4952 H 442.157 -2.84805 -7.25607 0
M  V30 4953 N 446.386 1.0089 -1.21074 0
M  V30 4954 C 447.333 2.09588 -0.966512 0
M  V30 4955 C 448.303 1.65761 0.106089 0
M  V30 4956 O 449.488 1.90758 -0.0402287 0
M  V30 4957 C 446.628 3.40958 -0.533058 0
M  V30 4958 C 445.741 3.9822 -1.67467 0
M  V30 4959 C 444.876 5.17682 -1.19076 0
M  V30 4960 C 443.915 5.67043 -2.30496 0
M  V30 4961 N 443.052 6.77759 -1.83267 0
M  V30 4962 H 447.892 2.29815 -1.89708 0
M  V30 4963 H 445.429 1.12689 -0.945489 0
M  V30 4964 H 447.387 4.1637 -0.263019 0
M  V30 4965 H 446.017 3.20781 0.360505 0
M  V30 4966 H 445.069 3.1983 -2.05944 0
M  V30 4967 H 446.381 4.3085 -2.51336 0
M  V30 4968 H 445.535 6.00326 -0.877151 0
M  V30 4969 H 444.274 4.86635 -0.322066 0
M  V30 4970 H 443.279 4.82999 -2.62664 0
M  V30 4971 H 444.504 6.00121 -3.17855 0
M  V30 4972 H 442.45 6.48527 -0.987356 0
M  V30 4973 H 442.367 7.09624 -2.60711 0
M  V30 4974 H 443.635 7.63949 -1.54928 0
M  V30 4975 N 447.864 1.01787 1.20321 0
M  V30 4976 C 449.141 0.622978 1.85414 0
M  V30 4977 C 449.521 -0.898887 1.91006 0
M  V30 4978 O 448.869 -1.79112 1.41884 0
M  V30 4979 C 449.079 1.27226 3.24984 0
M  V30 4980 C 450.427 1.3885 4.01255 0
M  V30 4981 O 451.451 1.22857 3.34342 0
M  V30 4982 O 450.31 1.64705 5.2109 0
M  V30 4983 H 447.404 0.215116 0.798533 0
M  V30 4984 H 449.95 1.11533 1.27901 0
M  V30 4985 H 448.722 2.31209 3.15687 0
M  V30 4986 H 448.345 0.767069 3.90131 0
M  V30 4987 N 449.342 -1.36122 0.79427 0
M  V30 4988 C 450.588 -1.99406 0.369452 0
M  V30 4989 C 450.921 -1.62886 -1.05743 0
M  V30 4990 O 450.196 -0.886053 -1.73145 0
M  V30 4991 C 450.479 -3.56046 0.538833 0
M  V30 4992 C 450.332 -4.02404 2.00976 0
M  V30 4993 C 451.651 -4.40079 -0.0431359 0
M  V30 4994 H 448.77 -0.724397 0.135712 0
M  V30 4995 H 451.412 -1.61461 1.00151 0
M  V30 4996 H 449.562 -3.885 0.000771004 0
M  V30 4997 H 451.234 -3.80415 2.60926 0
M  V30 4998 H 449.477 -3.53765 2.51063 0
M  V30 4999 H 450.148 -5.11344 2.07922 0
M  V30 5000 H 452.624 -4.14013 0.416228 0
M  V30 5001 H 451.5 -5.48799 0.105374 0
M  V30 5002 H 451.761 -4.27264 -1.13571 0
M  V30 5003 N 450.82 -0.546701 -1.47814 0
M  V30 5004 C 452.231 -0.110564 -1.86372 0
M  V30 5005 C 452.582 1.31678 -1.45449 0
M  V30 5006 O 451.707 1.98889 -0.852758 0
M  V30 5007 C 452.302 -0.193873 -3.38245 0
M  V30 5008 C 450.861 0.187164 -3.75934 0
M  V30 5009 C 450.008 -0.546166 -2.71868 0
M  V30 5010 H 452.959 -0.757022 -1.39481 0
M  V30 5011 H 452.98 0.590218 -3.75895 0
M  V30 5012 H 452.492 -1.23282 -3.67999 0
M  V30 5013 H 450.593 1.22762 -3.51796 0
M  V30 5014 H 450.706 -0.164083 -4.78819 0
M  V30 5015 H 449.07 0.00953904 -2.54698 0
M  V30 5016 H 449.853 -1.58606 -3.04465 0
M  V30 5017 N 452.299 1.55045 -0.282633 0
M  V30 5018 C 453.246 2.22822 0.601566 0
M  V30 5019 C 454.216 1.20431 1.14392 0
M  V30 5020 O 455.401 1.48996 1.19184 0
M  V30 5021 C 452.541 2.95873 1.77632 0
M  V30 5022 C 451.654 4.12999 1.26711 0
M  V30 5023 C 450.789 4.73676 2.40426 0
M  V30 5024 C 449.828 5.82981 1.86545 0
M  V30 5025 N 448.965 6.3769 2.93762 0
M  V30 5026 H 453.805 2.97995 0.0169528 0
M  V30 5027 H 451.342 1.471 -0.00339964 0
M  V30 5028 H 453.3 3.36447 2.46697 0
M  V30 5029 H 451.93 2.2311 2.33285 0
M  V30 5030 H 450.982 3.77494 0.469314 0
M  V30 5031 H 452.294 4.91803 0.832518 0
M  V30 5032 H 451.448 5.17008 3.17471 0
M  V30 5033 H 450.187 3.94164 2.87203 0
M  V30 5034 H 449.192 5.39092 1.07983 0
M  V30 5035 H 450.417 6.64366 1.40694 0
M  V30 5036 H 448.363 5.61069 3.39908 0
M  V30 5037 H 448.28 7.11788 2.54744 0
M  V30 5038 H 449.548 6.8568 3.7076 0
M  V30 5039 N 453.777 0.010035 1.57597 0
M  V30 5040 C 455.002 -0.687021 1.95691 0
M  V30 5041 C 455.427 -1.65952 0.885519 0
M  V30 5042 O 454.785 -1.80633 -0.15543 0
M  V30 5043 C 454.833 -1.3864 3.32884 0
M  V30 5044 O 453.937 -2.50115 3.27897 0
M  V30 5045 H 453.278 -0.181989 0.638573 0
M  V30 5046 H 455.808 0.0662122 2.04493 0
M  V30 5047 H 455.818 -1.74754 3.6868 0
M  V30 5048 H 454.493 -0.673411 4.10412 0
M  V30 5049 H 453.07 -2.16253 3.03791 0
M  V30 5050 N 455.255 -1.55392 -0.262866 0
M  V30 5051 C 456.501 -1.77657 -0.990424 0
M  V30 5052 C 456.856 -0.576333 -1.83565 0
M  V30 5053 O 456.149 0.430795 -1.86694 0
M  V30 5054 C 456.343 -3.02889 -1.89718 0
M  V30 5055 C 456.172 -4.34979 -1.14121 0
M  V30 5056 C 454.942 -4.98052 -0.852768 0
M  V30 5057 C 457.14 -5.11597 -0.526625 0
M  V30 5058 N 455.122 -6.13859 -0.0710649 0
M  V30 5059 C 456.493 -6.19883 0.12042 0
M  V30 5060 C 458.548 -4.95992 -0.435485 0
M  V30 5061 C 457.251 -7.14262 0.849833 0
M  V30 5062 C 459.277 -5.90735 0.280359 0
M  V30 5063 C 458.639 -6.98417 0.916103 0
M  V30 5064 H 454.738 -0.702242 -0.344064 0
M  V30 5065 H 457.322 -1.92887 -0.265088 0
M  V30 5066 H 455.493 -2.89017 -2.59468 0
M  V30 5067 H 457.225 -3.13516 -2.5591 0
M  V30 5068 H 453.98 -4.5916 -1.16058 0
M  V30 5069 H 454.404 -6.76302 0.307413 0
M  V30 5070 H 459.046 -4.12832 -0.912671 0
M  V30 5071 H 456.764 -7.96935 1.33867 0
M  V30 5072 H 460.35 -5.80738 0.351332 0
M  V30 5073 H 459.23 -7.70467 1.46119 0
M  V30 5074 N 456.733 0.527833 -1.48498 0
M  V30 5075 C 457.663 1.64136 -1.66077 0
M  V30 5076 C 458.644 1.62286 -0.509625 0
M  V30 5077 O 459.829 1.79449 -0.742413 0
M  V30 5078 C 456.959 3.02717 -1.70234 0
M  V30 5079 C 455.913 3.19426 -2.8487 0
M  V30 5080 C 455.239 4.5909 -2.74118 0
M  V30 5081 C 456.539 3.01993 -4.26142 0
M  V30 5082 H 458.233 1.4968 -2.593 0
M  V30 5083 H 455.779 0.718654 -1.24785 0
M  V30 5084 H 457.732 3.80491 -1.8112 0
M  V30 5085 H 456.456 3.18201 -0.735911 0
M  V30 5086 H 455.115 2.4407 -2.73542 0
M  V30 5087 H 454.763 4.71413 -1.7544 0
M  V30 5088 H 454.463 4.71214 -3.51042 0
M  V30 5089 H 455.987 5.3896 -2.86974 0
M  V30 5090 H 457.401 3.69558 -4.38292 0
M  V30 5091 H 455.798 3.2561 -5.04082 0
M  V30 5092 H 456.868 1.98396 -4.42456 0
M  V30 5093 N 458.211 1.37122 0.776871 0
M  V30 5094 C 459.144 1.26835 1.89705 0
M  V30 5095 C 460.122 0.14992 1.61907 0
M  V30 5096 O 461.306 0.323242 1.85708 0
M  V30 5097 C 458.433 0.95986 3.24814 0
M  V30 5098 C 457.479 2.09447 3.7153 0
M  V30 5099 S 458.312 3.71368 3.85806 0
M  V30 5100 C 459.468 3.42659 5.23771 0
M  V30 5101 H 459.701 2.21647 1.98141 0
M  V30 5102 H 457.234 1.22685 0.937433 0
M  V30 5103 H 459.192 0.788696 4.02852 0
M  V30 5104 H 457.853 0.0293137 3.14086 0
M  V30 5105 H 457.046 1.8335 4.69467 0
M  V30 5106 H 456.648 2.2255 3.00578 0
M  V30 5107 H 458.94 2.9733 6.0877 0
M  V30 5108 H 459.883 4.39905 5.54878 0
M  V30 5109 H 460.291 2.77708 4.91466 0
M  V30 5110 N 459.689 -1.00246 1.21608 0
M  V30 5111 C 460.636 -2.09073 0.977613 0
M  V30 5112 C 461.606 -1.65815 -0.097297 0
M  V30 5113 O 462.791 -1.90734 0.0503445 0
M  V30 5114 C 459.931 -3.40671 0.551133 0
M  V30 5115 C 459.044 -3.97326 1.69576 0
M  V30 5116 C 458.179 -5.17043 1.2182 0
M  V30 5117 C 457.218 -5.65813 2.335 0
M  V30 5118 N 456.355 -6.76778 1.86859 0
M  V30 5119 H 461.195 -2.28806 1.90924 0
M  V30 5120 H 458.732 -1.12186 0.951452 0
M  V30 5121 H 460.69 -4.16225 0.285097 0
M  V30 5122 H 459.32 -3.20967 -0.343489 0
M  V30 5123 H 458.372 -3.18734 2.07637 0
M  V30 5124 H 459.684 -4.29511 2.53617 0
M  V30 5125 H 458.838 -5.99852 0.908975 0
M  V30 5126 H 457.577 -4.86458 0.347869 0
M  V30 5127 H 456.582 -4.81599 2.65222 0
M  V30 5128 H 457.807 -5.98427 3.21033 0
M  V30 5129 H 455.753 -6.47994 1.02174 0
M  V30 5130 H 455.67 -7.08231 2.64471 0
M  V30 5131 H 456.938 -7.63116 1.58978 0
M  V30 5132 N 461.167 -1.02423 -1.1978 0
M  V30 5133 C 462.13 -0.605703 -2.21052 0
M  V30 5134 C 463.13 0.328209 -1.57415 0
M  V30 5135 O 464.32 0.115853 -1.73814 0
M  V30 5136 C 461.452 0.114366 -3.40708 0
M  V30 5137 H 462.645 -1.5017 -2.59594 0
M  V30 5138 H 460.198 -0.814888 -1.33376 0
M  V30 5139 H 460.933 1.02492 -3.07678 0
M  V30 5140 H 460.718 -0.556641 -3.88129 0
M  V30 5141 H 462.208 0.394272 -4.15735 0
M  V30 5142 N 462.645 1.35699 -0.801477 0
M  V30 5143 C 463.575 2.32436 -0.222658 0
M  V30 5144 C 464.556 1.5723 0.649057 0
M  V30 5145 O 465.741 1.85324 0.580387 0
M  V30 5146 C 462.871 3.41469 0.633719 0
M  V30 5147 C 461.825 4.27774 -0.139083 0
M  V30 5148 C 461.151 5.28082 0.838666 0
M  V30 5149 C 462.451 5.04946 -1.33517 0
M  V30 5150 H 464.145 2.81094 -1.03086 0
M  V30 5151 H 461.691 1.35146 -0.497155 0
M  V30 5152 H 463.644 4.08143 1.04868 0
M  V30 5153 H 462.368 2.91408 1.47475 0
M  V30 5154 H 461.027 3.62673 -0.535156 0
M  V30 5155 H 460.675 4.7429 1.67506 0
M  V30 5156 H 460.375 5.86695 0.32594 0
M  V30 5157 H 461.899 5.97628 1.25194 0
M  V30 5158 H 463.313 5.64593 -0.995349 0
M  V30 5159 H 461.71 5.7303 -1.78202 0
M  V30 5160 H 462.78 4.35886 -2.12442 0
M  V30 5161 N 464.123 0.554532 1.47522 0
M  V30 5162 C 465.37 0.029479 2.02479 0
M  V30 5163 C 465.698 -1.31929 1.42916 0
M  V30 5164 O 464.953 -1.87112 0.573385 0
M  V30 5165 C 465.252 -0.115927 3.57212 0
M  V30 5166 C 464.918 1.16161 4.3568 0
M  V30 5167 C 463.58 1.51168 4.56839 0
M  V30 5168 C 465.932 2.0083 4.80954 0
M  V30 5169 C 463.26 2.70696 5.2052 0
M  V30 5170 C 465.612 3.19559 5.45953 0
M  V30 5171 C 464.276 3.54882 5.65345 0
M  V30 5172 H 463.546 0.0107871 0.740921 0
M  V30 5173 H 466.193 0.725506 1.77225 0
M  V30 5174 H 464.498 -0.894902 3.81443 0
M  V30 5175 H 466.195 -0.53749 3.97381 0
M  V30 5176 H 462.785 0.879026 4.19489 0
M  V30 5177 H 466.969 1.75093 4.64388 0
M  V30 5178 H 462.225 2.98236 5.33728 0
M  V30 5179 H 466.399 3.85456 5.79997 0
M  V30 5180 H 464.026 4.47596 6.1446 0
M  V30 5181 N 465.601 -1.54893 0.290851 0
M  V30 5182 C 466.548 -2.23138 -0.58974 0
M  V30 5183 C 467.518 -1.21036 -1.13752 0
M  V30 5184 O 468.703 -1.49626 -1.18392 0
M  V30 5185 C 465.843 -2.96811 -1.76061 0
M  V30 5186 C 464.956 -4.13665 -1.24519 0
M  V30 5187 C 464.091 -4.74944 -2.3791 0
M  V30 5188 C 463.13 -5.83963 -1.83451 0
M  V30 5189 N 462.267 -6.39239 -2.90376 0
M  V30 5190 H 467.107 -2.98 -0.00114915 0
M  V30 5191 H 464.644 -1.47096 0.0112006 0
M  V30 5192 H 466.602 -3.37751 -2.44909 0
M  V30 5193 H 465.232 -2.24344 -2.32098 0
M  V30 5194 H 464.284 -3.77737 -0.449288 0
M  V30 5195 H 465.596 -4.92238 -0.806424 0
M  V30 5196 H 464.75 -5.18684 -3.14724 0
M  V30 5197 H 463.489 -3.95682 -2.85109 0
M  V30 5198 H 462.494 -5.39657 -1.05122 0
M  V30 5199 H 463.719 -6.65103 -1.37169 0
M  V30 5200 H 461.665 -5.62864 -3.36927 0
M  V30 5201 H 461.582 -7.13129 -2.50965 0
M  V30 5202 H 462.85 -6.87637 -3.67118 0
M  V30 5203 N 467.08 -0.0183926 -1.57589 0
M  V30 5204 C 468.308 0.673046 -1.95647 0
M  V30 5205 C 468.723 1.66275 -0.894312 0
M  V30 5206 O 468.08 1.82072 0.124975 0
M  V30 5207 C 468.131 1.38884 -3.33756 0
M  V30 5208 O 467.852 0.438806 -4.35897 0
M  V30 5209 C 469.353 2.1731 -3.86383 0
M  V30 5210 H 466.573 0.186292 -0.644621 0
M  V30 5211 H 469.117 -0.0749748 -2.04363 0
M  V30 5212 H 467.272 2.08835 -3.26293 0
M  V30 5213 H 467.686 0.945869 -5.15901 0
M  V30 5214 H 469.16 2.62863 -4.85394 0
M  V30 5215 H 469.637 3.00764 -3.20059 0
M  V30 5216 H 470.243 1.52339 -3.97081 0
M  V30 5217 N 468.558 1.5553 0.254621 0
M  V30 5218 C 469.805 1.77 0.983736 0
M  V30 5219 C 470.133 0.58133 1.85609 0
M  V30 5220 O 469.388 -0.435621 1.9079 0
M  V30 5221 C 469.687 3.03891 1.88109 0
M  V30 5222 C 469.353 4.35597 1.16472 0
M  V30 5223 C 468.015 4.7139 0.966714 0
M  V30 5224 C 470.367 5.1705 0.656387 0
M  V30 5225 C 467.695 5.86176 0.247942 0
M  V30 5226 C 470.047 6.32581 -0.0488807 0
M  V30 5227 C 468.711 6.67 -0.258438 0
M  V30 5228 H 467.981 0.647688 0.359974 0
M  V30 5229 H 470.628 1.89802 0.254463 0
M  V30 5230 H 468.933 2.86068 2.67717 0
M  V30 5231 H 470.63 3.17701 2.44677 0
M  V30 5232 H 467.22 4.07475 1.32899 0
M  V30 5233 H 471.404 4.8986 0.796933 0
M  V30 5234 H 466.66 6.11354 0.075035 0
M  V30 5235 H 470.834 6.94942 -0.450444 0
M  V30 5236 H 468.461 7.55793 -0.817358 0
M  V30 5237 N 470.036 -0.519951 1.48776 0
M  V30 5238 C 471.266 -1.29783 1.60748 0
M  V30 5239 C 471.674 -1.87253 0.27072 0
M  V30 5240 O 471.017 -1.67628 -0.751438 0
M  V30 5241 C 471.079 -2.47984 2.60277 0
M  V30 5242 C 470.743 -2.11526 4.051 0
M  V30 5243 C 471.74 -1.66608 4.92481 0
M  V30 5244 C 469.425 -2.21742 4.50706 0
M  V30 5245 C 471.419 -1.32384 6.23501 0
M  V30 5246 C 469.106 -1.87129 5.81744 0
M  V30 5247 C 470.104 -1.42523 6.67964 0
M  V30 5248 O 469.792 -1.0837 7.96562 0
M  V30 5249 H 469.524 -0.400562 0.544542 0
M  V30 5250 H 472.078 -0.632879 1.95407 0
M  V30 5251 H 470.308 -3.17493 2.2076 0
M  V30 5252 H 471.997 -3.10036 2.61978 0
M  V30 5253 H 472.763 -1.58178 4.58481 0
M  V30 5254 H 468.642 -2.55415 3.83776 0
M  V30 5255 H 472.186 -0.974949 6.90754 0
M  V30 5256 H 468.083 -1.95204 6.15277 0
M  V30 5257 H 468.851 -1.21681 8.09405 0
M  V30 5258 N 471.514 -1.37532 -0.769588 0
M  V30 5259 C 472.447 -1.27839 -1.8903 0
M  V30 5260 C 473.425 -0.158504 -1.61826 0
M  V30 5261 O 474.609 -0.333086 -1.85534 0
M  V30 5262 C 471.736 -0.977072 -3.24301 0
M  V30 5263 C 470.782 -2.11414 -3.70414 0
M  V30 5264 S 471.615 -3.73409 -3.83831 0
M  V30 5265 C 472.771 -3.45432 -5.21946 0
M  V30 5266 H 473.004 -2.22694 -1.96963 0
M  V30 5267 H 470.537 -1.2318 -0.930914 0
M  V30 5268 H 472.495 -0.810049 -4.02428 0
M  V30 5269 H 471.156 -0.0459701 -3.14066 0
M  V30 5270 H 470.349 -1.85837 -4.68488 0
M  V30 5271 H 469.951 -2.24141 -2.99394 0
M  V30 5272 H 472.243 -3.00554 -6.07185 0
M  V30 5273 H 473.186 -4.42841 -5.52537 0
M  V30 5274 H 473.594 -2.80311 -4.89986 0
M  V30 5275 N 472.992 0.995999 -1.22138 0
M  V30 5276 C 474.238 1.73767 -1.04561 0
M  V30 5277 C 474.571 1.89633 0.418698 0
M  V30 5278 O 473.846 1.43723 1.3105 0
M  V30 5279 C 474.129 3.14505 -1.75382 0
M  V30 5280 C 473.982 3.06306 -3.29388 0
M  V30 5281 C 475.301 4.13615 -1.50369 0
M  V30 5282 H 472.42 0.630728 -0.38125 0
M  V30 5283 H 475.062 1.16057 -1.50435 0
M  V30 5284 H 473.212 3.63775 -1.36383 0
M  V30 5285 H 474.884 2.64681 -3.77812 0
M  V30 5286 H 473.127 2.43186 -3.59226 0
M  V30 5287 H 473.798 4.05884 -3.74116 0
M  V30 5288 H 476.274 3.73089 -1.84239 0
M  V30 5289 H 475.15 5.10212 -2.02421 0
M  V30 5290 H 475.411 4.39949 -0.435611 0
M  V30 5291 N 474.47 1.03057 1.19235 0
M  V30 5292 C 475.4 0.633497 2.24742 0
M  V30 5293 C 476.381 -0.358335 1.66283 0
M  V30 5294 O 477.566 -0.240676 1.92703 0
M  V30 5295 C 474.696 -0.0147648 3.47297 0
M  V30 5296 C 473.65 0.899527 4.18441 0
M  V30 5297 C 472.976 0.116281 5.34574 0
M  V30 5298 C 474.276 2.21404 4.73051 0
M  V30 5299 H 475.97 1.5155 2.58211 0
M  V30 5300 H 473.516 0.73014 1.24117 0
M  V30 5301 H 475.469 -0.304202 4.20301 0
M  V30 5302 H 474.193 -0.931577 3.13032 0
M  V30 5303 H 472.852 1.17319 3.47321 0
M  V30 5304 H 472.5 -0.802619 4.96555 0
M  V30 5305 H 472.2 0.725293 5.83107 0
M  V30 5306 H 473.724 -0.166376 6.10373 0
M  V30 5307 H 475.138 1.98601 5.37802 0
M  V30 5308 H 473.535 2.77512 5.32078 0
M  V30 5309 H 474.605 2.86752 3.91026 0
M  V30 5310 N 475.948 -1.35272 0.808662 0
M  V30 5311 C 476.878 -2.32315 0.234981 0
M  V30 5312 C 477.859 -1.57572 -0.64071 0
M  V30 5313 O 479.044 -1.8563 -0.570551 0
M  V30 5314 C 476.174 -3.41801 -0.615601 0
M  V30 5315 C 475.128 -4.27694 0.161767 0
M  V30 5316 C 474.454 -5.28519 -0.810649 0
M  V30 5317 C 475.754 -5.04231 1.36193 0
M  V30 5318 H 477.448 -2.80543 1.04575 0
M  V30 5319 H 474.994 -1.3488 0.504315 0
M  V30 5320 H 476.947 -4.08693 -1.02702 0
M  V30 5321 H 475.671 -2.92186 -1.45928 0
M  V30 5322 H 474.33 -3.62384 0.554382 0
M  V30 5323 H 473.978 -4.75171 -1.64988 0
M  V30 5324 H 473.678 -5.8686 -0.294822 0
M  V30 5325 H 475.202 -5.98283 -1.22023 0
M  V30 5326 H 476.616 -5.64058 1.02528 0
M  V30 5327 H 475.013 -5.72077 1.81239 0
M  V30 5328 H 476.083 -4.34753 2.14751 0
M  V30 5329 N 477.426 -0.562348 -1.47226 0
M  V30 5330 C 478.373 0.182461 -2.30078 0
M  V30 5331 C 479.343 0.903503 -1.39377 0
M  V30 5332 O 480.528 0.898188 -1.68337 0
M  V30 5333 C 477.668 1.20322 -3.23445 0
M  V30 5334 C 476.781 0.487717 -4.29238 0
M  V30 5335 C 475.916 1.49422 -5.09752 0
M  V30 5336 C 474.955 0.763976 -6.07314 0
M  V30 5337 N 474.092 1.71755 -6.80768 0
M  V30 5338 H 478.932 -0.530169 -2.93246 0
M  V30 5339 H 476.469 -0.273276 -1.44539 0
M  V30 5340 H 478.427 1.80768 -3.76004 0
M  V30 5341 H 477.057 1.88382 -2.6213 0
M  V30 5342 H 476.109 -0.231374 -3.79696 0
M  V30 5343 H 477.421 -0.0841003 -4.98729 0
M  V30 5344 H 476.575 2.17206 -5.66486 0
M  V30 5345 H 475.314 2.09995 -4.40174 0
M  V30 5346 H 474.319 0.0722344 -5.49753 0
M  V30 5347 H 475.544 0.16391 -6.78902 0
M  V30 5348 H 473.49 2.31177 -6.13916 0
M  V30 5349 H 473.407 1.19802 -7.46447 0
M  V30 5350 H 474.675 2.38638 -7.42073 0
M  V30 5351 N 478.904 1.54736 -0.299062 0
M  V30 5352 C 480.129 2.04975 0.316254 0
M  V30 5353 C 480.554 1.17501 1.46885 0
M  V30 5354 O 479.912 0.178678 1.80417 0
M  V30 5355 C 479.96 3.52672 0.751997 0
M  V30 5356 O 479.064 3.68226 1.85697 0
M  V30 5357 H 478.405 0.661126 0.0617175 0
M  V30 5358 H 480.935 1.99805 -0.440341 0
M  V30 5359 H 480.945 3.94488 1.04133 0
M  V30 5360 H 479.62 4.158 -0.0911482 0
M  V30 5361 H 478.197 3.38316 1.56834 0
M  V30 5362 N 480.382 0.0267497 1.57577 0
M  V30 5363 C 481.629 -0.652404 1.91703 0
M  V30 5364 C 481.957 -1.72271 0.902936 0
M  V30 5365 O 481.212 -1.955 -0.0884843 0
M  V30 5366 C 481.511 -1.30914 3.3256 0
M  V30 5367 C 481.177 -0.369441 4.49384 0
M  V30 5368 C 479.839 -0.110791 4.81072 0
M  V30 5369 C 482.191 0.275971 5.20469 0
M  V30 5370 C 479.519 0.801116 5.81205 0
M  V30 5371 C 481.871 1.17592 6.21575 0
M  V30 5372 C 480.535 1.44348 6.51705 0
M  V30 5373 H 479.805 -0.238732 0.70149 0
M  V30 5374 H 482.452 0.0880091 1.91298 0
M  V30 5375 H 480.757 -2.12425 3.29216 0
M  V30 5376 H 482.454 -1.84115 3.56234 0
M  V30 5377 H 479.044 -0.581211 4.24641 0
M  V30 5378 H 483.228 0.0892 4.9622 0
M  V30 5379 H 478.484 1.01614 6.02897 0
M  V30 5380 H 482.658 1.68223 6.75777 0
M  V30 5381 H 480.285 2.15176 7.29111 0
M  V30 5382 N 481.861 -1.55662 -0.24637 0
M  V30 5383 C 482.791 -1.93377 -1.30873 0
M  V30 5384 C 483.772 -0.798773 -1.50179 0
M  V30 5385 O 484.957 -1.0591 -1.62778 0
M  V30 5386 C 482.087 -2.22893 -2.66338 0
M  V30 5387 C 481.041 -3.38649 -2.61727 0
M  V30 5388 C 480.367 -3.53708 -4.00992 0
M  V30 5389 C 481.667 -4.74323 -2.18666 0
M  V30 5390 H 483.361 -2.82363 -0.995552 0
M  V30 5391 H 480.907 -1.35854 -0.477464 0
M  V30 5392 H 482.86 -2.47866 -3.40794 0
M  V30 5393 H 481.584 -1.30733 -2.99293 0
M  V30 5394 H 480.243 -3.13685 -1.89729 0
M  V30 5395 H 479.891 -2.58967 -4.31214 0
M  V30 5396 H 479.591 -4.31551 -3.98795 0
M  V30 5397 H 481.115 -3.81003 -4.77147 0
M  V30 5398 H 482.529 -4.98665 -2.82854 0
M  V30 5399 H 480.926 -5.55273 -2.27579 0
M  V30 5400 H 481.996 -4.71349 -1.13834 0
M  V30 5401 N 483.339 0.512053 -1.4905 0
M  V30 5402 C 484.269 1.62365 -1.67809 0
M  V30 5403 C 485.25 1.61737 -0.526809 0
M  V30 5404 O 486.435 1.78651 -0.761404 0
M  V30 5405 C 483.565 3.00895 -1.73435 0
M  V30 5406 C 482.519 3.16387 -2.88242 0
M  V30 5407 C 481.845 4.56157 -2.78971 0
M  V30 5408 C 483.145 2.97457 -4.29321 0
M  V30 5409 H 484.839 1.46921 -2.60873 0
M  V30 5410 H 482.385 0.705379 -1.2554 0
M  V30 5411 H 484.338 3.78549 -1.85145 0
M  V30 5412 H 483.062 3.17403 -0.769619 0
M  V30 5413 H 481.721 2.41155 -2.76116 0
M  V30 5414 H 481.369 4.69525 -1.8043 0
M  V30 5415 H 481.069 4.67465 -3.5602 0
M  V30 5416 H 482.593 5.35886 -2.92675 0
M  V30 5417 H 484.007 3.64888 -4.42187 0
M  V30 5418 H 482.404 3.20245 -5.07507 0
M  V30 5419 H 483.474 1.93692 -4.44535 0
M  V30 5420 N 484.817 1.37938 0.762283 0
M  V30 5421 C 485.764 1.34467 1.87583 0
M  V30 5422 C 486.734 0.208633 1.64785 0
M  V30 5423 O 487.919 0.399494 1.86571 0
M  V30 5424 C 485.059 1.16692 3.24772 0
M  V30 5425 C 484.172 2.39608 3.59461 0
M  V30 5426 C 483.307 2.14631 4.85908 0
M  V30 5427 C 482.346 3.33364 5.13357 0
M  V30 5428 N 481.483 3.07877 6.30996 0
M  V30 5429 H 486.323 2.29669 1.89885 0
M  V30 5430 H 483.86 1.14116 0.928219 0
M  V30 5431 H 485.818 1.04405 4.03925 0
M  V30 5432 H 484.448 0.251333 3.2182 0
M  V30 5433 H 483.5 2.626 2.75219 0
M  V30 5434 H 484.812 3.28128 3.75678 0
M  V30 5435 H 483.966 1.99429 5.72986 0
M  V30 5436 H 482.705 1.23463 4.71814 0
M  V30 5437 H 481.71 3.49094 4.24751 0
M  V30 5438 H 482.935 4.25395 5.29354 0
M  V30 5439 H 480.881 2.19348 6.18241 0
M  V30 5440 H 480.798 3.89944 6.47673 0
M  V30 5441 H 482.066 2.96313 7.20985 0
M  V30 5442 N 486.295 -0.989507 1.22664 0
M  V30 5443 C 487.225 -2.09847 1.02404 0
M  V30 5444 C 488.206 -1.70007 -0.0561303 0
M  V30 5445 O 489.391 -1.93906 0.106748 0
M  V30 5446 C 486.521 -3.41996 0.604663 0
M  V30 5447 C 485.475 -3.95699 1.63115 0
M  V30 5448 C 484.801 -5.23936 1.0675 0
M  V30 5449 C 486.101 -4.25999 3.02196 0
M  V30 5450 H 487.795 -2.27054 1.95158 0
M  V30 5451 H 485.341 -1.09111 0.939727 0
M  V30 5452 H 487.294 -4.1899 0.45002 0
M  V30 5453 H 486.018 -3.24626 -0.35855 0
M  V30 5454 H 484.677 -3.2084 1.77362 0
M  V30 5455 H 484.325 -5.02909 0.0955422 0
M  V30 5456 H 484.025 -5.60833 1.75328 0
M  V30 5457 H 485.549 -6.0356 0.924516 0
M  V30 5458 H 486.963 -4.93777 2.91303 0
M  V30 5459 H 485.36 -4.74076 3.67929 0
M  V30 5460 H 486.43 -3.33636 3.51873 0
M  V30 5461 N 487.773 -1.03688 -1.18687 0
M  V30 5462 C 489.019 -0.739123 -1.88851 0
M  V30 5463 C 489.352 0.731042 -1.79915 0
M  V30 5464 O 488.627 1.53313 -1.19688 0
M  V30 5465 C 488.91 -1.20106 -3.3948 0
M  V30 5466 C 488.763 -2.73304 -3.57246 0
M  V30 5467 C 490.082 -0.788134 -4.32986 0
M  V30 5468 H 487.201 -0.269978 -0.68577 0
M  V30 5469 H 489.843 -1.28822 -1.3966 0
M  V30 5470 H 487.993 -0.733915 -3.81505 0
M  V30 5471 H 489.665 -3.28027 -3.24339 0
M  V30 5472 H 487.908 -3.13313 -3.00029 0
M  V30 5473 H 488.579 -3.00684 -4.62918 0
M  V30 5474 H 491.055 -1.19005 -3.98719 0
M  V30 5475 H 489.931 -1.13915 -5.36949 0
M  V30 5476 H 490.192 0.308988 -4.41019 0
M  V30 5477 N 489.251 1.34841 -0.815825 0
M  V30 5478 C 490.199 2.31549 -0.220888 0
M  V30 5479 C 491.193 1.5707 0.634457 0
M  V30 5480 O 492.399 1.72125 0.526589 0
M  V30 5481 H 488.774 0.750153 -0.0526782 0
M  V30 5482 H 490.745 2.7926 -1.05149 0
M  V30 5483 C 489.494 3.42335 0.608427 0
M  V30 5484 H 488.817 3.9978 -0.0404121 0
M  V30 5485 H 490.257 4.12258 0.990931 0
M  V30 5486 C 488.716 2.86173 1.77782 0
M  V30 5487 O 489.246 2.80474 2.87571 0
M  V30 5488 N 487.452 2.43093 1.59229 0
M  V30 5489 H 486.999 2.47928 0.699237 0
M  V30 5490 H 486.957 2.05866 2.37627 0
M  V30 5491 N 490.729 0.570148 1.46925 0
M  V30 5492 C 492.006 -0.0153259 1.95594 0
M  V30 5493 C 492.386 -1.47232 1.51281 0
M  V30 5494 O 491.734 -2.15574 0.757624 0
M  V30 5495 C 491.944 0.143624 3.48704 0
M  V30 5496 C 493.292 0.00494484 4.246 0
M  V30 5497 O 494.316 0.0718214 3.56128 0
M  V30 5498 O 493.175 -0.141175 5.46318 0
M  V30 5499 H 490.269 -0.0568819 0.825041 0
M  V30 5500 H 492.815 0.637583 1.57267 0
M  V30 5501 H 491.587 1.15699 3.73804 0
M  V30 5502 H 491.21 -0.5463 3.93829 0
M  V30 5503 N 492.207 -1.54576 0.307264 0
M  V30 5504 C 493.456 -1.99442 -0.300976 0
M  V30 5505 C 493.769 -1.19928 -1.5452 0
M  V30 5506 O 494.975 -1.55092 -2.22842 0
M  V30 5507 C 493.431 -3.55084 -0.586809 0
M  V30 5508 C 493.039 -4.43413 0.639438 0
M  V30 5509 C 494.783 -4.0846 -1.1559 0
M  V30 5510 C 492.69 -5.90499 0.326411 0
M  V30 5511 H 491.62 -0.744986 -0.116238 0
M  V30 5512 H 494.271 -1.787 0.416947 0
M  V30 5513 H 492.653 -3.71749 -1.36449 0
M  V30 5514 H 493.827 -4.38522 1.41545 0
M  V30 5515 H 492.142 -4.00842 1.1276 0
M  V30 5516 H 494.739 -5.15926 -1.40445 0
M  V30 5517 H 495.082 -3.59443 -2.10015 0
M  V30 5518 H 495.615 -3.95362 -0.439778 0
M  V30 5519 H 492.354 -6.43676 1.23939 0
M  V30 5520 H 491.874 -5.98382 -0.412212 0
M  V30 5521 H 493.553 -6.46962 -0.0697393 0
M  V30 5522 N 493.685 -0.035106 -1.57561 0
M  V30 5523 C 494.932 0.642229 -1.92046 0
M  V30 5524 C 495.26 1.7179 -0.91206 0
M  V30 5525 O 494.515 1.95544 0.0781153 0
M  V30 5526 C 494.814 1.29149 -3.3325 0
M  V30 5527 C 494.48 0.345604 -4.49574 0
M  V30 5528 C 493.142 0.0852775 -4.81124 0
M  V30 5529 C 495.494 -0.303569 -5.20315 0
M  V30 5530 C 492.822 -0.831927 -5.80772 0
M  V30 5531 C 495.174 -1.20886 -6.20942 0
M  V30 5532 C 493.838 -1.47802 -6.50931 0
M  V30 5533 H 493.108 0.235008 -0.702746 0
M  V30 5534 H 495.755 -0.0981529 -1.91248 0
M  V30 5535 H 494.06 2.10676 -3.30337 0
M  V30 5536 H 495.757 1.82223 -3.57205 0
M  V30 5537 H 492.347 0.558683 -4.24943 0
M  V30 5538 H 496.531 -0.115515 -4.96166 0
M  V30 5539 H 491.787 -1.0481 -6.02349 0
M  V30 5540 H 495.961 -1.71804 -6.74875 0
M  V30 5541 H 493.588 -2.19039 -7.2796 0
M  V30 5542 N 495.163 1.55791 0.238111 0
M  V30 5543 C 496.391 1.82098 0.982233 0
M  V30 5544 C 496.806 0.612025 1.78605 0
M  V30 5545 O 496.163 -0.419381 1.77616 0
M  V30 5546 C 496.214 3.0673 1.91309 0
M  V30 5547 O 495.935 4.2296 1.14179 0
M  V30 5548 C 497.436 3.45903 2.77248 0
M  V30 5549 H 494.656 0.605748 0.288635 0
M  V30 5550 H 497.2 2.02862 0.258341 0
M  V30 5551 H 495.355 2.87991 2.59114 0
M  V30 5552 H 495.769 4.93653 1.7722 0
M  V30 5553 H 497.243 4.36189 3.38295 0
M  V30 5554 H 497.72 2.66891 3.48806 0
M  V30 5555 H 498.326 3.67024 2.14881 0
M  V30 5556 N 496.642 -0.504142 1.49319 0
M  V30 5557 C 497.889 -1.25846 1.58647 0
M  V30 5558 C 498.217 -1.92592 0.27177 0
M  V30 5559 O 497.472 -1.81167 -0.74007 0
M  V30 5560 C 497.771 -2.35021 2.69258 0
M  V30 5561 C 497.437 -1.85755 4.1086 0
M  V30 5562 C 496.099 -1.72038 4.49395 0
M  V30 5563 C 498.451 -1.48844 4.99495 0
M  V30 5564 C 495.779 -1.19783 5.74342 0
M  V30 5565 C 498.131 -0.980422 6.24956 0
M  V30 5566 C 496.795 -0.829622 6.62324 0
M  V30 5567 H 496.065 -0.460505 0.580531 0
M  V30 5568 H 498.712 -0.559716 1.83138 0
M  V30 5569 H 497.017 -3.10672 2.38726 0
M  V30 5570 H 498.714 -2.93083 2.73685 0
M  V30 5571 H 495.304 -1.9739 3.80441 0
M  V30 5572 H 499.488 -1.5829 4.70381 0
M  V30 5573 H 494.744 -1.06817 6.01997 0
M  V30 5574 H 498.918 -0.685608 6.93017 0
M  V30 5575 H 496.545 -0.42253 7.59025 0
M  V30 5576 N 498.12 -1.38341 -0.754957 0
M  V30 5577 C 499.366 -1.34672 -1.51628 0
M  V30 5578 C 499.699 0.0636036 -1.94096 0
M  V30 5579 O 498.974 1.0245 -1.6533 0
M  V30 5580 C 499.257 -2.30116 -2.76981 0
M  V30 5581 C 499.11 -3.80003 -2.4066 0
M  V30 5582 C 500.429 -2.23715 -3.78998 0
M  V30 5583 H 497.548 -0.490517 -0.550056 0
M  V30 5584 H 500.19 -1.69178 -0.864807 0
M  V30 5585 H 498.34 -2.00821 -3.3257 0
M  V30 5586 H 500.012 -4.19966 -1.90856 0
M  V30 5587 H 498.255 -3.97751 -1.73137 0
M  V30 5588 H 498.926 -4.42244 -3.30339 0
M  V30 5589 H 501.402 -2.49574 -3.32945 0
M  V30 5590 H 500.278 -2.9261 -4.64403 0
M  V30 5591 H 500.539 -1.23554 -4.24484 0
M  V30 5592 N 499.598 0.982988 -1.23187 0
M  V30 5593 C 500.823 1.76455 -1.08988 0
M  V30 5594 C 501.248 1.84726 0.354691 0
M  V30 5595 O 500.606 1.30699 1.25649 0
M  V30 5596 C 500.654 3.17094 -1.71708 0
M  V30 5597 O 499.758 4.00648 -0.977477 0
M  V30 5598 H 499.099 0.542988 -0.382177 0
M  V30 5599 H 501.629 1.23413 -1.63188 0
M  V30 5600 H 501.639 3.67684 -1.76841 0
M  V30 5601 H 500.314 3.10389 -2.76823 0
M  V30 5602 H 498.891 3.59161 -1.0029 0
M  V30 5603 N 501.076 1.04316 1.18135 0
M  V30 5604 C 502.487 0.775505 1.69832 0
M  V30 5605 C 502.838 -0.703348 1.8316 0
M  V30 5606 O 501.963 -1.54729 1.51287 0
M  V30 5607 C 502.558 1.40112 3.0847 0
M  V30 5608 C 501.117 1.18172 3.57368 0
M  V30 5609 C 500.264 1.49022 2.33854 0
M  V30 5610 H 503.215 1.20925 1.02775 0
M  V30 5611 H 503.236 0.805672 3.71873 0
M  V30 5612 H 502.748 2.47744 2.98738 0
M  V30 5613 H 500.849 0.124258 3.72393 0
M  V30 5614 H 500.962 1.8805 4.40652 0
M  V30 5615 H 499.326 0.909995 2.37889 0
M  V30 5616 H 500.109 2.57768 2.26738 0
M  V30 5617 N 502.554 -1.34406 0.822964 0
M  V30 5618 C 503.486 -2.28305 0.202375 0
M  V30 5619 C 504.499 -1.5103 -0.60777 0
M  V30 5620 O 505.688 -1.73057 -0.437444 0
M  V30 5621 C 502.788 -3.30836 -0.734911 0
M  V30 5622 C 501.961 -4.37388 0.0324177 0
M  V30 5623 C 501.02 -5.1968 -0.825803 0
M  V30 5624 O 500.046 -5.68556 -0.270771 0
M  V30 5625 N 501.248 -5.39393 -2.14558 0
M  V30 5626 H 504.013 -2.82201 1.00909 0
M  V30 5627 H 501.574 -1.4693 0.67993 0
M  V30 5628 H 503.566 -3.82786 -1.31365 0
M  V30 5629 H 502.136 -2.77334 -1.44238 0
M  V30 5630 H 501.356 -3.86152 0.792469 0
M  V30 5631 H 502.644 -5.05702 0.560633 0
M  V30 5632 H 502.042 -5.01357 -2.62025 0
M  V30 5633 H 500.599 -5.94461 -2.67318 0
M  V30 5634 N 504.032 -0.577932 -1.46621 0
M  V30 5635 C 504.962 0.145917 -2.33044 0
M  V30 5636 C 505.943 0.888412 -1.45056 0
M  V30 5637 O 507.128 0.864812 -1.73881 0
M  V30 5638 C 504.258 1.16322 -3.27241 0
M  V30 5639 C 503.212 0.535868 -4.24632 0
M  V30 5640 C 502.538 1.65929 -5.08303 0
M  V30 5641 C 503.838 -0.523861 -5.19666 0
M  V30 5642 H 505.532 -0.575636 -2.93814 0
M  V30 5643 H 503.078 -0.278272 -1.41286 0
M  V30 5644 H 505.031 1.67793 -3.86553 0
M  V30 5645 H 503.755 1.91498 -2.64567 0
M  V30 5646 H 502.414 0.0422759 -3.66576 0
M  V30 5647 H 502.062 2.40061 -4.42018 0
M  V30 5648 H 501.762 1.2452 -5.74255 0
M  V30 5649 H 503.286 2.17686 -5.70478 0
M  V30 5650 H 504.7 -0.0944059 -5.73222 0
M  V30 5651 H 503.097 -0.858 -5.93935 0
M  V30 5652 H 504.167 -1.41197 -4.63887 0
M  V30 5653 N 505.51 1.54411 -0.315457 0
M  V30 5654 C 506.44 2.27002 0.547039 0
M  V30 5655 C 507.421 1.27492 1.12605 0
M  V30 5656 O 508.606 1.5629 1.15269 0
M  V30 5657 C 505.736 3.02171 1.71201 0
M  V30 5658 C 504.69 4.0895 1.26268 0
M  V30 5659 C 504.016 4.71915 2.51396 0
M  V30 5660 C 505.316 5.20891 0.383419 0
M  V30 5661 H 507.01 2.99343 -0.0584517 0
M  V30 5662 H 504.556 1.4397 -0.0295527 0
M  V30 5663 H 506.509 3.51681 2.32161 0
M  V30 5664 H 505.233 2.27433 2.34397 0
M  V30 5665 H 503.892 3.60312 0.676062 0
M  V30 5666 H 503.54 3.93801 3.12937 0
M  V30 5667 H 503.24 5.44039 2.22026 0
M  V30 5668 H 504.764 5.24195 3.13133 0
M  V30 5669 H 506.178 5.66206 0.899082 0
M  V30 5670 H 504.575 5.99821 0.182857 0
M  V30 5671 H 505.645 4.81324 -0.587821 0
M  V30 5672 N 506.988 0.0434614 1.5754 0
M  V30 5673 C 507.935 -0.93356 2.11077 0
M  V30 5674 C 508.905 -1.31383 1.01626 0
M  V30 5675 O 510.09 -1.40465 1.29129 0
M  V30 5676 C 507.23 -2.20578 2.65404 0
M  V30 5677 C 506.343 -1.88068 3.88914 0
M  V30 5678 C 505.478 -3.09691 4.31584 0
M  V30 5679 C 504.517 -2.73067 5.47815 0
M  V30 5680 N 503.654 -3.87359 5.85574 0
M  V30 5681 H 508.494 -0.470118 2.94268 0
M  V30 5682 H 506.031 -0.220434 1.45439 0
M  V30 5683 H 507.989 -2.95011 2.94999 0
M  V30 5684 H 506.619 -2.64513 1.85021 0
M  V30 5685 H 505.671 -1.03816 3.6596 0
M  V30 5686 H 506.983 -1.57104 4.73413 0
M  V30 5687 H 506.137 -3.92431 4.62691 0
M  V30 5688 H 504.876 -3.43827 3.45882 0
M  V30 5689 H 503.881 -1.88742 5.16388 0
M  V30 5690 H 505.106 -2.40131 6.35227 0
M  V30 5691 H 503.052 -4.21311 5.02825 0
M  V30 5692 H 502.969 -3.60068 6.64746 0
M  V30 5693 H 504.237 -4.70761 6.21292 0
M  V30 5694 N 508.466 -1.55915 -0.229846 0
M  V30 5695 C 509.396 -1.94754 -1.28815 0
M  V30 5696 C 510.377 -0.814657 -1.49323 0
M  V30 5697 O 511.562 -1.07631 -1.61645 0
M  V30 5698 C 508.692 -2.25705 -2.63959 0
M  V30 5699 C 507.646 -3.41406 -2.5812 0
M  V30 5700 C 506.972 -3.57941 -3.97218 0
M  V30 5701 C 508.272 -4.76616 -2.13623 0
M  V30 5702 H 509.966 -2.83404 -0.965547 0
M  V30 5703 H 507.512 -1.36353 -0.463028 0
M  V30 5704 H 509.465 -2.51467 -3.38146 0
M  V30 5705 H 508.189 -1.339 -2.9789 0
M  V30 5706 H 506.848 -3.1568 -1.86391 0
M  V30 5707 H 506.496 -2.63526 -4.28443 0
M  V30 5708 H 506.196 -4.35757 -3.94195 0
M  V30 5709 H 507.72 -3.86042 -4.73079 0
M  V30 5710 H 509.134 -5.01637 -2.77549 0
M  V30 5711 H 507.531 -5.57655 -2.21677 0
M  V30 5712 H 508.601 -4.7253 -1.08829 0
M  V30 5713 N 509.944 0.496216 -1.49584 0
M  V30 5714 C 510.874 1.60576 -1.69521 0
M  V30 5715 C 511.855 1.61169 -0.543933 0
M  V30 5716 O 513.04 1.77834 -0.78031 0
M  V30 5717 C 510.17 2.99038 -1.76616 0
M  V30 5718 C 509.124 3.13312 -2.91581 0
M  V30 5719 C 508.45 4.53172 -2.83794 0
M  V30 5720 C 509.75 2.92886 -4.32452 0
M  V30 5721 H 511.444 1.44146 -2.62416 0
M  V30 5722 H 508.99 0.692024 -1.26282 0
M  V30 5723 H 510.943 3.76564 -1.8915 0
M  V30 5724 H 509.667 3.16568 -0.80324 0
M  V30 5725 H 508.326 2.38213 -2.78658 0
M  V30 5726 H 507.974 4.67585 -1.854 0
M  V30 5727 H 507.674 4.63662 -3.60958 0
M  V30 5728 H 509.198 5.32752 -2.98342 0
M  V30 5729 H 510.612 3.60178 -4.46032 0
M  V30 5730 H 509.009 3.14844 -5.10875 0
M  V30 5731 H 510.079 1.88966 -4.46565 0
M  V30 5732 N 511.423 1.38739 0.74761 0
M  V30 5733 C 512.672 1.3459 1.50228 0
M  V30 5734 C 512.985 -0.0595592 1.95509 0
M  V30 5735 O 514.191 -0.22361 2.70578 0
M  V30 5736 C 512.647 2.36377 2.71393 0
M  V30 5737 C 512.255 3.82573 2.33113 0
M  V30 5738 C 513.999 2.41281 3.49262 0
M  V30 5739 C 511.906 4.76032 3.50924 0
M  V30 5740 H 510.836 0.500312 0.564096 0
M  V30 5741 H 513.487 1.64324 0.8167 0
M  V30 5742 H 511.869 1.99694 3.41962 0
M  V30 5743 H 513.043 4.28227 1.70171 0
M  V30 5744 H 511.358 3.80844 1.68365 0
M  V30 5745 H 513.955 3.08301 4.36869 0
M  V30 5746 H 514.298 1.43353 3.9084 0
M  V30 5747 H 514.831 2.76793 2.85711 0
M  V30 5748 H 511.57 5.75177 3.14408 0
M  V30 5749 H 511.09 4.35066 4.12889 0
M  V30 5750 H 512.769 4.94331 4.17427 0
M  V30 5751 N 512.901 -0.976442 1.23707 0
M  V30 5752 C 514.126 -1.75875 1.09922 0
M  V30 5753 C 514.551 -1.84911 -0.34489 0
M  V30 5754 O 513.909 -1.31363 -1.24954 0
M  V30 5755 C 513.957 -3.16179 1.73388 0
M  V30 5756 O 513.061 -4.00124 0.99871 0
M  V30 5757 H 512.402 -0.540954 0.385052 0
M  V30 5758 H 514.932 -1.22546 1.6384 0
M  V30 5759 H 514.942 -3.66741 1.78788 0
M  V30 5760 H 513.617 -3.08917 2.78466 0
M  V30 5761 H 512.194 -3.58624 1.02193 0
M  V30 5762 N 514.379 -1.04941 -1.1758 0
M  V30 5763 C 515.626 -0.757989 -1.87779 0
M  V30 5764 C 515.954 0.714827 -1.80888 0
M  V30 5765 O 515.209 1.53824 -1.20982 0
M  V30 5766 C 515.508 -1.18062 -3.37337 0
M  V30 5767 C 515.174 -2.65521 -3.6443 0
M  V30 5768 C 513.836 -3.05804 -3.71534 0
M  V30 5769 C 516.188 -3.60822 -3.76108 0
M  V30 5770 C 513.516 -4.40256 -3.87803 0
M  V30 5771 C 515.868 -4.95005 -3.93895 0
M  V30 5772 C 514.532 -5.34945 -3.99237 0
M  V30 5773 H 513.802 -0.277368 -0.68713 0
M  V30 5774 H 516.449 -1.31603 -1.39115 0
M  V30 5775 H 514.754 -0.541525 -3.8804 0
M  V30 5776 H 516.451 -0.932368 -3.9001 0
M  V30 5777 H 513.041 -2.33324 -3.59524 0
M  V30 5778 H 517.225 -3.30841 -3.69943 0
M  V30 5779 H 512.481 -4.70707 -3.90186 0
M  V30 5780 H 516.655 -5.68746 -4.01872 0
M  V30 5781 H 514.282 -6.39135 -4.11596 0
M  V30 5782 N 515.857 1.33968 -0.830081 0
M  V30 5783 C 516.82 2.27694 -0.26235 0
M  V30 5784 C 517.82 1.50589 0.563876 0
M  V30 5785 O 519.01 1.70028 0.378941 0
M  V30 5786 C 516.142 3.35002 0.63138 0
M  V30 5787 H 517.335 2.79419 -1.08928 0
M  V30 5788 H 514.888 1.44221 -0.602486 0
M  V30 5789 H 515.623 2.88504 1.48109 0
M  V30 5790 H 515.408 3.92079 0.0403276 0
M  V30 5791 H 516.898 4.04897 1.02217 0
M  V30 5792 N 517.335 0.585699 1.46312 0
M  V30 5793 C 518.56 0.0762461 2.0726 0
M  V30 5794 C 518.985 -1.22071 1.43109 0
M  V30 5795 O 518.343 -1.73804 0.515942 0
M  V30 5796 C 518.391 -0.0729404 3.60526 0
M  V30 5797 O 517.495 -1.1287 3.96654 0
M  V30 5798 H 516.836 0.0641558 0.660893 0
M  V30 5799 H 519.366 0.809492 1.87905 0
M  V30 5800 H 519.376 -0.278158 4.07051 0
M  V30 5801 H 518.051 0.874188 4.06609 0
M  V30 5802 H 516.628 -0.901703 3.61834 0
M  V30 5803 N 518.813 -1.54241 0.323641 0
M  V30 5804 C 520.09 -1.92741 -0.333181 0
M  V30 5805 C 520.47 -1.25326 -1.69872 0
M  V30 5806 O 519.818 -0.396991 -2.25025 0
M  V30 5807 C 520.028 -3.46399 -0.425322 0
M  V30 5808 C 521.376 -4.19029 -0.68557 0
M  V30 5809 O 522.4 -3.52555 -0.50824 0
M  V30 5810 O 521.259 -5.36751 -1.02767 0
M  V30 5811 H 518.353 -0.804811 -0.190286 0
M  V30 5812 H 520.899 -1.65542 0.373361 0
M  V30 5813 H 519.671 -3.87643 0.533737 0
M  V30 5814 H 519.294 -3.79704 -1.17944 0
M  V30 5815 N 520.291 -0.0518155 -1.57515 0
M  V30 5816 C 521.707 0.304735 -1.56664 0
M  V30 5817 C 521.907 1.71395 -1.05953 0
M  V30 5818 O 520.963 2.42123 -0.716414 0
M  V30 5819 C 522.276 0.132614 -3.00407 0
M  V30 5820 C 523.824 0.20367 -3.12337 0
M  V30 5821 C 524.299 0.0600706 -4.57961 0
M  V30 5822 N 525.79 0.116326 -4.63054 0
M  V30 5823 C 526.525 0.0293363 -5.73392 0
M  V30 5824 N 526.021 -0.110038 -6.92713 0
M  V30 5825 N 527.814 0.0849651 -5.62036 0
M  V30 5826 H 519.965 -0.973056 -1.888 0
M  V30 5827 H 522.228 -0.377781 -0.869474 0
M  V30 5828 H 521.934 -0.839019 -3.41546 0
M  V30 5829 H 521.808 0.893376 -3.66468 0
M  V30 5830 H 524.195 1.16578 -2.71097 0
M  V30 5831 H 524.276 -0.587857 -2.48954 0
M  V30 5832 H 523.92 -0.898715 -4.99886 0
M  V30 5833 H 523.85 0.87075 -5.19351 0
M  V30 5834 H 526.341 0.22327 -3.7724 0
M  V30 5835 H 526.654 -0.169104 -7.72615 0
M  V30 5836 H 524.999 -0.145132 -6.94848 0
M  V30 5837 H 528.19 0.192411 -4.67704 0
M  V30 5838 H 528.363 0.0137131 -6.47999 0
M  V30 5839 N 521.769 1.56035 0.221574 0
M  V30 5840 C 523.046 1.69837 0.970301 0
M  V30 5841 C 523.426 0.599065 2.02421 0
M  V30 5842 O 522.774 -0.393929 2.25079 0
M  V30 5843 C 522.984 3.11148 1.58076 0
M  V30 5844 C 524.332 3.70555 2.07302 0
M  V30 5845 O 525.356 3.14109 1.6797 0
M  V30 5846 O 524.215 4.69562 2.79596 0
M  V30 5847 H 521.309 0.691727 0.453257 0
M  V30 5848 H 523.855 1.68353 0.213358 0
M  V30 5849 H 522.627 3.82617 0.819759 0
M  V30 5850 H 522.25 3.16749 2.40324 0
M  V30 5851 N 523.247 -0.488276 1.49845 0
M  V30 5852 C 524.475 -1.26527 1.63702 0
M  V30 5853 C 524.89 -1.8618 0.313447 0
M  V30 5854 O 524.247 -1.68432 -0.702624 0
M  V30 5855 C 524.298 -2.3864 2.71538 0
M  V30 5856 O 524.019 -1.81437 3.98763 0
M  V30 5857 C 525.52 -3.29805 2.96215 0
M  V30 5858 H 522.74 -0.383295 0.55075 0
M  V30 5859 H 525.284 -0.584779 1.95961 0
M  V30 5860 H 523.439 -3.02496 2.42023 0
M  V30 5861 H 523.853 -2.55135 4.58265 0
M  V30 5862 H 525.327 -4.04722 3.75372 0
M  V30 5863 H 525.804 -3.87563 2.06619 0
M  V30 5864 H 526.41 -2.71703 3.27196 0
M  V30 5865 N 524.725 -1.39134 -0.740242 0
M  V30 5866 C 525.955 -1.39132 -1.52728 0
M  V30 5867 C 526.363 0.0173133 -1.89192 0
M  V30 5868 O 525.706 0.997715 -1.54244 0
M  V30 5869 C 525.768 -2.1952 -2.84695 0
M  V30 5870 C 525.432 -3.68203 -2.70695 0
M  V30 5871 C 526.429 -4.61401 -2.39593 0
M  V30 5872 C 524.114 -4.11724 -2.8773 0
M  V30 5873 C 526.108 -5.96102 -2.25701 0
M  V30 5874 C 523.795 -5.46503 -2.73456 0
M  V30 5875 C 524.793 -6.38506 -2.42486 0
M  V30 5876 O 524.481 -7.70803 -2.28295 0
M  V30 5877 H 524.213 -0.477263 -0.478744 0
M  V30 5878 H 526.767 -1.83504 -0.922799 0
M  V30 5879 H 524.997 -1.69888 -3.47383 0
M  V30 5880 H 526.686 -2.1176 -3.46284 0
M  V30 5881 H 527.452 -4.29079 -2.26088 0
M  V30 5882 H 523.331 -3.4045 -3.10829 0
M  V30 5883 H 526.875 -6.6788 -2.0145 0
M  V30 5884 H 522.772 -5.78417 -2.86538 0
M  V30 5885 H 523.54 -7.8147 -2.43405 0
M  V30 5886 N 526.204 0.969867 -1.24223 0
M  V30 5887 C 527.134 2.08191 -1.05729 0
M  V30 5888 C 528.115 1.70075 0.0290765 0
M  V30 5889 O 529.3 1.93712 -0.137583 0
M  V30 5890 C 526.43 3.40991 -0.658995 0
M  V30 5891 C 525.384 3.93054 -1.69389 0
M  V30 5892 C 524.71 5.22171 -1.15072 0
M  V30 5893 C 526.01 4.21137 -3.08935 0
M  V30 5894 H 527.704 2.23921 -1.98746 0
M  V30 5895 H 525.25 1.07602 -0.956967 0
M  V30 5896 H 527.203 4.18221 -0.51662 0
M  V30 5897 H 525.927 3.25155 0.30686 0
M  V30 5898 H 524.586 3.17977 -1.82444 0
M  V30 5899 H 524.234 5.02694 -0.175539 0
M  V30 5900 H 523.934 5.57973 -1.84229 0
M  V30 5901 H 525.458 6.02013 -1.02042 0
M  V30 5902 H 526.872 4.8908 -2.99121 0
M  V30 5903 H 525.269 4.68163 -3.75425 0
M  V30 5904 H 526.339 3.27996 -3.57137 0
M  V30 5905 N 527.682 1.05563 1.17022 0
M  V30 5906 C 528.928 0.778872 1.87897 0
M  V30 5907 C 529.283 -0.686839 1.79723 0
M  V30 5908 O 528.576 -1.49612 1.19694 0
M  V30 5909 C 528.77 1.19849 3.36706 0
M  V30 5910 C 528.599 2.70345 3.59366 0
M  V30 5911 C 527.369 3.37707 3.75875 0
M  V30 5912 C 529.567 3.68564 3.58699 0
M  V30 5913 N 527.549 4.7703 3.86414 0
M  V30 5914 C 528.92 4.93634 3.75134 0
M  V30 5915 C 530.975 3.6198 3.4187 0
M  V30 5916 C 529.678 6.12907 3.76481 0
M  V30 5917 C 531.704 4.80697 3.44507 0
M  V30 5918 C 531.066 6.04592 3.61453 0
M  V30 5919 H 527.165 0.337297 0.705517 0
M  V30 5920 H 529.749 1.34832 1.40458 0
M  V30 5921 H 527.92 0.656958 3.82804 0
M  V30 5922 H 529.652 0.871172 3.95212 0
M  V30 5923 H 526.407 2.88108 3.75887 0
M  V30 5924 H 526.831 5.49483 3.95471 0
M  V30 5925 H 531.473 2.67154 3.27702 0
M  V30 5926 H 529.191 7.08073 3.89432 0
M  V30 5927 H 532.777 4.77259 3.32738 0
M  V30 5928 H 531.657 6.94916 3.63403 0
M  V30 5929 N 529.16 -1.33526 0.837174 0
M  V30 5930 C 530.409 -1.97098 0.428387 0
M  V30 5931 C 530.722 -1.67062 -1.01734 0
M  V30 5932 O 531.928 -2.24235 -1.53072 0
M  V30 5933 C 530.384 -3.52725 0.715075 0
M  V30 5934 C 529.992 -3.9164 2.17537 0
M  V30 5935 C 531.736 -4.22857 0.373154 0
M  V30 5936 C 529.643 -5.40237 2.40619 0
M  V30 5937 H 528.573 -0.737589 0.156455 0
M  V30 5938 H 531.224 -1.52169 1.02552 0
M  V30 5939 H 529.606 -3.95971 0.0475904 0
M  V30 5940 H 530.78 -3.59456 2.88319 0
M  V30 5941 H 529.095 -3.34485 2.4801 0
M  V30 5942 H 531.692 -5.32133 0.523264 0
M  V30 5943 H 532.035 -4.10647 -0.683708 0
M  V30 5944 H 532.568 -3.85135 0.995801 0
M  V30 5945 H 529.307 -5.57449 3.44864 0
M  V30 5946 H 528.827 -5.73887 1.74396 0
M  V30 5947 H 530.506 -6.07102 2.23688 0
M  V30 5948 N 530.638 -0.59345 -1.46 0
M  V30 5949 C 531.886 -0.082988 -2.0193 0
M  V30 5950 C 532.207 1.28569 -1.46612 0
M  V30 5951 O 531.477 1.84629 -0.654909 0
M  V30 5952 H 530.057 -0.0276882 -0.746487 0
M  V30 5953 H 532.719 -0.771657 -1.78973 0
M  V30 5954 H 531.815 -0.022079 -3.12092 0
M  V30 5955 N 532.116 1.54067 -0.331816 0
M  V30 5956 C 533.346 2.04833 0.269605 0
M  V30 5957 C 533.754 1.20714 1.45687 0
M  V30 5958 O 533.097 0.232539 1.82222 0
M  V30 5959 C 533.159 3.51386 0.759499 0
M  V30 5960 C 532.823 4.55971 -0.306557 0
M  V30 5961 C 533.82 5.07126 -1.14538 0
M  V30 5962 C 531.505 5.00216 -0.457116 0
M  V30 5963 C 533.499 6.01096 -2.12042 0
M  V30 5964 C 531.186 5.93999 -1.43556 0
M  V30 5965 C 532.184 6.44326 -2.26568 0
M  V30 5966 O 531.872 7.36267 -3.22749 0
M  V30 5967 H 531.604 0.673509 0.0579763 0
M  V30 5968 H 534.158 1.99748 -0.478521 0
M  V30 5969 H 532.388 3.53896 1.55867 0
M  V30 5970 H 534.077 3.85184 1.28017 0
M  V30 5971 H 534.843 4.73716 -1.04009 0
M  V30 5972 H 530.722 4.60652 0.179142 0
M  V30 5973 H 534.266 6.40302 -2.76873 0
M  V30 5974 H 530.163 6.26825 -1.54146 0
M  V30 5975 H 530.931 7.54165 -3.18083 0
M  V30 5976 N 533.594 0.0601682 1.57485 0
M  V30 5977 C 534.524 -0.90889 2.15085 0
M  V30 5978 C 535.505 -1.31838 1.07484 0
M  V30 5979 O 536.69 -1.3915 1.35466 0
M  V30 5980 C 533.82 -2.18059 2.7031 0
M  V30 5981 C 532.774 -1.91088 3.82974 0
M  V30 5982 C 532.1 -3.24789 4.24754 0
M  V30 5983 C 533.4 -1.22535 5.07723 0
M  V30 5984 H 535.094 -0.429093 2.96309 0
M  V30 5985 H 532.64 -0.204952 1.42534 0
M  V30 5986 H 534.593 -2.86258 3.09248 0
M  V30 5987 H 533.317 -2.6826 1.8629 0
M  V30 5988 H 531.976 -1.25297 3.44523 0
M  V30 5989 H 531.624 -3.72809 3.37672 0
M  V30 5990 H 531.324 -3.07538 5.00694 0
M  V30 5991 H 532.848 -3.94205 4.66299 0
M  V30 5992 H 534.262 -1.80783 5.4405 0
M  V30 5993 H 532.659 -1.1558 5.88864 0
M  V30 5994 H 533.729 -0.202692 4.84476 0
M  V30 5995 N 535.072 -1.5615 -0.213296 0
M  V30 5996 C 536.312 -1.81325 -0.943435 0
M  V30 5997 C 536.676 -0.634934 -1.81198 0
M  V30 5998 O 537.877 -0.766166 -2.5765 0
M  V30 5999 C 536.148 -3.11437 -1.75334 0
M  V30 6000 S 537.707 -3.57955 -2.53799 0
M  V30 6001 H 534.525 -0.636538 -0.316766 0
M  V30 6002 H 537.127 -1.94387 -0.208313 0
M  V30 6003 H 535.831 -3.95228 -1.10556 0
M  V30 6004 H 535.362 -3.01204 -2.53061 0
M  V30 6005 H 537.377 -3.21947 -3.77577 0
M  V30 6006 N 536.55 0.480323 -1.50102 0
M  V30 6007 C 537.513 1.56181 -1.6775 0
M  V30 6008 C 538.513 1.51156 -0.548503 0
M  V30 6009 O 539.703 1.5394 -0.815363 0
M  V30 6010 C 536.835 2.95823 -1.69415 0
M  V30 6011 H 538.028 1.41855 -2.6423 0
M  V30 6012 H 535.581 0.70605 -1.39444 0
M  V30 6013 H 536.316 3.15604 -0.745948 0
M  V30 6014 H 536.101 3.00878 -2.51425 0
M  V30 6015 H 537.591 3.74359 -1.85054 0
M  V30 6016 N 538.028 1.39524 0.732853 0
M  V30 6017 C 539.277 1.36175 1.48792 0
M  V30 6018 C 539.59 -0.0388195 1.95561 0
M  V30 6019 O 540.796 -0.194899 2.708 0
M  V30 6020 C 539.252 2.39242 2.68871 0
M  V30 6021 C 538.86 3.85024 2.29042 0
M  V30 6022 C 540.604 2.44972 3.46683 0
M  V30 6023 C 538.511 4.79727 3.45856 0
M  V30 6024 H 537.441 0.506267 0.558757 0
M  V30 6025 H 540.092 1.65181 0.799226 0
M  V30 6026 H 538.474 2.0331 3.39825 0
M  V30 6027 H 539.648 4.30008 1.6562 0
M  V30 6028 H 537.963 3.82609 1.64316 0
M  V30 6029 H 540.56 3.12918 4.33574 0
M  V30 6030 H 540.903 1.4749 3.89297 0
M  V30 6031 H 541.436 2.79808 2.82759 0
M  V30 6032 H 538.175 5.78479 3.08289 0
M  V30 6033 H 537.695 4.39421 4.08251 0
M  V30 6034 H 539.374 4.98731 4.12161 0
M  V30 6035 N 539.506 -0.963266 1.24736 0
M  V30 6036 C 540.436 -2.07628 1.06832 0
M  V30 6037 C 541.417 -1.70088 -0.0200566 0
M  V30 6038 O 542.602 -1.93636 0.147854 0
M  V30 6039 C 539.732 -3.40636 0.677069 0
M  V30 6040 C 538.686 -3.9215 1.71471 0
M  V30 6041 C 538.012 -5.21553 1.1784 0
M  V30 6042 C 539.312 -4.19493 3.11164 0
M  V30 6043 H 541.006 -2.22864 1.9993 0
M  V30 6044 H 538.552 -1.07093 0.96266 0
M  V30 6045 H 540.505 -4.17941 0.538792 0
M  V30 6046 H 539.229 -3.25313 -0.289612 0
M  V30 6047 H 537.888 -3.17005 1.84128 0
M  V30 6048 H 537.536 -5.02593 0.202195 0
M  V30 6049 H 537.236 -5.56988 1.87185 0
M  V30 6050 H 538.76 -6.01463 1.05233 0
M  V30 6051 H 540.174 -4.87487 3.01711 0
M  V30 6052 H 538.571 -4.66165 3.77902 0
M  V30 6053 H 539.641 -3.26097 3.58871 0
M  V30 6054 N 540.985 -1.06182 -1.16461 0
M  V30 6055 C 541.915 -0.692861 -2.22984 0
M  V30 6056 C 542.896 0.314122 -1.67174 0
M  V30 6057 O 544.081 0.189499 -1.93273 0
M  V30 6058 C 541.211 -0.07732 -3.47214 0
M  V30 6059 C 540.165 -1.01015 -4.15909 0
M  V30 6060 C 539.491 -0.257973 -5.34077 0
M  V30 6061 C 540.791 -2.33868 -4.67015 0
M  V30 6062 H 542.485 -1.58343 -2.54102 0
M  V30 6063 H 540.031 -0.76279 -1.22137 0
M  V30 6064 H 541.984 0.19266 -4.20959 0
M  V30 6065 H 540.708 0.848254 -3.15392 0
M  V30 6066 H 539.367 -1.26486 -3.44088 0
M  V30 6067 H 539.015 0.670684 -4.98509 0
M  V30 6068 H 538.715 -0.879638 -5.80979 0
M  V30 6069 H 540.239 0.00448788 -6.106 0
M  V30 6070 H 541.653 -2.1279 -5.32347 0
M  V30 6071 H 540.05 -2.91522 -5.24533 0
M  V30 6072 H 541.12 -2.97019 -3.83286 0
M  V30 6073 N 542.463 1.3308 -0.844243 0
M  V30 6074 C 543.71 1.97605 -0.44255 0
M  V30 6075 C 544.038 1.66856 0.999458 0
M  V30 6076 O 543.293 0.943586 1.7145 0
M  V30 6077 C 543.592 3.52045 -0.616354 0
M  V30 6078 C 543.258 4.02757 -2.02726 0
M  V30 6079 C 541.92 4.16316 -2.41317 0
M  V30 6080 C 544.272 4.29776 -2.9486 0
M  V30 6081 C 541.6 4.54232 -3.71335 0
M  V30 6082 C 543.952 4.69146 -4.24364 0
M  V30 6083 C 542.616 4.80911 -4.62904 0
M  V30 6084 H 541.886 0.723088 -0.161941 0
M  V30 6085 H 544.533 1.58663 -1.0723 0
M  V30 6086 H 542.838 3.91681 0.0966812 0
M  V30 6087 H 544.535 3.99981 -0.285756 0
M  V30 6088 H 541.125 3.9268 -1.71756 0
M  V30 6089 H 545.309 4.18818 -2.6628 0
M  V30 6090 H 540.565 4.61535 -4.00993 0
M  V30 6091 H 544.739 4.89008 -4.95827 0
M  V30 6092 H 542.366 5.10048 -5.63698 0
M  V30 6093 N 543.941 0.601185 1.45683 0
M  V30 6094 C 545.169 0.100054 2.06658 0
M  V30 6095 C 545.584 -1.21285 1.44691 0
M  V30 6096 O 544.941 -1.73735 0.558772 0
M  V30 6097 C 544.992 -0.0528579 3.61461 0
M  V30 6098 O 544.713 1.20809 4.21114 0
M  V30 6099 C 546.214 -0.586193 4.39407 0
M  V30 6100 H 543.434 0.065905 0.667756 0
M  V30 6101 H 545.978 0.827101 1.87028 0
M  V30 6102 H 544.133 -0.730203 3.80456 0
M  V30 6103 H 544.547 1.03368 5.14213 0
M  V30 6104 H 546.021 -0.642297 5.4825 0
M  V30 6105 H 546.498 -1.60713 4.0874 0
M  V30 6106 H 547.104 0.0568935 4.25262 0
M  V30 6107 N 545.419 -1.53889 0.339982 0
M  V30 6108 C 546.382 -2.23547 -0.50592 0
M  V30 6109 C 547.382 -1.23445 -1.03044 0
M  V30 6110 O 548.572 -1.47909 -0.920253 0
M  V30 6111 C 545.704 -2.95234 -1.7044 0
M  V30 6112 H 546.897 -2.99722 0.103247 0
M  V30 6113 H 544.45 -1.56033 0.0912804 0
M  V30 6114 H 545.185 -2.23236 -2.35236 0
M  V30 6115 H 544.97 -3.68654 -1.33553 0
M  V30 6116 H 546.46 -3.48258 -2.30447 0
M  V30 6117 N 546.897 -0.0685191 -1.57451 0
M  V30 6118 C 547.86 0.885173 -2.11417 0
M  V30 6119 C 548.86 1.22853 -1.03748 0
M  V30 6120 O 550.05 1.16235 -1.2975 0
M  V30 6121 C 547.182 2.18964 -2.61281 0
M  V30 6122 H 548.375 0.417034 -2.96986 0
M  V30 6123 H 545.928 0.18014 -1.55258 0
M  V30 6124 H 546.663 2.70321 -1.79156 0
M  V30 6125 H 546.448 1.9534 -3.39977 0
M  V30 6126 H 547.938 2.87242 -3.0312 0
M  V30 6127 N 548.375 1.56261 0.205012 0
M  V30 6128 C 549.305 1.96779 1.257 0
M  V30 6129 C 550.286 0.838309 1.48008 0
M  V30 6130 O 551.471 1.10189 1.59913 0
M  V30 6131 C 548.601 2.29876 2.60335 0
M  V30 6132 C 547.555 3.45469 2.52656 0
M  V30 6133 C 546.881 3.64215 3.91473 0
M  V30 6134 C 548.181 4.79954 2.06014 0
M  V30 6135 H 549.875 2.84904 0.920338 0
M  V30 6136 H 547.421 1.37072 0.441277 0
M  V30 6137 H 549.374 2.56814 3.34102 0
M  V30 6138 H 548.098 1.38622 2.95722 0
M  V30 6139 H 546.757 3.18605 1.81345 0
M  V30 6140 H 546.405 2.70309 4.24196 0
M  V30 6141 H 546.105 4.41973 3.87213 0
M  V30 6142 H 547.629 3.93519 4.66878 0
M  V30 6143 H 549.043 5.05989 2.69533 0
M  V30 6144 H 547.44 5.61111 2.12777 0
M  V30 6145 H 548.51 4.74201 1.01297 0
M  V30 6146 N 549.853 -0.472356 1.50355 0
M  V30 6147 C 551.102 -1.2213 1.60522 0
M  V30 6148 C 551.415 -1.9312 0.310466 0
M  V30 6149 O 552.621 -2.69936 0.291029 0
M  V30 6150 C 551.077 -2.21909 2.83345 0
M  V30 6151 C 550.685 -1.56727 4.19691 0
M  V30 6152 C 552.429 -2.97453 3.02856 0
M  V30 6153 C 550.336 -2.54785 5.33703 0
M  V30 6154 H 549.266 -0.459543 0.597776 0
M  V30 6155 H 551.917 -0.491922 1.76783 0
M  V30 6156 H 550.299 -2.98133 2.60639 0
M  V30 6157 H 551.473 -0.863007 4.52646 0
M  V30 6158 H 549.788 -0.934685 4.05774 0
M  V30 6159 H 552.385 -3.70838 3.85205 0
M  V30 6160 H 552.728 -3.56764 2.14534 0
M  V30 6161 H 553.261 -2.28342 3.25737 0
M  V30 6162 H 550 -2.00214 6.24175 0
M  V30 6163 H 549.52 -3.23367 5.05167 0
M  V30 6164 H 551.199 -3.16639 5.64224 0
M  V30 6165 N 551.331 -1.39911 -0.725443 0
M  V30 6166 C 552.263 -1.35301 -1.85003 0
M  V30 6167 C 553.276 -0.260102 -1.60709 0
M  V30 6168 O 554.465 -0.519749 -1.70766 0
M  V30 6169 C 551.565 -1.08039 -3.21218 0
M  V30 6170 C 550.738 -2.28793 -3.7279 0
M  V30 6171 C 549.797 -1.97841 -4.87591 0
M  V30 6172 O 548.823 -2.70616 -5.00755 0
M  V30 6173 N 550.025 -0.950367 -5.72668 0
M  V30 6174 H 552.79 -2.32218 -1.89459 0
M  V30 6175 H 550.351 -1.34137 -0.90658 0
M  V30 6176 H 552.343 -0.853354 -3.95601 0
M  V30 6177 H 550.913 -0.198229 -3.11971 0
M  V30 6178 H 550.133 -2.67388 -2.8965 0
M  V30 6179 H 551.421 -3.09317 -4.03981 0
M  V30 6180 H 550.819 -0.347436 -5.64632 0
M  V30 6181 H 549.376 -0.783232 -6.47077 0
M  V30 6182 N 552.809 0.956637 -1.25245 0
M  V30 6183 C 554.034 1.74104 -1.12706 0
M  V30 6184 C 554.459 1.85436 0.315429 0
M  V30 6185 O 553.817 1.33334 1.22848 0
M  V30 6186 C 553.865 3.1338 -1.78396 0
M  V30 6187 O 552.969 3.98485 -1.06224 0
M  V30 6188 H 552.31 0.53476 -0.393609 0
M  V30 6189 H 554.84 1.19924 -1.65769 0
M  V30 6190 H 554.85 3.6385 -1.846 0
M  V30 6191 H 553.525 3.04448 -2.83345 0
M  V30 6192 H 552.102 3.56952 -1.07886 0
M  V30 6193 N 554.287 1.06798 1.15896 0
M  V30 6194 C 555.534 0.787767 1.86549 0
M  V30 6195 C 555.862 -0.685959 1.82002 0
M  V30 6196 O 555.117 -1.5188 1.23414 0
M  V30 6197 C 555.416 1.23414 3.35416 0
M  V30 6198 C 555.082 2.71285 3.6016 0
M  V30 6199 C 553.744 3.11676 3.66622 0
M  V30 6200 C 556.096 3.6676 3.7032 0
M  V30 6201 C 553.424 4.4637 3.8075 0
M  V30 6202 C 555.776 5.01209 3.8597 0
M  V30 6203 C 554.44 5.41229 3.90676 0
M  V30 6204 H 553.71 0.288264 0.682631 0
M  V30 6205 H 556.357 1.338 1.37003 0
M  V30 6206 H 554.662 0.60319 3.87129 0
M  V30 6207 H 556.359 0.994298 3.88477 0
M  V30 6208 H 552.949 2.39015 3.55767 0
M  V30 6209 H 557.133 3.36685 3.64633 0
M  V30 6210 H 552.389 4.76855 3.82648 0
M  V30 6211 H 556.563 5.75067 3.92773 0
M  V30 6212 H 554.19 6.45602 4.01375 0
M  V30 6213 N 555.766 -1.3263 0.851289 0
M  V30 6214 C 557.006 -1.99174 0.459266 0
M  V30 6215 C 557.37 -1.65913 -0.966273 0
M  V30 6216 O 558.571 -2.2552 -1.46267 0
M  V30 6217 C 556.842 -3.50721 0.687698 0
M  V30 6218 S 558.401 -4.37039 0.392746 0
M  V30 6219 H 555.219 -0.689832 0.172199 0
M  V30 6220 H 557.821 -1.61395 1.10327 0
M  V30 6221 H 556.525 -3.72417 1.72435 0
M  V30 6222 H 556.056 -3.93389 0.0299949 0
M  V30 6223 H 558.071 -4.8999 -0.782578 0
M  V30 6224 N 557.244 -0.608902 -1.45362 0
M  V30 6225 C 558.174 0.0964526 -2.33301 0
M  V30 6226 C 559.155 0.857444 -1.46908 0
M  V30 6227 O 560.34 0.827735 -1.75676 0
M  V30 6228 C 557.47 1.09354 -3.29635 0
M  V30 6229 C 556.424 0.445676 -4.25673 0
M  V30 6230 C 555.75 1.5511 -5.11708 0
M  V30 6231 C 557.05 -0.633972 -5.18438 0
M  V30 6232 H 558.744 -0.637829 -2.92527 0
M  V30 6233 H 556.29 -0.308178 -1.40664 0
M  V30 6234 H 558.243 1.59556 -3.90025 0
M  V30 6235 H 556.967 1.85843 -2.6857 0
M  V30 6236 H 555.626 -0.0354897 -3.66583 0
M  V30 6237 H 555.274 2.30631 -4.4701 0
M  V30 6238 H 554.974 1.12311 -5.76767 0
M  V30 6239 H 556.498 2.05537 -5.74967 0
M  V30 6240 H 557.912 -0.215974 -5.72893 0
M  V30 6241 H 556.309 -0.983789 -5.91981 0
M  V30 6242 H 557.379 -1.51005 -4.60788 0
M  V30 6243 N 558.722 1.53707 -0.348139 0
M  V30 6244 C 559.654 2.22725 0.540946 0
M  V30 6245 C 560.667 1.2354 1.06027 0
M  V30 6246 O 561.856 1.49867 0.96964 0
M  V30 6247 C 558.956 2.89756 1.75768 0
M  V30 6248 C 558.129 4.15297 1.37285 0
M  V30 6249 C 557.188 4.65697 2.44976 0
M  V30 6250 O 556.214 5.29798 2.08092 0
M  V30 6251 N 557.416 4.42017 3.763 0
M  V30 6252 H 560.181 2.99658 -0.0501592 0
M  V30 6253 H 557.742 1.60979 -0.17248 0
M  V30 6254 H 559.734 3.20388 2.47252 0
M  V30 6255 H 558.304 2.16382 2.25605 0
M  V30 6256 H 557.524 3.9116 0.488584 0
M  V30 6257 H 558.812 4.96948 1.09179 0
M  V30 6258 H 558.21 3.9076 4.09051 0
M  V30 6259 H 556.767 4.77242 4.4394 0
M  V30 6260 N 560.2 0.0768682 1.57412 0
M  V30 6261 C 561.44 -0.594676 1.95558 0
M  V30 6262 C 561.804 -1.66469 0.956658 0
M  V30 6263 O 563.005 -2.39215 1.22595 0
M  V30 6264 C 561.276 -1.15206 3.38323 0
M  V30 6265 S 562.835 -1.83803 3.9845 0
M  V30 6266 H 559.653 -0.194579 0.683857 0
M  V30 6267 H 562.255 0.151933 1.94909 0
M  V30 6268 H 560.959 -0.36153 4.08805 0
M  V30 6269 H 560.49 -1.93491 3.42527 0
M  V30 6270 H 562.505 -3.12087 3.85767 0
M  V30 6271 N 561.678 -1.56367 -0.196722 0
M  V30 6272 C 562.908 -1.84371 -0.932254 0
M  V30 6273 C 563.316 -0.657013 -1.77426 0
M  V30 6274 O 562.659 0.383576 -1.79651 0
M  V30 6275 C 562.721 -3.06454 -1.87952 0
M  V30 6276 C 562.385 -4.40425 -1.21962 0
M  V30 6277 C 563.382 -5.16457 -0.597343 0
M  V30 6278 C 561.067 -4.8716 -1.22396 0
M  V30 6279 C 563.061 -6.37399 0.0117913 0
M  V30 6280 C 560.748 -6.08038 -0.610995 0
M  V30 6281 C 561.746 -6.83 0.00580487 0
M  V30 6282 O 561.434 -8.01589 0.609173 0
M  V30 6283 H 561.166 -0.616377 -0.277589 0
M  V30 6284 H 563.72 -2.04329 -0.209452 0
M  V30 6285 H 561.95 -2.82377 -2.64197 0
M  V30 6286 H 563.639 -3.21118 -2.48271 0
M  V30 6287 H 564.405 -4.81445 -0.586142 0
M  V30 6288 H 560.284 -4.2877 -1.69345 0
M  V30 6289 H 563.828 -6.9585 0.493836 0
M  V30 6290 H 559.725 -6.42519 -0.619693 0
M  V30 6291 H 560.493 -8.16935 0.505919 0
M  V30 6292 N 563.156 0.464375 -1.50603 0
M  V30 6293 C 564.403 1.21596 -1.61928 0
M  V30 6294 C 564.731 1.91804 -0.322737 0
M  V30 6295 O 563.986 1.83065 0.691776 0
M  V30 6296 C 564.285 2.278 -2.75394 0
M  V30 6297 C 563.951 1.74797 -4.1564 0
M  V30 6298 C 562.613 1.60063 -4.53799 0
M  V30 6299 C 564.965 1.35548 -5.03266 0
M  V30 6300 C 562.293 1.04514 -5.77316 0
M  V30 6301 C 564.645 0.814381 -6.27336 0
M  V30 6302 C 563.309 0.653726 -6.64291 0
M  V30 6303 H 562.579 0.444951 -0.592536 0
M  V30 6304 H 565.226 0.510964 -1.84557 0
M  V30 6305 H 563.531 3.04233 -2.46879 0
M  V30 6306 H 565.228 2.85723 -2.81359 0
M  V30 6307 H 561.818 1.87234 -3.8554 0
M  V30 6308 H 566.002 1.45763 -4.74412 0
M  V30 6309 H 561.258 0.908186 -6.04617 0
M  V30 6310 H 565.432 0.501626 -6.94591 0
M  V30 6311 H 563.059 0.22114 -7.59878 0
M  V30 6312 N 564.634 1.40294 0.718013 0
M  V30 6313 C 565.566 1.36281 1.84283 0
M  V30 6314 C 566.579 0.268621 1.60569 0
M  V30 6315 O 567.768 0.528798 1.70487 0
M  V30 6316 C 564.868 1.09741 3.2064 0
M  V30 6317 C 564.041 2.30767 3.71571 0
M  V30 6318 C 563.1 2.00424 4.86535 0
M  V30 6319 O 562.126 2.73268 4.99313 0
M  V30 6320 N 563.328 0.980724 5.72156 0
M  V30 6321 H 566.093 2.3322 1.88225 0
M  V30 6322 H 563.654 1.34616 0.899453 0
M  V30 6323 H 565.646 0.874322 3.95143 0
M  V30 6324 H 564.216 0.214771 3.11861 0
M  V30 6325 H 563.436 2.68921 2.88228 0
M  V30 6326 H 564.724 3.11455 4.02335 0
M  V30 6327 H 564.122 0.377375 5.6444 0
M  V30 6328 H 562.679 0.817538 6.46653 0
M  V30 6329 N 566.112 -0.949982 1.2575 0
M  V30 6330 C 567.042 -2.06483 1.09028 0
M  V30 6331 C 568.023 -1.701 -0.00201532 0
M  V30 6332 O 569.208 -1.93469 0.168383 0
M  V30 6333 C 566.338 -3.39899 0.71316 0
M  V30 6334 C 565.292 -3.90309 1.75621 0
M  V30 6335 C 564.618 -5.20274 1.23365 0
M  V30 6336 C 565.918 -4.16169 3.15596 0
M  V30 6337 H 567.612 -2.20731 2.02283 0
M  V30 6338 H 565.158 -1.06066 0.973964 0
M  V30 6339 H 567.111 -4.17346 0.58309 0
M  V30 6340 H 565.835 -3.25602 -0.255091 0
M  V30 6341 H 564.494 -3.15035 1.8748 0
M  V30 6342 H 564.142 -5.02351 0.255491 0
M  V30 6343 H 563.842 -5.54971 1.93082 0
M  V30 6344 H 565.366 -6.00314 1.11607 0
M  V30 6345 H 566.78 -4.84259 3.06864 0
M  V30 6346 H 565.177 -4.62131 3.82825 0
M  V30 6347 H 566.247 -3.22273 3.6231 0
M  V30 6348 N 567.59 -1.07411 -1.15328 0
M  V30 6349 C 568.83 -0.807011 -1.87794 0
M  V30 6350 C 569.194 0.654987 -1.80482 0
M  V30 6351 O 570.395 1.03716 -2.47985 0
M  V30 6352 C 568.666 -1.30198 -3.32841 0
M  V30 6353 S 570.225 -1.16564 -4.23034 0
M  V30 6354 H 567.043 -0.292429 -0.648079 0
M  V30 6355 H 569.645 -1.37334 -1.39139 0
M  V30 6356 H 568.349 -2.3607 -3.35707 0
M  V30 6357 H 567.88 -0.730881 -3.86551 0
M  V30 6358 H 569.895 -0.103557 -4.96092 0
M  V30 6359 N 569.068 1.32177 -0.85831 0
M  V30 6360 C 570.315 1.97125 -0.463484 0
M  V30 6361 C 570.643 1.67907 0.981705 0
M  V30 6362 O 569.898 0.961717 1.70439 0
M  V30 6363 C 570.197 3.51372 -0.653658 0
M  V30 6364 C 569.863 4.00584 -2.06987 0
M  V30 6365 C 568.525 4.13733 -2.4572 0
M  V30 6366 C 570.877 4.26624 -2.99402 0
M  V30 6367 C 568.205 4.50268 -3.76132 0
M  V30 6368 C 570.557 4.64618 -4.29316 0
M  V30 6369 C 569.221 4.75975 -4.67979 0
M  V30 6370 H 568.491 0.72133 -0.169601 0
M  V30 6371 H 571.138 1.57517 -1.08907 0
M  V30 6372 H 569.443 3.91761 0.0551328 0
M  V30 6373 H 571.14 3.99655 -0.328163 0
M  V30 6374 H 567.73 3.90837 -1.75911 0
M  V30 6375 H 571.914 4.1597 -2.70708 0
M  V30 6376 H 567.17 4.57256 -4.05865 0
M  V30 6377 H 571.344 4.83722 -5.00985 0
M  V30 6378 H 568.971 5.04041 -5.69076 0
M  V30 6379 N 570.547 0.616602 1.45037 0
M  V30 6380 C 571.494 -0.0969439 2.30596 0
M  V30 6381 C 572.464 -0.851151 1.42635 0
M  V30 6382 O 573.649 -0.835092 1.71554 0
M  V30 6383 C 570.789 -1.08234 3.27688 0
M  V30 6384 C 569.902 -0.328072 4.30752 0
M  V30 6385 C 569.037 -1.30399 5.14946 0
M  V30 6386 C 568.076 -0.538049 6.09731 0
M  V30 6387 N 567.213 -1.46371 6.86673 0
M  V30 6388 H 572.053 0.63864 2.91076 0
M  V30 6389 H 569.59 0.326733 1.43425 0
M  V30 6390 H 571.548 -1.66688 3.82454 0
M  V30 6391 H 570.178 -1.78523 2.68941 0
M  V30 6392 H 569.23 0.372136 3.78575 0
M  V30 6393 H 570.542 0.269142 4.98073 0
M  V30 6394 H 569.696 -1.96032 5.74157 0
M  V30 6395 H 568.435 -1.93514 4.47665 0
M  V30 6396 H 567.44 0.131852 5.49642 0
M  V30 6397 H 568.665 0.0881732 6.79043 0
M  V30 6398 H 566.611 -2.08233 6.22073 0
M  V30 6399 H 566.528 -0.920152 7.50379 0
M  V30 6400 H 567.796 -2.10932 7.50418 0
M  V30 6401 N 572.025 -1.5352 0.356285 0
M  V30 6402 C 572.955 -2.28372 -0.486661 0
M  V30 6403 C 573.936 -1.30432 -1.09185 0
M  V30 6404 O 575.121 -1.59291 -1.11085 0
M  V30 6405 C 572.251 -3.06604 -1.63129 0
M  V30 6406 C 571.205 -4.12154 -1.15381 0
M  V30 6407 C 570.531 -4.78415 -2.38796 0
M  V30 6408 C 571.831 -5.21724 -0.245179 0
M  V30 6409 H 573.525 -2.99083 0.137797 0
M  V30 6410 H 571.071 -1.43841 0.0677134 0
M  V30 6411 H 573.024 -3.57712 -2.22755 0
M  V30 6412 H 571.748 -2.33568 -2.28284 0
M  V30 6413 H 570.407 -3.61978 -0.580294 0
M  V30 6414 H 570.055 -4.01959 -3.02387 0
M  V30 6415 H 569.755 -5.49734 -2.07524 0
M  V30 6416 H 571.279 -5.32313 -2.99125 0
M  V30 6417 H 572.693 -5.68391 -0.748646 0
M  V30 6418 H 571.09 -6.00095 -0.0237608 0
M  V30 6419 H 572.16 -4.79596 0.715229 0
M  V30 6420 N 573.503 -0.0852151 -1.57369 0
M  V30 6421 C 574.751 0.579658 -1.93609 0
M  V30 6422 C 575.072 1.69332 -0.967043 0
M  V30 6423 O 574.342 1.95892 -0.0174215 0
M  V30 6424 H 572.922 0.217113 -0.714752 0
M  V30 6425 H 575.584 -0.146226 -1.94351 0
M  V30 6426 H 574.68 0.996276 -2.95771 0
M  V30 6427 N 574.981 1.5647 0.188427 0
M  V30 6428 C 576.227 1.81281 0.909124 0
M  V30 6429 C 576.56 0.66034 1.82628 0
M  V30 6430 O 575.835 -0.338737 1.91528 0
M  V30 6431 C 576.118 3.16388 1.7196 0
M  V30 6432 C 575.971 4.42137 0.826714 0
M  V30 6433 C 577.29 3.48256 2.69083 0
M  V30 6434 H 574.409 0.659457 0.329068 0
M  V30 6435 H 577.051 1.89182 0.176156 0
M  V30 6436 H 575.201 3.09784 2.34448 0
M  V30 6437 H 576.873 4.60794 0.216025 0
M  V30 6438 H 575.116 4.33594 0.133792 0
M  V30 6439 H 575.787 5.33184 1.42893 0
M  V30 6440 H 578.263 3.55203 2.16726 0
M  V30 6441 H 577.139 4.43899 3.2287 0
M  V30 6442 H 577.4 2.72088 3.48455 0
M  V30 6443 N 576.459 -0.456382 1.50847 0
M  V30 6444 C 577.406 -1.55249 1.70782 0
M  V30 6445 C 578.376 -1.56757 0.549231 0
M  V30 6446 O 579.561 -1.74061 0.7815 0
M  V30 6447 C 576.701 -2.93118 1.82143 0
M  V30 6448 C 575.814 -3.01285 3.09598 0
M  V30 6449 C 574.949 -4.30159 3.11667 0
M  V30 6450 C 573.988 -4.32124 4.33515 0
M  V30 6451 N 573.125 -5.52492 4.3324 0
M  V30 6452 H 577.965 -1.37555 2.64353 0
M  V30 6453 H 575.502 -0.668543 1.3103 0
M  V30 6454 H 577.46 -3.73088 1.86711 0
M  V30 6455 H 576.09 -3.09413 0.919978 0
M  V30 6456 H 575.142 -2.14096 3.14431 0
M  V30 6457 H 576.454 -2.98597 3.99551 0
M  V30 6458 H 575.608 -5.18489 3.15046 0
M  V30 6459 H 574.347 -4.35477 2.1957 0
M  V30 6460 H 573.352 -3.42189 4.30333 0
M  V30 6461 H 574.577 -4.28485 5.26856 0
M  V30 6462 H 572.523 -5.58567 3.44004 0
M  V30 6463 H 572.44 -5.51605 5.16979 0
M  V30 6464 H 573.708 -6.42906 4.40786 0
M  V30 6465 N 577.937 -1.40673 -0.710563 0
M  V30 6466 C 579.183 -1.39428 -1.47267 0
M  V30 6467 C 579.516 0.00182129 -1.942 0
M  V30 6468 O 578.791 0.971387 -1.68506 0
M  V30 6469 C 579.074 -2.38812 -2.6952 0
M  V30 6470 C 578.927 -3.87467 -2.28449 0
M  V30 6471 C 580.246 -2.3566 -3.71689 0
M  V30 6472 H 577.365 -0.507768 -0.534173 0
M  V30 6473 H 580.007 -1.71843 -0.810547 0
M  V30 6474 H 578.157 -2.113 -3.26013 0
M  V30 6475 H 579.829 -4.25825 -1.77399 0
M  V30 6476 H 578.072 -4.03058 -1.60395 0
M  V30 6477 H 578.743 -4.5253 -3.16103 0
M  V30 6478 H 581.219 -2.6004 -3.24836 0
M  V30 6479 H 580.095 -3.07237 -4.54859 0
M  V30 6480 H 580.356 -1.36996 -4.20339 0
M  V30 6481 N 579.415 0.9433 -1.26252 0
M  V30 6482 C 580.831 1.21644 -1.03319 0
M  V30 6483 C 581.031 2.0003 0.242983 0
M  V30 6484 O 580.087 2.33838 0.952688 0
M  V30 6485 C 581.4 1.97978 -2.2633 0
M  V30 6486 C 582.948 2.10978 -2.31209 0
M  V30 6487 C 583.423 2.90713 -3.53907 0
M  V30 6488 N 584.914 2.98287 -3.54371 0
M  V30 6489 C 585.649 3.60406 -4.45976 0
M  V30 6490 N 585.145 4.24043 -5.47868 0
M  V30 6491 N 586.938 3.57658 -4.33633 0
M  V30 6492 H 579.089 0.419221 -2.08222 0
M  V30 6493 H 581.352 0.247995 -0.914988 0
M  V30 6494 H 581.058 1.47788 -3.19142 0
M  V30 6495 H 580.932 2.9865 -2.30408 0
M  V30 6496 H 583.319 2.6036 -1.38913 0
M  V30 6497 H 583.4 1.09575 -2.31143 0
M  V30 6498 H 583.044 2.42018 -4.46531 0
M  V30 6499 H 582.974 3.92367 -3.5122 0
M  V30 6500 H 585.465 2.53044 -2.80673 0
M  V30 6501 H 585.778 4.69334 -6.13959 0
M  V30 6502 H 584.123 4.22637 -5.51728 0
M  V30 6503 H 587.314 3.07134 -3.53251 0
M  V30 6504 H 587.487 4.05782 -5.05218 0
M  V30 6505 N 580.893 1.08022 1.14757 0
M  V30 6506 C 582.121 0.828847 1.89572 0
M  V30 6507 C 582.536 -0.618621 1.78377 0
M  V30 6508 O 581.893 -1.42482 1.1404 0
M  V30 6509 C 581.944 1.23677 3.39685 0
M  V30 6510 O 581.665 2.62746 3.50566 0
M  V30 6511 C 583.166 1.01569 4.31507 0
M  V30 6512 H 580.386 0.299196 0.600602 0
M  V30 6513 H 582.93 1.43846 1.45357 0
M  V30 6514 H 581.085 0.671347 3.81539 0
M  V30 6515 H 581.499 2.79573 4.43778 0
M  V30 6516 H 582.973 1.35055 5.35223 0
M  V30 6517 H 583.45 -0.0475433 4.39174 0
M  V30 6518 H 584.056 1.56636 3.95405 0
M  V30 6519 N 582.371 -1.3172 0.865308 0
M  V30 6520 C 583.334 -2.26918 0.322627 0
M  V30 6521 C 584.334 -1.52031 -0.523751 0
M  V30 6522 O 585.524 -1.70973 -0.333727 0
M  V30 6523 C 582.656 -3.36558 -0.542338 0
M  V30 6524 H 583.849 -2.76432 1.16298 0
M  V30 6525 H 581.402 -1.42573 0.640512 0
M  V30 6526 H 582.137 -2.92329 -1.40407 0
M  V30 6527 H 581.922 -3.92048 0.0636395 0
M  V30 6528 H 583.412 -4.07465 -0.91446 0
M  V30 6529 N 583.85 -0.624285 -1.44708 0
M  V30 6530 C 585.099 -0.123539 -2.01321 0
M  V30 6531 C 585.412 1.25966 -1.49639 0
M  V30 6532 O 586.618 1.85405 -1.98336 0
M  V30 6533 C 585.074 -0.170124 -3.59498 0
M  V30 6534 C 584.682 -1.55421 -4.20176 0
M  V30 6535 C 586.426 0.274513 -4.23611 0
M  V30 6536 C 584.332 -1.55628 -5.70556 0
M  V30 6537 H 583.263 -0.0424183 -0.752806 0
M  V30 6538 H 585.913 -0.782076 -1.65999 0
M  V30 6539 H 584.296 0.555385 -3.92086 0
M  V30 6540 H 585.47 -2.30276 -3.99136 0
M  V30 6541 H 583.784 -1.94235 -3.68323 0
M  V30 6542 H 586.382 0.292402 -5.339 0
M  V30 6543 H 586.725 1.3005 -3.95465 0
M  V30 6544 H 587.258 -0.398275 -3.95801 0
M  V30 6545 H 583.997 -2.56041 -6.03426 0
M  V30 6546 H 583.517 -0.850563 -5.93739 0
M  V30 6547 H 585.196 -1.28721 -6.34066 0
M  V30 6548 N 585.328 1.53329 -0.364422 0
M  V30 6549 C 586.261 2.22052 0.526145 0
M  V30 6550 C 587.239 1.21203 1.08391 0
M  V30 6551 O 588.423 1.50101 1.14026 0
M  V30 6552 C 585.55 2.91432 1.72583 0
M  V30 6553 C 584.596 4.06345 1.29562 0
M  V30 6554 S 585.429 5.34671 0.297885 0
M  V30 6555 C 586.585 6.07563 1.50392 0
M  V30 6556 H 586.818 2.97244 -0.0575055 0
M  V30 6557 H 584.351 1.53684 -0.148525 0
M  V30 6558 H 586.309 3.3202 2.41398 0
M  V30 6559 H 584.97 2.15966 2.28073 0
M  V30 6560 H 584.163 4.53901 2.19067 0
M  V30 6561 H 583.765 3.67642 0.686696 0
M  V30 6562 H 586.057 6.32224 2.43513 0
M  V30 6563 H 587 6.99973 1.06977 0
M  V30 6564 H 587.408 5.37994 1.70945 0
M  V30 6565 N 586.806 0.0935595 1.57322 0
M  V30 6566 C 587.769 -0.851426 2.12799 0
M  V30 6567 C 588.769 -1.21187 1.0569 0
M  V30 6568 O 589.959 -1.14156 1.31583 0
M  V30 6569 C 587.091 -2.14779 2.64731 0
M  V30 6570 H 588.284 -0.369733 2.97612 0
M  V30 6571 H 585.837 -0.155417 1.55525 0
M  V30 6572 H 586.572 -2.67437 1.83434 0
M  V30 6573 H 586.357 -1.89907 3.43042 0
M  V30 6574 H 587.847 -2.82383 3.07651 0
M  V30 6575 N 588.284 -1.56567 -0.180126 0
M  V30 6576 C 589.509 -1.85975 -0.918041 0
M  V30 6577 C 589.934 -0.678888 -1.75422 0
M  V30 6578 O 589.292 0.372168 -1.77439 0
M  V30 6579 C 589.34 -3.13731 -1.77779 0
M  V30 6580 O 588.444 -2.95335 -2.87838 0
M  V30 6581 H 587.785 -0.61196 -0.257683 0
M  V30 6582 H 590.315 -2.03798 -0.180923 0
M  V30 6583 H 590.325 -3.4491 -2.17948 0
M  V30 6584 H 589 -3.99293 -1.16352 0
M  V30 6585 H 587.577 -2.7549 -2.51316 0
M  V30 6586 N 589.762 0.448376 -1.51087 0
M  V30 6587 C 591.008 1.20049 -1.6345 0
M  V30 6588 C 591.341 1.91121 -0.344444 0
M  V30 6589 O 590.616 1.83125 0.655396 0
M  V30 6590 C 590.899 2.22624 -2.83038 0
M  V30 6591 C 590.752 1.55708 -4.21989 0
M  V30 6592 C 592.071 3.23718 -2.98152 0
M  V30 6593 H 589.19 0.435085 -0.59487 0
M  V30 6594 H 591.832 0.491183 -1.83541 0
M  V30 6595 H 589.982 2.83117 -2.66039 0
M  V30 6596 H 591.654 0.986367 -4.50631 0
M  V30 6597 H 589.897 0.859647 -4.25197 0
M  V30 6598 H 590.568 2.30357 -5.01637 0
M  V30 6599 H 593.044 2.73269 -3.13788 0
M  V30 6600 H 591.92 3.92795 -3.83411 0
M  V30 6601 H 592.181 3.89179 -2.09743 0
M  V30 6602 N 591.24 1.41047 0.703093 0
M  V30 6603 C 592.47 1.43133 1.48985 0
M  V30 6604 C 592.878 0.0328537 1.89171 0
M  V30 6605 O 592.221 -0.956469 1.56835 0
M  V30 6606 C 592.283 2.26991 2.78775 0
M  V30 6607 C 591.947 3.7525 2.60837 0
M  V30 6608 C 592.944 4.67591 2.27276 0
M  V30 6609 C 590.629 4.19208 2.76712 0
M  V30 6610 C 592.623 6.01877 2.09817 0
M  V30 6611 C 590.31 5.53561 2.5887 0
M  V30 6612 C 591.308 6.4471 2.25472 0
M  V30 6613 O 590.996 7.76584 2.07778 0
M  V30 6614 H 590.728 0.489788 0.465922 0
M  V30 6615 H 593.282 1.85886 0.873822 0
M  V30 6616 H 591.512 1.79038 3.42757 0
M  V30 6617 H 593.201 2.20867 3.40547 0
M  V30 6618 H 593.967 4.34923 2.14633 0
M  V30 6619 H 589.846 3.48572 3.01693 0
M  V30 6620 H 593.39 6.72986 1.83671 0
M  V30 6621 H 589.287 5.85811 2.71102 0
M  V30 6622 H 590.055 7.87649 2.22601 0
M  V30 6623 N 592.718 -0.936591 1.26751 0
M  V30 6624 C 593.665 -2.03597 1.08706 0
M  V30 6625 C 594.635 -1.66097 -0.00926542 0
M  V30 6626 O 595.82 -1.90199 0.151377 0
M  V30 6627 C 592.96 -3.3727 0.73094 0
M  V30 6628 C 592.073 -3.87778 1.90399 0
M  V30 6629 C 591.208 -5.09859 1.49056 0
M  V30 6630 C 590.247 -5.5264 2.63164 0
M  V30 6631 N 589.384 -6.65921 2.22471 0
M  V30 6632 H 594.224 -2.18364 2.02784 0
M  V30 6633 H 591.761 -1.06985 1.00958 0
M  V30 6634 H 593.719 -4.14128 0.505328 0
M  V30 6635 H 592.349 -3.22337 -0.172868 0
M  V30 6636 H 591.401 -3.07279 2.2424 0
M  V30 6637 H 592.713 -4.15464 2.76028 0
M  V30 6638 H 591.867 -5.9419 1.22567 0
M  V30 6639 H 590.606 -4.8393 0.60524 0
M  V30 6640 H 589.611 -4.66863 2.90377 0
M  V30 6641 H 590.836 -5.80568 3.52303 0
M  V30 6642 H 588.782 -6.41667 1.36379 0
M  V30 6643 H 588.699 -6.93216 3.01641 0
M  V30 6644 H 589.967 -7.53616 1.99205 0
M  V30 6645 N 594.196 -1.08629 -1.14182 0
M  V30 6646 C 595.143 -0.718299 -2.19338 0
M  V30 6647 C 596.113 0.296587 -1.63431 0
M  V30 6648 O 597.298 0.180079 -1.89948 0
M  V30 6649 C 594.438 -0.136203 -3.44831 0
M  V30 6650 C 593.551 -1.20414 -4.14879 0
M  V30 6651 C 592.686 -0.585666 -5.27962 0
M  V30 6652 C 591.725 -1.63548 -5.89846 0
M  V30 6653 N 590.862 -1.03864 -6.94375 0
M  V30 6654 H 595.702 -1.61932 -2.50164 0
M  V30 6655 H 593.239 -0.80919 -1.22844 0
M  V30 6656 H 595.197 0.219021 -4.16625 0
M  V30 6657 H 593.827 0.728121 -3.14481 0
M  V30 6658 H 592.879 -1.67676 -3.41451 0
M  V30 6659 H 594.191 -1.99959 -4.56966 0
M  V30 6660 H 593.345 -0.178818 -6.06436 0
M  V30 6661 H 592.084 0.24142 -4.87102 0
M  V30 6662 H 591.089 -2.05197 -5.10073 0
M  V30 6663 H 592.314 -2.46509 -6.3278 0
M  V30 6664 H 590.26 -0.232687 -6.55587 0
M  V30 6665 H 590.177 -1.77116 -7.3496 0
M  V30 6666 H 591.445 -0.657724 -7.7672 0
M  V30 6667 N 595.674 1.31259 -0.872281 0
M  V30 6668 C 596.637 2.26744 -0.334656 0
M  V30 6669 C 597.637 1.52307 0.515681 0
M  V30 6670 O 598.827 1.71148 0.324656 0
M  V30 6671 C 595.959 3.36841 0.524482 0
M  V30 6672 H 597.152 2.75812 -1.17762 0
M  V30 6673 H 594.705 1.42232 -0.648064 0
M  V30 6674 H 595.44 2.93069 1.38855 0
M  V30 6675 H 595.225 3.92009 -0.0844299 0
M  V30 6676 H 596.715 4.07944 0.892838 0
M  V30 6677 N 597.152 0.631951 1.44375 0
M  V30 6678 C 598.082 -0.0593243 2.33425 0
M  V30 6679 C 599.063 -0.833964 1.48253 0
M  V30 6680 O 600.248 -0.799682 1.76971 0
M  V30 6681 C 597.378 -1.04096 3.31333 0
M  V30 6682 C 596.332 -0.377899 4.26328 0
M  V30 6683 C 595.658 -1.4695 5.14111 0
M  V30 6684 C 596.958 0.716371 5.17364 0
M  V30 6685 H 598.652 0.684287 2.91475 0
M  V30 6686 H 596.198 0.330518 1.40156 0
M  V30 6687 H 598.151 -1.53331 3.92514 0
M  V30 6688 H 596.875 -1.81547 2.71493 0
M  V30 6689 H 595.534 0.0938054 3.6648 0
M  V30 6690 H 595.182 -2.2349 4.50623 0
M  V30 6691 H 594.882 -1.03121 5.78481 0
M  V30 6692 H 596.406 -1.96363 5.78164 0
M  V30 6693 H 597.82 0.307089 5.72477 0
M  V30 6694 H 596.217 1.07784 5.90341 0
M  V30 6695 H 597.287 1.58316 4.58327 0
M  V30 6696 N 598.631 -1.53133 0.372548 0
M  V30 6697 C 599.859 -2.05774 -0.215515 0
M  V30 6698 C 600.274 -1.24555 -1.41886 0
M  V30 6699 O 599.631 -0.287951 -1.80214 0
M  V30 6700 C 599.682 -3.5645 -0.602161 0
M  V30 6701 O 599.403 -4.34591 0.553359 0
M  V30 6702 C 600.904 -4.25374 -1.24787 0
M  V30 6703 H 598.124 -0.670009 -0.0364529 0
M  V30 6704 H 600.668 -1.97434 0.532934 0
M  V30 6705 H 598.823 -3.64918 -1.30052 0
M  V30 6706 H 599.237 -5.23954 0.239336 0
M  V30 6707 H 600.711 -5.32097 -1.46891 0
M  V30 6708 H 601.188 -3.79531 -2.21026 0
M  V30 6709 H 601.794 -4.21177 -0.590752 0
M  V30 6710 N 600.109 -0.101901 -1.5727 0
M  V30 6711 C 601.039 0.851544 -2.17419 0
M  V30 6712 C 602.02 1.28942 -1.10941 0
M  V30 6713 O 603.205 1.35509 -1.39107 0
M  V30 6714 C 600.335 2.10816 -2.75996 0
M  V30 6715 C 599.289 1.80867 -3.87906 0
M  V30 6716 C 598.615 3.13413 -4.33216 0
M  V30 6717 C 599.915 1.0903 -5.10793 0
M  V30 6718 H 601.609 0.350381 -2.97343 0
M  V30 6719 H 599.155 0.16709 -1.43027 0
M  V30 6720 H 601.108 2.77959 -3.16729 0
M  V30 6721 H 599.832 2.63227 -1.93337 0
M  V30 6722 H 598.491 1.16119 -3.47724 0
M  V30 6723 H 598.139 3.63725 -3.47438 0
M  V30 6724 H 597.839 2.94155 -5.08671 0
M  V30 6725 H 599.363 3.81704 -4.76586 0
M  V30 6726 H 600.777 1.66295 -5.48652 0
M  V30 6727 H 599.174 0.99927 -5.91722 0
M  V30 6728 H 600.244 0.0741704 -4.84843 0
M  V30 6729 N 601.587 1.56661 0.17182 0
M  V30 6730 C 602.812 1.86459 0.908165 0
M  V30 6731 C 603.237 0.688181 1.75059 0
M  V30 6732 O 602.595 -0.362753 1.77634 0
M  V30 6733 C 602.643 3.14669 1.76112 0
M  V30 6734 O 601.747 2.96858 2.86268 0
M  V30 6735 H 601.088 0.613318 0.254434 0
M  V30 6736 H 603.618 2.03892 0.170113 0
M  V30 6737 H 603.628 3.46061 2.16115 0
M  V30 6738 H 602.303 3.99905 1.14233 0
M  V30 6739 H 600.88 2.76819 2.49852 0
M  V30 6740 N 603.065 -0.440357 1.51323 0
M  V30 6741 C 604.013 -1.55492 1.72988 0
M  V30 6742 C 605.007 -1.58564 0.596138 0
M  V30 6743 O 606.213 -1.62345 0.777443 0
M  V30 6744 H 602.588 -0.516532 0.546533 0
M  V30 6745 H 604.559 -1.34392 2.66423 0
M  V30 6746 C 603.308 -2.93176 1.86931 0
M  V30 6747 H 602.631 -2.91543 2.73574 0
M  V30 6748 H 604.071 -3.70537 2.06103 0
M  V30 6749 C 602.53 -3.30988 0.628365 0
M  V30 6750 O 603.06 -4.01106 -0.218367 0
M  V30 6751 N 601.266 -2.86719 0.473339 0
M  V30 6752 H 600.813 -2.2983 1.16345 0
M  V30 6753 H 600.771 -3.12381 -0.355727 0
M  V30 6754 N 604.543 -1.41418 -0.695603 0
M  V30 6755 C 605.473 -1.46035 -1.82197 0
M  V30 6756 C 606.454 -0.319025 -1.67082 0
M  V30 6757 O 607.639 -0.530462 -1.86815 0
M  V30 6758 C 604.769 -1.34179 -3.20333 0
M  V30 6759 C 603.723 -2.46123 -3.50154 0
M  V30 6760 C 603.049 -2.19332 -4.87645 0
M  V30 6761 C 604.349 -3.88463 -3.49133 0
M  V30 6762 H 606.043 -2.40303 -1.78591 0
M  V30 6763 H 603.589 -1.15663 -0.857797 0
M  V30 6764 H 605.542 -1.36021 -3.98844 0
M  V30 6765 H 604.266 -0.363952 -3.24566 0
M  V30 6766 H 602.925 -2.43563 -2.73994 0
M  V30 6767 H 602.573 -1.19891 -4.88503 0
M  V30 6768 H 602.273 -2.94344 -5.08562 0
M  V30 6769 H 603.797 -2.22889 -5.68465 0
M  V30 6770 H 605.211 -3.92738 -4.17648 0
M  V30 6771 H 603.608 -4.63158 -3.81582 0
M  V30 6772 H 604.678 -4.16617 -2.48109 0
M  V30 6773 N 606.021 0.929856 -1.27246 0
M  V30 6774 C 606.984 2.01172 -1.09829 0
M  V30 6775 C 607.984 1.60743 -0.0429687 0
M  V30 6776 O 609.174 1.71813 -0.287373 0
M  V30 6777 C 606.306 3.34191 -0.673003 0
M  V30 6778 H 607.499 2.18054 -2.05895 0
M  V30 6779 H 605.052 1.11036 -1.10003 0
M  V30 6780 H 605.787 3.23009 0.289134 0
M  V30 6781 H 605.572 3.64892 -1.43515 0
M  V30 6782 H 607.062 4.13646 -0.573323 0
M  V30 6783 N 607.499 1.09233 1.13605 0
M  V30 6784 C 608.915 0.82163 1.36826 0
M  V30 6785 C 609.115 -0.565021 1.93416 0
M  V30 6786 O 608.171 -1.32026 2.15234 0
M  V30 6787 C 609.484 1.91124 2.32147 0
M  V30 6788 C 611.032 1.93824 2.45767 0
M  V30 6789 C 611.507 3.01923 3.44393 0
M  V30 6790 N 612.998 3.01149 3.51942 0
M  V30 6791 C 613.733 3.81434 4.2813 0
M  V30 6792 N 613.229 4.71621 5.07489 0
M  V30 6793 N 615.022 3.69702 4.23411 0
M  V30 6794 H 607.173 1.98633 0.752234 0
M  V30 6795 H 609.436 0.862482 0.393482 0
M  V30 6796 H 609.142 2.90862 1.97717 0
M  V30 6797 H 609.016 1.78777 3.32142 0
M  V30 6798 H 611.403 0.94726 2.79483 0
M  V30 6799 H 611.484 2.10248 1.45703 0
M  V30 6800 H 611.128 4.01232 3.11408 0
M  V30 6801 H 611.058 2.82742 4.44257 0
M  V30 6802 H 613.549 2.35789 2.95317 0
M  V30 6803 H 613.862 5.29468 5.62924 0
M  V30 6804 H 612.207 4.75658 5.06729 0
M  V30 6805 H 615.398 2.98606 3.60489 0
M  V30 6806 H 615.571 4.32509 4.82535 0
M  V30 6807 N 608.977 -1.30795 0.87923 0
M  V30 6808 C 609.924 -2.28282 0.339968 0
M  V30 6809 C 610.894 -1.56134 -0.566685 0
M  V30 6810 O 612.079 -1.84231 -0.496338 0
M  V30 6811 C 609.219 -3.42225 -0.444501 0
M  V30 6812 C 608.332 -4.29204 0.490717 0
M  V30 6813 C 607.467 -5.30302 -0.308784 0
M  V30 6814 C 606.506 -6.08929 0.622272 0
M  V30 6815 N 605.643 -7.01957 -0.14155 0
M  V30 6816 H 610.483 -2.73794 1.17647 0
M  V30 6817 H 608.02 -1.34682 0.591527 0
M  V30 6818 H 609.978 -4.07038 -0.915186 0
M  V30 6819 H 608.608 -2.97799 -1.24562 0
M  V30 6820 H 607.66 -3.6475 1.07988 0
M  V30 6821 H 608.972 -4.84045 1.20425 0
M  V30 6822 H 608.126 -6.00835 -0.841575 0
M  V30 6823 H 606.865 -4.7614 -1.05556 0
M  V30 6824 H 605.87 -5.37278 1.16674 0
M  V30 6825 H 607.095 -6.65178 1.36804 0
M  V30 6826 H 605.041 -6.50192 -0.870966 0
M  V30 6827 H 604.958 -7.54261 0.51246 0
M  V30 6828 H 606.226 -7.76741 -0.655271 0
M  V30 6829 N 610.455 -0.639598 -1.44038 0
M  V30 6830 C 611.365 0.0612377 -2.3452 0
M  V30 6831 C 612.381 0.826717 -1.53106 0
M  V30 6832 O 613.557 0.777059 -1.85806 0
M  V30 6833 C 610.622 1.02492 -3.31204 0
M  V30 6834 C 609.683 0.25788 -4.28525 0
M  V30 6835 C 608.916 1.17566 -5.2059 0
M  V30 6836 O 609.139 2.41461 -5.16771 0
M  V30 6837 O 608.073 0.655407 -5.98321 0
M  V30 6838 H 611.899 -0.68318 -2.95916 0
M  V30 6839 H 609.484 -0.399784 -1.43952 0
M  V30 6840 H 611.366 1.57911 -3.90694 0
M  V30 6841 H 610.041 1.7498 -2.7233 0
M  V30 6842 H 608.948 -0.339566 -3.72556 0
M  V30 6843 H 610.281 -0.427154 -4.90343 0
M  V30 6844 N 611.933 1.52934 -0.380664 0
M  V30 6845 C 613.163 2.05587 0.204302 0
M  V30 6846 C 613.571 1.25288 1.41773 0
M  V30 6847 O 612.914 0.290394 1.8139 0
M  V30 6848 C 612.976 3.53624 0.647324 0
M  V30 6849 C 612.64 4.54765 -0.451465 0
M  V30 6850 C 613.637 5.03226 -1.30614 0
M  V30 6851 C 611.322 4.98508 -0.616025 0
M  V30 6852 C 613.316 5.94046 -2.31058 0
M  V30 6853 C 611.003 5.89131 -1.62381 0
M  V30 6854 C 612.001 6.36792 -2.46952 0
M  V30 6855 O 611.689 7.25626 -3.46009 0
M  V30 6856 H 611.421 0.675013 0.0365198 0
M  V30 6857 H 613.975 1.98125 -0.541827 0
M  V30 6858 H 612.205 3.58676 1.44529 0
M  V30 6859 H 613.894 3.89061 1.15698 0
M  V30 6860 H 614.66 4.70167 -1.19027 0
M  V30 6861 H 610.539 4.60989 0.0324987 0
M  V30 6862 H 614.083 6.3117 -2.97104 0
M  V30 6863 H 609.98 6.21603 -1.7401 0
M  V30 6864 H 610.748 7.43664 -3.41916 0
M  V30 6865 N 613.412 0.11024 1.57214 0
M  V30 6866 C 614.64 -0.557834 1.99238 0
M  V30 6867 C 615.055 -1.60778 0.989734 0
M  V30 6868 O 614.412 -1.82491 -0.0186092 0
M  V30 6869 C 614.463 -1.19189 3.41286 0
M  V30 6870 O 614.184 -0.183919 4.37714 0
M  V30 6871 C 615.685 -1.94413 3.98395 0
M  V30 6872 H 612.905 -0.148392 0.654386 0
M  V30 6873 H 615.449 0.193996 2.03578 0
M  V30 6874 H 613.604 -1.89456 3.37913 0
M  V30 6875 H 614.018 -0.643475 5.20538 0
M  V30 6876 H 615.492 -2.34116 4.99894 0
M  V30 6877 H 615.969 -2.81592 3.3705 0
M  V30 6878 H 616.575 -1.28928 4.05287 0
M  V30 6879 N 614.89 -1.56749 -0.16351 0
M  V30 6880 C 616.136 -1.82704 -0.880168 0
M  V30 6881 C 616.469 -0.689311 -1.81555 0
M  V30 6882 O 615.744 0.308224 -1.92042 0
M  V30 6883 C 616.027 -3.19084 -1.66905 0
M  V30 6884 C 615.88 -4.43397 -0.756269 0
M  V30 6885 C 617.199 -3.52493 -2.63509 0
M  V30 6886 H 614.318 -0.664608 -0.318535 0
M  V30 6887 H 616.96 -1.89438 -0.146036 0
M  V30 6888 H 615.11 -3.13475 -2.2949 0
M  V30 6889 H 616.782 -4.61079 -0.14269 0
M  V30 6890 H 615.025 -4.33752 -0.0647944 0
M  V30 6891 H 615.696 -5.3539 -1.34393 0
M  V30 6892 H 618.172 -3.58606 -2.11047 0
M  V30 6893 H 617.048 -4.48979 -3.15767 0
M  V30 6894 H 617.309 -2.77597 -3.44082 0
M  V30 6895 N 616.368 0.432326 -1.51554 0
M  V30 6896 C 617.616 1.17901 -1.64146 0
M  V30 6897 C 617.937 1.91604 -0.362367 0
M  V30 6898 O 617.207 1.85764 0.621968 0
M  V30 6899 H 615.787 0.438206 -0.604966 0
M  V30 6900 H 618.449 0.495172 -1.88505 0
M  V30 6901 H 617.545 1.90584 -2.47152 0
M  V30 6902 N 617.846 1.41785 0.688094 0
M  V30 6903 C 618.756 1.46596 1.83158 0
M  V30 6904 C 619.772 0.355862 1.70322 0
M  V30 6905 O 620.948 0.604737 1.92106 0
M  V30 6906 C 618.013 1.35322 3.192 0
M  V30 6907 C 617.074 2.56711 3.4409 0
M  V30 6908 C 616.307 2.45965 4.73642 0
M  V30 6909 O 616.53 1.48827 5.50642 0
M  V30 6910 O 615.464 3.35859 4.99482 0
M  V30 6911 H 619.29 2.43083 1.82056 0
M  V30 6912 H 616.875 1.23404 0.842126 0
M  V30 6913 H 618.757 1.31347 4.00407 0
M  V30 6914 H 617.432 0.419536 3.2097 0
M  V30 6915 H 616.339 2.66262 2.62784 0
M  V30 6916 H 617.672 3.48933 3.47141 0
M  V30 6917 N 619.324 -0.923095 1.27737 0
M  V30 6918 C 620.552 -1.70525 1.17171 0
M  V30 6919 C 620.967 -1.86847 -0.270881 0
M  V30 6920 O 620.324 -1.38879 -1.18401 0
M  V30 6921 C 620.375 -3.10242 1.85559 0
M  V30 6922 O 620.096 -2.94683 3.24182 0
M  V30 6923 C 621.597 -4.04586 1.81176 0
M  V30 6924 H 618.817 -0.533347 0.407163 0
M  V30 6925 H 621.361 -1.15599 1.68692 0
M  V30 6926 H 619.516 -3.62014 1.3793 0
M  V30 6927 H 619.93 -3.83045 3.58297 0
M  V30 6928 H 621.404 -5.00119 2.33633 0
M  V30 6929 H 621.881 -4.3218 0.782099 0
M  V30 6930 H 622.487 -3.58741 2.2844 0
M  V30 6931 N 620.802 -1.09834 -1.13024 0
M  V30 6932 C 622.048 -0.83819 -1.84668 0
M  V30 6933 C 622.381 0.634645 -1.83537 0
M  V30 6934 O 621.656 1.46753 -1.27647 0
M  V30 6935 C 621.939 -1.37933 -3.32636 0
M  V30 6936 C 621.792 -2.91857 -3.42257 0
M  V30 6937 C 623.111 -1.01654 -4.28199 0
M  V30 6938 H 620.23 -0.30595 -0.670495 0
M  V30 6939 H 622.872 -1.36044 -1.32635 0
M  V30 6940 H 621.022 -0.935111 -3.77078 0
M  V30 6941 H 622.694 -3.44759 -3.06495 0
M  V30 6942 H 620.937 -3.28776 -2.83 0
M  V30 6943 H 621.608 -3.24799 -4.46329 0
M  V30 6944 H 624.084 -1.39973 -3.9185 0
M  V30 6945 H 622.96 -1.42217 -5.30156 0
M  V30 6946 H 623.221 0.0747794 -4.42037 0
M  V30 6947 N 622.28 1.30327 -0.886154 0
M  V30 6948 C 623.228 2.30052 -0.343317 0
M  V30 6949 C 624.222 1.60212 0.550305 0
M  V30 6950 O 625.428 1.74674 0.434609 0
M  V30 6951 H 621.803 0.746306 -0.0923681 0
M  V30 6952 H 623.774 2.73294 -1.19804 0
M  V30 6953 C 622.523 3.45079 0.426107 0
M  V30 6954 H 621.846 3.99003 -0.25227 0
M  V30 6955 H 623.286 4.16931 0.771009 0
M  V30 6956 C 621.745 2.95195 1.62363 0
M  V30 6957 O 622.275 2.95323 2.723 0
M  V30 6958 N 620.481 2.51192 1.4612 0
M  V30 6959 H 620.028 2.51286 0.566832 0
M  V30 6960 H 619.986 2.18173 2.2638 0
M  V30 6961 N 623.758 0.647228 1.43697 0
M  V30 6962 C 624.688 -0.0345631 2.33474 0
M  V30 6963 C 625.669 -0.818193 1.4913 0
M  V30 6964 O 626.854 -0.780867 1.77809 0
M  V30 6965 C 623.984 -1.00576 3.32418 0
M  V30 6966 C 622.938 -0.33266 4.26705 0
M  V30 6967 C 622.264 -1.41489 5.1564 0
M  V30 6968 C 623.564 0.771204 5.16575 0
M  V30 6969 H 625.258 0.715163 2.90733 0
M  V30 6970 H 622.804 0.345364 1.39797 0
M  V30 6971 H 624.757 -1.49159 3.94119 0
M  V30 6972 H 623.481 -1.78657 2.73403 0
M  V30 6973 H 622.14 0.13267 3.6636 0
M  V30 6974 H 621.788 -2.18698 4.52968 0
M  V30 6975 H 621.488 -0.969799 5.79542 0
M  V30 6976 H 623.012 -1.9022 5.80214 0
M  V30 6977 H 624.426 0.36779 5.72119 0
M  V30 6978 H 622.823 1.1404 5.89165 0
M  V30 6979 H 623.893 1.63169 4.56622 0
M  V30 6980 N 625.236 -1.5273 0.388769 0
M  V30 6981 C 626.169 -2.22861 -0.490752 0
M  V30 6982 C 627.147 -1.22912 -1.06449 0
M  V30 6983 O 628.331 -1.51896 -1.11624 0
M  V30 6984 C 625.458 -2.94141 -1.67925 0
M  V30 6985 C 624.504 -4.08355 -1.23081 0
M  V30 6986 S 625.337 -5.35077 -0.212786 0
M  V30 6987 C 626.493 -6.09879 -1.40708 0
M  V30 6988 H 626.726 -2.97115 0.104787 0
M  V30 6989 H 624.259 -1.53428 0.172956 0
M  V30 6990 H 626.217 -3.35818 -2.36085 0
M  V30 6991 H 624.878 -2.19568 -2.24608 0
M  V30 6992 H 624.071 -4.57328 -2.11818 0
M  V30 6993 H 623.673 -3.68688 -0.628121 0
M  V30 6994 H 625.965 -6.36018 -2.33424 0
M  V30 6995 H 626.908 -7.01586 -0.958271 0
M  V30 6996 H 627.316 -5.40646 -1.62364 0
M  V30 6997 N 626.714 -0.118576 -1.57153 0
M  V30 6998 C 627.939 0.550582 -1.99958 0
M  V30 6999 C 628.364 1.59458 -0.997736 0
M  V30 7000 O 627.722 1.81274 0.0306269 0
M  V30 7001 C 627.77 1.15379 -3.41643 0
M  V30 7002 O 626.874 2.26932 -3.44348 0
M  V30 7003 H 626.215 0.137567 -0.649593 0
M  V30 7004 H 628.745 -0.206926 -2.03551 0
M  V30 7005 H 628.755 1.48942 -3.79843 0
M  V30 7006 H 627.43 0.389087 -4.14076 0
M  V30 7007 H 626.007 1.94812 -3.17967 0
M  V30 7008 N 628.193 1.56834 0.155195 0
M  V30 7009 C 629.439 1.83169 0.870467 0
M  V30 7010 C 629.772 0.698929 1.81187 0
M  V30 7011 O 629.047 -0.298035 1.92203 0
M  V30 7012 C 629.33 3.19965 1.65211 0
M  V30 7013 C 629.183 4.43792 0.732744 0
M  V30 7014 C 630.502 3.53885 2.61636 0
M  V30 7015 H 627.621 0.666288 0.315006 0
M  V30 7016 H 630.263 1.89513 0.135988 0
M  V30 7017 H 628.413 3.14687 2.27825 0
M  V30 7018 H 630.085 4.61148 0.118236 0
M  V30 7019 H 628.328 4.3378 0.0417906 0
M  V30 7020 H 628.999 5.36095 1.31552 0
M  V30 7021 H 631.475 3.5972 2.09143 0
M  V30 7022 H 630.351 4.50648 3.13381 0
M  V30 7023 H 630.612 2.79418 3.42605 0
M  V30 7024 N 629.671 -0.424282 1.51781 0
M  V30 7025 C 630.948 -1.18464 1.55646 0
M  V30 7026 C 631.328 -2.08529 0.328438 0
M  V30 7027 O 630.676 -2.17969 -0.685693 0
M  V30 7028 C 630.886 -1.97514 2.87731 0
M  V30 7029 C 632.234 -2.54106 3.40169 0
M  V30 7030 O 633.258 -2.07711 2.89369 0
M  V30 7031 O 632.117 -3.38759 4.28841 0
M  V30 7032 H 629.211 -0.540055 0.626314 0
M  V30 7033 H 631.757 -0.432291 1.64102 0
M  V30 7034 H 630.529 -1.31444 3.68562 0
M  V30 7035 H 630.152 -2.79787 2.82498 0
M  V30 7036 N 631.149 -1.42148 -0.680565 0
M  V30 7037 C 632.112 -1.4488 -1.77602 0
M  V30 7038 C 633.112 -0.337209 -1.57224 0
M  V30 7039 O 634.302 -0.597778 -1.63622 0
M  V30 7040 C 631.434 -1.27483 -3.16166 0
M  V30 7041 H 632.627 -2.42412 -1.76568 0
M  V30 7042 H 630.18 -1.28511 -0.889645 0
M  V30 7043 H 630.915 -0.30851 -3.22829 0
M  V30 7044 H 630.7 -2.08037 -3.3236 0
M  V30 7045 H 632.19 -1.32265 -3.96101 0
M  V30 7046 N 632.627 0.916307 -1.28225 0
M  V30 7047 C 633.559 2.02303 -1.07732 0
M  V30 7048 C 634.572 1.62773 -0.0298421 0
M  V30 7049 O 635.761 1.76406 -0.272626 0
M  V30 7050 C 632.861 3.33282 -0.614504 0
M  V30 7051 C 632.034 4.01439 -1.73682 0
M  V30 7052 C 631.093 5.10698 -1.26781 0
M  V30 7053 O 630.119 5.34038 -1.96958 0
M  V30 7054 N 631.321 5.80355 -0.129624 0
M  V30 7055 H 634.086 2.20442 -2.03041 0
M  V30 7056 H 631.647 1.08744 -1.19943 0
M  V30 7057 H 633.639 4.03699 -0.284397 0
M  V30 7058 H 632.209 3.11633 0.245664 0
M  V30 7059 H 631.429 3.24604 -2.23665 0
M  V30 7060 H 632.717 4.43721 -2.48976 0
M  V30 7061 H 632.115 5.6386 0.455847 0
M  V30 7062 H 630.672 6.51647 0.141224 0
M  V30 7063 N 634.105 1.10431 1.1244 0
M  V30 7064 C 635.052 0.753103 2.18167 0
M  V30 7065 C 636.022 -0.270549 1.63882 0
M  V30 7066 O 637.207 -0.149837 1.90211 0
M  V30 7067 C 634.347 0.191046 3.44571 0
M  V30 7068 C 633.46 1.26999 4.12911 0
M  V30 7069 C 632.595 0.669586 5.26963 0
M  V30 7070 C 631.634 1.72912 5.87169 0
M  V30 7071 N 630.771 1.14898 6.92635 0
M  V30 7072 H 635.611 1.65892 2.47556 0
M  V30 7073 H 633.148 0.828631 1.21541 0
M  V30 7074 H 635.106 -0.152712 4.1692 0
M  V30 7075 H 633.736 -0.677997 3.15599 0
M  V30 7076 H 632.788 1.73087 3.3874 0
M  V30 7077 H 634.1 2.07204 4.53727 0
M  V30 7078 H 633.254 0.275274 6.06075 0
M  V30 7079 H 631.993 -0.163895 4.87425 0
M  V30 7080 H 630.998 2.13286 5.06744 0
M  V30 7081 H 632.223 2.56544 6.28778 0
M  V30 7082 H 630.169 0.336956 6.55134 0
M  V30 7083 H 630.086 1.88786 7.32049 0
M  V30 7084 H 631.354 0.78121 7.75576 0
M  V30 7085 N 635.583 -1.29855 0.893053 0
M  V30 7086 C 636.513 -2.3035 0.382249 0
M  V30 7087 C 637.494 -1.61328 -0.539203 0
M  V30 7088 O 638.679 -1.88882 -0.451342 0
M  V30 7089 C 635.809 -3.45024 -0.396983 0
M  V30 7090 C 634.763 -4.258 0.433437 0
M  V30 7091 C 634.089 -5.32605 -0.472889 0
M  V30 7092 C 635.389 -4.94549 1.67984 0
M  V30 7093 H 637.083 -2.73325 1.22205 0
M  V30 7094 H 634.629 -1.314 0.589073 0
M  V30 7095 H 636.582 -4.14398 -0.765024 0
M  V30 7096 H 635.306 -3.00875 -1.2705 0
M  V30 7097 H 633.965 -3.58125 0.783723 0
M  V30 7098 H 633.613 -4.84702 -1.34435 0
M  V30 7099 H 633.313 -5.87547 0.0789958 0
M  V30 7100 H 634.837 -6.04832 -0.837269 0
M  V30 7101 H 636.251 -5.56395 1.38192 0
M  V30 7102 H 634.648 -5.59393 2.17254 0
M  V30 7103 H 635.718 -4.20215 2.41965 0
M  V30 7104 N 637.061 -0.65484 -1.43351 0
M  V30 7105 C 637.994 0.0855537 -2.2804 0
M  V30 7106 C 638.972 0.828301 -1.39921 0
M  V30 7107 O 640.156 0.827539 -1.69364 0
M  V30 7108 C 637.283 1.12792 -3.19368 0
M  V30 7109 C 636.329 0.483037 -4.23756 0
M  V30 7110 S 637.162 -0.744605 -5.30298 0
M  V30 7111 C 638.318 0.297187 -6.25194 0
M  V30 7112 H 638.551 -0.632831 -2.90487 0
M  V30 7113 H 636.084 -0.44373 -1.47886 0
M  V30 7114 H 638.042 1.7243 -3.72529 0
M  V30 7115 H 636.703 1.81863 -2.56095 0
M  V30 7116 H 635.896 1.26888 -4.87766 0
M  V30 7117 H 635.498 -0.0392713 -3.73979 0
M  V30 7118 H 637.79 1.1629 -6.67445 0
M  V30 7119 H 638.733 -0.30793 -7.0743 0
M  V30 7120 H 639.141 0.633721 -5.60932 0
M  V30 7121 N 638.539 1.52521 -0.396863 0
M  V30 7122 C 639.816 1.94112 0.240842 0
M  V30 7123 C 640.196 1.33288 1.637 0
M  V30 7124 O 639.544 0.503901 2.22875 0
M  V30 7125 C 639.754 3.48033 0.259567 0
M  V30 7126 C 641.102 4.21822 0.484866 0
M  V30 7127 O 642.126 3.54579 0.339453 0
M  V30 7128 O 640.985 5.41042 0.770412 0
M  V30 7129 H 638.079 0.812973 0.151671 0
M  V30 7130 H 640.625 1.63572 -0.451918 0
M  V30 7131 H 639.397 3.84655 -0.718078 0
M  V30 7132 H 639.02 3.84899 0.996937 0
M  V30 7133 N 640.017 0.126909 1.57088 0
M  V30 7134 C 641.263 -0.529952 1.95753 0
M  V30 7135 C 641.596 -1.65823 1.01077 0
M  V30 7136 O 640.871 -1.94437 0.0494162 0
M  V30 7137 C 641.154 -1.05517 3.44294 0
M  V30 7138 C 641.007 0.0702253 4.49745 0
M  V30 7139 C 642.326 -1.9435 3.94862 0
M  V30 7140 H 639.445 -0.191168 0.711775 0
M  V30 7141 H 642.087 0.204071 1.88901 0
M  V30 7142 H 640.237 -1.68069 3.50264 0
M  V30 7143 H 641.909 0.705834 4.55868 0
M  V30 7144 H 640.152 0.732259 4.27575 0
M  V30 7145 H 640.823 -0.338642 5.5096 0
M  V30 7146 H 643.299 -1.41658 3.91244 0
M  V30 7147 H 642.175 -2.28015 4.993 0
M  V30 7148 H 642.436 -2.87299 3.36024 0
M  V30 7149 N 641.495 -1.56914 -0.146875 0
M  V30 7150 C 642.723 -1.87515 -0.874394 0
M  V30 7151 C 643.138 -0.715116 -1.74733 0
M  V30 7152 O 642.495 0.315113 -1.79759 0
M  V30 7153 C 642.546 -3.17362 -1.731 0
M  V30 7154 O 642.267 -4.28897 -0.893245 0
M  V30 7155 C 643.768 -3.61479 -2.56609 0
M  V30 7156 H 640.988 -0.621546 -0.252827 0
M  V30 7157 H 643.532 -2.04023 -0.139627 0
M  V30 7158 H 641.687 -3.02608 -2.41883 0
M  V30 7159 H 642.101 -5.03146 -1.48137 0
M  V30 7160 H 643.575 -4.5517 -3.12289 0
M  V30 7161 H 644.052 -2.86773 -3.32653 0
M  V30 7162 H 644.658 -3.78927 -1.93117 0
M  V30 7163 N 642.974 0.416227 -1.52004 0
M  V30 7164 C 643.922 1.5272 -1.7544 0
M  V30 7165 C 644.916 1.57596 -0.621289 0
M  V30 7166 O 646.122 1.61087 -0.803172 0
M  V30 7167 H 642.497 0.507772 -0.554682 0
M  V30 7168 H 644.468 1.30136 -2.68528 0
M  V30 7169 C 643.217 2.90165 -1.91571 0
M  V30 7170 H 642.54 2.87154 -2.78178 0
M  V30 7171 H 643.98 3.67211 -2.11972 0
M  V30 7172 C 642.439 3.29947 -0.680942 0
M  V30 7173 O 642.969 4.01403 0.154527 0
M  V30 7174 N 641.175 2.8593 -0.518894 0
M  V30 7175 H 640.722 2.2795 -1.19986 0
M  V30 7176 H 640.68 3.12907 0.305985 0
M  V30 7177 N 644.452 1.42507 0.673017 0
M  V30 7178 C 645.699 1.43072 1.43306 0
M  V30 7179 C 646.027 0.0478004 1.94441 0
M  V30 7180 O 645.282 -0.944106 1.71421 0
M  V30 7181 C 645.581 2.40351 2.64511 0
M  V30 7182 C 645.247 3.8669 2.31908 0
M  V30 7183 C 643.909 4.26551 2.22728 0
M  V30 7184 C 646.261 4.78991 2.05467 0
M  V30 7185 C 643.589 5.56691 1.85234 0
M  V30 7186 C 645.941 6.09476 1.69477 0
M  V30 7187 C 644.605 6.48334 1.58808 0
M  V30 7188 H 643.875 0.523536 0.524395 0
M  V30 7189 H 646.522 1.75459 0.76723 0
M  V30 7190 H 644.827 2.01297 3.36135 0
M  V30 7191 H 646.524 2.38051 3.22696 0
M  V30 7192 H 643.114 3.55132 2.39956 0
M  V30 7193 H 647.298 4.48982 2.11492 0
M  V30 7194 H 642.554 5.85657 1.75545 0
M  V30 7195 H 646.728 6.80482 1.48043 0
M  V30 7196 H 644.355 7.49084 1.29525 0
M  V30 7197 N 645.93 -0.909495 1.28709 0
M  V30 7198 C 646.863 -2.01388 1.07323 0
M  V30 7199 C 647.841 -1.62596 -0.0119757 0
M  V30 7200 O 649.025 -1.88003 0.136796 0
M  V30 7201 C 646.152 -3.32755 0.631797 0
M  V30 7202 C 645.198 -3.90532 1.71428 0
M  V30 7203 S 646.031 -4.20853 3.31124 0
M  V30 7204 C 647.187 -5.55276 2.88825 0
M  V30 7205 H 647.42 -2.19219 2.00824 0
M  V30 7206 H 644.953 -1.05489 1.12745 0
M  V30 7207 H 646.911 -4.08702 0.38381 0
M  V30 7208 H 645.572 -3.12818 -0.283451 0
M  V30 7209 H 644.765 -4.85385 1.35712 0
M  V30 7210 H 644.367 -3.21237 1.91528 0
M  V30 7211 H 646.659 -6.35341 2.3526 0
M  V30 7212 H 647.602 -5.95907 3.82492 0
M  V30 7213 H 648.01 -5.16666 2.27412 0
M  V30 7214 N 647.408 -1.11026 -1.11852 0
M  V30 7215 C 648.358 -0.733836 -2.15868 0
M  V30 7216 C 649.342 0.26001 -1.58785 0
M  V30 7217 O 650.534 0.0677901 -1.7687 0
M  V30 7218 C 647.663 -0.173948 -3.42859 0
M  V30 7219 C 646.749 -1.1952 -4.0691 0
M  V30 7220 N 647.14 -2.38797 -4.45881 0
M  V30 7221 C 645.438 -1.03714 -4.33773 0
M  V30 7222 C 646.139 -3.03894 -4.96007 0
M  V30 7223 N 645.115 -2.31389 -4.91894 0
M  V30 7224 H 648.917 -1.64171 -2.43773 0
M  V30 7225 H 646.431 -0.988877 -1.28822 0
M  V30 7226 H 648.428 0.113836 -4.16745 0
M  V30 7227 H 647.088 0.728568 -3.16421 0
M  V30 7228 H 648.099 -2.76281 -4.38051 0
M  V30 7229 H 644.776 -0.190694 -4.17064 0
M  V30 7230 H 646.166 -4.05389 -5.35826 0
M  V30 7231 N 648.886 1.2938 -0.899927 0
M  V30 7232 C 649.819 2.25911 -0.322386 0
M  V30 7233 C 650.797 1.52447 0.565567 0
M  V30 7234 O 651.981 1.81404 0.512324 0
M  V30 7235 C 649.108 3.3436 0.540455 0
M  V30 7236 C 648.154 4.25579 -0.280211 0
M  V30 7237 S 648.987 5.08526 -1.67814 0
M  V30 7238 C 650.143 6.20476 -0.822224 0
M  V30 7239 H 650.376 2.7455 -1.1406 0
M  V30 7240 H 647.909 1.37606 -0.700285 0
M  V30 7241 H 649.867 3.97303 1.0325 0
M  V30 7242 H 648.528 2.84416 1.33291 0
M  V30 7243 H 647.721 5.02574 0.378915 0
M  V30 7244 H 647.323 3.67287 -0.705405 0
M  V30 7245 H 649.615 6.77485 -0.0457138 0
M  V30 7246 H 650.558 6.90606 -1.56426 0
M  V30 7247 H 650.966 5.63243 -0.37651 0
M  V30 7248 N 650.364 0.662433 1.43002 0
M  V30 7249 C 651.294 -0.00979809 2.33498 0
M  V30 7250 C 652.275 -0.802329 1.49989 0
M  V30 7251 O 653.46 -0.761964 1.78627 0
M  V30 7252 C 650.59 -0.970446 3.33466 0
M  V30 7253 C 649.544 -0.287383 4.27034 0
M  V30 7254 C 648.87 -1.36012 5.17112 0
M  V30 7255 C 650.17 0.82595 5.15728 0
M  V30 7256 H 651.864 0.745959 2.89958 0
M  V30 7257 H 649.41 0.360172 1.39423 0
M  V30 7258 H 651.363 -1.44971 3.95679 0
M  V30 7259 H 650.087 -1.75748 2.75282 0
M  V30 7260 H 648.746 0.17152 3.66199 0
M  V30 7261 H 648.394 -2.13882 4.55262 0
M  V30 7262 H 648.094 -0.908276 5.80538 0
M  V30 7263 H 649.618 -1.84056 5.82199 0
M  V30 7264 H 651.032 0.42845 5.71697 0
M  V30 7265 H 649.429 1.20282 5.87922 0
M  V30 7266 H 650.499 1.68003 4.54866 0
M  V30 7267 N 651.842 -1.52309 0.404946 0
M  V30 7268 C 653.088 -2.02731 -0.164857 0
M  V30 7269 C 653.443 -1.28543 -1.43159 0
M  V30 7270 O 652.736 -0.381883 -1.87756 0
M  V30 7271 C 652.93 -3.54284 -0.470895 0
M  V30 7272 C 652.759 -4.43152 0.764625 0
M  V30 7273 C 651.529 -4.88594 1.28858 0
M  V30 7274 C 653.727 -4.874 1.64152 0
M  V30 7275 N 651.709 -5.61577 2.48001 0
M  V30 7276 C 653.08 -5.59121 2.67924 0
M  V30 7277 C 655.135 -4.69421 1.65978 0
M  V30 7278 C 653.838 -6.14772 3.73427 0
M  V30 7279 C 655.864 -5.25966 2.70396 0
M  V30 7280 C 655.226 -5.97606 3.7289 0
M  V30 7281 H 651.325 -0.78169 -0.0220025 0
M  V30 7282 H 653.909 -1.86522 0.558354 0
M  V30 7283 H 652.08 -3.70574 -1.16315 0
M  V30 7284 H 653.812 -3.91394 -1.02921 0
M  V30 7285 H 650.567 -4.6596 0.847232 0
M  V30 7286 H 650.991 -6.02712 3.08329 0
M  V30 7287 H 655.633 -4.13524 0.88079 0
M  V30 7288 H 653.351 -6.69743 4.52184 0
M  V30 7289 H 656.937 -5.13926 2.72711 0
M  V30 7290 H 655.817 -6.40577 4.52361 0
M  V30 7291 N 653.32 -0.135238 -1.57019 0
M  V30 7292 C 654.545 0.529343 -2.00531 0
M  V30 7293 C 654.97 1.58391 -1.01459 0
M  V30 7294 O 654.328 1.81296 0.0113986 0
M  V30 7295 C 654.376 1.11748 -3.42848 0
M  V30 7296 O 653.48 2.23267 -3.46736 0
M  V30 7297 H 652.821 0.130669 -0.651016 0
M  V30 7298 H 655.351 -0.228503 -2.0332 0
M  V30 7299 H 655.361 1.44905 -3.81401 0
M  V30 7300 H 654.036 0.345147 -4.14465 0
M  V30 7301 H 652.613 1.91428 -3.20015 0
M  V30 7302 N 654.798 1.5699 0.138552 0
M  V30 7303 C 656.023 1.88344 0.86841 0
M  V30 7304 C 656.448 0.725159 1.7356 0
M  V30 7305 O 655.806 -0.324992 1.78363 0
M  V30 7306 C 655.854 3.18334 1.69398 0
M  V30 7307 O 654.958 3.02863 2.79907 0
M  V30 7308 H 654.299 0.618577 0.241367 0
M  V30 7309 H 656.829 2.04207 0.126826 0
M  V30 7310 H 656.839 3.50567 2.08726 0
M  V30 7311 H 655.514 4.02238 1.05725 0
M  V30 7312 H 654.091 2.82056 2.43924 0
M  V30 7313 N 656.276 -0.40816 1.52223 0
M  V30 7314 C 657.522 -1.15673 1.66576 0
M  V30 7315 C 657.855 -1.90141 0.394996 0
M  V30 7316 O 657.13 -1.84798 -0.606613 0
M  V30 7317 C 657.413 -2.15042 2.88841 0
M  V30 7318 C 657.266 -1.44465 4.25969 0
M  V30 7319 C 658.585 -3.15699 3.0663 0
M  V30 7320 H 655.704 -0.41916 0.606196 0
M  V30 7321 H 658.346 -0.442348 1.84779 0
M  V30 7322 H 656.496 -2.75964 2.73452 0
M  V30 7323 H 658.168 -0.866544 4.53088 0
M  V30 7324 H 656.411 -0.746612 4.27327 0
M  V30 7325 H 657.082 -2.16976 5.07568 0
M  V30 7326 H 659.558 -2.64854 3.20923 0
M  V30 7327 H 658.434 -3.82491 3.9369 0
M  V30 7328 H 658.695 -3.83481 2.19987 0
M  V30 7329 N 657.755 -1.42862 -0.66545 0
M  V30 7330 C 658.685 -1.49867 -1.79059 0
M  V30 7331 C 659.666 -0.354394 -1.66367 0
M  V30 7332 O 660.851 -0.569969 -1.85647 0
M  V30 7333 C 657.981 -1.40943 -3.17415 0
M  V30 7334 C 656.935 -2.53495 -3.44854 0
M  V30 7335 C 656.261 -2.29626 -4.82883 0
M  V30 7336 C 657.561 -3.95781 -3.40815 0
M  V30 7337 H 659.255 -2.44037 -1.73453 0
M  V30 7338 H 656.801 -1.17456 -0.833071 0
M  V30 7339 H 658.754 -1.4445 -3.95869 0
M  V30 7340 H 657.478 -0.432716 -3.23721 0
M  V30 7341 H 656.137 -2.4932 -2.68766 0
M  V30 7342 H 655.785 -1.30226 -4.8585 0
M  V30 7343 H 655.485 -3.05065 -5.02204 0
M  V30 7344 H 657.009 -2.34897 -5.63609 0
M  V30 7345 H 658.423 -4.01508 -4.09224 0
M  V30 7346 H 656.82 -4.71148 -3.71672 0
M  V30 7347 H 657.89 -4.21786 -2.39216 0
M  V30 7348 N 659.233 0.902656 -1.29189 0
M  V30 7349 C 660.165 2.01149 -1.09872 0
M  V30 7350 C 661.178 1.62732 -0.0471046 0
M  V30 7351 O 662.367 1.76107 -0.29132 0
M  V30 7352 C 659.467 3.32612 -0.649818 0
M  V30 7353 C 658.64 3.99574 -1.7793 0
M  V30 7354 C 657.699 5.09325 -1.32191 0
M  V30 7355 O 656.725 5.31919 -2.02611 0
M  V30 7356 N 657.927 5.80185 -0.191171 0
M  V30 7357 H 660.692 2.18276 -2.05368 0
M  V30 7358 H 658.253 1.07466 -1.2109 0
M  V30 7359 H 660.245 4.03375 -0.327199 0
M  V30 7360 H 658.815 3.11876 0.212597 0
M  V30 7361 H 658.035 3.22213 -2.27095 0
M  V30 7362 H 659.323 4.41056 -2.53668 0
M  V30 7363 H 658.721 5.64312 0.396016 0
M  V30 7364 H 657.278 6.5176 0.0721001 0
M  V30 7365 N 660.711 1.11618 1.11262 0
M  V30 7366 C 661.96 0.860934 1.82403 0
M  V30 7367 C 662.273 -0.615303 1.8567 0
M  V30 7368 O 663.479 -0.986861 2.52929 0
M  V30 7369 C 661.935 1.49048 3.27586 0
M  V30 7370 C 661.543 3.00089 3.32642 0
M  V30 7371 C 663.287 1.31515 4.03614 0
M  V30 7372 C 661.194 3.56019 4.72234 0
M  V30 7373 H 660.124 0.318423 0.683464 0
M  V30 7374 H 662.775 1.34165 1.25188 0
M  V30 7375 H 661.157 0.937434 3.84744 0
M  V30 7376 H 662.331 3.61813 2.85356 0
M  V30 7377 H 660.646 3.16919 2.70096 0
M  V30 7378 H 663.243 1.70732 5.0671 0
M  V30 7379 H 663.586 0.257917 4.155 0
M  V30 7380 H 664.119 1.83694 3.52848 0
M  V30 7381 H 660.858 4.61463 4.65545 0
M  V30 7382 H 660.378 2.99066 5.19923 0
M  V30 7383 H 662.057 3.54568 5.41193 0
M  V30 7384 N 662.189 -1.289 0.906776 0
M  V30 7385 C 663.435 -1.95558 0.53712 0
M  V30 7386 C 663.768 -1.71262 -0.915582 0
M  V30 7387 O 663.043 -1.02961 -1.65013 0
M  V30 7388 C 663.326 -3.50198 0.838645 0
M  V30 7389 C 663.179 -3.83923 2.34357 0
M  V30 7390 C 664.498 -4.38861 0.329988 0
M  V30 7391 H 661.617 -0.710289 0.196617 0
M  V30 7392 H 664.259 -1.52392 1.13475 0
M  V30 7393 H 662.409 -3.87096 0.330024 0
M  V30 7394 H 664.081 -3.56933 2.92227 0
M  V30 7395 H 662.324 -3.31215 2.80141 0
M  V30 7396 H 662.995 -4.91883 2.5051 0
M  V30 7397 H 665.471 -4.08996 0.765609 0
M  V30 7398 H 664.347 -5.45931 0.570105 0
M  V30 7399 H 664.608 -4.35352 -0.769511 0
M  V30 7400 N 663.667 -0.670007 -1.42649 0
M  V30 7401 C 664.597 -0.00258501 -2.335 0
M  V30 7402 C 665.578 0.794364 -1.50412 0
M  V30 7403 O 666.763 0.75248 -1.79029 0
M  V30 7404 C 663.893 0.952748 -3.33976 0
M  V30 7405 C 662.847 0.264733 -4.2718 0
M  V30 7406 C 662.173 1.33267 -5.17826 0
M  V30 7407 C 663.473 -0.853289 -5.15283 0
M  V30 7408 H 665.167 -0.761326 -2.89559 0
M  V30 7409 H 662.713 -0.367561 -1.3923 0
M  V30 7410 H 664.666 1.4287 -3.96442 0
M  V30 7411 H 663.39 1.74285 -2.7621 0
M  V30 7412 H 662.049 -0.190938 -3.66102 0
M  V30 7413 H 661.697 2.11464 -4.5639 0
M  V30 7414 H 661.397 0.877476 -5.81011 0
M  V30 7415 H 662.921 1.80965 -5.83167 0
M  V30 7416 H 664.335 -0.458763 -5.71462 0
M  V30 7417 H 662.732 -1.23398 -5.87276 0
M  V30 7418 H 663.802 -1.70412 -4.53969 0
M  V30 7419 N 665.145 1.52092 -0.413018 0
M  V30 7420 C 666.37 2.06756 0.163338 0
M  V30 7421 C 666.795 1.28073 1.37764 0
M  V30 7422 O 666.153 0.312015 1.78595 0
M  V30 7423 C 666.201 3.57278 0.488322 0
M  V30 7424 O 665.305 3.80986 1.57871 0
M  V30 7425 H 664.646 0.663882 0.0125068 0
M  V30 7426 H 667.176 1.95988 -0.587339 0
M  V30 7427 H 667.186 4.01125 0.745836 0
M  V30 7428 H 665.861 4.13978 -0.399327 0
M  V30 7429 H 664.438 3.49017 1.31306 0
M  V30 7430 N 666.623 0.143563 1.56945 0
M  V30 7431 C 667.872 -0.50835 1.95189 0
M  V30 7432 C 668.185 -1.66239 1.03073 0
M  V30 7433 O 669.391 -2.3787 1.30882 0
M  V30 7434 C 667.847 -0.955735 3.46978 0
M  V30 7435 C 667.455 0.171183 4.47673 0
M  V30 7436 C 669.199 -1.57763 3.94095 0
M  V30 7437 C 667.106 -0.294279 5.90667 0
M  V30 7438 H 666.036 -0.193679 0.728701 0
M  V30 7439 H 668.687 0.227357 1.82086 0
M  V30 7440 H 667.069 -1.7466 3.55401 0
M  V30 7441 H 668.243 0.948049 4.50942 0
M  V30 7442 H 666.558 0.701273 4.10452 0
M  V30 7443 H 669.155 -1.93745 4.98364 0
M  V30 7444 H 669.498 -2.46531 3.35452 0
M  V30 7445 H 670.031 -0.851728 3.88575 0
M  V30 7446 H 666.77 0.557939 6.53121 0
M  V30 7447 H 666.29 -1.0371 5.90766 0
M  V30 7448 H 667.969 -0.747426 6.42668 0
M  V30 7449 N 668.101 -1.57061 -0.130224 0
M  V30 7450 C 669.348 -1.84257 -0.839972 0
M  V30 7451 C 669.676 -0.726986 -1.80403 0
M  V30 7452 O 668.931 0.282632 -1.93648 0
M  V30 7453 C 669.23 -3.17878 -1.63365 0
M  V30 7454 C 668.896 -4.43475 -0.814891 0
M  V30 7455 C 667.558 -4.77581 -0.589066 0
M  V30 7456 C 669.91 -5.20631 -0.243437 0
M  V30 7457 C 667.238 -5.86292 0.218648 0
M  V30 7458 C 669.59 -6.30192 0.551408 0
M  V30 7459 C 668.254 -6.62837 0.787653 0
M  V30 7460 H 667.524 -0.674245 -0.307367 0
M  V30 7461 H 670.171 -1.91224 -0.102832 0
M  V30 7462 H 668.476 -3.06437 -2.44138 0
M  V30 7463 H 670.173 -3.3614 -2.18658 0
M  V30 7464 H 666.763 -4.16747 -1.00098 0
M  V30 7465 H 670.947 -4.94644 -0.405145 0
M  V30 7466 H 666.203 -6.10017 0.411016 0
M  V30 7467 H 670.377 -6.89165 1.00126 0
M  V30 7468 H 668.004 -7.46908 1.41537 0
M  V30 7469 N 669.579 0.400081 -1.52437 0
M  V30 7470 C 670.826 1.14619 -1.6694 0
M  V30 7471 C 671.154 1.90262 -0.403797 0
M  V30 7472 O 670.409 1.85835 0.61351 0
M  V30 7473 C 670.708 2.15914 -2.84808 0
M  V30 7474 C 670.374 1.57011 -4.2268 0
M  V30 7475 C 669.036 1.40672 -4.60179 0
M  V30 7476 C 671.388 1.14081 -5.08562 0
M  V30 7477 C 668.716 0.799335 -5.81229 0
M  V30 7478 C 671.068 0.547573 -6.30226 0
M  V30 7479 C 669.732 0.371389 -6.66466 0
M  V30 7480 H 669.002 0.419419 -0.610875 0
M  V30 7481 H 671.649 0.432227 -1.86558 0
M  V30 7482 H 669.954 2.93488 -2.59561 0
M  V30 7483 H 671.651 2.73533 -2.93225 0
M  V30 7484 H 668.241 1.70713 -3.93135 0
M  V30 7485 H 672.425 1.2551 -4.80168 0
M  V30 7486 H 667.681 0.65093 -6.07925 0
M  V30 7487 H 671.855 0.206575 -6.96094 0
M  V30 7488 H 669.482 -0.10135 -7.60132 0
M  V30 7489 N 671.057 1.43213 0.657864 0
M  V30 7490 C 671.987 1.50815 1.78262 0
M  V30 7491 C 672.968 0.363211 1.66177 0
M  V30 7492 O 674.153 0.579806 1.85343 0
M  V30 7493 C 671.283 1.42625 3.16663 0
M  V30 7494 C 670.237 2.5532 3.43505 0
M  V30 7495 C 669.563 2.32184 4.81658 0
M  V30 7496 C 670.863 3.97583 3.38711 0
M  V30 7497 H 672.557 2.44954 1.72157 0
M  V30 7498 H 670.103 1.17896 0.82683 0
M  V30 7499 H 672.056 1.46548 3.95097 0
M  V30 7500 H 670.78 0.449877 3.23487 0
M  V30 7501 H 669.439 2.50742 2.6744 0
M  V30 7502 H 669.087 1.32801 4.85153 0
M  V30 7503 H 668.787 3.07724 5.00579 0
M  V30 7504 H 670.311 2.37883 5.62356 0
M  V30 7505 H 671.725 4.03673 4.07089 0
M  V30 7506 H 670.122 4.73112 3.69168 0
M  V30 7507 H 671.192 4.23049 2.36976 0
M  V30 7508 N 672.536 -0.895792 1.29666 0
M  V30 7509 C 673.782 -1.64921 1.19049 0
M  V30 7510 C 674.137 -1.90707 -0.254678 0
M  V30 7511 O 673.43 -1.5092 -1.18041 0
M  V30 7512 C 673.624 -3.00075 1.94139 0
M  V30 7513 C 673.453 -2.87482 3.4581 0
M  V30 7514 C 672.223 -2.88041 4.15163 0
M  V30 7515 C 674.421 -2.64224 4.41237 0
M  V30 7516 N 672.403 -2.66226 5.5317 0
M  V30 7517 C 673.774 -2.51427 5.66732 0
M  V30 7518 C 675.829 -2.49362 4.30956 0
M  V30 7519 C 674.532 -2.25281 6.83111 0
M  V30 7520 C 676.558 -2.246 5.47091 0
M  V30 7521 C 675.92 -2.12571 6.7156 0
M  V30 7522 H 672.019 -0.608926 0.490646 0
M  V30 7523 H 674.603 -1.05648 1.63544 0
M  V30 7524 H 672.774 -3.574 1.52052 0
M  V30 7525 H 674.506 -3.64544 1.75754 0
M  V30 7526 H 671.261 -2.99471 3.66898 0
M  V30 7527 H 671.685 -2.58361 6.25762 0
M  V30 7528 H 676.327 -2.57403 3.35415 0
M  V30 7529 H 674.045 -2.15978 7.78704 0
M  V30 7530 H 677.631 -2.13939 5.41037 0
M  V30 7531 H 676.511 -1.93676 7.59907 0
M  V30 7532 N 674.014 -1.12206 -1.10668 0
M  V30 7533 C 675.43 -0.857619 -1.346 0
M  V30 7534 C 675.63 0.513542 -1.94846 0
M  V30 7535 O 674.686 1.26273 -2.18658 0
M  V30 7536 C 675.999 -1.97212 -2.26998 0
M  V30 7537 C 677.547 -2.00272 -2.40542 0
M  V30 7538 C 678.022 -3.10948 -3.36267 0
M  V30 7539 N 679.513 -3.10375 -3.43834 0
M  V30 7540 C 680.248 -3.92651 -4.17867 0
M  V30 7541 N 679.744 -4.84911 -4.94807 0
M  V30 7542 N 681.537 -3.80798 -4.1346 0
M  V30 7543 H 673.688 -2.00558 -0.699306 0
M  V30 7544 H 675.951 -0.872612 -0.370477 0
M  V30 7545 H 675.657 -2.96002 -1.89936 0
M  V30 7546 H 675.531 -1.87521 -3.27286 0
M  V30 7547 H 677.918 -1.02103 -2.76874 0
M  V30 7548 H 677.999 -2.14037 -1.40077 0
M  V30 7549 H 677.643 -4.09348 -3.00661 0
M  V30 7550 H 677.573 -2.94421 -4.36605 0
M  V30 7551 H 680.064 -2.43536 -2.88961 0
M  V30 7552 H 680.377 -5.44207 -5.48688 0
M  V30 7553 H 678.722 -4.88926 -4.93939 0
M  V30 7554 H 681.913 -3.08058 -3.52445 0
M  V30 7555 H 682.086 -4.4515 -4.70898 0
M  V30 7556 N 675.492 1.28418 -0.913599 0
M  V30 7557 C 676.402 2.31043 -0.406965 0
M  V30 7558 C 677.418 1.66501 0.505298 0
M  V30 7559 O 678.594 1.97558 0.391522 0
M  V30 7560 C 675.659 3.4498 0.344901 0
M  V30 7561 C 674.72 4.25078 -0.600563 0
M  V30 7562 C 673.953 5.33575 0.115516 0
M  V30 7563 O 674.176 5.54503 1.33727 0
M  V30 7564 O 673.11 5.9939 -0.549095 0
M  V30 7565 H 676.936 2.76387 -1.25873 0
M  V30 7566 H 674.521 1.33109 -0.678415 0
M  V30 7567 H 676.403 4.14314 0.769542 0
M  V30 7568 H 675.078 3.01719 1.1725 0
M  V30 7569 H 673.985 3.58334 -1.0746 0
M  V30 7570 H 675.318 4.72018 -1.39497 0
M  V30 7571 N 676.97 0.677563 1.42291 0
M  V30 7572 C 677.9 0.014968 2.33495 0
M  V30 7573 C 678.881 -0.786376 1.50831 0
M  V30 7574 O 680.066 -0.742975 1.79426 0
M  V30 7575 C 677.196 -0.935023 3.34477 0
M  V30 7576 C 676.15 -0.242074 4.27315 0
M  V30 7577 C 675.476 -1.30519 5.18526 0
M  V30 7578 C 676.776 0.880604 5.14823 0
M  V30 7579 H 678.47 0.776671 2.89151 0
M  V30 7580 H 676.016 0.37494 1.39033 0
M  V30 7581 H 677.969 -1.40766 3.97194 0
M  V30 7582 H 676.693 -1.72818 2.77131 0
M  V30 7583 H 675.352 0.210351 3.65996 0
M  V30 7584 H 675 -2.09041 4.57505 0
M  V30 7585 H 674.7 -0.846652 5.81468 0
M  V30 7586 H 676.224 -1.7787 5.84119 0
M  V30 7587 H 677.638 0.489062 5.7121 0
M  V30 7588 H 676.035 1.26511 5.86613 0
M  V30 7589 H 677.105 1.72818 4.53059 0
M  V30 7590 N 678.448 -1.51871 0.421078 0
M  V30 7591 C 679.696 -2.01539 -0.150492 0
M  V30 7592 C 680.017 -1.30803 -1.44623 0
M  V30 7593 O 679.287 -0.437568 -1.90951 0
M  V30 7594 H 677.867 -0.744698 -0.0586041 0
M  V30 7595 H 680.529 -1.8668 0.560059 0
M  V30 7596 H 679.625 -3.10264 -0.338068 0
M  V30 7597 N 679.926 -0.151884 -1.56866 0
M  V30 7598 C 681.337 0.368128 -1.83035 0
M  V30 7599 C 681.688 1.64402 -1.07082 0
M  V30 7600 O 680.813 2.14056 -0.317647 0
M  V30 7601 C 681.408 0.674676 -3.32014 0
M  V30 7602 C 679.967 1.13919 -3.58747 0
M  V30 7603 C 679.114 0.164833 -2.7681 0
M  V30 7604 H 682.065 -0.376499 -1.54169 0
M  V30 7605 H 682.086 1.52883 -3.48435 0
M  V30 7606 H 681.598 -0.254113 -3.87267 0
M  V30 7607 H 679.699 2.08375 -3.08886 0
M  V30 7608 H 679.812 1.06179 -4.67186 0
M  V30 7609 H 678.176 0.658419 -2.46043 0
M  V30 7610 H 678.959 -0.757633 -3.34836 0
M  V30 7611 N 681.404 1.57128 0.121893 0
M  V30 7612 C 682.629 1.89254 0.848385 0
M  V30 7613 C 683.054 0.743527 1.72781 0
M  V30 7614 O 682.412 -0.306056 1.78698 0
M  V30 7615 C 682.46 3.20113 1.66012 0
M  V30 7616 O 681.564 3.05815 2.76679 0
M  V30 7617 H 680.905 0.621103 0.234793 0
M  V30 7618 H 683.435 2.0433 0.10516 0
M  V30 7619 H 683.445 3.52761 2.04996 0
M  V30 7620 H 682.12 4.03336 1.01452 0
M  V30 7621 H 680.697 2.84627 2.40918 0
M  V30 7622 N 682.882 -0.391992 1.52647 0
M  V30 7623 C 684.128 -1.139 1.67793 0
M  V30 7624 C 684.461 -1.89711 0.41514 0
M  V30 7625 O 683.736 -1.85431 -0.586979 0
M  V30 7626 C 684.019 -2.11966 2.91105 0
M  V30 7627 C 683.872 -1.39939 4.27478 0
M  V30 7628 C 685.191 -3.1243 3.09961 0
M  V30 7629 H 682.31 -0.412707 0.610608 0
M  V30 7630 H 684.952 -0.422725 1.85238 0
M  V30 7631 H 683.102 -2.73048 2.76364 0
M  V30 7632 H 684.774 -0.818439 4.53982 0
M  V30 7633 H 683.017 -0.701246 4.28095 0
M  V30 7634 H 683.688 -2.1158 5.09841 0
M  V30 7635 H 686.164 -2.61435 3.23714 0
M  V30 7636 H 685.04 -3.78294 3.97725 0
M  V30 7637 H 685.301 -3.81127 2.24042 0
M  V30 7638 N 684.36 -1.4356 -0.65026 0
M  V30 7639 C 685.29 -1.51758 -1.77459 0
M  V30 7640 C 686.271 -0.372019 -1.65982 0
M  V30 7641 O 687.456 -0.589627 -1.85033 0
M  V30 7642 C 684.586 -1.44302 -3.15902 0
M  V30 7643 C 683.54 -2.57138 -3.42146 0
M  V30 7644 C 682.866 -2.34735 -4.8042 0
M  V30 7645 C 684.166 -3.99373 -3.36598 0
M  V30 7646 H 685.86 -2.45863 -1.70855 0
M  V30 7647 H 683.406 -1.18333 -0.820566 0
M  V30 7648 H 685.359 -1.48641 -3.94314 0
M  V30 7649 H 684.083 -0.467026 -3.23244 0
M  V30 7650 H 682.742 -2.52157 -2.66106 0
M  V30 7651 H 682.39 -1.35372 -4.84441 0
M  V30 7652 H 682.09 -3.10375 -4.9894 0
M  V30 7653 H 683.614 -2.40862 -5.61086 0
M  V30 7654 H 685.028 -4.05826 -4.04942 0
M  V30 7655 H 683.425 -4.75063 -3.66654 0
M  V30 7656 H 684.495 -4.243 -2.34729 0
M  V30 7657 N 685.838 0.888903 -1.30139 0
M  V30 7658 C 686.801 1.97576 -1.16174 0
M  V30 7659 C 687.801 1.60525 -0.094086 0
M  V30 7660 O 688.991 1.70812 -0.341889 0
M  V30 7661 C 686.123 3.3188 -0.778983 0
M  V30 7662 H 687.316 2.11393 -2.12728 0
M  V30 7663 H 684.869 1.0748 -1.1348 0
M  V30 7664 H 685.604 3.23765 0.186225 0
M  V30 7665 H 685.389 3.60141 -1.55051 0
M  V30 7666 H 686.879 4.11612 -0.704631 0
M  V30 7667 N 687.317 1.12792 1.10072 0
M  V30 7668 C 688.565 0.883796 1.81751 0
M  V30 7669 C 688.886 -0.591891 1.858 0
M  V30 7670 O 688.156 -1.43017 1.33876 0
M  V30 7671 H 686.736 0.323978 0.673088 0
M  V30 7672 H 689.398 1.42314 1.33164 0
M  V30 7673 H 688.494 1.26863 2.85153 0
M  V30 7674 N 688.795 -1.27931 0.920396 0
M  V30 7675 C 690.041 -1.94977 0.557832 0
M  V30 7676 C 690.374 -1.72224 -0.897365 0
M  V30 7677 O 689.649 -1.04705 -1.63912 0
M  V30 7678 C 689.932 -3.49289 0.875741 0
M  V30 7679 C 689.785 -3.81416 2.38416 0
M  V30 7680 C 691.104 -4.38486 0.376517 0
M  V30 7681 H 688.223 -0.708164 0.20414 0
M  V30 7682 H 690.865 -1.5118 1.15085 0
M  V30 7683 H 689.015 -3.86724 0.371062 0
M  V30 7684 H 690.687 -3.53813 2.95997 0
M  V30 7685 H 688.93 -3.28225 2.83639 0
M  V30 7686 H 689.601 -4.89198 2.55713 0
M  V30 7687 H 692.077 -4.08161 0.808945 0
M  V30 7688 H 690.953 -5.45296 0.627976 0
M  V30 7689 H 691.214 -4.36143 -0.723293 0
M  V30 7690 N 690.273 -0.685099 -1.4193 0
M  V30 7691 C 691.521 -0.21124 -2.00993 0
M  V30 7692 C 691.842 1.18985 -1.54491 0
M  V30 7693 O 691.112 1.8009 -0.771 0
M  V30 7694 H 689.692 -0.0751059 -0.743215 0
M  V30 7695 H 692.354 -0.883915 -1.73704 0
M  V30 7696 H 691.45 -0.220513 -3.1132 0
M  V30 7697 N 691.751 1.51645 -0.429126 0
M  V30 7698 C 692.997 2.02314 0.140286 0
M  V30 7699 C 693.33 1.31314 1.43074 0
M  V30 7700 O 692.605 0.425531 1.89788 0
M  V30 7701 C 692.888 3.5822 0.36749 0
M  V30 7702 C 692.741 4.39846 -0.941039 0
M  V30 7703 C 694.06 4.25055 1.14089 0
M  V30 7704 H 691.179 0.735335 0.0495112 0
M  V30 7705 H 693.821 1.81358 -0.566514 0
M  V30 7706 H 691.971 3.76207 0.969556 0
M  V30 7707 H 693.643 4.33527 -1.57646 0
M  V30 7708 H 691.886 4.05259 -1.54751 0
M  V30 7709 H 692.557 5.47069 -0.73621 0
M  V30 7710 H 695.033 4.11288 0.630986 0
M  V30 7711 H 693.909 5.34038 1.26863 0
M  V30 7712 H 694.17 3.85358 2.16683 0
M  V30 7713 N 693.229 0.160201 1.56784 0
M  V30 7714 C 694.162 -0.812797 2.13234 0
M  V30 7715 C 695.14 -1.2335 1.05942 0
M  V30 7716 O 696.324 -1.32725 1.33852 0
M  V30 7717 C 693.451 -2.09311 2.66283 0
M  V30 7718 C 692.497 -1.8173 3.85845 0
M  V30 7719 S 693.33 -0.996473 5.26147 0
M  V30 7720 C 694.486 -2.28769 5.82594 0
M  V30 7721 H 694.719 -0.332794 2.95432 0
M  V30 7722 H 692.252 -0.0542971 1.54304 0
M  V30 7723 H 694.21 -2.82854 2.97496 0
M  V30 7724 H 692.871 -2.54425 1.84192 0
M  V30 7725 H 692.064 -2.76699 4.21253 0
M  V30 7726 H 691.666 -1.16289 3.55462 0
M  V30 7727 H 693.958 -3.24319 5.9483 0
M  V30 7728 H 694.901 -1.97846 6.79899 0
M  V30 7729 H 695.309 -2.40021 5.10931 0
M  V30 7730 N 694.707 -1.5719 -0.113559 0
M  V30 7731 C 695.953 -1.85412 -0.821597 0
M  V30 7732 C 696.286 -0.746722 -1.7927 0
M  V30 7733 O 695.561 0.246971 -1.92926 0
M  V30 7734 C 695.844 -3.24233 -1.56669 0
M  V30 7735 C 695.697 -4.45578 -0.614823 0
M  V30 7736 C 697.016 -3.60697 -2.52161 0
M  V30 7737 H 694.135 -0.674406 -0.29723 0
M  V30 7738 H 696.777 -1.89807 -0.085694 0
M  V30 7739 H 694.927 -3.20617 -2.19401 0
M  V30 7740 H 696.599 -4.613 0.00407137 0
M  V30 7741 H 694.842 -4.33738 0.0732332 0
M  V30 7742 H 695.513 -5.39395 -1.17292 0
M  V30 7743 H 697.989 -3.65139 -1.99532 0
M  V30 7744 H 696.865 -4.58798 -3.01323 0
M  V30 7745 H 697.126 -2.88403 -3.35076 0
M  V30 7746 N 696.185 0.383891 -1.52853 0
M  V30 7747 C 697.115 1.47559 -1.80965 0
M  V30 7748 C 698.096 1.5669 -0.661986 0
M  V30 7749 O 699.281 1.71556 -0.910072 0
M  V30 7750 C 696.411 2.85114 -1.98312 0
M  V30 7751 C 695.365 2.9082 -3.14019 0
M  V30 7752 C 694.691 4.30873 -3.16627 0
M  V30 7753 C 695.991 2.60001 -4.52986 0
M  V30 7754 H 697.685 1.24283 -2.72386 0
M  V30 7755 H 695.231 0.596445 -1.31067 0
M  V30 7756 H 697.184 3.61496 -2.16561 0
M  V30 7757 H 695.908 3.09738 -1.03585 0
M  V30 7758 H 694.567 2.16886 -2.9556 0
M  V30 7759 H 694.215 4.52545 -2.19573 0
M  V30 7760 H 693.915 4.3561 -3.94357 0
M  V30 7761 H 695.439 5.09154 -3.37038 0
M  V30 7762 H 696.853 3.261 -4.71521 0
M  V30 7763 H 695.25 2.76081 -5.32822 0
M  V30 7764 H 696.32 1.5532 -4.59351 0
M  V30 7765 N 697.663 1.43903 0.642637 0
M  V30 7766 C 698.909 1.46296 1.40447 0
M  V30 7767 C 699.242 0.0908361 1.93987 0
M  V30 7768 O 698.517 -0.889884 1.72949 0
M  V30 7769 C 698.8 2.51399 2.57819 0
M  V30 7770 C 698.653 3.97926 2.09702 0
M  V30 7771 C 699.972 2.53125 3.60022 0
M  V30 7772 H 697.091 0.532676 0.509338 0
M  V30 7773 H 699.733 1.75515 0.727635 0
M  V30 7774 H 697.883 2.26614 3.1556 0
M  V30 7775 H 699.555 4.33804 1.5688 0
M  V30 7776 H 697.798 4.10252 1.40982 0
M  V30 7777 H 698.469 4.67096 2.94152 0
M  V30 7778 H 700.945 2.75242 3.12059 0
M  V30 7779 H 699.821 3.28589 4.39682 0
M  V30 7780 H 700.082 1.56895 4.13324 0
M  V30 7781 N 699.141 -0.881989 1.30609 0
M  V30 7782 C 700.39 -1.62878 1.18969 0
M  V30 7783 C 700.703 -1.93946 -0.253859 0
M  V30 7784 O 701.909 -2.67008 -0.491813 0
M  V30 7785 C 700.365 -2.93573 2.0819 0
M  V30 7786 C 699.973 -2.70034 3.57471 0
M  V30 7787 C 701.717 -3.71543 2.0532 0
M  V30 7788 C 699.624 -3.96563 4.38739 0
M  V30 7789 H 698.554 -0.611092 0.441682 0
M  V30 7790 H 701.205 -0.976201 1.55379 0
M  V30 7791 H 699.587 -3.6014 1.64666 0
M  V30 7792 H 700.761 -2.11949 4.09163 0
M  V30 7793 H 699.076 -2.05435 3.62195 0
M  V30 7794 H 701.673 -4.65386 2.63288 0
M  V30 7795 H 702.016 -4.03167 1.03739 0
M  V30 7796 H 702.549 -3.11842 2.46981 0
M  V30 7797 H 699.288 -3.70095 5.41027 0
M  V30 7798 H 698.808 -4.54142 3.9181 0
M  V30 7799 H 700.487 -4.64557 4.50329 0
M  V30 7800 N 700.619 -1.13374 -1.09472 0
M  V30 7801 C 702.03 -0.90801 -1.63132 0
M  V30 7802 C 702.381 0.555576 -1.8817 0
M  V30 7803 O 701.506 1.42218 -1.63104 0
M  V30 7804 C 702.101 -1.64182 -2.96361 0
M  V30 7805 C 700.66 -1.46197 -3.46848 0
M  V30 7806 C 699.807 -1.67134 -2.21273 0
M  V30 7807 H 702.758 -1.2871 -0.928411 0
M  V30 7808 H 702.779 -1.09863 -3.64294 0
M  V30 7809 H 702.291 -2.707 -2.78106 0
M  V30 7810 H 700.392 -0.419788 -3.70228 0
M  V30 7811 H 700.505 -2.22472 -4.24315 0
M  V30 7812 H 698.869 -1.09616 -2.29905 0
M  V30 7813 H 699.652 -2.74971 -2.05538 0
M  V30 7814 N 702.098 1.27442 -0.927168 0
M  V30 7815 C 703.347 1.93679 -0.563146 0
M  V30 7816 C 703.66 1.73673 0.899837 0
M  V30 7817 O 704.866 2.34247 1.37262 0
M  V30 7818 C 703.322 3.46961 -0.95636 0
M  V30 7819 C 702.93 3.75724 -2.43999 0
M  V30 7820 C 704.674 4.19282 -0.663565 0
M  V30 7821 C 702.581 5.22378 -2.77263 0
M  V30 7822 H 701.511 0.725059 -0.206894 0
M  V30 7823 H 704.162 1.44743 -1.12791 0
M  V30 7824 H 702.544 3.94703 -0.320254 0
M  V30 7825 H 703.718 3.38741 -3.12396 0
M  V30 7826 H 702.033 3.16605 -2.70463 0
M  V30 7827 H 704.63 5.27265 -0.888596 0
M  V30 7828 H 704.973 4.14382 0.399198 0
M  V30 7829 H 705.506 3.7736 -1.25875 0
M  V30 7830 H 702.245 5.32367 -3.82446 0
M  V30 7831 H 701.765 5.6051 -2.13516 0
M  V30 7832 H 703.444 5.9025 -2.64979 0
M  V30 7833 N 703.576 0.692616 1.41565 0
M  V30 7834 C 704.524 0.0139952 2.32596 0
M  V30 7835 C 705.518 -0.771691 1.50802 0
M  V30 7836 O 706.724 -0.677646 1.66757 0
M  V30 7837 H 703.099 -0.0142745 0.751865 0
M  V30 7838 H 705.07 0.798851 2.87508 0
M  V30 7839 C 703.819 -0.910602 3.35564 0
M  V30 7840 H 703.142 -0.315446 3.98554 0
M  V30 7841 H 704.582 -1.3538 4.01806 0
M  V30 7842 C 703.041 -2.02539 2.6922 0
M  V30 7843 O 703.571 -3.11386 2.53775 0
M  V30 7844 N 701.777 -1.80227 2.27962 0
M  V30 7845 H 701.324 -0.917054 2.40724 0
M  V30 7846 H 701.282 -2.55001 1.83907 0
M  V30 7847 N 705.054 -1.51416 0.437162 0
M  V30 7848 C 706.017 -2.26312 -0.362729 0
M  V30 7849 C 707.017 -1.29748 -0.949847 0
M  V30 7850 O 708.207 -1.53462 -0.824325 0
M  V30 7851 C 705.339 -3.05475 -1.5132 0
M  V30 7852 H 706.532 -2.98459 0.29365 0
M  V30 7853 H 704.085 -1.55137 0.190327 0
M  V30 7854 H 704.82 -2.37744 -2.20563 0
M  V30 7855 H 704.605 -3.76401 -1.09838 0
M  V30 7856 H 706.095 -3.62209 -2.07833 0
M  V30 7857 N 706.532 -0.168513 -1.56696 0
M  V30 7858 C 707.781 0.477233 -1.95973 0
M  V30 7859 C 708.094 1.64578 -1.05704 0
M  V30 7860 O 709.3 2.35758 -1.3465 0
M  V30 7861 C 707.756 0.900413 -3.48455 0
M  V30 7862 C 707.364 -0.242382 -4.47344 0
M  V30 7863 C 709.108 1.51474 -3.96555 0
M  V30 7864 C 707.015 0.200272 -5.91061 0
M  V30 7865 H 705.945 0.182061 -0.73169 0
M  V30 7866 H 708.596 -0.256297 -1.81701 0
M  V30 7867 H 706.978 1.68984 -3.58135 0
M  V30 7868 H 708.152 -1.01967 -4.49377 0
M  V30 7869 H 706.467 -0.766484 -4.09285 0
M  V30 7870 H 709.064 1.85792 -5.01384 0
M  V30 7871 H 709.407 2.41163 -3.39332 0
M  V30 7872 H 709.94 0.789802 -3.89881 0
M  V30 7873 H 706.679 -0.661775 -6.52151 0
M  V30 7874 H 706.199 0.942979 -5.92341 0
M  V30 7875 H 707.878 0.645088 -6.43776 0
M  V30 7876 N 708.01 1.57248 0.105221 0
M  V30 7877 C 708.94 2.04374 1.12931 0
M  V30 7878 C 709.921 0.93074 1.42377 0
M  V30 7879 O 711.106 1.20136 1.52581 0
M  V30 7880 C 708.236 2.45967 2.45189 0
M  V30 7881 C 707.19 3.60838 2.30174 0
M  V30 7882 C 706.516 3.88374 3.67518 0
M  V30 7883 C 707.816 4.92084 1.75073 0
M  V30 7884 H 709.51 2.9018 0.737287 0
M  V30 7885 H 707.056 1.39601 0.353211 0
M  V30 7886 H 709.009 2.77542 3.17094 0
M  V30 7887 H 707.733 1.57148 2.86308 0
M  V30 7888 H 706.392 3.29493 1.60716 0
M  V30 7889 H 706.04 2.96739 4.06147 0
M  V30 7890 H 705.74 4.65703 3.58321 0
M  V30 7891 H 707.264 4.22415 4.40906 0
M  V30 7892 H 708.678 5.22106 2.36809 0
M  V30 7893 H 707.075 5.73507 1.76662 0
M  V30 7894 H 708.145 4.79684 0.709347 0
M  V30 7895 N 709.488 -0.375779 1.53054 0
M  V30 7896 C 710.713 -1.14484 1.7294 0
M  V30 7897 C 711.138 -1.82572 0.452668 0
M  V30 7898 O 710.496 -1.71343 -0.592567 0
M  V30 7899 C 710.544 -2.15857 2.88857 0
M  V30 7900 O 709.648 -3.22725 2.56753 0
M  V30 7901 H 708.989 -0.332666 0.574656 0
M  V30 7902 H 711.519 -0.436025 1.999 0
M  V30 7903 H 711.529 -2.59631 3.14731 0
M  V30 7904 H 710.204 -1.65689 3.81471 0
M  V30 7905 H 708.781 -2.83996 2.41663 0
M  V30 7906 N 710.966 -1.44241 -0.634997 0
M  V30 7907 C 712.194 -1.50296 -1.42193 0
M  V30 7908 C 712.609 -0.12658 -1.88375 0
M  V30 7909 O 711.966 0.86678 -1.60603 0
M  V30 7910 C 712.017 -2.46437 -2.64482 0
M  V30 7911 O 711.738 -3.78724 -2.20226 0
M  V30 7912 C 713.239 -2.61918 -3.57651 0
M  V30 7913 H 710.459 -0.509865 -0.43621 0
M  V30 7914 H 713.003 -1.89167 -0.776921 0
M  V30 7915 H 711.158 -2.10712 -3.25083 0
M  V30 7916 H 711.572 -4.30595 -2.9948 0
M  V30 7917 H 713.046 -3.33225 -4.40074 0
M  V30 7918 H 713.523 -1.67017 -4.06204 0
M  V30 7919 H 714.129 -2.98528 -3.02921 0
M  V30 7920 N 712.444 0.87505 -1.31075 0
M  V30 7921 C 713.391 1.98178 -1.18296 0
M  V30 7922 C 714.361 1.65952 -0.0699923 0
M  V30 7923 O 715.546 1.8926 -0.241951 0
M  V30 7924 C 712.686 3.33399 -0.891024 0
M  V30 7925 C 711.799 3.78253 -2.08684 0
M  V30 7926 C 710.934 5.02166 -1.73212 0
M  V30 7927 C 709.973 5.39455 -2.89231 0
M  V30 7928 N 709.11 6.54549 -2.53989 0
M  V30 7929 H 713.95 2.0844 -2.12971 0
M  V30 7930 H 711.487 1.02047 -1.05948 0
M  V30 7931 H 713.445 4.11246 -0.702338 0
M  V30 7932 H 712.075 3.22794 0.0188799 0
M  V30 7933 H 711.127 2.9623 -2.38646 0
M  V30 7934 H 712.439 4.01821 -2.95536 0
M  V30 7935 H 711.593 5.87666 -1.50777 0
M  V30 7936 H 710.332 4.80491 -0.83544 0
M  V30 7937 H 709.337 4.52477 -3.12321 0
M  V30 7938 H 710.562 5.63098 -3.79601 0
M  V30 7939 H 708.508 6.3443 -1.66838 0
M  V30 7940 H 708.425 6.78035 -3.34372 0
M  V30 7941 H 709.693 7.43254 -2.34934 0
M  V30 7942 N 713.922 1.13953 1.08869 0
M  V30 7943 C 715.147 0.928559 1.85452 0
M  V30 7944 C 715.572 -0.517642 1.80837 0
M  V30 7945 O 714.93 -1.36779 1.19001 0
M  V30 7946 C 714.978 1.42814 3.31114 0
M  V30 7947 O 714.082 0.617129 4.07756 0
M  V30 7948 H 713.423 0.33235 0.574839 0
M  V30 7949 H 715.953 1.5156 1.37443 0
M  V30 7950 H 715.963 1.43425 3.8196 0
M  V30 7951 H 714.638 2.48109 3.33788 0
M  V30 7952 H 713.215 0.679365 3.66659 0
M  V30 7953 N 715.4 -1.26948 0.933913 0
M  V30 7954 C 716.347 -2.26635 0.436484 0
M  V30 7955 C 717.317 -1.58397 -0.499953 0
M  V30 7956 O 718.502 -1.86171 -0.417753 0
M  V30 7957 C 715.642 -3.43803 -0.298951 0
M  V30 7958 C 714.755 -4.26736 0.672316 0
M  V30 7959 C 713.89 -5.31134 -0.0835872 0
M  V30 7960 C 712.929 -6.05742 0.879979 0
M  V30 7961 N 712.066 -7.01926 0.156301 0
M  V30 7962 H 716.906 -2.68558 1.29154 0
M  V30 7963 H 714.443 -1.32052 0.648118 0
M  V30 7964 H 716.401 -4.10554 -0.741723 0
M  V30 7965 H 715.031 -3.02814 -1.1182 0
M  V30 7966 H 714.083 -3.59842 1.23361 0
M  V30 7967 H 715.395 -4.78502 1.40846 0
M  V30 7968 H 714.549 -6.03863 -0.585984 0
M  V30 7969 H 713.288 -4.80188 -0.852661 0
M  V30 7970 H 712.293 -5.31846 1.39357 0
M  V30 7971 H 713.518 -6.58777 1.64894 0
M  V30 7972 H 711.464 -6.53301 -0.594413 0
M  V30 7973 H 711.381 -7.51409 0.831906 0
M  V30 7974 H 712.649 -7.78821 -0.325239 0
M  V30 7975 N 716.879 -0.700114 -1.41195 0
M  V30 7976 C 718.107 -0.242179 -2.05478 0
M  V30 7977 C 718.522 1.11029 -1.52702 0
M  V30 7978 O 717.879 1.69473 -0.677127 0
M  V30 7979 C 717.93 -0.196271 -3.60967 0
M  V30 7980 O 717.651 -1.49532 -4.11791 0
M  V30 7981 C 719.152 0.282102 -4.42401 0
M  V30 7982 H 716.372 -0.111749 -0.661629 0
M  V30 7983 H 718.916 -0.953975 -1.80885 0
M  V30 7984 H 717.071 0.46638 -3.84582 0
M  V30 7985 H 717.485 -1.38545 -5.05871 0
M  V30 7986 H 718.959 0.263093 -5.51373 0
M  V30 7987 H 719.436 1.32174 -4.1884 0
M  V30 7988 H 720.042 -0.349712 -4.2386 0
M  V30 7989 N 718.357 1.51182 -0.445186 0
M  V30 7990 C 719.606 2.01342 0.120189 0
M  V30 7991 C 719.919 1.33353 1.43095 0
M  V30 7992 O 721.125 1.74525 2.07974 0
M  V30 7993 C 719.581 3.58925 0.264732 0
M  V30 7994 C 719.189 4.35855 -1.03606 0
M  V30 7995 C 720.933 4.17208 0.783455 0
M  V30 7996 C 718.84 5.85162 -0.856731 0
M  V30 7997 H 717.77 0.752426 0.0486922 0
M  V30 7998 H 720.421 1.74221 -0.576143 0
M  V30 7999 H 718.803 3.82525 1.02425 0
M  V30 8000 H 719.977 4.23997 -1.80452 0
M  V30 8001 H 718.292 3.89062 -1.48391 0
M  V30 8002 H 720.889 5.26475 0.934239 0
M  V30 8003 H 721.232 3.76892 1.768 0
M  V30 8004 H 721.765 3.97715 0.0820346 0
M  V30 8005 H 718.504 6.29904 -1.81388 0
M  V30 8006 H 718.024 5.99663 -0.128206 0
M  V30 8007 H 719.703 6.44963 -0.513027 0
M  V30 8008 N 719.835 0.176821 1.56605 0
M  V30 8009 C 720.767 -0.782836 2.15417 0
M  V30 8010 C 721.78 -1.18982 1.11117 0
M  V30 8011 O 722.969 -1.12872 1.38283 0
M  V30 8012 C 720.069 -2.06596 2.68647 0
M  V30 8013 C 719.242 -1.82167 3.9766 0
M  V30 8014 C 718.301 -2.94751 4.35899 0
M  V30 8015 O 717.327 -2.65148 5.03672 0
M  V30 8016 N 718.529 -4.2267 3.97907 0
M  V30 8017 H 721.294 -0.280012 2.98389 0
M  V30 8018 H 718.855 -0.00577529 1.61899 0
M  V30 8019 H 720.847 -2.81018 2.91223 0
M  V30 8020 H 719.417 -2.48054 1.90232 0
M  V30 8021 H 718.637 -0.916208 3.83405 0
M  V30 8022 H 719.925 -1.6322 4.81909 0
M  V30 8023 H 719.323 -4.4958 3.43357 0
M  V30 8024 H 717.88 -4.93778 4.25472 0
M  V30 8025 N 721.313 -1.57302 -0.09688 0
M  V30 8026 C 722.559 -1.86273 -0.801885 0
M  V30 8027 C 722.892 -0.765694 -1.78468 0
M  V30 8028 O 722.167 0.226495 -1.93177 0
M  V30 8029 C 722.45 -3.25876 -1.53221 0
M  V30 8030 C 722.303 -4.46205 -0.567529 0
M  V30 8031 C 723.622 -3.63352 -2.48321 0
M  V30 8032 H 720.741 -0.67752 -0.29006 0
M  V30 8033 H 723.383 -1.89887 -0.0655577 0
M  V30 8034 H 721.533 -3.22926 -2.15988 0
M  V30 8035 H 723.205 -4.6127 0.0529982 0
M  V30 8036 H 721.448 -4.33636 0.119233 0
M  V30 8037 H 722.119 -5.40608 -1.11564 0
M  V30 8038 H 724.595 -3.67234 -1.95648 0
M  V30 8039 H 723.471 -4.61968 -2.9644 0
M  V30 8040 H 723.732 -2.91941 -3.31998 0
M  V30 8041 N 722.791 0.367657 -1.53252 0
M  V30 8042 C 723.738 1.45028 -1.79543 0
M  V30 8043 C 724.708 1.53288 -0.63969 0
M  V30 8044 O 725.893 1.69209 -0.881653 0
M  V30 8045 C 723.033 2.82 -1.98923 0
M  V30 8046 C 722.146 2.82722 -3.26638 0
M  V30 8047 C 721.281 4.11257 -3.36216 0
M  V30 8048 C 720.32 4.06113 -4.57972 0
M  V30 8049 N 719.457 5.26293 -4.64715 0
M  V30 8050 H 724.297 1.21908 -2.71923 0
M  V30 8051 H 721.834 0.591011 -1.34705 0
M  V30 8052 H 723.792 3.61568 -2.08146 0
M  V30 8053 H 722.422 3.03523 -1.09881 0
M  V30 8054 H 721.474 1.95399 -3.26379 0
M  V30 8055 H 722.786 2.74794 -4.16281 0
M  V30 8056 H 721.94 4.99239 -3.44739 0
M  V30 8057 H 720.679 4.21935 -2.44586 0
M  V30 8058 H 719.684 3.16517 -4.49552 0
M  V30 8059 H 720.909 3.97039 -5.50942 0
M  V30 8060 H 718.855 5.37561 -3.75985 0
M  V30 8061 H 718.772 5.20526 -5.4826 0
M  V30 8062 H 720.04 6.16113 -4.77519 0
M  V30 8063 N 724.269 1.44576 0.627338 0
M  V30 8064 C 725.217 1.52039 1.76031 0
M  V30 8065 C 726.211 0.391796 1.64807 0
M  V30 8066 O 727.417 0.5669 1.7084 0
M  V30 8067 H 723.792 0.477165 0.581221 0
M  V30 8068 H 725.763 2.47387 1.6686 0
M  V30 8069 C 724.512 1.48539 3.14375 0
M  V30 8070 H 723.835 2.34699 3.23661 0
M  V30 8071 H 725.275 1.57821 3.93534 0
M  V30 8072 C 723.734 0.20672 3.36265 0
M  V30 8073 O 724.264 -0.72154 3.95167 0
M  V30 8074 N 722.47 0.108654 2.90397 0
M  V30 8075 H 722.017 0.864884 2.42647 0
M  V30 8076 H 721.975 -0.746121 3.05418 0
M  V30 8077 N 725.747 -0.868086 1.31537 0
M  V30 8078 C 726.68 -1.97871 1.13676 0
M  V30 8079 C 727.658 -1.62551 0.0397589 0
M  V30 8080 O 728.842 -1.87473 0.196539 0
M  V30 8081 C 725.969 -3.30577 0.73734 0
M  V30 8082 C 725.015 -3.8488 1.83765 0
M  V30 8083 S 725.848 -4.10106 3.44345 0
M  V30 8084 C 727.004 -5.45806 3.06344 0
M  V30 8085 H 727.237 -2.12719 2.07697 0
M  V30 8086 H 724.77 -1.01849 1.16044 0
M  V30 8087 H 726.728 -4.07274 0.513641 0
M  V30 8088 H 725.389 -3.13562 -0.183787 0
M  V30 8089 H 724.582 -4.80821 1.51085 0
M  V30 8090 H 724.184 -3.14981 2.01651 0
M  V30 8091 H 726.476 -6.27535 2.55354 0
M  V30 8092 H 727.419 -5.83437 4.01257 0
M  V30 8093 H 727.827 -5.0917 2.43734 0
M  V30 8094 N 727.225 -1.14528 -1.08264 0
M  V30 8095 C 728.172 -0.833556 -2.15222 0
M  V30 8096 C 729.142 0.209539 -1.64773 0
M  V30 8097 O 730.327 0.0791388 -1.90636 0
M  V30 8098 C 727.467 -0.318799 -3.43624 0
M  V30 8099 C 726.58 -1.42237 -4.07913 0
M  V30 8100 C 725.715 -0.864704 -5.24115 0
M  V30 8101 C 724.754 -1.94585 -5.80347 0
M  V30 8102 N 723.891 -1.40525 -6.87893 0
M  V30 8103 H 728.731 -1.74965 -2.41228 0
M  V30 8104 H 726.268 -0.873169 -1.18381 0
M  V30 8105 H 728.226 -0.00213088 -4.172 0
M  V30 8106 H 726.856 0.560397 -3.17898 0
M  V30 8107 H 725.908 -1.8554 -3.32083 0
M  V30 8108 H 727.22 -2.23901 -4.45724 0
M  V30 8109 H 726.374 -0.500025 -6.04636 0
M  V30 8110 H 725.113 -0.0171219 -4.87697 0
M  V30 8111 H 724.118 -2.31946 -4.98479 0
M  V30 8112 H 725.343 -2.79704 -6.18823 0
M  V30 8113 H 723.289 -0.579873 -6.53432 0
M  V30 8114 H 723.206 -2.15825 -7.24538 0
M  V30 8115 H 724.474 -1.06852 -7.72142 0
M  V30 8116 N 728.703 1.26451 -0.940633 0
M  V30 8117 C 729.651 2.28389 -0.440581 0
M  V30 8118 C 730.645 1.62402 0.481859 0
M  V30 8119 O 731.851 1.76361 0.360132 0
M  V30 8120 H 728.226 0.741716 -0.123938 0
M  V30 8121 H 730.197 2.67967 -1.31288 0
M  V30 8122 C 728.946 3.46576 0.279364 0
M  V30 8123 H 728.269 3.97574 -0.421274 0
M  V30 8124 H 729.709 4.19826 0.59348 0
M  V30 8125 C 728.168 3.01815 1.49697 0
M  V30 8126 O 728.698 3.06607 2.59529 0
M  V30 8127 N 726.904 2.57163 1.35334 0
M  V30 8128 H 726.451 2.53464 0.459743 0
M  V30 8129 H 726.409 2.27578 2.16923 0
M  V30 8130 N 730.181 0.707592 1.40822 0
M  V30 8131 C 731.128 0.0499029 2.30746 0
M  V30 8132 C 732.098 -0.758718 1.47759 0
M  V30 8133 O 733.283 -0.724299 1.76518 0
M  V30 8134 C 730.423 -0.871756 3.33908 0
M  V30 8135 C 729.536 -0.0534655 4.31967 0
M  V30 8136 C 728.671 -0.973869 5.22197 0
M  V30 8137 C 727.71 -0.149194 6.11918 0
M  V30 8138 N 726.847 -1.02404 6.94592 0
M  V30 8139 H 731.687 0.822461 2.86426 0
M  V30 8140 H 729.224 0.417285 1.41057 0
M  V30 8141 H 731.182 -1.42028 3.9228 0
M  V30 8142 H 729.812 -1.61058 2.7975 0
M  V30 8143 H 728.864 0.612142 3.75442 0
M  V30 8144 H 730.176 0.585354 4.95353 0
M  V30 8145 H 729.33 -1.59121 5.85462 0
M  V30 8146 H 728.069 -1.64652 4.59065 0
M  V30 8147 H 727.074 0.481137 5.47691 0
M  V30 8148 H 728.299 0.519841 6.77107 0
M  V30 8149 H 726.245 -1.6825 6.34057 0
M  V30 8150 H 726.162 -0.441076 7.54712 0
M  V30 8151 H 727.43 -1.62782 7.62314 0
M  V30 8152 N 731.66 -1.50943 0.453197 0
M  V30 8153 C 732.937 -1.94872 -0.168633 0
M  V30 8154 C 733.317 -1.39272 -1.5864 0
M  V30 8155 O 732.665 -0.586272 -2.20851 0
M  V30 8156 C 732.875 -3.48757 -0.130217 0
M  V30 8157 C 734.223 -4.23331 -0.327975 0
M  V30 8158 O 735.247 -3.55594 -0.207619 0
M  V30 8159 O 734.106 -5.43529 -0.569077 0
M  V30 8160 H 731.2 -0.818042 -0.121394 0
M  V30 8161 H 733.746 -1.61782 0.512316 0
M  V30 8162 H 732.518 -3.81725 0.860346 0
M  V30 8163 H 732.141 -3.88333 -0.853397 0
M  V30 8164 N 733.138 -0.185124 -1.56509 0
M  V30 8165 C 734.085 0.739729 -2.18624 0
M  V30 8166 C 735.055 1.217 -1.13042 0
M  V30 8167 O 736.24 1.28268 -1.41251 0
M  V30 8168 C 733.38 1.95787 -2.84186 0
M  V30 8169 C 732.493 1.52289 -4.04267 0
M  V30 8170 C 731.628 2.69576 -4.57714 0
M  V30 8171 C 730.667 2.22636 -5.70175 0
M  V30 8172 N 729.804 3.33065 -6.18071 0
M  V30 8173 H 734.644 0.203269 -2.97306 0
M  V30 8174 H 732.181 0.0885946 -1.46833 0
M  V30 8175 H 734.139 2.67253 -3.20361 0
M  V30 8176 H 732.769 2.4678 -2.08085 0
M  V30 8177 H 731.821 0.704458 -3.7382 0
M  V30 8178 H 733.133 1.13843 -4.85635 0
M  V30 8179 H 732.287 3.4918 -4.96143 0
M  V30 8180 H 731.026 3.1129 -3.75433 0
M  V30 8181 H 730.031 1.41483 -5.31284 0
M  V30 8182 H 731.256 1.81964 -6.54267 0
M  V30 8183 H 729.202 3.74328 -5.38715 0
M  V30 8184 H 729.119 2.98756 -6.94464 0
M  V30 8185 H 730.387 4.12912 -6.61153 0
M  V30 8186 N 734.616 1.57351 0.0885366 0
M  V30 8187 C 736.032 1.53331 0.442916 0
M  V30 8188 C 736.232 0.902831 1.80142 0
M  V30 8189 O 735.288 0.498147 2.47537 0
M  V30 8190 C 736.601 2.98036 0.399372 0
M  V30 8191 C 738.149 3.09286 0.480759 0
M  V30 8192 C 738.624 4.5561 0.467296 0
M  V30 8193 N 740.115 4.60182 0.52786 0
M  V30 8194 C 740.85 5.70857 0.539388 0
M  V30 8195 N 740.346 6.90944 0.506729 0
M  V30 8196 N 742.139 5.59051 0.584691 0
M  V30 8197 H 734.29 1.96709 -0.801215 0
M  V30 8198 H 736.553 0.899639 -0.298922 0
M  V30 8199 H 736.259 3.47656 -0.531806 0
M  V30 8200 H 736.133 3.57066 1.21589 0
M  V30 8201 H 738.52 2.5965 1.40236 0
M  V30 8202 H 738.601 2.53197 -0.364023 0
M  V30 8203 H 738.245 5.05899 -0.450384 0
M  V30 8204 H 738.175 5.09544 1.32938 0
M  V30 8205 H 740.666 3.73757 0.558028 0
M  V30 8206 H 740.979 7.71055 0.518989 0
M  V30 8207 H 739.324 6.93384 0.473675 0
M  V30 8208 H 742.515 4.64138 0.607781 0
M  V30 8209 H 742.688 6.45307 0.590206 0
M  V30 8210 N 736.094 -0.359525 1.53444 0
M  V30 8211 C 737.024 -1.44662 1.8329 0
M  V30 8212 C 738.005 -1.55617 0.68683 0
M  V30 8213 O 739.19 -1.70086 0.93725 0
M  V30 8214 C 736.32 -2.81923 2.02822 0
M  V30 8215 C 735.274 -2.85787 3.18606 0
M  V30 8216 C 734.6 -4.25781 3.23442 0
M  V30 8217 C 735.9 -2.52762 4.57065 0
M  V30 8218 H 737.594 -1.19934 2.74329 0
M  V30 8219 H 735.14 -0.575517 1.31999 0
M  V30 8220 H 737.093 -3.58005 2.22285 0
M  V30 8221 H 735.817 -3.08051 1.085 0
M  V30 8222 H 734.476 -2.12157 2.98973 0
M  V30 8223 H 734.124 -4.48994 2.26745 0
M  V30 8224 H 733.824 -4.29281 4.01238 0
M  V30 8225 H 735.348 -5.03727 3.45096 0
M  V30 8226 H 736.762 -3.18557 4.76649 0
M  V30 8227 H 735.159 -2.67569 5.37147 0
M  V30 8228 H 736.229 -1.47993 4.61764 0
M  V30 8229 N 737.572 -1.44907 -0.619662 0
M  V30 8230 C 738.519 -1.52654 -1.73105 0
M  V30 8231 C 739.489 -0.373334 -1.6185 0
M  V30 8232 O 740.674 -0.585143 -1.81606 0
M  V30 8233 C 737.814 -1.48769 -3.11387 0
M  V30 8234 C 736.927 -2.74551 -3.33535 0
M  V30 8235 C 736.062 -2.62421 -4.61854 0
M  V30 8236 C 735.101 -3.83312 -4.77219 0
M  V30 8237 N 734.238 -3.69789 -5.96826 0
M  V30 8238 H 739.078 -2.47605 -1.65819 0
M  V30 8239 H 736.615 -1.22875 -0.808719 0
M  V30 8240 H 738.573 -1.44507 -3.91374 0
M  V30 8241 H 737.203 -0.573783 -3.1766 0
M  V30 8242 H 736.255 -2.88953 -2.47408 0
M  V30 8243 H 737.567 -3.64253 -3.40765 0
M  V30 8244 H 736.721 -2.56056 -5.50019 0
M  V30 8245 H 735.46 -1.70298 -4.57001 0
M  V30 8246 H 734.465 -3.90049 -3.87481 0
M  V30 8247 H 735.69 -4.76486 -4.83878 0
M  V30 8248 H 733.636 -2.80426 -5.93041 0
M  V30 8249 H 733.553 -4.53116 -6.05163 0
M  V30 8250 H 734.821 -3.67335 -6.87521 0
M  V30 8251 N 739.05 0.861098 -1.31996 0
M  V30 8252 C 740.299 1.60965 -1.21545 0
M  V30 8253 C 740.612 1.94325 0.222972 0
M  V30 8254 O 741.818 2.67757 0.449272 0
M  V30 8255 C 740.274 2.90223 -2.12834 0
M  V30 8256 C 739.882 2.64313 -3.61722 0
M  V30 8257 C 741.626 3.68229 -2.11205 0
M  V30 8258 C 739.533 3.89532 -4.44993 0
M  V30 8259 H 738.463 0.603988 -0.451348 0
M  V30 8260 H 741.114 0.951358 -1.56912 0
M  V30 8261 H 739.496 3.57475 -1.70375 0
M  V30 8262 H 740.67 2.05413 -4.12483 0
M  V30 8263 H 738.985 1.99647 -3.65418 0
M  V30 8264 H 741.582 4.61138 -2.70658 0
M  V30 8265 H 741.925 4.01466 -1.1014 0
M  V30 8266 H 742.458 3.07873 -2.51911 0
M  V30 8267 H 739.197 3.61441 -5.46846 0
M  V30 8268 H 738.717 4.47851 -3.98985 0
M  V30 8269 H 740.396 4.57334 -4.57663 0
M  V30 8270 N 740.528 1.15101 1.07655 0
M  V30 8271 C 741.461 0.788522 2.14144 0
M  V30 8272 C 742.439 -0.233635 1.60913 0
M  V30 8273 O 743.623 -0.120908 1.88112 0
M  V30 8274 C 740.75 0.172033 3.38263 0
M  V30 8275 C 739.796 1.16559 4.10264 0
M  V30 8276 S 740.629 2.70627 4.62084 0
M  V30 8277 C 741.785 2.10389 5.8948 0
M  V30 8278 H 742.018 1.69047 2.44561 0
M  V30 8279 H 739.551 0.973033 1.19881 0
M  V30 8280 H 741.509 -0.177223 4.10117 0
M  V30 8281 H 740.17 -0.707468 3.06029 0
M  V30 8282 H 739.363 0.6824 4.99359 0
M  V30 8283 H 738.965 1.45923 3.44358 0
M  V30 8284 H 741.257 1.46405 6.61492 0
M  V30 8285 H 742.2 2.97639 6.42508 0
M  V30 8286 H 742.608 1.54816 5.42856 0
M  V30 8287 N 742.006 -1.2595 0.947325 0
M  V30 8288 C 742.954 -2.28152 0.452687 0
M  V30 8289 C 743.948 -1.62655 -0.473239 0
M  V30 8290 O 745.154 -1.76549 -0.350774 0
M  V30 8291 H 741.529 -0.741049 0.12787 0
M  V30 8292 H 743.5 -2.67267 1.32707 0
M  V30 8293 C 742.249 -3.46719 -0.26098 0
M  V30 8294 H 741.572 -3.97345 0.442352 0
M  V30 8295 H 743.012 -4.20135 -0.571208 0
M  V30 8296 C 741.471 -3.02605 -1.48094 0
M  V30 8297 O 742.001 -3.07979 -2.57899 0
M  V30 8298 N 740.207 -2.57877 -1.33969 0
M  V30 8299 H 739.754 -2.53704 -0.446295 0
M  V30 8300 H 739.712 -2.28725 -2.15713 0
M  V30 8301 N 743.484 -0.715051 -1.40445 0
M  V30 8302 C 744.394 -0.0631624 -2.34515 0
M  V30 8303 C 745.41 0.744397 -1.57273 0
M  V30 8304 O 746.586 0.677475 -1.89663 0
M  V30 8305 C 743.651 0.847915 -3.36172 0
M  V30 8306 C 742.712 0.0303655 -4.29289 0
M  V30 8307 C 741.945 0.898051 -5.2609 0
M  V30 8308 O 742.168 2.13729 -5.28844 0
M  V30 8309 O 741.102 0.337328 -6.00954 0
M  V30 8310 H 744.928 -0.839078 -2.91879 0
M  V30 8311 H 742.513 -0.475527 -1.4163 0
M  V30 8312 H 744.395 1.3698 -3.98515 0
M  V30 8313 H 743.07 1.60299 -2.81222 0
M  V30 8314 H 741.977 -0.536573 -3.70232 0
M  V30 8315 H 743.31 -0.686474 -4.87389 0
M  V30 8316 N 744.962 1.50701 -0.461195 0
M  V30 8317 C 746.211 2.01458 0.0988277 0
M  V30 8318 C 746.524 1.34863 1.41673 0
M  V30 8319 O 747.73 1.76721 2.06111 0
M  V30 8320 C 746.186 3.59186 0.226648 0
M  V30 8321 C 745.794 4.34732 -1.08223 0
M  V30 8322 C 747.538 4.18015 0.73916 0
M  V30 8323 C 745.445 5.8422 -0.918747 0
M  V30 8324 H 744.375 0.7529 0.040709 0
M  V30 8325 H 747.026 1.736 -0.594589 0
M  V30 8326 H 745.408 3.83589 0.983621 0
M  V30 8327 H 746.582 4.22059 -1.84939 0
M  V30 8328 H 744.897 3.87466 -1.52509 0
M  V30 8329 H 747.494 5.27436 0.878347 0
M  V30 8330 H 747.837 3.78746 1.72793 0
M  V30 8331 H 748.37 3.9778 0.0398469 0
M  V30 8332 H 745.109 6.27944 -1.88059 0
M  V30 8333 H 744.629 5.99493 -0.191801 0
M  V30 8334 H 746.308 6.44382 -0.581405 0
M  V30 8335 N 746.441 0.193421 1.56409 0
M  V30 8336 C 747.371 -0.723334 2.22014 0
M  V30 8337 C 748.352 -1.22254 1.1827 0
M  V30 8338 O 749.537 -1.27168 1.46771 0
M  V30 8339 C 746.667 -1.94366 2.87818 0
M  V30 8340 C 745.621 -1.57943 3.97791 0
M  V30 8341 C 744.947 -2.87623 4.50752 0
M  V30 8342 C 746.247 -0.790639 5.16281 0
M  V30 8343 H 747.941 -0.176426 2.9888 0
M  V30 8344 H 745.487 -0.0834166 1.43758 0
M  V30 8345 H 747.44 -2.5902 3.32396 0
M  V30 8346 H 746.164 -2.51507 2.08355 0
M  V30 8347 H 744.823 -0.956482 3.53903 0
M  V30 8348 H 744.471 -3.4285 3.68053 0
M  V30 8349 H 744.171 -2.63998 5.24956 0
M  V30 8350 H 745.695 -3.53268 4.9803 0
M  V30 8351 H 747.109 -1.34024 5.57414 0
M  V30 8352 H 745.506 -0.65258 5.96541 0
M  V30 8353 H 746.576 0.208633 4.84451 0
M  V30 8354 N 747.919 -1.57396 -0.0801906 0
M  V30 8355 C 749.144 -1.91437 -0.797909 0
M  V30 8356 C 749.569 -0.789075 -1.70749 0
M  V30 8357 O 748.927 0.25857 -1.79447 0
M  V30 8358 C 748.975 -3.24402 -1.57467 0
M  V30 8359 O 748.079 -3.13043 -2.68473 0
M  V30 8360 H 747.42 -0.627109 -0.218243 0
M  V30 8361 H 749.95 -2.04537 -0.050949 0
M  V30 8362 H 749.96 -3.58072 -1.95571 0
M  V30 8363 H 748.635 -4.05884 -0.907229 0
M  V30 8364 H 747.212 -2.90915 -2.33287 0
M  V30 8365 N 749.397 0.351382 -1.53633 0
M  V30 8366 C 750.645 1.09034 -1.70165 0
M  V30 8367 C 750.966 1.89413 -0.463422 0
M  V30 8368 O 750.236 1.888 0.522624 0
M  V30 8369 H 748.816 0.405522 -0.627344 0
M  V30 8370 H 751.478 0.394554 -1.90865 0
M  V30 8371 H 750.574 1.77215 -2.56907 0
M  V30 8372 N 750.875 1.45233 0.611969 0
M  V30 8373 C 752.124 1.48296 1.36716 0
M  V30 8374 C 752.437 0.12706 1.95187 0
M  V30 8375 O 753.643 0.0353066 2.71477 0
M  V30 8376 C 752.099 2.61168 2.47627 0
M  V30 8377 C 751.707 4.03051 1.95587 0
M  V30 8378 C 753.451 2.73472 3.24674 0
M  V30 8379 C 751.358 5.07312 3.03954 0
M  V30 8380 H 750.288 0.5518 0.513841 0
M  V30 8381 H 752.939 1.7136 0.656359 0
M  V30 8382 H 751.321 2.31379 3.21372 0
M  V30 8383 H 752.495 4.42497 1.2858 0
M  V30 8384 H 750.81 3.95158 1.31298 0
M  V30 8385 H 753.407 3.48537 4.05494 0
M  V30 8386 H 753.75 1.79953 3.75397 0
M  V30 8387 H 754.283 3.02765 2.58028 0
M  V30 8388 H 751.022 6.02525 2.58154 0
M  V30 8389 H 750.542 4.7244 3.69541 0
M  V30 8390 H 752.221 5.31867 3.6841 0
M  V30 8391 N 752.353 -0.854086 1.3245 0
M  V30 8392 C 753.3 -1.96271 1.21434 0
M  V30 8393 C 754.27 -1.6582 0.0963851 0
M  V30 8394 O 755.455 -1.88851 0.27203 0
M  V30 8395 C 752.595 -3.31939 0.943952 0
M  V30 8396 C 751.708 -3.74885 2.14675 0
M  V30 8397 C 750.843 -4.99347 1.81179 0
M  V30 8398 C 749.882 -5.34785 2.97777 0
M  V30 8399 N 749.019 -6.50425 2.6437 0
M  V30 8400 H 753.859 -2.05025 2.16261 0
M  V30 8401 H 751.396 -1.00348 1.07558 0
M  V30 8402 H 753.354 -4.10076 0.767675 0
M  V30 8403 H 751.984 -3.22784 0.0324763 0
M  V30 8404 H 751.036 -2.92396 2.43328 0
M  V30 8405 H 752.348 -3.97068 3.01891 0
M  V30 8406 H 751.502 -5.85193 1.60107 0
M  V30 8407 H 750.241 -4.79101 0.911777 0
M  V30 8408 H 749.246 -4.47451 3.1948 0
M  V30 8409 H 750.471 -5.56988 3.88511 0
M  V30 8410 H 748.417 -6.31695 1.7691 0
M  V30 8411 H 748.334 -6.7263 3.45116 0
M  V30 8412 H 749.602 -7.39422 2.46729 0
M  V30 8413 N 753.831 -1.1567 -1.07043 0
M  V30 8414 C 755.08 -0.928039 -1.79082 0
M  V30 8415 C 755.393 0.545968 -1.87826 0
M  V30 8416 O 756.599 0.892308 -2.56418 0
M  V30 8417 C 755.055 -1.61103 -3.21829 0
M  V30 8418 C 754.663 -3.12228 -3.21275 0
M  V30 8419 C 756.407 -1.46404 -3.98455 0
M  V30 8420 C 754.314 -3.733 -4.58695 0
M  V30 8421 H 753.244 -0.34357 -0.671175 0
M  V30 8422 H 755.895 -1.38718 -1.20123 0
M  V30 8423 H 754.277 -1.07958 -3.81 0
M  V30 8424 H 755.451 -3.72155 -2.71731 0
M  V30 8425 H 753.766 -3.26725 -2.58147 0
M  V30 8426 H 756.363 -1.8942 -5.00024 0
M  V30 8427 H 756.706 -0.41195 -4.14257 0
M  V30 8428 H 757.239 -1.96663 -3.45787 0
M  V30 8429 H 753.978 -4.78423 -4.48098 0
M  V30 8430 H 753.498 -3.18157 -5.08465 0
M  V30 8431 H 755.177 -3.7441 -5.27661 0
M  V30 8432 N 755.309 1.25446 -0.953992 0
M  V30 8433 C 756.239 2.28264 -0.491717 0
M  V30 8434 C 757.22 1.63717 0.461617 0
M  V30 8435 O 758.405 1.90821 0.36071 0
M  V30 8436 C 755.535 3.46525 0.231915 0
M  V30 8437 C 754.489 4.23247 -0.636098 0
M  V30 8438 C 753.815 5.34254 0.218238 0
M  V30 8439 C 755.115 4.85971 -1.91389 0
M  V30 8440 H 756.809 2.67183 -1.35106 0
M  V30 8441 H 754.355 1.2844 -0.651095 0
M  V30 8442 H 756.308 4.17576 0.566439 0
M  V30 8443 H 755.032 3.06594 1.12551 0
M  V30 8444 H 753.691 3.53978 -0.953696 0
M  V30 8445 H 753.339 4.90564 1.11156 0
M  V30 8446 H 753.039 5.86501 -0.359232 0
M  V30 8447 H 754.563 6.08138 0.547743 0
M  V30 8448 H 755.977 5.49168 -1.64581 0
M  V30 8449 H 754.374 5.48391 -2.43696 0
M  V30 8450 H 755.444 4.08192 -2.61738 0
M  V30 8451 N 756.787 0.722489 1.40064 0
M  V30 8452 C 757.734 0.0743738 2.3068 0
M  V30 8453 C 758.704 -0.743004 1.48555 0
M  V30 8454 O 759.889 -0.705536 1.77276 0
M  V30 8455 C 757.029 -0.836292 3.34814 0
M  V30 8456 C 756.142 -0.00764663 4.31999 0
M  V30 8457 C 755.277 -0.918428 5.232 0
M  V30 8458 C 754.316 -0.0842838 6.12042 0
M  V30 8459 N 753.453 -0.950316 6.95639 0
M  V30 8460 H 758.293 0.852794 2.85537 0
M  V30 8461 H 755.83 0.432222 1.40607 0
M  V30 8462 H 757.788 -1.3786 3.93765 0
M  V30 8463 H 756.418 -1.58082 2.81443 0
M  V30 8464 H 755.47 0.651928 3.74772 0
M  V30 8465 H 756.782 0.63786 4.94705 0
M  V30 8466 H 755.936 -1.52902 5.87116 0
M  V30 8467 H 754.675 -1.59774 4.60786 0
M  V30 8468 H 753.68 0.5392 5.4715 0
M  V30 8469 H 754.905 0.591628 6.76518 0
M  V30 8470 H 752.851 -1.61515 6.35806 0
M  V30 8471 H 752.768 -0.361004 7.55138 0
M  V30 8472 H 754.036 -1.54687 7.63997 0
M  V30 8473 N 758.265 -1.50454 0.469181 0
M  V30 8474 C 759.495 -2.06429 -0.0840913 0
M  V30 8475 C 759.903 -1.3334 -1.34227 0
M  V30 8476 O 759.246 -0.395656 -1.79389 0
M  V30 8477 C 759.308 -3.56797 -0.440049 0
M  V30 8478 C 758.972 -4.51359 0.715838 0
M  V30 8479 C 759.969 -4.94754 1.59732 0
M  V30 8480 C 757.654 -4.94069 0.905621 0
M  V30 8481 C 759.648 -5.79564 2.653 0
M  V30 8482 C 757.335 -5.78662 1.96453 0
M  V30 8483 C 758.333 -6.21311 2.83658 0
M  V30 8484 O 758.021 -7.04218 3.87727 0
M  V30 8485 H 757.753 -0.675994 0.00289751 0
M  V30 8486 H 760.307 -1.94629 0.656417 0
M  V30 8487 H 758.537 -3.66492 -1.23372 0
M  V30 8488 H 760.226 -3.95145 -0.928181 0
M  V30 8489 H 760.992 -4.62428 1.46237 0
M  V30 8490 H 756.871 -4.60394 0.236326 0
M  V30 8491 H 760.415 -6.12774 3.33398 0
M  V30 8492 H 756.312 -6.10401 2.09955 0
M  V30 8493 H 757.08 -7.22464 3.84692 0
M  V30 8494 N 759.743 -0.201713 -1.56304 0
M  V30 8495 C 760.99 0.435307 -1.97766 0
M  V30 8496 C 761.318 1.61169 -1.0888 0
M  V30 8497 O 760.573 1.95272 -0.12934 0
M  V30 8498 C 760.872 0.931432 -3.45049 0
M  V30 8499 C 760.538 -0.132287 -4.50706 0
M  V30 8500 C 759.2 -0.424552 -4.79323 0
M  V30 8501 C 761.552 -0.852703 -5.14177 0
M  V30 8502 C 758.88 -1.4421 -5.68701 0
M  V30 8503 C 761.232 -1.85944 -6.04655 0
M  V30 8504 C 759.896 -2.15884 -6.31625 0
M  V30 8505 H 759.166 0.15929 -0.723676 0
M  V30 8506 H 761.813 -0.300069 -1.89134 0
M  V30 8507 H 760.118 1.7452 -3.50785 0
M  V30 8508 H 761.815 1.43383 -3.74489 0
M  V30 8509 H 758.405 0.105671 -4.2847 0
M  V30 8510 H 762.589 -0.640139 -4.92154 0
M  V30 8511 H 757.845 -1.6799 -5.87869 0
M  V30 8512 H 762.019 -2.42286 -6.52894 0
M  V30 8513 H 759.646 -2.94875 -7.0068 0
M  V30 8514 N 761.222 1.57436 0.0718424 0
M  V30 8515 C 762.185 2.02703 1.06977 0
M  V30 8516 C 763.185 0.924062 1.31597 0
M  V30 8517 O 764.375 1.18894 1.27318 0
M  V30 8518 C 761.507 2.40763 2.41342 0
M  V30 8519 H 762.7 2.92098 0.679619 0
M  V30 8520 H 760.253 1.5304 0.317565 0
M  V30 8521 H 760.988 1.54394 2.8519 0
M  V30 8522 H 760.773 3.21249 2.24814 0
M  V30 8523 H 762.263 2.76361 3.13073 0
M  V30 8524 N 762.7 -0.34323 1.53817 0
M  V30 8525 C 763.946 -1.08137 1.72273 0
M  V30 8526 C 764.301 -1.86311 0.480201 0
M  V30 8527 O 763.594 -1.84204 -0.527192 0
M  V30 8528 C 763.788 -2.05195 2.92626 0
M  V30 8529 C 763.617 -1.36561 4.28464 0
M  V30 8530 C 762.387 -1.11033 4.9295 0
M  V30 8531 C 764.585 -0.791663 5.0817 0
M  V30 8532 N 762.567 -0.389839 6.12661 0
M  V30 8533 C 763.938 -0.201742 6.19672 0
M  V30 8534 C 765.993 -0.692541 4.9306 0
M  V30 8535 C 764.696 0.477661 7.17712 0
M  V30 8536 C 766.722 -0.0268775 5.91394 0
M  V30 8537 C 766.084 0.552072 7.02233 0
M  V30 8538 H 762.183 -0.380078 0.683421 0
M  V30 8539 H 764.767 -0.364925 1.9125 0
M  V30 8540 H 762.938 -2.74131 2.75149 0
M  V30 8541 H 764.67 -2.7185 2.99799 0
M  V30 8542 H 761.425 -1.39752 4.52511 0
M  V30 8543 H 761.849 -0.0443076 6.76986 0
M  V30 8544 H 766.491 -1.12589 4.07534 0
M  V30 8545 H 764.209 0.922895 8.02813 0
M  V30 8546 H 767.795 0.0491921 5.81779 0
M  V30 8547 H 766.675 1.05899 7.77017 0
M  V30 8548 N 764.178 -1.45556 -0.604258 0
M  V30 8549 C 765.088 -1.57025 -1.74299 0
M  V30 8550 C 766.104 -0.45456 -1.67958 0
M  V30 8551 O 767.28 -0.715711 -1.88254 0
M  V30 8552 C 764.345 -1.53702 -3.10768 0
M  V30 8553 C 763.406 -2.76335 -3.28538 0
M  V30 8554 C 762.639 -2.73161 -4.58496 0
M  V30 8555 O 762.862 -1.80678 -5.41028 0
M  V30 8556 O 761.796 -3.64409 -4.79051 0
M  V30 8557 H 765.622 -2.53284 -1.67573 0
M  V30 8558 H 763.207 -1.28104 -0.768745 0
M  V30 8559 H 765.089 -1.54468 -3.92068 0
M  V30 8560 H 763.764 -0.605957 -3.17978 0
M  V30 8561 H 762.671 -2.8113 -2.46813 0
M  V30 8562 H 764.004 -3.68578 -3.26207 0
M  V30 8563 N 765.656 0.84705 -1.32902 0
M  V30 8564 C 767.067 1.41785 -1.21466 0
M  V30 8565 C 767.418 1.95464 0.169767 0
M  V30 8566 O 766.543 1.88157 1.06892 0
M  V30 8567 C 767.138 2.57734 -2.19906 0
M  V30 8568 C 765.697 3.10791 -2.12334 0
M  V30 8569 C 764.844 1.83562 -2.07847 0
M  V30 8570 H 767.795 0.653532 -1.44619 0
M  V30 8571 H 767.816 3.35123 -1.80202 0
M  V30 8572 H 767.328 2.18635 -3.20656 0
M  V30 8573 H 765.429 3.54455 -1.14858 0
M  V30 8574 H 765.542 3.71519 -3.02506 0
M  V30 8575 H 763.906 2.03475 -1.53199 0
M  V30 8576 H 764.689 1.4667 -3.10392 0
M  V30 8577 N 767.134 1.16236 1.06428 0
M  V30 8578 C 768.359 0.967688 1.83441 0
M  V30 8579 C 768.784 -0.479167 1.81894 0
M  V30 8580 O 768.142 -1.34224 1.21875 0
M  V30 8581 C 768.19 1.49806 3.2801 0
M  V30 8582 O 767.294 0.703481 4.06356 0
M  V30 8583 H 766.635 0.344468 0.56766 0
M  V30 8584 H 769.165 1.54442 1.34197 0
M  V30 8585 H 769.175 1.51495 3.78831 0
M  V30 8586 H 767.85 2.55133 3.2845 0
M  V30 8587 H 766.427 0.756986 3.65136 0
M  V30 8588 N 768.612 -1.24939 0.960631 0
M  V30 8589 C 769.859 -1.92818 0.618663 0
M  V30 8590 C 770.187 -1.75177 -0.845173 0
M  V30 8591 O 769.442 -1.09412 -1.62258 0
M  V30 8592 C 769.741 -3.45066 0.930809 0
M  V30 8593 C 769.407 -3.82869 2.38164 0
M  V30 8594 C 768.069 -3.92899 2.7782 0
M  V30 8595 C 770.421 -4.01483 3.32356 0
M  V30 8596 C 767.749 -4.18955 4.10723 0
M  V30 8597 C 770.101 -4.29033 4.6488 0
M  V30 8598 C 768.765 -4.37282 5.04322 0
M  V30 8599 H 768.035 -0.705571 0.226385 0
M  V30 8600 H 770.682 -1.48365 1.21079 0
M  V30 8601 H 768.987 -3.9096 0.256355 0
M  V30 8602 H 770.684 -3.95783 0.644712 0
M  V30 8603 H 767.274 -3.75622 2.06413 0
M  V30 8604 H 771.458 -3.93143 3.02907 0
M  V30 8605 H 766.714 -4.23558 4.40918 0
M  V30 8606 H 770.888 -4.42381 5.3784 0
M  V30 8607 H 768.515 -4.57225 6.0733 0
M  V30 8608 N 770.09 -0.729906 -1.39679 0
M  V30 8609 C 771.506 -0.404951 -1.54377 0
M  V30 8610 C 771.706 1.08476 -1.6981 0
M  V30 8611 O 770.762 1.87087 -1.69572 0
M  V30 8612 C 772.075 -1.18352 -2.76429 0
M  V30 8613 C 773.623 -1.17124 -2.9026 0
M  V30 8614 C 774.098 -1.93227 -4.15244 0
M  V30 8615 N 775.589 -1.90368 -4.22273 0
M  V30 8616 C 776.324 -2.46065 -5.17918 0
M  V30 8617 N 775.82 -3.10378 -6.19385 0
M  V30 8618 N 777.613 -2.36127 -5.10099 0
M  V30 8619 H 769.764 -1.69567 -1.27909 0
M  V30 8620 H 772.027 -0.717527 -0.619564 0
M  V30 8621 H 771.733 -2.23743 -2.71352 0
M  V30 8622 H 771.607 -0.784589 -3.6895 0
M  V30 8623 H 773.994 -0.125478 -2.94833 0
M  V30 8624 H 774.075 -1.60951 -1.98817 0
M  V30 8625 H 773.719 -2.97802 -4.11432 0
M  V30 8626 H 773.649 -1.4681 -5.05722 0
M  V30 8627 H 776.14 -1.4351 -3.4959 0
M  V30 8628 H 776.453 -3.50358 -6.88817 0
M  V30 8629 H 774.798 -3.14467 -6.19787 0
M  V30 8630 H 777.989 -1.85529 -4.29763 0
M  V30 8631 H 778.162 -2.79833 -5.84463 0
M  V30 8632 N 771.568 1.50203 -0.477153 0
M  V30 8633 C 772.845 1.95115 0.137609 0
M  V30 8634 C 773.225 1.41778 1.56404 0
M  V30 8635 O 772.573 0.621333 2.1989 0
M  V30 8636 C 772.783 3.4892 0.0747168 0
M  V30 8637 C 774.131 4.238 0.260585 0
M  V30 8638 O 775.155 3.5588 0.151021 0
M  V30 8639 O 774.014 5.44366 0.482534 0
M  V30 8640 H 771.108 0.81987 0.108364 0
M  V30 8641 H 773.654 1.60946 -0.537989 0
M  V30 8642 H 772.426 3.80308 -0.920966 0
M  V30 8643 H 772.049 3.89642 0.791509 0
M  V30 8644 N 773.046 0.209999 1.56195 0
M  V30 8645 C 773.978 -0.736967 2.17029 0
M  V30 8646 C 774.991 -1.16599 1.13616 0
M  V30 8647 O 776.18 -1.09914 1.40646 0
M  V30 8648 C 773.28 -2.00852 2.72969 0
M  V30 8649 C 772.453 -1.73691 4.01435 0
M  V30 8650 C 771.512 -2.85439 4.42053 0
M  V30 8651 O 770.538 -2.54405 5.09183 0
M  V30 8652 N 771.74 -4.14135 4.06783 0
M  V30 8653 H 774.505 -0.216656 2.98916 0
M  V30 8654 H 772.066 0.0285672 1.61875 0
M  V30 8655 H 774.058 -2.74778 2.97118 0
M  V30 8656 H 772.628 -2.43963 1.95451 0
M  V30 8657 H 771.848 -0.834676 3.85262 0
M  V30 8658 H 773.136 -1.52961 4.85263 0
M  V30 8659 H 772.534 -4.42196 3.52816 0
M  V30 8660 H 771.091 -4.84642 4.35851 0
M  V30 8661 N 774.524 -1.57472 -0.0634922 0
M  V30 8662 C 775.77 -1.87932 -0.762194 0
M  V30 8663 C 776.103 -0.803377 -1.76804 0
M  V30 8664 O 775.378 0.185468 -1.93614 0
M  V30 8665 C 775.661 -3.29053 -1.46275 0
M  V30 8666 C 775.514 -4.47309 -0.472755 0
M  V30 8667 C 776.833 -3.68537 -2.40558 0
M  V30 8668 H 773.952 -0.683521 -0.275624 0
M  V30 8669 H 776.594 -1.89983 -0.0252651 0
M  V30 8670 H 774.744 -3.27435 -2.0909 0
M  V30 8671 H 776.416 -4.61053 0.150828 0
M  V30 8672 H 774.659 -4.33286 0.211187 0
M  V30 8673 H 775.33 -5.42853 -1.00072 0
M  V30 8674 H 777.806 -3.71302 -1.87814 0
M  V30 8675 H 776.682 -4.68152 -2.86574 0
M  V30 8676 H 776.943 -2.98917 -3.25731 0
M  V30 8677 N 776.003 0.335068 -1.53997 0
M  V30 8678 C 776.935 1.4327 -1.78903 0
M  V30 8679 C 777.948 1.48347 -0.670598 0
M  V30 8680 O 779.137 1.51277 -0.947494 0
M  V30 8681 C 776.237 2.81878 -1.88144 0
M  V30 8682 C 775.41 3.00141 -3.18174 0
M  V30 8683 C 774.469 4.19041 -3.18263 0
M  V30 8684 O 773.495 4.12751 -3.9195 0
M  V30 8685 N 774.697 5.28004 -2.41231 0
M  V30 8686 H 777.462 1.22272 -2.73623 0
M  V30 8687 H 775.023 0.524996 -1.53152 0
M  V30 8688 H 777.015 3.59609 -1.85644 0
M  V30 8689 H 775.585 2.9598 -1.00572 0
M  V30 8690 H 774.805 2.09808 -3.33728 0
M  V30 8691 H 776.093 3.0923 -4.04047 0
M  V30 8692 H 775.491 5.35986 -1.8093 0
M  V30 8693 H 774.048 6.04196 -2.44521 0
M  V30 8694 N 777.481 1.45874 0.596531 0
M  V30 8695 C 778.429 1.55739 1.72766 0
M  V30 8696 C 779.423 0.426666 1.63939 0
M  V30 8697 O 780.629 0.60301 1.69599 0
M  V30 8698 H 777.004 0.489386 0.570968 0
M  V30 8699 H 778.975 2.50871 1.61575 0
M  V30 8700 C 777.724 1.55174 3.11153 0
M  V30 8701 H 777.047 2.41511 3.1861 0
M  V30 8702 H 778.487 1.66133 3.90097 0
M  V30 8703 C 776.946 0.278001 3.35751 0
M  V30 8704 O 777.476 -0.637557 3.96608 0
M  V30 8705 N 775.682 0.170227 2.90101 0
M  V30 8706 H 775.229 0.916159 2.40758 0
M  V30 8707 H 775.187 -0.68117 3.06932 0
M  V30 8708 N 778.959 -0.83999 1.33349 0
M  V30 8709 C 779.889 -1.965 1.26135 0
M  V30 8710 C 780.87 -1.69505 0.142152 0
M  V30 8711 O 782.055 -1.91346 0.331743 0
M  V30 8712 C 779.185 -3.32632 0.99866 0
M  V30 8713 C 778.139 -3.74021 2.08068 0
M  V30 8714 C 777.465 -5.07947 1.67014 0
M  V30 8715 C 778.765 -3.87925 3.49731 0
M  V30 8716 H 780.459 -2.02793 2.20262 0
M  V30 8717 H 778.005 -0.974297 1.06035 0
M  V30 8718 H 779.958 -4.10903 0.934696 0
M  V30 8719 H 778.682 -3.26593 0.0217759 0
M  V30 8720 H 777.341 -2.98012 2.13505 0
M  V30 8721 H 776.989 -4.98378 0.680316 0
M  V30 8722 H 776.689 -5.36611 2.39422 0
M  V30 8723 H 778.213 -5.88695 1.62082 0
M  V30 8724 H 779.627 -4.5651 3.46802 0
M  V30 8725 H 778.024 -4.28023 4.20614 0
M  V30 8726 H 779.094 -2.90407 3.88319 0
M  V30 8727 N 780.437 -1.16799 -1.0581 0
M  V30 8728 C 781.853 -0.913935 -1.30841 0
M  V30 8729 C 782.053 0.430439 -1.96849 0
M  V30 8730 O 781.109 1.16885 -2.23817 0
M  V30 8731 C 782.422 -2.06662 -2.18429 0
M  V30 8732 C 783.97 -2.10294 -2.31831 0
M  V30 8733 C 784.445 -3.2493 -3.22776 0
M  V30 8734 N 785.936 -3.24678 -3.30361 0
M  V30 8735 C 786.671 -4.10021 -4.00837 0
M  V30 8736 N 786.167 -5.05461 -4.73795 0
M  V30 8737 N 787.96 -3.97991 -3.96937 0
M  V30 8738 H 780.111 -2.03343 -0.613613 0
M  V30 8739 H 782.374 -0.88754 -0.333133 0
M  V30 8740 H 782.08 -3.03791 -1.77211 0
M  V30 8741 H 781.954 -2.01233 -3.19038 0
M  V30 8742 H 784.341 -1.13754 -2.72294 0
M  V30 8743 H 784.422 -2.19786 -1.30873 0
M  V30 8744 H 784.066 -4.21731 -2.83028 0
M  V30 8745 H 783.996 -3.12674 -4.23725 0
M  V30 8746 H 786.487 -2.55573 -2.78372 0
M  V30 8747 H 786.8 -5.66989 -5.25113 0
M  V30 8748 H 785.145 -5.09436 -4.72758 0
M  V30 8749 H 788.336 -3.2273 -3.39062 0
M  V30 8750 H 788.509 -4.64722 -4.51594 0
M  V30 8751 N 781.915 1.24427 -0.967243 0
M  V30 8752 C 782.862 2.25398 -0.496419 0
M  V30 8753 C 783.832 1.59667 0.457781 0
M  V30 8754 O 785.017 1.87213 0.368246 0
M  V30 8755 C 782.157 3.44474 0.207693 0
M  V30 8756 C 781.27 4.24804 -0.785221 0
M  V30 8757 C 780.405 5.31169 -0.0572631 0
M  V30 8758 C 779.444 6.03195 -1.04027 0
M  V30 8759 N 778.581 7.01265 -0.34235 0
M  V30 8760 H 783.421 2.65039 -1.36229 0
M  V30 8761 H 780.958 1.30288 -0.682902 0
M  V30 8762 H 782.916 4.12376 0.632612 0
M  V30 8763 H 781.546 3.05672 1.03752 0
M  V30 8764 H 780.598 3.56445 -1.32858 0
M  V30 8765 H 781.91 4.74599 -1.53483 0
M  V30 8766 H 781.064 6.05205 0.425674 0
M  V30 8767 H 779.803 4.8228 0.725047 0
M  V30 8768 H 778.808 5.27964 -1.53409 0
M  V30 8769 H 780.033 6.54173 -1.82302 0
M  V30 8770 H 777.979 6.54648 0.420993 0
M  V30 8771 H 777.896 7.48939 -1.03084 0
M  V30 8772 H 779.164 7.7941 0.118634 0
M  V30 8773 N 783.393 0.737304 1.3929 0
M  V30 8774 C 784.34 0.0988364 2.30588 0
M  V30 8775 C 785.31 -0.727206 1.49335 0
M  V30 8776 O 786.495 -0.686694 1.78014 0
M  V30 8777 C 783.635 -0.800734 3.35682 0
M  V30 8778 C 782.748 0.0381731 4.31983 0
M  V30 8779 C 781.883 -0.862884 5.24145 0
M  V30 8780 C 780.922 -0.0193639 6.12097 0
M  V30 8781 N 780.059 -0.87648 6.96608 0
M  V30 8782 H 784.899 0.883031 2.84617 0
M  V30 8783 H 782.436 0.447111 1.4014 0
M  V30 8784 H 784.394 -1.33676 3.95205 0
M  V30 8785 H 783.024 -1.55088 2.83103 0
M  V30 8786 H 782.076 0.691641 3.74059 0
M  V30 8787 H 783.388 0.690294 4.94 0
M  V30 8788 H 782.542 -1.46667 5.88705 0
M  V30 8789 H 781.281 -1.54878 4.62454 0
M  V30 8790 H 780.286 0.597202 5.46547 0
M  V30 8791 H 781.511 0.663348 6.75852 0
M  V30 8792 H 779.457 -1.54762 6.37483 0
M  V30 8793 H 779.374 -0.280892 7.55478 0
M  V30 8794 H 780.642 -1.46575 7.65595 0
M  V30 8795 N 784.871 -1.49948 0.485112 0
M  V30 8796 C 785.781 -2.32587 -0.306697 0
M  V30 8797 C 786.797 -1.43598 -0.982632 0
M  V30 8798 O 787.973 -1.76638 -0.967519 0
M  V30 8799 C 785.038 -3.18638 -1.3664 0
M  V30 8800 C 784.099 -4.23462 -0.705589 0
M  V30 8801 C 783.332 -5.05401 -1.7148 0
M  V30 8802 O 783.555 -4.88618 -2.94293 0
M  V30 8803 O 782.489 -5.88157 -1.27889 0
M  V30 8804 H 786.315 -3.01447 0.369272 0
M  V30 8805 H 783.9 -1.47349 0.246709 0
M  V30 8806 H 785.782 -3.71992 -1.9799 0
M  V30 8807 H 784.457 -2.52491 -2.02559 0
M  V30 8808 H 783.364 -3.74063 -0.0527733 0
M  V30 8809 H 784.697 -4.92119 -0.0891187 0
M  V30 8810 N 786.349 -0.21828 -1.56081 0
M  V30 8811 C 787.279 0.687922 -2.23136 0
M  V30 8812 C 788.26 1.20357 -1.202 0
M  V30 8813 O 789.445 1.24817 -1.48776 0
M  V30 8814 C 786.575 1.89762 -2.90874 0
M  V30 8815 C 785.529 1.51595 -4.00254 0
M  V30 8816 C 784.855 2.80415 -4.55271 0
M  V30 8817 C 786.155 0.708404 -5.17474 0
M  V30 8818 H 787.849 0.128854 -2.99123 0
M  V30 8819 H 785.395 0.0605354 -1.43873 0
M  V30 8820 H 787.348 2.53699 -3.36474 0
M  V30 8821 H 786.072 2.4816 -2.1233 0
M  V30 8822 H 784.731 0.900058 -3.55379 0
M  V30 8823 H 784.379 3.36951 -3.73461 0
M  V30 8824 H 784.079 2.55613 -5.2909 0
M  V30 8825 H 785.603 3.453 -5.03587 0
M  V30 8826 H 787.017 1.2514 -5.59476 0
M  V30 8827 H 785.414 0.557593 -5.97504 0
M  V30 8828 H 786.484 -0.285679 -4.84058 0
M  V30 8829 N 787.827 1.57504 0.0551401 0
M  V30 8830 C 788.774 2.04825 1.06373 0
M  V30 8831 C 789.744 0.932108 1.37481 0
M  V30 8832 O 790.929 1.20093 1.48265 0
M  V30 8833 C 788.069 2.51091 2.36743 0
M  V30 8834 C 787.182 3.76392 2.12021 0
M  V30 8835 C 786.317 4.11373 3.36074 0
M  V30 8836 C 785.356 5.29666 3.0679 0
M  V30 8837 N 784.493 5.60205 4.2322 0
M  V30 8838 H 789.333 2.90753 0.653216 0
M  V30 8839 H 786.87 1.43776 0.310951 0
M  V30 8840 H 788.828 2.75973 3.12881 0
M  V30 8841 H 787.458 1.68118 2.75565 0
M  V30 8842 H 786.51 3.58751 1.26498 0
M  V30 8843 H 787.822 4.62662 1.86401 0
M  V30 8844 H 786.976 4.37245 4.20597 0
M  V30 8845 H 785.715 3.23704 3.64784 0
M  V30 8846 H 784.72 5.03574 2.20664 0
M  V30 8847 H 785.945 6.18968 2.79385 0
M  V30 8848 H 783.891 4.75495 4.5193 0
M  V30 8849 H 783.808 6.40928 4.00933 0
M  V30 8850 H 785.076 5.90637 5.08692 0
M  V30 8851 N 789.305 -0.326896 1.54172 0
M  V30 8852 C 790.253 -1.42232 1.84046 0
M  V30 8853 C 791.247 -1.53705 0.712115 0
M  V30 8854 O 792.453 -1.56131 0.895724 0
M  V30 8855 H 788.828 -0.474568 0.583343 0
M  V30 8856 H 790.799 -1.14259 2.75658 0
M  V30 8857 C 789.548 -2.78502 2.08163 0
M  V30 8858 H 788.871 -2.70447 2.94446 0
M  V30 8859 H 790.311 -3.54228 2.33021 0
M  V30 8860 C 788.77 -3.25415 0.872152 0
M  V30 8861 O 789.3 -4.01621 0.0797648 0
M  V30 8862 N 787.506 -2.82418 0.684716 0
M  V30 8863 H 787.053 -2.20566 1.33072 0
M  V30 8864 H 787.011 -3.14159 -0.123031 0
M  V30 8865 N 790.784 -1.46188 -0.588786 0
M  V30 8866 C 791.714 -1.59148 -1.70863 0
M  V30 8867 C 792.695 -0.442083 -1.64255 0
M  V30 8868 O 793.88 -0.667575 -1.82365 0
M  V30 8869 C 791.01 -1.5757 -3.09498 0
M  V30 8870 C 789.964 -2.71418 -3.30932 0
M  V30 8871 C 789.29 -2.549 -4.70032 0
M  V30 8872 C 790.59 -4.1329 -3.19356 0
M  V30 8873 H 792.284 -2.52889 -1.60274 0
M  V30 8874 H 789.83 -1.21707 -0.769638 0
M  V30 8875 H 791.783 -1.65231 -3.87655 0
M  V30 8876 H 790.507 -0.603705 -3.20972 0
M  V30 8877 H 789.166 -2.63216 -2.55172 0
M  V30 8878 H 788.814 -1.55797 -4.78264 0
M  V30 8879 H 788.514 -3.31257 -4.85327 0
M  V30 8880 H 790.038 -2.64443 -5.50366 0
M  V30 8881 H 791.452 -4.22636 -3.87365 0
M  V30 8882 H 789.849 -4.90187 -3.46175 0
M  V30 8883 H 790.919 -4.33874 -2.16522 0
M  V30 8884 N 792.262 0.832906 -1.33792 0
M  V30 8885 C 793.192 1.95828 -1.27176 0
M  V30 8886 C 794.173 1.69427 -0.15114 0
M  V30 8887 O 795.358 1.91167 -0.341886 0
M  V30 8888 C 792.488 3.32098 -1.01629 0
M  V30 8889 C 791.442 3.72912 -2.10049 0
M  V30 8890 C 790.768 5.07054 -1.69706 0
M  V30 8891 C 792.068 3.86064 -3.51783 0
M  V30 8892 H 793.762 2.01622 -2.21334 0
M  V30 8893 H 791.308 0.96866 -1.0655 0
M  V30 8894 H 793.261 4.10402 -0.956474 0
M  V30 8895 H 791.985 3.26577 -0.0390956 0
M  V30 8896 H 790.644 2.96876 -2.15082 0
M  V30 8897 H 790.292 4.9801 -0.706737 0
M  V30 8898 H 789.992 5.35333 -2.42264 0
M  V30 8899 H 791.516 5.87827 -1.65202 0
M  V30 8900 H 792.93 4.54665 -3.49218 0
M  V30 8901 H 791.327 4.25787 -4.22878 0
M  V30 8902 H 792.397 2.88344 -3.89854 0
M  V30 8903 N 793.74 1.17359 1.05189 0
M  V30 8904 C 794.703 0.892604 2.11105 0
M  V30 8905 C 795.703 -0.117236 1.60372 0
M  V30 8906 O 796.893 0.114936 1.7382 0
M  V30 8907 C 794.025 0.337032 3.3923 0
M  V30 8908 H 795.218 1.83169 2.37464 0
M  V30 8909 H 792.771 0.984051 1.21434 0
M  V30 8910 H 793.506 -0.609198 3.18527 0
M  V30 8911 H 793.291 1.06484 3.77364 0
M  V30 8912 H 794.781 0.158763 4.17298 0
M  V30 8913 N 795.218 -1.23913 0.973828 0
M  V30 8914 C 796.465 -1.92151 0.639079 0
M  V30 8915 C 796.793 -1.76064 -0.826545 0
M  V30 8916 O 796.048 -1.11126 -1.61088 0
M  V30 8917 C 796.347 -3.4406 0.967356 0
M  V30 8918 C 796.013 -3.80321 2.42212 0
M  V30 8919 C 794.675 -3.8993 2.81971 0
M  V30 8920 C 797.027 -3.97935 3.36596 0
M  V30 8921 C 794.355 -4.14575 4.15144 0
M  V30 8922 C 796.707 -4.24079 4.69404 0
M  V30 8923 C 795.371 -4.31908 5.08932 0
M  V30 8924 H 794.641 -0.70313 0.233856 0
M  V30 8925 H 797.288 -1.47072 1.22646 0
M  V30 8926 H 795.593 -3.90667 0.297807 0
M  V30 8927 H 797.29 -3.95077 0.686654 0
M  V30 8928 H 793.88 -3.73411 2.10385 0
M  V30 8929 H 798.064 -3.89908 3.07059 0
M  V30 8930 H 793.32 -4.18858 4.45385 0
M  V30 8931 H 797.494 -4.36652 5.42502 0
M  V30 8932 H 795.121 -4.50758 6.12145 0
M  V30 8933 N 796.696 -0.74468 -1.38897 0
M  V30 8934 C 797.921 -0.306119 -2.05128 0
M  V30 8935 C 798.346 1.0541 -1.55789 0
M  V30 8936 O 797.704 1.66993 -0.705909 0
M  V30 8937 C 797.752 -0.328195 -3.59103 0
M  V30 8938 O 796.856 0.680876 -4.06741 0
M  V30 8939 H 796.197 -0.137209 -0.649669 0
M  V30 8940 H 798.727 -1.01331 -1.77745 0
M  V30 8941 H 798.737 -0.175956 -4.0762 0
M  V30 8942 H 797.412 -1.32067 -3.94374 0
M  V30 8943 H 795.989 0.49398 -3.69614 0
M  V30 8944 N 798.174 1.49689 -0.493057 0
M  V30 8945 C 799.106 2.26867 0.326195 0
M  V30 8946 C 800.119 1.33083 0.937697 0
M  V30 8947 O 801.308 1.58427 0.822382 0
M  V30 8948 C 798.408 3.0519 1.4735 0
M  V30 8949 C 797.581 4.26491 0.970767 0
M  V30 8950 C 796.64 4.86926 1.99473 0
M  V30 8951 O 795.666 5.47221 1.56647 0
M  V30 8952 N 796.868 4.75871 3.32456 0
M  V30 8953 H 799.633 2.97816 -0.335547 0
M  V30 8954 H 797.194 1.58602 -0.325129 0
M  V30 8955 H 799.186 3.42496 2.15589 0
M  V30 8956 H 797.756 2.369 2.03954 0
M  V30 8957 H 796.976 3.94036 0.113529 0
M  V30 8958 H 798.264 5.05092 0.613156 0
M  V30 8959 H 797.662 4.2797 3.69944 0
M  V30 8960 H 796.219 5.17383 3.96431 0
M  V30 8961 N 799.652 0.226554 1.55963 0
M  V30 8962 C 800.582 -0.676079 2.23498 0
M  V30 8963 C 801.563 -1.19718 1.20837 0
M  V30 8964 O 802.748 -1.24027 1.49436 0
M  V30 8965 C 799.878 -1.88217 2.91876 0
M  V30 8966 C 798.832 -1.4947 4.01052 0
M  V30 8967 C 798.158 -2.77997 4.56751 0
M  V30 8968 C 799.458 -0.680951 5.17842 0
M  V30 8969 H 801.152 -0.112989 2.99187 0
M  V30 8970 H 798.698 -0.0529046 1.43903 0
M  V30 8971 H 800.651 -2.51911 3.37815 0
M  V30 8972 H 799.375 -2.47031 2.13643 0
M  V30 8973 H 798.034 -0.881199 3.55852 0
M  V30 8974 H 797.682 -3.34966 3.75243 0
M  V30 8975 H 797.382 -2.52803 5.30438 0
M  V30 8976 H 798.906 -3.42625 5.05411 0
M  V30 8977 H 800.32 -1.22171 5.60131 0
M  V30 8978 H 798.717 -0.525898 5.97791 0
M  V30 8979 H 799.787 0.311346 4.83899 0
M  V30 8980 N 801.13 -1.57531 -0.0467866 0
M  V30 8981 C 802.062 -2.02156 -1.08007 0
M  V30 8982 C 803.075 -0.931434 -1.33522 0
M  V30 8983 O 804.264 -1.209 -1.31321 0
M  V30 8984 C 801.364 -2.36675 -2.42566 0
M  V30 8985 C 800.537 -3.67848 -2.36658 0
M  V30 8986 C 799.596 -3.89754 -3.53523 0
M  V30 8987 O 798.622 -4.61036 -3.33818 0
M  V30 8988 N 799.824 -3.34025 -4.74771 0
M  V30 8989 H 802.589 -2.91414 -0.699845 0
M  V30 8990 H 800.15 -1.60185 -0.235041 0
M  V30 8991 H 802.142 -2.48482 -3.19435 0
M  V30 8992 H 800.712 -1.53178 -2.72498 0
M  V30 8993 H 799.932 -3.66561 -1.45005 0
M  V30 8994 H 801.22 -4.53931 -2.29835 0
M  V30 8995 H 800.618 -2.76214 -4.93683 0
M  V30 8996 H 799.175 -3.51241 -5.49066 0
M  V30 8997 N 802.608 0.318715 -1.54344 0
M  V30 8998 C 803.848 1.06425 -1.74508 0
M  V30 8999 C 804.212 1.85087 -0.510572 0
M  V30 9000 O 805.413 2.62253 -0.589647 0
M  V30 9001 C 803.684 1.96054 -2.98827 0
M  V30 9002 S 805.243 2.77493 -3.39916 0
M  V30 9003 H 802.061 0.35921 -0.613587 0
M  V30 9004 H 804.663 0.339679 -1.92526 0
M  V30 9005 H 803.367 1.37109 -3.8682 0
M  V30 9006 H 802.898 2.72908 -2.83346 0
M  V30 9007 H 804.913 3.98544 -2.95596 0
M  V30 9008 N 804.086 1.46499 0.581025 0
M  V30 9009 C 805.332 1.52121 1.34116 0
M  V30 9010 C 805.665 0.173031 1.93428 0
M  V30 9011 O 804.94 -0.815729 1.76568 0
M  V30 9012 C 805.223 2.62108 2.46924 0
M  V30 9013 C 805.076 4.06462 1.92636 0
M  V30 9014 C 806.395 2.68167 3.48962 0
M  V30 9015 H 803.514 0.5538 0.486287 0
M  V30 9016 H 806.156 1.78443 0.652538 0
M  V30 9017 H 804.306 2.39794 3.05665 0
M  V30 9018 H 805.978 4.40068 1.3834 0
M  V30 9019 H 804.221 4.15862 1.23455 0
M  V30 9020 H 804.892 4.79152 2.74076 0
M  V30 9021 H 807.368 2.8823 3.00104 0
M  V30 9022 H 806.244 3.46942 4.2535 0
M  V30 9023 H 806.505 1.74284 4.06297 0
M  V30 9024 N 805.565 -0.825799 1.34232 0
M  V30 9025 C 806.811 -1.58419 1.26614 0
M  V30 9026 C 807.144 -1.93503 -0.164341 0
M  V30 9027 O 806.419 -1.59785 -1.109 0
M  V30 9028 C 806.702 -2.8856 2.15418 0
M  V30 9029 C 806.555 -2.60075 3.66989 0
M  V30 9030 C 807.874 -3.90107 2.03726 0
M  V30 9031 H 804.993 -0.574794 0.461282 0
M  V30 9032 H 807.635 -0.951519 1.64457 0
M  V30 9033 H 805.785 -3.42553 1.83275 0
M  V30 9034 H 807.457 -2.12414 4.09485 0
M  V30 9035 H 805.7 -1.93565 3.88221 0
M  V30 9036 H 806.371 -3.52866 4.24488 0
M  V30 9037 H 808.847 -3.45459 2.31942 0
M  V30 9038 H 807.723 -4.78976 2.68092 0
M  V30 9039 H 807.984 -4.30329 1.01337 0
M  V30 9040 N 807.043 -1.17915 -1.04565 0
M  V30 9041 C 808.292 -0.965816 -1.77073 0
M  V30 9042 C 808.605 0.506005 -1.88942 0
M  V30 9043 O 809.811 0.837717 -2.58253 0
M  V30 9044 C 808.267 -1.67894 -3.18339 0
M  V30 9045 C 807.875 -3.18972 -3.1458 0
M  V30 9046 C 809.619 -1.54823 -3.9526 0
M  V30 9047 C 807.526 -3.82946 -4.50674 0
M  V30 9048 H 806.456 -0.357729 -0.663736 0
M  V30 9049 H 809.107 -1.41235 -1.17153 0
M  V30 9050 H 807.489 -1.16016 -3.78624 0
M  V30 9051 H 808.663 -3.77835 -2.63776 0
M  V30 9052 H 806.978 -3.32127 -2.51159 0
M  V30 9053 H 809.575 -1.99984 -4.95894 0
M  V30 9054 H 809.918 -0.499727 -4.1329 0
M  V30 9055 H 810.451 -2.03953 -3.41538 0
M  V30 9056 H 807.19 -4.8782 -4.37849 0
M  V30 9057 H 806.71 -3.2887 -5.01602 0
M  V30 9058 H 808.389 -3.85518 -5.196 0
M  V30 9059 N 808.521 1.23394 -0.980386 0
M  V30 9060 C 809.768 1.91809 -0.649261 0
M  V30 9061 C 810.096 1.765 0.817197 0
M  V30 9062 O 809.351 1.11979 1.60497 0
M  V30 9063 C 809.65 3.43542 -0.985588 0
M  V30 9064 C 809.316 3.79031 -2.44225 0
M  V30 9065 C 807.978 3.88429 -2.84035 0
M  V30 9066 C 810.33 3.96145 -3.38702 0
M  V30 9067 C 807.658 4.12368 -4.17336 0
M  V30 9068 C 810.01 4.21583 -4.71646 0
M  V30 9069 C 808.674 4.29203 -5.11215 0
M  V30 9070 H 807.944 0.70188 -0.237581 0
M  V30 9071 H 810.591 1.4642 -1.23424 0
M  V30 9072 H 808.896 3.90503 -0.318521 0
M  V30 9073 H 810.593 3.94708 -0.707596 0
M  V30 9074 H 807.183 3.7229 -2.12362 0
M  V30 9075 H 811.367 3.88274 -3.09123 0
M  V30 9076 H 806.623 4.1649 -4.47601 0
M  V30 9077 H 810.797 4.33769 -5.4481 0
M  V30 9078 H 808.424 4.47505 -6.14527 0
M  V30 9079 N 809.999 0.752036 1.385 0
M  V30 9080 C 811.245 0.307958 2.00448 0
M  V30 9081 C 811.578 -1.10702 1.59558 0
M  V30 9082 O 810.853 -1.75788 0.832391 0
M  V30 9083 C 811.136 0.429092 3.57534 0
M  V30 9084 C 810.989 1.88507 4.08393 0
M  V30 9085 C 812.308 -0.178442 4.39738 0
M  V30 9086 H 809.427 0.113373 0.728228 0
M  V30 9087 H 812.069 0.951389 1.64465 0
M  V30 9088 H 810.219 -0.118695 3.88319 0
M  V30 9089 H 811.891 2.49104 3.88259 0
M  V30 9090 H 810.134 2.40066 3.61318 0
M  V30 9091 H 810.805 1.92099 5.17496 0
M  V30 9092 H 813.281 0.28872 4.15097 0
M  V30 9093 H 812.157 -0.0634349 5.48863 0
M  V30 9094 H 812.418 -1.26655 4.23569 0
M  V30 9095 N 811.477 -1.49425 0.500989 0
M  V30 9096 C 812.724 -2.02453 -0.0435355 0
M  V30 9097 C 813.052 -1.38067 -1.36995 0
M  V30 9098 O 812.307 -0.505557 -1.89057 0
M  V30 9099 C 812.606 -3.56562 -0.24463 0
M  V30 9100 C 812.272 -4.39585 1.00379 0
M  V30 9101 C 810.934 -4.61992 1.346 0
M  V30 9102 C 813.286 -4.87881 1.83361 0
M  V30 9103 C 810.614 -5.2994 2.51755 0
M  V30 9104 C 812.966 -5.57119 2.99669 0
M  V30 9105 C 811.63 -5.77771 3.3427 0
M  V30 9106 H 810.9 -0.740829 -0.0159308 0
M  V30 9107 H 813.547 -1.79725 0.661143 0
M  V30 9108 H 811.852 -3.77969 -1.03183 0
M  V30 9109 H 813.549 -3.95185 -0.6804 0
M  V30 9110 H 810.139 -4.22385 0.727225 0
M  V30 9111 H 814.323 -4.70398 1.58237 0
M  V30 9112 H 809.579 -5.44133 2.788 0
M  V30 9113 H 813.753 -5.93516 3.64296 0
M  V30 9114 H 811.38 -6.30197 4.25154 0
M  V30 9115 N 812.955 -0.234822 -1.55841 0
M  V30 9116 C 813.887 0.702346 -2.18174 0
M  V30 9117 C 814.9 1.14776 -1.15457 0
M  V30 9118 O 816.089 1.07662 -1.42377 0
M  V30 9119 C 813.189 1.96483 -2.76129 0
M  V30 9120 C 812.362 1.67283 -4.04148 0
M  V30 9121 C 811.421 2.7837 -4.46539 0
M  V30 9122 O 810.447 2.46272 -5.13166 0
M  V30 9123 N 811.649 4.07611 -4.1332 0
M  V30 9124 H 814.414 0.169074 -2.99223 0
M  V30 9125 H 811.975 -0.0543164 -1.61809 0
M  V30 9126 H 813.967 2.70016 -3.01452 0
M  V30 9127 H 812.537 2.40822 -1.99307 0
M  V30 9128 H 811.757 0.773278 -3.86541 0
M  V30 9129 H 813.045 1.45222 -4.87635 0
M  V30 9130 H 812.443 4.36527 -3.59806 0
M  V30 9131 H 811 4.77646 -4.43506 0
M  V30 9132 N 814.433 1.57553 0.0384317 0
M  V30 9133 C 815.363 2.0898 1.04161 0
M  V30 9134 C 816.344 0.99029 1.38301 0
M  V30 9135 O 817.529 1.26499 1.47349 0
M  V30 9136 C 814.659 2.56145 2.34536 0
M  V30 9137 C 813.613 3.70275 2.14663 0
M  V30 9138 C 812.939 4.03612 3.50715 0
M  V30 9139 C 814.239 4.99067 1.54045 0
M  V30 9140 H 815.933 2.93046 0.613548 0
M  V30 9141 H 813.479 1.40973 0.293684 0
M  V30 9142 H 815.432 2.90741 3.05037 0
M  V30 9143 H 814.156 1.6915 2.79385 0
M  V30 9144 H 812.815 3.36013 1.46597 0
M  V30 9145 H 812.463 3.13698 3.93195 0
M  V30 9146 H 812.163 4.80482 3.38247 0
M  V30 9147 H 813.687 4.40735 4.22593 0
M  V30 9148 H 815.101 5.3168 2.14451 0
M  V30 9149 H 813.498 5.80484 1.52178 0
M  V30 9150 H 814.568 4.8226 0.505259 0
M  V30 9151 N 815.911 -0.310526 1.54511 0
M  V30 9152 C 817.139 -1.06611 1.77318 0
M  V30 9153 C 817.554 -1.81265 0.528043 0
M  V30 9154 O 816.911 -1.75466 -0.50178 0
M  V30 9155 C 816.962 -2.05409 2.97472 0
M  V30 9156 O 816.683 -1.33785 4.17173 0
M  V30 9157 C 818.184 -2.93082 3.32593 0
M  V30 9158 H 815.404 -0.316578 0.591624 0
M  V30 9159 H 817.948 -0.352691 2.01436 0
M  V30 9160 H 816.103 -2.72266 2.7559 0
M  V30 9161 H 816.517 -2.00055 4.84849 0
M  V30 9162 H 817.991 -3.58274 4.19933 0
M  V30 9163 H 818.468 -3.60877 2.50329 0
M  V30 9164 H 819.074 -2.31768 3.566 0
M  V30 9165 N 817.389 -1.46805 -0.573248 0
M  V30 9166 C 818.8 -1.46655 -1.15539 0
M  V30 9167 C 819.151 -0.2125 -1.95046 0
M  V30 9168 O 818.276 0.683759 -2.05314 0
M  V30 9169 C 818.871 -2.65711 -2.10198 0
M  V30 9170 C 817.43 -2.68572 -2.63716 0
M  V30 9171 C 816.577 -2.39498 -1.39772 0
M  V30 9172 H 819.528 -1.54547 -0.36068 0
M  V30 9173 H 819.549 -2.41768 -2.93817 0
M  V30 9174 H 819.061 -3.56967 -1.52303 0
M  V30 9175 H 817.162 -1.81414 -3.25453 0
M  V30 9176 H 817.275 -3.68809 -3.05805 0
M  V30 9177 H 815.639 -1.89749 -1.69904 0
M  V30 9178 H 816.422 -3.32942 -0.836943 0
M  V30 9179 N 818.867 0.818669 -1.34668 0
M  V30 9180 C 820.113 1.57746 -1.27453 0
M  V30 9181 C 820.446 1.93588 0.154077 0
M  V30 9182 O 819.721 1.60371 1.10051 0
M  V30 9183 C 820.004 2.87414 -2.16945 0
M  V30 9184 C 819.857 2.58125 -3.68363 0
M  V30 9185 C 821.176 3.89021 -2.05792 0
M  V30 9186 H 818.295 0.572339 -0.464324 0
M  V30 9187 H 820.937 0.942784 -1.64959 0
M  V30 9188 H 819.087 3.41576 -1.85089 0
M  V30 9189 H 820.759 2.10239 -4.10606 0
M  V30 9190 H 819.002 1.91503 -3.89242 0
M  V30 9191 H 819.673 3.5061 -4.26353 0
M  V30 9192 H 822.149 3.44224 -2.33771 0
M  V30 9193 H 821.025 4.77548 -2.70628 0
M  V30 9194 H 821.286 4.29786 -1.03618 0
M  V30 9195 N 820.346 1.18468 1.03938 0
M  V30 9196 C 821.276 0.936389 2.13902 0
M  V30 9197 C 822.257 -0.126381 1.6963 0
M  V30 9198 O 823.442 0.0264757 1.94182 0
M  V30 9199 C 820.572 0.462729 3.44204 0
M  V30 9200 C 819.526 1.46613 4.02105 0
M  V30 9201 C 818.852 0.84994 5.27902 0
M  V30 9202 C 820.152 2.84323 4.3813 0
M  V30 9203 H 821.846 1.85602 2.3493 0
M  V30 9204 H 819.392 0.893806 1.12903 0
M  V30 9205 H 821.345 0.276382 4.20493 0
M  V30 9206 H 820.069 -0.492477 3.22866 0
M  V30 9207 H 818.728 1.63944 3.27899 0
M  V30 9208 H 818.376 -0.112493 5.02874 0
M  V30 9209 H 818.076 1.51988 5.67603 0
M  V30 9210 H 819.6 0.674152 6.06867 0
M  V30 9211 H 821.014 2.70636 5.054 0
M  V30 9212 H 819.411 3.48012 4.88884 0
M  V30 9213 H 820.481 3.37776 3.47901 0
M  V30 9214 N 821.824 -1.22873 0.986916 0
M  V30 9215 C 823.07 -1.91746 0.660401 0
M  V30 9216 C 823.403 -1.76738 -0.804812 0
M  V30 9217 O 822.678 -1.13246 -1.58131 0
M  V30 9218 C 822.961 -3.44156 1.05966 0
M  V30 9219 C 822.814 -3.68242 2.58298 0
M  V30 9220 C 824.133 -4.35874 0.60842 0
M  V30 9221 H 821.252 -0.696347 0.241391 0
M  V30 9222 H 823.894 -1.44867 1.22937 0
M  V30 9223 H 822.044 -3.84213 0.575534 0
M  V30 9224 H 823.716 -3.37626 3.14335 0
M  V30 9225 H 821.959 -3.12728 3.00638 0
M  V30 9226 H 822.63 -4.74956 2.81285 0
M  V30 9227 H 825.106 -4.03299 1.02417 0
M  V30 9228 H 823.982 -5.41201 0.916142 0
M  V30 9229 H 824.243 -4.39364 -0.491086 0
M  V30 9230 N 823.302 -0.75937 -1.38099 0
M  V30 9231 C 824.527 -0.327859 -2.04792 0
M  V30 9232 C 824.952 1.03752 -1.56899 0
M  V30 9233 O 824.31 1.66235 -0.723581 0
M  V30 9234 C 824.358 -0.366264 -3.58735 0
M  V30 9235 O 823.462 0.637697 -4.0744 0
M  V30 9236 H 822.803 -0.144092 -0.648177 0
M  V30 9237 H 825.333 -1.03211 -1.7666 0
M  V30 9238 H 825.343 -0.219179 -4.07411 0
M  V30 9239 H 824.018 -1.36243 -3.92951 0
M  V30 9240 H 822.595 0.454749 -3.70117 0
M  V30 9241 N 824.78 1.49157 -0.508906 0
M  V30 9242 C 826.026 2.02773 0.0328469 0
M  V30 9243 C 826.359 1.38714 1.35912 0
M  V30 9244 O 825.634 0.525536 1.87266 0
M  V30 9245 C 825.917 3.59664 0.177088 0
M  V30 9246 C 825.77 4.34239 -1.17287 0
M  V30 9247 C 827.089 4.30505 0.913977 0
M  V30 9248 H 824.208 0.736926 0.0104631 0
M  V30 9249 H 826.85 1.781 -0.661851 0
M  V30 9250 H 825 3.80818 0.768774 0
M  V30 9251 H 826.672 4.24561 -1.80404 0
M  V30 9252 H 824.915 3.96486 -1.76016 0
M  V30 9253 H 825.586 5.42397 -1.02516 0
M  V30 9254 H 828.062 4.14054 0.412084 0
M  V30 9255 H 826.938 5.40012 0.983759 0
M  V30 9256 H 827.199 3.96302 1.95951 0
M  V30 9257 N 826.258 0.243083 1.55714 0
M  V30 9258 C 827.504 -0.383287 1.99145 0
M  V30 9259 C 827.837 -1.57868 1.13098 0
M  V30 9260 O 827.112 -1.93535 0.193509 0
M  V30 9261 C 827.395 -0.796879 3.51172 0
M  V30 9262 C 827.248 0.403642 4.47985 0
M  V30 9263 C 828.567 -1.64525 4.08191 0
M  V30 9264 H 825.686 -0.137843 0.723995 0
M  V30 9265 H 828.328 0.343631 1.86867 0
M  V30 9266 H 826.478 -1.41625 3.61766 0
M  V30 9267 H 828.15 1.04204 4.49376 0
M  V30 9268 H 826.393 1.04741 4.20965 0
M  V30 9269 H 827.064 0.0709794 5.51954 0
M  V30 9270 H 829.54 -1.12246 4.00674 0
M  V30 9271 H 828.416 -1.9035 5.14838 0
M  V30 9272 H 828.677 -2.61582 3.56409 0
M  V30 9273 N 827.736 -1.57571 -0.0300757 0
M  V30 9274 C 828.964 -1.93485 -0.732891 0
M  V30 9275 C 829.379 -0.842758 -1.68947 0
M  V30 9276 O 828.736 0.180904 -1.81601 0
M  V30 9277 C 828.787 -3.29328 -1.49082 0
M  V30 9278 O 828.508 -4.34341 -0.572639 0
M  V30 9279 C 830.009 -3.79517 -2.29088 0
M  V30 9280 H 827.229 -0.638588 -0.206026 0
M  V30 9281 H 829.773 -2.04496 0.0120966 0
M  V30 9282 H 827.928 -3.19716 -2.1877 0
M  V30 9283 H 828.342 -5.12748 -1.10406 0
M  V30 9284 H 829.816 -4.77081 -2.77665 0
M  V30 9285 H 830.293 -3.10659 -3.10464 0
M  V30 9286 H 830.899 -3.92208 -1.64477 0
M  V30 9287 N 829.214 0.302327 -1.54673 0
M  V30 9288 C 830.461 1.0377 -1.73891 0
M  V30 9289 C 830.789 1.87309 -0.523979 0
M  V30 9290 O 830.044 1.8936 0.494084 0
M  V30 9291 C 830.343 1.97365 -2.97963 0
M  V30 9292 C 830.009 1.29812 -4.3181 0
M  V30 9293 C 828.671 1.11121 -4.68194 0
M  V30 9294 C 831.023 0.815073 -5.14787 0
M  V30 9295 C 828.351 0.428077 -5.85136 0
M  V30 9296 C 830.703 0.145665 -6.32432 0
M  V30 9297 C 829.367 -0.0532098 -6.67479 0
M  V30 9298 H 828.637 0.379721 -0.636312 0
M  V30 9299 H 831.284 0.312708 -1.8893 0
M  V30 9300 H 829.589 2.76387 -2.777 0
M  V30 9301 H 831.286 2.54331 -3.10027 0
M  V30 9302 H 827.876 1.45366 -4.03196 0
M  V30 9303 H 832.06 0.947191 -4.87178 0
M  V30 9304 H 827.316 0.262995 -6.10834 0
M  V30 9305 H 831.49 -0.236533 -6.95998 0
M  V30 9306 H 829.117 -0.58456 -7.57949 0
M  V30 9307 N 830.692 1.47107 0.565454 0
M  V30 9308 C 831.917 1.57153 1.35343 0
M  V30 9309 C 832.342 0.219247 1.86818 0
M  V30 9310 O 831.7 -0.803539 1.62521 0
M  V30 9311 C 831.748 2.59387 2.50501 0
M  V30 9312 O 830.852 2.14086 3.52478 0
M  V30 9313 H 830.193 0.528209 0.402357 0
M  V30 9314 H 832.723 1.92821 0.684189 0
M  V30 9315 H 832.733 2.79546 2.97184 0
M  V30 9316 H 831.408 3.57579 2.12391 0
M  V30 9317 H 829.985 2.03991 3.12157 0
M  V30 9318 N 832.17 -0.811516 1.35101 0
M  V30 9319 C 833.416 -1.57068 1.28287 0
M  V30 9320 C 833.749 -1.93667 -0.143808 0
M  V30 9321 O 833.024 -1.60953 -1.09199 0
M  V30 9322 C 833.307 -2.86259 2.18466 0
M  V30 9323 C 833.16 -2.56168 3.69727 0
M  V30 9324 C 834.479 -3.87924 2.07852 0
M  V30 9325 H 831.598 -0.569869 0.467353 0
M  V30 9326 H 834.24 -0.934023 1.65457 0
M  V30 9327 H 832.39 -3.4059 1.86898 0
M  V30 9328 H 834.062 -2.08059 4.11715 0
M  V30 9329 H 832.305 -1.89436 3.90252 0
M  V30 9330 H 832.976 -3.48344 4.28206 0
M  V30 9331 H 835.452 -3.4298 2.35593 0
M  V30 9332 H 834.328 -4.76106 2.73157 0
M  V30 9333 H 834.589 -4.2923 1.05896 0
M  V30 9334 N 833.648 -1.19017 -1.03309 0
M  V30 9335 C 834.878 -1.01387 -1.80012 0
M  V30 9336 C 835.286 0.440655 -1.83997 0
M  V30 9337 O 834.629 1.31786 -1.27977 0
M  V30 9338 C 834.691 -1.50171 -3.26633 0
M  V30 9339 C 834.355 -2.98213 -3.46292 0
M  V30 9340 C 835.352 -3.96009 -3.36857 0
M  V30 9341 C 833.037 -3.36812 -3.72643 0
M  V30 9342 C 835.031 -5.30399 -3.5349 0
M  V30 9343 C 832.718 -4.71363 -3.88922 0
M  V30 9344 C 833.716 -5.67966 -3.79347 0
M  V30 9345 O 833.404 -7.00079 -3.95151 0
M  V30 9346 H 833.136 -0.357899 -0.573484 0
M  V30 9347 H 835.69 -1.58171 -1.31039 0
M  V30 9348 H 833.92 -0.877586 -3.7661 0
M  V30 9349 H 835.609 -1.28814 -3.84918 0
M  V30 9350 H 836.375 -3.67534 -3.16455 0
M  V30 9351 H 832.254 -2.62175 -3.7919 0
M  V30 9352 H 835.798 -6.05786 -3.45933 0
M  V30 9353 H 831.695 -4.99536 -4.0882 0
M  V30 9354 H 832.463 -7.07092 -4.12266 0
M  V30 9355 N 835.127 1.22348 -0.993418 0
M  V30 9356 C 836.373 1.91393 -0.67056 0
M  V30 9357 C 836.706 1.77163 0.795428 0
M  V30 9358 O 835.981 1.14084 1.57528 0
M  V30 9359 C 836.264 3.43589 -1.0779 0
M  V30 9360 C 836.117 3.66867 -2.60248 0
M  V30 9361 C 837.436 4.35545 -0.631527 0
M  V30 9362 H 834.555 0.695057 -0.24508 0
M  V30 9363 H 837.197 1.44213 -1.23703 0
M  V30 9364 H 835.347 3.83903 -0.595902 0
M  V30 9365 H 837.019 3.35954 -3.16121 0
M  V30 9366 H 835.262 3.1113 -3.02293 0
M  V30 9367 H 835.933 4.73457 -2.838 0
M  V30 9368 H 838.409 4.0275 -1.04554 0
M  V30 9369 H 837.285 5.40707 -0.944831 0
M  V30 9370 H 837.546 4.39618 0.467779 0
M  V30 9371 N 836.605 0.766683 1.37694 0
M  V30 9372 C 837.535 0.163432 2.32927 0
M  V30 9373 C 838.516 -0.688861 1.55527 0
M  V30 9374 O 839.701 -0.627363 1.83787 0
M  V30 9375 C 836.831 -0.720416 3.39746 0
M  V30 9376 C 835.785 0.0301718 4.27989 0
M  V30 9377 C 835.111 -0.972788 5.25776 0
M  V30 9378 C 836.411 1.20623 5.0818 0
M  V30 9379 H 838.105 0.958988 2.83626 0
M  V30 9380 H 835.651 0.462601 1.36367 0
M  V30 9381 H 837.604 -1.15221 4.05342 0
M  V30 9382 H 836.328 -1.54844 2.8756 0
M  V30 9383 H 834.987 0.442685 3.63917 0
M  V30 9384 H 834.635 -1.79522 4.69873 0
M  V30 9385 H 834.335 -0.475145 5.85676 0
M  V30 9386 H 835.859 -1.40362 5.94248 0
M  V30 9387 H 837.273 0.851341 5.66944 0
M  V30 9388 H 835.67 1.63561 5.7738 0
M  V30 9389 H 836.74 2.01281 4.41151 0
M  V30 9390 N 838.083 -1.48885 0.516809 0
M  V30 9391 C 839.329 -2.02788 -0.0220928 0
M  V30 9392 C 839.662 -1.39433 -1.35175 0
M  V30 9393 O 838.937 -0.535459 -1.86984 0
M  V30 9394 C 839.22 -3.59753 -0.158012 0
M  V30 9395 C 839.073 -4.33611 1.19588 0
M  V30 9396 C 840.392 -4.30984 -0.891133 0
M  V30 9397 H 837.511 -0.736971 -0.00655488 0
M  V30 9398 H 840.153 -1.77746 0.671287 0
M  V30 9399 H 838.303 -3.8122 -0.748568 0
M  V30 9400 H 839.975 -4.23598 1.82653 0
M  V30 9401 H 838.218 -3.95547 1.78116 0
M  V30 9402 H 838.889 -5.41846 1.05391 0
M  V30 9403 H 841.365 -4.14267 -0.39012 0
M  V30 9404 H 840.241 -5.40527 -0.955107 0
M  V30 9405 H 840.502 -3.97336 -1.93847 0
M  V30 9406 N 839.561 -0.251338 -1.55583 0
M  V30 9407 C 840.838 0.422729 -1.90977 0
M  V30 9408 C 841.218 1.75534 -1.17265 0
M  V30 9409 O 840.566 2.26632 -0.291588 0
M  V30 9410 C 840.776 0.586448 -3.44037 0
M  V30 9411 C 842.124 0.880294 -4.15375 0
M  V30 9412 O 843.148 0.672148 -3.49801 0
M  V30 9413 O 842.007 1.27694 -5.31372 0
M  V30 9414 H 839.101 0.227622 -0.795058 0
M  V30 9415 H 841.647 -0.295733 -1.67103 0
M  V30 9416 H 840.419 -0.352327 -3.89711 0
M  V30 9417 H 840.042 1.35528 -3.73789 0
M  V30 9418 N 841.039 1.57585 0.0217189 0
M  V30 9419 C 842.264 1.94267 0.726309 0
M  V30 9420 C 842.689 0.851904 1.67703 0
M  V30 9421 O 842.047 -0.191792 1.80283 0
M  V30 9422 C 842.095 3.30023 1.45318 0
M  V30 9423 O 841.199 3.22791 2.5667 0
M  V30 9424 H 840.54 0.634777 0.194818 0
M  V30 9425 H 843.07 2.04585 -0.0249985 0
M  V30 9426 H 843.08 3.65084 1.82147 0
M  V30 9427 H 841.755 4.08972 0.755962 0
M  V30 9428 H 840.332 2.99373 2.2233 0
M  V30 9429 N 842.517 -0.29412 1.54831 0
M  V30 9430 C 843.465 -1.38296 1.87021 0
M  V30 9431 C 844.459 -1.5216 0.744557 0
M  V30 9432 O 845.665 -1.54196 0.92864 0
M  V30 9433 H 842.04 -0.462088 0.593278 0
M  V30 9434 H 844.011 -1.08386 2.7802 0
M  V30 9435 C 842.76 -2.74024 2.14023 0
M  V30 9436 H 842.083 -2.6414 3.00117 0
M  V30 9437 H 843.523 -3.49205 2.40482 0
M  V30 9438 C 841.982 -3.23492 0.940982 0
M  V30 9439 O 842.512 -4.01361 0.164937 0
M  V30 9440 N 840.718 -2.80902 0.744467 0
M  V30 9441 H 840.265 -2.17694 1.37721 0
M  V30 9442 H 840.223 -3.14349 -0.0563652 0
M  V30 9443 N 843.995 -1.47404 -0.557645 0
M  V30 9444 C 844.943 -1.60265 -1.68576 0
M  V30 9445 C 845.937 -0.469982 -1.6275 0
M  V30 9446 O 847.143 -0.647764 -1.67941 0
M  V30 9447 H 843.518 -0.504353 -0.557792 0
M  V30 9448 H 845.489 -2.55066 -1.54867 0
M  V30 9449 C 844.238 -1.63369 -3.0693 0
M  V30 9450 H 843.561 -2.49874 -3.12095 0
M  V30 9451 H 845.001 -1.76417 -3.85556 0
M  V30 9452 C 843.46 -0.366921 -3.34896 0
M  V30 9453 O 843.99 0.53218 -3.98159 0
M  V30 9454 N 842.196 -0.247082 -2.89548 0
M  V30 9455 H 841.743 -0.979669 -2.38244 0
M  V30 9456 H 841.701 0.599552 -3.0863 0
M  V30 9457 N 845.473 0.80434 -1.35529 0
M  V30 9458 C 846.722 1.55665 -1.28263 0
M  V30 9459 C 847.035 1.95096 0.140352 0
M  V30 9460 O 848.241 2.69422 0.335303 0
M  V30 9461 C 846.697 2.80935 -2.24952 0
M  V30 9462 C 846.305 2.48733 -3.72607 0
M  V30 9463 C 848.049 3.5894 -2.26632 0
M  V30 9464 C 845.956 3.70308 -4.61114 0
M  V30 9465 H 844.886 0.584301 -0.476559 0
M  V30 9466 H 847.537 0.88395 -1.60806 0
M  V30 9467 H 845.919 3.49927 -1.85383 0
M  V30 9468 H 847.093 1.87733 -4.20824 0
M  V30 9469 H 845.408 1.83969 -3.73557 0
M  V30 9470 H 848.005 4.49244 -2.89973 0
M  V30 9471 H 848.348 3.96433 -1.27069 0
M  V30 9472 H 848.881 2.96912 -2.64742 0
M  V30 9473 H 845.62 3.37922 -5.61684 0
M  V30 9474 H 845.14 4.30526 -4.17621 0
M  V30 9475 H 846.819 4.37511 -4.76648 0
M  V30 9476 N 846.951 1.19563 1.02676 0
M  V30 9477 C 847.881 0.959024 2.12897 0
M  V30 9478 C 848.862 -0.108382 1.69754 0
M  V30 9479 O 850.047 0.0470698 1.94143 0
M  V30 9480 C 847.177 0.499211 3.43693 0
M  V30 9481 C 846.131 1.5087 4.00528 0
M  V30 9482 C 845.457 0.905884 5.2697 0
M  V30 9483 C 846.757 2.88954 4.3509 0
M  V30 9484 H 848.451 1.88084 2.32948 0
M  V30 9485 H 845.997 0.905731 1.11949 0
M  V30 9486 H 847.95 0.320965 4.20176 0
M  V30 9487 H 846.674 -0.458205 3.2337 0
M  V30 9488 H 845.333 1.67413 3.26142 0
M  V30 9489 H 844.981 -0.0591506 5.02965 0
M  V30 9490 H 844.681 1.58 5.65959 0
M  V30 9491 H 846.205 0.73848 6.06118 0
M  V30 9492 H 847.619 2.75981 5.02501 0
M  V30 9493 H 846.016 3.53177 4.85166 0
M  V30 9494 H 847.086 3.41447 3.44299 0
M  V30 9495 N 848.429 -1.21819 0.999893 0
M  V30 9496 C 849.706 -1.86318 0.595384 0
M  V30 9497 C 850.086 -1.8965 -0.927143 0
M  V30 9498 O 849.434 -1.3921 -1.81199 0
M  V30 9499 C 849.644 -3.26837 1.22387 0
M  V30 9500 C 850.992 -4.03272 1.32878 0
M  V30 9501 O 852.016 -3.36129 1.1788 0
M  V30 9502 O 850.875 -5.23477 1.56952 0
M  V30 9503 H 847.969 -0.801638 0.203238 0
M  V30 9504 H 850.515 -1.29542 1.09622 0
M  V30 9505 H 849.287 -3.19084 2.26497 0
M  V30 9506 H 848.91 -3.91226 0.709069 0
M  V30 9507 N 849.908 -0.773975 -1.37286 0
M  V30 9508 C 850.871 -0.167974 -2.28584 0
M  V30 9509 C 851.871 0.625662 -1.48129 0
M  V30 9510 O 853.061 0.448924 -1.68316 0
M  V30 9511 C 850.193 0.769364 -3.32105 0
M  V30 9512 H 851.386 -0.972806 -2.83684 0
M  V30 9513 H 848.939 -0.542335 -1.46589 0
M  V30 9514 H 849.674 1.59912 -2.82132 0
M  V30 9515 H 849.459 0.202419 -3.91577 0
M  V30 9516 H 850.949 1.18872 -4.00324 0
M  V30 9517 N 851.386 1.48609 -0.524698 0
M  V30 9518 C 852.318 2.27508 0.278 0
M  V30 9519 C 853.331 1.35042 0.909258 0
M  V30 9520 O 854.52 1.60136 0.788592 0
M  V30 9521 C 851.62 3.08247 1.40843 0
M  V30 9522 C 850.793 4.28455 0.880083 0
M  V30 9523 C 849.852 4.91048 1.891 0
M  V30 9524 O 848.878 5.5042 1.45005 0
M  V30 9525 N 850.08 4.82816 3.22288 0
M  V30 9526 H 852.845 2.97037 -0.398642 0
M  V30 9527 H 850.406 1.57876 -0.358698 0
M  V30 9528 H 852.398 3.46992 2.08276 0
M  V30 9529 H 850.968 2.41173 1.98883 0
M  V30 9530 H 850.188 3.94189 0.0299228 0
M  V30 9531 H 851.476 5.06279 0.505881 0
M  V30 9532 H 850.874 4.3572 3.60783 0
M  V30 9533 H 849.431 5.25676 3.85368 0
M  V30 9534 N 852.864 0.259585 1.55447 0
M  V30 9535 C 853.811 -0.634578 2.21905 0
M  V30 9536 C 854.781 -1.16168 1.18719 0
M  V30 9537 O 855.966 -1.21383 1.4721 0
M  V30 9538 C 853.106 -1.82005 2.93203 0
M  V30 9539 C 852.219 -1.32828 4.11073 0
M  V30 9540 C 851.354 -2.47431 4.70055 0
M  V30 9541 C 850.393 -1.95179 5.80148 0
M  V30 9542 N 849.53 -3.03197 6.33258 0
M  V30 9543 H 854.37 -0.0611886 2.97937 0
M  V30 9544 H 851.907 -0.0184378 1.47088 0
M  V30 9545 H 853.865 -2.51664 3.32748 0
M  V30 9546 H 852.495 -2.36571 2.19622 0
M  V30 9547 H 851.547 -0.525301 3.76756 0
M  V30 9548 H 852.859 -0.905435 4.90513 0
M  V30 9549 H 852.013 -3.25111 5.12238 0
M  V30 9550 H 850.752 -2.93023 3.89857 0
M  V30 9551 H 849.757 -1.15974 5.37429 0
M  V30 9552 H 850.982 -1.50541 6.62204 0
M  V30 9553 H 848.928 -3.48199 5.55961 0
M  V30 9554 H 848.845 -2.65282 7.07928 0
M  V30 9555 H 850.113 -3.80898 6.80101 0
M  V30 9556 N 854.342 -1.57594 -0.0133615 0
M  V30 9557 C 855.305 -2.06534 -0.993799 0
M  V30 9558 C 856.305 -0.972267 -1.28077 0
M  V30 9559 O 857.495 -1.23537 -1.22818 0
M  V30 9560 C 854.627 -2.49554 -2.3224 0
M  V30 9561 H 855.82 -2.94419 -0.570741 0
M  V30 9562 H 853.373 -1.54113 -0.260546 0
M  V30 9563 H 854.108 -1.64872 -2.79263 0
M  V30 9564 H 853.893 -3.29371 -2.12737 0
M  V30 9565 H 855.383 -2.8779 -3.026 0
M  V30 9566 N 855.82 0.285905 -1.54985 0
M  V30 9567 C 857.067 1.0192 -1.74982 0
M  V30 9568 C 857.395 1.86743 -0.543816 0
M  V30 9569 O 856.65 1.89874 0.473972 0
M  V30 9570 C 856.949 1.94193 -3.0004 0
M  V30 9571 C 856.615 1.25225 -4.33162 0
M  V30 9572 C 855.277 1.06149 -4.69346 0
M  V30 9573 C 857.629 0.760427 -5.15623 0
M  V30 9574 C 854.957 0.365991 -5.85557 0
M  V30 9575 C 857.309 0.0785787 -6.32551 0
M  V30 9576 C 855.973 -0.124002 -6.67385 0
M  V30 9577 H 855.243 0.372951 -0.640304 0
M  V30 9578 H 857.89 0.292652 -1.89251 0
M  V30 9579 H 856.195 2.73426 -2.80616 0
M  V30 9580 H 857.892 2.51029 -3.12707 0
M  V30 9581 H 854.482 1.41081 -4.04715 0
M  V30 9582 H 858.666 0.895466 -4.88155 0
M  V30 9583 H 853.922 0.198193 -6.11079 0
M  V30 9584 H 858.096 -0.310339 -6.95708 0
M  V30 9585 H 855.723 -0.664918 -7.57287 0
M  V30 9586 N 857.298 1.47698 0.54982 0
M  V30 9587 C 858.526 1.5833 1.33188 0
M  V30 9588 C 858.941 0.236193 1.87317 0
M  V30 9589 O 858.298 -0.77167 1.65383 0
M  V30 9590 C 858.349 2.61438 2.49664 0
M  V30 9591 O 858.07 3.9092 1.97771 0
M  V30 9592 C 859.571 2.82324 3.41772 0
M  V30 9593 H 856.791 0.53443 0.405741 0
M  V30 9594 H 859.335 1.93375 0.665309 0
M  V30 9595 H 857.49 2.29307 3.12245 0
M  V30 9596 H 857.904 4.47323 2.73866 0
M  V30 9597 H 859.378 3.58316 4.19897 0
M  V30 9598 H 859.855 1.90416 3.95776 0
M  V30 9599 H 860.461 3.15682 2.85 0
M  V30 9600 N 858.776 -0.797141 1.35954 0
M  V30 9601 C 860.001 -1.59097 1.33053 0
M  V30 9602 C 860.426 -1.87897 -0.0874592 0
M  V30 9603 O 859.784 -1.47291 -1.05712 0
M  V30 9604 C 859.832 -2.89346 2.152 0
M  V30 9605 O 858.936 -3.826 1.5392 0
M  V30 9606 H 858.277 -0.482895 0.45575 0
M  V30 9607 H 860.807 -0.988633 1.79129 0
M  V30 9608 H 860.817 -3.38686 2.27499 0
M  V30 9609 H 859.492 -2.6771 3.18283 0
M  V30 9610 H 858.069 -3.41174 1.50516 0
M  V30 9611 N 860.254 -1.20106 -1.0204 0
M  V30 9612 C 861.503 -1.00316 -1.74985 0
M  V30 9613 C 861.816 0.465814 -1.89972 0
M  V30 9614 O 863.022 0.782749 -2.59972 0
M  V30 9615 C 861.478 -1.74608 -3.14706 0
M  V30 9616 C 861.086 -3.25573 -3.07744 0
M  V30 9617 C 862.83 -1.63172 -3.91887 0
M  V30 9618 C 860.737 -3.92419 -4.42449 0
M  V30 9619 H 859.667 -0.371728 -0.655999 0
M  V30 9620 H 862.318 -1.43688 -1.14131 0
M  V30 9621 H 860.7 -1.24021 -3.76078 0
M  V30 9622 H 861.874 -3.83345 -2.55702 0
M  V30 9623 H 860.189 -3.3738 -2.44057 0
M  V30 9624 H 862.786 -2.10457 -4.9154 0
M  V30 9625 H 863.129 -0.58728 -4.12137 0
M  V30 9626 H 863.662 -2.11152 -3.37135 0
M  V30 9627 H 860.401 -4.96998 -4.27403 0
M  V30 9628 H 859.921 -3.39436 -4.94513 0
M  V30 9629 H 861.6 -3.96453 -5.11306 0
M  V30 9630 N 861.732 1.21287 -1.00634 0
M  V30 9631 C 862.96 1.94385 -0.708678 0
M  V30 9632 C 863.375 1.7416 0.728957 0
M  V30 9633 O 862.732 1.04906 1.49335 0
M  V30 9634 C 862.783 3.46755 -1.02193 0
M  V30 9635 O 862.504 3.6631 -2.40309 0
M  V30 9636 C 864.005 4.37014 -0.743867 0
M  V30 9637 H 861.225 0.618136 -0.261052 0
M  V30 9638 H 863.769 1.54067 -1.34475 0
M  V30 9639 H 861.924 3.8499 -0.431441 0
M  V30 9640 H 862.338 4.60393 -2.51274 0
M  V30 9641 H 863.812 5.42621 -1.01321 0
M  V30 9642 H 864.289 4.38017 0.322084 0
M  V30 9643 H 864.895 4.04426 -1.31603 0
M  V30 9644 N 863.21 0.781244 1.36873 0
M  V30 9645 C 864.14 0.188128 2.32741 0
M  V30 9646 C 865.121 -0.672326 1.56249 0
M  V30 9647 O 866.306 -0.607835 1.84442 0
M  V30 9648 C 863.436 -0.684341 3.40491 0
M  V30 9649 C 862.39 0.0755641 4.27933 0
M  V30 9650 C 861.716 -0.916968 5.26779 0
M  V30 9651 C 863.016 1.26006 5.06873 0
M  V30 9652 H 864.71 0.989016 2.82593 0
M  V30 9653 H 862.256 0.477038 1.35869 0
M  V30 9654 H 864.209 -1.10915 4.06541 0
M  V30 9655 H 862.933 -1.51785 2.89187 0
M  V30 9656 H 861.592 0.481258 3.63427 0
M  V30 9657 H 861.24 -1.74528 4.71751 0
M  V30 9658 H 860.94 -0.413 5.86147 0
M  V30 9659 H 862.464 -1.34052 5.95703 0
M  V30 9660 H 863.878 0.911425 5.66009 0
M  V30 9661 H 862.275 1.69676 5.75613 0
M  V30 9662 H 863.345 2.05948 4.38991 0
M  V30 9663 N 864.689 -1.48329 0.532571 0
M  V30 9664 C 865.936 -2.025 -0.000582356 0
M  V30 9665 C 866.264 -1.40942 -1.34036 0
M  V30 9666 O 865.519 -0.545545 -1.87942 0
M  V30 9667 C 865.818 -3.57 -0.168943 0
M  V30 9668 C 865.484 -4.37357 1.0968 0
M  V30 9669 C 864.146 -4.59033 1.44369 0
M  V30 9670 C 866.498 -4.83882 1.93669 0
M  V30 9671 C 863.826 -5.24481 2.62939 0
M  V30 9672 C 866.178 -5.50637 3.11419 0
M  V30 9673 C 864.842 -5.70551 3.46451 0
M  V30 9674 H 864.112 -0.741 -0.000213099 0
M  V30 9675 H 866.759 -1.78282 0.699117 0
M  V30 9676 H 865.064 -3.80072 -0.951429 0
M  V30 9677 H 866.761 -3.9654 -0.596422 0
M  V30 9678 H 863.351 -4.20748 0.816655 0
M  V30 9679 H 867.535 -4.66936 1.6818 0
M  V30 9680 H 862.791 -5.38096 2.9028 0
M  V30 9681 H 866.965 -5.85655 3.76803 0
M  V30 9682 H 864.592 -6.21037 4.38425 0
M  V30 9683 N 866.167 -0.267825 -1.55308 0
M  V30 9684 C 867.115 0.638848 -2.23655 0
M  V30 9685 C 868.109 1.16363 -1.2311 0
M  V30 9686 O 869.315 1.1181 -1.41062 0
M  V30 9687 H 865.69 0.224551 -0.717691 0
M  V30 9688 H 867.661 0.0394809 -2.98374 0
M  V30 9689 C 866.41 1.8151 -2.96562 0
M  V30 9690 H 865.733 1.42048 -3.73715 0
M  V30 9691 H 867.173 2.42629 -3.47717 0
M  V30 9692 C 865.632 2.69911 -2.01618 0
M  V30 9693 O 866.162 3.70058 -1.56268 0
M  V30 9694 N 864.368 2.36924 -1.68272 0
M  V30 9695 H 863.915 1.55533 -2.05347 0
M  V30 9696 H 863.873 2.96343 -1.05016 0
M  V30 9697 N 867.645 1.57599 0.00500368 0
M  V30 9698 C 868.894 1.89528 0.690061 0
M  V30 9699 C 869.207 0.869451 1.75214 0
M  V30 9700 O 870.413 1.07879 2.49147 0
M  V30 9701 C 868.869 3.36425 1.27852 0
M  V30 9702 C 868.477 4.47293 0.251531 0
M  V30 9703 C 870.221 3.77471 1.94206 0
M  V30 9704 C 868.128 5.85264 0.8497 0
M  V30 9705 H 867.058 0.707201 0.2615 0
M  V30 9706 H 869.709 1.83418 -0.0547209 0
M  V30 9707 H 868.091 3.37356 2.07381 0
M  V30 9708 H 869.265 4.5787 -0.518796 0
M  V30 9709 H 867.58 4.15235 -0.311281 0
M  V30 9710 H 870.177 4.77884 2.39855 0
M  V30 9711 H 870.52 3.10722 2.77051 0
M  V30 9712 H 871.053 3.78817 1.21419 0
M  V30 9713 H 867.792 6.55472 0.0601408 0
M  V30 9714 H 867.312 5.78361 1.5893 0
M  V30 9715 H 868.991 6.32762 1.34984 0
M  V30 9716 N 869.123 -0.277682 1.55134 0
M  V30 9717 C 870.053 -1.34742 1.90701 0
M  V30 9718 C 871.034 -1.51757 0.768354 0
M  V30 9719 O 872.219 -1.64879 1.02609 0
M  V30 9720 C 869.349 -2.70775 2.17481 0
M  V30 9721 C 868.303 -2.68497 3.33307 0
M  V30 9722 C 867.629 -4.08037 3.45557 0
M  V30 9723 C 868.929 -2.28178 4.69821 0
M  V30 9724 H 870.623 -1.05224 2.803 0
M  V30 9725 H 868.169 -0.504738 1.34864 0
M  V30 9726 H 870.122 -3.45719 2.40949 0
M  V30 9727 H 868.846 -3.01867 1.24676 0
M  V30 9728 H 867.505 -1.9601 3.09799 0
M  V30 9729 H 867.153 -4.36344 2.50226 0
M  V30 9730 H 866.853 -4.07409 4.23429 0
M  V30 9731 H 868.377 -4.84726 3.71312 0
M  V30 9732 H 869.791 -2.92843 4.92865 0
M  V30 9733 H 868.188 -2.3872 5.50575 0
M  V30 9734 H 869.258 -1.23308 4.6896 0
M  V30 9735 N 870.601 -1.47988 -0.541979 0
M  V30 9736 C 872.017 -1.33843 -0.869383 0
M  V30 9737 C 872.217 -0.340374 -1.98604 0
M  V30 9738 O 871.273 0.242696 -2.51331 0
M  V30 9739 C 872.586 -2.73568 -1.24823 0
M  V30 9740 C 874.134 -2.81967 -1.3588 0
M  V30 9741 C 874.609 -4.22368 -1.77114 0
M  V30 9742 N 876.1 -4.24983 -1.84237 0
M  V30 9743 C 876.835 -5.30547 -2.17503 0
M  V30 9744 N 876.331 -6.46401 -2.49275 0
M  V30 9745 N 878.124 -5.17933 -2.18406 0
M  V30 9746 H 870.275 -2.11503 0.195001 0
M  V30 9747 H 872.538 -0.947681 0.0245862 0
M  V30 9748 H 872.244 -3.48107 -0.501435 0
M  V30 9749 H 872.118 -3.06322 -2.20106 0
M  V30 9750 H 874.505 -2.07692 -2.09638 0
M  V30 9751 H 874.586 -2.52848 -0.387478 0
M  V30 9752 H 874.23 -4.97155 -1.0392 0
M  V30 9753 H 874.16 -4.48922 -2.75275 0
M  V30 9754 H 876.651 -3.41411 -1.62009 0
M  V30 9755 H 876.964 -7.22698 -2.73729 0
M  V30 9756 H 875.309 -6.49696 -2.46821 0
M  V30 9757 H 878.5 -4.26445 -1.93034 0
M  V30 9758 H 878.673 -6.00307 -2.44 0
M  V30 9759 N 872.079 0.78992 -1.36375 0
M  V30 9760 C 873.326 1.54777 -1.30576 0
M  V30 9761 C 873.654 1.94159 0.115095 0
M  V30 9762 O 872.909 1.62918 1.08426 0
M  V30 9763 C 873.208 2.83698 -2.17371 0
M  V30 9764 C 872.874 2.63457 -3.65925 0
M  V30 9765 C 871.536 2.57645 -4.06415 0
M  V30 9766 C 873.888 2.44833 -4.60115 0
M  V30 9767 C 871.216 2.31174 -5.39236 0
M  V30 9768 C 873.568 2.19889 -5.93154 0
M  V30 9769 C 872.232 2.1251 -6.32768 0
M  V30 9770 H 871.502 0.566371 -0.477813 0
M  V30 9771 H 874.149 0.91138 -1.68422 0
M  V30 9772 H 872.454 3.51802 -1.72459 0
M  V30 9773 H 874.151 3.41487 -2.10209 0
M  V30 9774 H 870.741 2.68836 -3.33804 0
M  V30 9775 H 874.925 2.48325 -4.29707 0
M  V30 9776 H 870.181 2.23942 -5.68911 0
M  V30 9777 H 874.355 2.04473 -6.65705 0
M  V30 9778 H 871.982 1.91761 -7.35616 0
M  V30 9779 N 873.557 1.20646 1.01402 0
M  V30 9780 C 874.968 1.01823 1.56489 0
M  V30 9781 C 875.319 -0.42463 1.9155 0
M  V30 9782 O 874.444 -1.30644 1.72514 0
M  V30 9783 C 875.039 1.84208 2.84347 0
M  V30 9784 C 873.598 1.69743 3.35953 0
M  V30 9785 C 872.745 1.8198 2.09233 0
M  V30 9786 H 875.696 1.348 0.837539 0
M  V30 9787 H 875.717 1.34698 3.55861 0
M  V30 9788 H 875.229 2.89215 2.58798 0
M  V30 9789 H 873.33 0.673833 3.66456 0
M  V30 9790 H 873.443 2.51173 4.07981 0
M  V30 9791 H 871.807 1.25193 2.21808 0
M  V30 9792 H 872.59 2.88477 1.86107 0
M  V30 9793 N 875.035 -1.20752 1.01276 0
M  V30 9794 C 875.965 -2.25658 0.600064 0
M  V30 9795 C 876.946 -1.65733 -0.38298 0
M  V30 9796 O 878.131 -1.92324 -0.269256 0
M  V30 9797 C 875.261 -3.47237 -0.0663197 0
M  V30 9798 C 874.215 -4.1973 0.83731 0
M  V30 9799 C 873.541 -5.34687 0.0369102 0
M  V30 9800 C 874.841 -4.76286 2.14357 0
M  V30 9801 H 876.535 -2.60432 1.477 0
M  V30 9802 H 874.081 -1.25187 0.711634 0
M  V30 9803 H 876.034 -4.19803 -0.366563 0
M  V30 9804 H 874.758 -3.11615 -0.977944 0
M  V30 9805 H 873.417 -3.49024 1.1215 0
M  V30 9806 H 873.065 -4.95309 -0.876244 0
M  V30 9807 H 872.765 -5.84119 0.63865 0
M  V30 9808 H 874.289 -6.10059 -0.256968 0
M  V30 9809 H 875.703 -5.40691 1.90595 0
M  V30 9810 H 874.1 -5.36139 2.69583 0
M  V30 9811 H 875.17 -3.9524 2.80916 0
M  V30 9812 N 876.513 -0.788492 -1.36457 0
M  V30 9813 C 877.738 -0.371224 -2.04051 0
M  V30 9814 C 878.163 1.004 -1.59064 0
M  V30 9815 O 877.521 1.64663 -0.758679 0
M  V30 9816 C 877.569 -0.442275 -3.57877 0
M  V30 9817 O 876.673 0.55113 -4.08701 0
M  V30 9818 H 876.014 -0.157808 -0.644975 0
M  V30 9819 H 878.544 -1.06935 -1.74431 0
M  V30 9820 H 878.554 -0.305548 -4.06854 0
M  V30 9821 H 877.229 -1.44547 -3.89973 0
M  V30 9822 H 875.806 0.37614 -3.70998 0
M  V30 9823 N 877.991 1.48044 -0.54043 0
M  V30 9824 C 878.924 2.26667 0.264083 0
M  V30 9825 C 879.902 1.32996 0.935456 0
M  V30 9826 O 881.086 1.62354 0.95778 0
M  V30 9827 C 878.213 3.09541 1.37485 0
M  V30 9828 C 877.259 4.18664 0.813792 0
M  V30 9829 S 878.092 5.34503 -0.326536 0
M  V30 9830 C 879.248 6.20939 0.786452 0
M  V30 9831 H 879.481 2.94554 -0.403129 0
M  V30 9832 H 877.014 1.5091 -0.326415 0
M  V30 9833 H 878.972 3.57863 2.01107 0
M  V30 9834 H 877.633 2.41048 2.01382 0
M  V30 9835 H 876.826 4.76316 1.6474 0
M  V30 9836 H 876.428 3.73136 0.254066 0
M  V30 9837 H 878.72 6.56273 1.68262 0
M  V30 9838 H 879.663 7.07667 0.247673 0
M  V30 9839 H 880.071 5.54236 1.07156 0
M  V30 9840 N 879.47 0.276058 1.55163 0
M  V30 9841 C 880.4 -0.604633 2.25536 0
M  V30 9842 C 881.381 -1.15813 1.24585 0
M  V30 9843 O 882.566 -1.1921 1.53306 0
M  V30 9844 C 879.696 -1.78836 2.97716 0
M  V30 9845 C 878.65 -1.36635 4.05604 0
M  V30 9846 C 877.976 -2.63325 4.65364 0
M  V30 9847 C 879.276 -0.515858 5.19746 0
M  V30 9848 H 880.97 -0.0177483 2.99395 0
M  V30 9849 H 878.516 -0.00709627 1.43998 0
M  V30 9850 H 880.469 -2.41036 3.45658 0
M  V30 9851 H 879.193 -2.40109 2.21394 0
M  V30 9852 H 877.852 -0.767541 3.58475 0
M  V30 9853 H 877.5 -3.22858 3.85709 0
M  V30 9854 H 877.2 -2.358 5.38212 0
M  V30 9855 H 878.724 -3.26372 5.16056 0
M  V30 9856 H 880.138 -1.04289 5.63735 0
M  V30 9857 H 878.535 -0.335449 5.99162 0
M  V30 9858 H 879.605 0.465137 4.82664 0
M  V30 9859 N 880.948 -1.576 0.00335426 0
M  V30 9860 C 882.359 -1.7875 -0.539008 0
M  V30 9861 C 882.71 -0.911097 -1.73763 0
M  V30 9862 O 881.835 -0.114476 -2.16097 0
M  V30 9863 C 882.43 -3.24177 -0.984611 0
M  V30 9864 C 880.989 -3.46412 -1.47226 0
M  V30 9865 C 880.136 -2.74024 -0.425004 0
M  V30 9866 H 883.087 -1.57032 0.229511 0
M  V30 9867 H 883.108 -3.32474 -1.85044 0
M  V30 9868 H 882.62 -3.87938 -0.112035 0
M  V30 9869 H 880.721 -2.8787 -2.36562 0
M  V30 9870 H 880.834 -4.55098 -1.49741 0
M  V30 9871 H 879.198 -2.38741 -0.887394 0
M  V30 9872 H 879.981 -3.40486 0.438662 0
M  V30 9873 N 882.426 0.269451 -1.5528 0
M  V30 9874 C 883.359 1.3588 -1.83336 0
M  V30 9875 C 884.337 1.4739 -0.68666 0
M  V30 9876 O 885.521 1.63959 -0.930037 0
M  V30 9877 C 882.648 2.73483 -1.99812 0
M  V30 9878 C 881.694 2.79239 -3.22378 0
M  V30 9879 S 882.527 2.38125 -4.79642 0
M  V30 9880 C 883.683 3.77697 -4.99095 0
M  V30 9881 H 883.916 1.11878 -2.75446 0
M  V30 9882 H 881.449 0.469268 -1.47096 0
M  V30 9883 H 883.407 3.52725 -2.09989 0
M  V30 9884 H 882.068 2.94735 -1.08583 0
M  V30 9885 H 881.261 3.80243 -3.30804 0
M  V30 9886 H 880.863 2.08022 -3.1081 0
M  V30 9887 H 883.155 4.72999 -4.85055 0
M  V30 9888 H 884.098 3.7422 -6.01136 0
M  V30 9889 H 884.506 3.69164 -4.27058 0
M  V30 9890 N 883.904 1.48273 0.534124 0
M  V30 9891 C 884.837 1.57053 1.65559 0
M  V30 9892 C 885.815 0.421213 1.5705 0
M  V30 9893 O 886.999 0.632242 1.77581 0
M  V30 9894 C 884.126 1.49465 3.03937 0
M  V30 9895 C 883.172 2.69186 3.30819 0
M  V30 9896 S 884.005 4.31192 3.17543 0
M  V30 9897 C 885.161 4.26197 4.58375 0
M  V30 9898 H 885.394 2.51927 1.57861 0
M  V30 9899 H 882.927 1.36755 0.716763 0
M  V30 9900 H 884.885 1.45775 3.83745 0
M  V30 9901 H 883.546 0.559357 3.09079 0
M  V30 9902 H 882.739 2.60005 4.31756 0
M  V30 9903 H 882.341 2.70118 2.58674 0
M  V30 9904 H 884.633 3.95874 5.49809 0
M  V30 9905 H 885.576 5.27299 4.72611 0
M  V30 9906 H 885.984 3.56723 4.37503 0
M  V30 9907 N 885.382 -0.782676 1.36792 0
M  V30 9908 C 886.631 -1.53605 1.30723 0
M  V30 9909 C 886.944 -1.95294 -0.109296 0
M  V30 9910 O 888.15 -2.69921 -0.292398 0
M  V30 9911 C 886.606 -2.77321 2.29393 0
M  V30 9912 C 886.214 -2.42774 3.76517 0
M  V30 9913 C 887.958 -3.55289 2.32314 0
M  V30 9914 C 885.865 -3.62926 4.66947 0
M  V30 9915 H 884.795 -0.576646 0.485794 0
M  V30 9916 H 887.446 -0.858255 1.62192 0
M  V30 9917 H 885.828 -3.46934 1.90927 0
M  V30 9918 H 887.002 -1.81014 4.23758 0
M  V30 9919 H 885.317 -1.78002 3.76436 0
M  V30 9920 H 887.914 -4.44573 2.97083 0
M  V30 9921 H 888.257 -3.94361 1.3336 0
M  V30 9922 H 888.79 -2.92662 2.69432 0
M  V30 9923 H 885.529 -3.28944 5.66989 0
M  V30 9924 H 885.049 -4.23828 4.24418 0
M  V30 9925 H 886.728 -4.29873 4.83548 0
M  V30 9926 N 886.86 -1.21182 -1.00761 0
M  V30 9927 C 888.085 -1.05411 -1.78615 0
M  V30 9928 C 888.51 0.391837 -1.83973 0
M  V30 9929 O 887.868 1.28256 -1.28141 0
M  V30 9930 C 887.916 -1.65285 -3.20489 0
M  V30 9931 O 887.02 -0.896558 -4.02536 0
M  V30 9932 H 886.361 -0.37116 -0.550578 0
M  V30 9933 H 888.891 -1.60669 -1.26676 0
M  V30 9934 H 888.901 -1.69397 -3.71172 0
M  V30 9935 H 887.576 -2.70514 -3.15904 0
M  V30 9936 H 886.153 -0.930335 -3.61108 0
M  V30 9937 N 888.338 1.20213 -1.01915 0
M  V30 9938 C 889.563 1.94163 -0.729076 0
M  V30 9939 C 889.988 1.74416 0.704323 0
M  V30 9940 O 889.346 1.0401 1.48498 0
M  V30 9941 C 889.394 3.44258 -1.07324 0
M  V30 9942 O 888.498 4.11979 -0.186367 0
M  V30 9943 H 887.839 0.606506 -0.270272 0
M  V30 9944 H 890.369 1.52571 -1.3632 0
M  V30 9945 H 890.379 3.94888 -1.02603 0
M  V30 9946 H 889.054 3.57954 -2.11759 0
M  V30 9947 H 887.631 3.7176 -0.291334 0
M  V30 9948 N 889.816 0.795718 1.36037 0
M  V30 9949 C 890.749 0.144269 2.27744 0
M  V30 9950 C 891.727 -0.683351 1.47543 0
M  V30 9951 O 892.911 -0.652976 1.76829 0
M  V30 9952 C 890.038 -0.800944 3.29094 0
M  V30 9953 C 889.084 -0.0543234 4.26465 0
M  V30 9954 S 889.917 1.27426 5.20118 0
M  V30 9955 C 891.073 0.333213 6.25012 0
M  V30 9956 H 891.306 0.921827 2.82648 0
M  V30 9957 H 888.839 0.590241 1.42673 0
M  V30 9958 H 890.797 -1.34082 3.87985 0
M  V30 9959 H 889.458 -1.5518 2.7309 0
M  V30 9960 H 888.651 -0.771788 4.98056 0
M  V30 9961 H 888.253 0.415264 3.71687 0
M  V30 9962 H 890.545 -0.485604 6.75757 0
M  V30 9963 H 891.488 1.01798 7.00744 0
M  V30 9964 H 891.896 -0.066256 5.64461 0
M  V30 9965 N 891.294 -1.47756 0.548274 0
M  V30 9966 C 892.224 -2.32702 -0.19284 0
M  V30 9967 C 893.205 -1.43237 -0.917457 0
M  V30 9968 O 894.39 -1.72103 -0.89967 0
M  V30 9969 C 891.52 -3.24831 -1.22891 0
M  V30 9970 C 890.474 -4.23466 -0.621312 0
M  V30 9971 C 889.8 -5.04856 -1.76137 0
M  V30 9972 C 891.1 -5.20616 0.419055 0
M  V30 9973 H 892.794 -2.94914 0.516323 0
M  V30 9974 H 890.34 -1.41818 0.24975 0
M  V30 9975 H 892.293 -3.83094 -1.75547 0
M  V30 9976 H 891.017 -2.60656 -1.9679 0
M  V30 9977 H 889.676 -3.66416 -0.116123 0
M  V30 9978 H 889.324 -4.37091 -2.48918 0
M  V30 9979 H 889.024 -5.71629 -1.36065 0
M  V30 9980 H 890.548 -5.65976 -2.29136 0
M  V30 9981 H 891.962 -5.73296 -0.0211034 0
M  V30 9982 H 890.359 -5.95543 0.738163 0
M  V30 9983 H 891.429 -4.66638 1.31822 0
M  V30 9984 N 892.772 -0.284283 -1.55015 0
M  V30 9985 C 893.704 0.63258 -2.20298 0
M  V30 9986 C 894.717 1.11045 -1.1905 0
M  V30 9987 O 895.906 1.03078 -1.4573 0
M  V30 9988 C 893.006 1.87599 -2.82241 0
M  V30 9989 C 892.179 1.5434 -4.09265 0
M  V30 9990 C 891.238 2.64023 -4.55169 0
M  V30 9991 O 890.264 2.29821 -5.20741 0
M  V30 9992 N 891.466 3.94255 -4.26079 0
M  V30 9993 H 894.231 0.0737928 -2.99609 0
M  V30 9994 H 891.792 -0.105767 -1.61554 0
M  V30 9995 H 893.784 2.60289 -3.0989 0
M  V30 9996 H 892.354 2.3436 -2.06868 0
M  V30 9997 H 891.574 0.649912 -3.88806 0
M  V30 9998 H 892.862 1.29634 -4.92009 0
M  V30 9999 H 892.26 4.24859 -3.73512 0
M  V30 10000 H 890.817 4.63295 -4.58477 0
M  V30 10001 N 894.251 1.57596 -0.0117121 0
M  V30 10002 C 895.214 2.08089 0.960816 0
M  V30 10003 C 896.214 0.992519 1.26514 0
M  V30 10004 O 897.404 1.25475 1.20837 0
M  V30 10005 C 894.536 2.53217 2.28241 0
M  V30 10006 H 895.729 2.9529 0.523829 0
M  V30 10007 H 893.282 1.54508 0.235995 0
M  V30 10008 H 894.017 1.69294 2.76604 0
M  V30 10009 H 893.802 3.32714 2.0747 0
M  V30 10010 H 895.292 2.92568 2.97983 0
M  V30 10011 N 895.729 -0.261212 1.5542 0
M  V30 10012 C 896.954 -1.01341 1.80955 0
M  V30 10013 C 897.379 -1.78711 0.586849 0
M  V30 10014 O 896.737 -1.75266 -0.463837 0
M  V30 10015 C 896.785 -1.93835 3.04073 0
M  V30 10016 O 895.889 -3.02791 2.79985 0
M  V30 10017 H 895.23 -0.289123 0.597749 0
M  V30 10018 H 897.76 -0.286543 2.02584 0
M  V30 10019 H 897.77 -2.3557 3.33123 0
M  V30 10020 H 896.445 -1.36936 3.9271 0
M  V30 10021 H 895.022 -2.65287 2.62063 0
M  V30 10022 N 897.207 -1.48554 -0.526253 0
M  V30 10023 C 898.453 -1.56994 -1.28378 0
M  V30 10024 C 898.786 -0.244701 -1.92652 0
M  V30 10025 O 898.061 0.749636 -1.79473 0
M  V30 10026 C 898.344 -2.71092 -2.37026 0
M  V30 10027 C 898.197 -4.13331 -1.77418 0
M  V30 10028 C 899.516 -2.80934 -3.38769 0
M  V30 10029 H 896.635 -0.571466 -0.465398 0
M  V30 10030 H 899.277 -1.80742 -0.585861 0
M  V30 10031 H 897.427 -2.50973 -2.96555 0
M  V30 10032 H 899.099 -4.44899 -1.21912 0
M  V30 10033 H 897.342 -4.20158 -1.07936 0
M  V30 10034 H 898.013 -4.88994 -2.56104 0
M  V30 10035 H 900.489 -2.9917 -2.892 0
M  V30 10036 H 899.365 -3.62489 -4.12181 0
M  V30 10037 H 899.626 -1.89244 -3.99549 0
M  V30 10038 N 898.685 0.775411 -1.37205 0
M  V30 10039 C 899.91 1.5696 -1.35567 0
M  V30 10040 C 900.335 1.88012 0.0575554 0
M  V30 10041 O 899.693 1.48954 1.03355 0
M  V30 10042 C 899.741 2.85886 -2.19776 0
M  V30 10043 O 898.845 3.80103 -1.59987 0
M  V30 10044 H 898.186 0.475583 -0.463375 0
M  V30 10045 H 900.716 0.96001 -1.80679 0
M  V30 10046 H 900.726 3.35024 -2.32859 0
M  V30 10047 H 899.401 2.62613 -3.22502 0
M  V30 10048 H 897.978 3.38736 -1.55924 0
M  V30 10049 N 900.163 1.21714 1.00117 0
M  V30 10050 C 901.391 1.06278 1.77518 0
M  V30 10051 C 901.806 -0.387193 1.84787 0
M  V30 10052 O 901.163 -1.26854 1.31203 0
M  V30 10053 C 901.214 1.65795 3.21239 0
M  V30 10054 O 900.935 3.05119 3.14378 0
M  V30 10055 C 902.436 1.55521 4.15124 0
M  V30 10056 H 899.656 0.373013 0.557765 0
M  V30 10057 H 902.2 1.61133 1.25922 0
M  V30 10058 H 900.355 1.15022 3.69931 0
M  V30 10059 H 900.769 3.33643 4.04701 0
M  V30 10060 H 902.243 2.01902 5.13751 0
M  V30 10061 H 902.72 0.510307 4.36225 0
M  V30 10062 H 903.326 2.0556 3.72324 0
M  V30 10063 N 901.641 -1.19671 1.02551 0
M  V30 10064 C 902.551 -2.26441 0.613329 0
M  V30 10065 C 903.567 -1.70375 -0.353339 0
M  V30 10066 O 904.743 -2.0028 -0.212064 0
M  V30 10067 C 901.808 -3.46684 -0.0329028 0
M  V30 10068 C 900.869 -4.17945 0.980837 0
M  V30 10069 C 900.102 -5.32448 0.36535 0
M  V30 10070 O 900.325 -5.64291 -0.832596 0
M  V30 10071 O 899.259 -5.92012 1.08652 0
M  V30 10072 H 903.085 -2.63932 1.50246 0
M  V30 10073 H 900.67 -1.2646 0.795502 0
M  V30 10074 H 902.552 -4.1956 -0.393395 0
M  V30 10075 H 901.227 -3.1105 -0.896089 0
M  V30 10076 H 900.134 -3.47204 1.39286 0
M  V30 10077 H 901.467 -4.57542 1.81428 0
M  V30 10078 N 903.119 -0.802921 -1.35613 0
M  V30 10079 C 904.535 -0.486214 -1.52014 0
M  V30 10080 C 904.735 0.993219 -1.75321 0
M  V30 10081 O 903.791 1.77835 -1.79251 0
M  V30 10082 C 905.104 -1.32839 -2.69767 0
M  V30 10083 C 906.652 -1.32346 -2.83643 0
M  V30 10084 C 907.127 -2.14967 -4.04417 0
M  V30 10085 N 908.618 -2.12484 -4.11588 0
M  V30 10086 C 909.353 -2.73173 -5.04147 0
M  V30 10087 N 908.849 -3.42774 -6.02061 0
M  V30 10088 N 910.642 -2.62834 -4.96865 0
M  V30 10089 H 902.793 -1.76109 -1.18741 0
M  V30 10090 H 905.056 -0.74936 -0.580658 0
M  V30 10091 H 904.762 -2.37813 -2.5911 0
M  V30 10092 H 904.636 -0.979058 -3.64272 0
M  V30 10093 H 907.023 -0.281586 -2.93753 0
M  V30 10094 H 907.104 -1.71264 -1.90006 0
M  V30 10095 H 906.748 -3.19193 -3.95068 0
M  V30 10096 H 906.678 -1.73411 -4.97228 0
M  V30 10097 H 909.169 -1.61839 -3.41492 0
M  V30 10098 H 909.482 -3.86378 -6.69277 0
M  V30 10099 H 907.827 -3.46878 -6.02246 0
M  V30 10100 H 911.018 -2.08049 -4.19325 0
M  V30 10101 H 911.191 -3.10421 -5.68808 0
M  V30 10102 N 904.597 1.47463 -0.556102 0
M  V30 10103 C 905.527 2.32801 0.180497 0
M  V30 10104 C 906.508 1.43721 0.909848 0
M  V30 10105 O 907.693 1.72578 0.89053 0
M  V30 10106 C 904.823 3.25478 1.21167 0
M  V30 10107 C 903.777 4.2379 0.598846 0
M  V30 10108 C 903.103 5.05783 1.73457 0
M  V30 10109 C 904.403 5.20387 -0.446659 0
M  V30 10110 H 906.097 2.94636 -0.531956 0
M  V30 10111 H 903.643 1.41683 -0.257267 0
M  V30 10112 H 905.596 3.8402 1.73513 0
M  V30 10113 H 904.32 2.61695 1.95405 0
M  V30 10114 H 902.979 3.66472 0.0966897 0
M  V30 10115 H 902.627 4.38405 2.46596 0
M  V30 10116 H 902.327 5.72343 1.33031 0
M  V30 10117 H 903.851 5.67183 2.26131 0
M  V30 10118 H 905.265 5.73299 -0.00930019 0
M  V30 10119 H 903.662 5.95143 -0.769735 0
M  V30 10120 H 904.732 4.65932 -1.34295 0
M  V30 10121 N 906.075 0.2925 1.54862 0
M  V30 10122 C 906.985 -0.597036 2.26876 0
M  V30 10123 C 908.001 -1.15558 1.30086 0
M  V30 10124 O 909.177 -1.18217 1.63054 0
M  V30 10125 C 906.242 -1.75664 2.98903 0
M  V30 10126 C 905.303 -1.23303 4.11212 0
M  V30 10127 C 904.536 -2.33736 4.79795 0
M  V30 10128 O 904.759 -3.53459 4.47686 0
M  V30 10129 O 903.693 -2.00908 5.67379 0
M  V30 10130 H 907.519 -0.0131242 3.03697 0
M  V30 10131 H 905.104 0.0592642 1.49282 0
M  V30 10132 H 906.986 -2.43241 3.4411 0
M  V30 10133 H 905.661 -2.32731 2.24984 0
M  V30 10134 H 904.568 -0.523222 3.70423 0
M  V30 10135 H 905.901 -0.707887 4.87083 0
M  V30 10136 N 907.553 -1.57587 0.0200696 0
M  V30 10137 C 908.5 -2.09667 -0.964791 0
M  V30 10138 C 909.47 -0.99664 -1.32877 0
M  V30 10139 O 910.655 -1.2703 -1.42366 0
M  V30 10140 C 907.795 -2.62101 -2.24493 0
M  V30 10141 C 906.908 -3.8608 -1.93821 0
M  V30 10142 C 906.043 -4.26939 -3.16064 0
M  V30 10143 C 905.082 -5.43701 -2.81169 0
M  V30 10144 N 904.219 -5.79759 -3.9601 0
M  V30 10145 H 909.059 -2.93538 -0.513751 0
M  V30 10146 H 906.596 -1.45096 -0.242 0
M  V30 10147 H 908.554 -2.90587 -2.99358 0
M  V30 10148 H 907.184 -1.81074 -2.6723 0
M  V30 10149 H 906.236 -3.64378 -1.09237 0
M  V30 10150 H 907.548 -4.71028 -1.64115 0
M  V30 10151 H 906.702 -4.56814 -3.99257 0
M  V30 10152 H 905.441 -3.40739 -3.48924 0
M  V30 10153 H 904.446 -5.13529 -1.96387 0
M  V30 10154 H 905.671 -6.31593 -2.49535 0
M  V30 10155 H 903.617 -4.96516 -4.28729 0
M  V30 10156 H 903.534 -6.59327 -3.69896 0
M  V30 10157 H 904.802 -6.14235 -4.79933 0
M  V30 10158 N 909.032 0.252966 -1.55557 0
M  V30 10159 C 910.262 0.998115 -1.8089 0
M  V30 10160 C 910.67 1.79679 -0.592623 0
M  V30 10161 O 910.013 1.78151 0.448093 0
M  V30 10162 C 910.075 1.98878 -2.99479 0
M  V30 10163 C 909.739 1.37761 -4.35742 0
M  V30 10164 C 910.736 0.783142 -5.13968 0
M  V30 10165 C 908.421 1.39879 -4.8243 0
M  V30 10166 C 910.415 0.218004 -6.37027 0
M  V30 10167 C 908.102 0.829801 -6.0544 0
M  V30 10168 C 909.1 0.240426 -6.82577 0
M  V30 10169 O 908.788 -0.319797 -8.03264 0
M  V30 10170 H 908.52 0.29963 -0.605969 0
M  V30 10171 H 911.074 0.282978 -2.03441 0
M  V30 10172 H 909.304 2.74206 -2.72669 0
M  V30 10173 H 910.993 2.59686 -3.11959 0
M  V30 10174 H 911.759 0.759326 -4.79019 0
M  V30 10175 H 907.638 1.84692 -4.22386 0
M  V30 10176 H 911.182 -0.242654 -6.97178 0
M  V30 10177 H 907.079 0.850924 -6.39867 0
M  V30 10178 H 907.847 -0.211078 -8.18228 0
M  V30 10179 N 910.51 1.48831 0.518367 0
M  V30 10180 C 911.44 1.67119 1.63075 0
M  V30 10181 C 912.421 0.519948 1.61958 0
M  V30 10182 O 913.606 0.753824 1.78972 0
M  V30 10183 C 910.736 1.72158 3.01627 0
M  V30 10184 C 909.69 2.86898 3.17606 0
M  V30 10185 C 909.016 2.77035 4.57335 0
M  V30 10186 C 910.316 4.28057 2.99274 0
M  V30 10187 H 912.01 2.60248 1.48025 0
M  V30 10188 H 909.556 1.2524 0.710694 0
M  V30 10189 H 911.509 1.83539 3.7933 0
M  V30 10190 H 910.233 0.756157 3.17726 0
M  V30 10191 H 908.892 2.75091 2.42323 0
M  V30 10192 H 908.54 1.78438 4.70286 0
M  V30 10193 H 908.24 3.54036 4.6897 0
M  V30 10194 H 909.764 2.904 5.37122 0
M  V30 10195 H 911.178 4.40636 3.6676 0
M  V30 10196 H 909.575 5.06145 3.22393 0
M  V30 10197 H 910.645 4.4371 1.95574 0
M  V30 10198 N 911.988 -0.768124 1.37614 0
M  V30 10199 C 913.236 -1.52379 1.3276 0
M  V30 10200 C 913.557 -1.94809 -0.0863564 0
M  V30 10201 O 912.827 -1.66568 -1.03112 0
M  V30 10202 H 911.407 -0.565179 0.488448 0
M  V30 10203 H 914.069 -0.913974 1.72141 0
M  V30 10204 H 913.165 -2.4215 1.96901 0
M  V30 10205 N 913.466 -1.22244 -0.994698 0
M  V30 10206 C 914.714 -1.04384 -1.73056 0
M  V30 10207 C 915.035 0.422204 -1.90374 0
M  V30 10208 O 914.305 1.30383 -1.46209 0
M  V30 10209 H 912.885 -0.383263 -0.641185 0
M  V30 10210 H 915.547 -1.53725 -1.1981 0
M  V30 10211 H 914.643 -1.52021 -2.72573 0
M  V30 10212 N 914.944 1.19125 -1.03184 0
M  V30 10213 C 916.221 1.84674 -0.644574 0
M  V30 10214 C 916.601 1.92042 0.876534 0
M  V30 10215 O 915.949 1.43965 1.77444 0
M  V30 10216 C 916.159 3.23477 -1.3101 0
M  V30 10217 C 917.507 3.99608 -1.43524 0
M  V30 10218 O 918.531 3.32886 -1.2675 0
M  V30 10219 O 917.39 5.19132 -1.70776 0
M  V30 10220 H 914.484 0.795968 -0.22442 0
M  V30 10221 H 917.03 1.2659 -1.13018 0
M  V30 10222 H 915.802 3.12967 -2.34878 0
M  V30 10223 H 915.425 3.89209 -0.812547 0
M  V30 10224 N 916.422 0.810101 1.35185 0
M  V30 10225 C 917.699 0.315235 1.93043 0
M  V30 10226 C 918.079 -1.19567 1.73974 0
M  V30 10227 O 917.427 -1.99682 1.11083 0
M  V30 10228 C 917.637 0.730492 3.41269 0
M  V30 10229 C 918.985 0.721985 4.18417 0
M  V30 10230 O 920.009 0.672258 3.49799 0
M  V30 10231 O 918.868 0.783535 5.40854 0
M  V30 10232 H 915.962 0.0832774 0.822796 0
M  V30 10233 H 918.508 0.894034 1.4424 0
M  V30 10234 H 917.28 1.77169 3.48894 0
M  V30 10235 H 916.903 0.12669 3.97398 0
M  V30 10236 N 917.9 -1.47166 0.563914 0
M  V30 10237 C 918.83 -2.32894 -0.168148 0
M  V30 10238 C 919.811 -1.44202 -0.902214 0
M  V30 10239 O 920.996 -1.73048 -0.881365 0
M  V30 10240 C 918.126 -3.26116 -1.19439 0
M  V30 10241 C 917.08 -4.24101 -0.576363 0
M  V30 10242 C 916.406 -5.06696 -1.70772 0
M  V30 10243 C 917.706 -5.20142 0.47425 0
M  V30 10244 H 919.4 -2.9435 0.547573 0
M  V30 10245 H 916.946 -1.41545 0.264778 0
M  V30 10246 H 918.899 -3.84935 -1.71474 0
M  V30 10247 H 917.623 -2.62728 -1.94014 0
M  V30 10248 H 916.282 -3.66519 -0.0772534 0
M  V30 10249 H 915.93 -4.39707 -2.44268 0
M  V30 10250 H 915.63 -5.7304 -1.29994 0
M  V30 10251 H 917.154 -5.68375 -2.2312 0
M  V30 10252 H 918.568 -5.73286 0.0397035 0
M  V30 10253 H 916.965 -5.94726 0.801287 0
M  V30 10254 H 918.035 -4.65214 1.36764 0
M  V30 10255 N 919.378 -0.300708 -1.54705 0
M  V30 10256 C 920.655 0.361757 -1.92226 0
M  V30 10257 C 921.035 1.71714 -1.2279 0
M  V30 10258 O 920.383 2.2559 -0.363542 0
M  V30 10259 C 920.593 0.476699 -3.45729 0
M  V30 10260 C 921.941 0.7477 -4.17965 0
M  V30 10261 O 922.965 0.560521 -3.51762 0
M  V30 10262 O 921.824 1.10724 -5.35166 0
M  V30 10263 H 918.918 0.202213 -0.801897 0
M  V30 10264 H 921.464 -0.348746 -1.66078 0
M  V30 10265 H 920.236 -0.476132 -3.88392 0
M  V30 10266 H 919.859 1.23568 -3.77911 0
M  V30 10267 N 920.856 1.57574 -0.0284266 0
M  V30 10268 C 922.084 1.96071 0.660575 0
M  V30 10269 C 922.499 0.904881 1.65703 0
M  V30 10270 O 921.856 -0.113379 1.82147 0
M  V30 10271 C 921.907 3.34634 1.36756 0
M  V30 10272 O 921.628 4.36167 0.411041 0
M  V30 10273 C 923.129 3.87758 2.14845 0
M  V30 10274 H 920.349 0.645794 0.182183 0
M  V30 10275 H 922.893 2.04311 -0.0879858 0
M  V30 10276 H 921.048 3.27616 2.06753 0
M  V30 10277 H 921.462 5.16493 0.913 0
M  V30 10278 H 922.936 4.87058 2.59767 0
M  V30 10279 H 923.413 3.21967 2.9872 0
M  V30 10280 H 924.019 3.98043 1.49807 0
M  V30 10281 N 922.334 -0.244713 1.55689 0
M  V30 10282 C 923.559 -0.994157 1.8202 0
M  V30 10283 C 923.984 -1.78079 0.60577 0
M  V30 10284 O 923.342 -1.75748 -0.445221 0
M  V30 10285 C 923.39 -1.90599 3.06111 0
M  V30 10286 O 922.494 -2.99804 2.8318 0
M  V30 10287 H 921.835 -0.282767 0.600782 0
M  V30 10288 H 924.365 -0.26504 2.02876 0
M  V30 10289 H 924.375 -2.32023 3.35603 0
M  V30 10290 H 923.05 -1.32763 3.9414 0
M  V30 10291 H 921.627 -2.62493 2.64862 0
M  V30 10292 N 923.813 -1.49104 -0.510467 0
M  V30 10293 C 924.776 -1.64569 -1.59529 0
M  V30 10294 C 925.776 -0.517937 -1.5223 0
M  V30 10295 O 926.966 -0.784183 -1.55551 0
M  V30 10296 C 924.098 -1.6342 -2.99177 0
M  V30 10297 H 925.291 -2.61318 -1.4715 0
M  V30 10298 H 922.844 -1.37993 -0.734001 0
M  V30 10299 H 923.579 -0.68221 -3.17043 0
M  V30 10300 H 923.364 -2.45312 -3.05883 0
M  V30 10301 H 924.854 -1.77474 -3.78011 0
M  V30 10302 N 925.291 0.760815 -1.38019 0
M  V30 10303 C 926.54 1.51506 -1.3315 0
M  V30 10304 C 926.853 1.95444 0.0782124 0
M  V30 10305 O 928.059 2.70352 0.249418 0
M  V30 10306 C 926.515 2.73636 -2.33776 0
M  V30 10307 C 926.123 2.36753 -3.80332 0
M  V30 10308 C 927.867 3.51548 -2.37937 0
M  V30 10309 C 925.774 3.55451 -4.72661 0
M  V30 10310 H 924.704 0.568844 -0.494907 0
M  V30 10311 H 927.355 0.832343 -1.63537 0
M  V30 10312 H 925.737 3.43852 -1.96422 0
M  V30 10313 H 926.911 1.7425 -4.26584 0
M  V30 10314 H 925.226 1.71991 -3.7922 0
M  V30 10315 H 927.823 4.39791 -3.04119 0
M  V30 10316 H 928.166 3.9219 -1.39617 0
M  V30 10317 H 928.699 2.88339 -2.74054 0
M  V30 10318 H 925.438 3.19882 -5.7215 0
M  V30 10319 H 924.958 4.17022 -4.31107 0
M  V30 10320 H 926.637 4.22125 -4.90326 0
M  V30 10321 N 926.769 1.22769 0.988202 0
M  V30 10322 C 928.185 0.988665 1.2529 0
M  V30 10323 C 928.385 -0.314938 1.99024 0
M  V30 10324 O 927.441 -1.03637 2.30251 0
M  V30 10325 C 928.754 2.19046 2.06009 0
M  V30 10326 C 930.302 2.23452 2.19176 0
M  V30 10327 C 930.777 3.43196 3.03283 0
M  V30 10328 N 932.268 3.43387 3.10869 0
M  V30 10329 C 933.003 4.32693 3.7625 0
M  V30 10330 N 932.499 5.32224 4.43519 0
M  V30 10331 N 934.292 4.20457 3.73058 0
M  V30 10332 H 926.443 2.06575 0.494014 0
M  V30 10333 H 928.706 0.905452 0.28082 0
M  V30 10334 H 928.412 3.13607 1.59197 0
M  V30 10335 H 928.286 2.19492 3.06763 0
M  V30 10336 H 930.673 1.29436 2.65199 0
M  V30 10337 H 930.754 2.27042 1.17836 0
M  V30 10338 H 930.398 4.37515 2.57959 0
M  V30 10339 H 930.328 3.36847 4.04774 0
M  V30 10340 H 932.819 2.71368 2.62998 0
M  V30 10341 H 933.132 5.9664 4.91163 0
M  V30 10342 H 931.477 5.36133 4.42252 0
M  V30 10343 H 934.668 3.41949 3.19669 0
M  V30 10344 H 934.841 4.90261 4.23731 0
M  V30 10345 N 928.247 -1.18576 1.03814 0
M  V30 10346 C 929.197 -2.20034 0.597409 0
M  V30 10347 C 930.181 -1.56849 -0.358796 0
M  V30 10348 O 931.373 -1.761 -0.178262 0
M  V30 10349 C 928.502 -3.43276 -0.0407965 0
M  V30 10350 C 927.588 -4.13588 0.938404 0
M  V30 10351 N 927.979 -4.59941 2.10447 0
M  V30 10352 C 926.277 -4.3941 0.763853 0
M  V30 10353 C 926.978 -5.1404 2.72282 0
M  V30 10354 N 925.954 -5.05401 2.00176 0
M  V30 10355 H 929.756 -2.53562 1.48606 0
M  V30 10356 H 927.27 -1.34753 0.906384 0
M  V30 10357 H 929.267 -4.15217 -0.374222 0
M  V30 10358 H 927.927 -3.11245 -0.925014 0
M  V30 10359 H 928.938 -4.54471 2.48347 0
M  V30 10360 H 925.615 -4.1744 -0.0704869 0
M  V30 10361 H 927.005 -5.60128 3.71088 0
M  V30 10362 N 929.725 -0.817259 -1.34754 0
M  V30 10363 C 931.002 -0.325468 -1.92873 0
M  V30 10364 C 931.382 1.18643 -1.74606 0
M  V30 10365 O 930.73 1.9909 -1.1214 0
M  V30 10366 C 930.94 -0.74858 -3.40877 0
M  V30 10367 C 932.288 -0.744165 -4.18028 0
M  V30 10368 O 933.312 -0.690799 -3.49437 0
M  V30 10369 O 932.171 -0.812207 -5.40431 0
M  V30 10370 H 929.265 -0.0876397 -0.822343 0
M  V30 10371 H 931.811 -0.901671 -1.43764 0
M  V30 10372 H 930.583 -1.79017 -3.47949 0
M  V30 10373 H 930.206 -0.147764 -3.97325 0
M  V30 10374 N 931.203 1.46865 -0.571711 0
M  V30 10375 C 932.443 2.04324 -0.0556487 0
M  V30 10376 C 932.807 1.43486 1.27576 0
M  V30 10377 O 934.008 1.92079 1.8804 0
M  V30 10378 C 932.279 3.57394 0.0206263 0
M  V30 10379 S 933.838 4.36159 0.480709 0
M  V30 10380 H 930.656 0.710273 -0.0321467 0
M  V30 10381 H 933.258 1.8005 -0.761725 0
M  V30 10382 H 931.962 3.99193 -0.952509 0
M  V30 10383 H 931.493 3.86188 0.749812 0
M  V30 10384 H 933.508 4.6478 1.73763 0
M  V30 10385 N 932.681 0.308908 1.54543 0
M  V30 10386 C 933.629 -0.579326 2.2527 0
M  V30 10387 C 934.623 -1.13058 1.26152 0
M  V30 10388 O 935.829 -1.08031 1.43977 0
M  V30 10389 H 932.204 -0.205444 0.723392 0
M  V30 10390 H 934.175 0.0396415 2.98374 0
M  V30 10391 C 932.924 -1.73584 3.01271 0
M  V30 10392 H 932.247 -1.32089 3.77349 0
M  V30 10393 H 933.687 -2.33324 3.54028 0
M  V30 10394 C 932.146 -2.6447 2.08703 0
M  V30 10395 O 932.676 -3.65785 1.66025 0
M  V30 10396 N 930.882 -2.32379 1.74495 0
M  V30 10397 H 930.429 -1.50034 2.09398 0
M  V30 10398 H 930.387 -2.93454 1.12836 0
M  V30 10399 N 934.159 -1.57557 0.0367827 0
M  V30 10400 C 935.406 -1.92114 -0.640185 0
M  V30 10401 C 935.734 -0.913887 -1.71693 0
M  V30 10402 O 934.989 0.0760343 -1.95552 0
M  V30 10403 C 935.288 -3.33387 -1.28794 0
M  V30 10404 C 934.954 -4.4961 -0.340819 0
M  V30 10405 C 933.616 -4.81133 -0.0801574 0
M  V30 10406 C 935.968 -5.20283 0.309106 0
M  V30 10407 C 933.296 -5.80683 0.838107 0
M  V30 10408 C 935.648 -6.20813 1.21547 0
M  V30 10409 C 934.312 -6.50773 1.48495 0
M  V30 10410 H 933.582 -0.702996 -0.23426 0
M  V30 10411 H 936.229 -1.91238 0.100188 0
M  V30 10412 H 934.534 -3.30561 -2.10324 0
M  V30 10413 H 936.231 -3.57399 -1.81843 0
M  V30 10414 H 932.821 -4.25002 -0.554161 0
M  V30 10415 H 937.005 -4.96153 0.120794 0
M  V30 10416 H 932.261 -6.02238 1.05451 0
M  V30 10417 H 936.435 -6.74692 1.72522 0
M  V30 10418 H 934.062 -7.27727 2.19814 0
M  V30 10419 N 935.637 0.236453 -1.55816 0
M  V30 10420 C 936.914 0.986463 -1.68903 0
M  V30 10421 C 937.294 2.02984 -0.579722 0
M  V30 10422 O 936.642 2.24693 0.415389 0
M  V30 10423 C 936.852 1.61038 -3.09625 0
M  V30 10424 C 938.2 2.10829 -3.6856 0
M  V30 10425 O 939.224 1.7096 -3.12492 0
M  V30 10426 O 938.083 2.84064 -4.66873 0
M  V30 10427 H 935.177 0.459837 -0.687371 0
M  V30 10428 H 937.723 0.229412 -1.68142 0
M  V30 10429 H 936.495 0.856232 -3.81817 0
M  V30 10430 H 936.118 2.43336 -3.14441 0
M  V30 10431 N 937.115 1.49373 0.502552 0
M  V30 10432 C 938.062 1.65927 1.60427 0
M  V30 10433 C 939.032 0.500768 1.58371 0
M  V30 10434 O 940.217 0.727606 1.76382 0
M  V30 10435 C 937.357 1.73043 2.9858 0
M  V30 10436 C 936.47 3.00187 3.10663 0
M  V30 10437 C 935.605 2.98292 4.3954 0
M  V30 10438 C 934.644 4.20022 4.4525 0
M  V30 10439 N 933.781 4.16046 5.65553 0
M  V30 10440 H 938.621 2.59998 1.45619 0
M  V30 10441 H 936.158 1.28912 0.708519 0
M  V30 10442 H 938.116 1.7515 3.78653 0
M  V30 10443 H 936.746 0.824397 3.12095 0
M  V30 10444 H 935.798 3.07699 2.23663 0
M  V30 10445 H 937.11 3.9018 3.10742 0
M  V30 10446 H 936.264 2.98953 5.27932 0
M  V30 10447 H 935.003 2.06075 4.42023 0
M  V30 10448 H 934.008 4.19607 3.5526 0
M  V30 10449 H 935.233 5.13431 4.44484 0
M  V30 10450 H 933.179 3.26665 5.68881 0
M  V30 10451 H 933.096 4.99773 5.67242 0
M  V30 10452 H 934.364 4.20807 6.56156 0
M  V30 10453 N 938.594 -0.753485 1.38421 0
M  V30 10454 C 939.557 -1.84888 1.35459 0
M  V30 10455 C 940.557 -1.58764 0.255083 0
M  V30 10456 O 941.747 -1.66507 0.511978 0
M  V30 10457 C 938.879 -3.22361 1.10888 0
M  V30 10458 H 940.072 -1.88922 2.32913 0
M  V30 10459 H 937.625 -0.955199 1.23716 0
M  V30 10460 H 938.36 -3.23996 0.1404 0
M  V30 10461 H 938.145 -3.42717 1.90492 0
M  V30 10462 H 939.635 -4.02437 1.1151 0
M  V30 10463 N 940.072 -1.23292 -0.981677 0
M  V30 10464 C 941.005 -0.956198 -2.07201 0
M  V30 10465 C 941.983 0.105027 -1.6226 0
M  V30 10466 O 943.167 -0.0289582 -1.88478 0
M  V30 10467 C 940.294 -0.44029 -3.35826 0
M  V30 10468 C 939.34 -1.48792 -3.99704 0
M  V30 10469 S 940.173 -3.06491 -4.39117 0
M  V30 10470 C 941.329 -2.56567 -5.70898 0
M  V30 10471 H 941.562 -1.87947 -2.30355 0
M  V30 10472 H 939.095 -1.06522 -1.1177 0
M  V30 10473 H 941.053 -0.149237 -4.10229 0
M  V30 10474 H 939.714 0.462045 -3.10683 0
M  V30 10475 H 938.907 -1.07706 -4.92357 0
M  V30 10476 H 938.509 -1.72826 -3.31673 0
M  V30 10477 H 940.801 -1.98508 -6.47766 0
M  V30 10478 H 941.744 -3.47755 -6.16824 0
M  V30 10479 H 942.152 -1.97465 -5.28836 0
M  V30 10480 N 941.55 1.18024 -1.04442 0
M  V30 10481 C 942.482 2.21294 -0.596799 0
M  V30 10482 C 943.495 1.59305 0.33552 0
M  V30 10483 O 944.684 1.7803 0.129443 0
M  V30 10484 C 941.784 3.38578 0.147648 0
M  V30 10485 C 940.957 4.30143 -0.793484 0
M  V30 10486 C 940.016 5.2612 -0.0916561 0
M  V30 10487 O 939.042 5.64586 -0.72331 0
M  V30 10488 N 940.244 5.68512 1.17364 0
M  V30 10489 H 943.009 2.6032 -1.48504 0
M  V30 10490 H 940.57 1.32847 -0.925374 0
M  V30 10491 H 942.562 3.99812 0.627098 0
M  V30 10492 H 941.132 2.98212 0.937466 0
M  V30 10493 H 940.352 3.66456 -1.45272 0
M  V30 10494 H 941.64 4.88216 -1.43258 0
M  V30 10495 H 941.038 5.39322 1.70729 0
M  V30 10496 H 939.595 6.31925 1.5973 0
M  V30 10497 N 943.028 0.824394 1.34319 0
M  V30 10498 C 944.275 0.413167 1.9824 0
M  V30 10499 C 944.603 -1.02412 1.65354 0
M  V30 10500 O 943.858 -1.72831 0.91803 0
M  V30 10501 C 944.157 0.564024 3.52921 0
M  V30 10502 C 943.823 1.96725 4.05722 0
M  V30 10503 C 942.485 2.35111 4.19853 0
M  V30 10504 C 944.837 2.88447 4.34106 0
M  V30 10505 C 942.165 3.64551 4.59695 0
M  V30 10506 C 944.517 4.17353 4.75394 0
M  V30 10507 C 943.181 4.55714 4.8773 0
M  V30 10508 H 942.451 0.151188 0.725412 0
M  V30 10509 H 945.098 1.04863 1.60238 0
M  V30 10510 H 943.403 -0.154816 3.91494 0
M  V30 10511 H 945.1 0.226347 4.00361 0
M  V30 10512 H 941.69 1.65908 3.95187 0
M  V30 10513 H 945.874 2.60034 4.22725 0
M  V30 10514 H 941.13 3.94097 4.67437 0
M  V30 10515 H 945.304 4.88512 4.96315 0
M  V30 10516 H 942.931 5.56064 5.1836 0
M  V30 10517 N 944.506 -1.46559 0.579492 0
M  V30 10518 C 945.731 -2.0729 0.0674595 0
M  V30 10519 C 946.156 -1.4259 -1.22677 0
M  V30 10520 O 945.514 -0.50857 -1.74021 0
M  V30 10521 C 945.562 -3.60492 -0.0882227 0
M  V30 10522 O 944.666 -3.96172 -1.14551 0
M  V30 10523 H 944.007 -0.661159 0.0613536 0
M  V30 10524 H 946.537 -1.88247 0.801519 0
M  V30 10525 H 946.547 -4.06929 -0.295411 0
M  V30 10526 H 945.222 -4.06976 0.856943 0
M  V30 10527 H 943.799 -3.61448 -0.917033 0
M  V30 10528 N 945.984 -0.3171 -1.54377 0
M  V30 10529 C 946.894 0.560867 -2.27797 0
M  V30 10530 C 947.91 1.13473 -1.31908 0
M  V30 10531 O 949.086 1.15608 -1.64914 0
M  V30 10532 C 946.151 1.70886 -3.0166 0
M  V30 10533 C 945.212 1.16745 -4.13121 0
M  V30 10534 C 944.445 2.26073 -4.83453 0
M  V30 10535 O 944.668 3.46292 -4.53252 0
M  V30 10536 O 943.602 1.91856 -5.70504 0
M  V30 10537 H 947.428 -0.035193 -3.0368 0
M  V30 10538 H 945.013 -0.0830062 -1.49169 0
M  V30 10539 H 946.895 2.37736 -3.47936 0
M  V30 10540 H 945.57 2.29122 -2.28658 0
M  V30 10541 H 944.477 0.464224 -3.71209 0
M  V30 10542 H 945.81 0.630307 -4.88147 0
M  V30 10543 N 947.462 1.57535 -0.0451378 0
M  V30 10544 C 948.425 2.1008 0.916461 0
M  V30 10545 C 949.425 1.01913 1.2438 0
M  V30 10546 O 950.615 1.2801 1.18148 0
M  V30 10547 C 947.747 2.58001 2.22818 0
M  V30 10548 H 948.94 2.96334 0.461076 0
M  V30 10549 H 946.493 1.54974 0.203169 0
M  V30 10550 H 947.228 1.75123 2.72951 0
M  V30 10551 H 947.013 3.3704 2.00366 0
M  V30 10552 H 948.503 2.98822 2.9171 0
M  V30 10553 N 948.94 -0.228186 1.55939 0
M  V30 10554 C 950.165 -0.974795 1.83064 0
M  V30 10555 C 950.59 -1.77426 0.624624 0
M  V30 10556 O 949.948 -1.76211 -0.426556 0
M  V30 10557 C 949.996 -1.87342 3.08116 0
M  V30 10558 O 949.1 -2.96784 2.86344 0
M  V30 10559 H 948.441 -0.276379 0.603747 0
M  V30 10560 H 950.971 -0.243507 2.03146 0
M  V30 10561 H 950.981 -2.28451 3.38045 0
M  V30 10562 H 949.656 -1.28575 3.95526 0
M  V30 10563 H 948.233 -2.59669 2.67631 0
M  V30 10564 N 950.418 -1.49637 -0.494624 0
M  V30 10565 C 951.665 -1.59445 -1.24834 0
M  V30 10566 C 951.993 -0.284028 -1.92415 0
M  V30 10567 O 951.248 0.728519 -1.81634 0
M  V30 10568 C 951.547 -2.70749 -2.33302 0
M  V30 10569 C 951.213 -4.12034 -1.83135 0
M  V30 10570 C 949.875 -4.50482 -1.69173 0
M  V30 10571 C 952.227 -5.00432 -1.4566 0
M  V30 10572 C 949.555 -5.75093 -1.16124 0
M  V30 10573 C 951.907 -6.25568 -0.940608 0
M  V30 10574 C 950.571 -6.62839 -0.787432 0
M  V30 10575 H 949.841 -0.583451 -0.456799 0
M  V30 10576 H 952.488 -1.8349 -0.548044 0
M  V30 10577 H 950.793 -2.407 -3.09145 0
M  V30 10578 H 952.49 -2.75546 -2.91334 0
M  V30 10579 H 949.08 -3.8169 -1.94964 0
M  V30 10580 H 953.264 -4.71379 -1.55291 0
M  V30 10581 H 948.52 -6.02665 -1.02982 0
M  V30 10582 H 952.694 -6.93439 -0.641467 0
M  V30 10583 H 950.321 -7.59279 -0.374191 0
M  V30 10584 N 951.896 0.746133 -1.38819 0
M  V30 10585 C 953.124 1.53539 -1.38685 0
M  V30 10586 C 953.539 1.88788 0.0215039 0
M  V30 10587 O 952.896 1.53312 0.990031 0
M  V30 10588 C 952.947 2.8299 -2.24942 0
M  V30 10589 O 952.668 2.49242 -3.60292 0
M  V30 10590 C 954.169 3.77085 -2.3307 0
M  V30 10591 H 951.389 0.474842 -0.474095 0
M  V30 10592 H 953.933 0.922844 -1.82493 0
M  V30 10593 H 952.088 3.40603 -1.84576 0
M  V30 10594 H 952.502 3.32319 -4.05789 0
M  V30 10595 H 953.976 4.64845 -2.97696 0
M  V30 10596 H 954.453 4.18049 -1.34655 0
M  V30 10597 H 955.059 3.25394 -2.73859 0
M  V30 10598 N 953.375 1.23811 0.975125 0
M  V30 10599 C 954.621 1.08502 1.72043 0
M  V30 10600 C 954.976 -0.373437 1.88741 0
M  V30 10601 O 954.269 -1.27248 1.43243 0
M  V30 10602 C 954.463 1.74994 3.11628 0
M  V30 10603 C 954.292 3.27155 3.08544 0
M  V30 10604 C 953.062 3.96338 3.1344 0
M  V30 10605 C 955.26 4.23851 2.91299 0
M  V30 10606 N 953.242 5.35439 3.00297 0
M  V30 10607 C 954.613 5.499 2.86375 0
M  V30 10608 C 956.668 4.14519 2.75824 0
M  V30 10609 C 955.371 6.67687 2.67558 0
M  V30 10610 C 957.397 5.31975 2.58372 0
M  V30 10611 C 956.759 6.56953 2.5415 0
M  V30 10612 H 952.858 0.451607 0.638416 0
M  V30 10613 H 955.442 1.56617 1.15669 0
M  V30 10614 H 953.613 1.29404 3.66209 0
M  V30 10615 H 955.345 1.52614 3.74822 0
M  V30 10616 H 952.1 3.47453 3.21828 0
M  V30 10617 H 952.524 6.08381 2.96987 0
M  V30 10618 H 957.166 3.18662 2.77874 0
M  V30 10619 H 954.884 7.63673 2.64251 0
M  V30 10620 H 958.47 5.266 2.47354 0
M  V30 10621 H 957.35 7.46309 2.40817 0
M  V30 10622 N 954.853 -1.17469 1.05066 0
M  V30 10623 C 955.763 -2.25089 0.661222 0
M  V30 10624 C 956.779 -1.71086 -0.31712 0
M  V30 10625 O 957.955 -2.00685 -0.169534 0
M  V30 10626 C 955.02 -3.46676 0.0406415 0
M  V30 10627 C 954.081 -4.15771 1.06927 0
M  V30 10628 C 953.314 -5.31553 0.478208 0
M  V30 10629 O 953.537 -5.6593 -0.712714 0
M  V30 10630 O 952.471 -5.89574 1.21185 0
M  V30 10631 H 956.297 -2.60685 1.5581 0
M  V30 10632 H 953.882 -1.24744 0.822147 0
M  V30 10633 H 955.764 -4.203 -0.304312 0
M  V30 10634 H 954.439 -3.1288 -0.829909 0
M  V30 10635 H 953.346 -3.44171 1.46619 0
M  V30 10636 H 954.679 -4.53591 1.91092 0
M  V30 10637 N 956.331 -0.831506 -1.3388 0
M  V30 10638 C 957.281 -0.231656 -2.2682 0
M  V30 10639 C 958.265 0.609075 -1.48926 0
M  V30 10640 O 959.457 0.462249 -1.70857 0
M  V30 10641 C 956.586 0.59846 -3.38043 0
M  V30 10642 C 955.672 -0.253372 -4.23342 0
M  V30 10643 N 956.063 -1.32854 -4.8804 0
M  V30 10644 C 954.361 -0.0391537 -4.45983 0
M  V30 10645 C 955.062 -1.85069 -5.51475 0
M  V30 10646 N 954.038 -1.15327 -5.31226 0
M  V30 10647 H 957.84 -1.05396 -2.74352 0
M  V30 10648 H 955.354 -0.675195 -1.47699 0
M  V30 10649 H 957.351 1.04443 -4.03605 0
M  V30 10650 H 956.011 1.41882 -2.92061 0
M  V30 10651 H 957.022 -1.71139 -4.88806 0
M  V30 10652 H 953.699 0.748356 -4.10738 0
M  V30 10653 H 955.089 -2.75065 -6.13016 0
M  V30 10654 N 957.809 1.4625 -0.587256 0
M  V30 10655 C 959.086 1.95599 -0.00750181 0
M  V30 10656 C 959.466 1.52989 1.45457 0
M  V30 10657 O 958.814 0.782731 2.14676 0
M  V30 10658 C 959.024 3.48513 -0.184309 0
M  V30 10659 C 960.372 4.24565 -0.0544972 0
M  V30 10660 O 961.396 3.5602 -0.113378 0
M  V30 10661 O 960.255 5.46445 0.0774075 0
M  V30 10662 H 957.349 0.825649 0.0472495 0
M  V30 10663 H 959.895 1.56512 -0.655893 0
M  V30 10664 H 958.667 3.72428 -1.20053 0
M  V30 10665 H 958.29 3.9444 0.500301 0
M  V30 10666 N 959.287 0.325282 1.54207 0
M  V30 10667 C 960.512 -0.281418 2.05482 0
M  V30 10668 C 960.937 -1.44869 1.19977 0
M  V30 10669 O 960.295 -1.80088 0.209275 0
M  V30 10670 C 960.343 -0.692029 3.53897 0
M  V30 10671 O 959.447 -1.7942 3.71325 0
M  V30 10672 H 958.788 -0.0504872 0.662078 0
M  V30 10673 H 961.318 0.474191 1.99029 0
M  V30 10674 H 961.328 -0.974219 3.96198 0
M  V30 10675 H 960.003 0.161709 4.15586 0
M  V30 10676 H 958.58 -1.51069 3.40929 0
M  V30 10677 N 960.765 -1.57509 0.0534917 0
M  V30 10678 C 961.675 -2.15152 -0.935249 0
M  V30 10679 C 962.691 -1.10991 -1.34003 0
M  V30 10680 O 963.867 -1.43171 -1.41648 0
M  V30 10681 C 960.932 -2.68699 -2.19093 0
M  V30 10682 C 959.993 -3.87666 -1.84428 0
M  V30 10683 C 959.226 -4.3865 -3.0401 0
M  V30 10684 O 959.449 -3.887 -4.17455 0
M  V30 10685 O 958.383 -5.30209 -2.84889 0
M  V30 10686 H 962.209 -2.99962 -0.475009 0
M  V30 10687 H 959.794 -1.48446 -0.16854 0
M  V30 10688 H 961.676 -3.03098 -2.92762 0
M  V30 10689 H 960.351 -1.86958 -2.6425 0
M  V30 10690 H 959.258 -3.58151 -1.08068 0
M  V30 10691 H 960.591 -4.70643 -1.44068 0
M  V30 10692 N 962.243 0.219913 -1.56058 0
M  V30 10693 C 963.206 1.25606 -1.91718 0
M  V30 10694 C 964.206 1.39721 -0.795912 0
M  V30 10695 O 965.396 1.37958 -1.06364 0
M  V30 10696 C 962.528 2.62961 -2.16943 0
M  V30 10697 H 963.721 0.951909 -2.84392 0
M  V30 10698 H 961.274 0.460398 -1.49365 0
M  V30 10699 H 962.009 2.98472 -1.26826 0
M  V30 10700 H 961.794 2.54093 -2.98629 0
M  V30 10701 H 963.284 3.37727 -2.45622 0
M  V30 10702 N 963.721 1.49897 0.486681 0
M  V30 10703 C 964.949 1.63837 1.26353 0
M  V30 10704 C 965.364 0.315428 1.86146 0
M  V30 10705 O 964.721 -0.700831 1.68507 0
M  V30 10706 C 964.772 2.71792 2.38351 0
M  V30 10707 O 964.493 3.98956 1.81013 0
M  V30 10708 C 965.994 2.96566 3.2949 0
M  V30 10709 H 963.214 0.551158 0.382709 0
M  V30 10710 H 965.758 1.96023 0.582694 0
M  V30 10711 H 963.913 2.42344 3.02238 0
M  V30 10712 H 964.327 4.58536 2.54647 0
M  V30 10713 H 965.801 3.75803 4.04322 0
M  V30 10714 H 966.278 2.07031 3.87343 0
M  V30 10715 H 966.884 3.27485 2.71355 0
M  V30 10716 N 965.199 -0.738761 1.39212 0
M  V30 10717 C 966.445 -1.50046 1.36433 0
M  V30 10718 C 966.778 -1.94157 -0.0409474 0
M  V30 10719 O 966.053 -1.66515 -1.00514 0
M  V30 10720 C 966.336 -2.74277 2.33333 0
M  V30 10721 C 966.189 -2.36209 3.82786 0
M  V30 10722 C 967.508 -3.76361 2.28123 0
M  V30 10723 H 964.627 -0.544294 0.496903 0
M  V30 10724 H 967.269 -0.845005 1.70175 0
M  V30 10725 H 965.419 -3.30204 2.04689 0
M  V30 10726 H 967.091 -1.85942 4.22165 0
M  V30 10727 H 965.334 -1.68483 3.99745 0
M  V30 10728 H 966.005 -3.25156 4.46069 0
M  V30 10729 H 968.481 -3.30009 2.53443 0
M  V30 10730 H 967.357 -4.60957 2.9801 0
M  V30 10731 H 967.618 -4.23013 1.28499 0
M  V30 10732 N 966.677 -1.24326 -0.968545 0
M  V30 10733 C 968.093 -1.00847 -1.23701 0
M  V30 10734 C 968.293 0.283235 -1.99499 0
M  V30 10735 O 967.349 0.999607 -2.31871 0
M  V30 10736 C 968.662 -2.22295 -2.02498 0
M  V30 10737 C 970.21 -2.26911 -2.15593 0
M  V30 10738 C 970.685 -3.47978 -2.97784 0
M  V30 10739 N 972.176 -3.48289 -3.05367 0
M  V30 10740 C 972.911 -4.38625 -3.69318 0
M  V30 10741 N 972.407 -5.39213 -4.34995 0
M  V30 10742 N 974.2 -4.26339 -3.66322 0
M  V30 10743 H 966.351 -2.07335 -0.461087 0
M  V30 10744 H 968.614 -0.909805 -0.26638 0
M  V30 10745 H 968.32 -3.161 -1.54188 0
M  V30 10746 H 968.194 -2.24344 -3.03232 0
M  V30 10747 H 970.581 -1.33639 -2.63106 0
M  V30 10748 H 970.662 -2.28888 -1.14209 0
M  V30 10749 H 970.306 -4.41564 -2.50965 0
M  V30 10750 H 970.236 -3.43244 -3.99364 0
M  V30 10751 H 972.727 -2.75517 -2.58648 0
M  V30 10752 H 973.04 -6.04378 -4.81608 0
M  V30 10753 H 971.385 -5.43101 -4.33667 0
M  V30 10754 H 974.576 -3.46991 -3.14189 0
M  V30 10755 H 974.749 -4.9694 -4.15878 0
M  V30 10756 N 968.156 1.1691 -1.05688 0
M  V30 10757 C 969.433 1.83266 -0.683601 0
M  V30 10758 C 969.813 1.93858 0.835602 0
M  V30 10759 O 969.161 1.47696 1.7435 0
M  V30 10760 C 969.371 3.20625 -1.37842 0
M  V30 10761 C 970.719 3.96473 -1.51967 0
M  V30 10762 O 971.743 3.30122 -1.33783 0
M  V30 10763 O 970.602 5.15393 -1.81749 0
M  V30 10764 H 967.696 0.791028 -0.241254 0
M  V30 10765 H 970.242 1.24165 -1.15677 0
M  V30 10766 H 969.014 3.07914 -2.41463 0
M  V30 10767 H 968.637 3.87398 -0.894921 0
M  V30 10768 N 969.634 0.838594 1.33437 0
M  V30 10769 C 970.88 0.434813 1.98084 0
M  V30 10770 C 971.213 -1.00331 1.66275 0
M  V30 10771 O 970.488 -1.70139 0.942501 0
M  V30 10772 C 970.771 0.655602 3.54082 0
M  V30 10773 C 970.624 2.14097 3.95578 0
M  V30 10774 C 971.943 0.101576 4.39983 0
M  V30 10775 H 969.062 0.159456 0.719544 0
M  V30 10776 H 971.704 1.05406 1.58081 0
M  V30 10777 H 969.854 0.128501 3.88287 0
M  V30 10778 H 971.526 2.73292 3.71631 0
M  V30 10779 H 969.769 2.62558 3.4532 0
M  V30 10780 H 970.44 2.24621 5.04231 0
M  V30 10781 H 972.916 0.552122 4.12421 0
M  V30 10782 H 971.792 0.28575 5.48156 0
M  V30 10783 H 972.053 -0.994616 4.30767 0
M  V30 10784 N 971.112 -1.45937 0.595003 0
M  V30 10785 C 972.06 -2.32155 -0.143798 0
M  V30 10786 C 973.054 -1.45221 -0.872198 0
M  V30 10787 O 974.26 -1.61777 -0.789191 0
M  V30 10788 H 970.635 -0.749165 -0.0652377 0
M  V30 10789 H 972.606 -2.92264 0.602005 0
M  V30 10790 C 971.355 -3.28615 -1.13611 0
M  V30 10791 H 970.678 -3.95496 -0.585044 0
M  V30 10792 H 972.118 -3.91699 -1.62321 0
M  V30 10793 C 970.577 -2.54863 -2.20333 0
M  V30 10794 O 971.107 -2.32071 -3.27881 0
M  V30 10795 N 969.313 -2.15213 -1.95274 0
M  V30 10796 H 968.86 -2.33949 -1.07822 0
M  V30 10797 H 968.818 -1.66188 -2.66888 0
M  V30 10798 N 972.59 -0.333456 -1.54032 0
M  V30 10799 C 973.52 0.52051 -2.27625 0
M  V30 10800 C 974.501 1.1111 -1.28797 0
M  V30 10801 O 975.686 1.13438 -1.57625 0
M  V30 10802 C 972.816 1.67663 -3.04149 0
M  V30 10803 C 971.77 1.21487 -4.10396 0
M  V30 10804 C 971.096 2.45872 -4.74817 0
M  V30 10805 C 972.396 0.322603 -5.21303 0
M  V30 10806 H 974.09 -0.0933823 -2.99254 0
M  V30 10807 H 971.636 -0.0463526 -1.43925 0
M  V30 10808 H 973.589 2.28041 -3.54366 0
M  V30 10809 H 972.313 2.31727 -2.30153 0
M  V30 10810 H 970.972 0.633966 -3.61077 0
M  V30 10811 H 970.62 3.0832 -3.97426 0
M  V30 10812 H 970.32 2.15662 -5.46593 0
M  V30 10813 H 971.844 3.06994 -5.27814 0
M  V30 10814 H 973.258 0.832942 -5.67217 0
M  V30 10815 H 971.655 0.112843 -5.99994 0
M  V30 10816 H 972.725 -0.643954 -4.80605 0
M  V30 10817 N 974.068 1.57479 -0.061844 0
M  V30 10818 C 975.345 1.84484 0.649993 0
M  V30 10819 C 975.725 0.952366 1.88396 0
M  V30 10820 O 975.073 0.0161035 2.28494 0
M  V30 10821 C 975.283 3.34452 0.997133 0
M  V30 10822 C 976.631 4.01724 1.37488 0
M  V30 10823 O 977.655 3.3914 1.08916 0
M  V30 10824 O 976.514 5.12091 1.90854 0
M  V30 10825 H 973.608 0.761798 0.321858 0
M  V30 10826 H 976.154 1.6945 -0.0920192 0
M  V30 10827 H 974.926 3.91115 0.120301 0
M  V30 10828 H 974.549 3.54713 1.79624 0
M  V30 10829 N 975.546 -0.211634 1.56173 0
M  V30 10830 C 976.795 -0.932647 1.78842 0
M  V30 10831 C 977.108 -1.85103 0.63217 0
M  V30 10832 O 978.314 -2.61143 0.742746 0
M  V30 10833 C 976.77 -1.70866 3.16753 0
M  V30 10834 C 976.378 -0.835934 4.40132 0
M  V30 10835 C 978.122 -2.4203 3.48743 0
M  V30 10836 C 976.029 -1.60987 5.69067 0
M  V30 10837 H 974.959 -0.351983 0.666801 0
M  V30 10838 H 977.61 -0.186284 1.82552 0
M  V30 10839 H 975.992 -2.4983 3.07247 0
M  V30 10840 H 977.166 -0.0861298 4.60719 0
M  V30 10841 H 975.481 -0.235941 4.15731 0
M  V30 10842 H 978.078 -3.00453 4.42303 0
M  V30 10843 H 978.421 -3.15406 2.71707 0
M  V30 10844 H 978.954 -1.70048 3.59623 0
M  V30 10845 H 975.693 -0.9192 6.49023 0
M  V30 10846 H 975.213 -2.33403 5.52524 0
M  V30 10847 H 976.892 -2.16798 6.09596 0
M  V30 10848 N 977.024 -1.50153 -0.478725 0
M  V30 10849 C 977.957 -1.63089 -1.59616 0
M  V30 10850 C 978.935 -0.479211 -1.55378 0
M  V30 10851 O 980.119 -0.697715 -1.75112 0
M  V30 10852 C 977.246 -1.60643 -2.9818 0
M  V30 10853 C 976.292 -2.81279 -3.206 0
M  V30 10854 S 977.125 -4.42681 -3.0132 0
M  V30 10855 C 978.281 -4.42915 -4.42241 0
M  V30 10856 H 978.514 -2.57612 -1.48402 0
M  V30 10857 H 976.047 -1.39321 -0.665513 0
M  V30 10858 H 978.005 -1.59917 -3.7807 0
M  V30 10859 H 976.666 -0.673684 -3.0679 0
M  V30 10860 H 975.859 -2.7585 -4.21809 0
M  V30 10861 H 975.461 -2.79533 -2.4847 0
M  V30 10862 H 977.753 -4.16007 -5.34737 0
M  V30 10863 H 978.696 -5.44477 -4.52715 0
M  V30 10864 H 979.104 -3.72715 -4.23962 0
M  V30 10865 N 978.502 0.731368 -1.39602 0
M  V30 10866 C 979.465 1.8271 -1.38383 0
M  V30 10867 C 980.465 1.58338 -0.280309 0
M  V30 10868 O 981.655 1.65671 -0.538402 0
M  V30 10869 C 978.787 3.20556 -1.16002 0
M  V30 10870 H 979.98 1.85193 -2.35889 0
M  V30 10871 H 977.533 0.935396 -1.2522 0
M  V30 10872 H 978.268 3.23732 -0.191927 0
M  V30 10873 H 978.053 3.39643 -1.9592 0
M  V30 10874 H 979.543 4.00612 -1.17899 0
M  V30 10875 N 979.98 1.24838 0.961938 0
M  V30 10876 C 981.228 1.08936 1.70227 0
M  V30 10877 C 981.549 -0.371582 1.91427 0
M  V30 10878 O 980.819 -1.26461 1.49614 0
M  V30 10879 H 979.399 0.400128 0.630799 0
M  V30 10880 H 982.061 1.56848 1.15692 0
M  V30 10881 H 981.157 1.59195 2.68446 0
M  V30 10882 N 981.458 -1.16348 1.06306 0
M  V30 10883 C 982.39 -2.20316 0.631929 0
M  V30 10884 C 983.403 -1.59819 -0.310133 0
M  V30 10885 O 984.592 -1.78213 -0.101103 0
M  V30 10886 C 981.692 -3.3877 -0.0937645 0
M  V30 10887 C 980.865 -4.28826 0.861816 0
M  V30 10888 C 979.924 -5.25908 0.175346 0
M  V30 10889 O 978.95 -5.63363 0.813039 0
M  V30 10890 N 980.152 -5.70307 -1.08305 0
M  V30 10891 H 982.917 -2.57925 1.52626 0
M  V30 10892 H 980.478 -1.31358 0.946392 0
M  V30 10893 H 982.47 -4.00759 -0.563412 0
M  V30 10894 H 981.04 -2.99666 -0.889904 0
M  V30 10895 H 980.26 -3.64098 1.51083 0
M  V30 10896 H 981.548 -4.85875 1.51007 0
M  V30 10897 H 980.946 -5.4197 -1.62127 0
M  V30 10898 H 979.503 -6.34387 -1.49656 0
M  V30 10899 N 982.937 -0.845659 -1.3299 0
M  V30 10900 C 983.867 -0.298957 -2.31578 0
M  V30 10901 C 984.848 0.597012 -1.59279 0
M  V30 10902 O 986.033 0.519142 -1.87132 0
M  V30 10903 C 983.163 0.521109 -3.43368 0
M  V30 10904 C 982.117 -0.279651 -4.27085 0
M  V30 10905 C 981.443 0.664591 -5.30554 0
M  V30 10906 C 982.743 -1.50046 -5.00283 0
M  V30 10907 H 984.437 -1.12272 -2.77552 0
M  V30 10908 H 981.983 -0.54132 -1.33438 0
M  V30 10909 H 983.936 0.913921 -4.1137 0
M  V30 10910 H 982.66 1.37815 -2.96099 0
M  V30 10911 H 981.319 -0.654106 -3.60717 0
M  V30 10912 H 980.967 1.51822 -4.79541 0
M  V30 10913 H 980.667 0.132871 -5.8745 0
M  V30 10914 H 982.191 1.05477 -6.01421 0
M  V30 10915 H 983.605 -1.18044 -5.61016 0
M  V30 10916 H 982.002 -1.96946 -5.66862 0
M  V30 10917 H 983.072 -2.26659 -4.28665 0
M  V30 10918 N 984.415 1.45619 -0.602734 0
M  V30 10919 C 985.661 2.02572 -0.0961759 0
M  V30 10920 C 985.994 1.47076 1.26815 0
M  V30 10921 O 985.269 0.643566 1.83544 0
M  V30 10922 C 985.552 3.60062 -0.0520032 0
M  V30 10923 C 985.405 4.25901 -1.44665 0
M  V30 10924 C 986.724 4.35446 0.638342 0
M  V30 10925 H 983.843 0.736099 -0.0364238 0
M  V30 10926 H 986.485 1.7353 -0.773776 0
M  V30 10927 H 984.635 3.84936 0.525032 0
M  V30 10928 H 986.307 4.12228 -2.0704 0
M  V30 10929 H 984.55 3.84489 -2.00874 0
M  V30 10930 H 985.221 5.34779 -1.36803 0
M  V30 10931 H 987.697 4.15837 0.147926 0
M  V30 10932 H 986.573 5.45176 0.63834 0
M  V30 10933 H 986.834 4.07962 1.70351 0
M  V30 10934 N 985.893 0.34162 1.53853 0
M  V30 10935 C 986.856 -0.503541 2.236 0
M  V30 10936 C 987.856 -1.02912 1.23554 0
M  V30 10937 O 989.046 -0.918678 1.48007 0
M  V30 10938 C 986.178 -1.70126 2.95415 0
M  V30 10939 H 987.371 0.106437 2.99711 0
M  V30 10940 H 984.924 0.0929408 1.56023 0
M  V30 10941 H 985.659 -2.34999 2.23486 0
M  V30 10942 H 985.444 -1.33161 3.68796 0
M  V30 10943 H 986.934 -2.30077 3.48503 0
M  V30 10944 N 987.371 -1.57444 0.0701946 0
M  V30 10945 C 988.617 -1.93716 -0.600178 0
M  V30 10946 C 988.95 -0.950329 -1.69359 0
M  V30 10947 O 988.225 0.0207123 -1.94489 0
M  V30 10948 C 988.508 -3.40266 -1.17861 0
M  V30 10949 C 988.361 -4.49706 -0.0919575 0
M  V30 10950 C 989.68 -3.87599 -2.08459 0
M  V30 10951 H 986.799 -0.704421 -0.216704 0
M  V30 10952 H 989.441 -1.89514 0.135838 0
M  V30 10953 H 987.591 -3.43977 -1.80587 0
M  V30 10954 H 989.263 -4.58116 0.541031 0
M  V30 10955 H 987.506 -4.29937 0.577639 0
M  V30 10956 H 988.177 -5.49381 -0.537048 0
M  V30 10957 H 990.653 -3.85883 -1.5567 0
M  V30 10958 H 989.529 -4.90755 -2.45867 0
M  V30 10959 H 989.79 -3.25448 -2.99226 0
M  V30 10960 N 988.849 0.203349 -1.56283 0
M  V30 10961 C 990.098 0.92315 -1.79334 0
M  V30 10962 C 990.411 1.84765 -0.641977 0
M  V30 10963 O 991.617 2.60745 -0.756584 0
M  V30 10964 C 990.073 1.69184 -3.17655 0
M  V30 10965 C 989.681 0.812581 -4.40569 0
M  V30 10966 C 991.425 2.40177 -3.50022 0
M  V30 10967 C 989.332 1.57967 -5.69913 0
M  V30 10968 H 988.262 0.348442 -0.668659 0
M  V30 10969 H 990.913 0.1766 -1.82648 0
M  V30 10970 H 989.295 2.48197 -3.08568 0
M  V30 10971 H 990.469 0.0616956 -4.60759 0
M  V30 10972 H 988.784 0.21389 -4.1585 0
M  V30 10973 H 991.381 2.98103 -4.4389 0
M  V30 10974 H 991.724 3.13961 -2.73376 0
M  V30 10975 H 992.257 1.68138 -3.6052 0
M  V30 10976 H 988.996 0.884767 -6.49501 0
M  V30 10977 H 988.516 2.3047 -5.53754 0
M  V30 10978 H 990.195 2.13562 -6.10737 0
M  V30 10979 N 990.327 1.50405 0.470755 0
M  V30 10980 C 991.575 1.61092 1.2204 0
M  V30 10981 C 991.896 0.313487 1.92464 0
M  V30 10982 O 991.166 -0.669043 1.84121 0
M  V30 10983 H 989.746 0.593618 0.45346 0
M  V30 10984 H 992.408 1.87184 0.542985 0
M  V30 10985 H 991.504 2.42222 1.96812 0
M  V30 10986 N 991.805 -0.723954 1.39988 0
M  V30 10987 C 993.216 -1.30273 1.33738 0
M  V30 10988 C 993.567 -1.96199 0.00690581 0
M  V30 10989 O 992.692 -1.97016 -0.895179 0
M  V30 10990 C 993.287 -2.36889 2.42217 0
M  V30 10991 C 991.846 -2.90412 2.39453 0
M  V30 10992 C 990.993 -1.64103 2.2353 0
M  V30 10993 H 993.944 -0.520672 1.49916 0
M  V30 10994 H 993.965 -3.17538 2.09642 0
M  V30 10995 H 993.477 -1.88878 3.39038 0
M  V30 10996 H 991.578 -3.42674 1.46304 0
M  V30 10997 H 991.691 -3.42775 3.34727 0
M  V30 10998 H 990.055 -1.88855 1.70897 0
M  V30 10999 H 990.838 -1.18128 3.22336 0
M  V30 11000 N 993.283 -1.25346 -0.955304 0
M  V30 11001 C 994.529 -1.10218 -1.70235 0
M  V30 11002 C 994.862 0.356124 -1.90907 0
M  V30 11003 O 994.137 1.26253 -1.47954 0
M  V30 11004 C 994.42 -1.85627 -3.08569 0
M  V30 11005 C 994.273 -3.39281 -2.95311 0
M  V30 11006 C 995.592 -1.63886 -4.08448 0
M  V30 11007 H 992.711 -0.401781 -0.617852 0
M  V30 11008 H 995.353 -1.5417 -1.11048 0
M  V30 11009 H 993.503 -1.48269 -3.59094 0
M  V30 11010 H 995.175 -3.8631 -2.52116 0
M  V30 11011 H 993.418 -3.67027 -2.31244 0
M  V30 11012 H 994.089 -3.87258 -3.93364 0
M  V30 11013 H 996.565 -1.96406 -3.6683 0
M  V30 11014 H 995.441 -2.19087 -5.03281 0
M  V30 11015 H 995.702 -0.580021 -4.38279 0
M  V30 11016 N 994.761 1.15782 -1.06922 0
M  V30 11017 C 996.009 1.86097 -0.788192 0
M  V30 11018 C 996.33 1.82475 0.687606 0
M  V30 11019 O 995.6 1.26266 1.49778 0
M  V30 11020 H 994.18 0.689008 -0.288577 0
M  V30 11021 H 996.842 1.40377 -1.35205 0
M  V30 11022 H 995.938 2.91358 -1.1188 0
M  V30 11023 N 996.239 0.8527 1.3254 0
M  V30 11024 C 997.464 0.468157 2.02047 0
M  V30 11025 C 997.889 -0.926967 1.63673 0
M  V30 11026 O 997.247 -1.60855 0.836378 0
M  V30 11027 C 997.295 0.612519 3.5536 0
M  V30 11028 O 996.399 -0.355506 4.10865 0
M  V30 11029 H 995.74 0.188401 0.636711 0
M  V30 11030 H 998.27 1.15135 1.6913 0
M  V30 11031 H 998.28 0.499315 4.04933 0
M  V30 11032 H 996.955 1.62988 3.82632 0
M  V30 11033 H 995.532 -0.198703 3.7237 0
M  V30 11034 N 997.718 -1.45297 0.610449 0
M  V30 11035 C 998.966 -2.01819 0.106548 0
M  V30 11036 C 999.287 -1.48102 -1.26849 0
M  V30 11037 O 998.557 -0.676411 -1.83852 0
M  V30 11038 H 997.137 -0.746113 0.0363982 0
M  V30 11039 H 999.799 -1.78061 0.792491 0
M  V30 11040 H 998.895 -3.12045 0.0585 0
M  V30 11041 N 999.196 -0.349774 -1.5367 0
M  V30 11042 C 1000.14 0.504121 -2.25227 0
M  V30 11043 C 1001.11 1.09048 -1.2529 0
M  V30 11044 O 1002.3 1.12594 -1.54037 0
M  V30 11045 C 999.438 1.64601 -3.03316 0
M  V30 11046 C 998.551 1.08635 -4.18118 0
M  V30 11047 C 997.686 2.19605 -4.83681 0
M  V30 11048 C 996.725 1.61023 -5.90541 0
M  V30 11049 N 995.862 2.6576 -6.49858 0
M  V30 11050 H 1000.7 -0.112621 -2.97787 0
M  V30 11051 H 998.239 -0.0673503 -1.46946 0
M  V30 11052 H 1000.2 2.31836 -3.46854 0
M  V30 11053 H 998.827 2.23364 -2.33041 0
M  V30 11054 H 997.879 0.304748 -3.79177 0
M  V30 11055 H 999.191 0.617911 -4.94958 0
M  V30 11056 H 998.345 2.94693 -5.30322 0
M  V30 11057 H 997.084 2.69795 -4.06278 0
M  V30 11058 H 996.089 0.844428 -5.43277 0
M  V30 11059 H 997.314 1.11677 -6.69855 0
M  V30 11060 H 995.26 3.15193 -5.75317 0
M  V30 11061 H 995.177 2.23557 -7.2219 0
M  V30 11062 H 996.445 3.40598 -7.01151 0
M  V30 11063 N 1000.67 1.57404 -0.0785433 0
M  V30 11064 C 1001.9 1.98492 0.601292 0
M  V30 11065 C 1002.32 0.956832 1.61945 0
M  V30 11066 O 1001.68 -0.0767502 1.81137 0
M  V30 11067 C 1001.73 3.38596 1.24036 0
M  V30 11068 O 1000.83 3.38461 2.35622 0
M  V30 11069 H 1000.17 0.645882 0.154054 0
M  V30 11070 H 1002.7 2.04012 -0.155056 0
M  V30 11071 H 1002.71 3.75929 1.5856 0
M  V30 11072 H 1001.39 4.12952 0.494341 0
M  V30 11073 H 999.967 3.12906 2.02841 0
M  V30 11074 N 1002.15 -0.195058 1.56388 0
M  V30 11075 C 1003.38 -0.935745 1.85091 0
M  V30 11076 C 1003.8 -1.76061 0.662118 0
M  V30 11077 O 1003.16 -1.77076 -0.389083 0
M  V30 11078 C 1003.21 -1.80764 3.1202 0
M  V30 11079 O 1002.31 -2.90643 2.92575 0
M  V30 11080 H 1001.65 -0.26351 0.609474 0
M  V30 11081 H 1004.18 -0.200362 2.03617 0
M  V30 11082 H 1004.19 -2.21229 3.42815 0
M  V30 11083 H 1002.87 -1.20157 3.98165 0
M  V30 11084 H 1001.44 -2.53934 2.73079 0
M  V30 11085 N 1003.63 -1.50653 -0.462772 0
M  V30 11086 C 1004.56 -1.73056 -1.5676 0
M  V30 11087 C 1005.54 -0.579699 -1.59917 0
M  V30 11088 O 1006.73 -0.819729 -1.76051 0
M  V30 11089 C 1003.86 -1.83234 -2.9503 0
M  V30 11090 C 1002.81 -2.98488 -3.06739 0
M  V30 11091 C 1002.14 -2.93818 -4.46738 0
M  V30 11092 C 1003.44 -4.38869 -2.83181 0
M  V30 11093 H 1005.13 -2.65562 -1.38265 0
M  V30 11094 H 1002.68 -1.27792 -0.663722 0
M  V30 11095 H 1004.63 -1.97491 -3.72257 0
M  V30 11096 H 1003.35 -0.873558 -3.14701 0
M  V30 11097 H 1002.01 -2.83895 -2.31946 0
M  V30 11098 H 1001.66 -1.95769 -4.63339 0
M  V30 11099 H 1001.36 -3.71197 -4.55507 0
M  V30 11100 H 1002.88 -3.10135 -5.25974 0
M  V30 11101 H 1004.3 -4.53945 -3.50153 0
M  V30 11102 H 1002.69 -5.17762 -3.03386 0
M  V30 11103 H 1003.76 -4.50663 -1.78972 0
M  V30 11104 N 1005.11 0.71652 -1.4037 0
M  V30 11105 C 1006.36 1.47193 -1.37903 0
M  V30 11106 C 1006.67 1.95593 0.0159939 0
M  V30 11107 O 1007.88 2.71009 0.163282 0
M  V30 11108 C 1006.33 2.6606 -2.42363 0
M  V30 11109 C 1005.94 2.24533 -3.87671 0
M  V30 11110 C 1007.68 3.438 -2.49001 0
M  V30 11111 C 1005.59 3.40234 -4.8373 0
M  V30 11112 H 1004.52 0.552811 -0.512753 0
M  V30 11113 H 1007.17 0.779894 -1.66102 0
M  V30 11114 H 1005.55 3.37429 -2.07262 0
M  V30 11115 H 1006.73 1.6059 -4.31911 0
M  V30 11116 H 1005.04 1.59839 -3.845 0
M  V30 11117 H 1007.64 4.29893 -3.17956 0
M  V30 11118 H 1007.98 3.8755 -1.52023 0
M  V30 11119 H 1008.52 2.79474 -2.83088 0
M  V30 11120 H 1005.26 3.01517 -5.82037 0
M  V30 11121 H 1004.78 4.03095 -4.44156 0
M  V30 11122 H 1006.45 4.06312 -5.03507 0
M  V30 11123 N 1006.59 1.25851 0.948643 0
M  V30 11124 C 1007.81 1.13813 1.73382 0
M  V30 11125 C 1008.24 -0.303615 1.85633 0
M  V30 11126 O 1007.59 -1.21997 1.34114 0
M  V30 11127 C 1007.64 1.80388 3.12238 0
M  V30 11128 O 1006.75 1.08759 3.978 0
M  V30 11129 H 1006.09 0.397006 0.532243 0
M  V30 11130 H 1008.62 1.66529 1.18866 0
M  V30 11131 H 1008.63 1.86913 3.62667 0
M  V30 11132 H 1007.3 2.85278 3.02637 0
M  V30 11133 H 1005.88 1.10157 3.56258 0
M  V30 11134 N 1008.06 -1.15214 1.07534 0
M  V30 11135 C 1009.03 -2.18209 0.701237 0
M  V30 11136 C 1010.03 -1.58693 -0.25946 0
M  V30 11137 O 1011.22 -1.74154 -0.0401744 0
M  V30 11138 C 1008.35 -3.40883 0.0338703 0
M  V30 11139 H 1009.54 -2.5282 1.61314 0
M  V30 11140 H 1007.1 -1.29707 0.872105 0
M  V30 11141 H 1007.83 -3.11843 -0.890187 0
M  V30 11142 H 1007.62 -3.85342 0.72486 0
M  V30 11143 H 1009.11 -4.17056 -0.213152 0
M  V30 11144 N 1009.54 -0.859717 -1.32086 0
M  V30 11145 C 1010.48 -0.252764 -2.26796 0
M  V30 11146 C 1011.45 0.612178 -1.50636 0
M  V30 11147 O 1012.64 0.567865 -1.79743 0
M  V30 11148 C 1009.76 0.643017 -3.3254 0
M  V30 11149 C 1008.81 -0.149211 -4.26239 0
M  V30 11150 S 1009.64 -1.52097 -5.13446 0
M  V30 11151 C 1010.8 -0.631035 -6.22711 0
M  V30 11152 H 1011.03 -1.05563 -2.77928 0
M  V30 11153 H 1008.57 -0.657639 -1.39694 0
M  V30 11154 H 1010.52 1.15418 -3.9394 0
M  V30 11155 H 1009.18 1.41974 -2.80183 0
M  V30 11156 H 1008.38 0.53328 -5.01171 0
M  V30 11157 H 1007.98 -0.592128 -3.69283 0
M  V30 11158 H 1010.27 0.162638 -6.77305 0
M  V30 11159 H 1011.21 -1.35116 -6.95089 0
M  V30 11160 H 1011.62 -0.203131 -5.64134 0
M  V30 11161 N 1011.02 1.44971 -0.618145 0
M  V30 11162 C 1011.95 2.33357 0.0815955 0
M  V30 11163 C 1012.93 1.47451 0.848072 0
M  V30 11164 O 1014.12 1.762 0.816532 0
M  V30 11165 C 1011.25 3.30324 1.07253 0
M  V30 11166 C 1010.2 4.25948 0.418563 0
M  V30 11167 C 1009.53 5.12685 1.51849 0
M  V30 11168 C 1010.83 5.18024 -0.66697 0
M  V30 11169 H 1012.52 2.92115 -0.656442 0
M  V30 11170 H 1010.07 1.40465 -0.317129 0
M  V30 11171 H 1012.02 3.91033 1.57069 0
M  V30 11172 H 1010.74 2.69748 1.8413 0
M  V30 11173 H 1009.4 3.66553 -0.0588308 0
M  V30 11174 H 1009.05 4.4847 2.2778 0
M  V30 11175 H 1008.75 5.7747 1.08637 0
M  V30 11176 H 1010.27 5.76264 2.01871 0
M  V30 11177 H 1011.69 5.72744 -0.252448 0
M  V30 11178 H 1010.09 5.91343 -1.02146 0
M  V30 11179 H 1011.16 4.59817 -1.53936 0
M  V30 11180 N 1012.5 0.357919 1.53482 0
M  V30 11181 C 1013.75 -0.2337 2.00744 0
M  V30 11182 C 1014.07 -1.49908 1.2471 0
M  V30 11183 O 1013.34 -1.92597 0.358235 0
M  V30 11184 H 1011.92 -0.0893474 0.741637 0
M  V30 11185 H 1014.58 0.482388 1.88836 0
M  V30 11186 H 1013.68 -0.466073 3.086 0
M  V30 11187 N 1013.98 -1.5736 0.0868897 0
M  V30 11188 C 1014.89 -2.17087 -0.889402 0
M  V30 11189 C 1015.9 -1.13809 -1.31619 0
M  V30 11190 O 1017.08 -1.46143 -1.38579 0
M  V30 11191 C 1014.14 -2.73286 -2.13344 0
M  V30 11192 C 1013.2 -3.91491 -1.76164 0
M  V30 11193 C 1012.44 -4.45 -2.94637 0
M  V30 11194 O 1012.66 -3.97467 -4.09116 0
M  V30 11195 O 1011.59 -5.36133 -2.73579 0
M  V30 11196 H 1015.42 -3.00902 -0.411275 0
M  V30 11197 H 1013.01 -1.4877 -0.137015 0
M  V30 11198 H 1014.89 -3.0924 -2.86266 0
M  V30 11199 H 1013.56 -1.92521 -2.60225 0
M  V30 11200 H 1012.47 -3.60363 -1.00447 0
M  V30 11201 H 1013.8 -4.73593 -1.34053 0
M  V30 11202 N 1015.45 0.186762 -1.56489 0
M  V30 11203 C 1016.39 1.25971 -1.9028 0
M  V30 11204 C 1017.37 1.43543 -0.763822 0
M  V30 11205 O 1018.55 1.58799 -1.01564 0
M  V30 11206 C 1015.68 2.62507 -2.14028 0
M  V30 11207 C 1014.72 2.61758 -3.36727 0
M  V30 11208 S 1015.56 2.12366 -4.9159 0
M  V30 11209 C 1016.71 3.5071 -5.18414 0
M  V30 11210 H 1016.94 0.971203 -2.80989 0
M  V30 11211 H 1014.48 0.390636 -1.49377 0
M  V30 11212 H 1016.44 3.41098 -2.28391 0
M  V30 11213 H 1015.1 2.88564 -1.24054 0
M  V30 11214 H 1014.29 3.62173 -3.50495 0
M  V30 11215 H 1013.89 1.91254 -3.214 0
M  V30 11216 H 1016.18 4.46622 -5.09445 0
M  V30 11217 H 1017.13 3.41829 -6.20128 0
M  V30 11218 H 1017.53 3.46008 -4.46026 0
M  V30 11219 N 1016.93 1.50896 0.454776 0
M  V30 11220 C 1017.84 1.73762 1.5762 0
M  V30 11221 C 1018.86 0.621206 1.62533 0
M  V30 11222 O 1020.03 0.901449 1.801 0
M  V30 11223 C 1017.1 1.84183 2.9373 0
M  V30 11224 C 1016.16 3.07982 2.99075 0
M  V30 11225 C 1015.39 3.17896 4.28693 0
M  V30 11226 O 1015.62 2.34184 5.20109 0
M  V30 11227 O 1014.55 4.10749 4.39964 0
M  V30 11228 H 1018.38 2.68856 1.41245 0
M  V30 11229 H 1015.96 1.35187 0.635984 0
M  V30 11230 H 1017.84 1.93123 3.74542 0
M  V30 11231 H 1016.52 0.922742 3.10269 0
M  V30 11232 H 1015.43 3.04531 2.17282 0
M  V30 11233 H 1016.76 3.99523 2.87476 0
M  V30 11234 N 1018.41 -0.709066 1.40748 0
M  V30 11235 C 1019.36 -1.84445 1.41714 0
M  V30 11236 C 1020.35 -1.66779 0.296818 0
M  V30 11237 O 1021.56 -1.73805 0.468181 0
M  V30 11238 H 1017.93 -0.607581 0.443114 0
M  V30 11239 H 1019.9 -1.80747 2.3743 0
M  V30 11240 C 1018.65 -3.22362 1.303 0
M  V30 11241 H 1017.98 -3.36565 2.15787 0
M  V30 11242 H 1019.42 -4.01922 1.35036 0
M  V30 11243 C 1017.88 -3.36897 0.0139015 0
M  V30 11244 O 1018.41 -3.90389 -0.946553 0
M  V30 11245 N 1016.61 -2.90543 -0.0577491 0
M  V30 11246 H 1016.16 -2.472 0.724574 0
M  V30 11247 H 1016.12 -3.00647 -0.919721 0
M  V30 11248 N 1019.89 -1.26353 -0.941956 0
M  V30 11249 C 1021.14 -1.12017 -1.69056 0
M  V30 11250 C 1021.47 0.335856 -1.91274 0
M  V30 11251 O 1020.74 1.24677 -1.49285 0
M  V30 11252 C 1021.03 -1.88889 -3.06583 0
M  V30 11253 C 1020.88 -3.42394 -2.91696 0
M  V30 11254 C 1022.2 -1.68209 -4.06686 0
M  V30 11255 H 1019.32 -0.408311 -0.613556 0
M  V30 11256 H 1021.96 -1.55339 -1.09407 0
M  V30 11257 H 1020.11 -1.5207 -3.57501 0
M  V30 11258 H 1021.78 -3.88962 -2.48005 0
M  V30 11259 H 1020.02 -3.69459 -2.27338 0
M  V30 11260 H 1020.7 -3.91408 -3.89235 0
M  V30 11261 H 1023.17 -2.00286 -3.64726 0
M  V30 11262 H 1022.05 -2.24412 -5.00929 0
M  V30 11263 H 1022.31 -0.626474 -4.37639 0
M  V30 11264 N 1021.37 1.14642 -1.08144 0
M  V30 11265 C 1022.32 2.17665 -0.678661 0
M  V30 11266 C 1023.3 1.58072 0.300336 0
M  V30 11267 O 1024.49 1.7664 0.112781 0
M  V30 11268 C 1021.62 3.43191 -0.0866362 0
M  V30 11269 C 1020.71 4.0982 -1.09126 0
M  V30 11270 N 1021.1 4.51814 -2.27372 0
M  V30 11271 C 1019.4 4.36272 -0.926411 0
M  V30 11272 C 1020.1 5.03581 -2.91172 0
M  V30 11273 N 1019.07 4.97624 -2.18795 0
M  V30 11274 H 1022.88 2.47872 -1.57914 0
M  V30 11275 H 1020.39 1.31296 -0.955772 0
M  V30 11276 H 1022.39 4.1632 0.219859 0
M  V30 11277 H 1021.05 3.14464 0.80886 0
M  V30 11278 H 1022.06 4.44941 -2.65044 0
M  V30 11279 H 1018.74 4.17414 -0.084492 0
M  V30 11280 H 1020.13 5.45969 -3.91621 0
M  V30 11281 N 1022.85 0.866709 1.31628 0
M  V30 11282 C 1024.09 0.475086 1.96437 0
M  V30 11283 C 1024.41 -0.975179 1.68865 0
M  V30 11284 O 1023.68 -1.68317 1.0023 0
M  V30 11285 H 1022.26 0.172695 0.726764 0
M  V30 11286 H 1024.93 1.10578 1.60494 0
M  V30 11287 H 1024.02 0.630123 3.05673 0
M  V30 11288 N 1024.32 -1.44642 0.625825 0
M  V30 11289 C 1025.27 -2.27762 -0.104042 0
M  V30 11290 C 1026.26 -1.38364 -0.821232 0
M  V30 11291 O 1027.45 -1.62214 -0.708213 0
M  V30 11292 C 1024.58 -3.25585 -1.08853 0
M  V30 11293 C 1023.66 -4.22472 -0.371241 0
M  V30 11294 N 1024.06 -5.02262 0.597226 0
M  V30 11295 C 1022.35 -4.4172 -0.616392 0
M  V30 11296 C 1023.05 -5.72678 1.02053 0
M  V30 11297 N 1022.03 -5.42404 0.360423 0
M  V30 11298 H 1025.83 -2.86858 0.639517 0
M  V30 11299 H 1023.35 -1.56015 0.450911 0
M  V30 11300 H 1025.34 -3.83885 -1.62597 0
M  V30 11301 H 1024 -2.68051 -1.83245 0
M  V30 11302 H 1025.01 -5.08643 0.974803 0
M  V30 11303 H 1021.69 -3.9529 -1.34359 0
M  V30 11304 H 1023.08 -6.46772 1.82033 0
M  V30 11305 N 1025.8 -0.366053 -1.5329 0
M  V30 11306 C 1027.05 0.224614 -2.00445 0
M  V30 11307 C 1027.36 1.49829 -1.2574 0
M  V30 11308 O 1028.57 2.16759 -1.63487 0
M  V30 11309 C 1027.03 0.450818 -3.57065 0
M  V30 11310 C 1026.63 -0.808257 -4.40649 0
M  V30 11311 C 1028.38 0.999116 -4.12575 0
M  V30 11312 C 1026.28 -0.551612 -5.88822 0
M  V30 11313 H 1025.21 0.0877114 -0.748881 0
M  V30 11314 H 1027.87 -0.484866 -1.76978 0
M  V30 11315 H 1026.25 1.22157 -3.76688 0
M  V30 11316 H 1027.42 -1.58184 -4.32798 0
M  V30 11317 H 1025.74 -1.27981 -3.96245 0
M  V30 11318 H 1028.33 1.20646 -5.20911 0
M  V30 11319 H 1028.68 1.96139 -3.67199 0
M  V30 11320 H 1029.21 0.288518 -3.96752 0
M  V30 11321 H 1025.95 -1.48423 -6.38475 0
M  V30 11322 H 1025.47 0.183462 -5.99519 0
M  V30 11323 H 1027.15 -0.177307 -6.46757 0
M  V30 11324 N 1027.28 1.57312 -0.0952337 0
M  V30 11325 C 1028.51 1.98697 0.57682 0
M  V30 11326 C 1028.92 0.974347 1.61716 0
M  V30 11327 O 1028.28 -0.036022 1.82464 0
M  V30 11328 C 1028.33 3.40133 1.2244 0
M  V30 11329 O 1028.05 4.37518 0.225678 0
M  V30 11330 C 1029.55 3.96522 1.98205 0
M  V30 11331 H 1026.77 0.65294 0.154629 0
M  V30 11332 H 1029.32 2.03754 -0.174562 0
M  V30 11333 H 1027.47 3.3609 1.92671 0
M  V30 11334 H 1027.89 5.199 0.693116 0
M  V30 11335 H 1029.36 4.97637 2.38875 0
M  V30 11336 H 1029.84 3.34347 2.84796 0
M  V30 11337 H 1030.44 4.04038 1.3279 0
M  V30 11338 N 1028.76 -0.17846 1.56586 0
M  V30 11339 C 1030.01 -0.894502 1.8078 0
M  V30 11340 C 1030.32 -1.8372 0.67129 0
M  V30 11341 O 1031.53 -2.59509 0.797971 0
M  V30 11342 C 1029.98 -1.64109 3.20306 0
M  V30 11343 C 1029.59 -0.742387 4.41806 0
M  V30 11344 C 1031.33 -2.34578 3.53798 0
M  V30 11345 C 1029.24 -1.4888 5.72354 0
M  V30 11346 H 1028.17 -0.33776 0.674117 0
M  V30 11347 H 1030.82 -0.14752 1.82906 0
M  V30 11348 H 1029.2 -2.43257 3.12477 0
M  V30 11349 H 1030.38 0.011615 4.60799 0
M  V30 11350 H 1028.69 -0.147705 4.16138 0
M  V30 11351 H 1031.29 -2.91004 4.48577 0
M  V30 11352 H 1031.63 -3.09572 2.78336 0
M  V30 11353 H 1032.17 -1.62381 3.63149 0
M  V30 11354 H 1028.9 -0.781325 6.50827 0
M  V30 11355 H 1028.42 -2.21631 5.57351 0
M  V30 11356 H 1030.1 -2.03819 6.14058 0
M  V30 11357 N 1030.24 -1.51135 -0.446768 0
M  V30 11358 C 1031.18 -1.71767 -1.54158 0
M  V30 11359 C 1032.15 -0.559201 -1.56404 0
M  V30 11360 O 1033.34 -0.792567 -1.7356 0
M  V30 11361 C 1030.48 -1.84006 -2.91952 0
M  V30 11362 C 1029.59 -3.11511 -2.99308 0
M  V30 11363 C 1028.73 -3.144 -4.28166 0
M  V30 11364 C 1027.76 -4.36258 -4.29355 0
M  V30 11365 N 1026.9 -4.3675 -5.49722 0
M  V30 11366 H 1031.74 -2.65224 -1.35869 0
M  V30 11367 H 1029.28 -1.31453 -0.660186 0
M  V30 11368 H 1031.24 -1.89083 -3.71892 0
M  V30 11369 H 1029.87 -0.939661 -3.08821 0
M  V30 11370 H 1028.92 -3.15788 -2.12089 0
M  V30 11371 H 1030.23 -4.01445 -2.96047 0
M  V30 11372 H 1029.38 -3.18341 -5.16473 0
M  V30 11373 H 1028.12 -2.22338 -4.3407 0
M  V30 11374 H 1027.13 -4.32503 -3.39442 0
M  V30 11375 H 1028.35 -5.29574 -4.25122 0
M  V30 11376 H 1026.3 -3.47554 -5.56365 0
M  V30 11377 H 1026.22 -5.20481 -5.48302 0
M  V30 11378 H 1027.48 -4.4487 -6.40086 0
M  V30 11379 N 1031.71 0.701592 -1.41122 0
M  V30 11380 C 1032.96 1.45871 -1.39879 0
M  V30 11381 C 1033.28 1.94999 -0.00668769 0
M  V30 11382 O 1032.55 1.71298 0.95047 0
M  V30 11383 H 1031.13 0.541231 -0.514857 0
M  V30 11384 H 1033.79 0.830803 -1.76306 0
M  V30 11385 H 1032.89 2.32479 -2.0823 0
M  V30 11386 N 1033.19 1.2685 0.935242 0
M  V30 11387 C 1034.42 1.15538 1.71635 0
M  V30 11388 C 1034.83 -0.288698 1.8658 0
M  V30 11389 O 1034.19 -1.19721 1.37743 0
M  V30 11390 C 1034.24 1.8259 3.11999 0
M  V30 11391 O 1033.96 3.21355 2.97763 0
M  V30 11392 C 1035.46 1.77307 4.06297 0
M  V30 11393 H 1032.68 0.402055 0.537208 0
M  V30 11394 H 1035.23 1.67582 1.17203 0
M  V30 11395 H 1033.38 1.3447 3.63313 0
M  V30 11396 H 1033.8 3.54626 3.86446 0
M  V30 11397 H 1035.27 2.28851 5.02326 0
M  V30 11398 H 1035.75 0.740823 4.32907 0
M  V30 11399 H 1036.35 2.25007 3.60904 0
M  V30 11400 N 1034.67 -1.14067 1.0875 0
M  V30 11401 C 1035.9 -1.89041 0.840902 0
M  V30 11402 C 1036.31 -1.78768 -0.60725 0
M  V30 11403 O 1035.67 -1.14945 -1.41753 0
M  V30 11404 C 1035.72 -3.38891 1.25838 0
M  V30 11405 O 1035.44 -3.48886 2.64972 0
M  V30 11406 C 1036.94 -4.30852 1.04315 0
M  V30 11407 H 1034.16 -0.598685 0.303014 0
M  V30 11408 H 1036.71 -1.44438 1.44769 0
M  V30 11409 H 1034.86 -3.81103 0.695627 0
M  V30 11410 H 1035.28 -4.41989 2.82393 0
M  V30 11411 H 1036.75 -5.34353 1.38461 0
M  V30 11412 H 1037.23 -4.39196 -0.0195784 0
M  V30 11413 H 1037.83 -3.944 1.59151 0
M  V30 11414 N 1036.15 -0.873678 -1.31166 0
M  V30 11415 C 1037.11 -0.337069 -2.26708 0
M  V30 11416 C 1038.11 0.51406 -1.52362 0
M  V30 11417 O 1039.3 0.322834 -1.71182 0
M  V30 11418 C 1036.43 0.520897 -3.36897 0
M  V30 11419 H 1037.63 -1.18056 -2.75686 0
M  V30 11420 H 1035.18 -0.649577 -1.42163 0
M  V30 11421 H 1035.91 1.38543 -2.93217 0
M  V30 11422 H 1035.7 -0.0886015 -3.92 0
M  V30 11423 H 1037.19 0.888497 -4.08039 0
M  V30 11424 N 1037.63 1.44308 -0.633487 0
M  V30 11425 C 1038.86 2.06085 -0.145852 0
M  V30 11426 C 1039.26 1.47432 1.18577 0
M  V30 11427 O 1038.61 0.592575 1.7388 0
M  V30 11428 C 1038.67 3.59477 0.0407848 0
M  V30 11429 C 1038.33 4.40607 -1.21304 0
M  V30 11430 C 1039.33 4.73937 -2.13728 0
M  V30 11431 C 1037.02 4.80943 -1.44911 0
M  V30 11432 C 1039.01 5.46489 -3.28068 0
M  V30 11433 C 1036.7 5.53243 -2.59548 0
M  V30 11434 C 1037.69 5.85936 -3.50953 0
M  V30 11435 O 1037.38 6.56764 -4.6359 0
M  V30 11436 H 1037.11 0.671484 -0.0780085 0
M  V30 11437 H 1039.67 1.86128 -0.868658 0
M  V30 11438 H 1037.9 3.77933 0.818761 0
M  V30 11439 H 1039.59 4.03013 0.483273 0
M  V30 11440 H 1040.35 4.43311 -1.96725 0
M  V30 11441 H 1036.23 4.54915 -0.746537 0
M  V30 11442 H 1039.78 5.71924 -3.99435 0
M  V30 11443 H 1035.67 5.83285 -2.76493 0
M  V30 11444 H 1036.44 6.75234 -4.62602 0
M  V30 11445 N 1039.1 0.374177 1.53094 0
M  V30 11446 C 1040.35 -0.213131 2.01677 0
M  V30 11447 C 1040.68 -1.47715 1.26071 0
M  V30 11448 O 1039.96 -1.91199 0.356834 0
M  V30 11449 C 1040.24 -0.496392 3.56662 0
M  V30 11450 C 1040.09 0.781859 4.42953 0
M  V30 11451 C 1041.41 -1.29339 4.20666 0
M  V30 11452 H 1038.53 -0.0759885 0.733072 0
M  V30 11453 H 1041.17 0.500765 1.83282 0
M  V30 11454 H 1039.32 -1.10455 3.72467 0
M  V30 11455 H 1041 1.41914 4.38928 0
M  V30 11456 H 1039.24 1.40041 4.10574 0
M  V30 11457 H 1039.91 0.538508 5.49367 0
M  V30 11458 H 1042.39 -0.778848 4.08746 0
M  V30 11459 H 1041.26 -1.46033 5.29118 0
M  V30 11460 H 1041.52 -2.30435 3.77296 0
M  V30 11461 N 1040.58 -1.57259 0.103575 0
M  V30 11462 C 1041.99 -1.81816 -0.424239 0
M  V30 11463 C 1042.34 -1.01976 -1.67617 0
M  V30 11464 O 1041.47 -0.251673 -2.14932 0
M  V30 11465 C 1042.06 -3.29783 -0.776453 0
M  V30 11466 C 1040.62 -3.55074 -1.24897 0
M  V30 11467 C 1039.77 -2.76172 -0.249875 0
M  V30 11468 H 1042.72 -1.55254 0.328913 0
M  V30 11469 H 1042.74 -3.43569 -1.63526 0
M  V30 11470 H 1042.25 -3.87865 0.134906 0
M  V30 11471 H 1040.36 -3.02332 -2.17775 0
M  V30 11472 H 1040.47 -4.637 -1.20495 0
M  V30 11473 H 1038.83 -2.43902 -0.733767 0
M  V30 11474 H 1039.62 -3.37007 0.65431 0
M  V30 11475 N 1042.06 0.170153 -1.56679 0
M  V30 11476 C 1042.99 1.23525 -1.93066 0
M  V30 11477 C 1044.01 1.40414 -0.823879 0
M  V30 11478 O 1045.19 1.40396 -1.10232 0
M  V30 11479 C 1042.29 2.60376 -2.16928 0
M  V30 11480 C 1041.47 2.6477 -3.4816 0
M  V30 11481 C 1040.53 3.82993 -3.60837 0
M  V30 11482 O 1039.55 3.68937 -4.33444 0
M  V30 11483 N 1040.75 4.99498 -2.95773 0
M  V30 11484 H 1043.52 0.926172 -2.8503 0
M  V30 11485 H 1041.08 0.359909 -1.57849 0
M  V30 11486 H 1043.07 3.37934 -2.22672 0
M  V30 11487 H 1041.64 2.83669 -1.31342 0
M  V30 11488 H 1040.86 1.73298 -3.54064 0
M  V30 11489 H 1042.15 2.64717 -4.34514 0
M  V30 11490 H 1041.55 5.13819 -2.36657 0
M  V30 11491 H 1040.11 5.74914 -3.07111 0
M  V30 11492 N 1043.54 1.5137 0.438746 0
M  V30 11493 C 1044.47 1.68774 1.55074 0
M  V30 11494 C 1045.48 0.568436 1.52554 0
M  V30 11495 O 1046.67 0.842707 1.57355 0
M  V30 11496 C 1043.77 1.68592 2.9399 0
M  V30 11497 C 1042.95 2.97084 3.2103 0
M  V30 11498 C 1042 2.89108 4.39663 0
M  V30 11499 O 1041.03 3.63052 4.38385 0
M  V30 11500 N 1042.23 2.04863 5.4315 0
M  V30 11501 H 1045 2.647 1.40549 0
M  V30 11502 H 1042.56 1.49238 0.627663 0
M  V30 11503 H 1044.55 1.60826 3.71372 0
M  V30 11504 H 1043.12 0.802657 3.02119 0
M  V30 11505 H 1042.34 3.18729 2.3196 0
M  V30 11506 H 1043.63 3.82143 3.35923 0
M  V30 11507 H 1043.03 1.4416 5.47023 0
M  V30 11508 H 1041.58 2.02977 6.1939 0
M  V30 11509 N 1045.02 -0.694098 1.41492 0
M  V30 11510 C 1046.24 -1.48789 1.44488 0
M  V30 11511 C 1046.67 -1.88028 0.0521588 0
M  V30 11512 O 1046.02 -1.54727 -0.944952 0
M  V30 11513 C 1046.07 -2.72586 2.3607 0
M  V30 11514 O 1045.18 -3.70128 1.81876 0
M  V30 11515 H 1044.52 -0.447758 0.490315 0
M  V30 11516 H 1047.05 -0.853036 1.85969 0
M  V30 11517 H 1047.06 -3.20877 2.51995 0
M  V30 11518 H 1045.73 -2.43363 3.37264 0
M  V30 11519 H 1044.31 -3.29069 1.75408 0
M  V30 11520 N 1046.49 -1.27344 -0.928501 0
M  V30 11521 C 1047.74 -1.14813 -1.67897 0
M  V30 11522 C 1048.1 0.303129 -1.89997 0
M  V30 11523 O 1047.39 1.21844 -1.47867 0
M  V30 11524 C 1047.58 -1.86439 -3.04918 0
M  V30 11525 C 1047.41 -3.38381 -2.96189 0
M  V30 11526 C 1046.18 -4.07698 -2.98514 0
M  V30 11527 C 1048.38 -4.3437 -2.75367 0
M  V30 11528 N 1046.36 -5.46215 -2.80218 0
M  V30 11529 C 1047.73 -5.60149 -2.65768 0
M  V30 11530 C 1049.79 -4.2447 -2.60249 0
M  V30 11531 C 1048.49 -6.77157 -2.42593 0
M  V30 11532 C 1050.52 -5.41198 -2.3845 0
M  V30 11533 C 1049.88 -6.65933 -2.29593 0
M  V30 11534 H 1045.98 -0.47499 -0.621215 0
M  V30 11535 H 1048.56 -1.60802 -1.09776 0
M  V30 11536 H 1046.73 -1.42907 -3.61154 0
M  V30 11537 H 1048.46 -1.6642 -3.68899 0
M  V30 11538 H 1045.22 -3.59158 -3.08711 0
M  V30 11539 H 1045.64 -6.18985 -2.74203 0
M  V30 11540 H 1050.29 -3.28756 -2.65856 0
M  V30 11541 H 1048 -7.72955 -2.35725 0
M  V30 11542 H 1051.59 -5.35417 -2.27639 0
M  V30 11543 H 1050.47 -7.54732 -2.12952 0
M  V30 11544 N 1047.97 1.13488 -1.09353 0
M  V30 11545 C 1049.22 1.841 -0.82401 0
M  V30 11546 C 1049.53 1.84393 0.652586 0
M  V30 11547 O 1050.74 2.5089 1.03762 0
M  V30 11548 C 1049.2 3.30523 -1.42418 0
M  V30 11549 C 1048.8 3.38621 -2.93326 0
M  V30 11550 C 1050.55 4.06182 -1.23356 0
M  V30 11551 C 1048.46 4.79311 -3.46432 0
M  V30 11552 H 1047.39 0.68974 -0.304589 0
M  V30 11553 H 1050.04 1.27866 -1.31615 0
M  V30 11554 H 1048.42 3.86555 -0.859727 0
M  V30 11555 H 1049.59 2.92587 -3.5599 0
M  V30 11556 H 1047.91 2.76426 -3.11412 0
M  V30 11557 H 1050.5 5.10047 -1.60488 0
M  V30 11558 H 1050.85 4.15936 -0.174152 0
M  V30 11559 H 1051.38 3.56477 -1.76547 0
M  V30 11560 H 1048.12 4.74748 -4.5199 0
M  V30 11561 H 1047.64 5.25842 -2.8853 0
M  V30 11562 H 1049.32 5.48227 -3.43593 0
M  V30 11563 N 1049.45 0.880621 1.30701 0
M  V30 11564 C 1050.38 0.301443 2.27209 0
M  V30 11565 C 1051.4 -0.541533 1.53529 0
M  V30 11566 O 1052.59 -0.361791 1.74795 0
M  V30 11567 C 1049.69 -0.59038 3.33718 0
M  V30 11568 C 1048.86 0.222549 4.36833 0
M  V30 11569 C 1047.92 -0.599083 5.22779 0
M  V30 11570 O 1046.94 -0.0233267 5.69195 0
M  V30 11571 N 1048.15 -1.90904 5.48211 0
M  V30 11572 H 1050.91 1.13083 2.77547 0
M  V30 11573 H 1048.47 0.743168 1.43835 0
M  V30 11574 H 1050.46 -1.14599 3.88135 0
M  V30 11575 H 1049.03 -1.32044 2.83343 0
M  V30 11576 H 1048.25 0.959606 3.82342 0
M  V30 11577 H 1049.54 0.779965 5.02786 0
M  V30 11578 H 1048.94 -2.3998 5.12275 0
M  V30 11579 H 1047.5 -2.4122 6.05521 0
M  V30 11580 N 1050.93 -1.4397 0.641131 0
M  V30 11581 C 1051.88 -2.32495 -0.0698668 0
M  V30 11582 C 1052.87 -1.47922 -0.825555 0
M  V30 11583 O 1054.08 -1.64206 -0.737323 0
M  V30 11584 H 1050.45 -0.750861 -0.0413706 0
M  V30 11585 H 1052.42 -2.90201 0.694682 0
M  V30 11586 C 1051.17 -3.32063 -1.03098 0
M  V30 11587 H 1050.5 -3.97157 -0.458923 0
M  V30 11588 H 1051.94 -3.96664 -1.49778 0
M  V30 11589 C 1050.39 -2.61743 -2.12113 0
M  V30 11590 O 1050.92 -2.42385 -3.20332 0
M  V30 11591 N 1049.13 -2.21316 -1.88328 0
M  V30 11592 H 1048.68 -2.37261 -1.00324 0
M  V30 11593 H 1048.64 -1.74594 -2.61465 0
M  V30 11594 N 1052.41 -0.382291 -1.52893 0
M  V30 11595 C 1053.66 0.201734 -2.01091 0
M  V30 11596 C 1053.98 1.47905 -1.2708 0
M  V30 11597 O 1053.25 1.92002 -0.38883 0
M  V30 11598 H 1051.83 0.0775373 -0.742965 0
M  V30 11599 H 1054.49 -0.512369 -1.88045 0
M  V30 11600 H 1053.58 0.416919 -3.09303 0
M  V30 11601 N 1053.89 1.57202 -0.111913 0
M  V30 11602 C 1055.11 1.99297 0.555713 0
M  V30 11603 C 1055.53 0.991444 1.60673 0
M  V30 11604 O 1054.89 -0.0166672 1.82492 0
M  V30 11605 C 1054.94 3.41413 1.18826 0
M  V30 11606 O 1054.66 4.37733 0.179261 0
M  V30 11607 C 1056.16 3.98602 1.93989 0
M  V30 11608 H 1053.38 0.654543 0.147695 0
M  V30 11609 H 1055.92 2.03557 -0.196163 0
M  V30 11610 H 1054.08 3.38115 1.89096 0
M  V30 11611 H 1054.49 5.20606 0.637935 0
M  V30 11612 H 1055.97 5.00143 2.33584 0
M  V30 11613 H 1056.44 3.37349 2.81233 0
M  V30 11614 H 1057.05 4.05424 1.28497 0
M  V30 11615 N 1055.36 -0.161842 1.56767 0
M  V30 11616 C 1056.61 -0.875278 1.81719 0
M  V30 11617 C 1056.93 -1.82998 0.690739 0
M  V30 11618 O 1058.13 -2.58648 0.82545 0
M  V30 11619 C 1056.59 -1.60703 3.22029 0
M  V30 11620 C 1056.2 -0.695486 4.42569 0
M  V30 11621 C 1057.94 -2.30813 3.56266 0
M  V30 11622 C 1055.85 -1.42801 5.73901 0
M  V30 11623 H 1054.78 -0.330591 0.677662 0
M  V30 11624 H 1057.43 -0.128112 1.83052 0
M  V30 11625 H 1055.81 -2.39929 3.1504 0
M  V30 11626 H 1056.98 0.0604882 4.6076 0
M  V30 11627 H 1055.3 -0.10356 4.16271 0
M  V30 11628 H 1057.9 -2.86229 4.51638 0
M  V30 11629 H 1058.24 -3.06603 2.81604 0
M  V30 11630 H 1058.77 -1.5852 3.64851 0
M  V30 11631 H 1055.51 -0.712253 6.51619 0
M  V30 11632 H 1055.03 -2.15707 5.5967 0
M  V30 11633 H 1056.71 -1.97295 6.16185 0
M  V30 11634 N 1056.84 -1.516 -0.430713 0
M  V30 11635 C 1057.79 -1.73392 -1.52328 0
M  V30 11636 C 1058.76 -0.575758 -1.55802 0
M  V30 11637 O 1059.94 -0.810931 -1.72709 0
M  V30 11638 C 1057.08 -1.87092 -2.89984 0
M  V30 11639 C 1056.2 -3.14668 -2.95987 0
M  V30 11640 C 1055.33 -3.18923 -4.24807 0
M  V30 11641 C 1054.37 -4.40787 -4.24703 0
M  V30 11642 N 1053.51 -4.42556 -5.45059 0
M  V30 11643 H 1058.35 -2.6665 -1.33048 0
M  V30 11644 H 1055.88 -1.32146 -0.646207 0
M  V30 11645 H 1057.84 -1.93017 -3.69865 0
M  V30 11646 H 1056.47 -0.972363 -3.07807 0
M  V30 11647 H 1055.52 -3.1802 -2.08728 0
M  V30 11648 H 1056.84 -4.04562 -2.91772 0
M  V30 11649 H 1055.99 -3.23801 -5.13067 0
M  V30 11650 H 1054.73 -2.2693 -4.31688 0
M  V30 11651 H 1053.73 -4.36079 -3.34836 0
M  V30 11652 H 1054.96 -5.34053 -4.19481 0
M  V30 11653 H 1052.91 -3.53435 -5.52648 0
M  V30 11654 H 1052.82 -5.26267 -5.42751 0
M  V30 11655 H 1054.09 -4.51634 -6.35332 0
M  V30 11656 N 1058.32 0.686584 -1.41858 0
M  V30 11657 C 1059.6 1.44176 -1.32185 0
M  V30 11658 C 1059.98 2.11049 0.046362 0
M  V30 11659 O 1059.32 2.02365 1.06117 0
M  V30 11660 C 1059.53 2.45385 -2.48168 0
M  V30 11661 C 1060.88 3.10375 -2.89746 0
M  V30 11662 O 1061.91 2.55711 -2.47973 0
M  V30 11663 O 1060.77 4.09404 -3.62009 0
M  V30 11664 H 1057.86 0.642513 -0.520678 0
M  V30 11665 H 1060.41 0.716303 -1.53841 0
M  V30 11666 H 1059.18 1.94687 -3.3943 0
M  V30 11667 H 1058.8 3.25428 -2.28435 0
M  V30 11668 N 1059.8 1.27835 0.921735 0
M  V30 11669 C 1060.75 1.1092 2.04449 0
M  V30 11670 C 1061.74 0.0306469 1.69372 0
M  V30 11671 O 1062.95 0.188818 1.79007 0
M  V30 11672 H 1059.32 0.341973 0.669745 0
M  V30 11673 H 1061.29 2.06026 2.1586 0
M  V30 11674 C 1060.04 0.779443 3.38851 0
M  V30 11675 H 1059.36 1.60131 3.66331 0
M  V30 11676 H 1060.8 0.700999 4.18165 0
M  V30 11677 C 1059.26 -0.51647 3.32918 0
M  V30 11678 O 1059.79 -1.54914 3.70627 0
M  V30 11679 N 1058 -0.514276 2.86013 0
M  V30 11680 H 1057.55 0.32651 2.55522 0
M  V30 11681 H 1057.5 -1.38141 2.82426 0
M  V30 11682 N 1061.28 -1.12907 1.09954 0
M  V30 11683 C 1062.52 -1.83661 0.833761 0
M  V30 11684 C 1062.84 -1.84736 -0.642798 0
M  V30 11685 O 1064.04 -2.51437 -1.0243 0
M  V30 11686 C 1062.5 -3.29763 1.44168 0
M  V30 11687 C 1062.11 -3.3706 2.95118 0
M  V30 11688 C 1063.85 -4.05522 1.25509 0
M  V30 11689 C 1061.76 -4.77467 3.48969 0
M  V30 11690 H 1060.69 -0.688115 0.308242 0
M  V30 11691 H 1063.34 -1.27166 1.32291 0
M  V30 11692 H 1061.72 -3.86094 0.880215 0
M  V30 11693 H 1062.9 -2.90695 3.57537 0
M  V30 11694 H 1061.21 -2.7477 3.12874 0
M  V30 11695 H 1063.81 -5.09188 1.63191 0
M  V30 11696 H 1064.15 -4.15837 0.196208 0
M  V30 11697 H 1064.68 -3.55536 1.78435 0
M  V30 11698 H 1061.42 -4.72344 4.54501 0
M  V30 11699 H 1060.94 -5.24305 2.91315 0
M  V30 11700 H 1062.62 -5.46397 3.46495 0
M  V30 11701 N 1062.75 -0.88754 -1.30232 0
M  V30 11702 C 1063.68 -0.372481 -2.3051 0
M  V30 11703 C 1064.66 0.546037 -1.61098 0
M  V30 11704 O 1065.85 0.459345 -1.88689 0
M  V30 11705 C 1062.98 0.411605 -3.44852 0
M  V30 11706 C 1061.93 -0.415383 -4.2598 0
M  V30 11707 C 1061.26 0.495463 -5.324 0
M  V30 11708 C 1062.56 -1.65886 -4.95257 0
M  V30 11709 H 1064.25 -1.21045 -2.7384 0
M  V30 11710 H 1061.8 -0.583498 -1.31648 0
M  V30 11711 H 1063.75 0.782584 -4.1407 0
M  V30 11712 H 1062.48 1.28325 -3.00334 0
M  V30 11713 H 1061.14 -0.768534 -3.58454 0
M  V30 11714 H 1060.78 1.36489 -4.84128 0
M  V30 11715 H 1060.48 -0.0540885 -5.87575 0
M  V30 11716 H 1062.01 0.862901 -6.04472 0
M  V30 11717 H 1063.42 -1.35832 -5.56976 0
M  V30 11718 H 1061.82 -2.14881 -5.60309 0
M  V30 11719 H 1062.89 -2.40181 -4.21237 0
M  V30 11720 N 1064.23 1.43628 -0.648757 0
M  V30 11721 C 1065.48 2.01864 -0.160336 0
M  V30 11722 C 1065.81 1.51148 1.22412 0
M  V30 11723 O 1065.06 0.693168 1.83013 0
M  V30 11724 C 1065.36 3.57214 -0.115282 0
M  V30 11725 C 1065.03 4.27258 -1.44088 0
M  V30 11726 C 1063.69 4.46109 -1.8039 0
M  V30 11727 C 1066.04 4.66962 -2.31508 0
M  V30 11728 C 1063.37 5.01928 -3.03785 0
M  V30 11729 C 1065.72 5.24148 -3.54191 0
M  V30 11730 C 1064.39 5.41216 -3.90694 0
M  V30 11731 H 1063.66 0.738674 -0.0586712 0
M  V30 11732 H 1066.3 1.72163 -0.838578 0
M  V30 11733 H 1064.61 3.86431 0.646395 0
M  V30 11734 H 1066.3 4.00025 0.279425 0
M  V30 11735 H 1062.89 4.12928 -1.14842 0
M  V30 11736 H 1067.08 4.52095 -2.04753 0
M  V30 11737 H 1062.33 5.13328 -3.32122 0
M  V30 11738 H 1066.51 5.53861 -4.22151 0
M  V30 11739 H 1064.14 5.84234 -4.8639 0
M  V30 11740 N 1065.71 0.390394 1.52688 0
M  V30 11741 C 1066.96 -0.191067 2.01195 0
M  V30 11742 C 1067.28 -1.47229 1.27862 0
M  V30 11743 O 1066.55 -1.91793 0.399007 0
M  V30 11744 H 1065.13 -0.073596 0.743366 0
M  V30 11745 H 1067.79 0.522334 1.8777 0
M  V30 11746 H 1066.89 -0.40051 3.0952 0
M  V30 11747 N 1067.19 -1.57141 0.120249 0
M  V30 11748 C 1068.42 -1.99589 -0.545136 0
M  V30 11749 C 1068.83 -0.999951 -1.60145 0
M  V30 11750 O 1068.19 0.00698897 -1.82499 0
M  V30 11751 C 1068.24 -3.42038 -1.17014 0
M  V30 11752 O 1067.96 -4.37822 -0.156044 0
M  V30 11753 C 1069.46 -3.99625 -1.91872 0
M  V30 11754 H 1066.68 -0.655318 -0.144222 0
M  V30 11755 H 1069.23 -2.0345 0.206955 0
M  V30 11756 H 1067.38 -3.39113 -1.873 0
M  V30 11757 H 1067.79 -5.20937 -0.610317 0
M  V30 11758 H 1069.27 -5.01374 -2.30928 0
M  V30 11759 H 1069.75 -3.38836 -2.7944 0
M  V30 11760 H 1070.35 -4.061 -1.26345 0
M  V30 11761 N 1068.67 0.153526 -1.5685 0
M  V30 11762 C 1069.58 1.20932 -2.01029 0
M  V30 11763 C 1070.59 1.47401 -0.924598 0
M  V30 11764 O 1071.77 1.592 -1.23359 0
M  V30 11765 C 1068.83 2.52438 -2.37647 0
M  V30 11766 C 1067.89 2.33673 -3.60132 0
M  V30 11767 C 1067.13 3.58909 -3.94994 0
M  V30 11768 O 1067.35 4.64823 -3.30599 0
M  V30 11769 O 1066.28 3.5196 -4.8827 0
M  V30 11770 H 1070.11 0.864273 -2.91143 0
M  V30 11771 H 1067.7 0.361755 -1.44954 0
M  V30 11772 H 1069.58 3.29981 -2.62088 0
M  V30 11773 H 1068.25 2.86486 -1.5069 0
M  V30 11774 H 1067.16 1.54102 -3.40886 0
M  V30 11775 H 1068.49 2.04544 -4.47686 0
M  V30 11776 N 1070.14 1.51827 0.422667 0
M  V30 11777 C 1071.39 1.6522 1.17084 0
M  V30 11778 C 1071.72 0.375508 1.90841 0
M  V30 11779 O 1070.97 -0.641029 1.84903 0
M  V30 11780 C 1071.27 2.81572 2.20119 0
M  V30 11781 C 1070.94 4.20303 1.63268 0
M  V30 11782 C 1069.6 4.5804 1.47488 0
M  V30 11783 C 1071.95 5.06812 1.21618 0
M  V30 11784 C 1069.28 5.79979 0.885531 0
M  V30 11785 C 1071.63 6.29343 0.641071 0
M  V30 11786 C 1070.3 6.65841 0.470286 0
M  V30 11787 H 1069.57 0.604581 0.428442 0
M  V30 11788 H 1072.21 1.85896 0.459874 0
M  V30 11789 H 1070.52 2.55175 2.97309 0
M  V30 11790 H 1072.22 2.89132 2.77856 0
M  V30 11791 H 1068.81 3.90557 1.76531 0
M  V30 11792 H 1072.99 4.78251 1.32624 0
M  V30 11793 H 1068.25 6.06892 0.741105 0
M  V30 11794 H 1072.42 6.9571 0.309888 0
M  V30 11795 H 1070.05 7.60199 0.0115038 0
M  V30 11796 N 1071.62 -0.679052 1.4222 0
M  V30 11797 C 1072.57 -1.81398 1.45594 0
M  V30 11798 C 1073.56 -1.66112 0.332127 0
M  V30 11799 O 1074.77 -1.72772 0.504942 0
M  V30 11800 H 1071.15 -0.598045 0.455902 0
M  V30 11801 H 1073.12 -1.7567 2.41211 0
M  V30 11802 C 1071.87 -3.19525 1.37109 0
M  V30 11803 H 1071.19 -3.31912 2.22878 0
M  V30 11804 H 1072.63 -3.98967 1.43531 0
M  V30 11805 C 1071.09 -3.36792 0.0853593 0
M  V30 11806 O 1071.62 -3.92309 -0.863532 0
M  V30 11807 N 1069.82 -2.906 0.00389229 0
M  V30 11808 H 1069.37 -2.45607 0.776846 0
M  V30 11809 H 1069.33 -3.0253 -0.855742 0
M  V30 11810 N 1073.1 -1.28322 -0.914942 0
M  V30 11811 C 1074.01 -1.13993 -2.05043 0
M  V30 11812 C 1075.03 -0.0667921 -1.73872 0
M  V30 11813 O 1076.2 -0.275845 -1.99502 0
M  V30 11814 C 1073.27 -0.801856 -3.373 0
M  V30 11815 C 1072.33 -1.95723 -3.82088 0
M  V30 11816 C 1071.56 -1.63519 -5.08033 0
M  V30 11817 O 1071.78 -0.54899 -5.67752 0
M  V30 11818 O 1070.72 -2.47844 -5.48504 0
M  V30 11819 H 1074.54 -2.09313 -2.2005 0
M  V30 11820 H 1072.13 -1.0763 -1.03616 0
M  V30 11821 H 1074.01 -0.627214 -4.16706 0
M  V30 11822 H 1072.69 0.121696 -3.23471 0
M  V30 11823 H 1071.59 -2.18702 -3.03514 0
M  V30 11824 H 1072.93 -2.86144 -4.00478 0
M  V30 11825 N 1074.58 1.12322 -1.10551 0
M  V30 11826 C 1075.53 2.18087 -0.755424 0
M  V30 11827 C 1076.5 1.6391 0.268805 0
M  V30 11828 O 1077.68 1.90227 0.147813 0
M  V30 11829 C 1074.82 3.4455 -0.194713 0
M  V30 11830 C 1073.93 4.12775 -1.27439 0
M  V30 11831 C 1073.07 5.26891 -0.675194 0
M  V30 11832 C 1072.11 5.86985 -1.73536 0
M  V30 11833 N 1071.24 6.92512 -1.15635 0
M  V30 11834 H 1076.08 2.47379 -1.66155 0
M  V30 11835 H 1073.62 1.21452 -0.829924 0
M  V30 11836 H 1075.58 4.16936 0.148275 0
M  V30 11837 H 1074.21 3.15671 0.674638 0
M  V30 11838 H 1073.26 3.38556 -1.73448 0
M  V30 11839 H 1074.57 4.53506 -2.07687 0
M  V30 11840 H 1073.73 6.06046 -0.281723 0
M  V30 11841 H 1072.47 4.87442 0.158708 0
M  V30 11842 H 1071.47 5.06517 -2.13825 0
M  V30 11843 H 1072.7 6.28505 -2.57213 0
M  V30 11844 H 1070.64 6.55098 -0.343928 0
M  V30 11845 H 1070.56 7.31848 -1.89565 0
M  V30 11846 H 1071.83 7.75492 -0.789463 0
M  V30 11847 N 1076.06 0.894434 1.2976 0
M  V30 11848 C 1077.47 0.589778 1.48303 0
M  V30 11849 C 1077.67 -0.870085 1.81746 0
M  V30 11850 O 1076.73 -1.65065 1.91076 0
M  V30 11851 C 1078.04 1.51107 2.59975 0
M  V30 11852 C 1079.59 1.51571 2.73853 0
M  V30 11853 C 1080.06 2.42316 3.88648 0
M  V30 11854 N 1081.56 2.40333 3.95973 0
M  V30 11855 C 1082.29 3.07254 4.84131 0
M  V30 11856 N 1081.79 3.83435 5.77018 0
M  V30 11857 N 1083.58 2.96438 4.77578 0
M  V30 11858 H 1075.73 1.83871 1.06327 0
M  V30 11859 H 1077.99 0.78758 0.527657 0
M  V30 11860 H 1077.7 2.55097 2.42112 0
M  V30 11861 H 1077.57 1.22767 3.56662 0
M  V30 11862 H 1079.96 0.483277 2.91116 0
M  V30 11863 H 1080.04 1.83946 1.77757 0
M  V30 11864 H 1079.69 3.4565 3.72141 0
M  V30 11865 H 1079.62 2.07252 4.84101 0
M  V30 11866 H 1082.11 1.84979 3.29532 0
M  V30 11867 H 1082.42 4.31565 6.4107 0
M  V30 11868 H 1080.76 3.87542 5.7692 0
M  V30 11869 H 1083.96 2.36442 4.03996 0
M  V30 11870 H 1084.13 3.48867 5.46073 0
M  V30 11871 N 1077.53 -1.43282 0.656365 0
M  V30 11872 C 1078.76 -2.05826 0.178619 0
M  V30 11873 C 1079.17 -1.493 -1.16216 0
M  V30 11874 O 1078.52 -0.620163 -1.72915 0
M  V30 11875 C 1078.58 -3.59496 0.0164101 0
M  V30 11876 C 1078.24 -4.38621 1.28298 0
M  V30 11877 C 1079.24 -4.70477 2.21241 0
M  V30 11878 C 1076.92 -4.78577 1.52544 0
M  V30 11879 C 1078.92 -5.412 3.36721 0
M  V30 11880 C 1076.6 -5.49044 2.68316 0
M  V30 11881 C 1077.6 -5.80279 3.6023 0
M  V30 11882 O 1077.29 -6.49306 4.7398 0
M  V30 11883 H 1077.02 -0.670158 0.0886814 0
M  V30 11884 H 1079.58 -1.84722 0.89816 0
M  V30 11885 H 1077.81 -3.79188 -0.758532 0
M  V30 11886 H 1079.5 -4.03731 -0.419096 0
M  V30 11887 H 1080.26 -4.40125 2.03753 0
M  V30 11888 H 1076.14 -4.5367 0.818816 0
M  V30 11889 H 1079.68 -5.65497 4.08483 0
M  V30 11890 H 1075.58 -5.78813 2.85738 0
M  V30 11891 H 1076.35 -6.67789 4.73286 0
M  V30 11892 N 1079.01 -0.398486 -1.52479 0
M  V30 11893 C 1079.95 0.467426 -2.24383 0
M  V30 11894 C 1080.96 1.01908 -1.26959 0
M  V30 11895 O 1082.15 0.919843 -1.52974 0
M  V30 11896 C 1079.25 1.66146 -2.95379 0
M  V30 11897 C 1078.42 1.23557 -4.19586 0
M  V30 11898 C 1077.48 2.29532 -4.73499 0
M  V30 11899 O 1076.51 1.90561 -5.36354 0
M  V30 11900 N 1077.71 3.61564 -4.5415 0
M  V30 11901 H 1080.47 -0.148653 -2.99331 0
M  V30 11902 H 1078.03 -0.225313 -1.60325 0
M  V30 11903 H 1080.03 2.36585 -3.28344 0
M  V30 11904 H 1078.6 2.18369 -2.23682 0
M  V30 11905 H 1077.82 0.359715 -3.92555 0
M  V30 11906 H 1079.1 0.927812 -5.00269 0
M  V30 11907 H 1078.5 3.95983 -4.03998 0
M  V30 11908 H 1077.06 4.2801 -4.9158 0
M  V30 11909 N 1080.49 1.57075 -0.12858 0
M  V30 11910 C 1081.42 2.12907 0.848708 0
M  V30 11911 C 1082.44 1.07406 1.22343 0
M  V30 11912 O 1083.63 1.34746 1.17071 0
M  V30 11913 C 1080.73 2.62167 2.1476 0
M  V30 11914 C 1079.9 3.91871 1.94309 0
M  V30 11915 C 1078.96 4.26629 3.08016 0
M  V30 11916 O 1077.98 4.9528 2.80511 0
M  V30 11917 N 1079.19 3.84721 4.34706 0
M  V30 11918 H 1081.95 2.97387 0.371636 0
M  V30 11919 H 1079.51 1.61805 0.0555574 0
M  V30 11920 H 1081.5 2.82444 2.89841 0
M  V30 11921 H 1080.07 1.82514 2.53786 0
M  V30 11922 H 1079.29 3.80406 1.03367 0
M  V30 11923 H 1080.58 4.76662 1.77962 0
M  V30 11924 H 1079.98 3.2937 4.59926 0
M  V30 11925 H 1078.54 4.10087 5.06628 0
M  V30 11926 N 1081.97 -0.145205 1.5693 0
M  V30 11927 C 1083.22 -0.858786 1.83719 0
M  V30 11928 C 1083.55 -1.80738 0.710452 0
M  V30 11929 O 1082.82 -1.92389 -0.285791 0
M  V30 11930 C 1083.11 -1.6317 3.2101 0
M  V30 11931 C 1082.96 -0.704472 4.44249 0
M  V30 11932 C 1084.28 -2.59377 3.55544 0
M  V30 11933 H 1081.4 -0.310757 0.66828 0
M  V30 11934 H 1084.04 -0.123918 1.89595 0
M  V30 11935 H 1082.19 -2.25816 3.16132 0
M  V30 11936 H 1083.86 -0.08887 4.61214 0
M  V30 11937 H 1082.1 -0.0141693 4.33798 0
M  V30 11938 H 1082.78 -1.28135 5.36922 0
M  V30 11939 H 1085.25 -2.06848 3.61044 0
M  V30 11940 H 1084.13 -3.10506 4.52634 0
M  V30 11941 H 1084.39 -3.40819 2.81594 0
M  V30 11942 N 1083.45 -1.52049 -0.414609 0
M  V30 11943 C 1084.38 -1.77956 -1.51175 0
M  V30 11944 C 1085.36 -0.630282 -1.57992 0
M  V30 11945 O 1086.54 -0.875324 -1.73354 0
M  V30 11946 C 1083.67 -1.92527 -2.89051 0
M  V30 11947 C 1082.63 -3.08096 -2.97087 0
M  V30 11948 C 1081.95 -3.07882 -4.37164 0
M  V30 11949 C 1083.25 -4.47656 -2.69075 0
M  V30 11950 H 1084.95 -2.69827 -1.29746 0
M  V30 11951 H 1082.49 -1.29839 -0.62273 0
M  V30 11952 H 1084.45 -2.09234 -3.65786 0
M  V30 11953 H 1083.17 -0.973235 -3.11762 0
M  V30 11954 H 1081.83 -2.91131 -2.22797 0
M  V30 11955 H 1081.48 -2.10411 -4.56877 0
M  V30 11956 H 1081.18 -3.85501 -4.43467 0
M  V30 11957 H 1082.7 -3.26712 -5.15841 0
M  V30 11958 H 1084.12 -4.64855 -3.35534 0
M  V30 11959 H 1082.51 -5.27151 -2.8676 0
M  V30 11960 H 1083.58 -4.56129 -1.64544 0
M  V30 11961 N 1084.93 0.6715 -1.42579 0
M  V30 11962 C 1085.84 1.81435 -1.48723 0
M  V30 11963 C 1086.85 1.69895 -0.375716 0
M  V30 11964 O 1088.03 1.91388 -0.627115 0
M  V30 11965 C 1085.09 3.17599 -1.39038 0
M  V30 11966 C 1084.15 3.41071 -2.60709 0
M  V30 11967 C 1083.39 4.7074 -2.51476 0
M  V30 11968 O 1083.61 5.48868 -1.55243 0
M  V30 11969 O 1082.54 4.95528 -3.41666 0
M  V30 11970 H 1086.37 1.79206 -2.45191 0
M  V30 11971 H 1083.95 0.827666 -1.24379 0
M  V30 11972 H 1085.84 3.98847 -1.3601 0
M  V30 11973 H 1084.51 3.20458 -0.456966 0
M  V30 11974 H 1083.42 2.59659 -2.69311 0
M  V30 11975 H 1084.75 3.43045 -3.5296 0
M  V30 11976 N 1086.4 1.28806 0.908124 0
M  V30 11977 C 1087.37 1.13228 1.99279 0
M  V30 11978 C 1088.37 0.0702456 1.60646 0
M  V30 11979 O 1089.56 0.316494 1.71301 0
M  V30 11980 C 1086.69 0.729629 3.33 0
M  V30 11981 H 1087.88 2.09566 2.14528 0
M  V30 11982 H 1085.43 1.11872 1.09153 0
M  V30 11983 H 1086.17 -0.234268 3.23453 0
M  V30 11984 H 1085.95 1.49688 3.62403 0
M  V30 11985 H 1087.44 0.643449 4.12613 0
M  V30 11986 N 1087.88 -1.11734 1.11145 0
M  V30 11987 C 1089.12 -1.85039 0.868318 0
M  V30 11988 C 1089.49 -1.82538 -0.595294 0
M  V30 11989 O 1090.69 -2.5126 -0.955071 0
M  V30 11990 C 1088.96 -3.28381 1.4107 0
M  V30 11991 S 1090.52 -4.18973 1.3041 0
M  V30 11992 H 1087.33 -0.638114 0.313578 0
M  V30 11993 H 1089.94 -1.34548 1.41835 0
M  V30 11994 H 1088.64 -3.27764 2.46979 0
M  V30 11995 H 1088.17 -3.83939 0.857576 0
M  V30 11996 H 1090.19 -4.95483 0.266605 0
M  V30 11997 N 1089.36 -0.901303 -1.29284 0
M  V30 11998 C 1090.32 -0.385081 -2.25942 0
M  V30 11999 C 1091.32 0.481626 -1.53418 0
M  V30 12000 O 1092.51 0.286451 -1.71829 0
M  V30 12001 C 1089.64 0.449319 -3.37926 0
M  V30 12002 H 1090.84 -1.23877 -2.7312 0
M  V30 12003 H 1088.39 -0.679586 -1.40753 0
M  V30 12004 H 1089.13 1.32292 -2.9609 0
M  V30 12005 H 1088.91 -0.171731 -3.91724 0
M  V30 12006 H 1090.4 0.801746 -4.09831 0
M  V30 12007 N 1090.84 1.42931 -0.663954 0
M  V30 12008 C 1091.77 2.33499 0.00731327 0
M  V30 12009 C 1092.75 1.50074 0.800733 0
M  V30 12010 O 1093.93 1.78708 0.760062 0
M  V30 12011 C 1091.06 3.33569 0.966897 0
M  V30 12012 C 1090.02 4.27064 0.282839 0
M  V30 12013 C 1089.34 5.17257 1.35461 0
M  V30 12014 C 1090.64 5.1564 -0.831438 0
M  V30 12015 H 1092.34 2.89879 -0.749044 0
M  V30 12016 H 1089.88 1.39385 -0.361656 0
M  V30 12017 H 1091.84 3.95833 1.44549 0
M  V30 12018 H 1090.56 2.75469 1.75455 0
M  V30 12019 H 1089.22 3.6618 -0.175417 0
M  V30 12020 H 1088.87 4.5549 2.13397 0
M  V30 12021 H 1088.57 5.80634 0.902098 0
M  V30 12022 H 1090.09 5.82395 1.83436 0
M  V30 12023 H 1091.51 5.71651 -0.434534 0
M  V30 12024 H 1089.9 5.87794 -1.20908 0
M  V30 12025 H 1090.97 4.54687 -1.68487 0
M  V30 12026 N 1092.32 0.406567 1.52266 0
M  V30 12027 C 1093.25 -0.411314 2.29849 0
M  V30 12028 C 1094.23 -1.04838 1.33952 0
M  V30 12029 O 1095.41 -1.05788 1.62857 0
M  V30 12030 C 1092.54 -1.52961 3.11802 0
M  V30 12031 C 1091.5 -1.01768 4.15725 0
M  V30 12032 C 1090.82 -2.22938 4.86007 0
M  V30 12033 C 1092.12 -0.073515 5.22248 0
M  V30 12034 H 1093.82 0.236054 2.98468 0
M  V30 12035 H 1091.36 0.114968 1.4354 0
M  V30 12036 H 1093.31 -2.10874 3.64843 0
M  V30 12037 H 1092.04 -2.20482 2.40947 0
M  V30 12038 H 1090.7 -0.46097 3.6369 0
M  V30 12039 H 1090.35 -2.89007 4.11684 0
M  V30 12040 H 1090.05 -1.89338 5.5626 0
M  V30 12041 H 1091.57 -2.81462 5.41859 0
M  V30 12042 H 1092.98 -0.561367 5.70545 0
M  V30 12043 H 1091.38 0.173551 5.99849 0
M  V30 12044 H 1092.45 0.872524 4.76985 0
M  V30 12045 N 1093.79 -1.57004 0.136909 0
M  V30 12046 C 1095.21 -1.82675 -0.385577 0
M  V30 12047 C 1095.56 -1.05508 -1.65416 0
M  V30 12048 O 1094.68 -0.297207 -2.14349 0
M  V30 12049 C 1095.28 -3.31356 -0.706326 0
M  V30 12050 C 1093.84 -3.57644 -1.17337 0
M  V30 12051 C 1092.98 -2.7664 -0.191239 0
M  V30 12052 H 1095.93 -1.54522 0.36177 0
M  V30 12053 H 1095.95 -3.4696 -1.56201 0
M  V30 12054 H 1095.47 -3.87492 0.217147 0
M  V30 12055 H 1093.57 -3.06883 -2.11313 0
M  V30 12056 H 1093.68 -4.66152 -1.10632 0
M  V30 12057 H 1092.04 -2.45403 -0.681867 0
M  V30 12058 H 1092.83 -3.35543 0.725647 0
M  V30 12059 N 1095.27 0.136881 -1.57004 0
M  V30 12060 C 1096.55 0.87705 -1.74835 0
M  V30 12061 C 1096.93 1.98886 -0.707639 0
M  V30 12062 O 1096.28 2.26879 0.271652 0
M  V30 12063 C 1096.49 1.41021 -3.1924 0
M  V30 12064 C 1097.84 1.86963 -3.81222 0
M  V30 12065 O 1098.86 1.5074 -3.22732 0
M  V30 12066 O 1097.72 2.53798 -4.83993 0
M  V30 12067 H 1094.81 0.415192 -0.715223 0
M  V30 12068 H 1097.36 0.122016 -1.69261 0
M  V30 12069 H 1096.13 0.611677 -3.8649 0
M  V30 12070 H 1095.75 2.22846 -3.2928 0
M  V30 12071 N 1096.75 1.52266 0.40654 0
M  V30 12072 C 1097.68 1.78755 1.50229 0
M  V30 12073 C 1098.66 0.638652 1.57655 0
M  V30 12074 O 1099.85 0.884505 1.72888 0
M  V30 12075 C 1096.98 1.94057 2.88026 0
M  V30 12076 C 1095.93 3.09667 2.95449 0
M  V30 12077 C 1095.26 3.10196 4.35526 0
M  V30 12078 C 1096.56 4.49077 2.66697 0
M  V30 12079 H 1098.25 2.70511 1.28313 0
M  V30 12080 H 1095.8 1.30167 0.615836 0
M  V30 12081 H 1097.75 2.11171 3.64671 0
M  V30 12082 H 1096.47 0.989755 3.11242 0
M  V30 12083 H 1095.13 2.92308 2.2125 0
M  V30 12084 H 1094.78 2.12831 4.55754 0
M  V30 12085 H 1094.48 3.87847 4.41416 0
M  V30 12086 H 1096 3.29443 5.14101 0
M  V30 12087 H 1097.42 4.66628 3.33064 0
M  V30 12088 H 1095.82 5.28665 2.8396 0
M  V30 12089 H 1096.89 4.56995 1.62122 0
M  V30 12090 N 1098.23 -0.663929 1.42933 0
M  V30 12091 C 1099.14 -1.80643 1.49683 0
M  V30 12092 C 1100.15 -1.69694 0.38472 0
M  V30 12093 O 1101.33 -1.91052 0.637256 0
M  V30 12094 C 1098.4 -3.16858 1.4072 0
M  V30 12095 C 1097.46 -3.39684 2.62514 0
M  V30 12096 C 1096.69 -4.69399 2.53969 0
M  V30 12097 O 1096.91 -5.48037 1.58152 0
M  V30 12098 O 1095.85 -4.93709 3.44289 0
M  V30 12099 H 1099.67 -1.77903 2.46138 0
M  V30 12100 H 1097.26 -0.821059 1.24816 0
M  V30 12101 H 1099.14 -3.9812 1.38124 0
M  V30 12102 H 1097.81 -3.20211 0.473954 0
M  V30 12103 H 1096.72 -2.58227 2.70684 0
M  V30 12104 H 1098.05 -3.41169 3.54774 0
M  V30 12105 N 1099.71 -1.29285 -0.901281 0
M  V30 12106 C 1100.64 -1.08603 -2.007 0
M  V30 12107 C 1101.62 0.00162233 -1.626 0
M  V30 12108 O 1102.8 -0.148764 -1.87912 0
M  V30 12109 C 1099.93 -0.652972 -3.32346 0
M  V30 12110 C 1098.97 -1.73911 -3.89432 0
M  V30 12111 S 1099.81 -3.33797 -4.18736 0
M  V30 12112 C 1100.96 -2.92355 -5.53425 0
M  V30 12113 H 1101.2 -2.02216 -2.17936 0
M  V30 12114 H 1098.73 -1.13414 -1.04769 0
M  V30 12115 H 1100.69 -0.409825 -4.08449 0
M  V30 12116 H 1099.35 0.263527 -3.12993 0
M  V30 12117 H 1098.54 -1.388 -4.84511 0
M  V30 12118 H 1098.14 -1.93569 -3.20011 0
M  V30 12119 H 1100.44 -2.39301 -6.33831 0
M  V30 12120 H 1101.38 -3.86278 -5.9346 0
M  V30 12121 H 1101.79 -2.30697 -5.15208 0
M  V30 12122 N 1101.18 1.11143 -1.11736 0
M  V30 12123 C 1102.11 2.19339 -0.800795 0
M  V30 12124 C 1103.1 1.68508 0.23221 0
M  V30 12125 O 1104.28 1.93967 0.0950063 0
M  V30 12126 C 1101.41 3.46424 -0.246579 0
M  V30 12127 C 1100.36 4.10487 -1.21181 0
M  V30 12128 C 1099.69 5.32183 -0.518158 0
M  V30 12129 C 1100.99 4.55052 -2.56368 0
M  V30 12130 H 1102.68 2.46077 -1.70548 0
M  V30 12131 H 1100.23 1.18271 -0.821454 0
M  V30 12132 H 1102.18 4.21398 -0.0128889 0
M  V30 12133 H 1100.91 3.19154 0.693415 0
M  V30 12134 H 1099.57 3.3751 -1.43118 0
M  V30 12135 H 1099.21 5.01187 0.426742 0
M  V30 12136 H 1098.91 5.75997 -1.16196 0
M  V30 12137 H 1100.44 6.09895 -0.293333 0
M  V30 12138 H 1101.85 5.21335 -2.38501 0
M  V30 12139 H 1100.25 5.0969 -3.16758 0
M  V30 12140 H 1101.32 3.68343 -3.1536 0
M  V30 12141 N 1102.66 0.908147 1.28804 0
M  V30 12142 C 1104.07 0.585727 1.77274 0
M  V30 12143 C 1104.42 -0.898842 1.744 0
M  V30 12144 O 1103.55 -1.70301 1.33516 0
M  V30 12145 C 1104.14 1.05647 3.21907 0
M  V30 12146 C 1102.7 0.785066 3.68122 0
M  V30 12147 C 1101.85 1.22638 2.48707 0
M  V30 12148 H 1104.8 1.09 1.15346 0
M  V30 12149 H 1104.82 0.395442 3.7844 0
M  V30 12150 H 1104.33 2.13698 3.23967 0
M  V30 12151 H 1102.44 -0.282477 3.71528 0
M  V30 12152 H 1102.55 1.38888 4.58527 0
M  V30 12153 H 1100.91 0.645217 2.46392 0
M  V30 12154 H 1101.7 2.31512 2.5349 0
M  V30 12155 N 1104.14 -1.42577 0.671525 0
M  V30 12156 C 1105.39 -2.01185 0.192051 0
M  V30 12157 C 1105.71 -1.53349 -1.20454 0
M  V30 12158 O 1104.98 -0.753781 -1.80817 0
M  V30 12159 H 1103.56 -0.743898 0.0680106 0
M  V30 12160 H 1106.22 -1.74539 0.8673 0
M  V30 12161 H 1105.32 -3.11516 0.190796 0
M  V30 12162 N 1105.62 -0.414636 -1.52048 0
M  V30 12163 C 1106.87 0.159034 -2.01473 0
M  V30 12164 C 1107.19 1.45176 -1.30188 0
M  V30 12165 O 1106.46 1.91134 -0.429469 0
M  V30 12166 H 1105.04 0.0617604 -0.744443 0
M  V30 12167 H 1107.7 -0.552141 -1.86916 0
M  V30 12168 H 1106.8 0.351217 -3.10118 0
M  V30 12169 N 1107.1 1.56929 -0.145233 0
M  V30 12170 C 1108.37 1.8767 0.551288 0
M  V30 12171 C 1108.75 1.05089 1.83083 0
M  V30 12172 O 1108.1 0.137201 2.28088 0
M  V30 12173 C 1108.31 3.39268 0.818445 0
M  V30 12174 C 1109.66 4.08447 1.16 0
M  V30 12175 O 1110.68 3.44436 0.907857 0
M  V30 12176 O 1109.54 5.21488 1.63441 0
M  V30 12177 H 1106.64 0.777788 0.281024 0
M  V30 12178 H 1109.18 1.68724 -0.181712 0
M  V30 12179 H 1107.95 3.91203 -0.0871897 0
M  V30 12180 H 1107.58 3.63735 1.60569 0
M  V30 12181 N 1108.58 -0.128553 1.57075 0
M  V30 12182 C 1109.51 -1.15953 2.02675 0
M  V30 12183 C 1110.49 -1.43743 0.909501 0
M  V30 12184 O 1111.67 -1.54348 1.17857 0
M  V30 12185 C 1108.8 -2.48813 2.423 0
M  V30 12186 C 1107.76 -2.35506 3.57381 0
M  V30 12187 C 1107.08 -3.73243 3.82875 0
M  V30 12188 C 1108.38 -1.82359 4.89431 0
M  V30 12189 H 1110.08 -0.780283 2.89054 0
M  V30 12190 H 1107.62 -0.373896 1.39061 0
M  V30 12191 H 1109.57 -3.21179 2.72804 0
M  V30 12192 H 1108.3 -2.88609 1.52881 0
M  V30 12193 H 1106.96 -1.6559 3.27071 0
M  V30 12194 H 1106.61 -4.10507 2.90677 0
M  V30 12195 H 1106.31 -3.65195 4.60333 0
M  V30 12196 H 1107.83 -4.47128 4.15823 0
M  V30 12197 H 1109.24 -2.44533 5.18533 0
M  V30 12198 H 1107.64 -1.85156 5.70822 0
M  V30 12199 H 1108.71 -0.780478 4.78578 0
M  V30 12200 N 1110.05 -1.5248 -0.398459 0
M  V30 12201 C 1111.02 -1.75949 -1.46883 0
M  V30 12202 C 1112.02 -0.629431 -1.47969 0
M  V30 12203 O 1113.21 -0.897407 -1.49306 0
M  V30 12204 C 1110.34 -1.85162 -2.8623 0
M  V30 12205 H 1111.53 -2.71513 -1.2736 0
M  V30 12206 H 1109.08 -1.43058 -0.629619 0
M  V30 12207 H 1109.82 -0.915505 -3.11109 0
M  V30 12208 H 1109.6 -2.67326 -2.86844 0
M  V30 12209 H 1111.09 -2.05025 -3.63805 0
M  V30 12210 N 1111.53 0.65634 -1.43283 0
M  V30 12211 C 1112.44 1.79847 -1.50639 0
M  V30 12212 C 1113.46 1.69487 -0.393714 0
M  V30 12213 O 1114.63 1.90712 -0.647379 0
M  V30 12214 C 1111.7 3.16107 -1.42398 0
M  V30 12215 C 1110.76 3.38287 -2.64312 0
M  V30 12216 C 1109.99 4.68046 -2.56454 0
M  V30 12217 O 1110.22 5.4719 -1.61056 0
M  V30 12218 O 1109.15 4.91877 -3.46902 0
M  V30 12219 H 1112.98 1.76596 -2.47078 0
M  V30 12220 H 1110.56 0.814428 -1.25249 0
M  V30 12221 H 1112.44 3.97382 -1.40233 0
M  V30 12222 H 1111.12 3.19956 -0.490929 0
M  V30 12223 H 1110.02 2.56788 -2.72049 0
M  V30 12224 H 1111.36 3.39282 -3.56579 0
M  V30 12225 N 1113.01 1.29761 0.894412 0
M  V30 12226 C 1114.26 1.17409 1.64006 0
M  V30 12227 C 1114.57 -0.272355 1.93695 0
M  V30 12228 O 1115.78 -0.517269 2.66527 0
M  V30 12229 C 1114.23 2.05379 2.95546 0
M  V30 12230 C 1113.84 3.54878 2.73433 0
M  V30 12231 C 1115.59 2.01765 3.73485 0
M  V30 12232 C 1113.49 4.34935 4.00731 0
M  V30 12233 H 1112.42 0.43583 0.615279 0
M  V30 12234 H 1115.07 1.5444 0.990983 0
M  V30 12235 H 1113.46 1.61222 3.61695 0
M  V30 12236 H 1114.63 4.07122 2.15844 0
M  V30 12237 H 1112.94 3.60218 2.08882 0
M  V30 12238 H 1115.54 2.58835 4.67877 0
M  V30 12239 H 1115.88 0.998876 4.04139 0
M  V30 12240 H 1116.42 2.43994 3.14184 0
M  V30 12241 H 1113.16 5.3747 3.75241 0
M  V30 12242 H 1112.68 3.87458 4.5786 0
M  V30 12243 H 1114.36 4.45875 4.68833 0
M  V30 12244 N 1114.49 -1.10549 1.12324 0
M  V30 12245 C 1115.74 -1.82124 0.876083 0
M  V30 12246 C 1116.06 -1.85547 -0.599761 0
M  V30 12247 O 1115.33 -1.33269 -1.43584 0
M  V30 12248 H 1113.91 -0.674455 0.321122 0
M  V30 12249 H 1116.57 -1.33766 1.41748 0
M  V30 12250 H 1115.66 -2.85688 1.25653 0
M  V30 12251 N 1115.97 -0.914965 -1.28321 0
M  V30 12252 C 1116.88 -0.409424 -2.31 0
M  V30 12253 C 1117.89 0.503526 -1.66555 0
M  V30 12254 O 1119.07 0.38942 -1.97599 0
M  V30 12255 C 1116.13 0.34123 -3.45017 0
M  V30 12256 C 1115.19 -0.605087 -4.25014 0
M  V30 12257 C 1114.43 0.109837 -5.33587 0
M  V30 12258 O 1114.65 1.33136 -5.54645 0
M  V30 12259 O 1113.58 -0.555474 -5.99331 0
M  V30 12260 H 1117.41 -1.26167 -2.76253 0
M  V30 12261 H 1114.99 -0.679831 -1.33036 0
M  V30 12262 H 1116.88 0.765132 -4.14396 0
M  V30 12263 H 1115.55 1.16929 -3.01843 0
M  V30 12264 H 1114.46 -1.07841 -3.58219 0
M  V30 12265 H 1115.79 -1.39999 -4.7187 0
M  V30 12266 N 1117.44 1.42219 -0.679077 0
M  V30 12267 C 1118.39 2.308 -0.00340316 0
M  V30 12268 C 1119.36 1.462 0.788334 0
M  V30 12269 O 1120.55 1.75023 0.759716 0
M  V30 12270 C 1117.69 3.32084 0.938854 0
M  V30 12271 C 1116.8 4.31772 0.140485 0
M  V30 12272 C 1115.93 5.20128 1.07888 0
M  V30 12273 C 1114.97 6.11493 0.27245 0
M  V30 12274 N 1114.11 6.92388 1.16378 0
M  V30 12275 H 1118.95 2.88024 -0.764587 0
M  V30 12276 H 1116.49 1.41869 -0.38878 0
M  V30 12277 H 1118.44 3.89339 1.49903 0
M  V30 12278 H 1117.07 2.76448 1.66662 0
M  V30 12279 H 1116.13 3.76599 -0.536376 0
M  V30 12280 H 1117.44 4.96432 -0.485433 0
M  V30 12281 H 1116.59 5.82137 1.70884 0
M  V30 12282 H 1115.33 4.55655 1.73868 0
M  V30 12283 H 1114.34 5.48549 -0.370693 0
M  V30 12284 H 1115.56 6.78017 -0.383315 0
M  V30 12285 H 1113.51 6.30538 1.8099 0
M  V30 12286 H 1113.42 7.5367 0.593043 0
M  V30 12287 H 1114.69 7.58879 1.78107 0
M  V30 12288 N 1118.92 0.422693 1.51826 0
M  V30 12289 C 1120.17 -0.148348 2.01555 0
M  V30 12290 C 1120.49 -1.44483 1.30956 0
M  V30 12291 O 1119.76 -1.90904 0.439599 0
M  V30 12292 H 1118.34 -0.0578116 0.74476 0
M  V30 12293 H 1121 0.562046 1.8662 0
M  V30 12294 H 1120.1 -0.334766 3.10299 0
M  V30 12295 N 1120.4 -1.5685 0.153553 0
M  V30 12296 C 1121.65 -1.95509 -0.495911 0
M  V30 12297 C 1121.96 -1.04129 -1.65579 0
M  V30 12298 O 1123.17 -1.32394 -2.37032 0
M  V30 12299 C 1121.62 -3.47579 -0.933622 0
M  V30 12300 C 1121.23 -4.47555 0.199684 0
M  V30 12301 C 1122.98 -3.95092 -1.55251 0
M  V30 12302 C 1120.88 -5.90843 -0.256663 0
M  V30 12303 H 1119.81 -0.729919 -0.189035 0
M  V30 12304 H 1122.46 -1.81938 0.238947 0
M  V30 12305 H 1120.85 -3.56506 -1.72394 0
M  V30 12306 H 1122.02 -4.50329 0.976744 0
M  V30 12307 H 1120.33 -4.09997 0.727394 0
M  V30 12308 H 1122.93 -4.99588 -1.90567 0
M  V30 12309 H 1123.27 -3.37015 -2.4439 0
M  V30 12310 H 1123.81 -3.89109 -0.826969 0
M  V30 12311 H 1120.55 -6.52753 0.599515 0
M  V30 12312 H 1120.07 -5.91414 -0.999458 0
M  V30 12313 H 1121.75 -6.43131 -0.70649 0
M  V30 12314 N 1121.88 0.120221 -1.57141 0
M  V30 12315 C 1122.83 1.16654 -2.01233 0
M  V30 12316 C 1123.82 1.42943 -0.909053 0
M  V30 12317 O 1125.03 1.4292 -1.09426 0
M  V30 12318 H 1121.4 0.393289 -0.640958 0
M  V30 12319 H 1123.37 0.768156 -2.88343 0
M  V30 12320 C 1122.12 2.4854 -2.43152 0
M  V30 12321 H 1121.44 2.29149 -3.27614 0
M  V30 12322 H 1122.88 3.20315 -2.77802 0
M  V30 12323 C 1121.34 3.1103 -1.29468 0
M  V30 12324 O 1121.87 3.97042 -0.609982 0
M  V30 12325 N 1120.08 2.70888 -1.05205 0
M  V30 12326 H 1119.63 2.01039 -1.61062 0
M  V30 12327 H 1119.58 3.13028 -0.293347 0
M  V30 12328 N 1123.36 1.52689 0.390367 0
M  V30 12329 C 1124.29 1.80338 1.48325 0
M  V30 12330 C 1125.27 0.655338 1.56969 0
M  V30 12331 O 1126.45 0.902792 1.7194 0
M  V30 12332 C 1123.58 1.97101 2.85952 0
M  V30 12333 C 1122.54 3.12783 2.92148 0
M  V30 12334 C 1121.86 3.14798 4.32211 0
M  V30 12335 C 1123.16 4.5188 2.61919 0
M  V30 12336 H 1124.86 2.71857 1.25437 0
M  V30 12337 H 1122.4 1.30813 0.601995 0
M  V30 12338 H 1124.36 2.15027 3.62411 0
M  V30 12339 H 1123.08 1.02271 3.10174 0
M  V30 12340 H 1121.74 2.94638 2.18137 0
M  V30 12341 H 1121.39 2.17653 4.53471 0
M  V30 12342 H 1121.09 3.92507 4.37278 0
M  V30 12343 H 1122.61 3.34877 5.10578 0
M  V30 12344 H 1124.02 4.70134 3.28096 0
M  V30 12345 H 1122.42 5.31647 2.78337 0
M  V30 12346 H 1123.49 4.58689 1.57266 0
M  V30 12347 N 1124.83 -0.648732 1.43629 0
M  V30 12348 C 1126.06 -1.44117 1.49148 0
M  V30 12349 C 1126.48 -1.87767 0.111952 0
M  V30 12350 O 1125.84 -1.57655 -0.895249 0
M  V30 12351 C 1125.89 -2.64938 2.44623 0
M  V30 12352 O 1124.99 -3.64155 1.93559 0
M  V30 12353 H 1124.34 -0.431933 0.504312 0
M  V30 12354 H 1126.87 -0.793439 1.88589 0
M  V30 12355 H 1126.88 -3.12698 2.62076 0
M  V30 12356 H 1125.55 -2.3251 3.44836 0
M  V30 12357 H 1124.13 -3.23322 1.85789 0
M  V30 12358 N 1126.31 -1.30234 -0.887518 0
M  V30 12359 C 1127.56 -1.18675 -1.63587 0
M  V30 12360 C 1127.88 0.259342 -1.93268 0
M  V30 12361 O 1127.15 1.17523 -1.56733 0
M  V30 12362 H 1125.73 -0.436224 -0.606397 0
M  V30 12363 H 1128.39 -1.63326 -1.06351 0
M  V30 12364 H 1127.49 -1.74575 -2.58708 0
M  V30 12365 N 1127.79 1.09952 -1.12909 0
M  V30 12366 C 1129.04 1.81657 -0.885729 0
M  V30 12367 C 1129.36 1.85863 0.589913 0
M  V30 12368 O 1128.63 1.34028 1.42875 0
M  V30 12369 H 1127.21 0.672743 -0.324694 0
M  V30 12370 H 1129.87 1.33013 -1.42456 0
M  V30 12371 H 1128.97 2.85018 -1.27167 0
M  V30 12372 N 1129.27 0.921757 1.27833 0
M  V30 12373 C 1130.2 0.373575 2.26135 0
M  V30 12374 C 1131.21 -0.492414 1.55174 0
M  V30 12375 O 1132.4 -0.305998 1.75858 0
M  V30 12376 C 1129.5 -0.483911 3.35427 0
M  V30 12377 C 1128.68 0.361411 4.35904 0
M  V30 12378 C 1127.73 -0.432461 5.2442 0
M  V30 12379 O 1126.76 0.15777 5.68981 0
M  V30 12380 N 1127.96 -1.73367 5.54007 0
M  V30 12381 H 1130.73 1.21856 2.73809 0
M  V30 12382 H 1128.29 0.788552 1.41398 0
M  V30 12383 H 1130.28 -1.02193 3.91585 0
M  V30 12384 H 1128.85 -1.22963 2.874 0
M  V30 12385 H 1128.07 1.08076 3.79095 0
M  V30 12386 H 1129.36 0.939528 5.0005 0
M  V30 12387 H 1128.76 -2.23561 5.19651 0
M  V30 12388 H 1127.31 -2.21834 6.12889 0
M  V30 12389 N 1130.75 -1.41857 0.686609 0
M  V30 12390 C 1131.69 -2.30795 0.015643 0
M  V30 12391 C 1132.66 -1.46616 -0.780569 0
M  V30 12392 O 1133.85 -1.75423 -0.750424 0
M  V30 12393 C 1130.99 -3.32577 -0.921229 0
M  V30 12394 C 1130.1 -4.3184 -0.117585 0
M  V30 12395 C 1129.24 -5.20693 -1.05128 0
M  V30 12396 C 1128.28 -6.11629 -0.240018 0
M  V30 12397 N 1127.41 -6.92995 -1.12704 0
M  V30 12398 H 1132.25 -2.87615 0.77985 0
M  V30 12399 H 1129.79 -1.41661 0.396298 0
M  V30 12400 H 1131.75 -3.90129 -1.47836 0
M  V30 12401 H 1130.38 -2.77328 -1.65193 0
M  V30 12402 H 1129.43 -3.7631 0.55634 0
M  V30 12403 H 1130.74 -4.96168 0.511753 0
M  V30 12404 H 1129.9 -5.83035 -1.67795 0
M  V30 12405 H 1128.63 -4.5657 -1.71449 0
M  V30 12406 H 1127.64 -5.48345 0.399779 0
M  V30 12407 H 1128.86 -6.77805 0.419266 0
M  V30 12408 H 1126.81 -6.31489 -1.77644 0
M  V30 12409 H 1126.73 -7.53974 -0.553065 0
M  V30 12410 H 1128 -7.59813 -1.7408 0
M  V30 12411 N 1132.22 -0.430739 -1.51599 0
M  V30 12412 C 1133.16 0.419726 -2.25324 0
M  V30 12413 C 1134.17 0.991925 -1.29092 0
M  V30 12414 O 1135.36 0.887188 -1.54891 0
M  V30 12415 C 1132.46 1.59844 -2.98836 0
M  V30 12416 C 1131.63 1.14629 -4.22112 0
M  V30 12417 C 1130.69 2.19437 -4.78261 0
M  V30 12418 O 1129.72 1.79141 -5.40275 0
M  V30 12419 N 1130.92 3.51849 -4.61717 0
M  V30 12420 H 1133.68 -0.212112 -2.98948 0
M  V30 12421 H 1131.24 -0.259269 -1.59811 0
M  V30 12422 H 1133.24 2.29567 -3.33288 0
M  V30 12423 H 1131.81 2.13575 -2.28264 0
M  V30 12424 H 1131.03 0.276367 -3.9323 0
M  V30 12425 H 1132.31 0.821488 -5.02124 0
M  V30 12426 H 1131.71 3.87324 -4.12306 0
M  V30 12427 H 1130.27 4.17486 -5.00548 0
M  V30 12428 N 1133.7 1.56767 -0.161869 0
M  V30 12429 C 1135.12 1.58412 0.194403 0
M  V30 12430 C 1135.32 1.17682 1.63564 0
M  V30 12431 O 1134.37 0.884024 2.36519 0
M  V30 12432 C 1135.69 3.00599 -0.0778438 0
M  V30 12433 C 1137.24 3.12996 -0.015307 0
M  V30 12434 C 1137.71 4.57259 -0.260418 0
M  V30 12435 N 1139.2 4.62733 -0.207863 0
M  V30 12436 C 1139.94 5.72193 -0.371821 0
M  V30 12437 N 1139.43 6.90246 -0.594318 0
M  V30 12438 N 1141.23 5.61253 -0.308384 0
M  V30 12439 H 1133.38 1.81531 -1.10274 0
M  V30 12440 H 1135.64 0.840919 -0.437675 0
M  V30 12441 H 1135.35 3.3484 -1.07587 0
M  V30 12442 H 1135.22 3.71819 0.634845 0
M  V30 12443 H 1137.61 2.78588 0.97329 0
M  V30 12444 H 1137.69 2.44232 -0.760559 0
M  V30 12445 H 1137.33 4.92375 -1.24618 0
M  V30 12446 H 1137.26 5.2417 0.505334 0
M  V30 12447 H 1139.75 3.77878 -0.0411541 0
M  V30 12448 H 1140.07 7.6954 -0.70913 0
M  V30 12449 H 1138.41 6.92131 -0.630819 0
M  V30 12450 H 1141.6 4.67905 -0.135217 0
M  V30 12451 H 1141.77 6.46507 -0.439592 0
M  V30 12452 N 1135.18 -0.111886 1.57202 0
M  V30 12453 C 1136.43 -0.817022 1.84412 0
M  V30 12454 C 1136.74 -1.80708 0.748608 0
M  V30 12455 O 1137.95 -2.55891 0.907319 0
M  V30 12456 C 1136.4 -1.50376 3.26979 0
M  V30 12457 C 1136.01 -0.554334 4.44557 0
M  V30 12458 C 1137.76 -2.19361 3.63429 0
M  V30 12459 C 1135.66 -1.24471 5.78153 0
M  V30 12460 H 1134.59 -0.308864 0.687836 0
M  V30 12461 H 1137.24 -0.0698109 1.83367 0
M  V30 12462 H 1135.63 -2.29785 3.22514 0
M  V30 12463 H 1136.8 0.207045 4.60335 0
M  V30 12464 H 1135.12 0.0289261 4.1639 0
M  V30 12465 H 1137.71 -2.71716 4.60515 0
M  V30 12466 H 1138.06 -2.97488 2.91215 0
M  V30 12467 H 1138.59 -1.46833 3.69709 0
M  V30 12468 H 1135.33 -0.504584 6.53555 0
M  V30 12469 H 1134.85 -1.97792 5.66249 0
M  V30 12470 H 1136.53 -1.77591 6.2215 0
M  V30 12471 N 1136.66 -1.52894 -0.382264 0
M  V30 12472 C 1137.88 -1.72453 -1.15216 0
M  V30 12473 C 1138.31 -0.444925 -1.82762 0
M  V30 12474 O 1137.67 0.599825 -1.7109 0
M  V30 12475 C 1137.71 -2.87939 -2.17079 0
M  V30 12476 O 1136.82 -2.55383 -3.23811 0
M  V30 12477 H 1136.16 -0.57324 -0.335099 0
M  V30 12478 H 1138.69 -1.99713 -0.444495 0
M  V30 12479 H 1138.7 -3.13628 -2.60963 0
M  V30 12480 H 1137.37 -3.80765 -1.67305 0
M  V30 12481 H 1135.95 -2.40457 -2.85018 0
M  V30 12482 N 1138.14 0.641106 -1.43971 0
M  V30 12483 C 1139.07 1.76489 -1.52885 0
M  V30 12484 C 1140.05 1.65742 -0.38258 0
M  V30 12485 O 1141.23 1.84653 -0.601397 0
M  V30 12486 C 1138.36 3.14977 -1.4631 0
M  V30 12487 C 1137.32 3.40502 -2.59311 0
M  V30 12488 C 1136.64 4.78916 -2.37789 0
M  V30 12489 C 1137.94 3.34048 -4.01509 0
M  V30 12490 H 1139.64 1.69286 -2.46946 0
M  V30 12491 H 1137.18 0.813015 -1.18853 0
M  V30 12492 H 1139.14 3.9336 -1.51149 0
M  V30 12493 H 1137.86 3.2294 -0.487599 0
M  V30 12494 H 1136.52 2.64495 -2.53846 0
M  V30 12495 H 1136.17 4.8357 -1.38454 0
M  V30 12496 H 1135.87 4.96954 -3.13545 0
M  V30 12497 H 1137.39 5.59541 -2.4443 0
M  V30 12498 H 1138.81 4.0235 -4.08396 0
M  V30 12499 H 1137.2 3.63622 -4.77388 0
M  V30 12500 H 1138.27 2.32022 -4.25786 0
M  V30 12501 N 1139.62 1.30703 0.880598 0
M  V30 12502 C 1140.58 1.17429 1.96832 0
M  V30 12503 C 1141.58 0.104305 1.60461 0
M  V30 12504 O 1142.77 0.352758 1.70591 0
M  V30 12505 C 1139.9 0.800099 3.31378 0
M  V30 12506 H 1141.09 2.14069 2.10034 0
M  V30 12507 H 1138.65 1.14162 1.06755 0
M  V30 12508 H 1139.38 -0.165606 3.23877 0
M  V30 12509 H 1139.17 1.57341 3.59146 0
M  V30 12510 H 1140.66 0.730826 4.11155 0
M  V30 12511 N 1141.09 -1.09351 1.1349 0
M  V30 12512 C 1142.51 -1.3359 0.873269 0
M  V30 12513 C 1142.71 -1.95432 -0.490767 0
M  V30 12514 O 1141.77 -2.20117 -1.23712 0
M  V30 12515 C 1143.08 -2.24681 1.99847 0
M  V30 12516 C 1144.63 -2.38188 2.03065 0
M  V30 12517 C 1145.1 -3.32615 3.14851 0
M  V30 12518 N 1146.59 -3.40188 3.14366 0
M  V30 12519 C 1147.33 -4.13256 3.97501 0
M  V30 12520 N 1146.82 -4.89114 4.90652 0
M  V30 12521 N 1148.62 -4.08988 3.85597 0
M  V30 12522 H 1140.77 -0.675852 2.0136 0
M  V30 12523 H 1143.03 -0.360268 0.876876 0
M  V30 12524 H 1142.74 -1.86469 2.98198 0
M  V30 12525 H 1142.61 -3.25075 1.91327 0
M  V30 12526 H 1145 -2.75663 1.05327 0
M  V30 12527 H 1145.08 -1.3757 2.15658 0
M  V30 12528 H 1144.72 -2.95863 4.12829 0
M  V30 12529 H 1144.65 -4.33139 2.99496 0
M  V30 12530 H 1147.14 -2.861 2.46892 0
M  V30 12531 H 1147.46 -5.423 5.50573 0
M  V30 12532 H 1145.8 -4.882 4.94657 0
M  V30 12533 H 1148.99 -3.48826 3.12151 0
M  V30 12534 H 1149.17 -4.65671 4.50615 0
M  V30 12535 N 1142.57 -0.928524 -1.27343 0
M  V30 12536 C 1143.53 -0.43292 -2.25074 0
M  V30 12537 C 1144.53 0.448976 -1.54405 0
M  V30 12538 O 1145.72 0.249939 -1.72398 0
M  V30 12539 C 1142.86 0.377539 -3.38803 0
M  V30 12540 H 1144.05 -1.29642 -2.70431 0
M  V30 12541 H 1141.6 -0.709289 -1.3928 0
M  V30 12542 H 1142.34 1.25982 -2.98829 0
M  V30 12543 H 1142.12 -0.254782 -3.91271 0
M  V30 12544 H 1143.61 0.714634 -4.1144 0
M  V30 12545 N 1144.05 1.41491 -0.694123 0
M  V30 12546 C 1145.28 2.05579 -0.233466 0
M  V30 12547 C 1145.69 1.5223 1.11675 0
M  V30 12548 O 1145.05 0.669937 1.69759 0
M  V30 12549 C 1145.1 3.61047 -0.180967 0
M  V30 12550 O 1144.82 4.12421 -1.47785 0
M  V30 12551 C 1146.32 4.42278 0.300853 0
M  V30 12552 H 1143.54 0.662097 -0.108943 0
M  V30 12553 H 1146.09 1.81288 -0.946299 0
M  V30 12554 H 1144.24 3.84381 0.482678 0
M  V30 12555 H 1144.66 5.06454 -1.364 0
M  V30 12556 H 1146.13 5.51256 0.286464 0
M  V30 12557 H 1146.61 4.18276 1.33948 0
M  V30 12558 H 1147.21 4.24004 -0.331741 0
M  V30 12559 N 1145.53 0.438773 1.51369 0
M  V30 12560 C 1146.76 -0.125665 2.06217 0
M  V30 12561 C 1147.17 -1.36887 1.30609 0
M  V30 12562 O 1146.51 -1.80149 0.359433 0
M  V30 12563 C 1146.57 -0.511846 3.55838 0
M  V30 12564 C 1146.23 0.624755 4.52709 0
M  V30 12565 C 1147.23 1.49731 4.97872 0
M  V30 12566 C 1144.92 0.805895 4.95793 0
M  V30 12567 C 1146.91 2.53569 5.84792 0
M  V30 12568 C 1144.6 1.84755 5.82502 0
M  V30 12569 C 1145.6 2.71083 6.269 0
M  V30 12570 O 1145.28 3.7346 7.11887 0
M  V30 12571 H 1145.02 -0.0107227 0.675915 0
M  V30 12572 H 1147.57 0.617071 1.95912 0
M  V30 12573 H 1145.8 -1.30731 3.63932 0
M  V30 12574 H 1147.49 -1.0076 3.93195 0
M  V30 12575 H 1148.25 1.36891 4.65281 0
M  V30 12576 H 1144.13 0.14352 4.60777 0
M  V30 12577 H 1147.68 3.20984 6.19367 0
M  V30 12578 H 1143.57 1.97614 6.14507 0
M  V30 12579 H 1144.34 3.70058 7.30068 0
M  V30 12580 N 1147.01 -1.56678 0.170181 0
M  V30 12581 C 1147.94 -2.15083 -0.791961 0
M  V30 12582 C 1148.95 -1.10612 -1.19452 0
M  V30 12583 O 1150.14 -1.37803 -1.13457 0
M  V30 12584 C 1147.24 -2.67769 -2.07733 0
M  V30 12585 C 1146.41 -3.96885 -1.83851 0
M  V30 12586 C 1145.47 -4.34646 -2.96596 0
M  V30 12587 O 1144.5 -5.02543 -2.67281 0
M  V30 12588 N 1145.7 -3.96112 -4.24353 0
M  V30 12589 H 1148.46 -2.98268 -0.292658 0
M  V30 12590 H 1146.03 -1.61895 -0.0126383 0
M  V30 12591 H 1148.02 -2.90029 -2.8225 0
M  V30 12592 H 1146.59 -1.89179 -2.48858 0
M  V30 12593 H 1145.81 -3.83013 -0.932452 0
M  V30 12594 H 1147.1 -4.81213 -1.65261 0
M  V30 12595 H 1146.49 -3.41448 -4.51032 0
M  V30 12596 H 1145.05 -4.23375 -4.95577 0
M  V30 12597 N 1148.48 0.103547 -1.57259 0
M  V30 12598 C 1149.43 1.14513 -2.02459 0
M  V30 12599 C 1150.43 1.4197 -0.924163 0
M  V30 12600 O 1151.63 1.41751 -1.10936 0
M  V30 12601 H 1148.01 0.386469 -0.645094 0
M  V30 12602 H 1149.98 0.737531 -2.89142 0
M  V30 12603 C 1148.73 2.45948 -2.45775 0
M  V30 12604 H 1148.05 2.25662 -3.30026 0
M  V30 12605 H 1149.49 3.17351 -2.81184 0
M  V30 12606 C 1147.95 3.09639 -1.32759 0
M  V30 12607 O 1148.48 3.96372 -0.652059 0
M  V30 12608 N 1146.68 2.69757 -1.08072 0
M  V30 12609 H 1146.23 1.9932 -1.63185 0
M  V30 12610 H 1146.19 3.127 -0.326532 0
M  V30 12611 N 1149.96 1.53094 0.37415 0
M  V30 12612 C 1150.89 1.81901 1.46404 0
M  V30 12613 C 1151.87 0.671949 1.56265 0
M  V30 12614 O 1153.06 0.920978 1.70973 0
M  V30 12615 C 1150.19 2.00123 2.83845 0
M  V30 12616 C 1149.14 3.15864 2.88814 0
M  V30 12617 C 1148.47 3.19364 4.28848 0
M  V30 12618 C 1149.77 4.54633 2.57112 0
M  V30 12619 H 1151.46 2.73172 1.22546 0
M  V30 12620 H 1149.01 1.31444 0.588087 0
M  V30 12621 H 1150.96 2.18859 3.6011 0
M  V30 12622 H 1149.68 1.05555 3.09072 0
M  V30 12623 H 1148.34 2.96935 2.15 0
M  V30 12624 H 1147.99 2.2245 4.51137 0
M  V30 12625 H 1147.69 3.97123 4.3309 0
M  V30 12626 H 1149.22 3.40273 5.06997 0
M  V30 12627 H 1150.63 4.73587 3.23091 0
M  V30 12628 H 1149.03 5.34569 2.72683 0
M  V30 12629 H 1150.1 4.60331 1.52392 0
M  V30 12630 N 1151.44 -0.633461 1.44309 0
M  V30 12631 C 1152.72 -1.3917 1.37444 0
M  V30 12632 C 1153.1 -2.11076 0.0319994 0
M  V30 12633 O 1152.44 -2.06164 -0.98533 0
M  V30 12634 C 1152.65 -2.36005 2.57104 0
M  V30 12635 C 1154 -2.99407 3.01065 0
M  V30 12636 O 1155.03 -2.46331 2.57292 0
M  V30 12637 O 1153.89 -3.95686 3.76954 0
M  V30 12638 H 1150.98 -0.622746 0.544166 0
M  V30 12639 H 1153.53 -0.658712 1.56394 0
M  V30 12640 H 1152.3 -1.81955 3.46422 0
M  V30 12641 H 1151.92 -3.16725 2.40356 0
M  V30 12642 N 1152.92 -1.31168 -0.873655 0
M  V30 12643 C 1154.17 -1.20003 -1.62118 0
M  V30 12644 C 1154.48 0.241505 -1.94103 0
M  V30 12645 O 1155.69 0.474801 -2.67316 0
M  V30 12646 C 1154.14 -2.10055 -2.92241 0
M  V30 12647 C 1153.75 -3.59183 -2.67752 0
M  V30 12648 C 1155.49 -2.07681 -3.70228 0
M  V30 12649 C 1153.4 -4.41255 -3.93761 0
M  V30 12650 H 1152.33 -0.445564 -0.608267 0
M  V30 12651 H 1154.98 -1.55997 -0.966287 0
M  V30 12652 H 1153.36 -1.66956 -3.59085 0
M  V30 12653 H 1154.54 -4.10504 -2.09339 0
M  V30 12654 H 1152.85 -3.63496 -2.03125 0
M  V30 12655 H 1155.45 -2.66246 -4.637 0
M  V30 12656 H 1155.79 -1.06304 -4.02499 0
M  V30 12657 H 1156.33 -2.48961 -3.10263 0
M  V30 12658 H 1153.07 -5.43372 -3.66643 0
M  V30 12659 H 1152.59 -3.94694 -4.51638 0
M  V30 12660 H 1154.26 -4.53278 -4.6168 0
M  V30 12661 N 1154.4 1.08748 -1.14068 0
M  V30 12662 C 1155.63 1.84546 -0.928789 0
M  V30 12663 C 1156.03 1.81741 0.526007 0
M  V30 12664 O 1155.38 1.2169 1.37613 0
M  V30 12665 C 1155.44 3.33282 -1.34771 0
M  V30 12666 C 1155.1 3.59826 -2.81734 0
M  V30 12667 C 1156.1 3.54964 -3.79864 0
M  V30 12668 C 1153.79 3.87949 -3.19063 0
M  V30 12669 C 1155.78 3.77847 -5.13332 0
M  V30 12670 C 1153.47 4.10487 -4.52707 0
M  V30 12671 C 1154.46 4.05429 -5.49651 0
M  V30 12672 O 1154.15 4.27378 -6.80884 0
M  V30 12673 H 1153.88 0.589555 -0.330758 0
M  V30 12674 H 1156.44 1.38275 -1.51886 0
M  V30 12675 H 1154.67 3.80294 -0.700948 0
M  V30 12676 H 1156.36 3.90508 -1.10718 0
M  V30 12677 H 1157.12 3.33256 -3.52371 0
M  V30 12678 H 1153 3.91007 -2.44201 0
M  V30 12679 H 1156.55 3.73815 -5.88989 0
M  V30 12680 H 1152.44 4.31677 -4.79922 0
M  V30 12681 H 1153.21 4.44802 -6.8709 0
M  V30 12682 N 1155.87 0.935264 1.26849 0
M  V30 12683 C 1156.8 0.457776 2.28969 0
M  V30 12684 C 1157.79 -0.48587 1.63013 0
M  V30 12685 O 1158.97 -0.388998 1.90264 0
M  V30 12686 C 1156.1 -0.283332 3.46142 0
M  V30 12687 C 1155.05 0.573196 4.24144 0
M  V30 12688 C 1154.38 -0.297525 5.33872 0
M  V30 12689 C 1155.68 1.84153 4.88759 0
M  V30 12690 H 1157.37 1.31125 2.69159 0
M  V30 12691 H 1154.92 0.631956 1.29392 0
M  V30 12692 H 1156.87 -0.628366 4.16689 0
M  V30 12693 H 1155.6 -1.1709 3.04889 0
M  V30 12694 H 1154.26 0.901043 3.55354 0
M  V30 12695 H 1153.9 -1.18427 4.8886 0
M  V30 12696 H 1153.6 0.272126 5.8697 0
M  V30 12697 H 1155.13 -0.637961 6.07258 0
M  V30 12698 H 1156.54 1.5641 5.51551 0
M  V30 12699 H 1154.94 2.35528 5.51948 0
M  V30 12700 H 1156.01 2.5565 4.12033 0
M  V30 12701 N 1157.35 -1.41121 0.701616 0
M  V30 12702 C 1158.28 -2.33436 0.0545974 0
M  V30 12703 C 1159.26 -1.52144 -0.760662 0
M  V30 12704 O 1160.45 -1.80661 -0.712414 0
M  V30 12705 C 1157.58 -3.36015 -0.878117 0
M  V30 12706 C 1156.53 -4.27664 -0.169511 0
M  V30 12707 C 1155.86 -5.20666 -1.21699 0
M  V30 12708 C 1157.16 -5.13254 0.967859 0
M  V30 12709 H 1158.85 -2.87791 0.825637 0
M  V30 12710 H 1156.4 -1.38377 0.398484 0
M  V30 12711 H 1158.35 -3.99526 -1.34004 0
M  V30 12712 H 1157.08 -2.80024 -1.68089 0
M  V30 12713 H 1155.73 -3.65586 0.272441 0
M  V30 12714 H 1155.38 -4.60987 -2.01246 0
M  V30 12715 H 1155.08 -5.82822 -0.747836 0
M  V30 12716 H 1156.61 -5.87053 -1.6793 0
M  V30 12717 H 1158.02 -5.70298 0.585944 0
M  V30 12718 H 1156.42 -5.84381 1.3645 0
M  V30 12719 H 1157.49 -4.5006 1.80483 0
M  V30 12720 N 1158.83 -0.446794 -1.51134 0
M  V30 12721 C 1160.11 0.176892 -1.94798 0
M  V30 12722 C 1160.49 1.59229 -1.38598 0
M  V30 12723 O 1159.84 2.21097 -0.576905 0
M  V30 12724 C 1160.05 0.145 -3.48699 0
M  V30 12725 C 1161.39 0.345917 -4.23189 0
M  V30 12726 O 1162.42 0.222691 -3.55503 0
M  V30 12727 O 1161.28 0.592112 -5.43283 0
M  V30 12728 H 1158.37 0.12486 -0.81752 0
M  V30 12729 H 1160.92 -0.505453 -1.61998 0
M  V30 12730 H 1159.69 -0.844156 -3.82086 0
M  V30 12731 H 1159.31 0.869851 -3.87968 0
M  V30 12732 N 1160.31 1.56586 -0.178487 0
M  V30 12733 C 1161.59 1.88798 0.511356 0
M  V30 12734 C 1161.97 1.08949 1.80813 0
M  V30 12735 O 1161.31 0.185551 2.27745 0
M  V30 12736 C 1161.52 3.40927 0.746298 0
M  V30 12737 C 1162.87 4.10816 1.0731 0
M  V30 12738 O 1163.9 3.46285 0.834592 0
M  V30 12739 O 1162.75 5.24837 1.52343 0
M  V30 12740 H 1159.85 0.783574 0.264463 0
M  V30 12741 H 1162.39 1.68301 -0.21746 0
M  V30 12742 H 1161.17 3.9093 -0.17015 0
M  V30 12743 H 1160.79 3.67059 1.52817 0
M  V30 12744 N 1161.79 -0.095206 1.57312 0
M  V30 12745 C 1163.2 -0.649733 1.7503 0
M  V30 12746 C 1163.55 -1.7912 0.800652 0
M  V30 12747 O 1162.67 -2.1639 -0.0208831 0
M  V30 12748 C 1163.27 -1.18541 3.17386 0
M  V30 12749 C 1161.83 -1.686 3.36528 0
M  V30 12750 C 1160.97 -0.595531 2.7083 0
M  V30 12751 H 1163.93 0.130863 1.5816 0
M  V30 12752 H 1163.95 -2.05473 3.20252 0
M  V30 12753 H 1163.46 -0.35441 3.86478 0
M  V30 12754 H 1161.56 -2.541 2.72514 0
M  V30 12755 H 1161.67 -1.77907 4.44844 0
M  V30 12756 H 1160.04 -1.03495 2.32725 0
M  V30 12757 H 1160.82 0.224883 3.42563 0
M  V30 12758 N 1163.26 -1.53291 -0.366026 0
M  V30 12759 C 1164.19 -1.82675 -1.45437 0
M  V30 12760 C 1165.18 -0.680227 -1.55907 0
M  V30 12761 O 1166.36 -0.930032 -1.70482 0
M  V30 12762 C 1163.49 -2.01626 -2.8278 0
M  V30 12763 C 1162.44 -3.17391 -2.87135 0
M  V30 12764 C 1161.77 -3.21634 -4.27148 0
M  V30 12765 C 1163.07 -4.5599 -2.54697 0
M  V30 12766 H 1164.76 -2.73818 -1.21096 0
M  V30 12767 H 1162.31 -1.31754 -0.581108 0
M  V30 12768 H 1164.26 -2.20765 -3.58944 0
M  V30 12769 H 1162.99 -1.07193 -3.08508 0
M  V30 12770 H 1161.65 -2.98071 -2.13422 0
M  V30 12771 H 1161.29 -2.2484 -4.49951 0
M  V30 12772 H 1160.99 -3.99414 -4.30978 0
M  V30 12773 H 1162.52 -3.42957 -5.05186 0
M  V30 12774 H 1163.93 -4.75294 -3.20575 0
M  V30 12775 H 1162.33 -5.36008 -2.69844 0
M  V30 12776 H 1163.4 -4.61133 -1.49949 0
M  V30 12777 N 1164.74 0.6258 -1.44643 0
M  V30 12778 C 1165.97 1.41726 -1.51422 0
M  V30 12779 C 1166.39 1.87565 -0.14181 0
M  V30 12780 O 1165.75 1.59059 0.870054 0
M  V30 12781 C 1165.8 2.61012 -2.48807 0
M  V30 12782 O 1164.9 3.61029 -1.99328 0
M  V30 12783 H 1164.24 0.423855 -0.511119 0
M  V30 12784 H 1166.77 0.763336 -1.89827 0
M  V30 12785 H 1166.78 3.08489 -2.67018 0
M  V30 12786 H 1165.46 2.26995 -3.48491 0
M  V30 12787 H 1164.04 3.20325 -1.90909 0
M  V30 12788 N 1166.22 1.31629 0.866686 0
M  V30 12789 C 1167.18 1.1951 1.95576 0
M  V30 12790 C 1168.18 0.121319 1.60342 0
M  V30 12791 O 1169.37 0.370832 1.70207 0
M  V30 12792 C 1166.51 0.835201 3.30511 0
M  V30 12793 H 1167.7 2.16285 2.07752 0
M  V30 12794 H 1165.25 1.15288 1.05539 0
M  V30 12795 H 1165.99 -0.131245 3.24034 0
M  V30 12796 H 1165.77 1.61142 3.57457 0
M  V30 12797 H 1167.26 0.774393 4.10357 0
M  V30 12798 N 1167.7 -1.08142 1.14644 0
M  V30 12799 C 1168.95 -1.80849 0.917685 0
M  V30 12800 C 1169.28 -1.86123 -0.554249 0
M  V30 12801 O 1168.55 -1.33907 -1.41065 0
M  V30 12802 C 1168.84 -3.26325 1.52264 0
M  V30 12803 C 1168.69 -3.29244 3.06461 0
M  V30 12804 C 1170.01 -4.23375 1.20175 0
M  V30 12805 H 1167.13 -0.656559 0.334812 0
M  V30 12806 H 1169.77 -1.26595 1.41682 0
M  V30 12807 H 1167.92 -3.72656 1.09817 0
M  V30 12808 H 1169.59 -2.91216 3.57758 0
M  V30 12809 H 1167.83 -2.68438 3.40769 0
M  V30 12810 H 1168.51 -4.31785 3.43897 0
M  V30 12811 H 1170.98 -3.85394 1.56877 0
M  V30 12812 H 1169.86 -5.23472 1.65132 0
M  V30 12813 H 1170.12 -4.41944 0.117474 0
M  V30 12814 N 1169.18 -0.941978 -1.26351 0
M  V30 12815 C 1170.45 -0.507822 -1.88893 0
M  V30 12816 C 1170.83 1.0146 -1.85119 0
M  V30 12817 O 1170.18 1.87495 -1.30606 0
M  V30 12818 C 1170.39 -1.07007 -3.3219 0
M  V30 12819 C 1171.74 -1.13922 -4.09032 0
M  V30 12820 O 1172.76 -1.02072 -3.41262 0
M  V30 12821 O 1171.62 -1.32362 -5.30229 0
M  V30 12822 H 1168.72 -0.165621 -0.810246 0
M  V30 12823 H 1171.26 -1.03459 -1.34515 0
M  V30 12824 H 1170.04 -2.11366 -3.29302 0
M  V30 12825 H 1169.66 -0.525797 -3.94108 0
M  V30 12826 N 1170.66 1.40747 -0.709091 0
M  V30 12827 C 1171.62 2.29118 -0.0611607 0
M  V30 12828 C 1172.62 1.45049 0.694081 0
M  V30 12829 O 1173.81 1.66039 0.526952 0
M  V30 12830 C 1170.94 3.28154 0.923447 0
M  V30 12831 H 1172.13 2.87913 -0.839413 0
M  V30 12832 H 1169.69 1.4896 -0.473363 0
M  V30 12833 H 1170.42 2.74366 1.72899 0
M  V30 12834 H 1170.21 3.90207 0.384862 0
M  V30 12835 H 1171.7 3.94343 1.37417 0
M  V30 12836 N 1172.13 0.454803 1.50895 0
M  V30 12837 C 1173.08 -0.366073 2.25042 0
M  V30 12838 C 1174.07 -0.975353 1.27967 0
M  V30 12839 O 1175.26 -0.8906 1.52962 0
M  V30 12840 C 1172.39 -1.45683 3.10856 0
M  V30 12841 C 1171.47 -0.856086 4.1537 0
M  V30 12842 N 1171.87 0.0138787 5.05798 0
M  V30 12843 C 1170.16 -1.1218 4.31661 0
M  V30 12844 C 1170.86 0.35313 5.80627 0
M  V30 12845 N 1169.84 -0.267648 5.42941 0
M  V30 12846 H 1173.64 0.304357 2.9232 0
M  V30 12847 H 1171.16 0.267937 1.60174 0
M  V30 12848 H 1173.15 -2.05793 3.62567 0
M  V30 12849 H 1171.81 -2.12942 2.45124 0
M  V30 12850 H 1172.82 0.381574 5.16492 0
M  V30 12851 H 1169.5 -1.79059 3.77153 0
M  V30 12852 H 1170.89 1.06213 6.63452 0
M  V30 12853 N 1173.61 -1.56489 0.186789 0
M  V30 12854 C 1174.86 -1.97634 -0.454831 0
M  V30 12855 C 1175.19 -1.07334 -1.61843 0
M  V30 12856 O 1174.47 -0.123612 -1.94107 0
M  V30 12857 C 1174.75 -3.48071 -0.922962 0
M  V30 12858 C 1174.6 -4.49149 0.241877 0
M  V30 12859 C 1175.92 -4.01994 -1.79134 0
M  V30 12860 H 1173.04 -0.718555 -0.163854 0
M  V30 12861 H 1175.68 -1.87984 0.27604 0
M  V30 12862 H 1173.83 -3.56425 -1.54575 0
M  V30 12863 H 1175.5 -4.52841 0.87936 0
M  V30 12864 H 1173.75 -4.24468 0.894964 0
M  V30 12865 H 1174.42 -5.51851 -0.128051 0
M  V30 12866 H 1176.89 -3.96367 -1.26618 0
M  V30 12867 H 1175.77 -5.07641 -2.08787 0
M  V30 12868 H 1176.03 -3.46747 -2.74261 0
M  V30 12869 N 1175.09 0.086862 -1.5736 0
M  V30 12870 C 1176.34 0.787281 -1.86135 0
M  V30 12871 C 1176.66 1.78866 -0.776667 0
M  V30 12872 O 1175.93 1.94915 0.19625 0
M  V30 12873 H 1174.51 0.293744 -0.686821 0
M  V30 12874 H 1177.17 0.0665326 -1.94786 0
M  V30 12875 H 1176.27 1.3128 -2.83147 0
M  V30 12876 N 1176.57 1.53483 0.357892 0
M  V30 12877 C 1177.51 1.80463 1.43881 0
M  V30 12878 C 1178.48 0.649438 1.52877 0
M  V30 12879 O 1179.67 0.892409 1.68644 0
M  V30 12880 C 1176.81 2.00714 2.80727 0
M  V30 12881 C 1175.92 3.28431 2.80637 0
M  V30 12882 C 1175.06 3.38828 4.09107 0
M  V30 12883 C 1174.1 4.60549 4.03189 0
M  V30 12884 N 1173.23 4.68057 5.23323 0
M  V30 12885 H 1178.07 2.72694 1.20174 0
M  V30 12886 H 1175.61 1.35079 0.582422 0
M  V30 12887 H 1177.57 2.10444 3.60235 0
M  V30 12888 H 1176.2 1.11811 3.02817 0
M  V30 12889 H 1175.25 3.27617 1.93317 0
M  V30 12890 H 1176.56 4.18022 2.72138 0
M  V30 12891 H 1175.72 3.47911 4.97034 0
M  V30 12892 H 1174.46 2.47267 4.20369 0
M  V30 12893 H 1173.46 4.51558 3.13649 0
M  V30 12894 H 1174.69 5.53459 3.93523 0
M  V30 12895 H 1172.63 3.794 5.35156 0
M  V30 12896 H 1172.55 5.51563 5.17024 0
M  V30 12897 H 1173.82 4.81433 6.1306 0
M  V30 12898 N 1178.05 -0.61812 1.44973 0
M  V30 12899 C 1179 -1.72346 1.49268 0
M  V30 12900 C 1179.98 -1.56889 0.357042 0
M  V30 12901 O 1181.17 -1.66404 0.603212 0
M  V30 12902 C 1178.3 -3.11073 1.4522 0
M  V30 12903 C 1177.39 -3.31953 2.63947 0
M  V30 12904 N 1177.78 -3.23141 3.89119 0
M  V30 12905 C 1176.08 -3.62791 2.59419 0
M  V30 12906 C 1176.78 -3.45066 4.683 0
M  V30 12907 N 1175.75 -3.68558 3.99582 0
M  V30 12908 H 1179.55 -1.6401 2.43881 0
M  V30 12909 H 1177.07 -0.821029 1.40117 0
M  V30 12910 H 1179.07 -3.90356 1.46381 0
M  V30 12911 H 1177.73 -3.20565 0.516555 0
M  V30 12912 H 1178.74 -3.01773 4.20896 0
M  V30 12913 H 1175.41 -3.79185 1.74713 0
M  V30 12914 H 1176.8 -3.43735 5.77318 0
M  V30 12915 N 1179.52 -1.32087 -0.859693 0
M  V30 12916 C 1180.77 -1.21716 -1.60836 0
M  V30 12917 C 1181.09 0.220904 -1.94349 0
M  V30 12918 O 1182.29 0.446422 -2.67805 0
M  V30 12919 C 1180.75 -2.13143 -2.89997 0
M  V30 12920 C 1180.36 -3.62003 -2.63928 0
M  V30 12921 C 1182.1 -2.11596 -3.68004 0
M  V30 12922 C 1180.01 -4.45407 -3.89059 0
M  V30 12923 H 1178.94 -0.45199 -0.603507 0
M  V30 12924 H 1181.59 -1.57013 -0.949687 0
M  V30 12925 H 1179.97 -1.70755 -3.57294 0
M  V30 12926 H 1181.14 -4.12701 -2.04974 0
M  V30 12927 H 1179.46 -3.6563 -1.99258 0
M  V30 12928 H 1182.06 -2.71149 -4.6085 0
M  V30 12929 H 1182.4 -1.10568 -4.01348 0
M  V30 12930 H 1182.93 -2.52238 -3.07605 0
M  V30 12931 H 1179.67 -5.4723 -3.60859 0
M  V30 12932 H 1179.19 -3.99462 -4.47427 0
M  V30 12933 H 1180.87 -4.58149 -4.56846 0
M  V30 12934 N 1181 1.07532 -1.15215 0
M  V30 12935 C 1182.25 1.80093 -0.925891 0
M  V30 12936 C 1182.58 1.86648 0.547079 0
M  V30 12937 O 1181.83 1.34492 1.42164 0
M  V30 12938 C 1182.13 3.2518 -1.483 0
M  V30 12939 C 1181.8 3.38728 -2.97614 0
M  V30 12940 C 1180.46 3.42133 -3.38376 0
M  V30 12941 C 1182.81 3.41676 -3.93583 0
M  V30 12942 C 1180.14 3.46086 -4.73752 0
M  V30 12943 C 1182.49 3.47166 -5.28828 0
M  V30 12944 C 1181.15 3.48847 -5.69089 0
M  V30 12945 H 1180.42 0.659007 -0.338808 0
M  V30 12946 H 1183.07 1.26548 -1.43728 0
M  V30 12947 H 1181.38 3.81493 -0.892751 0
M  V30 12948 H 1183.07 3.79895 -1.28376 0
M  V30 12949 H 1179.66 3.36775 -2.65105 0
M  V30 12950 H 1183.85 3.38268 -3.63165 0
M  V30 12951 H 1179.1 3.45686 -5.04293 0
M  V30 12952 H 1183.28 3.48393 -6.02989 0
M  V30 12953 H 1180.9 3.51663 -6.73971 0
M  V30 12954 N 1182.48 0.948665 1.2585 0
M  V30 12955 C 1183.43 0.455115 2.28104 0
M  V30 12956 C 1184.42 -0.471508 1.62706 0
M  V30 12957 O 1185.63 -0.348895 1.76586 0
M  V30 12958 H 1182 0.128659 0.740912 0
M  V30 12959 H 1183.97 1.32991 2.67125 0
M  V30 12960 C 1182.72 -0.25729 3.46747 0
M  V30 12961 H 1182.05 0.44658 3.97298 0
M  V30 12962 H 1183.49 -0.566736 4.20195 0
M  V30 12963 C 1181.95 -1.47772 3.02762 0
M  V30 12964 O 1182.48 -2.57571 3.08253 0
M  V30 12965 N 1180.68 -1.33694 2.5802 0
M  V30 12966 H 1180.23 -0.443595 2.53752 0
M  V30 12967 H 1180.19 -2.1547 2.28954 0
M  V30 12968 N 1183.96 -1.40369 0.716545 0
M  V30 12969 C 1184.91 -2.3071 0.0645944 0
M  V30 12970 C 1185.88 -1.48239 -0.749294 0
M  V30 12971 O 1187.06 -1.76975 -0.713045 0
M  V30 12972 C 1184.2 -3.34456 -0.850478 0
M  V30 12973 C 1183.31 -4.31992 -0.0259594 0
M  V30 12974 C 1182.45 -5.22806 -0.940599 0
M  V30 12975 C 1181.49 -6.12001 -0.110228 0
M  V30 12976 N 1180.62 -6.9523 -0.979796 0
M  V30 12977 H 1185.46 -2.85896 0.840682 0
M  V30 12978 H 1183 -1.40789 0.426258 0
M  V30 12979 H 1184.96 -3.93177 -1.39528 0
M  V30 12980 H 1183.59 -2.8077 -1.59274 0
M  V30 12981 H 1182.64 -3.75045 0.636036 0
M  V30 12982 H 1183.95 -4.94971 0.616883 0
M  V30 12983 H 1183.11 -5.86463 -1.5539 0
M  V30 12984 H 1181.85 -4.60104 -1.61726 0
M  V30 12985 H 1180.85 -5.47373 0.516001 0
M  V30 12986 H 1182.08 -6.76763 0.562944 0
M  V30 12987 H 1180.02 -6.35115 -1.64209 0
M  V30 12988 H 1179.94 -7.54978 -0.393012 0
M  V30 12989 H 1181.21 -7.63335 -1.57924 0
M  V30 12990 N 1185.44 -0.462799 -1.50652 0
M  V30 12991 C 1186.68 0.0951853 -2.02576 0
M  V30 12992 C 1187.02 1.40113 -1.34469 0
M  V30 12993 O 1186.29 1.88793 -0.467702 0
M  V30 12994 C 1186.57 0.287603 -3.5895 0
M  V30 12995 C 1186.43 -1.03878 -4.37641 0
M  V30 12996 C 1187.75 1.04593 -4.27491 0
M  V30 12997 H 1184.86 0.0331191 -0.736255 0
M  V30 12998 H 1187.51 -0.606772 -1.80051 0
M  V30 12999 H 1185.66 0.885514 -3.78274 0
M  V30 13000 H 1187.33 -1.67263 -4.29908 0
M  V30 13001 H 1185.57 -1.6374 -4.01711 0
M  V30 13002 H 1186.24 -0.857889 -5.45293 0
M  V30 13003 H 1188.72 0.539213 -4.12591 0
M  V30 13004 H 1187.59 1.14935 -5.36732 0
M  V30 13005 H 1187.86 2.08045 -3.90089 0
M  V30 13006 N 1186.91 1.56388 -0.195085 0
M  V30 13007 C 1187.84 2.22091 0.720971 0
M  V30 13008 C 1188.83 1.184 1.22128 0
M  V30 13009 O 1190.01 1.46907 1.27012 0
M  V30 13010 C 1187.14 2.88025 1.94059 0
M  V30 13011 C 1186.09 3.97959 1.5752 0
M  V30 13012 C 1185.42 4.51058 2.87143 0
M  V30 13013 C 1186.72 5.16365 0.785145 0
M  V30 13014 H 1188.41 2.98898 0.173245 0
M  V30 13015 H 1185.96 1.43767 0.0818868 0
M  V30 13016 H 1187.91 3.32671 2.58666 0
M  V30 13017 H 1186.64 2.08623 2.51285 0
M  V30 13018 H 1185.3 3.54004 0.952715 0
M  V30 13019 H 1184.94 3.68418 3.42458 0
M  V30 13020 H 1184.64 5.25237 2.63439 0
M  V30 13021 H 1186.17 4.98406 3.52738 0
M  V30 13022 H 1187.58 5.57556 1.33431 0
M  V30 13023 H 1185.98 5.9661 0.646231 0
M  V30 13024 H 1187.05 4.84428 -0.213789 0
M  V30 13025 N 1188.39 -0.0785156 1.57404 0
M  V30 13026 C 1189.64 -0.777399 1.8655 0
M  V30 13027 C 1189.96 -1.78451 0.786142 0
M  V30 13028 O 1189.23 -1.95016 -0.185911 0
M  V30 13029 H 1187.81 -0.290097 0.688369 0
M  V30 13030 H 1190.47 -0.0562017 1.94819 0
M  V30 13031 H 1189.57 -1.29776 2.83839 0
M  V30 13032 N 1189.87 -1.5367 -0.349747 0
M  V30 13033 C 1191.28 -1.62135 -0.925704 0
M  V30 13034 C 1191.63 -0.498725 -1.89756 0
M  V30 13035 O 1190.76 0.372481 -2.1317 0
M  V30 13036 C 1191.35 -2.93885 -1.68573 0
M  V30 13037 C 1189.91 -3.04632 -2.2108 0
M  V30 13038 C 1189.06 -2.57541 -1.02801 0
M  V30 13039 H 1192.01 -1.58182 -0.128065 0
M  V30 13040 H 1192.03 -2.82577 -2.54815 0
M  V30 13041 H 1191.54 -3.75571 -0.978153 0
M  V30 13042 H 1189.64 -2.27567 -2.95032 0
M  V30 13043 H 1189.76 -4.09993 -2.47876 0
M  V30 13044 H 1188.12 -2.12798 -1.39962 0
M  V30 13045 H 1188.9 -3.4166 -0.335157 0
M  V30 13046 N 1191.35 0.610423 -1.45298 0
M  V30 13047 C 1192.3 1.74245 -1.54083 0
M  V30 13048 C 1193.29 1.64338 -0.411003 0
M  V30 13049 O 1194.5 1.70167 -0.586799 0
M  V30 13050 H 1190.87 0.575612 -0.483916 0
M  V30 13051 H 1192.84 1.63961 -2.49318 0
M  V30 13052 C 1191.59 3.1262 -1.52198 0
M  V30 13053 H 1190.91 3.209 -2.3846 0
M  V30 13054 H 1192.35 3.91665 -1.62403 0
M  V30 13055 C 1190.81 3.36001 -0.24595 0
M  V30 13056 O 1191.34 3.95982 0.675374 0
M  V30 13057 N 1189.55 2.9025 -0.142537 0
M  V30 13058 H 1189.1 2.41621 -0.893143 0
M  V30 13059 H 1189.05 3.06268 0.710427 0
M  V30 13060 N 1192.83 1.32541 0.852676 0
M  V30 13061 C 1194.07 1.22971 1.60383 0
M  V30 13062 C 1194.4 -0.208009 1.93887 0
M  V30 13063 O 1193.67 -1.13326 1.59794 0
M  V30 13064 H 1192.25 0.452149 0.594618 0
M  V30 13065 H 1194.91 1.66089 1.01983 0
M  V30 13066 H 1194 1.81373 2.53989 0
M  V30 13067 N 1194.3 -1.0692 1.15784 0
M  V30 13068 C 1195.23 -2.16216 0.881649 0
M  V30 13069 C 1196.22 -1.69253 -0.16951 0
M  V30 13070 O 1197.4 -1.94186 -0.0229511 0
M  V30 13071 C 1194.53 -3.4527 0.374982 0
M  V30 13072 C 1193.48 -4.05706 1.36332 0
M  V30 13073 C 1192.81 -5.29894 0.715317 0
M  V30 13074 C 1194.11 -4.45224 2.7308 0
M  V30 13075 H 1195.8 -2.39577 1.79563 0
M  V30 13076 H 1193.35 -1.15141 0.864784 0
M  V30 13077 H 1195.3 -4.2106 0.169279 0
M  V30 13078 H 1194.03 -3.21508 -0.574485 0
M  V30 13079 H 1192.69 -3.31965 1.55546 0
M  V30 13080 H 1192.33 -5.02425 -0.240436 0
M  V30 13081 H 1192.03 -5.71287 1.37494 0
M  V30 13082 H 1193.56 -6.08386 0.519489 0
M  V30 13083 H 1194.97 -5.12124 2.57686 0
M  V30 13084 H 1193.37 -4.97583 3.35457 0
M  V30 13085 H 1194.44 -3.56384 3.28813 0
M  V30 13086 N 1195.78 -0.955326 -1.25345 0
M  V30 13087 C 1196.71 -0.494145 -2.28211 0
M  V30 13088 C 1197.69 0.459875 -1.63766 0
M  V30 13089 O 1198.88 0.358679 -1.90859 0
M  V30 13090 C 1196.01 0.228228 -3.46549 0
M  V30 13091 C 1194.96 -0.640601 -4.23179 0
M  V30 13092 C 1194.29 0.212553 -5.34277 0
M  V30 13093 C 1195.59 -1.91906 -4.85767 0
M  V30 13094 H 1197.28 -1.35391 -2.67039 0
M  V30 13095 H 1194.83 -0.652462 -1.2837 0
M  V30 13096 H 1196.78 0.561995 -4.17636 0
M  V30 13097 H 1195.51 1.12224 -3.06714 0
M  V30 13098 H 1194.16 -0.957462 -3.53876 0
M  V30 13099 H 1193.81 1.10634 -4.90682 0
M  V30 13100 H 1193.51 -0.365473 -5.86462 0
M  V30 13101 H 1195.04 0.541271 -6.08196 0
M  V30 13102 H 1196.45 -1.65165 -5.48993 0
M  V30 13103 H 1194.85 -2.44279 -5.48131 0
M  V30 13104 H 1195.92 -2.62173 -4.07914 0
M  V30 13105 N 1197.26 1.39987 -0.723979 0
M  V30 13106 C 1198.21 2.30672 -0.0768286 0
M  V30 13107 C 1199.18 1.48634 0.741422 0
M  V30 13108 O 1200.36 1.77351 0.703649 0
M  V30 13109 C 1197.5 3.34902 0.832729 0
M  V30 13110 C 1196.62 4.32 0.00304942 0
M  V30 13111 C 1195.75 5.23298 0.91286 0
M  V30 13112 C 1194.79 6.12051 0.0777706 0
M  V30 13113 N 1193.93 6.9574 0.942912 0
M  V30 13114 H 1198.77 2.85446 -0.855832 0
M  V30 13115 H 1196.3 1.40561 -0.433718 0
M  V30 13116 H 1198.26 3.93911 1.37441 0
M  V30 13117 H 1196.89 2.81611 1.57782 0
M  V30 13118 H 1195.94 3.74702 -0.655916 0
M  V30 13119 H 1197.26 4.94637 -0.643124 0
M  V30 13120 H 1196.41 5.87279 1.52277 0
M  V30 13121 H 1195.15 4.60956 1.59284 0
M  V30 13122 H 1194.15 5.47092 -0.545022 0
M  V30 13123 H 1195.38 6.76455 -0.598827 0
M  V30 13124 H 1193.33 6.35977 1.60838 0
M  V30 13125 H 1193.24 7.55176 0.352968 0
M  V30 13126 H 1194.51 7.64162 1.53874 0
M  V30 13127 N 1198.74 0.470782 1.50404 0
M  V30 13128 C 1199.99 -0.0841494 2.01925 0
M  V30 13129 C 1200.31 -1.40244 1.35487 0
M  V30 13130 O 1199.58 -1.89409 0.500111 0
M  V30 13131 H 1198.16 -0.0340884 0.746222 0
M  V30 13132 H 1200.82 0.621133 1.84738 0
M  V30 13133 H 1199.92 -0.235877 3.11207 0
M  V30 13134 N 1200.22 -1.56282 0.203376 0
M  V30 13135 C 1201.16 -2.19473 -0.714164 0
M  V30 13136 C 1202.13 -1.14454 -1.20372 0
M  V30 13137 O 1203.32 -1.42739 -1.26611 0
M  V30 13138 C 1200.46 -2.86451 -1.92457 0
M  V30 13139 C 1199.57 -4.06017 -1.47561 0
M  V30 13140 C 1198.71 -4.60829 -2.64216 0
M  V30 13141 C 1197.75 -5.72734 -2.15967 0
M  V30 13142 N 1196.88 -6.21916 -3.25829 0
M  V30 13143 H 1201.72 -2.97523 -0.168558 0
M  V30 13144 H 1199.26 -1.46926 -0.0714525 0
M  V30 13145 H 1201.22 -3.23459 -2.63496 0
M  V30 13146 H 1199.85 -2.10951 -2.44335 0
M  V30 13147 H 1198.9 -3.74617 -0.660784 0
M  V30 13148 H 1200.21 -4.8693 -1.08168 0
M  V30 13149 H 1199.37 -5.00185 -3.43366 0
M  V30 13150 H 1198.11 -3.7904 -3.06887 0
M  V30 13151 H 1197.11 -5.32899 -1.35273 0
M  V30 13152 H 1198.34 -6.56346 -1.74316 0
M  V30 13153 H 1196.28 -5.43047 -3.68016 0
M  V30 13154 H 1196.2 -6.97904 -2.90631 0
M  V30 13155 H 1197.47 -6.65927 -4.05168 0
M  V30 13156 N 1201.7 0.070167 -1.57444 0
M  V30 13157 C 1202.92 0.781894 -1.91557 0
M  V30 13158 C 1203.34 1.71037 -0.799489 0
M  V30 13159 O 1202.7 1.81082 0.227062 0
M  V30 13160 C 1202.75 1.57415 -3.25427 0
M  V30 13161 O 1202.47 0.682991 -4.32743 0
M  V30 13162 C 1203.97 2.38673 -3.73564 0
M  V30 13163 H 1201.19 0.222211 -0.633138 0
M  V30 13164 H 1203.73 0.0399504 -2.04461 0
M  V30 13165 H 1201.89 2.26835 -3.14045 0
M  V30 13166 H 1202.3 1.2342 -5.09772 0
M  V30 13167 H 1203.78 2.89716 -4.6986 0
M  V30 13168 H 1204.25 3.18269 -3.02657 0
M  V30 13169 H 1204.86 1.74405 -3.87896 0
M  V30 13170 N 1203.17 1.53854 0.341593 0
M  V30 13171 C 1204.59 1.44161 0.684821 0
M  V30 13172 C 1204.79 0.599929 1.92362 0
M  V30 13173 O 1203.85 0.0916771 2.52334 0
M  V30 13174 C 1205.16 2.87668 0.875637 0
M  V30 13175 C 1206.71 2.97455 0.974131 0
M  V30 13176 C 1207.18 4.42075 1.19725 0
M  V30 13177 N 1208.67 4.45609 1.2644 0
M  V30 13178 C 1209.41 5.54643 1.45459 0
M  V30 13179 N 1208.9 6.7368 1.61637 0
M  V30 13180 N 1210.7 5.4226 1.48022 0
M  V30 13181 H 1202.85 2.07069 -0.472883 0
M  V30 13182 H 1205.11 0.936114 -0.149648 0
M  V30 13183 H 1204.82 3.51681 0.0368595 0
M  V30 13184 H 1204.69 3.32731 1.7768 0
M  V30 13185 H 1207.08 2.33582 1.80343 0
M  V30 13186 H 1207.16 2.55751 0.0498282 0
M  V30 13187 H 1206.8 5.06529 0.372872 0
M  V30 13188 H 1206.73 4.81372 2.13515 0
M  V30 13189 H 1209.22 3.59831 1.15455 0
M  V30 13190 H 1209.54 7.52541 1.7579 0
M  V30 13191 H 1207.88 6.76622 1.5877 0
M  V30 13192 H 1211.07 4.48221 1.34966 0
M  V30 13193 H 1211.25 6.27293 1.62502 0
M  V30 13194 N 1204.65 -0.602709 1.4562 0
M  V30 13195 C 1205.58 -1.72374 1.5751 0
M  V30 13196 C 1206.56 -1.64669 0.426389 0
M  V30 13197 O 1207.75 -1.82994 0.650143 0
M  V30 13198 C 1204.88 -3.10987 1.5461 0
M  V30 13199 C 1203.83 -3.33507 2.68248 0
M  V30 13200 C 1203.16 -4.72443 2.50403 0
M  V30 13201 C 1204.46 -3.23285 4.10224 0
M  V30 13202 H 1206.15 -1.62679 2.51348 0
M  V30 13203 H 1203.7 -0.781217 1.20967 0
M  V30 13204 H 1205.65 -3.89214 1.61525 0
M  V30 13205 H 1204.37 -3.21533 0.573049 0
M  V30 13206 H 1203.03 -2.57672 2.60769 0
M  V30 13207 H 1202.68 -4.79729 1.51226 0
M  V30 13208 H 1202.38 -4.88466 3.26611 0
M  V30 13209 H 1203.91 -5.52864 2.59179 0
M  V30 13210 H 1205.32 -3.91381 4.1892 0
M  V30 13211 H 1203.72 -3.50837 4.86861 0
M  V30 13212 H 1204.79 -2.20652 4.31788 0
M  V30 13213 N 1206.13 -1.32992 -0.845635 0
M  V30 13214 C 1207.06 -1.25301 -1.97033 0
M  V30 13215 C 1208.04 -0.134966 -1.69564 0
M  V30 13216 O 1209.23 -0.323629 -1.91484 0
M  V30 13217 C 1206.36 -0.984551 -3.33052 0
M  V30 13218 C 1205.31 -2.06481 -3.749 0
M  V30 13219 C 1204.64 -1.6486 -5.08651 0
M  V30 13220 C 1205.94 -3.48083 -3.89404 0
M  V30 13221 H 1207.63 -2.194 -2.03725 0
M  V30 13222 H 1205.18 -1.05621 -0.978783 0
M  V30 13223 H 1207.13 -0.917269 -4.11296 0
M  V30 13224 H 1205.85 -0.00793116 -3.26599 0
M  V30 13225 H 1204.51 -2.1224 -2.98915 0
M  V30 13226 H 1204.16 -0.659183 -4.98662 0
M  V30 13227 H 1203.86 -2.37145 -5.37621 0
M  V30 13228 H 1205.38 -1.59585 -5.89377 0
M  V30 13229 H 1206.8 -3.44863 -4.57976 0
M  V30 13230 H 1205.19 -4.18796 -4.29802 0
M  V30 13231 H 1206.26 -3.87084 -2.92051 0
M  V30 13232 N 1207.61 1.06304 -1.1635 0
M  V30 13233 C 1208.85 1.79366 -0.94634 0
M  V30 13234 C 1209.19 1.86981 0.524569 0
M  V30 13235 O 1208.46 1.36134 1.38917 0
M  V30 13236 C 1208.74 3.23861 -1.57436 0
M  V30 13237 C 1208.6 3.24327 -3.1166 0
M  V30 13238 C 1209.92 4.21409 -1.26895 0
M  V30 13239 H 1207.04 0.65115 -0.345215 0
M  V30 13240 H 1209.68 1.24325 -1.43678 0
M  V30 13241 H 1207.83 3.70862 -1.15731 0
M  V30 13242 H 1209.5 2.85488 -3.62346 0
M  V30 13243 H 1207.74 2.62983 -3.44997 0
M  V30 13244 H 1208.41 4.2626 -3.50723 0
M  V30 13245 H 1210.89 3.8285 -1.62989 0
M  V30 13246 H 1209.77 5.20778 -1.73439 0
M  V30 13247 H 1210.03 4.41701 -0.187768 0
M  V30 13248 N 1209.09 0.96196 1.24836 0
M  V30 13249 C 1210.31 0.63814 1.96813 0
M  V30 13250 C 1210.73 -0.79127 1.71419 0
M  V30 13251 O 1210.09 -1.5302 0.994546 0
M  V30 13252 C 1210.14 0.89626 3.50213 0
M  V30 13253 O 1209.86 2.26947 3.74735 0
M  V30 13254 C 1211.36 0.585836 4.39412 0
M  V30 13255 H 1208.58 0.238598 0.627146 0
M  V30 13256 H 1211.12 1.28833 1.58815 0
M  V30 13257 H 1209.28 0.292368 3.86295 0
M  V30 13258 H 1209.69 2.34514 4.69152 0
M  V30 13259 H 1211.17 0.816935 5.45921 0
M  V30 13260 H 1211.64 -0.479784 4.36572 0
M  V30 13261 H 1212.25 1.16938 4.08908 0
M  V30 13262 N 1210.56 -1.39601 0.731392 0
M  V30 13263 C 1211.51 -2.27907 0.0651931 0
M  V30 13264 C 1212.5 -1.44075 -0.716334 0
M  V30 13265 O 1213.69 -1.6702 -0.585936 0
M  V30 13266 C 1210.82 -3.32763 -0.844023 0
M  V30 13267 C 1209.9 -4.24062 -0.0568388 0
M  V30 13268 N 1210.3 -4.96448 0.968146 0
M  V30 13269 C 1208.59 -4.45075 -0.287037 0
M  V30 13270 C 1209.29 -5.6353 1.44252 0
M  V30 13271 N 1208.27 -5.38236 0.761772 0
M  V30 13272 H 1212.07 -2.81324 0.850539 0
M  V30 13273 H 1209.59 -1.5224 0.565396 0
M  V30 13274 H 1211.58 -3.94888 -1.33674 0
M  V30 13275 H 1210.24 -2.80905 -1.62857 0
M  V30 13276 H 1211.25 -5.00011 1.34942 0
M  V30 13277 H 1207.93 -4.04167 -1.04667 0
M  V30 13278 H 1209.32 -6.31487 2.29508 0
M  V30 13279 N 1212.04 -0.478751 -1.50152 0
M  V30 13280 C 1213.27 0.0732929 -2.0727 0
M  V30 13281 C 1213.69 1.32066 -1.33941 0
M  V30 13282 O 1213.05 1.7707 -0.389367 0
M  V30 13283 C 1213.1 0.332528 -3.59064 0
M  V30 13284 O 1212.2 1.41158 -3.8749 0
M  V30 13285 H 1211.54 -0.0163684 -0.663798 0
M  V30 13286 H 1214.07 -0.671993 -1.9325 0
M  V30 13287 H 1214.08 0.570735 -4.03988 0
M  V30 13288 H 1212.76 -0.578934 -4.11851 0
M  V30 13289 H 1211.34 1.16008 -3.54396 0
M  V30 13290 N 1213.52 1.56172 -0.211661 0
M  V30 13291 C 1214.45 2.15791 0.74225 0
M  V30 13292 C 1215.43 1.0994 1.198 0
M  V30 13293 O 1216.62 1.38143 1.28253 0
M  V30 13294 C 1213.74 2.73021 2.00443 0
M  V30 13295 C 1212.79 3.91611 1.68946 0
M  V30 13296 S 1213.62 5.29139 0.822949 0
M  V30 13297 C 1214.78 5.898 2.09491 0
M  V30 13298 H 1215.01 2.96366 0.235482 0
M  V30 13299 H 1212.54 1.544 0.0035357 0
M  V30 13300 H 1214.5 3.06635 2.7292 0
M  V30 13301 H 1213.16 1.92457 2.48232 0
M  V30 13302 H 1212.36 4.30122 2.62699 0
M  V30 13303 H 1211.96 3.59093 1.04539 0
M  V30 13304 H 1214.25 6.05172 3.04587 0
M  V30 13305 H 1215.19 6.86036 1.75386 0
M  V30 13306 H 1215.6 5.18546 2.23093 0
M  V30 13307 N 1215 -0.0618163 1.57479 0
M  V30 13308 C 1215.95 -1.07953 2.00824 0
M  V30 13309 C 1216.93 -1.33916 0.891924 0
M  V30 13310 O 1218.12 -1.3405 1.15584 0
M  V30 13311 C 1215.25 -2.39041 2.46403 0
M  V30 13312 C 1214.34 -2.16309 3.64789 0
M  V30 13313 N 1214.73 -1.63534 4.78634 0
M  V30 13314 C 1213.03 -2.46739 3.71531 0
M  V30 13315 C 1213.73 -1.55849 5.60434 0
M  V30 13316 N 1212.71 -2.02255 5.04573 0
M  V30 13317 H 1216.51 -0.66497 2.86278 0
M  V30 13318 H 1214.02 -0.268722 1.60161 0
M  V30 13319 H 1216.02 -3.12722 2.757 0
M  V30 13320 H 1214.68 -2.81204 1.6234 0
M  V30 13321 H 1215.69 -1.32258 5.00728 0
M  V30 13322 H 1212.37 -2.92201 2.98203 0
M  V30 13323 H 1213.76 -1.15814 6.61843 0
M  V30 13324 N 1216.48 -1.54033 -0.333429 0
M  V30 13325 C 1217.72 -1.71765 -1.07252 0
M  V30 13326 C 1218.05 -0.486135 -1.88327 0
M  V30 13327 O 1217.31 0.532135 -1.88326 0
M  V30 13328 C 1217.61 -2.93926 -2.03328 0
M  V30 13329 C 1217.27 -4.29107 -1.38486 0
M  V30 13330 C 1215.93 -4.6586 -1.20532 0
M  V30 13331 C 1218.29 -5.13041 -0.918624 0
M  V30 13332 C 1215.61 -5.84155 -0.545881 0
M  V30 13333 C 1217.97 -6.3201 -0.273055 0
M  V30 13334 C 1216.63 -6.67451 -0.0812815 0
M  V30 13335 H 1215.9 -0.628532 -0.392464 0
M  V30 13336 H 1218.55 -1.88261 -0.350709 0
M  V30 13337 H 1216.85 -2.72075 -2.81926 0
M  V30 13338 H 1218.55 -3.0484 -2.60526 0
M  V30 13339 H 1215.14 -4.00185 -1.5346 0
M  V30 13340 H 1219.32 -4.8517 -1.04515 0
M  V30 13341 H 1214.58 -6.1018 -0.386009 0
M  V30 13342 H 1218.75 -6.96333 0.0962582 0
M  V30 13343 H 1216.38 -7.58973 0.431734 0
M  V30 13344 N 1217.95 0.594978 -1.45938 0
M  V30 13345 C 1218.88 1.71536 -1.58422 0
M  V30 13346 C 1219.87 1.64441 -0.435116 0
M  V30 13347 O 1221.05 1.82647 -0.659839 0
M  V30 13348 C 1218.18 3.10163 -1.56257 0
M  V30 13349 C 1217.13 3.3208 -2.70013 0
M  V30 13350 C 1216.46 4.71108 -2.52905 0
M  V30 13351 C 1217.76 3.21105 -4.11933 0
M  V30 13352 H 1219.45 1.61344 -2.52207 0
M  V30 13353 H 1217 0.774791 -1.2138 0
M  V30 13354 H 1218.95 3.88352 -1.63587 0
M  V30 13355 H 1217.68 3.21225 -0.590093 0
M  V30 13356 H 1216.34 2.56286 -2.62132 0
M  V30 13357 H 1215.98 4.7892 -1.53768 0
M  V30 13358 H 1215.68 4.86727 -3.29197 0
M  V30 13359 H 1217.21 5.51482 -2.62107 0
M  V30 13360 H 1218.62 3.89153 -4.2099 0
M  V30 13361 H 1217.02 3.4825 -4.88715 0
M  V30 13362 H 1218.09 2.18359 -4.32952 0
M  V30 13363 N 1219.43 1.33438 0.838571 0
M  V30 13364 C 1220.84 1.22366 1.41009 0
M  V30 13365 C 1221.19 -0.157317 1.95568 0
M  V30 13366 O 1220.32 -1.05692 1.88834 0
M  V30 13367 C 1220.91 2.21542 2.56329 0
M  V30 13368 C 1219.47 2.14309 3.09433 0
M  V30 13369 C 1218.62 2.09012 1.82235 0
M  V30 13370 H 1221.57 1.45032 0.64431 0
M  V30 13371 H 1221.59 1.82332 3.33969 0
M  V30 13372 H 1221.1 3.22042 2.16589 0
M  V30 13373 H 1219.21 1.17113 3.53717 0
M  V30 13374 H 1219.32 3.04866 3.69586 0
M  V30 13375 H 1217.68 1.54492 2.02495 0
M  V30 13376 H 1218.47 3.11319 1.4469 0
M  V30 13377 N 1220.91 -1.05686 1.16912 0
M  V30 13378 C 1221.84 -2.1329 0.839044 0
M  V30 13379 C 1222.86 -1.62047 -0.156392 0
M  V30 13380 O 1224.04 -1.78366 0.0692192 0
M  V30 13381 C 1221.14 -3.38122 0.229558 0
M  V30 13382 C 1220.32 -4.18659 1.26662 0
M  V30 13383 C 1219.38 -5.21842 0.675811 0
M  V30 13384 O 1218.4 -5.53049 1.3463 0
M  V30 13385 N 1219.6 -5.78034 -0.534532 0
M  V30 13386 H 1222.37 -2.42203 1.76515 0
M  V30 13387 H 1219.93 -1.2174 1.06729 0
M  V30 13388 H 1221.92 -4.04305 -0.178868 0
M  V30 13389 H 1220.49 -3.06783 -0.60023 0
M  V30 13390 H 1219.71 -3.4804 1.85099 0
M  V30 13391 H 1221 -4.6927 1.9663 0
M  V30 13392 H 1220.4 -5.54955 -1.09731 0
M  V30 13393 H 1218.96 -6.45763 -0.885087 0
M  V30 13394 N 1222.39 -0.968567 -1.24324 0
M  V30 13395 C 1223.63 -0.631863 -1.92705 0
M  V30 13396 C 1223.97 0.83096 -1.75524 0
M  V30 13397 O 1223.24 1.59795 -1.10887 0
M  V30 13398 C 1223.53 -1.00845 -3.45691 0
M  V30 13399 C 1223.38 -2.52803 -3.72036 0
M  V30 13400 C 1224.7 -0.543647 -4.36729 0
M  V30 13401 H 1221.82 -0.231027 -0.699854 0
M  V30 13402 H 1224.46 -1.20773 -1.46676 0
M  V30 13403 H 1222.61 -0.518434 -3.85025 0
M  V30 13404 H 1224.28 -3.09289 -3.42255 0
M  V30 13405 H 1222.52 -2.95963 -3.17157 0
M  V30 13406 H 1223.19 -2.74203 -4.79079 0
M  V30 13407 H 1225.67 -0.964182 -4.04775 0
M  V30 13408 H 1224.55 -0.8357 -5.42501 0
M  V30 13409 H 1224.81 0.556256 -4.38587 0
M  V30 13410 N 1223.87 1.39211 -0.738786 0
M  V30 13411 C 1225.14 1.9442 -0.214533 0
M  V30 13412 C 1225.52 1.67528 1.28443 0
M  V30 13413 O 1224.87 1.0056 2.05183 0
M  V30 13414 C 1225.08 3.44603 -0.552232 0
M  V30 13415 C 1226.43 4.21602 -0.503663 0
M  V30 13416 O 1227.45 3.52819 -0.489647 0
M  V30 13417 O 1226.31 5.44194 -0.50153 0
M  V30 13418 H 1223.41 0.826011 -0.0404247 0
M  V30 13419 H 1225.95 1.48689 -0.817902 0
M  V30 13420 H 1224.72 3.57626 -1.58806 0
M  V30 13421 H 1224.35 3.9752 0.0799096 0
M  V30 13422 N 1225.34 0.486708 1.49896 0
M  V30 13423 C 1226.25 -0.304222 2.32619 0
M  V30 13424 C 1227.27 -0.981103 1.43702 0
M  V30 13425 O 1228.45 -0.965639 1.76741 0
M  V30 13426 C 1225.51 -1.36301 3.18783 0
M  V30 13427 C 1224.57 -0.701082 4.23537 0
M  V30 13428 C 1223.81 -1.70943 5.05583 0
M  V30 13429 O 1224.03 -2.93773 4.88931 0
M  V30 13430 O 1222.96 -1.27263 5.88292 0
M  V30 13431 H 1226.79 0.37248 3.01407 0
M  V30 13432 H 1224.37 0.248277 1.47323 0
M  V30 13433 H 1226.26 -1.97594 3.72202 0
M  V30 13434 H 1224.93 -2.0229 2.52706 0
M  V30 13435 H 1223.84 -0.0487926 3.74068 0
M  V30 13436 H 1225.17 -0.0838817 4.92129 0
M  V30 13437 N 1226.82 -1.56058 0.219941 0
M  V30 13438 C 1228.07 -1.97436 -0.412543 0
M  V30 13439 C 1228.39 -1.11058 -1.61014 0
M  V30 13440 O 1229.59 -1.42328 -2.31203 0
M  V30 13441 C 1228.05 -3.51227 -0.785362 0
M  V30 13442 C 1227.66 -4.46305 0.389328 0
M  V30 13443 C 1229.4 -4.01321 -1.38354 0
M  V30 13444 C 1227.31 -5.914 -0.00583531 0
M  V30 13445 H 1226.24 -0.73728 -0.157906 0
M  V30 13446 H 1228.89 -1.8076 0.315898 0
M  V30 13447 H 1227.27 -3.63497 -1.57118 0
M  V30 13448 H 1228.44 -4.45781 1.16686 0
M  V30 13449 H 1226.76 -4.06543 0.900633 0
M  V30 13450 H 1229.36 -5.07221 -1.69207 0
M  V30 13451 H 1229.7 -3.47077 -2.29876 0
M  V30 13452 H 1230.23 -3.92267 -0.66119 0
M  V30 13453 H 1226.97 -6.49623 0.87583 0
M  V30 13454 H 1226.49 -5.95121 -0.74772 0
M  V30 13455 H 1228.17 -6.45549 -0.43308 0
M  V30 13456 N 1228.3 0.053464 -1.57509 0
M  V30 13457 C 1229.55 0.750212 -1.88414 0
M  V30 13458 C 1229.88 1.76288 -0.814619 0
M  V30 13459 O 1229.16 1.93728 0.173136 0
M  V30 13460 C 1229.44 1.44176 -3.29978 0
M  V30 13461 C 1229.29 0.444263 -4.47601 0
M  V30 13462 C 1230.61 2.38207 -3.70061 0
M  V30 13463 H 1227.73 0.271266 -0.685262 0
M  V30 13464 H 1230.37 0.0131676 -1.89995 0
M  V30 13465 H 1228.52 2.07001 -3.2876 0
M  V30 13466 H 1230.19 -0.180182 -4.60948 0
M  V30 13467 H 1228.44 -0.238771 -4.33142 0
M  V30 13468 H 1229.11 0.966134 -5.43479 0
M  V30 13469 H 1231.58 1.85446 -3.7249 0
M  V30 13470 H 1230.46 2.83588 -4.69967 0
M  V30 13471 H 1230.72 3.23821 -3.00985 0
M  V30 13472 N 1229.78 1.54207 0.325255 0
M  V30 13473 C 1231.03 1.72587 1.06497 0
M  V30 13474 C 1231.36 0.497228 1.87727 0
M  V30 13475 O 1230.63 -0.505804 1.87808 0
M  V30 13476 C 1230.92 3.00046 1.99109 0
M  V30 13477 C 1230.77 4.33158 1.21221 0
M  V30 13478 C 1232.09 3.23251 2.98658 0
M  V30 13479 H 1229.21 0.627974 0.38577 0
M  V30 13480 H 1231.85 1.869 0.34179 0
M  V30 13481 H 1230 2.87973 2.60775 0
M  V30 13482 H 1231.67 4.57111 0.620289 0
M  V30 13483 H 1229.91 4.30739 0.514462 0
M  V30 13484 H 1230.59 5.18558 1.89214 0
M  V30 13485 H 1233.06 3.34774 2.47114 0
M  V30 13486 H 1231.94 4.13796 3.60645 0
M  V30 13487 H 1232.2 2.40401 3.71026 0
M  V30 13488 N 1231.26 -0.58723 1.46251 0
M  V30 13489 C 1232.19 -1.70694 1.5933 0
M  V30 13490 C 1233.17 -1.64208 0.443831 0
M  V30 13491 O 1234.35 -1.82294 0.669516 0
M  V30 13492 C 1231.48 -3.0933 1.579 0
M  V30 13493 C 1230.44 -3.30643 2.7177 0
M  V30 13494 C 1229.76 -4.69761 2.554 0
M  V30 13495 C 1231.06 -3.18916 4.1363 0
M  V30 13496 H 1232.76 -1.60004 2.53059 0
M  V30 13497 H 1230.3 -0.768343 1.21789 0
M  V30 13498 H 1232.26 -3.87479 1.65644 0
M  V30 13499 H 1230.98 -3.20907 0.60712 0
M  V30 13500 H 1229.64 -2.54892 2.63488 0
M  V30 13501 H 1229.29 -4.78098 1.56306 0
M  V30 13502 H 1228.99 -4.84974 3.31774 0
M  V30 13503 H 1230.51 -5.50084 2.65028 0
M  V30 13504 H 1231.93 -3.86915 4.23048 0
M  V30 13505 H 1230.32 -3.45653 4.90555 0
M  V30 13506 H 1231.39 -2.1606 4.34104 0
M  V30 13507 N 1232.74 -1.33881 -0.831482 0
M  V30 13508 C 1233.98 -1.25507 -1.58406 0
M  V30 13509 C 1234.3 0.177137 -1.94194 0
M  V30 13510 O 1233.57 1.10769 -1.61576 0
M  V30 13511 H 1232.15 -0.461551 -0.587349 0
M  V30 13512 H 1234.82 -1.6769 -0.99328 0
M  V30 13513 H 1233.91 -1.85391 -2.51071 0
M  V30 13514 N 1234.21 1.05064 -1.1747 0
M  V30 13515 C 1235.16 2.14948 -0.888815 0
M  V30 13516 C 1236.16 1.68761 0.147038 0
M  V30 13517 O 1237.36 1.8 -0.000164278 0
M  V30 13518 H 1233.74 0.701898 -0.269894 0
M  V30 13519 H 1235.71 2.36265 -1.82268 0
M  V30 13520 C 1234.46 3.45154 -0.420006 0
M  V30 13521 H 1233.78 3.81096 -1.20854 0
M  V30 13522 H 1235.22 4.23209 -0.258866 0
M  V30 13523 C 1233.68 3.25671 0.862551 0
M  V30 13524 O 1234.21 3.5235 1.92906 0
M  V30 13525 N 1232.41 2.79048 0.81121 0
M  V30 13526 H 1231.96 2.57537 -0.0569025 0
M  V30 13527 H 1231.92 2.66392 1.66981 0
M  V30 13528 N 1235.69 0.975146 1.23809 0
M  V30 13529 C 1236.94 0.639858 1.91704 0
M  V30 13530 C 1237.26 -0.828557 1.76522 0
M  V30 13531 O 1236.53 -1.59217 1.14135 0
M  V30 13532 H 1235.11 0.233667 0.709513 0
M  V30 13533 H 1237.77 1.23782 1.50545 0
M  V30 13534 H 1236.87 0.886915 2.99233 0
M  V30 13535 N 1237.17 -1.38817 0.746158 0
M  V30 13536 C 1238.4 -2.0457 0.309605 0
M  V30 13537 C 1238.81 -1.5627 -1.05948 0
M  V30 13538 O 1238.17 -0.73248 -1.67156 0
M  V30 13539 C 1238.22 -3.60126 0.314843 0
M  V30 13540 O 1237.94 -4.06652 1.6299 0
M  V30 13541 C 1239.44 -4.4309 -0.136497 0
M  V30 13542 H 1236.66 -0.657597 0.133441 0
M  V30 13543 H 1239.21 -1.77651 1.01293 0
M  V30 13544 H 1237.36 -3.85908 -0.339685 0
M  V30 13545 H 1237.78 -5.01042 1.55103 0
M  V30 13546 H 1239.25 -5.5194 -0.0816714 0
M  V30 13547 H 1239.73 -4.22959 -1.18332 0
M  V30 13548 H 1240.33 -4.22481 0.488879 0
M  V30 13549 N 1238.65 -0.49465 -1.49636 0
M  V30 13550 C 1239.9 0.0539277 -2.01628 0
M  V30 13551 C 1240.21 1.38634 -1.37986 0
M  V30 13552 O 1241.42 2.02123 -1.81269 0
M  V30 13553 C 1239.87 0.146582 -3.59601 0
M  V30 13554 C 1239.48 -1.1788 -4.32213 0
M  V30 13555 C 1241.22 0.645862 -4.19558 0
M  V30 13556 C 1239.13 -1.04866 -5.82028 0
M  V30 13557 H 1238.06 0.0239278 -0.75362 0
M  V30 13558 H 1240.71 -0.633112 -1.72232 0
M  V30 13559 H 1239.09 0.897931 -3.85685 0
M  V30 13560 H 1240.27 -1.94295 -4.17835 0
M  V30 13561 H 1238.58 -1.61102 -3.83973 0
M  V30 13562 H 1241.18 0.76064 -5.29262 0
M  V30 13563 H 1241.52 1.64313 -3.82501 0
M  V30 13564 H 1242.06 -0.04877 -3.9777 0
M  V30 13565 H 1238.79 -2.02 -6.23599 0
M  V30 13566 H 1238.31 -0.325293 -5.98917 0
M  V30 13567 H 1239.99 -0.724799 -6.42927 0
M  V30 13568 N 1240.13 1.55939 -0.228214 0
M  V30 13569 C 1241.37 1.9877 0.402272 0
M  V30 13570 C 1241.7 1.11587 1.5894 0
M  V30 13571 O 1240.98 0.175032 1.93711 0
M  V30 13572 C 1241.26 3.50396 0.830353 0
M  V30 13573 C 1241.12 4.4835 -0.360876 0
M  V30 13574 C 1242.43 4.06602 1.68413 0
M  V30 13575 H 1239.55 0.722646 0.144746 0
M  V30 13576 H 1242.2 1.87186 -0.325784 0
M  V30 13577 H 1240.35 3.60398 1.4507 0
M  V30 13578 H 1242.02 4.5035 -0.999113 0
M  V30 13579 H 1240.26 4.21946 -1.00719 0
M  V30 13580 H 1240.93 5.51997 -0.0183074 0
M  V30 13581 H 1243.41 3.99585 1.16064 0
M  V30 13582 H 1242.28 5.12998 1.95254 0
M  V30 13583 H 1242.54 3.53897 2.64971 0
M  V30 13584 N 1241.6 -0.0451101 1.57535 0
M  V30 13585 C 1242.51 -1.06796 2.08882 0
M  V30 13586 C 1243.53 -1.40682 1.02394 0
M  V30 13587 O 1244.71 -1.50324 1.34033 0
M  V30 13588 C 1241.77 -2.35467 2.54472 0
M  V30 13589 C 1240.83 -2.0831 3.75374 0
M  V30 13590 C 1240.07 -3.30846 4.1878 0
M  V30 13591 O 1240.29 -4.40945 3.61834 0
M  V30 13592 O 1239.22 -3.17488 5.11356 0
M  V30 13593 H 1243.05 -0.661658 2.96405 0
M  V30 13594 H 1240.63 -0.26104 1.47102 0
M  V30 13595 H 1242.52 -3.11143 2.84198 0
M  V30 13596 H 1241.19 -2.75425 1.70068 0
M  V30 13597 H 1240.1 -1.30254 3.50692 0
M  V30 13598 H 1241.43 -1.73218 4.60713 0
M  V30 13599 N 1243.08 -1.54377 -0.317073 0
M  V30 13600 C 1244.03 -1.84214 -1.39046 0
M  V30 13601 C 1245 -0.689742 -1.51102 0
M  V30 13602 O 1246.18 -0.936809 -1.66218 0
M  V30 13603 C 1243.32 -2.08087 -2.75307 0
M  V30 13604 C 1242.44 -3.35756 -2.7183 0
M  V30 13605 C 1241.57 -3.49556 -3.9998 0
M  V30 13606 C 1240.61 -4.71076 -3.90837 0
M  V30 13607 N 1239.75 -4.81767 -5.10729 0
M  V30 13608 H 1244.59 -2.75785 -1.12902 0
M  V30 13609 H 1242.13 -1.36575 -0.546404 0
M  V30 13610 H 1244.08 -2.19921 -3.54529 0
M  V30 13611 H 1242.71 -1.19801 -2.99746 0
M  V30 13612 H 1241.77 -3.32627 -1.84563 0
M  V30 13613 H 1243.08 -4.2509 -2.60959 0
M  V30 13614 H 1242.23 -3.60967 -4.87635 0
M  V30 13615 H 1240.97 -2.58326 -4.13665 0
M  V30 13616 H 1239.98 -4.59715 -3.01566 0
M  V30 13617 H 1241.2 -5.63698 -3.78711 0
M  V30 13618 H 1239.15 -3.93455 -5.24908 0
M  V30 13619 H 1239.06 -5.65077 -5.02219 0
M  V30 13620 H 1240.33 -4.97517 -6.00081 0
M  V30 13621 N 1244.56 0.579466 -1.4656 0
M  V30 13622 C 1245.81 1.33492 -1.51738 0
M  V30 13623 C 1246.13 1.94241 -0.171926 0
M  V30 13624 O 1245.4 1.78737 0.801875 0
M  V30 13625 H 1243.98 0.49565 -0.558874 0
M  V30 13626 H 1246.64 0.678394 -1.82712 0
M  V30 13627 H 1245.74 2.13995 -2.27183 0
M  V30 13628 N 1246.04 1.3432 0.824371 0
M  V30 13629 C 1247.26 1.2982 1.61745 0
M  V30 13630 C 1247.69 -0.125298 1.87682 0
M  V30 13631 O 1247.05 -1.08658 1.45131 0
M  V30 13632 C 1247.09 2.09327 2.93623 0
M  V30 13633 O 1246.2 1.4618 3.85623 0
M  V30 13634 H 1245.54 0.445929 0.491979 0
M  V30 13635 H 1248.07 1.77101 1.02452 0
M  V30 13636 H 1248.08 2.20629 3.43201 0
M  V30 13637 H 1246.75 3.12825 2.74069 0
M  V30 13638 H 1245.33 1.43611 3.44137 0
M  V30 13639 N 1247.52 -1.0444 1.18026 0
M  V30 13640 C 1248.75 -1.80971 0.996642 0
M  V30 13641 C 1249.15 -1.83568 -0.458192 0
M  V30 13642 O 1248.5 -1.26713 -1.33002 0
M  V30 13643 C 1248.56 -3.28051 1.47048 0
M  V30 13644 C 1248.22 -3.49122 2.94895 0
M  V30 13645 C 1249.22 -3.40621 3.92777 0
M  V30 13646 C 1246.91 -3.7584 3.33241 0
M  V30 13647 C 1248.9 -3.58535 5.27002 0
M  V30 13648 C 1246.59 -3.93402 4.6763 0
M  V30 13649 C 1247.58 -3.84749 5.6432 0
M  V30 13650 O 1247.27 -4.01813 6.96277 0
M  V30 13651 H 1247 -0.576873 0.352411 0
M  V30 13652 H 1249.56 -1.32542 1.56913 0
M  V30 13653 H 1247.79 -3.77431 0.841609 0
M  V30 13654 H 1249.48 -3.8613 1.25135 0
M  V30 13655 H 1250.24 -3.19948 3.64497 0
M  V30 13656 H 1246.12 -3.81674 2.58545 0
M  V30 13657 H 1249.67 -3.51698 6.02457 0
M  V30 13658 H 1245.56 -4.13568 4.95613 0
M  V30 13659 H 1246.33 -4.18995 7.03126 0
M  V30 13660 N 1248.99 -0.981699 -1.2329 0
M  V30 13661 C 1250.22 -0.669025 -1.96313 0
M  V30 13662 C 1250.64 0.757624 -1.72168 0
M  V30 13663 O 1250 1.51626 -0.993942 0
M  V30 13664 C 1250.05 -0.966875 -3.47396 0
M  V30 13665 O 1249.15 -0.0595933 -4.12357 0
M  V30 13666 H 1248.5 -0.251493 -0.61453 0
M  V30 13667 H 1251.03 -1.31564 -1.56691 0
M  V30 13668 H 1251.04 -0.904112 -3.97857 0
M  V30 13669 H 1249.71 -2.00651 -3.64296 0
M  V30 13670 H 1248.29 -0.176878 -3.7248 0
M  V30 13671 N 1250.47 1.3842 -0.753509 0
M  V30 13672 C 1251.44 2.28808 -0.134022 0
M  V30 13673 C 1252.44 1.47184 0.647583 0
M  V30 13674 O 1253.63 1.67631 0.473861 0
M  V30 13675 C 1250.76 3.30926 0.81858 0
M  V30 13676 H 1251.95 2.85097 -0.930586 0
M  V30 13677 H 1249.5 1.47378 -0.520514 0
M  V30 13678 H 1250.24 2.79728 1.64082 0
M  V30 13679 H 1250.02 3.91234 0.260526 0
M  V30 13680 H 1251.51 3.98515 1.24802 0
M  V30 13681 N 1251.95 0.502579 1.49372 0
M  V30 13682 C 1252.88 -0.264307 2.31999 0
M  V30 13683 C 1253.86 -0.96107 1.40348 0
M  V30 13684 O 1255.05 -0.952167 1.69255 0
M  V30 13685 C 1252.18 -1.32822 3.20898 0
M  V30 13686 C 1251.13 -0.751236 4.21355 0
M  V30 13687 C 1250.46 -1.91578 4.99201 0
M  V30 13688 C 1251.76 0.258764 5.21659 0
M  V30 13689 H 1253.45 0.425391 2.96363 0
M  V30 13690 H 1251 0.206022 1.42519 0
M  V30 13691 H 1252.95 -1.87245 3.77515 0
M  V30 13692 H 1251.67 -2.04712 2.54481 0
M  V30 13693 H 1250.33 -0.228743 3.65886 0
M  V30 13694 H 1249.98 -2.62241 4.2923 0
M  V30 13695 H 1249.68 -1.53578 5.67175 0
M  V30 13696 H 1251.2 -2.46432 5.58663 0
M  V30 13697 H 1252.62 -0.197385 5.7296 0
M  V30 13698 H 1251.02 0.554681 5.97531 0
M  V30 13699 H 1252.09 1.1741 4.70471 0
M  V30 13700 N 1253.43 -1.55816 0.23648 0
M  V30 13701 C 1254.36 -2.23924 -0.661834 0
M  V30 13702 C 1255.34 -1.21597 -1.18946 0
M  V30 13703 O 1256.52 -1.50222 -1.23073 0
M  V30 13704 C 1253.65 -2.93069 -1.86355 0
M  V30 13705 C 1252.61 -4.01996 -1.46913 0
M  V30 13706 C 1251.93 -4.58512 -2.75083 0
M  V30 13707 C 1253.23 -5.18265 -0.647964 0
M  V30 13708 H 1254.93 -2.99253 -0.0939368 0
M  V30 13709 H 1252.47 -1.43934 -0.0437407 0
M  V30 13710 H 1254.43 -3.39412 -2.49755 0
M  V30 13711 H 1253.15 -2.15212 -2.45665 0
M  V30 13712 H 1251.81 -3.56406 -0.858522 0
M  V30 13713 H 1251.46 -3.77368 -3.3257 0
M  V30 13714 H 1251.16 -5.32037 -2.49421 0
M  V30 13715 H 1252.68 -5.07583 -3.39399 0
M  V30 13716 H 1254.1 -5.60898 -1.18602 0
M  V30 13717 H 1252.49 -5.98114 -0.487823 0
M  V30 13718 H 1253.56 -4.83691 0.342151 0
M  V30 13719 N 1254.91 0.036755 -1.57557 0
M  V30 13720 C 1255.87 1.02435 -2.05036 0
M  V30 13721 C 1256.87 1.29506 -0.953146 0
M  V30 13722 O 1258.06 1.24638 -1.217 0
M  V30 13723 C 1255.19 2.3592 -2.46079 0
M  V30 13724 H 1256.38 0.614384 -2.93539 0
M  V30 13725 H 1253.94 0.283396 -1.53709 0
M  V30 13726 H 1254.67 2.8168 -1.60708 0
M  V30 13727 H 1254.46 2.17603 -3.26177 0
M  V30 13728 H 1255.95 3.06839 -2.83266 0
M  V30 13729 N 1256.39 1.54543 0.308881 0
M  V30 13730 C 1257.33 1.84949 1.38067 0
M  V30 13731 C 1258.3 0.697746 1.50734 0
M  V30 13732 O 1259.49 0.94561 1.65719 0
M  V30 13733 C 1256.63 2.09544 2.74199 0
M  V30 13734 C 1255.74 3.37193 2.70046 0
M  V30 13735 C 1254.88 3.51672 3.98121 0
M  V30 13736 C 1253.91 4.73143 3.88333 0
M  V30 13737 N 1253.05 4.84469 5.08167 0
M  V30 13738 H 1257.89 2.76379 1.11438 0
M  V30 13739 H 1255.43 1.36863 0.539153 0
M  V30 13740 H 1257.39 2.21798 3.53358 0
M  V30 13741 H 1256.02 1.21389 2.99106 0
M  V30 13742 H 1255.07 3.33601 1.82796 0
M  V30 13743 H 1256.38 4.26468 2.58701 0
M  V30 13744 H 1255.53 3.63548 4.85714 0
M  V30 13745 H 1254.27 2.60516 4.1229 0
M  V30 13746 H 1253.28 4.61308 2.99124 0
M  V30 13747 H 1254.5 5.65698 3.75716 0
M  V30 13748 H 1252.45 3.96234 5.22814 0
M  V30 13749 H 1252.37 5.67733 4.99215 0
M  V30 13750 H 1253.63 5.00693 5.97434 0
M  V30 13751 N 1257.86 -0.571685 1.46866 0
M  V30 13752 C 1258.81 -1.67992 1.58263 0
M  V30 13753 C 1259.78 -1.60535 0.426345 0
M  V30 13754 O 1260.97 -1.79584 0.644534 0
M  V30 13755 C 1258.11 -3.06327 1.58927 0
M  V30 13756 C 1257.22 -3.24328 2.85369 0
M  V30 13757 C 1256.35 -4.52976 2.77464 0
M  V30 13758 C 1255.39 -4.64359 3.98795 0
M  V30 13759 N 1254.53 -5.84345 3.89211 0
M  V30 13760 H 1259.37 -1.57589 2.52922 0
M  V30 13761 H 1256.91 -0.767883 1.25467 0
M  V30 13762 H 1258.86 -3.86411 1.57296 0
M  V30 13763 H 1257.49 -3.15601 0.677912 0
M  V30 13764 H 1256.55 -2.37774 2.96931 0
M  V30 13765 H 1257.86 -3.28605 3.7526 0
M  V30 13766 H 1257.01 -5.41303 2.74001 0
M  V30 13767 H 1255.75 -4.51155 1.85231 0
M  V30 13768 H 1254.76 -3.74448 4.02578 0
M  V30 13769 H 1255.98 -4.6795 4.92137 0
M  V30 13770 H 1253.93 -5.835 2.99772 0
M  V30 13771 H 1253.84 -5.89938 4.72768 0
M  V30 13772 H 1255.11 -6.75072 3.89741 0
M  V30 13773 N 1259.34 -1.34755 -0.817236 0
M  V30 13774 C 1260.59 -1.2718 -1.57066 0
M  V30 13775 C 1260.91 0.156531 -1.94371 0
M  V30 13776 O 1260.18 1.09049 -1.62742 0
M  V30 13777 H 1258.76 -0.467755 -0.582421 0
M  V30 13778 H 1261.42 -1.68734 -0.975438 0
M  V30 13779 H 1260.52 -1.88043 -2.49091 0
M  V30 13780 N 1260.82 1.03812 -1.18578 0
M  V30 13781 C 1261.73 2.15371 -0.930182 0
M  V30 13782 C 1262.75 1.73673 0.106599 0
M  V30 13783 O 1263.92 2.01257 -0.0759054 0
M  V30 13784 C 1260.99 3.43606 -0.462151 0
M  V30 13785 C 1260.05 3.99671 -1.5672 0
M  V30 13786 C 1259.28 5.21785 -1.12141 0
M  V30 13787 O 1259.5 5.70397 0.0188357 0
M  V30 13788 O 1258.44 5.70449 -1.9202 0
M  V30 13789 H 1262.26 2.39791 -1.86371 0
M  V30 13790 H 1259.85 1.13814 -0.967819 0
M  V30 13791 H 1261.73 4.2088 -0.20934 0
M  V30 13792 H 1260.41 3.20654 0.443052 0
M  V30 13793 H 1259.31 3.23774 -1.87406 0
M  V30 13794 H 1260.65 4.2697 -2.44862 0
M  V30 13795 N 1262.3 0.988223 1.22768 0
M  V30 13796 C 1263.54 0.661461 1.91392 0
M  V30 13797 C 1263.87 -0.805942 1.77016 0
M  V30 13798 O 1263.13 -1.5978 1.12999 0
M  V30 13799 C 1263.43 1.00744 3.42907 0
M  V30 13800 C 1263.09 2.46634 3.77469 0
M  V30 13801 C 1261.75 2.86503 3.86613 0
M  V30 13802 C 1264.11 3.41217 3.9398 0
M  V30 13803 C 1261.43 4.19954 4.09702 0
M  V30 13804 C 1263.79 4.74321 4.18572 0
M  V30 13805 C 1262.45 5.13938 4.25939 0
M  V30 13806 H 1261.72 0.242046 0.700353 0
M  V30 13807 H 1264.37 1.24354 1.45631 0
M  V30 13808 H 1262.67 0.34338 3.90292 0
M  V30 13809 H 1264.37 0.732714 3.94249 0
M  V30 13810 H 1260.96 2.14729 3.70931 0
M  V30 13811 H 1265.14 3.11589 3.86298 0
M  V30 13812 H 1260.4 4.50243 4.13631 0
M  V30 13813 H 1264.57 5.47561 4.30291 0
M  V30 13814 H 1262.2 6.17364 4.43583 0
M  V30 13815 N 1263.78 -1.38018 0.760839 0
M  V30 13816 C 1264.74 -2.28734 0.146154 0
M  V30 13817 C 1265.74 -1.47525 -0.639768 0
M  V30 13818 O 1266.93 -1.6788 -0.464964 0
M  V30 13819 C 1264.06 -3.31356 -0.801019 0
M  V30 13820 H 1265.25 -2.84599 0.945692 0
M  V30 13821 H 1262.81 -1.471 0.528323 0
M  V30 13822 H 1263.54 -2.80594 -1.62597 0
M  V30 13823 H 1263.33 -3.91366 -0.239775 0
M  V30 13824 H 1264.82 -3.99171 -1.22687 0
M  V30 13825 N 1265.25 -0.510493 -1.49103 0
M  V30 13826 C 1266.2 0.262848 -2.29298 0
M  V30 13827 C 1267.17 0.951714 -1.36131 0
M  V30 13828 O 1268.36 0.956534 -1.65091 0
M  V30 13829 C 1265.5 1.31565 -3.19037 0
M  V30 13830 C 1264.61 0.637598 -4.27269 0
M  V30 13831 C 1263.74 1.67165 -5.04212 0
M  V30 13832 C 1262.78 0.975992 -6.04269 0
M  V30 13833 N 1261.92 1.95468 -6.74342 0
M  V30 13834 H 1266.76 -0.427246 -2.94921 0
M  V30 13835 H 1264.3 -0.222538 -1.45407 0
M  V30 13836 H 1266.25 1.93813 -3.69449 0
M  V30 13837 H 1264.88 1.97438 -2.55379 0
M  V30 13838 H 1263.94 -0.0983863 -3.80273 0
M  V30 13839 H 1265.25 0.0904435 -4.98718 0
M  V30 13840 H 1264.4 2.36893 -5.5854 0
M  V30 13841 H 1263.14 2.25267 -4.32557 0
M  V30 13842 H 1262.15 0.264534 -5.49163 0
M  V30 13843 H 1263.37 0.40134 -6.77913 0
M  V30 13844 H 1261.32 2.52515 -6.05452 0
M  V30 13845 H 1261.23 1.45845 -7.41799 0
M  V30 13846 H 1262.5 2.64455 -7.33269 0
M  V30 13847 N 1266.73 1.55688 -0.24474 0
M  V30 13848 C 1267.68 2.22682 0.67198 0
M  V30 13849 C 1268.67 1.21369 1.18178 0
M  V30 13850 O 1269.88 1.39387 1.13892 0
M  V30 13851 H 1266.25 0.714279 0.235181 0
M  V30 13852 H 1268.23 2.98282 0.0837704 0
M  V30 13853 C 1266.97 2.93835 1.85893 0
M  V30 13854 H 1266.3 3.71565 1.4758 0
M  V30 13855 H 1267.74 3.44077 2.47764 0
M  V30 13856 C 1266.2 1.97589 2.72874 0
M  V30 13857 O 1266.73 1.50758 3.72337 0
M  V30 13858 N 1264.93 1.64737 2.39395 0
M  V30 13859 H 1264.48 2.03015 1.58564 0
M  V30 13860 H 1264.44 1.00605 2.97869 0
M  V30 13861 N 1268.21 -0.0283989 1.57574 0
M  V30 13862 C 1269.14 -1.02828 2.09639 0
M  V30 13863 C 1270.12 -1.37668 0.999076 0
M  V30 13864 O 1271.31 -1.4654 1.27435 0
M  V30 13865 C 1268.44 -2.329 2.57633 0
M  V30 13866 C 1267.39 -2.12301 3.71635 0
M  V30 13867 C 1266.72 -3.48138 4.05837 0
M  V30 13868 C 1268.02 -1.50864 5.00037 0
M  V30 13869 H 1269.71 -0.594876 2.93431 0
M  V30 13870 H 1267.26 -0.284701 1.41158 0
M  V30 13871 H 1269.21 -3.03179 2.92678 0
M  V30 13872 H 1267.93 -2.78302 1.70926 0
M  V30 13873 H 1266.59 -1.44454 3.3694 0
M  V30 13874 H 1266.24 -3.9119 3.16195 0
M  V30 13875 H 1265.94 -3.3518 4.82626 0
M  V30 13876 H 1267.46 -4.19779 4.43417 0
M  V30 13877 H 1268.88 -2.11062 5.33035 0
M  V30 13878 H 1267.27 -1.48479 5.81441 0
M  V30 13879 H 1268.34 -0.474541 4.82572 0
M  V30 13880 N 1269.69 -1.54705 -0.300681 0
M  V30 13881 C 1270.63 -1.85678 -1.37084 0
M  V30 13882 C 1271.6 -0.70573 -1.50362 0
M  V30 13883 O 1272.79 -0.954385 -1.65215 0
M  V30 13884 C 1269.93 -2.10995 -2.73084 0
M  V30 13885 C 1269.04 -3.38621 -2.68254 0
M  V30 13886 C 1268.18 -3.53779 -3.9625 0
M  V30 13887 C 1267.22 -4.75195 -3.85818 0
M  V30 13888 N 1266.35 -4.87157 -5.05591 0
M  V30 13889 H 1271.19 -2.76967 -1.09971 0
M  V30 13890 H 1268.73 -1.37147 -0.531887 0
M  V30 13891 H 1270.69 -2.23669 -3.52176 0
M  V30 13892 H 1269.32 -1.22973 -2.98458 0
M  V30 13893 H 1268.37 -3.34566 -1.81025 0
M  V30 13894 H 1269.68 -4.27834 -2.56436 0
M  V30 13895 H 1268.84 -3.66119 -4.83779 0
M  V30 13896 H 1267.58 -2.62699 -4.10902 0
M  V30 13897 H 1266.58 -4.62888 -2.96673 0
M  V30 13898 H 1267.81 -5.67683 -3.72711 0
M  V30 13899 H 1265.75 -3.99001 -5.20706 0
M  V30 13900 H 1265.67 -5.70372 -4.96197 0
M  V30 13901 H 1266.94 -5.03854 -5.9477 0
M  V30 13902 N 1271.17 0.563888 -1.47167 0
M  V30 13903 C 1272.39 1.34693 -1.57052 0
M  V30 13904 C 1272.81 1.87534 -0.218308 0
M  V30 13905 O 1272.17 1.64639 0.787416 0
M  V30 13906 C 1272.22 2.52148 -2.59044 0
M  V30 13907 O 1271.94 2.01492 -3.89015 0
M  V30 13908 C 1273.44 3.4445 -2.7905 0
M  V30 13909 H 1270.66 0.410822 -0.530534 0
M  V30 13910 H 1273.2 0.683731 -1.92731 0
M  V30 13911 H 1271.36 3.14419 -2.26317 0
M  V30 13912 H 1271.77 2.78122 -4.44689 0
M  V30 13913 H 1273.25 4.23297 -3.54293 0
M  V30 13914 H 1273.72 3.97575 -1.86631 0
M  V30 13915 H 1274.33 2.88 -3.12948 0
M  V30 13916 N 1272.64 1.35187 0.810078 0
M  V30 13917 C 1273.89 1.28264 1.56699 0
M  V30 13918 C 1274.22 -0.143906 1.93967 0
M  V30 13919 O 1273.47 -1.10832 1.61291 0
M  V30 13920 C 1273.77 2.13135 2.86894 0
M  V30 13921 C 1273.44 3.61974 2.6886 0
M  V30 13922 C 1272.1 4.02545 2.63649 0
M  V30 13923 C 1274.45 4.5643 2.51636 0
M  V30 13924 C 1271.78 5.35745 2.39154 0
M  V30 13925 C 1274.13 5.89824 2.2867 0
M  V30 13926 C 1272.8 6.29544 2.2188 0
M  V30 13927 H 1272.07 0.469353 0.573401 0
M  V30 13928 H 1274.71 1.67051 0.936282 0
M  V30 13929 H 1273.02 1.67218 3.54324 0
M  V30 13930 H 1274.72 2.05117 3.44569 0
M  V30 13931 H 1271.31 3.29777 2.73761 0
M  V30 13932 H 1275.49 4.25974 2.54677 0
M  V30 13933 H 1270.75 5.65524 2.32363 0
M  V30 13934 H 1274.92 6.62597 2.14333 0
M  V30 13935 H 1272.55 7.32689 2.0266 0
M  V30 13936 N 1274.12 -1.03182 1.19127 0
M  V30 13937 C 1275.05 -2.13301 0.94999 0
M  V30 13938 C 1276.03 -1.69707 -0.115577 0
M  V30 13939 O 1277.22 -1.94161 0.0388395 0
M  V30 13940 C 1274.35 -3.43902 0.484637 0
M  V30 13941 C 1273.3 -4.01164 1.4917 0
M  V30 13942 C 1272.63 -5.2735 0.883537 0
M  V30 13943 C 1273.93 -4.36311 2.87107 0
M  V30 13944 H 1275.62 -2.33743 1.87095 0
M  V30 13945 H 1273.17 -1.12332 0.900977 0
M  V30 13946 H 1275.12 -4.20308 0.30315 0
M  V30 13947 H 1273.85 -3.23173 -0.471909 0
M  V30 13948 H 1272.5 -3.26849 1.66028 0
M  V30 13949 H 1272.15 -5.02936 -0.0804712 0
M  V30 13950 H 1271.85 -5.66624 1.55599 0
M  V30 13951 H 1273.38 -6.06425 0.71278 0
M  V30 13952 H 1274.79 -5.03666 2.73848 0
M  V30 13953 H 1273.19 -4.86659 3.51117 0
M  V30 13954 H 1274.26 -3.45743 3.39985 0
M  V30 13955 N 1275.6 -0.99472 -1.22242 0
M  V30 13956 C 1277.02 -0.705762 -1.43147 0
M  V30 13957 C 1277.22 0.722908 -1.88086 0
M  V30 13958 O 1276.27 1.49359 -2.03588 0
M  V30 13959 C 1277.59 -1.71288 -2.47145 0
M  V30 13960 C 1279.13 -1.72853 -2.60942 0
M  V30 13961 C 1279.61 -2.72433 -3.68163 0
M  V30 13962 N 1281.1 -2.71039 -3.75623 0
M  V30 13963 C 1281.83 -3.44753 -4.58184 0
M  V30 13964 N 1281.33 -4.28075 -5.44724 0
M  V30 13965 N 1283.12 -3.33451 -4.52512 0
M  V30 13966 H 1275.27 -1.91738 -0.913792 0
M  V30 13967 H 1277.54 -0.82702 -0.463403 0
M  V30 13968 H 1277.24 -2.7353 -2.21075 0
M  V30 13969 H 1277.12 -1.50721 -3.45779 0
M  V30 13970 H 1279.5 -0.713085 -2.86355 0
M  V30 13971 H 1279.59 -1.9749 -1.62577 0
M  V30 13972 H 1279.23 -3.74129 -3.43497 0
M  V30 13973 H 1279.16 -2.45066 -4.66101 0
M  V30 13974 H 1281.65 -2.10581 -3.1379 0
M  V30 13975 H 1281.96 -4.81143 -6.04749 0
M  V30 13976 H 1280.31 -4.32161 -5.44299 0
M  V30 13977 H 1283.5 -2.67797 -3.8393 0
M  V30 13978 H 1283.67 -3.91158 -5.16623 0
M  V30 13979 N 1277.08 1.37613 -0.768148 0
M  V30 13980 C 1278.03 2.27654 -0.125596 0
M  V30 13981 C 1279.01 1.45923 0.677883 0
M  V30 13982 O 1280.2 1.68515 0.541448 0
M  V30 13983 C 1277.33 3.34884 0.7555 0
M  V30 13984 C 1276.42 4.24064 -0.0556137 0
M  V30 13985 N 1276.81 4.93707 -1.09943 0
M  V30 13986 C 1275.11 4.4568 0.168932 0
M  V30 13987 C 1275.81 5.59508 -1.59142 0
M  V30 13988 N 1274.79 5.36027 -0.904208 0
M  V30 13989 H 1278.59 2.7897 -0.924828 0
M  V30 13990 H 1276.1 1.50687 -0.605561 0
M  V30 13991 H 1278.1 3.98294 1.23157 0
M  V30 13992 H 1276.76 2.85124 1.55352 0
M  V30 13993 H 1277.77 4.96258 -1.48151 0
M  V30 13994 H 1274.45 4.068 0.939144 0
M  V30 13995 H 1275.84 6.2518 -2.4617 0
M  V30 13996 N 1278.56 0.518393 1.4883 0
M  V30 13997 C 1279.78 -0.0162 2.06894 0
M  V30 13998 C 1280.2 -1.29222 1.37649 0
M  V30 13999 O 1279.56 -1.766 0.460288 0
M  V30 14000 C 1279.61 -0.255836 3.60594 0
M  V30 14001 O 1279.33 0.969612 4.27235 0
M  V30 14002 C 1280.83 -0.832117 4.3542 0
M  V30 14003 H 1278.05 0.0282877 0.670403 0
M  V30 14004 H 1280.59 0.720726 1.91379 0
M  V30 14005 H 1278.75 -0.942782 3.75753 0
M  V30 14006 H 1279.16 0.743172 5.19208 0
M  V30 14007 H 1280.64 -0.949279 5.43776 0
M  V30 14008 H 1281.11 -1.83421 3.99066 0
M  V30 14009 H 1281.72 -0.1821 4.2491 0
M  V30 14010 N 1280.03 -1.55556 0.252993 0
M  V30 14011 C 1281.28 -1.98697 -0.369319 0
M  V30 14012 C 1281.6 -1.14256 -1.58021 0
M  V30 14013 O 1280.87 -0.226779 -1.94583 0
M  V30 14014 H 1279.45 -0.733869 -0.139444 0
M  V30 14015 H 1282.12 -1.91673 0.353197 0
M  V30 14016 H 1281.21 -3.04728 -0.674312 0
M  V30 14017 N 1281.51 0.0200419 -1.57587 0
M  V30 14018 C 1282.92 0.565484 -1.7793 0
M  V30 14019 C 1283.27 1.75096 -0.885201 0
M  V30 14020 O 1282.4 2.16243 -0.0823831 0
M  V30 14021 C 1282.99 1.03263 -3.2268 0
M  V30 14022 C 1281.55 1.52352 -3.44189 0
M  V30 14023 C 1280.7 0.465637 -2.73363 0
M  V30 14024 H 1283.65 -0.206174 -1.57355 0
M  V30 14025 H 1283.67 1.89959 -3.2969 0
M  V30 14026 H 1283.18 0.169613 -3.87729 0
M  V30 14027 H 1281.29 2.40809 -2.84327 0
M  V30 14028 H 1281.4 1.5648 -4.52825 0
M  V30 14029 H 1279.76 0.922738 -2.37398 0
M  V30 14030 H 1280.55 -0.388068 -3.411 0
M  V30 14031 N 1282.99 1.54862 0.292472 0
M  V30 14032 C 1283.9 1.89472 1.38339 0
M  V30 14033 C 1284.92 0.789783 1.55043 0
M  V30 14034 O 1286.09 1.08705 1.69544 0
M  V30 14035 C 1283.16 2.14244 2.72581 0
M  V30 14036 C 1282.22 3.37913 2.64789 0
M  V30 14037 C 1281.45 3.61494 3.92629 0
M  V30 14038 O 1281.67 2.87931 4.92394 0
M  V30 14039 O 1280.61 4.55019 3.94007 0
M  V30 14040 H 1284.43 2.82298 1.11989 0
M  V30 14041 H 1282.02 1.41161 0.489291 0
M  V30 14042 H 1283.9 2.31689 3.51991 0
M  V30 14043 H 1282.58 1.24603 2.98757 0
M  V30 14044 H 1281.48 3.25823 1.83821 0
M  V30 14045 H 1282.82 4.27711 2.43565 0
M  V30 14046 N 1284.47 -0.556076 1.47464 0
M  V30 14047 C 1285.38 -1.69043 1.62671 0
M  V30 14048 C 1286.39 -1.66372 0.509535 0
M  V30 14049 O 1287.57 -1.85799 0.777218 0
M  V30 14050 C 1284.64 -3.05546 1.63836 0
M  V30 14051 C 1283.7 -3.19275 2.86988 0
M  V30 14052 C 1282.93 -4.49267 2.88088 0
M  V30 14053 O 1283.15 -5.34796 1.98368 0
M  V30 14054 O 1282.09 -4.66811 3.79962 0
M  V30 14055 H 1285.91 -1.59155 2.58657 0
M  V30 14056 H 1283.5 -0.726211 1.30562 0
M  V30 14057 H 1285.38 -3.86778 1.67275 0
M  V30 14058 H 1284.05 -3.15814 0.710173 0
M  V30 14059 H 1282.96 -2.37437 2.89093 0
M  V30 14060 H 1284.29 -3.13912 3.79104 0
M  V30 14061 N 1285.95 -1.35615 -0.802897 0
M  V30 14062 C 1286.86 -1.3096 -1.94645 0
M  V30 14063 C 1287.87 -0.213909 -1.7268 0
M  V30 14064 O 1289.05 -0.443932 -1.96446 0
M  V30 14065 C 1286.11 -1.08483 -3.2929 0
M  V30 14066 C 1285.18 -2.27401 -3.64126 0
M  V30 14067 C 1284.41 -2.05987 -4.92347 0
M  V30 14068 O 1284.63 -1.02819 -5.61057 0
M  V30 14069 O 1283.57 -2.93439 -5.25526 0
M  V30 14070 H 1287.39 -2.27209 -2.01519 0
M  V30 14071 H 1284.98 -1.16024 -0.941214 0
M  V30 14072 H 1286.86 -0.978118 -4.09891 0
M  V30 14073 H 1285.53 -0.152885 -3.23339 0
M  V30 14074 H 1284.44 -2.43638 -2.83886 0
M  V30 14075 H 1285.77 -3.19055 -3.74786 0
M  V30 14076 N 1287.43 1.02549 -1.19673 0
M  V30 14077 C 1288.39 2.09064 -0.939407 0
M  V30 14078 C 1289.39 1.60593 0.0814837 0
M  V30 14079 O 1290.58 1.73521 -0.153626 0
M  V30 14080 C 1287.71 3.38395 -0.412513 0
M  V30 14081 H 1288.9 2.33325 -1.88413 0
M  V30 14082 H 1286.46 1.19211 -1.01086 0
M  V30 14083 H 1287.19 3.19805 0.538094 0
M  V30 14084 H 1286.98 3.74898 -1.14863 0
M  V30 14085 H 1288.47 4.16841 -0.251678 0
M  V30 14086 N 1288.9 1.00119 1.21713 0
M  V30 14087 C 1290.13 0.700431 1.94683 0
M  V30 14088 C 1290.55 -0.736333 1.73849 0
M  V30 14089 O 1289.9 -1.49778 1.04272 0
M  V30 14090 C 1289.95 1.00722 3.47185 0
M  V30 14091 O 1289.68 2.38754 3.67326 0
M  V30 14092 C 1291.18 0.725335 4.37326 0
M  V30 14093 H 1288.4 0.25843 0.619238 0
M  V30 14094 H 1290.94 1.3382 1.54636 0
M  V30 14095 H 1289.1 0.415117 3.85169 0
M  V30 14096 H 1289.51 2.49321 4.61454 0
M  V30 14097 H 1290.98 0.990202 5.43046 0
M  V30 14098 H 1291.46 -0.340649 4.37877 0
M  V30 14099 H 1292.07 1.29888 4.04981 0
M  V30 14100 N 1290.38 -1.37203 0.775435 0
M  V30 14101 C 1291.63 -1.99897 0.341936 0
M  V30 14102 C 1291.96 -1.61414 -1.07978 0
M  V30 14103 O 1291.24 -0.862108 -1.7435 0
M  V30 14104 C 1291.52 -3.56755 0.489715 0
M  V30 14105 C 1291.37 -4.05135 1.95411 0
M  V30 14106 C 1292.69 -4.39978 -0.103779 0
M  V30 14107 H 1289.81 -0.726199 0.125717 0
M  V30 14108 H 1292.45 -1.62826 0.979167 0
M  V30 14109 H 1290.6 -3.88464 -0.0527684 0
M  V30 14110 H 1292.27 -3.83975 2.55658 0
M  V30 14111 H 1290.52 -3.57192 2.46164 0
M  V30 14112 H 1291.19 -5.14161 2.00855 0
M  V30 14113 H 1293.66 -4.14547 0.359134 0
M  V30 14114 H 1292.54 -5.48892 0.0297337 0
M  V30 14115 H 1292.8 -4.25658 -1.19448 0
M  V30 14116 N 1291.86 -0.526279 -1.48553 0
M  V30 14117 C 1292.81 0.258285 -2.26532 0
M  V30 14118 C 1293.79 0.913187 -1.32475 0
M  V30 14119 O 1294.99 0.816606 -1.57037 0
M  V30 14120 C 1292.11 1.30686 -3.17452 0
M  V30 14121 C 1291.2 0.656933 -4.18981 0
M  V30 14122 N 1291.59 -0.255186 -5.05156 0
M  V30 14123 C 1289.89 0.914575 -4.36522 0
M  V30 14124 C 1290.59 -0.629753 -5.78281 0
M  V30 14125 N 1289.57 0.00829904 -5.43599 0
M  V30 14126 H 1293.37 -0.44348 -2.90535 0
M  V30 14127 H 1290.88 -0.344054 -1.58714 0
M  V30 14128 H 1292.88 1.8826 -3.71973 0
M  V30 14129 H 1291.54 2.01004 -2.55005 0
M  V30 14130 H 1292.55 -0.627564 -5.14084 0
M  V30 14131 H 1289.23 1.6086 -3.85266 0
M  V30 14132 H 1290.62 -1.37746 -6.57629 0
M  V30 14133 N 1293.34 1.5542 -0.261239 0
M  V30 14134 C 1294.61 1.91243 0.41056 0
M  V30 14135 C 1294.99 1.1838 1.74784 0
M  V30 14136 O 1294.34 0.306013 2.26442 0
M  V30 14137 C 1294.55 3.44404 0.56453 0
M  V30 14138 C 1295.9 4.15927 0.853827 0
M  V30 14139 O 1296.92 3.50222 0.649861 0
M  V30 14140 O 1295.78 5.32175 1.24308 0
M  V30 14141 H 1292.88 0.796491 0.222555 0
M  V30 14142 H 1295.42 1.66912 -0.306367 0
M  V30 14143 H 1294.2 3.89478 -0.377134 0
M  V30 14144 H 1293.82 3.74644 1.33145 0
M  V30 14145 N 1294.82 -0.0116844 1.57596 0
M  V30 14146 C 1296.06 -0.697577 1.89679 0
M  V30 14147 C 1296.38 -1.74956 0.861122 0
M  V30 14148 O 1295.65 -1.95629 -0.103031 0
M  V30 14149 H 1294.23 -0.26064 0.700054 0
M  V30 14150 H 1296.9 0.0264782 1.94882 0
M  V30 14151 H 1295.99 -1.17621 2.89088 0
M  V30 14152 N 1296.29 -1.55015 -0.284256 0
M  V30 14153 C 1297.52 -1.79431 -1.04016 0
M  V30 14154 C 1297.94 -0.560254 -1.79563 0
M  V30 14155 O 1297.3 0.489804 -1.74558 0
M  V30 14156 C 1297.35 -3.01162 -1.98328 0
M  V30 14157 O 1296.45 -2.75459 -3.06914 0
M  V30 14158 H 1295.79 -0.593391 -0.297965 0
M  V30 14159 H 1298.32 -2.02136 -0.316585 0
M  V30 14160 H 1298.33 -3.29589 -2.40489 0
M  V30 14161 H 1297.01 -3.90634 -1.42751 0
M  V30 14162 H 1295.59 -2.58096 -2.69148 0
M  V30 14163 N 1297.77 0.548248 -1.47757 0
M  V30 14164 C 1298.68 1.68178 -1.63565 0
M  V30 14165 C 1299.7 1.661 -0.518351 0
M  V30 14166 O 1300.87 1.85384 -0.787061 0
M  V30 14167 C 1297.94 3.04673 -1.65454 0
M  V30 14168 C 1297 3.17749 -2.88677 0
M  V30 14169 C 1296.23 4.47733 -2.90466 0
M  V30 14170 O 1296.46 5.33736 -2.01201 0
M  V30 14171 O 1295.39 4.64789 -3.82433 0
M  V30 14172 H 1299.22 1.57781 -2.59497 0
M  V30 14173 H 1296.8 0.719277 -1.30946 0
M  V30 14174 H 1298.68 3.85885 -1.69324 0
M  V30 14175 H 1297.36 3.15433 -0.726912 0
M  V30 14176 H 1296.26 2.359 -2.90348 0
M  V30 14177 H 1297.6 3.11897 -3.80763 0
M  V30 14178 N 1299.25 1.36039 0.795694 0
M  V30 14179 C 1300.16 1.31991 1.93948 0
M  V30 14180 C 1301.18 0.223064 1.72564 0
M  V30 14181 O 1302.35 0.454344 1.96208 0
M  V30 14182 C 1299.42 1.10228 3.28711 0
M  V30 14183 C 1298.48 2.29328 3.62914 0
M  V30 14184 C 1297.71 2.08595 4.91247 0
M  V30 14185 O 1297.93 1.05793 5.60503 0
M  V30 14186 O 1296.87 2.96222 5.23962 0
M  V30 14187 H 1300.69 2.28274 2.00311 0
M  V30 14188 H 1298.28 1.16521 0.935048 0
M  V30 14189 H 1300.16 0.999842 4.09367 0
M  V30 14190 H 1298.84 0.17003 3.23253 0
M  V30 14191 H 1297.74 2.4514 2.8259 0
M  V30 14192 H 1299.08 3.21038 3.73089 0
M  V30 14193 N 1300.73 -1.01913 1.20215 0
M  V30 14194 C 1301.64 -2.13864 0.964328 0
M  V30 14195 C 1302.65 -1.73821 -0.0789556 0
M  V30 14196 O 1303.83 -2.01111 0.107914 0
M  V30 14197 C 1300.9 -3.42827 0.516757 0
M  V30 14198 C 1299.96 -3.97127 1.63059 0
M  V30 14199 C 1299.19 -5.19935 1.20428 0
M  V30 14200 O 1299.41 -5.70355 0.0719119 0
M  V30 14201 O 1298.35 -5.67322 2.01071 0
M  V30 14202 H 1302.17 -2.36795 1.90162 0
M  V30 14203 H 1299.76 -1.1226 0.985803 0
M  V30 14204 H 1301.64 -4.20493 0.276272 0
M  V30 14205 H 1300.31 -3.21318 -0.391983 0
M  V30 14206 H 1299.22 -3.20752 1.92533 0
M  V30 14207 H 1300.55 -4.2302 2.51624 0
M  V30 14208 N 1302.21 -1.00763 -1.2118 0
M  V30 14209 C 1303.48 -0.607236 -1.85935 0
M  V30 14210 C 1303.86 0.915048 -1.90237 0
M  V30 14211 O 1303.21 1.80308 -1.40361 0
M  V30 14212 C 1303.42 -1.24466 -3.26051 0
M  V30 14213 C 1304.77 -1.35443 -4.02418 0
M  V30 14214 O 1305.79 -1.20018 -3.35372 0
M  V30 14215 O 1304.65 -1.60282 -5.22467 0
M  V30 14216 H 1301.75 -0.208338 -0.800328 0
M  V30 14217 H 1304.29 -1.10444 -1.28842 0
M  V30 14218 H 1303.06 -2.28524 -3.17635 0
M  V30 14219 H 1302.69 -0.733966 -3.90767 0
M  V30 14220 N 1303.68 1.3679 -0.7827 0
M  V30 14221 C 1304.96 1.93639 -0.276278 0
M  V30 14222 C 1305.34 1.7153 1.23048 0
M  V30 14223 O 1304.69 1.07037 2.01879 0
M  V30 14224 C 1304.9 3.42672 -0.661586 0
M  V30 14225 C 1306.25 4.19786 -0.637538 0
M  V30 14226 O 1307.27 3.51082 -0.601645 0
M  V30 14227 O 1306.13 5.42323 -0.674408 0
M  V30 14228 H 1303.22 0.824307 -0.0666832 0
M  V30 14229 H 1305.77 1.46012 -0.864792 0
M  V30 14230 H 1304.54 3.52393 -1.70103 0
M  V30 14231 H 1304.17 3.97573 -0.0465987 0
M  V30 14232 N 1305.16 0.53415 1.48272 0
M  V30 14233 C 1306.44 -0.0630181 1.95498 0
M  V30 14234 C 1306.82 -1.50877 1.47646 0
M  V30 14235 O 1306.17 -2.17358 0.704829 0
M  V30 14236 C 1306.38 0.0585475 3.48951 0
M  V30 14237 C 1307.73 -0.0985978 4.24486 0
M  V30 14238 O 1308.75 -0.0150438 3.56197 0
M  V30 14239 O 1307.61 -0.274356 5.45811 0
M  V30 14240 H 1304.7 -0.0769841 0.823409 0
M  V30 14241 H 1307.25 0.599043 1.58775 0
M  V30 14242 H 1306.02 1.06549 3.76514 0
M  V30 14243 H 1305.64 -0.642175 3.9238 0
M  V30 14244 N 1306.64 -1.55279 0.269478 0
M  V30 14245 C 1307.87 -2.03581 -0.351907 0
M  V30 14246 C 1308.28 -1.14747 -1.50432 0
M  V30 14247 O 1307.62 -0.158939 -1.83011 0
M  V30 14248 C 1307.68 -3.48041 -0.900444 0
M  V30 14249 C 1307.35 -4.56835 0.122612 0
M  V30 14250 C 1308.34 -5.11329 0.940149 0
M  V30 14251 C 1306.03 -5.01651 0.255224 0
M  V30 14252 C 1308.02 -6.09151 1.87654 0
M  V30 14253 C 1305.71 -5.993 1.19509 0
M  V30 14254 C 1306.71 -6.52931 2.00426 0
M  V30 14255 O 1306.4 -7.48671 2.92825 0
M  V30 14256 H 1306.13 -0.670627 -0.0850629 0
M  V30 14257 H 1308.68 -2.01514 0.39766 0
M  V30 14258 H 1306.91 -3.47329 -1.69998 0
M  V30 14259 H 1308.6 -3.79713 -1.43431 0
M  V30 14260 H 1309.37 -4.77522 0.848402 0
M  V30 14261 H 1305.25 -4.59556 -0.364579 0
M  V30 14262 H 1308.79 -6.50937 2.50853 0
M  V30 14263 H 1304.69 -6.32526 1.28768 0
M  V30 14264 H 1305.46 -7.66368 2.87442 0
M  V30 14265 N 1308.12 0.00332656 -1.576 0
M  V30 14266 C 1309.37 0.687508 -1.90047 0
M  V30 14267 C 1309.69 1.74497 -0.870388 0
M  V30 14268 O 1308.96 1.95681 0.0926544 0
M  V30 14269 H 1307.54 0.256924 -0.701426 0
M  V30 14270 H 1310.2 -0.0368129 -1.94865 0
M  V30 14271 H 1309.3 1.16086 -2.89707 0
M  V30 14272 N 1309.6 1.55164 0.276031 0
M  V30 14273 C 1310.53 1.90844 1.34539 0
M  V30 14274 C 1311.51 0.769968 1.51676 0
M  V30 14275 O 1312.69 1.02785 1.64769 0
M  V30 14276 C 1309.82 2.17769 2.70543 0
M  V30 14277 C 1308.78 3.33592 2.68142 0
M  V30 14278 C 1308.1 3.45991 4.07669 0
M  V30 14279 C 1309.4 4.70064 2.27678 0
M  V30 14280 H 1311.1 2.80412 1.04926 0
M  V30 14281 H 1308.64 1.34918 0.503303 0
M  V30 14282 H 1310.6 2.41317 3.45462 0
M  V30 14283 H 1309.32 1.24997 3.01734 0
M  V30 14284 H 1307.98 3.10007 1.95681 0
M  V30 14285 H 1307.63 2.50691 4.36077 0
M  V30 14286 H 1307.33 4.23862 4.06958 0
M  V30 14287 H 1308.85 3.71828 4.84331 0
M  V30 14288 H 1310.26 4.93176 2.92319 0
M  V30 14289 H 1308.66 5.50829 2.38134 0
M  V30 14290 H 1309.73 4.69091 1.22808 0
M  V30 14291 N 1311.07 -0.540404 1.48045 0
M  V30 14292 C 1312.32 -1.2932 1.54787 0
M  V30 14293 C 1312.64 -1.94335 0.222109 0
M  V30 14294 O 1313.84 -2.70982 0.167675 0
M  V30 14295 C 1312.3 -2.34594 2.72935 0
M  V30 14296 C 1311.91 -1.75696 4.1211 0
M  V30 14297 C 1313.65 -3.10949 2.88982 0
M  V30 14298 C 1311.56 -2.78849 5.21534 0
M  V30 14299 H 1310.49 -0.486315 0.576206 0
M  V30 14300 H 1313.14 -0.571998 1.74357 0
M  V30 14301 H 1311.52 -3.09704 2.46778 0
M  V30 14302 H 1312.69 -1.06845 4.48242 0
M  V30 14303 H 1311.01 -1.11869 4.01091 0
M  V30 14304 H 1313.61 -3.88012 3.679 0
M  V30 14305 H 1313.95 -3.66173 1.98048 0
M  V30 14306 H 1314.48 -2.42953 3.1499 0
M  V30 14307 H 1311.22 -2.28459 6.144 0
M  V30 14308 H 1310.74 -3.46059 4.89901 0
M  V30 14309 H 1312.42 -3.4203 5.49203 0
M  V30 14310 N 1312.55 -1.36459 -0.788468 0
M  V30 14311 C 1313.78 -1.34063 -1.58246 0
M  V30 14312 C 1314.2 0.0754933 -1.87948 0
M  V30 14313 O 1313.56 1.04772 -1.47961 0
M  V30 14314 C 1313.61 -2.17038 -2.8797 0
M  V30 14315 O 1312.71 -1.56353 -3.81612 0
M  V30 14316 H 1312.05 -0.458816 -0.479983 0
M  V30 14317 H 1314.58 -1.79755 -0.977207 0
M  V30 14318 H 1314.59 -2.29651 -3.3723 0
M  V30 14319 H 1313.27 -3.19981 -2.65678 0
M  V30 14320 H 1311.85 -1.52685 -3.40208 0
M  V30 14321 N 1314.03 1.01274 -1.20754 0
M  V30 14322 C 1315.26 1.7906 -1.04653 0
M  V30 14323 C 1315.68 1.83806 0.399632 0
M  V30 14324 O 1315.04 1.27596 1.28798 0
M  V30 14325 C 1315.09 3.21187 -1.63925 0
M  V30 14326 O 1314.19 4.02913 -0.879486 0
M  V30 14327 H 1313.53 0.552147 -0.368823 0
M  V30 14328 H 1316.06 1.27356 -1.6013 0
M  V30 14329 H 1316.07 3.71887 -1.67822 0
M  V30 14330 H 1314.75 3.17048 -2.69172 0
M  V30 14331 H 1313.32 3.61499 -0.915019 0
M  V30 14332 N 1315.51 1.01404 1.20644 0
M  V30 14333 C 1316.76 0.702949 1.90227 0
M  V30 14334 C 1317.09 -0.765243 1.78487 0
M  V30 14335 O 1316.36 -1.55569 1.16741 0
M  V30 14336 C 1316.65 1.13606 3.4171 0
M  V30 14337 C 1316.5 2.66437 3.62397 0
M  V30 14338 C 1317.82 0.705361 4.34411 0
M  V30 14339 H 1314.94 0.256842 0.690797 0
M  V30 14340 H 1317.58 1.26133 1.42093 0
M  V30 14341 H 1315.73 0.660977 3.82836 0
M  V30 14342 H 1317.4 3.21778 3.3054 0
M  V30 14343 H 1315.64 3.0753 3.05954 0
M  V30 14344 H 1316.32 2.91795 4.68572 0
M  V30 14345 H 1318.79 1.11375 4.00918 0
M  V30 14346 H 1317.67 1.03647 5.39026 0
M  V30 14347 H 1317.93 -0.393094 4.40349 0
M  V30 14348 N 1316.99 -1.36373 0.789944 0
M  V30 14349 C 1317.9 -2.3383 0.189873 0
M  V30 14350 C 1318.91 -1.61068 -0.65827 0
M  V30 14351 O 1320.09 -1.93049 -0.573932 0
M  V30 14352 C 1317.15 -3.40264 -0.664905 0
M  V30 14353 C 1316.22 -4.28825 0.201798 0
M  V30 14354 C 1315.45 -5.30176 -0.612278 0
M  V30 14355 O 1315.67 -5.39627 -1.84821 0
M  V30 14356 O 1314.61 -6.01899 -0.0118964 0
M  V30 14357 H 1318.43 -2.86915 0.995671 0
M  V30 14358 H 1316.02 -1.38852 0.551412 0
M  V30 14359 H 1317.9 -4.05339 -1.15231 0
M  V30 14360 H 1316.57 -2.89478 -1.44858 0
M  V30 14361 H 1315.48 -3.66789 0.735974 0
M  V30 14362 H 1316.81 -4.82965 0.949003 0
M  V30 14363 N 1318.47 -0.542005 -1.47987 0
M  V30 14364 C 1319.38 0.217677 -2.33588 0
M  V30 14365 C 1320.39 0.927093 -1.47245 0
M  V30 14366 O 1321.57 0.899378 -1.80203 0
M  V30 14367 C 1318.63 1.24376 -3.23622 0
M  V30 14368 C 1317.69 0.543407 -4.25847 0
M  V30 14369 C 1316.93 1.5206 -5.11579 0
M  V30 14370 O 1317.15 2.75425 -4.99497 0
M  V30 14371 O 1316.08 1.05341 -5.9261 0
M  V30 14372 H 1319.91 -0.484089 -2.99817 0
M  V30 14373 H 1317.49 -0.302783 -1.463 0
M  V30 14374 H 1319.38 1.83644 -3.7928 0
M  V30 14375 H 1318.05 1.92772 -2.6004 0
M  V30 14376 H 1316.96 -0.090074 -3.73992 0
M  V30 14377 H 1318.29 -0.0988264 -4.92101 0
M  V30 14378 N 1319.94 1.55134 -0.277709 0
M  V30 14379 C 1321.19 1.98831 0.338982 0
M  V30 14380 C 1321.51 1.16958 1.56781 0
M  V30 14381 O 1322.71 1.50811 2.25762 0
M  V30 14382 C 1321.17 3.53899 0.654465 0
M  V30 14383 C 1320.78 4.44553 -0.554703 0
M  V30 14384 C 1322.52 4.06179 1.23364 0
M  V30 14385 C 1320.43 5.91014 -0.213663 0
M  V30 14386 H 1319.36 0.742632 0.130434 0
M  V30 14387 H 1322.01 1.79463 -0.382768 0
M  V30 14388 H 1320.39 3.69078 1.43519 0
M  V30 14389 H 1321.56 4.41143 -1.33151 0
M  V30 14390 H 1319.88 4.02921 -1.0509 0
M  V30 14391 H 1322.48 5.13152 1.50265 0
M  V30 14392 H 1322.82 3.5537 2.16836 0
M  V30 14393 H 1323.35 3.9445 0.515147 0
M  V30 14394 H 1320.09 6.45924 -1.11633 0
M  V30 14395 H 1319.61 5.97486 0.526329 0
M  V30 14396 H 1321.29 6.46712 0.19319 0
M  V30 14397 N 1321.42 0.00503138 1.57599 0
M  V30 14398 C 1322.83 -0.537106 1.78807 0
M  V30 14399 C 1323.18 -1.73666 0.912945 0
M  V30 14400 O 1322.31 -2.16085 0.116775 0
M  V30 14401 C 1322.9 -0.98116 3.24282 0
M  V30 14402 C 1321.46 -1.46857 3.46569 0
M  V30 14403 C 1320.61 -0.422088 2.74069 0
M  V30 14404 H 1323.56 0.231182 1.57007 0
M  V30 14405 H 1323.58 -1.8469 3.32671 0
M  V30 14406 H 1323.09 -0.107907 3.8795 0
M  V30 14407 H 1321.19 -2.36255 2.88122 0
M  V30 14408 H 1321.31 -1.49256 4.55258 0
M  V30 14409 H 1319.67 -0.884853 2.38836 0
M  V30 14410 H 1320.45 0.442285 3.40439 0
M  V30 14411 N 1322.9 -1.55308 -0.267798 0
M  V30 14412 C 1323.81 -1.91649 -1.35307 0
M  V30 14413 C 1324.83 -0.814349 -1.53767 0
M  V30 14414 O 1326 -1.11388 -1.67793 0
M  V30 14415 C 1323.07 -2.18553 -2.69138 0
M  V30 14416 C 1322.13 -3.42083 -2.5938 0
M  V30 14417 C 1321.36 -3.67695 -3.86828 0
M  V30 14418 O 1321.58 -2.95728 -4.87751 0
M  V30 14419 O 1320.52 -4.61229 -3.86718 0
M  V30 14420 H 1324.34 -2.84044 -1.07483 0
M  V30 14421 H 1321.93 -1.41921 -0.466772 0
M  V30 14422 H 1323.81 -2.3726 -3.48261 0
M  V30 14423 H 1322.49 -1.2934 -2.96737 0
M  V30 14424 H 1321.39 -3.28706 -1.78614 0
M  V30 14425 H 1322.73 -4.31532 -2.36729 0
M  V30 14426 N 1324.38 0.532545 -1.4833 0
M  V30 14427 C 1325.65 1.29371 -1.46705 0
M  V30 14428 C 1326.03 2.10354 -0.177329 0
M  V30 14429 O 1325.38 2.12462 0.840968 0
M  V30 14430 C 1325.59 2.17733 -2.72751 0
M  V30 14431 C 1326.94 2.77956 -3.20976 0
M  V30 14432 O 1327.96 2.28022 -2.7365 0
M  V30 14433 O 1326.82 3.68779 -4.03317 0
M  V30 14434 H 1323.92 0.58378 -0.585773 0
M  V30 14435 H 1326.46 0.549411 -1.6056 0
M  V30 14436 H 1325.24 1.57659 -3.58133 0
M  V30 14437 H 1324.86 2.99415 -2.61603 0
M  V30 14438 N 1325.86 1.36875 0.78122 0
M  V30 14439 C 1326.82 1.31706 1.8758 0
M  V30 14440 C 1327.82 0.223044 1.59246 0
M  V30 14441 O 1329.01 0.478327 1.67504 0
M  V30 14442 C 1326.14 1.0437 3.2453 0
M  V30 14443 H 1327.33 2.29059 1.93576 0
M  V30 14444 H 1324.89 1.21766 0.979931 0
M  V30 14445 H 1325.62 0.0750941 3.24213 0
M  V30 14446 H 1325.41 1.83548 3.46486 0
M  V30 14447 H 1326.9 1.0338 4.04602 0
M  V30 14448 N 1327.33 -1.00632 1.21289 0
M  V30 14449 C 1328.3 -2.07543 0.972548 0
M  V30 14450 C 1329.3 -1.60703 -0.0559244 0
M  V30 14451 O 1330.49 -1.73255 0.181213 0
M  V30 14452 C 1327.62 -3.37696 0.466297 0
M  V30 14453 H 1328.81 -2.30298 1.92101 0
M  V30 14454 H 1326.36 -1.17588 1.02969 0
M  V30 14455 H 1327.1 -3.2062 -0.487148 0
M  V30 14456 H 1326.88 -3.73024 1.20813 0
M  V30 14457 H 1328.37 -4.16388 0.317962 0
M  V30 14458 N 1328.81 -1.02043 -1.20104 0
M  V30 14459 C 1330.04 -0.731142 -1.94085 0
M  V30 14460 C 1330.46 0.702467 -1.74491 0
M  V30 14461 O 1329.82 1.48387 -1.04168 0
M  V30 14462 C 1329.87 -1.07691 -3.44144 0
M  V30 14463 O 1328.97 -0.190751 -4.11959 0
M  V30 14464 H 1328.31 -0.270917 -0.606218 0
M  V30 14465 H 1330.84 -1.36483 -1.52426 0
M  V30 14466 H 1330.85 -1.03023 -3.94779 0
M  V30 14467 H 1329.53 -2.1214 -3.57728 0
M  V30 14468 H 1328.1 -0.29529 -3.71729 0
M  V30 14469 N 1330.29 1.35952 -0.797165 0
M  V30 14470 C 1331.54 1.98283 -0.369685 0
M  V30 14471 C 1331.85 1.63968 1.06649 0
M  V30 14472 O 1333.06 2.19591 1.59662 0
M  V30 14473 C 1331.51 3.54692 -0.610046 0
M  V30 14474 C 1331.12 3.97925 -2.05814 0
M  V30 14475 C 1332.87 4.23778 -0.247457 0
M  V30 14476 C 1330.77 5.47142 -2.24475 0
M  V30 14477 H 1329.7 0.741909 -0.134489 0
M  V30 14478 H 1332.35 1.55146 -0.979893 0
M  V30 14479 H 1330.74 3.95938 0.0699822 0
M  V30 14480 H 1331.91 3.67857 -2.77521 0
M  V30 14481 H 1330.23 3.417 -2.37971 0
M  V30 14482 H 1332.82 5.33452 -0.365059 0
M  V30 14483 H 1333.17 4.08436 0.805315 0
M  V30 14484 H 1333.7 3.87921 -0.881028 0
M  V30 14485 H 1330.44 5.67441 -3.28163 0
M  V30 14486 H 1329.96 5.78811 -1.57282 0
M  V30 14487 H 1331.64 6.13475 -2.05567 0
M  V30 14488 N 1331.77 0.549846 1.47697 0
M  V30 14489 C 1333 0.0276889 2.06881 0
M  V30 14490 C 1333.41 -1.26273 1.40359 0
M  V30 14491 O 1332.77 -1.75584 0.497644 0
M  V30 14492 C 1332.82 -0.179291 3.61055 0
M  V30 14493 O 1332.54 1.06002 4.25083 0
M  V30 14494 C 1334.04 -0.739571 4.37087 0
M  V30 14495 H 1331.26 0.0425016 0.669653 0
M  V30 14496 H 1333.81 0.761158 1.89807 0
M  V30 14497 H 1331.96 -0.862867 3.77668 0
M  V30 14498 H 1332.37 0.853137 5.17515 0
M  V30 14499 H 1333.85 -0.833722 5.45668 0
M  V30 14500 H 1334.33 -1.74915 4.02867 0
M  V30 14501 H 1334.93 -0.0919294 4.25201 0
M  V30 14502 N 1333.25 -1.54984 0.285932 0
M  V30 14503 C 1334.18 -2.19087 -0.638448 0
M  V30 14504 C 1335.16 -1.1553 -1.14418 0
M  V30 14505 O 1336.34 -1.44105 -1.21516 0
M  V30 14506 C 1333.47 -2.82273 -1.87188 0
M  V30 14507 C 1332.51 -3.99226 -1.5007 0
M  V30 14508 S 1333.35 -5.32463 -0.569552 0
M  V30 14509 C 1334.5 -5.99124 -1.81112 0
M  V30 14510 H 1334.74 -2.97152 -0.0938139 0
M  V30 14511 H 1332.27 -1.54241 0.0701344 0
M  V30 14512 H 1334.23 -3.19307 -2.57979 0
M  V30 14513 H 1332.89 -2.04082 -2.38767 0
M  V30 14514 H 1332.08 -4.42166 -2.41878 0
M  V30 14515 H 1331.68 -3.63671 -0.872871 0
M  V30 14516 H 1333.98 -6.19015 -2.75367 0
M  V30 14517 H 1334.92 -6.93623 -1.42454 0
M  V30 14518 H 1335.33 -5.28599 -1.98098 0
M  V30 14519 N 1334.72 -0.0133892 -1.57594 0
M  V30 14520 C 1336.14 0.342848 -1.55874 0
M  V30 14521 C 1336.34 1.73928 -1.01742 0
M  V30 14522 O 1335.4 2.43798 -0.657158 0
M  V30 14523 C 1336.71 0.205831 -2.99995 0
M  V30 14524 C 1338.26 0.279774 -3.11747 0
M  V30 14525 C 1338.73 0.171729 -4.57678 0
M  V30 14526 N 1340.22 0.22921 -4.62633 0
M  V30 14527 C 1340.96 0.169153 -5.7315 0
M  V30 14528 N 1340.45 0.0589166 -6.92775 0
M  V30 14529 N 1342.25 0.221995 -5.61661 0
M  V30 14530 H 1334.4 -0.926727 -1.91117 0
M  V30 14531 H 1336.66 -0.356466 -0.878428 0
M  V30 14532 H 1336.37 -0.755482 -3.4349 0
M  V30 14533 H 1336.24 0.982476 -3.6418 0
M  V30 14534 H 1338.63 1.23154 -2.68174 0
M  V30 14535 H 1338.71 -0.526974 -2.50313 0
M  V30 14536 H 1338.35 -0.776547 -5.01928 0
M  V30 14537 H 1338.28 0.997138 -5.17073 0
M  V30 14538 H 1340.77 0.315196 -3.76583 0
M  V30 14539 H 1341.09 0.0193526 -7.72798 0
M  V30 14540 H 1339.43 0.0243543 -6.94996 0
M  V30 14541 H 1342.62 0.306406 -4.67096 0
M  V30 14542 H 1342.8 0.171727 -6.47772 0
M  V30 14543 N 1336.2 1.55448 0.259558 0
M  V30 14544 C 1337.62 1.47588 0.607442 0
M  V30 14545 C 1337.82 0.701053 1.88911 0
M  V30 14546 O 1336.87 0.225305 2.51493 0
M  V30 14547 C 1338.19 2.91905 0.72192 0
M  V30 14548 C 1339.74 3.02201 0.815087 0
M  V30 14549 C 1340.21 4.47799 0.961231 0
M  V30 14550 N 1341.7 4.51684 1.02642 0
M  V30 14551 C 1342.44 5.61574 1.15854 0
M  V30 14552 N 1341.93 6.81301 1.257 0
M  V30 14553 N 1343.73 5.49344 1.1907 0
M  V30 14554 H 1335.88 2.04271 -0.581981 0
M  V30 14555 H 1338.14 0.926865 -0.199059 0
M  V30 14556 H 1337.85 3.51382 -0.149611 0
M  V30 14557 H 1337.72 3.41681 1.59793 0
M  V30 14558 H 1340.11 2.42813 1.67708 0
M  V30 14559 H 1340.19 2.55656 -0.0858102 0
M  V30 14560 H 1339.83 5.07794 0.103848 0
M  V30 14561 H 1339.76 4.92013 1.87698 0
M  V30 14562 H 1342.25 3.65446 0.962184 0
M  V30 14563 H 1342.57 7.60801 1.35652 0
M  V30 14564 H 1340.91 6.84087 1.2268 0
M  V30 14565 H 1344.1 4.54745 1.11018 0
M  V30 14566 H 1344.27 6.35025 1.29022 0
M  V30 14567 N 1337.68 -0.524672 1.4861 0
M  V30 14568 C 1338.59 -1.65554 1.6622 0
M  V30 14569 C 1339.61 -1.65254 0.54471 0
M  V30 14570 O 1340.78 -1.84109 0.816454 0
M  V30 14571 C 1337.85 -3.02003 1.7028 0
M  V30 14572 C 1336.91 -3.13116 2.93695 0
M  V30 14573 C 1336.14 -4.43055 2.97553 0
M  V30 14574 O 1336.36 -5.30468 2.09667 0
M  V30 14575 O 1335.3 -4.58646 3.89779 0
M  V30 14576 H 1339.12 -1.53633 2.61974 0
M  V30 14577 H 1336.71 -0.698354 1.32073 0
M  V30 14578 H 1338.59 -3.83143 1.75441 0
M  V30 14579 H 1337.27 -3.14236 0.777002 0
M  V30 14580 H 1336.17 -2.31251 2.94064 0
M  V30 14581 H 1337.51 -3.058 3.85677 0
M  V30 14582 N 1339.16 -1.37287 -0.77395 0
M  V30 14583 C 1340.11 -1.32955 -1.90855 0
M  V30 14584 C 1341.1 -0.218695 -1.67982 0
M  V30 14585 O 1342.31 -0.386594 -1.75799 0
M  V30 14586 H 1338.68 -0.414289 -0.62759 0
M  V30 14587 H 1340.65 -2.2874 -1.91626 0
M  V30 14588 C 1339.4 -1.15121 -3.28089 0
M  V30 14589 H 1338.72 -1.99852 -3.46264 0
M  V30 14590 H 1340.16 -1.1614 -4.07784 0
M  V30 14591 C 1338.62 0.14327 -3.36595 0
M  V30 14592 O 1339.15 1.12763 -3.85548 0
M  V30 14593 N 1337.36 0.193219 -2.89957 0
M  V30 14594 H 1336.91 -0.608471 -2.50311 0
M  V30 14595 H 1336.86 1.05897 -2.96029 0
M  V30 14596 N 1340.64 0.999871 -1.21821 0
M  V30 14597 C 1341.86 1.7794 -1.06546 0
M  V30 14598 C 1342.29 1.84219 0.380115 0
M  V30 14599 O 1341.64 1.28955 1.27438 0
M  V30 14600 C 1341.69 3.1943 -1.67322 0
M  V30 14601 O 1340.8 4.01957 -0.922171 0
M  V30 14602 H 1340.14 0.548204 -0.374658 0
M  V30 14603 H 1342.67 1.2565 -1.61472 0
M  V30 14604 H 1342.68 3.70086 -1.71757 0
M  V30 14605 H 1341.35 3.14175 -2.7252 0
M  V30 14606 H 1339.93 3.60509 -0.95331 0
M  V30 14607 N 1342.11 1.02678 1.19562 0
M  V30 14608 C 1343.36 0.722016 1.89191 0
M  V30 14609 C 1343.69 -0.749217 1.79491 0
M  V30 14610 O 1342.94 -1.56105 1.18025 0
M  V30 14611 C 1343.24 1.11603 3.39529 0
M  V30 14612 C 1342.91 2.58518 3.69431 0
M  V30 14613 C 1341.57 2.98658 3.77302 0
M  V30 14614 C 1343.92 3.53579 3.82925 0
M  V30 14615 C 1341.25 4.32776 3.96134 0
M  V30 14616 C 1343.6 4.87398 4.0327 0
M  V30 14617 C 1342.27 5.27229 4.09373 0
M  V30 14618 H 1341.54 0.264204 0.692298 0
M  V30 14619 H 1344.18 1.28924 1.41601 0
M  V30 14620 H 1342.49 0.467374 3.89002 0
M  V30 14621 H 1344.19 0.857771 3.91718 0
M  V30 14622 H 1340.78 2.26421 3.63911 0
M  V30 14623 H 1344.96 3.23721 3.76189 0
M  V30 14624 H 1340.22 4.63175 3.99098 0
M  V30 14625 H 1344.39 5.60973 4.12653 0
M  V30 14626 H 1342.02 6.31164 4.23718 0
M  V30 14627 N 1343.59 -1.35528 0.804364 0
M  V30 14628 C 1345.01 -1.51962 0.487831 0
M  V30 14629 C 1345.21 -1.75426 -0.991353 0
M  V30 14630 O 1344.26 -1.7944 -1.77644 0
M  V30 14631 C 1345.58 -2.69626 1.33126 0
M  V30 14632 C 1347.13 -2.83502 1.32648 0
M  V30 14633 C 1347.6 -4.04188 2.15397 0
M  V30 14634 N 1349.09 -4.11362 2.12922 0
M  V30 14635 C 1349.83 -5.03856 2.73709 0
M  V30 14636 N 1349.32 -6.01696 3.43415 0
M  V30 14637 N 1351.12 -4.96585 2.63363 0
M  V30 14638 H 1343.27 -1.18553 1.76235 0
M  V30 14639 H 1345.53 -0.57986 0.749977 0
M  V30 14640 H 1345.24 -2.58857 2.38088 0
M  V30 14641 H 1345.11 -3.64168 0.982934 0
M  V30 14642 H 1347.5 -2.93723 0.284712 0
M  V30 14643 H 1347.58 -1.89824 1.71466 0
M  V30 14644 H 1347.22 -3.94728 3.19613 0
M  V30 14645 H 1347.15 -4.97044 1.7394 0
M  V30 14646 H 1349.64 -3.41319 1.62203 0
M  V30 14647 H 1349.96 -6.68866 3.8709 0
M  V30 14648 H 1348.3 -6.01877 3.47519 0
M  V30 14649 H 1351.49 -4.19103 2.08496 0
M  V30 14650 H 1351.66 -5.68478 3.11026 0
M  V30 14651 N 1345.07 -0.557671 -1.47404 0
M  V30 14652 C 1346.49 -0.217473 -1.58111 0
M  V30 14653 C 1346.69 1.28 -1.55622 0
M  V30 14654 O 1345.74 2.06019 -1.45988 0
M  V30 14655 C 1347.06 -0.844535 -2.88597 0
M  V30 14656 C 1348.6 -0.815807 -3.02181 0
M  V30 14657 C 1349.08 -1.42195 -4.35367 0
M  V30 14658 N 1350.57 -1.38515 -4.42004 0
M  V30 14659 C 1351.31 -1.82378 -5.43623 0
M  V30 14660 N 1350.8 -2.34098 -6.52051 0
M  V30 14661 N 1352.59 -1.73446 -5.34671 0
M  V30 14662 H 1344.75 -1.53058 -1.47265 0
M  V30 14663 H 1347.01 -0.638305 -0.700907 0
M  V30 14664 H 1346.71 -1.89696 -2.96156 0
M  V30 14665 H 1346.59 -0.337844 -3.75684 0
M  V30 14666 H 1348.98 0.227925 -2.94218 0
M  V30 14667 H 1349.06 -1.36026 -2.16635 0
M  V30 14668 H 1348.7 -2.46475 -4.44086 0
M  V30 14669 H 1348.63 -0.852932 -5.19647 0
M  V30 14670 H 1351.12 -1.00684 -3.64241 0
M  V30 14671 H 1351.43 -2.6549 -7.25765 0
M  V30 14672 H 1349.78 -2.38109 -6.52939 0
M  V30 14673 H 1352.97 -1.32816 -4.48862 0
M  V30 14674 H 1353.14 -2.07947 -6.13728 0
M  V30 14675 N 1346.55 1.54831 -0.294147 0
M  V30 14676 C 1347.78 2.04411 0.319938 0
M  V30 14677 C 1348.19 1.17174 1.4804 0
M  V30 14678 O 1347.55 0.195881 1.81446 0
M  V30 14679 C 1347.6 3.52924 0.782751 0
M  V30 14680 O 1347.32 4.36844 -0.331512 0
M  V30 14681 C 1348.82 4.18474 1.4627 0
M  V30 14682 H 1346.04 0.667286 0.0704973 0
M  V30 14683 H 1348.59 1.9989 -0.431785 0
M  V30 14684 H 1346.74 3.57828 1.48451 0
M  V30 14685 H 1347.16 5.24493 0.0275743 0
M  V30 14686 H 1348.63 5.23933 1.73776 0
M  V30 14687 H 1349.11 3.67793 2.40052 0
M  V30 14688 H 1349.71 4.17626 0.804291 0
M  V30 14689 N 1348.03 0.0217466 1.57585 0
M  V30 14690 C 1348.96 -0.961069 2.12804 0
M  V30 14691 C 1349.94 -1.3442 1.04237 0
M  V30 14692 O 1351.12 -1.42412 1.32032 0
M  V30 14693 C 1348.25 -2.24586 2.64912 0
M  V30 14694 C 1347.21 -2.0037 3.78201 0
M  V30 14695 C 1346.53 -3.35051 4.16708 0
M  V30 14696 C 1347.83 -1.34879 5.04584 0
M  V30 14697 H 1349.53 -0.501222 2.95175 0
M  V30 14698 H 1347.07 -0.239649 1.41992 0
M  V30 14699 H 1349.03 -2.93715 3.02175 0
M  V30 14700 H 1347.75 -2.72723 1.79693 0
M  V30 14701 H 1346.41 -1.33662 3.41365 0
M  V30 14702 H 1346.06 -3.80932 3.28481 0
M  V30 14703 H 1345.76 -3.19656 4.93045 0
M  V30 14704 H 1347.28 -4.05459 4.56547 0
M  V30 14705 H 1348.7 -1.93997 5.3948 0
M  V30 14706 H 1347.09 -1.29906 5.85871 0
M  V30 14707 H 1348.16 -0.320774 4.83838 0
M  V30 14708 N 1349.51 -1.55583 -0.251311 0
M  V30 14709 C 1350.73 -1.81597 -1.00186 0
M  V30 14710 C 1351.16 -0.598216 -1.78334 0
M  V30 14711 O 1350.51 0.452667 -1.75558 0
M  V30 14712 C 1350.56 -3.05301 -1.91895 0
M  V30 14713 O 1349.67 -2.81907 -3.01002 0
M  V30 14714 H 1349.01 -0.599578 -0.285311 0
M  V30 14715 H 1351.54 -2.02762 -0.273638 0
M  V30 14716 H 1351.55 -3.34616 -2.33444 0
M  V30 14717 H 1350.22 -3.93574 -1.34433 0
M  V30 14718 H 1348.8 -2.63747 -2.63613 0
M  V30 14719 N 1350.98 0.516783 -1.48886 0
M  V30 14720 C 1352.4 0.84654 -1.35299 0
M  V30 14721 C 1352.6 1.97998 -0.374035 0
M  V30 14722 O 1351.66 2.51707 0.200003 0
M  V30 14723 C 1352.97 1.20162 -2.75648 0
M  V30 14724 C 1354.52 1.31074 -2.84233 0
M  V30 14725 C 1354.99 1.69919 -4.25313 0
M  V30 14726 N 1356.48 1.76998 -4.28049 0
M  V30 14727 C 1357.22 2.08466 -5.34162 0
M  V30 14728 N 1356.71 2.38268 -6.50538 0
M  V30 14729 N 1358.51 2.09584 -5.21566 0
M  V30 14730 H 1350.66 -0.230871 -2.11142 0
M  V30 14731 H 1352.92 -0.0406678 -0.947127 0
M  V30 14732 H 1352.63 0.442278 -3.48908 0
M  V30 14733 H 1352.5 2.14875 -3.10014 0
M  V30 14734 H 1354.89 2.06083 -2.1122 0
M  V30 14735 H 1354.97 0.344506 -2.5347 0
M  V30 14736 H 1354.61 0.954667 -4.98847 0
M  V30 14737 H 1354.54 2.67616 -4.5353 0
M  V30 14738 H 1357.03 1.56191 -3.44112 0
M  V30 14739 H 1357.35 2.61423 -7.2724 0
M  V30 14740 H 1355.69 2.35758 -6.53791 0
M  V30 14741 H 1358.88 1.85768 -4.2966 0
M  V30 14742 H 1359.06 2.33776 -6.04362 0
M  V30 14743 N 1352.46 1.37696 0.766659 0
M  V30 14744 C 1353.69 1.36564 1.56093 0
M  V30 14745 C 1354.11 -0.0455828 1.88045 0
M  V30 14746 O 1353.47 -1.02405 1.49609 0
M  V30 14747 C 1353.52 2.21592 2.84481 0
M  V30 14748 O 1352.62 1.62404 3.79076 0
M  V30 14749 H 1351.96 0.466394 0.472623 0
M  V30 14750 H 1354.49 1.81287 0.948486 0
M  V30 14751 H 1354.5 2.34987 3.33534 0
M  V30 14752 H 1353.18 3.24167 2.60554 0
M  V30 14753 H 1351.75 1.58078 3.37736 0
M  V30 14754 N 1353.94 -0.993397 1.22349 0
M  V30 14755 C 1355.16 -1.77373 1.07488 0
M  V30 14756 C 1355.59 -1.84418 -0.37034 0
M  V30 14757 O 1354.95 -1.29629 -1.26752 0
M  V30 14758 C 1355 -3.18538 1.69014 0
M  V30 14759 O 1354.1 -4.01463 0.943474 0
M  V30 14760 H 1353.44 -0.546209 0.37756 0
M  V30 14761 H 1355.97 -1.24792 1.62136 0
M  V30 14762 H 1355.98 -3.6917 1.73717 0
M  V30 14763 H 1354.66 -3.12725 2.74182 0
M  V30 14764 H 1353.23 -3.59998 0.972415 0
M  V30 14765 N 1355.42 -1.03311 -1.19015 0
M  V30 14766 C 1356.83 -0.750946 -1.4083 0
M  V30 14767 C 1357.03 0.662704 -1.90291 0
M  V30 14768 O 1356.09 1.42806 -2.08237 0
M  V30 14769 C 1357.4 -1.79064 -2.41571 0
M  V30 14770 C 1358.95 -1.81068 -2.55311 0
M  V30 14771 C 1359.43 -2.84008 -3.59309 0
M  V30 14772 N 1360.92 -2.82852 -3.6681 0
M  V30 14773 C 1361.65 -3.59156 -4.46984 0
M  V30 14774 N 1361.15 -4.45188 -5.30829 0
M  V30 14775 N 1362.94 -3.47679 -4.41674 0
M  V30 14776 H 1355.09 -1.94548 -0.852329 0
M  V30 14777 H 1357.35 -0.841344 -0.436858 0
M  V30 14778 H 1357.06 -2.80425 -2.12261 0
M  V30 14779 H 1356.93 -1.61646 -3.40809 0
M  V30 14780 H 1359.32 -0.803825 -2.83941 0
M  V30 14781 H 1359.4 -2.02562 -1.56212 0
M  V30 14782 H 1359.05 -3.84867 -3.3142 0
M  V30 14783 H 1358.98 -2.59771 -4.58069 0
M  V30 14784 H 1361.47 -2.20457 -3.06932 0
M  V30 14785 H 1361.78 -5.00139 -5.89135 0
M  V30 14786 H 1360.13 -4.49259 -5.30275 0
M  V30 14787 H 1363.32 -2.79876 -3.75216 0
M  V30 14788 H 1363.49 -4.07396 -5.03917 0
M  V30 14789 N 1356.9 1.35099 -0.81154 0
M  V30 14790 C 1358.12 2.03391 -0.405805 0
M  V30 14791 C 1358.55 1.60745 0.97686 0
M  V30 14792 O 1357.9 0.786518 1.63351 0
M  V30 14793 C 1357.95 3.57075 -0.502954 0
M  V30 14794 O 1357.06 4.09577 0.481681 0
M  V30 14795 H 1356.4 0.642203 -0.168733 0
M  V30 14796 H 1358.93 1.72591 -1.0988 0
M  V30 14797 H 1358.94 4.06277 -0.37456 0
M  V30 14798 H 1357.61 3.87463 -1.51145 0
M  V30 14799 H 1356.19 3.71583 0.313115 0
M  V30 14800 N 1358.37 0.56548 1.47106 0
M  V30 14801 C 1359.32 -0.190542 2.31818 0
M  V30 14802 C 1360.32 -0.901279 1.43434 0
M  V30 14803 O 1361.52 -0.821625 1.60154 0
M  V30 14804 H 1357.9 -0.0803183 0.747698 0
M  V30 14805 H 1359.87 0.542999 2.93418 0
M  V30 14806 C 1358.62 -1.20208 3.2626 0
M  V30 14807 H 1357.94 -0.664608 3.94237 0
M  V30 14808 H 1359.38 -1.7018 3.88349 0
M  V30 14809 C 1357.84 -2.25423 2.50372 0
M  V30 14810 O 1358.37 -3.3249 2.25418 0
M  V30 14811 N 1356.57 -1.9957 2.11235 0
M  V30 14812 H 1356.12 -1.12513 2.31729 0
M  V30 14813 H 1356.08 -2.70182 1.60777 0
M  V30 14814 N 1359.85 -1.54672 0.302354 0
M  V30 14815 C 1361.1 -1.99771 -0.305919 0
M  V30 14816 C 1361.42 -1.19225 -1.54306 0
M  V30 14817 O 1360.69 -0.288569 -1.93763 0
M  V30 14818 H 1359.27 -0.737934 -0.116026 0
M  V30 14819 H 1361.93 -1.90452 0.413997 0
M  V30 14820 H 1361.03 -3.06719 -0.577024 0
M  V30 14821 N 1361.33 -0.0301034 -1.57571 0
M  V30 14822 C 1362.75 0.326296 -1.56229 0
M  V30 14823 C 1362.95 1.72839 -1.03581 0
M  V30 14824 O 1362 2.43088 -0.682979 0
M  V30 14825 C 1363.32 0.174001 -3.00196 0
M  V30 14826 C 1364.86 0.246694 -3.12026 0
M  V30 14827 C 1365.34 0.123177 -4.57834 0
M  V30 14828 N 1366.83 0.180129 -4.6285 0
M  V30 14829 C 1367.56 0.108353 -5.73298 0
M  V30 14830 N 1367.06 -0.0145648 -6.92798 0
M  V30 14831 N 1368.85 0.162411 -5.61865 0
M  V30 14832 H 1361 -0.946945 -1.90123 0
M  V30 14833 H 1363.27 -0.365762 -0.874598 0
M  V30 14834 H 1362.97 -0.791871 -3.42669 0
M  V30 14835 H 1362.85 0.943794 -3.65202 0
M  V30 14836 H 1365.23 1.20303 -2.69465 0
M  V30 14837 H 1365.32 -0.553493 -2.4974 0
M  V30 14838 H 1364.96 -0.82974 -5.01077 0
M  V30 14839 H 1364.89 0.94224 -5.18102 0
M  V30 14840 H 1367.38 0.275236 -3.76896 0
M  V30 14841 H 1367.69 -0.062614 -7.72775 0
M  V30 14842 H 1366.04 -0.0493606 -6.94982 0
M  V30 14843 H 1369.23 0.256847 -4.67395 0
M  V30 14844 H 1369.4 0.103013 -6.47918 0
M  V30 14845 N 1362.81 1.55714 0.243056 0
M  V30 14846 C 1363.76 1.87031 1.30397 0
M  V30 14847 C 1364.74 0.731497 1.43311 0
M  V30 14848 O 1365.93 0.9935 1.46487 0
M  V30 14849 C 1363.06 2.17185 2.65868 0
M  V30 14850 C 1362.15 3.37403 2.56944 0
M  V30 14851 N 1362.54 4.56575 2.17653 0
M  V30 14852 C 1360.84 3.4059 2.87949 0
M  V30 14853 C 1361.54 5.38715 2.19455 0
M  V30 14854 N 1360.52 4.77875 2.59108 0
M  V30 14855 H 1364.32 2.76697 0.990755 0
M  V30 14856 H 1361.83 1.55992 0.451675 0
M  V30 14857 H 1363.83 2.37787 3.42437 0
M  V30 14858 H 1362.49 1.28819 2.98053 0
M  V30 14859 H 1363.5 4.82129 1.89134 0
M  V30 14860 H 1360.18 2.62506 3.24648 0
M  V30 14861 H 1361.57 6.44066 1.91385 0
M  V30 14862 N 1364.29 -0.50888 1.49158 0
M  V30 14863 C 1365.22 -1.62008 1.68154 0
M  V30 14864 C 1366.2 -1.61624 0.53025 0
M  V30 14865 O 1367.38 -1.78489 0.765205 0
M  V30 14866 C 1364.51 -3.00525 1.74075 0
M  V30 14867 C 1363.47 -3.15773 2.88915 0
M  V30 14868 C 1362.79 -4.55562 2.79942 0
M  V30 14869 C 1364.09 -2.96542 4.29953 0
M  V30 14870 H 1365.79 -1.46365 2.61185 0
M  V30 14871 H 1363.33 -0.702705 1.2569 0
M  V30 14872 H 1365.29 -3.78154 1.8595 0
M  V30 14873 H 1364.01 -3.17238 0.776373 0
M  V30 14874 H 1362.67 -2.40567 2.76628 0
M  V30 14875 H 1362.32 -4.6914 1.81429 0
M  V30 14876 H 1362.02 -4.66706 3.57015 0
M  V30 14877 H 1363.54 -5.35262 2.93814 0
M  V30 14878 H 1364.95 -3.63947 4.42963 0
M  V30 14879 H 1363.35 -3.19164 5.08187 0
M  V30 14880 H 1364.42 -1.92745 4.44946 0
M  V30 14881 N 1365.76 -1.381 -0.759346 0
M  V30 14882 C 1366.71 -1.34866 -1.87296 0
M  V30 14883 C 1367.68 -0.212139 -1.6474 0
M  V30 14884 O 1368.87 -0.403464 -1.86485 0
M  V30 14885 C 1366.01 -1.17383 -3.24523 0
M  V30 14886 C 1365.12 -2.40372 -3.5895 0
M  V30 14887 C 1364.25 -2.15665 -4.8545 0
M  V30 14888 C 1363.29 -3.34455 -5.12646 0
M  V30 14889 N 1362.43 -3.0922 -6.30339 0
M  V30 14890 H 1367.27 -2.30072 -1.89396 0
M  V30 14891 H 1364.81 -1.14314 -0.925788 0
M  V30 14892 H 1366.77 -1.05264 -4.03702 0
M  V30 14893 H 1365.4 -0.258182 -3.21766 0
M  V30 14894 H 1364.45 -2.63185 -2.74659 0
M  V30 14895 H 1365.76 -3.28926 -3.74978 0
M  V30 14896 H 1364.91 -2.00649 -5.7256 0
M  V30 14897 H 1363.65 -1.24467 -4.7155 0
M  V30 14898 H 1362.66 -3.49997 -4.24007 0
M  V30 14899 H 1363.88 -4.26521 -5.28448 0
M  V30 14900 H 1361.83 -2.20664 -6.17773 0
M  V30 14901 H 1361.75 -3.91321 -6.46841 0
M  V30 14902 H 1363.01 -2.97847 -7.20352 0
M  V30 14903 N 1367.24 0.986894 -1.22875 0
M  V30 14904 C 1368.47 1.768 -1.08427 0
M  V30 14905 C 1368.89 1.84612 0.360555 0
M  V30 14906 O 1368.25 1.30299 1.26063 0
M  V30 14907 C 1368.3 3.17638 -1.70701 0
M  V30 14908 O 1367.4 4.00957 -0.964752 0
M  V30 14909 H 1366.74 0.544199 -0.380451 0
M  V30 14910 H 1369.27 1.23931 -1.62795 0
M  V30 14911 H 1369.28 3.68243 -1.75672 0
M  V30 14912 H 1367.96 3.11267 -2.75837 0
M  V30 14913 H 1366.54 3.59477 -0.991493 0
M  V30 14914 N 1368.72 1.0394 1.18466 0
M  V30 14915 C 1369.65 0.650182 2.24265 0
M  V30 14916 C 1370.63 -0.345968 1.66545 0
M  V30 14917 O 1371.82 -0.226348 1.92876 0
M  V30 14918 C 1368.95 0.0110451 3.47298 0
M  V30 14919 C 1367.9 0.930599 4.17761 0
M  V30 14920 C 1367.23 0.156005 5.34472 0
M  V30 14921 C 1368.53 2.24913 4.71393 0
M  V30 14922 H 1370.22 1.53465 2.57078 0
M  V30 14923 H 1367.77 0.739343 1.23571 0
M  V30 14924 H 1369.72 -0.272959 4.20515 0
M  V30 14925 H 1368.44 -0.908288 3.13716 0
M  V30 14926 H 1367.1 1.19897 3.4644 0
M  V30 14927 H 1366.75 -0.765695 4.97138 0
M  V30 14928 H 1366.45 0.768606 5.82551 0
M  V30 14929 H 1367.97 -0.121011 6.1048 0
M  V30 14930 H 1369.39 2.02592 5.36311 0
M  V30 14931 H 1367.79 2.81459 5.30001 0
M  V30 14932 H 1368.86 2.8965 3.88884 0
M  V30 14933 N 1370.2 -1.34667 0.818693 0
M  V30 14934 C 1371.61 -1.51436 0.503921 0
M  V30 14935 C 1371.81 -1.76468 -0.972691 0
M  V30 14936 O 1370.87 -1.81314 -1.75731 0
M  V30 14937 C 1372.18 -2.68198 1.35978 0
M  V30 14938 C 1373.73 -2.8208 1.35647 0
M  V30 14939 C 1374.21 -4.01881 2.19672 0
M  V30 14940 N 1375.7 -4.0908 2.17273 0
M  V30 14941 C 1376.43 -5.00925 2.79038 0
M  V30 14942 N 1375.93 -5.9802 3.49777 0
M  V30 14943 N 1377.72 -4.93764 2.68615 0
M  V30 14944 H 1369.87 -1.16677 1.77483 0
M  V30 14945 H 1372.14 -0.571873 0.756085 0
M  V30 14946 H 1371.84 -2.56317 2.4082 0
M  V30 14947 H 1371.72 -3.63105 1.0215 0
M  V30 14948 H 1374.1 -2.93405 0.315849 0
M  V30 14949 H 1374.18 -1.87994 1.7347 0
M  V30 14950 H 1373.83 -3.91316 3.23781 0
M  V30 14951 H 1373.76 -4.95171 1.79202 0
M  V30 14952 H 1376.25 -3.3958 1.65814 0
M  V30 14953 H 1376.56 -6.64722 3.94162 0
M  V30 14954 H 1374.91 -5.98157 3.53883 0
M  V30 14955 H 1378.1 -4.16868 2.12929 0
M  V30 14956 H 1378.27 -5.65147 3.17038 0
M  V30 14957 N 1371.68 -0.573274 -1.46804 0
M  V30 14958 C 1372.62 0.178246 -2.31916 0
M  V30 14959 C 1373.62 0.89366 -1.4391 0
M  V30 14960 O 1374.82 0.81312 -1.60588 0
M  V30 14961 H 1371.2 0.0763519 -0.748114 0
M  V30 14962 H 1373.17 -0.558552 -2.93126 0
M  V30 14963 C 1371.92 1.18476 -3.26892 0
M  V30 14964 H 1371.24 0.643691 -3.94584 0
M  V30 14965 H 1372.68 1.68118 -3.89246 0
M  V30 14966 C 1371.14 2.24092 -2.51564 0
M  V30 14967 O 1371.67 3.3129 -2.27178 0
M  V30 14968 N 1369.88 1.98447 -2.1229 0
M  V30 14969 H 1369.42 1.11283 -2.32323 0
M  V30 14970 H 1369.38 2.69325 -1.62207 0
M  V30 14971 N 1373.15 1.5451 -0.310553 0
M  V30 14972 C 1374.38 2.05204 0.301013 0
M  V30 14973 C 1374.8 1.1859 1.46007 0
M  V30 14974 O 1374.16 0.192081 1.8028 0
M  V30 14975 C 1374.21 3.53221 0.725767 0
M  V30 14976 O 1373.31 3.69596 1.82955 0
M  V30 14977 H 1372.66 0.661566 0.0568026 0
M  V30 14978 H 1375.19 1.99473 -0.455178 0
M  V30 14979 H 1375.2 3.9525 1.01198 0
M  V30 14980 H 1373.87 4.15721 -0.122046 0
M  V30 14981 H 1372.45 3.39472 1.54315 0
M  V30 14982 N 1374.63 0.0384594 1.57553 0
M  V30 14983 C 1375.56 -0.938444 2.13812 0
M  V30 14984 C 1376.54 -1.33307 1.05657 0
M  V30 14985 O 1377.73 -1.41003 1.33535 0
M  V30 14986 C 1374.86 -2.21764 2.67279 0
M  V30 14987 C 1373.81 -1.96347 3.80305 0
M  V30 14988 C 1373.14 -3.30612 4.20238 0
M  V30 14989 C 1374.44 -1.2952 5.05986 0
M  V30 14990 H 1376.13 -0.469887 2.9569 0
M  V30 14991 H 1373.68 -0.224576 1.42238 0
M  V30 14992 H 1375.63 -2.90493 3.05273 0
M  V30 14993 H 1374.36 -2.70802 1.82576 0
M  V30 14994 H 1373.02 -1.30033 3.42764 0
M  V30 14995 H 1372.66 -3.77427 3.32502 0
M  V30 14996 H 1372.36 -3.14409 4.96408 0
M  V30 14997 H 1373.89 -4.00594 4.60822 0
M  V30 14998 H 1375.3 -1.88264 5.41507 0
M  V30 14999 H 1373.7 -1.23685 5.87216 0
M  V30 15000 H 1374.77 -0.269439 4.84151 0
M  V30 15001 N 1376.11 -1.55841 -0.234795 0
M  V30 15002 C 1377.06 -1.91326 -1.29086 0
M  V30 15003 C 1378.03 -0.768868 -1.47233 0
M  V30 15004 O 1379.21 -1.0236 -1.61019 0
M  V30 15005 C 1376.35 -2.22388 -2.6389 0
M  V30 15006 C 1375.47 -3.49693 -2.5365 0
M  V30 15007 C 1374.6 -3.70267 -3.80889 0
M  V30 15008 C 1373.64 -4.91132 -3.65317 0
M  V30 15009 N 1372.78 -5.08163 -4.84474 0
M  V30 15010 H 1377.62 -2.81382 -0.981246 0
M  V30 15011 H 1375.15 -1.3928 -0.47324 0
M  V30 15012 H 1377.11 -2.38404 -3.42373 0
M  V30 15013 H 1375.74 -1.35521 -2.92974 0
M  V30 15014 H 1374.79 -3.41943 -1.66672 0
M  V30 15015 H 1376.11 -4.38326 -2.38059 0
M  V30 15016 H 1375.26 -3.86308 -4.67815 0
M  V30 15017 H 1374 -2.7989 -3.9939 0
M  V30 15018 H 1373 -4.75054 -2.76774 0
M  V30 15019 H 1374.23 -5.8298 -3.48298 0
M  V30 15020 H 1372.18 -4.20726 -5.03314 0
M  V30 15021 H 1372.09 -5.90904 -4.71559 0
M  V30 15022 H 1373.36 -5.28627 -5.72865 0
M  V30 15023 N 1377.59 0.500963 -1.49426 0
M  V30 15024 C 1378.82 1.27911 -1.62624 0
M  V30 15025 C 1379.23 1.86439 -0.297651 0
M  V30 15026 O 1378.59 1.67831 0.716879 0
M  V30 15027 C 1378.64 2.40934 -2.69505 0
M  V30 15028 O 1378.36 1.84811 -3.97211 0
M  V30 15029 C 1379.86 3.32305 -2.93408 0
M  V30 15030 H 1377.08 0.387951 -0.547481 0
M  V30 15031 H 1379.63 0.601372 -1.95458 0
M  V30 15032 H 1377.78 3.04537 -2.39449 0
M  V30 15033 H 1378.2 2.59011 -4.56085 0
M  V30 15034 H 1379.67 4.0789 -3.71927 0
M  V30 15035 H 1380.15 3.89301 -2.03325 0
M  V30 15036 H 1380.75 2.74467 -3.24881 0
M  V30 15037 N 1379.07 1.38501 0.752011 0
M  V30 15038 C 1380.48 1.19733 1.05529 0
M  V30 15039 C 1380.68 0.047088 2.01445 0
M  V30 15040 O 1379.74 -0.606645 2.45104 0
M  V30 15041 C 1381.05 2.52439 1.63386 0
M  V30 15042 C 1382.6 2.59136 1.7555 0
M  V30 15043 C 1383.08 3.92022 2.36819 0
M  V30 15044 N 1384.57 3.9357 2.44248 0
M  V30 15045 C 1385.3 4.93154 2.92553 0
M  V30 15046 N 1384.8 6.03135 3.40882 0
M  V30 15047 N 1386.59 4.80543 2.91607 0
M  V30 15048 H 1378.74 2.12085 0.115543 0
M  V30 15049 H 1381 0.941134 0.113888 0
M  V30 15050 H 1380.71 3.37072 1.00376 0
M  V30 15051 H 1380.58 2.70947 2.62427 0
M  V30 15052 H 1382.97 1.74897 2.37687 0
M  V30 15053 H 1383.05 2.44494 0.752092 0
M  V30 15054 H 1382.7 4.76684 1.75314 0
M  V30 15055 H 1382.63 4.03976 3.37803 0
M  V30 15056 H 1385.12 3.14133 2.10068 0
M  V30 15057 H 1385.43 6.7505 3.76201 0
M  V30 15058 H 1383.78 6.06752 3.38935 0
M  V30 15059 H 1386.97 3.93733 2.53163 0
M  V30 15060 H 1387.14 5.58303 3.28941 0
M  V30 15061 N 1380.55 -0.980364 1.23396 0
M  V30 15062 C 1381.49 -2.09401 1.01262 0
M  V30 15063 C 1382.49 -1.69331 -0.0483957 0
M  V30 15064 O 1383.69 -1.79693 0.105109 0
M  V30 15065 H 1380.07 -0.684969 0.310358 0
M  V30 15066 H 1382.04 -2.25236 1.95732 0
M  V30 15067 C 1380.79 -3.42118 0.620526 0
M  V30 15068 H 1380.11 -3.73402 1.42868 0
M  V30 15069 H 1381.55 -4.2098 0.505169 0
M  V30 15070 C 1380.01 -3.30146 -0.671208 0
M  V30 15071 O 1380.54 -3.62997 -1.72034 0
M  V30 15072 N 1378.75 -2.83303 -0.647137 0
M  V30 15073 H 1378.29 -2.56767 0.206957 0
M  V30 15074 H 1378.25 -2.75675 -1.51165 0
M  V30 15075 N 1382.02 -1.04567 -1.17913 0
M  V30 15076 C 1383.27 -0.753137 -1.88297 0
M  V30 15077 C 1383.6 0.717651 -1.80453 0
M  V30 15078 O 1382.88 1.5242 -1.20824 0
M  V30 15079 C 1383.16 -1.22626 -3.38578 0
M  V30 15080 C 1383.01 -2.75952 -3.55205 0
M  V30 15081 C 1384.33 -0.82029 -4.32388 0
M  V30 15082 H 1381.45 -0.275067 -0.683745 0
M  V30 15083 H 1384.09 -1.29856 -1.38699 0
M  V30 15084 H 1382.24 -0.762246 -3.80949 0
M  V30 15085 H 1383.92 -3.30429 -3.21892 0
M  V30 15086 H 1382.16 -3.15534 -2.97693 0
M  V30 15087 H 1382.83 -3.04116 -4.60671 0
M  V30 15088 H 1385.31 -1.21965 -3.97824 0
M  V30 15089 H 1384.18 -1.17902 -5.36088 0
M  V30 15090 H 1384.44 0.276205 -4.41236 0
M  V30 15091 N 1383.5 1.34231 -0.825823 0
M  V30 15092 C 1384.45 2.31378 -0.23809 0
M  V30 15093 C 1385.44 1.57537 0.622767 0
M  V30 15094 O 1386.65 1.72512 0.513783 0
M  V30 15095 H 1383.02 0.74974 -0.0582516 0
M  V30 15096 H 1385 2.78471 -1.07221 0
M  V30 15097 C 1383.74 3.42778 0.582969 0
M  V30 15098 H 1383.07 3.99739 -0.0701208 0
M  V30 15099 H 1384.51 4.12983 0.960266 0
M  V30 15100 C 1382.97 2.87486 1.75651 0
M  V30 15101 O 1383.5 2.82603 2.85479 0
M  V30 15102 N 1381.7 2.4427 1.57418 0
M  V30 15103 H 1381.25 2.48441 0.680792 0
M  V30 15104 H 1381.21 2.07626 2.36091 0
M  V30 15105 N 1384.98 0.581051 1.46498 0
M  V30 15106 C 1386.2 0.0696654 2.07283 0
M  V30 15107 C 1386.63 -1.22525 1.42721 0
M  V30 15108 O 1385.99 -1.73967 0.510421 0
M  V30 15109 C 1386.04 -0.0843864 3.60501 0
M  V30 15110 O 1385.14 -1.14129 3.96293 0
M  V30 15111 H 1384.48 0.0620572 0.661094 0
M  V30 15112 H 1387.01 0.803522 1.88161 0
M  V30 15113 H 1387.02 -0.29108 4.0696 0
M  V30 15114 H 1385.7 0.861274 4.06884 0
M  V30 15115 H 1384.27 -0.913186 3.61546 0
M  V30 15116 N 1386.46 -1.54343 0.318742 0
M  V30 15117 C 1387.39 -2.27118 -0.542206 0
M  V30 15118 C 1388.37 -1.27731 -1.12334 0
M  V30 15119 O 1389.55 -1.56535 -1.14937 0
M  V30 15120 C 1386.68 -3.02535 -1.70558 0
M  V30 15121 C 1385.64 -4.09218 -1.25398 0
M  V30 15122 C 1384.96 -4.72449 -2.50391 0
M  V30 15123 C 1386.26 -5.20971 -0.372332 0
M  V30 15124 H 1387.96 -2.9933 0.0648226 0
M  V30 15125 H 1385.5 -1.43963 0.0326168 0
M  V30 15126 H 1387.46 -3.52174 -2.31412 0
M  V30 15127 H 1386.18 -2.27931 -2.33912 0
M  V30 15128 H 1384.84 -3.60455 -0.668392 0
M  V30 15129 H 1384.49 -3.94466 -3.12099 0
M  V30 15130 H 1384.19 -5.4451 -2.20868 0
M  V30 15131 H 1385.71 -5.2486 -3.12016 0
M  V30 15132 H 1387.13 -5.66396 -0.887029 0
M  V30 15133 H 1385.52 -5.99859 -0.17009 0
M  V30 15134 H 1386.59 -4.81198 0.598064 0
M  V30 15135 N 1387.94 -0.0468143 -1.5753 0
M  V30 15136 C 1388.88 0.929065 -2.11275 0
M  V30 15137 C 1389.85 1.31166 -1.01905 0
M  V30 15138 O 1391.04 1.40189 -1.29428 0
M  V30 15139 C 1388.18 2.20012 -2.65873 0
M  V30 15140 C 1387.29 1.8724 -3.89314 0
M  V30 15141 C 1386.43 3.08772 -4.32242 0
M  V30 15142 C 1385.46 2.719 -5.48395 0
M  V30 15143 N 1384.6 3.86112 -5.86397 0
M  V30 15144 H 1389.44 0.463854 -2.94368 0
M  V30 15145 H 1386.98 0.217338 -1.45486 0
M  V30 15146 H 1388.94 2.94383 -2.95626 0
M  V30 15147 H 1387.57 2.64118 -1.85584 0
M  V30 15148 H 1386.62 1.03037 -3.6618 0
M  V30 15149 H 1387.93 1.56096 -4.73746 0
M  V30 15150 H 1387.08 3.91446 -4.63525 0
M  V30 15151 H 1385.82 3.4309 -3.46613 0
M  V30 15152 H 1384.83 1.87642 -5.16789 0
M  V30 15153 H 1386.05 2.38779 -6.35737 0
M  V30 15154 H 1384 4.2024 -5.03721 0
M  V30 15155 H 1383.92 3.58652 -6.65511 0
M  V30 15156 H 1385.18 4.69438 -6.22293 0
M  V30 15157 N 1389.41 1.55964 0.226527 0
M  V30 15158 C 1390.32 1.95169 1.30178 0
M  V30 15159 C 1391.34 0.854831 1.51554 0
M  V30 15160 O 1392.52 1.15798 1.64781 0
M  V30 15161 C 1389.58 2.25612 2.63249 0
M  V30 15162 C 1388.64 3.4884 2.50219 0
M  V30 15163 C 1387.88 3.77822 3.76944 0
M  V30 15164 O 1388.1 3.08556 4.79739 0
M  V30 15165 O 1387.03 4.7132 3.74354 0
M  V30 15166 H 1390.86 2.86794 0.999145 0
M  V30 15167 H 1388.44 1.43109 0.42898 0
M  V30 15168 H 1390.33 2.4641 3.41848 0
M  V30 15169 H 1389 1.37162 2.93203 0
M  V30 15170 H 1387.91 3.33326 1.69836 0
M  V30 15171 H 1389.24 4.37657 2.25205 0
M  V30 15172 N 1390.89 -0.493031 1.4969 0
M  V30 15173 C 1392.17 -1.25436 1.50084 0
M  V30 15174 C 1392.55 -2.0981 0.233038 0
M  V30 15175 O 1391.9 -2.14617 -0.784342 0
M  V30 15176 C 1392.11 -2.10425 2.78428 0
M  V30 15177 C 1393.46 -2.69349 3.28232 0
M  V30 15178 O 1394.48 -2.20686 2.796 0
M  V30 15179 O 1393.34 -3.57956 4.12953 0
M  V30 15180 H 1390.43 -0.568044 0.601045 0
M  V30 15181 H 1392.98 -0.506648 1.6196 0
M  V30 15182 H 1391.75 -1.48108 3.62187 0
M  V30 15183 H 1391.37 -2.92374 2.6945 0
M  V30 15184 N 1392.37 -1.38898 -0.744656 0
M  V30 15185 C 1393.28 -1.39098 -1.88915 0
M  V30 15186 C 1394.3 -0.286956 -1.71617 0
M  V30 15187 O 1395.47 -0.526852 -1.94387 0
M  V30 15188 C 1392.54 -1.22352 -3.24393 0
M  V30 15189 C 1391.6 -2.4264 -3.54153 0
M  V30 15190 C 1390.83 -2.26683 -4.83167 0
M  V30 15191 O 1391.05 -1.26523 -5.56191 0
M  V30 15192 O 1389.99 -3.15464 -5.12607 0
M  V30 15193 H 1393.81 -2.35551 -1.91701 0
M  V30 15194 H 1391.4 -1.19911 -0.891158 0
M  V30 15195 H 1393.28 -1.15109 -4.05374 0
M  V30 15196 H 1391.96 -0.289886 -3.22399 0
M  V30 15197 H 1390.86 -2.55459 -2.73298 0
M  V30 15198 H 1392.2 -3.34664 -3.60917 0
M  V30 15199 N 1393.85 0.973806 -1.23914 0
M  V30 15200 C 1394.76 2.10138 -1.04304 0
M  V30 15201 C 1395.77 1.73994 0.0143888 0
M  V30 15202 O 1396.95 2.00572 -0.182481 0
M  V30 15203 C 1394.02 3.40673 -0.643639 0
M  V30 15204 C 1393.08 3.90802 -1.77686 0
M  V30 15205 C 1392.31 5.15108 -1.39642 0
M  V30 15206 O 1392.53 5.69695 -0.283546 0
M  V30 15207 O 1391.47 5.59468 -2.21988 0
M  V30 15208 H 1395.29 2.29574 -1.9882 0
M  V30 15209 H 1392.88 1.08524 -1.02679 0
M  V30 15210 H 1394.76 4.19178 -0.432145 0
M  V30 15211 H 1393.43 3.22551 0.272458 0
M  V30 15212 H 1392.34 3.13385 -2.04305 0
M  V30 15213 H 1393.67 4.1339 -2.67151 0
M  V30 15214 N 1395.33 1.05191 1.17357 0
M  V30 15215 C 1396.26 0.673931 2.23563 0
M  V30 15216 C 1397.24 -0.328284 1.66902 0
M  V30 15217 O 1398.42 -0.205878 1.93106 0
M  V30 15218 C 1395.55 0.0478801 3.47267 0
M  V30 15219 C 1394.51 0.974855 4.1675 0
M  V30 15220 C 1393.83 0.212684 5.34277 0
M  V30 15221 C 1395.13 2.299 4.68981 0
M  V30 15222 H 1396.83 1.56183 2.55436 0
M  V30 15223 H 1394.37 0.752408 1.2278 0
M  V30 15224 H 1396.33 -0.228343 4.20781 0
M  V30 15225 H 1395.05 -0.874963 3.14662 0
M  V30 15226 H 1393.71 1.23564 3.45148 0
M  V30 15227 H 1393.36 -0.712924 4.97922 0
M  V30 15228 H 1393.06 0.830351 5.81703 0
M  V30 15229 H 1394.58 -0.056255 6.10574 0
M  V30 15230 H 1395.99 2.08269 5.34132 0
M  V30 15231 H 1394.39 2.87064 5.26986 0
M  V30 15232 H 1395.46 2.93759 3.8579 0
M  V30 15233 N 1396.8 -1.33791 0.83293 0
M  V30 15234 C 1398.05 -1.98266 0.426412 0
M  V30 15235 C 1398.38 -1.65848 -1.01035 0
M  V30 15236 O 1397.66 -0.93528 -1.70537 0
M  V30 15237 C 1397.94 -3.54356 0.640586 0
M  V30 15238 C 1397.79 -3.96482 2.12419 0
M  V30 15239 C 1399.11 -4.40022 0.0829237 0
M  V30 15240 H 1396.23 -0.720213 0.156404 0
M  V30 15241 H 1398.87 -1.58527 1.04735 0
M  V30 15242 H 1397.02 -3.88338 0.11204 0
M  V30 15243 H 1398.7 -3.72786 2.71714 0
M  V30 15244 H 1396.94 -3.46429 2.61092 0
M  V30 15245 H 1397.61 -5.05179 2.22482 0
M  V30 15246 H 1400.09 -4.12651 0.534634 0
M  V30 15247 H 1398.96 -5.48272 0.262511 0
M  V30 15248 H 1399.22 -4.30341 -1.01287 0
M  V30 15249 N 1398.28 -0.588812 -1.46187 0
M  V30 15250 C 1399.23 0.140932 -2.30369 0
M  V30 15251 C 1400.2 0.878216 -1.40984 0
M  V30 15252 O 1401.38 0.867678 -1.69929 0
M  V30 15253 C 1398.52 1.14468 -3.25563 0
M  V30 15254 C 1397.64 0.410215 -4.30048 0
M  V30 15255 C 1396.77 1.40203 -5.12364 0
M  V30 15256 C 1395.81 0.65431 -6.08593 0
M  V30 15257 N 1394.95 1.59448 -6.83755 0
M  V30 15258 H 1399.79 -0.582976 -2.92242 0
M  V30 15259 H 1397.33 -0.299302 -1.44023 0
M  V30 15260 H 1399.28 1.73957 -3.79203 0
M  V30 15261 H 1397.91 1.83623 -2.65485 0
M  V30 15262 H 1396.97 -0.299822 -3.79217 0
M  V30 15263 H 1398.28 -0.174043 -4.98496 0
M  V30 15264 H 1397.43 2.06953 -5.70312 0
M  V30 15265 H 1396.17 2.02022 -4.4389 0
M  V30 15266 H 1395.18 -0.0269371 -5.49793 0
M  V30 15267 H 1396.4 0.0414285 -6.79087 0
M  V30 15268 H 1394.35 2.20066 -6.17986 0
M  V30 15269 H 1394.26 1.06318 -7.48487 0
M  V30 15270 H 1395.53 2.25215 -7.46256 0
M  V30 15271 N 1399.76 1.54172 -0.326923 0
M  V30 15272 C 1401.01 2.00233 0.274098 0
M  V30 15273 C 1401.33 1.21665 1.5239 0
M  V30 15274 O 1400.6 0.319359 1.93279 0
M  V30 15275 H 1399.18 0.739687 0.104271 0
M  V30 15276 H 1401.84 1.8977 -0.444244 0
M  V30 15277 H 1400.94 3.07599 0.528154 0
M  V30 15278 N 1401.24 0.0551678 1.57503 0
M  V30 15279 C 1402.17 -0.947102 2.08717 0
M  V30 15280 C 1403.18 -1.2722 1.01582 0
M  V30 15281 O 1404.37 -1.23229 1.29139 0
M  V30 15282 C 1401.47 -2.26756 2.51863 0
M  V30 15283 C 1400.65 -2.12378 3.8238 0
M  V30 15284 C 1399.7 -3.27582 4.11797 0
M  V30 15285 O 1398.73 -3.03309 4.81656 0
M  V30 15286 N 1399.93 -4.5218 3.64024 0
M  V30 15287 H 1402.7 -0.509957 2.9533 0
M  V30 15288 H 1400.26 -0.130976 1.61369 0
M  V30 15289 H 1402.25 -3.02701 2.68616 0
M  V30 15290 H 1400.82 -2.62024 1.70477 0
M  V30 15291 H 1400.04 -1.21 3.7517 0
M  V30 15292 H 1401.33 -2.00003 4.67842 0
M  V30 15293 H 1400.73 -4.7479 3.07556 0
M  V30 15294 H 1399.28 -5.25206 3.86008 0
M  V30 15295 N 1402.72 -1.56081 -0.218252 0
M  V30 15296 C 1403.66 -1.92684 -1.27049 0
M  V30 15297 C 1404.63 -0.784441 -1.46409 0
M  V30 15298 O 1405.82 -1.04062 -1.59924 0
M  V30 15299 C 1402.96 -2.25174 -2.61516 0
M  V30 15300 C 1402.07 -3.52364 -2.49927 0
M  V30 15301 C 1401.21 -3.74286 -3.7694 0
M  V30 15302 C 1400.25 -4.94979 -3.60087 0
M  V30 15303 N 1399.38 -5.13273 -4.79057 0
M  V30 15304 H 1404.22 -2.82406 -0.951347 0
M  V30 15305 H 1401.76 -1.39774 -0.458441 0
M  V30 15306 H 1403.72 -2.42022 -3.39825 0
M  V30 15307 H 1402.35 -1.38621 -2.9152 0
M  V30 15308 H 1401.4 -3.43691 -1.63036 0
M  V30 15309 H 1402.71 -4.40826 -2.33397 0
M  V30 15310 H 1401.87 -3.91248 -4.63692 0
M  V30 15311 H 1400.6 -2.84111 -3.96399 0
M  V30 15312 H 1399.61 -4.77963 -2.71719 0
M  V30 15313 H 1400.83 -5.86641 -3.42095 0
M  V30 15314 H 1398.78 -4.26041 -4.98824 0
M  V30 15315 H 1398.7 -5.95873 -4.65265 0
M  V30 15316 H 1399.97 -5.34673 -5.67226 0
M  V30 15317 N 1404.2 0.485086 -1.49949 0
M  V30 15318 C 1405.13 1.59312 -1.7071 0
M  V30 15319 C 1406.11 1.6076 -0.555896 0
M  V30 15320 O 1407.29 1.77249 -0.793504 0
M  V30 15321 C 1404.42 2.97718 -1.78834 0
M  V30 15322 C 1403.38 3.11136 -2.93902 0
M  V30 15323 C 1402.7 4.51051 -2.87154 0
M  V30 15324 C 1404 2.89665 -4.34617 0
M  V30 15325 H 1405.7 1.42192 -2.6348 0
M  V30 15326 H 1403.24 0.68262 -1.26792 0
M  V30 15327 H 1405.19 3.75148 -1.91943 0
M  V30 15328 H 1403.92 3.15963 -0.826744 0
M  V30 15329 H 1402.58 2.36135 -2.80421 0
M  V30 15330 H 1402.23 4.66195 -1.88869 0
M  V30 15331 H 1401.93 4.60967 -3.64394 0
M  V30 15332 H 1403.45 5.3052 -3.02293 0
M  V30 15333 H 1404.86 3.56853 -4.48697 0
M  V30 15334 H 1403.26 3.11039 -5.13201 0
M  V30 15335 H 1404.33 1.85642 -4.47956 0
M  V30 15336 N 1405.67 1.39291 0.737279 0
M  V30 15337 C 1406.92 1.35702 1.49224 0
M  V30 15338 C 1407.24 -0.0450282 1.95548 0
M  V30 15339 O 1408.44 -0.203495 2.70736 0
M  V30 15340 C 1406.9 2.38387 2.69629 0
M  V30 15341 C 1406.51 3.84295 2.30263 0
M  V30 15342 C 1408.25 2.4387 3.47459 0
M  V30 15343 C 1406.16 4.78626 3.47377 0
M  V30 15344 H 1405.09 0.50449 0.560362 0
M  V30 15345 H 1407.74 1.64926 0.804466 0
M  V30 15346 H 1406.12 2.0223 3.40469 0
M  V30 15347 H 1407.29 4.2948 1.66984 0
M  V30 15348 H 1405.61 3.82085 1.6553 0
M  V30 15349 H 1408.21 3.11539 4.34566 0
M  V30 15350 H 1408.55 1.46253 3.89764 0
M  V30 15351 H 1409.08 2.78908 2.83646 0
M  V30 15352 H 1405.82 5.77497 3.10124 0
M  V30 15353 H 1405.34 4.38123 4.09645 0
M  V30 15354 H 1407.02 4.9742 4.13742 0
M  V30 15355 N 1407.15 -0.967221 1.24429 0
M  V30 15356 C 1408.1 -2.06187 1.03709 0
M  V30 15357 C 1409.07 -1.66025 -0.0497665 0
M  V30 15358 O 1410.25 -1.90511 0.104951 0
M  V30 15359 C 1407.39 -3.38952 0.648477 0
M  V30 15360 C 1406.51 -3.92306 1.80886 0
M  V30 15361 C 1405.64 -5.13342 1.36579 0
M  V30 15362 C 1404.68 -5.58893 2.49609 0
M  V30 15363 N 1403.82 -6.71148 2.06165 0
M  V30 15364 H 1408.66 -2.23244 1.97399 0
M  V30 15365 H 1406.19 -1.09415 0.983192 0
M  V30 15366 H 1408.15 -4.15237 0.40419 0
M  V30 15367 H 1406.78 -3.21819 -0.25142 0
M  V30 15368 H 1405.83 -3.12656 2.1668 0
M  V30 15369 H 1407.15 -4.22071 2.65815 0
M  V30 15370 H 1406.3 -5.97003 1.0804 0
M  V30 15371 H 1405.04 -4.85262 0.487051 0
M  V30 15372 H 1404.04 -4.73805 2.78906 0
M  V30 15373 H 1405.27 -5.88987 3.3804 0
M  V30 15374 H 1403.22 -6.44802 1.20691 0
M  V30 15375 H 1403.13 -7.00366 2.84647 0
M  V30 15376 H 1404.4 -7.5825 1.80769 0
M  V30 15377 N 1408.63 -1.05812 -1.16797 0
M  V30 15378 C 1409.58 -0.664599 -2.21024 0
M  V30 15379 C 1410.55 0.336352 -1.62659 0
M  V30 15380 O 1411.73 0.226346 -1.89453 0
M  V30 15381 C 1408.87 -0.0520739 -3.45061 0
M  V30 15382 C 1407.98 -1.10261 -4.17692 0
M  V30 15383 C 1407.12 -0.456746 -5.29233 0
M  V30 15384 C 1406.16 -1.49116 -5.93659 0
M  V30 15385 N 1405.3 -0.869002 -6.96701 0
M  V30 15386 H 1410.14 -1.55784 -2.54038 0
M  V30 15387 H 1407.67 -0.778993 -1.2478 0
M  V30 15388 H 1409.63 0.320552 -4.15967 0
M  V30 15389 H 1408.26 0.804592 -3.12612 0
M  V30 15390 H 1407.31 -1.593 -3.45438 0
M  V30 15391 H 1408.62 -1.88757 -4.61706 0
M  V30 15392 H 1407.78 -0.0308814 -6.06692 0
M  V30 15393 H 1406.52 0.360131 -4.86369 0
M  V30 15394 H 1405.52 -1.92697 -5.14925 0
M  V30 15395 H 1406.75 -2.31005 -6.38603 0
M  V30 15396 H 1404.69 -0.0727494 -6.5596 0
M  V30 15397 H 1404.61 -1.59141 -7.3906 0
M  V30 15398 H 1405.88 -0.46812 -7.78093 0
M  V30 15399 N 1410.11 1.33347 -0.840014 0
M  V30 15400 C 1411.02 2.32965 -0.276527 0
M  V30 15401 C 1412.03 1.634 0.598037 0
M  V30 15402 O 1413.21 1.95046 0.501888 0
M  V30 15403 C 1410.27 3.42498 0.53816 0
M  V30 15404 C 1409.34 4.27781 -0.360814 0
M  V30 15405 C 1408.57 5.32083 0.415085 0
M  V30 15406 O 1408.79 5.46115 1.64666 0
M  V30 15407 O 1407.73 6.01528 -0.211503 0
M  V30 15408 H 1411.55 2.83022 -1.10147 0
M  V30 15409 H 1409.14 1.3671 -0.602566 0
M  V30 15410 H 1411.02 4.09336 1.00108 0
M  V30 15411 H 1409.69 2.94655 1.34015 0
M  V30 15412 H 1408.6 3.63805 -0.871598 0
M  V30 15413 H 1409.93 4.7911 -1.1276 0
M  V30 15414 N 1411.59 0.596556 1.45873 0
M  V30 15415 C 1412.83 0.0874583 2.02311 0
M  V30 15416 C 1413.16 -1.27781 1.46636 0
M  V30 15417 O 1412.42 -1.85393 0.62674 0
M  V30 15418 C 1412.71 -0.0135714 3.57397 0
M  V30 15419 C 1412.38 1.28591 4.32175 0
M  V30 15420 C 1411.04 1.6419 4.52322 0
M  V30 15421 C 1413.39 2.14523 4.75005 0
M  V30 15422 C 1410.72 2.85493 5.12553 0
M  V30 15423 C 1413.07 3.35065 5.36577 0
M  V30 15424 C 1411.74 3.70929 5.54949 0
M  V30 15425 H 1411.01 0.0320033 0.740309 0
M  V30 15426 H 1413.66 0.775967 1.75074 0
M  V30 15427 H 1411.96 -0.785287 3.8385 0
M  V30 15428 H 1413.66 -0.423456 3.98758 0
M  V30 15429 H 1410.25 0.99881 4.16799 0
M  V30 15430 H 1414.43 1.88321 4.59183 0
M  V30 15431 H 1409.69 3.134 5.24967 0
M  V30 15432 H 1413.86 4.01909 5.6872 0
M  V30 15433 H 1411.49 4.65011 6.01389 0
M  V30 15434 N 1413.06 -1.53996 0.335095 0
M  V30 15435 C 1414.31 -1.99952 -0.264954 0
M  V30 15436 C 1414.63 -1.22696 -1.52332 0
M  V30 15437 O 1415.83 -1.59086 -2.20009 0
M  V30 15438 C 1414.29 -3.56085 -0.522667 0
M  V30 15439 C 1413.9 -4.42188 0.719314 0
M  V30 15440 C 1415.64 -4.10478 -1.08204 0
M  V30 15441 C 1413.55 -5.89814 0.432867 0
M  V30 15442 H 1412.48 -0.746962 -0.102782 0
M  V30 15443 H 1415.13 -1.77919 0.449111 0
M  V30 15444 H 1413.51 -3.7415 -1.29722 0
M  V30 15445 H 1414.68 -4.35898 1.49432 0
M  V30 15446 H 1413 -3.98743 1.19972 0
M  V30 15447 H 1415.6 -5.18375 -1.31116 0
M  V30 15448 H 1415.94 -3.63173 -2.03497 0
M  V30 15449 H 1416.47 -3.96091 -0.368395 0
M  V30 15450 H 1413.21 -6.41336 1.35529 0
M  V30 15451 H 1412.73 -5.99028 -0.304214 0
M  V30 15452 H 1414.41 -6.46983 0.0469657 0
M  V30 15453 N 1414.54 -0.0635198 -1.57472 0
M  V30 15454 C 1415.45 0.921531 -2.15743 0
M  V30 15455 C 1416.47 1.33294 -1.11842 0
M  V30 15456 O 1417.64 1.40733 -1.4407 0
M  V30 15457 C 1414.71 2.17378 -2.70088 0
M  V30 15458 C 1413.77 1.81956 -3.88832 0
M  V30 15459 C 1413 3.01211 -4.40577 0
M  V30 15460 O 1413.23 4.14971 -3.9135 0
M  V30 15461 O 1412.16 2.81507 -5.32012 0
M  V30 15462 H 1415.99 0.455899 -3.00259 0
M  V30 15463 H 1413.57 0.159085 -1.48551 0
M  V30 15464 H 1415.45 2.90826 -3.04956 0
M  V30 15465 H 1414.13 2.63055 -1.88637 0
M  V30 15466 H 1413.03 1.05786 -3.58832 0
M  V30 15467 H 1414.37 1.41069 -4.71551 0
M  V30 15468 N 1416.02 1.56195 0.209972 0
M  V30 15469 C 1417.25 1.8384 0.949228 0
M  V30 15470 C 1417.66 0.644141 1.77472 0
M  V30 15471 O 1417.02 -0.387276 1.78344 0
M  V30 15472 C 1417.07 3.10131 1.85745 0
M  V30 15473 O 1416.79 4.2495 1.06531 0
M  V30 15474 C 1418.29 3.50847 2.70963 0
M  V30 15475 H 1415.51 0.610856 0.277662 0
M  V30 15476 H 1418.06 2.03295 0.221708 0
M  V30 15477 H 1416.21 2.92618 2.53877 0
M  V30 15478 H 1416.63 4.96769 1.68287 0
M  V30 15479 H 1418.1 4.4222 3.30372 0
M  V30 15480 H 1418.58 2.73139 3.43936 0
M  V30 15481 H 1419.18 3.7084 2.08226 0
M  V30 15482 N 1417.5 -0.477127 1.50204 0
M  V30 15483 C 1418.75 -1.22722 1.60573 0
M  V30 15484 C 1419.07 -1.92595 0.305326 0
M  V30 15485 O 1418.34 -1.83836 -0.676842 0
M  V30 15486 H 1416.92 -0.455973 0.591691 0
M  V30 15487 H 1419.58 -0.550915 1.86952 0
M  V30 15488 H 1418.67 -1.97837 2.41385 0
M  V30 15489 N 1418.98 -1.3968 -0.729882 0
M  V30 15490 C 1419.92 -1.38808 -1.84393 0
M  V30 15491 C 1420.89 -0.247035 -1.64253 0
M  V30 15492 O 1422.08 -0.44293 -1.85588 0
M  V30 15493 C 1419.22 -1.2424 -3.2196 0
M  V30 15494 C 1418.33 -2.47932 -3.53771 0
M  V30 15495 C 1417.47 -2.25913 -4.80767 0
M  V30 15496 C 1416.51 -3.45254 -5.05436 0
M  V30 15497 N 1415.64 -3.2252 -6.23638 0
M  V30 15498 H 1420.48 -2.34038 -1.84473 0
M  V30 15499 H 1418.02 -1.16252 -0.901332 0
M  V30 15500 H 1419.98 -1.13804 -4.01378 0
M  V30 15501 H 1418.61 -0.326375 -3.21146 0
M  V30 15502 H 1417.66 -2.68952 -2.69015 0
M  V30 15503 H 1418.97 -3.36806 -3.67917 0
M  V30 15504 H 1418.13 -2.12748 -5.68175 0
M  V30 15505 H 1416.86 -1.34441 -4.68804 0
M  V30 15506 H 1415.87 -3.58912 -4.16488 0
M  V30 15507 H 1417.09 -4.37634 -5.19282 0
M  V30 15508 H 1415.04 -2.33718 -6.12953 0
M  V30 15509 H 1414.96 -4.04954 -6.38395 0
M  V30 15510 H 1416.23 -3.1306 -7.13872 0
M  V30 15511 N 1420.45 0.960609 -1.2494 0
M  V30 15512 C 1421.7 1.70701 -1.09495 0
M  V30 15513 C 1422.03 1.90754 0.364214 0
M  V30 15514 O 1421.31 1.47417 1.26879 0
M  V30 15515 C 1421.59 3.09353 -1.84317 0
M  V30 15516 C 1421.44 2.96747 -3.38026 0
M  V30 15517 C 1422.76 4.09139 -1.62153 0
M  V30 15518 H 1419.88 0.61955 -0.399158 0
M  V30 15519 H 1422.52 1.11701 -1.53698 0
M  V30 15520 H 1420.67 3.59719 -1.46746 0
M  V30 15521 H 1422.35 2.53752 -3.85237 0
M  V30 15522 H 1420.59 2.32798 -3.66043 0
M  V30 15523 H 1421.26 3.95002 -3.85587 0
M  V30 15524 H 1423.74 3.67659 -1.94849 0
M  V30 15525 H 1422.61 5.04206 -2.16951 0
M  V30 15526 H 1422.87 4.38521 -0.561437 0
M  V30 15527 N 1421.93 1.0643 1.16234 0
M  V30 15528 C 1422.88 0.676311 2.20669 0
M  V30 15529 C 1423.85 -0.327721 1.62835 0
M  V30 15530 O 1425.03 -0.216296 1.8957 0
M  V30 15531 C 1422.17 0.0703726 3.45028 0
M  V30 15532 C 1421.29 1.12475 4.17101 0
M  V30 15533 C 1420.42 0.484806 5.28983 0
M  V30 15534 C 1419.46 1.52262 5.9286 0
M  V30 15535 N 1418.6 0.905938 6.96231 0
M  V30 15536 H 1423.44 1.57129 2.53209 0
M  V30 15537 H 1420.98 0.7856 1.24365 0
M  V30 15538 H 1422.93 -0.298488 4.16131 0
M  V30 15539 H 1421.56 -0.788002 3.13034 0
M  V30 15540 H 1420.62 1.6113 3.44589 0
M  V30 15541 H 1421.93 1.91202 4.60698 0
M  V30 15542 H 1421.08 0.0630553 6.06667 0
M  V30 15543 H 1419.82 -0.334332 4.86553 0
M  V30 15544 H 1418.83 1.95425 5.13896 0
M  V30 15545 H 1420.05 2.34388 6.37369 0
M  V30 15546 H 1418 0.107536 6.55912 0
M  V30 15547 H 1417.91 1.63058 7.38206 0
M  V30 15548 H 1419.18 0.509378 7.77834 0
M  V30 15549 N 1423.41 -1.329 0.847073 0
M  V30 15550 C 1424.66 -1.9751 0.446755 0
M  V30 15551 C 1424.99 -1.67069 -0.995905 0
M  V30 15552 O 1424.24 -0.947232 -1.71248 0
M  V30 15553 C 1424.54 -3.51913 0.623845 0
M  V30 15554 C 1424.21 -4.02324 2.03583 0
M  V30 15555 C 1422.87 -4.15802 2.42203 0
M  V30 15556 C 1425.22 -4.29147 2.95774 0
M  V30 15557 C 1422.55 -4.53441 3.72301 0
M  V30 15558 C 1424.9 -4.68242 4.25362 0
M  V30 15559 C 1423.56 -4.79925 4.63927 0
M  V30 15560 H 1422.83 -0.722742 0.163479 0
M  V30 15561 H 1425.48 -1.58435 1.07567 0
M  V30 15562 H 1423.79 -3.917 -0.0883447 0
M  V30 15563 H 1425.48 -3.99919 0.294268 0
M  V30 15564 H 1422.07 -3.92314 1.72591 0
M  V30 15565 H 1426.26 -4.1825 2.67171 0
M  V30 15566 H 1421.51 -4.60681 4.01974 0
M  V30 15567 H 1425.69 -4.87952 4.96866 0
M  V30 15568 H 1423.31 -5.08847 5.64782 0
M  V30 15569 N 1424.89 -0.604284 -1.45555 0
M  V30 15570 C 1426.11 -0.102634 -2.07146 0
M  V30 15571 C 1426.54 1.20239 -1.44652 0
M  V30 15572 O 1425.9 1.73133 -0.538033 0
M  V30 15573 C 1425.94 0.0270231 -3.6059 0
M  V30 15574 O 1425.05 1.0781 -3.98059 0
M  V30 15575 H 1424.39 -0.0725667 -0.660023 0
M  V30 15576 H 1426.92 -0.833355 -1.86859 0
M  V30 15577 H 1426.93 0.226299 -4.07372 0
M  V30 15578 H 1425.6 -0.925896 -4.05463 0
M  V30 15579 H 1424.18 0.855552 -3.62953 0
M  V30 15580 N 1426.37 1.53816 -0.343257 0
M  V30 15581 C 1427.62 2.0009 0.254346 0
M  V30 15582 C 1427.93 1.23502 1.51679 0
M  V30 15583 O 1429.13 1.60251 2.19162 0
M  V30 15584 C 1427.59 3.56357 0.503775 0
M  V30 15585 C 1427.2 4.418 -0.742754 0
M  V30 15586 C 1428.94 4.11046 1.06025 0
M  V30 15587 C 1426.85 5.89576 -0.46414 0
M  V30 15588 H 1425.78 0.747496 0.0988189 0
M  V30 15589 H 1428.43 1.77679 -0.45854 0
M  V30 15590 H 1426.81 3.74833 1.27736 0
M  V30 15591 H 1427.99 4.35099 -1.51742 0
M  V30 15592 H 1426.3 3.98101 -1.22085 0
M  V30 15593 H 1428.9 5.19063 1.28365 0
M  V30 15594 H 1429.24 3.64247 2.01568 0
M  V30 15595 H 1429.77 3.9628 0.347384 0
M  V30 15596 H 1426.51 6.40608 -1.38928 0
M  V30 15597 H 1426.03 5.99181 0.272441 0
M  V30 15598 H 1427.71 6.46949 -0.0812761 0
M  V30 15599 N 1427.84 0.0718701 1.57436 0
M  V30 15600 C 1429.07 -0.605374 1.97532 0
M  V30 15601 C 1429.48 -1.6368 0.948974 0
M  V30 15602 O 1428.83 -1.83556 -0.0726987 0
M  V30 15603 C 1428.89 -1.33139 3.33937 0
M  V30 15604 C 1428.55 -0.453426 4.54745 0
M  V30 15605 C 1429.55 0.289012 5.19096 0
M  V30 15606 C 1427.23 -0.378282 5.00874 0
M  V30 15607 C 1429.23 1.09482 6.27927 0
M  V30 15608 C 1426.91 0.431192 6.09577 0
M  V30 15609 C 1427.91 1.16641 6.72966 0
M  V30 15610 O 1427.6 1.96253 7.79577 0
M  V30 15611 H 1427.33 -0.168804 0.654585 0
M  V30 15612 H 1429.89 0.140832 2.04917 0
M  V30 15613 H 1428.12 -2.12367 3.23167 0
M  V30 15614 H 1429.81 -1.90089 3.58638 0
M  V30 15615 H 1430.57 0.240552 4.84403 0
M  V30 15616 H 1426.45 -0.940166 4.51311 0
M  V30 15617 H 1429.99 1.66918 6.77336 0
M  V30 15618 H 1425.89 0.481217 6.43704 0
M  V30 15619 H 1426.66 1.88686 7.96455 0
M  V30 15620 N 1429.32 -1.56304 -0.201686 0
M  V30 15621 C 1430.25 -1.97046 -1.25281 0
M  V30 15622 C 1431.23 -0.841458 -1.47829 0
M  V30 15623 O 1432.42 -1.10529 -1.59678 0
M  V30 15624 C 1429.55 -2.30429 -2.59845 0
M  V30 15625 C 1428.5 -3.46006 -2.5192 0
M  V30 15626 C 1427.83 -3.65047 -3.90697 0
M  V30 15627 C 1429.13 -4.80391 -2.04992 0
M  V30 15628 H 1430.82 -2.85099 -0.914272 0
M  V30 15629 H 1428.37 -1.37166 -0.438359 0
M  V30 15630 H 1430.32 -2.57525 -3.33555 0
M  V30 15631 H 1429.05 -1.39251 -2.95426 0
M  V30 15632 H 1427.7 -3.18991 -1.80667 0
M  V30 15633 H 1427.35 -2.71211 -4.2362 0
M  V30 15634 H 1427.05 -4.42796 -3.86271 0
M  V30 15635 H 1428.58 -3.94512 -4.66039 0
M  V30 15636 H 1429.99 -5.06561 -2.68456 0
M  V30 15637 H 1428.39 -5.61563 -2.11582 0
M  V30 15638 H 1429.46 -4.74416 -1.00288 0
M  V30 15639 N 1430.8 0.469154 -1.50455 0
M  V30 15640 C 1431.71 1.59271 -1.7225 0
M  V30 15641 C 1432.73 1.63119 -0.605668 0
M  V30 15642 O 1433.9 1.80952 -0.884222 0
M  V30 15643 C 1430.97 2.95475 -1.81372 0
M  V30 15644 C 1430.03 3.02 -3.05114 0
M  V30 15645 C 1429.26 4.31707 -3.13791 0
M  V30 15646 O 1429.48 5.2232 -2.29211 0
M  V30 15647 O 1428.42 4.43864 -4.06532 0
M  V30 15648 H 1432.24 1.43804 -2.67496 0
M  V30 15649 H 1429.83 0.648855 -1.34574 0
M  V30 15650 H 1431.71 3.76367 -1.89541 0
M  V30 15651 H 1430.39 3.11136 -0.893094 0
M  V30 15652 H 1429.29 2.20178 -3.02444 0
M  V30 15653 H 1430.63 2.91275 -3.96761 0
M  V30 15654 N 1432.28 1.40065 0.722464 0
M  V30 15655 C 1433.51 1.41066 1.50944 0
M  V30 15656 C 1433.92 0.00678083 1.89199 0
M  V30 15657 O 1433.26 -0.977992 1.55502 0
M  V30 15658 C 1433.32 2.23127 2.81877 0
M  V30 15659 C 1432.99 3.7162 2.65984 0
M  V30 15660 C 1433.98 4.64415 2.33698 0
M  V30 15661 C 1431.67 4.15355 2.82463 0
M  V30 15662 C 1433.66 5.98928 2.18091 0
M  V30 15663 C 1431.35 5.49941 2.66474 0
M  V30 15664 C 1432.35 6.41542 2.34335 0
M  V30 15665 O 1432.03 7.73647 2.18461 0
M  V30 15666 H 1431.77 0.483321 0.472628 0
M  V30 15667 H 1434.32 1.84664 0.899356 0
M  V30 15668 H 1432.55 1.74298 3.45192 0
M  V30 15669 H 1434.24 2.16153 3.43559 0
M  V30 15670 H 1435.01 4.31924 2.20606 0
M  V30 15671 H 1430.88 3.44381 3.06468 0
M  V30 15672 H 1434.43 6.70391 1.92928 0
M  V30 15673 H 1430.33 5.82019 2.79149 0
M  V30 15674 H 1431.09 7.84507 2.33434 0
M  V30 15675 N 1433.76 -0.95397 1.25448 0
M  V30 15676 C 1434.69 -2.06828 1.08372 0
M  V30 15677 C 1435.67 -1.70098 -0.00741585 0
M  V30 15678 O 1436.85 -1.93521 0.16224 0
M  V30 15679 C 1433.98 -3.40124 0.702365 0
M  V30 15680 C 1432.94 -3.90865 1.74381 0
M  V30 15681 C 1432.26 -5.20663 1.21712 0
M  V30 15682 C 1433.56 -4.17169 3.14273 0
M  V30 15683 H 1435.26 -2.21372 2.01581 0
M  V30 15684 H 1432.8 -1.06374 0.970592 0
M  V30 15685 H 1434.76 -4.17529 0.569837 0
M  V30 15686 H 1433.48 -3.2552 -0.265428 0
M  V30 15687 H 1432.14 -3.15628 1.86479 0
M  V30 15688 H 1431.79 -5.02429 0.23954 0
M  V30 15689 H 1431.49 -5.55581 1.91319 0
M  V30 15690 H 1433.01 -6.00665 1.097 0
M  V30 15691 H 1434.43 -4.85231 3.05325 0
M  V30 15692 H 1432.82 -4.63344 3.81356 0
M  V30 15693 H 1433.89 -3.23421 3.61285 0
M  V30 15694 N 1435.24 -1.07045 -1.15668 0
M  V30 15695 C 1436.17 -0.645945 -2.1991 0
M  V30 15696 C 1437.18 0.29995 -1.60013 0
M  V30 15697 O 1438.37 0.0897537 -1.78274 0
M  V30 15698 C 1435.47 0.0721917 -3.38823 0
M  V30 15699 C 1434.64 -0.889103 -4.28268 0
M  V30 15700 C 1433.7 -0.208829 -5.25785 0
M  V30 15701 O 1432.73 -0.848894 -5.62834 0
M  V30 15702 N 1433.93 1.04671 -5.70985 0
M  V30 15703 H 1436.69 -1.54266 -2.56948 0
M  V30 15704 H 1434.26 -0.954736 -1.30753 0
M  V30 15705 H 1436.25 0.537882 -4.0111 0
M  V30 15706 H 1434.82 0.870805 -3.00226 0
M  V30 15707 H 1434.04 -1.53399 -3.63129 0
M  V30 15708 H 1435.33 -1.54097 -4.84904 0
M  V30 15709 H 1434.72 1.58673 -5.42991 0
M  V30 15710 H 1433.28 1.45613 -6.35327 0
M  V30 15711 N 1436.71 1.32449 -0.85411 0
M  V30 15712 C 1437.68 2.27183 -0.303377 0
M  V30 15713 C 1438.68 1.51582 0.536622 0
M  V30 15714 O 1439.87 1.70684 0.348211 0
M  V30 15715 C 1437 3.36086 0.570852 0
M  V30 15716 H 1438.19 2.77408 -1.1395 0
M  V30 15717 H 1435.74 1.43111 -0.628402 0
M  V30 15718 H 1436.48 2.91128 1.42881 0
M  V30 15719 H 1436.26 3.92088 -0.030399 0
M  V30 15720 H 1437.75 4.06675 0.948972 0
M  V30 15721 N 1438.19 0.611994 1.45232 0
M  V30 15722 C 1439.44 0.106467 2.01419 0
M  V30 15723 C 1439.75 -1.2723 1.48566 0
M  V30 15724 O 1440.96 -1.8708 1.96757 0
M  V30 15725 C 1439.42 0.139639 3.59629 0
M  V30 15726 C 1439.02 1.51853 4.21479 0
M  V30 15727 C 1440.77 -0.310417 4.23364 0
M  V30 15728 C 1438.67 1.50785 5.71855 0
M  V30 15729 H 1437.6 0.0360345 0.753138 0
M  V30 15730 H 1440.26 0.767974 1.66657 0
M  V30 15731 H 1438.64 -0.588606 3.91601 0
M  V30 15732 H 1439.81 2.26884 4.01074 0
M  V30 15733 H 1438.13 1.91105 3.69956 0
M  V30 15734 H 1440.72 -0.337656 5.33633 0
M  V30 15735 H 1441.07 -1.33398 3.94348 0
M  V30 15736 H 1441.6 0.364704 3.96125 0
M  V30 15737 H 1438.34 2.50916 6.05575 0
M  V30 15738 H 1437.86 0.800195 5.94438 0
M  V30 15739 H 1439.54 1.23341 6.35135 0
M  V30 15740 N 1439.67 -1.53632 0.351409 0
M  V30 15741 C 1440.92 -2.00643 -0.242208 0
M  V30 15742 C 1441.24 -1.24074 -1.50435 0
M  V30 15743 O 1440.51 -0.350067 -1.92747 0
M  V30 15744 H 1439.09 -0.741252 -0.0924904 0
M  V30 15745 H 1441.75 -1.89039 0.474379 0
M  V30 15746 H 1440.85 -3.084 -0.479151 0
M  V30 15747 N 1441.15 -0.0802183 -1.57396 0
M  V30 15748 C 1442.08 0.881426 -2.16225 0
M  V30 15749 C 1443.06 1.30459 -1.09154 0
M  V30 15750 O 1444.24 1.37413 -1.37227 0
M  V30 15751 C 1441.37 2.14599 -2.73065 0
M  V30 15752 C 1440.33 1.86195 -3.85377 0
M  V30 15753 C 1439.65 3.19354 -4.28856 0
M  V30 15754 C 1440.95 1.16059 -5.09242 0
M  V30 15755 H 1442.65 0.391325 -2.96832 0
M  V30 15756 H 1440.19 0.186785 -1.42783 0
M  V30 15757 H 1442.15 2.82297 -3.12868 0
M  V30 15758 H 1440.87 2.65866 -1.89691 0
M  V30 15759 H 1439.53 1.209 -3.46091 0
M  V30 15760 H 1439.18 3.68479 -3.42392 0
M  V30 15761 H 1438.88 3.01137 -5.04569 0
M  V30 15762 H 1440.4 3.88235 -4.71281 0
M  V30 15763 H 1441.82 1.7384 -5.46308 0
M  V30 15764 H 1440.21 1.08072 -5.90288 0
M  V30 15765 H 1441.28 0.14098 -4.84695 0
M  V30 15766 N 1442.63 1.56409 0.193394 0
M  V30 15767 C 1443.87 1.80724 0.913521 0
M  V30 15768 C 1444.2 0.653718 1.83185 0
M  V30 15769 O 1443.46 -0.360417 1.92353 0
M  V30 15770 C 1443.75 3.11039 1.76039 0
M  V30 15771 C 1443.42 4.39832 0.992892 0
M  V30 15772 C 1442.08 4.7482 0.780991 0
M  V30 15773 C 1444.43 5.19228 0.452985 0
M  V30 15774 C 1441.76 5.86697 0.0177286 0
M  V30 15775 C 1444.11 6.31902 -0.297075 0
M  V30 15776 C 1442.78 6.65472 -0.519977 0
M  V30 15777 H 1442.05 0.661315 0.334281 0
M  V30 15778 H 1444.7 1.90654 0.179786 0
M  V30 15779 H 1443 2.96353 2.56285 0
M  V30 15780 H 1444.7 3.27058 2.32022 0
M  V30 15781 H 1441.29 4.12376 1.16806 0
M  V30 15782 H 1445.47 4.9261 0.604092 0
M  V30 15783 H 1440.73 6.11178 -0.164925 0
M  V30 15784 H 1444.9 6.92639 -0.7228 0
M  V30 15785 H 1442.53 7.52004 -1.11331 0
M  V30 15786 N 1444.1 -0.461169 1.50702 0
M  V30 15787 C 1445.33 -1.24019 1.66235 0
M  V30 15788 C 1445.75 -1.84827 0.349388 0
M  V30 15789 O 1445.11 -1.67743 -0.687888 0
M  V30 15790 C 1445.16 -2.31743 2.76274 0
M  V30 15791 O 1444.26 -3.3664 2.38217 0
M  V30 15792 H 1443.6 -0.364424 0.55506 0
M  V30 15793 H 1446.13 -0.547636 1.97135 0
M  V30 15794 H 1446.14 -2.76902 2.99649 0
M  V30 15795 H 1444.82 -1.86858 3.7156 0
M  V30 15796 H 1443.4 -2.97123 2.25327 0
M  V30 15797 N 1445.58 -1.40446 -0.715026 0
M  V30 15798 C 1446.83 -1.38059 -1.47046 0
M  V30 15799 C 1447.14 0.0139125 -1.95595 0
M  V30 15800 O 1448.35 0.160398 -2.71026 0
M  V30 15801 C 1446.81 -2.42646 -2.65802 0
M  V30 15802 C 1446.41 -3.8791 -2.2412 0
M  V30 15803 C 1448.16 -2.49367 -3.43535 0
M  V30 15804 C 1446.06 -4.84092 -3.39719 0
M  V30 15805 H 1444.99 -0.513341 -0.552265 0
M  V30 15806 H 1447.65 -1.66185 -0.778126 0
M  V30 15807 H 1446.03 -2.07621 -3.37208 0
M  V30 15808 H 1447.2 -4.32082 -1.6013 0
M  V30 15809 H 1445.52 -3.8467 -1.5943 0
M  V30 15810 H 1448.11 -3.18414 -4.29554 0
M  V30 15811 H 1448.46 -1.52436 -3.87388 0
M  V30 15812 H 1448.99 -2.83386 -2.79173 0
M  V30 15813 H 1445.73 -5.82358 -3.00898 0
M  V30 15814 H 1445.25 -4.44584 -4.02623 0
M  V30 15815 H 1446.93 -5.03939 -4.05776 0
M  V30 15816 N 1447.06 0.947303 -1.25952 0
M  V30 15817 C 1448.31 1.69279 -1.11135 0
M  V30 15818 C 1448.63 1.9139 0.346407 0
M  V30 15819 O 1447.89 1.48786 1.27126 0
M  V30 15820 C 1448.19 3.07652 -1.81892 0
M  V30 15821 C 1447.85 3.05317 -3.31802 0
M  V30 15822 C 1446.52 3.04387 -3.72695 0
M  V30 15823 C 1448.87 2.98088 -4.27543 0
M  V30 15824 C 1446.2 2.93987 -5.07729 0
M  V30 15825 C 1448.55 2.89229 -5.62609 0
M  V30 15826 C 1447.21 2.86639 -6.02822 0
M  V30 15827 H 1446.48 0.619435 -0.40667 0
M  V30 15828 H 1449.13 1.10621 -1.56318 0
M  V30 15829 H 1447.43 3.69898 -1.29161 0
M  V30 15830 H 1449.13 3.6417 -1.67873 0
M  V30 15831 H 1445.72 3.06817 -2.99268 0
M  V30 15832 H 1449.91 2.9792 -3.96935 0
M  V30 15833 H 1445.16 2.90355 -5.38056 0
M  V30 15834 H 1449.34 2.82598 -6.36483 0
M  V30 15835 H 1446.96 2.78336 -7.07413 0
M  V30 15836 N 1448.54 1.07657 1.15099 0
M  V30 15837 C 1449.79 0.801609 1.85958 0
M  V30 15838 C 1450.11 -0.672415 1.82507 0
M  V30 15839 O 1449.37 -1.50958 1.2454 0
M  V30 15840 C 1449.67 1.25903 3.3449 0
M  V30 15841 C 1449.33 2.73954 3.58134 0
M  V30 15842 C 1448 3.14392 3.64296 0
M  V30 15843 C 1450.35 3.69502 3.67584 0
M  V30 15844 C 1447.68 4.49187 3.77422 0
M  V30 15845 C 1450.03 5.04063 3.82235 0
M  V30 15846 C 1448.69 5.44117 3.86643 0
M  V30 15847 H 1447.96 0.293329 0.68047 0
M  V30 15848 H 1450.61 1.34814 1.36005 0
M  V30 15849 H 1448.91 0.631943 3.8667 0
M  V30 15850 H 1450.61 1.02314 3.87728 0
M  V30 15851 H 1447.2 2.41652 3.53981 0
M  V30 15852 H 1451.38 3.39385 3.62121 0
M  V30 15853 H 1446.64 4.79685 3.79094 0
M  V30 15854 H 1450.81 5.7797 3.88489 0
M  V30 15855 H 1448.44 6.48567 3.96567 0
M  V30 15856 N 1450.02 -1.31994 0.861122 0
M  V30 15857 C 1451.27 -1.96294 0.463868 0
M  V30 15858 C 1451.58 -1.68869 -0.98704 0
M  V30 15859 O 1452.78 -2.26959 -1.49003 0
M  V30 15860 C 1451.24 -3.51377 0.77858 0
M  V30 15861 C 1450.85 -3.87653 2.24565 0
M  V30 15862 C 1452.59 -4.22115 0.449365 0
M  V30 15863 C 1450.5 -5.35809 2.50324 0
M  V30 15864 H 1449.43 -0.734647 0.169733 0
M  V30 15865 H 1452.08 -1.50294 1.0528 0
M  V30 15866 H 1450.46 -3.95821 0.119005 0
M  V30 15867 H 1451.64 -3.54197 2.94755 0
M  V30 15868 H 1449.95 -3.29957 2.54003 0
M  V30 15869 H 1452.55 -5.31103 0.61916 0
M  V30 15870 H 1452.89 -4.11814 -0.609528 0
M  V30 15871 H 1453.42 -3.83276 1.06511 0
M  V30 15872 H 1450.16 -5.51138 3.54863 0
M  V30 15873 H 1449.68 -5.70648 1.84719 0
M  V30 15874 H 1451.36 -6.02968 2.34602 0
M  V30 15875 N 1451.49 -0.619688 -1.44906 0
M  V30 15876 C 1452.74 -0.117147 -2.0136 0
M  V30 15877 C 1453.06 1.2644 -1.49239 0
M  V30 15878 O 1454.26 1.86034 -1.97747 0
M  V30 15879 C 1452.72 -0.15871 -3.5955 0
M  V30 15880 C 1452.33 -1.54086 -4.20668 0
M  V30 15881 C 1454.07 0.287961 -4.23522 0
M  V30 15882 C 1451.98 -1.53816 -5.71047 0
M  V30 15883 H 1450.91 -0.040028 -0.752937 0
M  V30 15884 H 1453.56 -0.776802 -1.66247 0
M  V30 15885 H 1451.94 0.56783 -3.91908 0
M  V30 15886 H 1453.11 -2.29007 -3.99865 0
M  V30 15887 H 1451.43 -1.93065 -3.68938 0
M  V30 15888 H 1454.03 0.309351 -5.33804 0
M  V30 15889 H 1454.37 1.31305 -3.9505 0
M  V30 15890 H 1454.9 -0.385707 -3.95926 0
M  V30 15891 H 1451.64 -2.54124 -6.04236 0
M  V30 15892 H 1451.16 -0.831708 -5.94006 0
M  V30 15893 H 1452.84 -1.26708 -6.34472 0
M  V30 15894 N 1452.97 1.53444 -0.359552 0
M  V30 15895 C 1453.9 2.28475 0.4818 0
M  V30 15896 C 1454.88 1.30664 1.08908 0
M  V30 15897 O 1456.07 1.59527 1.10746 0
M  V30 15898 C 1453.2 3.06951 1.62477 0
M  V30 15899 C 1452.15 4.12399 1.14504 0
M  V30 15900 C 1451.48 4.78922 2.37777 0
M  V30 15901 C 1452.78 5.21775 0.234075 0
M  V30 15902 H 1454.47 2.99053 -0.144162 0
M  V30 15903 H 1452.02 1.43826 -0.0707746 0
M  V30 15904 H 1453.97 3.58186 2.21993 0
M  V30 15905 H 1452.7 2.34053 2.27787 0
M  V30 15906 H 1451.35 3.62101 0.572589 0
M  V30 15907 H 1451 4.02602 3.0153 0
M  V30 15908 H 1450.7 5.50175 2.06353 0
M  V30 15909 H 1452.23 5.32948 2.97991 0
M  V30 15910 H 1453.64 5.68549 0.736548 0
M  V30 15911 H 1452.04 6.00099 0.0109887 0
M  V30 15912 H 1453.11 4.79443 -0.725435 0
M  V30 15913 N 1454.45 0.0885642 1.57351 0
M  V30 15914 C 1455.41 -0.858178 2.12528 0
M  V30 15915 C 1456.41 -1.21522 1.05304 0
M  V30 15916 O 1457.6 -1.14573 1.3122 0
M  V30 15917 C 1454.74 -2.15619 2.64048 0
M  V30 15918 H 1455.93 -0.37918 2.97493 0
M  V30 15919 H 1453.48 -0.160354 1.55475 0
M  V30 15920 H 1454.22 -2.68018 1.82584 0
M  V30 15921 H 1454 -1.90995 3.42437 0
M  V30 15922 H 1455.49 -2.83359 3.06753 0
M  V30 15923 N 1455.93 -1.56509 -0.185096 0
M  V30 15924 C 1457.18 -1.81206 -0.903924 0
M  V30 15925 C 1457.5 -0.663423 -1.82836 0
M  V30 15926 O 1456.76 0.350211 -1.92541 0
M  V30 15927 C 1457.06 -3.11968 -1.74387 0
M  V30 15928 C 1456.72 -4.40353 -0.969552 0
M  V30 15929 C 1455.39 -4.75227 -0.755799 0
M  V30 15930 C 1457.74 -5.19461 -0.425443 0
M  V30 15931 C 1455.07 -5.86698 0.0133856 0
M  V30 15932 C 1457.42 -6.31736 0.330582 0
M  V30 15933 C 1456.08 -6.65187 0.555262 0
M  V30 15934 H 1455.35 -0.663078 -0.330769 0
M  V30 15935 H 1458 -1.90747 -0.169673 0
M  V30 15936 H 1456.3 -2.97708 -2.5471 0
M  V30 15937 H 1458 -3.28284 -2.30284 0
M  V30 15938 H 1454.59 -4.1299 -1.14618 0
M  V30 15939 H 1458.77 -4.92923 -0.577959 0
M  V30 15940 H 1454.03 -6.11081 0.197335 0
M  V30 15941 H 1458.2 -6.92246 0.759523 0
M  V30 15942 H 1455.83 -7.51403 1.15318 0
M  V30 15943 N 1457.41 0.45317 -1.50944 0
M  V30 15944 C 1458.65 1.20568 -1.63068 0
M  V30 15945 C 1458.99 1.91229 -0.338375 0
M  V30 15946 O 1458.26 1.82916 0.661207 0
M  V30 15947 C 1458.54 2.23522 -2.8233 0
M  V30 15948 C 1458.4 1.57047 -4.21493 0
M  V30 15949 C 1459.72 3.24663 -2.97123 0
M  V30 15950 H 1456.83 0.436971 -0.593486 0
M  V30 15951 H 1459.48 0.497008 -1.83384 0
M  V30 15952 H 1457.63 2.83961 -2.65139 0
M  V30 15953 H 1459.3 1.00067 -4.50316 0
M  V30 15954 H 1457.54 0.873143 -4.24922 0
M  V30 15955 H 1458.21 2.31949 -5.00903 0
M  V30 15956 H 1460.69 2.74264 -3.12919 0
M  V30 15957 H 1459.56 3.9401 -3.82161 0
M  V30 15958 H 1459.83 3.89843 -2.08506 0
M  V30 15959 N 1458.88 1.40823 0.707568 0
M  V30 15960 C 1459.82 1.36132 1.83149 0
M  V30 15961 C 1460.8 0.230423 1.60959 0
M  V30 15962 O 1461.98 0.415391 1.83866 0
M  V30 15963 C 1459.11 1.12055 3.19627 0
M  V30 15964 C 1458.15 2.27703 3.6063 0
M  V30 15965 S 1458.99 3.90134 3.66818 0
M  V30 15966 C 1460.14 3.68336 5.06043 0
M  V30 15967 H 1460.37 2.31246 1.86849 0
M  V30 15968 H 1457.91 1.27204 0.875126 0
M  V30 15969 H 1459.87 0.988486 3.98421 0
M  V30 15970 H 1458.53 0.185809 3.1355 0
M  V30 15971 H 1457.72 2.06519 4.59746 0
M  V30 15972 H 1457.32 2.37254 2.89114 0
M  V30 15973 H 1459.61 3.27299 5.93196 0
M  V30 15974 H 1460.56 4.67012 5.32265 0
M  V30 15975 H 1460.96 3.01856 4.77015 0
M  V30 15976 N 1460.36 -0.94061 1.26453 0
M  V30 15977 C 1461.31 -2.06073 1.07873 0
M  V30 15978 C 1462.3 -1.69399 0.0055001 0
M  V30 15979 O 1463.51 -1.79267 0.162224 0
M  V30 15980 H 1459.89 -0.674748 0.331993 0
M  V30 15981 H 1461.86 -2.18895 2.02799 0
M  V30 15982 C 1460.61 -3.39971 0.729054 0
M  V30 15983 H 1459.93 -3.68667 1.54675 0
M  V30 15984 H 1461.37 -4.1916 0.638844 0
M  V30 15985 C 1459.83 -3.32114 -0.565835 0
M  V30 15986 O 1460.36 -3.68287 -1.60399 0
M  V30 15987 N 1458.56 -2.85218 -0.556679 0
M  V30 15988 H 1458.11 -2.55979 0.288541 0
M  V30 15989 H 1458.07 -2.80344 -1.42318 0
M  V30 15990 N 1461.84 -1.08266 -1.14527 0
M  V30 15991 C 1463.07 -0.832994 -1.89937 0
M  V30 15992 C 1463.49 0.608985 -1.77969 0
M  V30 15993 O 1462.85 1.42657 -1.11887 0
M  V30 15994 C 1462.9 -1.25782 -3.37952 0
M  V30 15995 O 1462 -0.408853 -4.10368 0
M  V30 15996 H 1461.34 -0.30267 -0.591005 0
M  V30 15997 H 1463.87 -1.44371 -1.44977 0
M  V30 15998 H 1463.88 -1.23804 -3.88763 0
M  V30 15999 H 1462.56 -2.30804 -3.4598 0
M  V30 16000 H 1461.13 -0.49192 -3.69641 0
M  V30 16001 N 1463.32 1.31536 -0.86811 0
M  V30 16002 C 1464.57 1.97066 -0.478829 0
M  V30 16003 C 1464.9 1.68469 0.966021 0
M  V30 16004 O 1464.17 0.980166 1.67997 0
M  V30 16005 C 1464.46 3.52533 -0.734313 0
M  V30 16006 C 1464.31 3.90711 -2.22856 0
M  V30 16007 C 1465.63 4.39647 -0.199559 0
M  V30 16008 H 1462.75 0.715813 -0.175444 0
M  V30 16009 H 1465.39 1.55694 -1.08901 0
M  V30 16010 H 1463.54 3.87905 -0.214962 0
M  V30 16011 H 1465.21 3.65451 -2.81502 0
M  V30 16012 H 1463.45 3.39385 -2.70185 0
M  V30 16013 H 1464.13 4.99103 -2.35797 0
M  V30 16014 H 1466.6 4.11088 -0.643853 0
M  V30 16015 H 1465.48 5.47383 -0.407783 0
M  V30 16016 H 1465.74 4.32875 0.898414 0
M  V30 16017 N 1464.8 0.627364 1.44575 0
M  V30 16018 C 1465.76 -0.0700881 2.29093 0
M  V30 16019 C 1466.76 -0.775969 1.40838 0
M  V30 16020 O 1467.95 -0.621129 1.6275 0
M  V30 16021 C 1465.08 -1.10977 3.2233 0
M  V30 16022 H 1466.28 0.673234 2.92246 0
M  V30 16023 H 1463.83 0.387322 1.51425 0
M  V30 16024 H 1464.56 -1.8832 2.64019 0
M  V30 16025 H 1464.35 -0.607587 3.87364 0
M  V30 16026 H 1465.84 -1.59764 3.8583 0
M  V30 16027 N 1466.28 -1.53251 0.367684 0
M  V30 16028 C 1467.52 -2.01287 -0.221351 0
M  V30 16029 C 1467.85 -1.25489 -1.48603 0
M  V30 16030 O 1467.11 -0.337392 -1.9277 0
M  V30 16031 C 1467.4 -3.53031 -0.557149 0
M  V30 16032 C 1467.07 -4.46708 0.613444 0
M  V30 16033 C 1465.73 -4.72036 0.934633 0
M  V30 16034 C 1468.08 -5.02112 1.3976 0
M  V30 16035 C 1465.41 -5.50021 2.04191 0
M  V30 16036 C 1467.76 -5.81306 2.49531 0
M  V30 16037 C 1466.43 -6.04921 2.82182 0
M  V30 16038 H 1465.7 -0.73656 -0.080998 0
M  V30 16039 H 1468.35 -1.84842 0.500581 0
M  V30 16040 H 1466.65 -3.67434 -1.36012 0
M  V30 16041 H 1468.35 -3.87674 -1.02519 0
M  V30 16042 H 1464.94 -4.27143 0.353075 0
M  V30 16043 H 1469.12 -4.82488 1.1627 0
M  V30 16044 H 1464.38 -5.66536 2.29884 0
M  V30 16045 H 1468.55 -6.23245 3.10707 0
M  V30 16046 H 1466.18 -6.65134 3.68104 0
M  V30 16047 N 1467.75 -0.0969077 -1.57302 0
M  V30 16048 C 1469 0.566072 -1.93594 0
M  V30 16049 C 1469.32 1.69226 -0.980922 0
M  V30 16050 O 1470.52 2.41651 -1.23763 0
M  V30 16051 C 1468.98 1.05832 -3.43988 0
M  V30 16052 C 1468.59 -0.038207 -4.47984 0
M  V30 16053 C 1470.33 1.69393 -3.89238 0
M  V30 16054 C 1468.24 0.4695 -5.89533 0
M  V30 16055 H 1467.17 0.215226 -0.72263 0
M  V30 16056 H 1469.82 -0.173202 -1.82681 0
M  V30 16057 H 1468.2 1.85134 -3.50059 0
M  V30 16058 H 1469.37 -0.813761 -4.53558 0
M  V30 16059 H 1467.69 -0.579113 -4.12353 0
M  V30 16060 H 1470.29 2.08454 -4.92393 0
M  V30 16061 H 1470.63 2.56381 -3.27986 0
M  V30 16062 H 1471.16 0.966709 -3.85875 0
M  V30 16063 H 1467.9 -0.363802 -6.5449 0
M  V30 16064 H 1467.42 1.21202 -5.87427 0
M  V30 16065 H 1469.1 0.937885 -6.40166 0
M  V30 16066 N 1469.23 1.56605 0.176793 0
M  V30 16067 C 1470.48 1.81324 0.892535 0
M  V30 16068 C 1470.8 0.67301 1.83018 0
M  V30 16069 O 1470.07 -0.307498 1.93472 0
M  V30 16070 H 1468.65 0.668881 0.332576 0
M  V30 16071 H 1471.31 1.94086 0.17792 0
M  V30 16072 H 1470.41 2.75168 1.47272 0
M  V30 16073 N 1470.71 -0.445159 1.51182 0
M  V30 16074 C 1471.93 -1.22249 1.67541 0
M  V30 16075 C 1472.36 -1.84446 0.368972 0
M  V30 16076 O 1471.72 -1.68463 -0.670058 0
M  V30 16077 C 1471.77 -2.288 2.78717 0
M  V30 16078 O 1470.87 -3.34094 2.41775 0
M  V30 16079 H 1470.21 -0.358516 0.558894 0
M  V30 16080 H 1472.74 -0.526696 1.97704 0
M  V30 16081 H 1472.75 -2.73708 3.02569 0
M  V30 16082 H 1471.43 -1.82906 3.73521 0
M  V30 16083 H 1470 -2.94717 2.28466 0
M  V30 16084 N 1472.19 -1.41197 -0.700089 0
M  V30 16085 C 1473.14 -1.42885 -1.83539 0
M  V30 16086 C 1474.13 -0.307431 -1.66587 0
M  V30 16087 O 1475.34 -0.479238 -1.73503 0
M  V30 16088 H 1471.71 -0.446973 -0.604747 0
M  V30 16089 H 1473.68 -2.38576 -1.79231 0
M  V30 16090 C 1472.43 -1.3235 -3.21526 0
M  V30 16091 H 1471.75 -2.17926 -3.35184 0
M  V30 16092 H 1473.19 -1.37592 -4.01054 0
M  V30 16093 C 1471.65 -0.0353528 -3.36881 0
M  V30 16094 O 1472.18 0.921676 -3.90983 0
M  V30 16095 N 1470.39 0.0392479 -2.90573 0
M  V30 16096 H 1469.94 -0.740299 -2.46733 0
M  V30 16097 H 1469.89 0.900559 -3.01226 0
M  V30 16098 N 1473.67 0.933891 -1.2695 0
M  V30 16099 C 1474.6 2.05078 -1.11649 0
M  V30 16100 C 1475.58 1.70089 -0.0196463 0
M  V30 16101 O 1476.76 1.93239 -0.193007 0
M  V30 16102 C 1473.89 3.38963 -0.756387 0
M  V30 16103 C 1472.85 3.88041 -1.80577 0
M  V30 16104 C 1472.17 5.18661 -1.2998 0
M  V30 16105 C 1473.47 4.12116 -3.2087 0
M  V30 16106 H 1475.17 2.18137 -2.05077 0
M  V30 16107 H 1472.71 1.04817 -0.987392 0
M  V30 16108 H 1474.66 4.1657 -0.63619 0
M  V30 16109 H 1473.39 3.25901 0.213607 0
M  V30 16110 H 1472.05 3.12622 -1.91477 0
M  V30 16111 H 1471.7 5.01985 -0.319442 0
M  V30 16112 H 1471.4 5.52467 -2.00134 0
M  V30 16113 H 1472.92 5.98844 -1.19242 0
M  V30 16114 H 1474.33 4.80312 -3.13006 0
M  V30 16115 H 1472.73 4.57218 -3.88679 0
M  V30 16116 H 1473.8 3.17633 -3.66384 0
M  V30 16117 N 1475.14 1.08871 1.13951 0
M  V30 16118 C 1476.39 0.832367 1.85589 0
M  V30 16119 C 1476.74 -0.635083 1.81616 0
M  V30 16120 O 1476.04 -1.46123 1.2393 0
M  V30 16121 C 1476.23 1.29443 3.33135 0
M  V30 16122 C 1476.06 2.80527 3.51475 0
M  V30 16123 C 1474.83 3.48334 3.66048 0
M  V30 16124 C 1477.03 3.78686 3.47996 0
M  V30 16125 N 1475.01 4.87901 3.72593 0
M  V30 16126 C 1476.38 5.04176 3.60842 0
M  V30 16127 C 1478.44 3.71623 3.31362 0
M  V30 16128 C 1477.14 6.23438 3.58772 0
M  V30 16129 C 1479.17 4.90366 3.30598 0
M  V30 16130 C 1478.53 6.14696 3.43989 0
M  V30 16131 H 1474.63 0.357365 0.695568 0
M  V30 16132 H 1477.21 1.38799 1.36539 0
M  V30 16133 H 1475.38 0.766326 3.80765 0
M  V30 16134 H 1477.11 0.984006 3.92555 0
M  V30 16135 H 1473.87 2.98755 3.67481 0
M  V30 16136 H 1474.29 5.60584 3.79571 0
M  V30 16137 H 1478.93 2.7643 3.19916 0
M  V30 16138 H 1476.65 7.18937 3.68993 0
M  V30 16139 H 1480.24 4.86593 3.18933 0
M  V30 16140 H 1479.12 7.05039 3.43351 0
M  V30 16141 N 1476.62 -1.31073 0.875073 0
M  V30 16142 C 1477.55 -2.30855 0.350468 0
M  V30 16143 C 1478.53 -1.60569 -0.561384 0
M  V30 16144 O 1479.72 -1.88242 -0.477329 0
M  V30 16145 C 1476.85 -3.44444 -0.444493 0
M  V30 16146 C 1475.8 -4.26357 0.374716 0
M  V30 16147 C 1475.13 -5.31903 -0.546243 0
M  V30 16148 C 1476.43 -4.96817 1.61153 0
M  V30 16149 H 1478.12 -2.74983 1.18427 0
M  V30 16150 H 1475.67 -1.32199 0.570909 0
M  V30 16151 H 1477.62 -4.13304 -0.82206 0
M  V30 16152 H 1476.34 -2.99096 -1.31185 0
M  V30 16153 H 1475 -3.59171 0.734295 0
M  V30 16154 H 1474.65 -4.82803 -1.41102 0
M  V30 16155 H 1474.35 -5.876 -0.00198173 0
M  V30 16156 H 1475.88 -6.03621 -0.920542 0
M  V30 16157 H 1477.29 -5.58247 1.30511 0
M  V30 16158 H 1475.69 -5.62334 2.09524 0
M  V30 16159 H 1476.76 -4.2351 2.36151 0
M  V30 16160 N 1478.1 -0.635022 -1.4424 0
M  V30 16161 C 1479.33 -0.146549 -2.06882 0
M  V30 16162 C 1479.75 1.17143 -1.4717 0
M  V30 16163 O 1479.11 1.71952 -0.574636 0
M  V30 16164 C 1479.16 -0.0494694 -3.60566 0
M  V30 16165 O 1478.26 0.993423 -4.00256 0
M  V30 16166 H 1477.6 -0.0865505 -0.658335 0
M  V30 16167 H 1480.13 -0.872803 -1.85049 0
M  V30 16168 H 1480.14 0.139839 -4.0776 0
M  V30 16169 H 1478.82 -1.01169 -4.03407 0
M  V30 16170 H 1477.39 0.778372 -3.64686 0
M  V30 16171 N 1479.58 1.53054 -0.375806 0
M  V30 16172 C 1480.54 2.24666 0.453608 0
M  V30 16173 C 1481.54 1.25816 1.00135 0
M  V30 16174 O 1482.73 1.50016 0.885481 0
M  V30 16175 C 1479.86 2.99131 1.63503 0
M  V30 16176 H 1481.06 2.994 -0.173172 0
M  V30 16177 H 1478.61 1.55778 -0.127673 0
M  V30 16178 H 1479.34 2.28666 2.29962 0
M  V30 16179 H 1479.13 3.71671 1.24913 0
M  V30 16180 H 1480.62 3.53542 2.22256 0
M  V30 16181 N 1481.06 0.105248 1.57248 0
M  V30 16182 C 1482.3 -0.550698 1.95803 0
M  V30 16183 C 1482.66 -1.65159 0.986933 0
M  V30 16184 O 1481.95 -1.91594 0.0146152 0
M  V30 16185 C 1482.14 -1.14178 3.38671 0
M  V30 16186 C 1481.97 -0.0996826 4.4959 0
M  V30 16187 C 1480.74 0.327365 5.04238 0
M  V30 16188 C 1482.94 0.676048 5.09837 0
M  V30 16189 N 1480.92 1.35667 5.98722 0
M  V30 16190 C 1482.29 1.55691 6.00134 0
M  V30 16191 C 1484.35 0.728451 4.92542 0
M  V30 16192 C 1483.05 2.48559 6.7499 0
M  V30 16193 C 1485.08 1.64478 5.68068 0
M  V30 16194 C 1484.44 2.51324 6.58039 0
M  V30 16195 H 1480.54 -0.171547 0.762952 0
M  V30 16196 H 1483.12 0.190175 1.93769 0
M  V30 16197 H 1481.29 -1.85243 3.41379 0
M  V30 16198 H 1483.03 -1.76092 3.64381 0
M  V30 16199 H 1479.78 -0.0623632 4.73559 0
M  V30 16200 H 1480.21 1.86983 6.50666 0
M  V30 16201 H 1484.85 0.0711612 4.2274 0
M  V30 16202 H 1482.57 3.15308 7.44047 0
M  V30 16203 H 1486.15 1.69059 5.56696 0
M  V30 16204 H 1485.03 3.21077 7.15457 0
M  V30 16205 N 1482.53 -1.56697 -0.168486 0
M  V30 16206 C 1483.76 -1.86292 -0.900152 0
M  V30 16207 C 1484.18 -0.690968 -1.75702 0
M  V30 16208 O 1483.53 0.339855 -1.79308 0
M  V30 16209 C 1483.59 -3.14946 -1.77457 0
M  V30 16210 O 1483.31 -4.27625 -0.952267 0
M  V30 16211 C 1484.81 -3.57908 -2.61566 0
M  V30 16212 H 1482.03 -0.618003 -0.261369 0
M  V30 16213 H 1484.57 -2.03811 -0.16773 0
M  V30 16214 H 1482.73 -2.99246 -2.4603 0
M  V30 16215 H 1483.14 -5.01057 -1.55056 0
M  V30 16216 H 1484.61 -4.50823 -3.18532 0
M  V30 16217 H 1485.09 -2.82162 -3.36573 0
M  V30 16218 H 1485.7 -3.7623 -1.98321 0
M  V30 16219 N 1484.01 0.437135 -1.51416 0
M  V30 16220 C 1485.24 1.21359 -1.68187 0
M  V30 16221 C 1485.66 1.84247 -0.378748 0
M  V30 16222 O 1485.02 1.68816 0.661115 0
M  V30 16223 C 1485.07 2.27319 -2.79926 0
M  V30 16224 O 1484.17 3.32807 -2.43543 0
M  V30 16225 H 1483.51 0.355547 -0.560787 0
M  V30 16226 H 1486.04 0.516204 -1.97981 0
M  V30 16227 H 1486.05 2.721 -3.04016 0
M  V30 16228 H 1484.73 1.80923 -3.74486 0
M  V30 16229 H 1483.31 2.93501 -2.30025 0
M  V30 16230 N 1485.49 1.41566 0.692592 0
M  V30 16231 C 1486.77 1.31572 1.44735 0
M  V30 16232 C 1487.15 -0.0553081 2.11028 0
M  V30 16233 O 1486.5 -1.06974 2.01913 0
M  V30 16234 C 1486.71 2.47125 2.46435 0
M  V30 16235 C 1488.05 2.88427 3.11601 0
M  V30 16236 O 1489.08 2.46886 2.5676 0
M  V30 16237 O 1487.94 3.6027 4.10935 0
M  V30 16238 H 1485.03 0.517949 0.644715 0
M  V30 16239 H 1487.58 1.53536 0.722818 0
M  V30 16240 H 1486.35 3.38601 1.96124 0
M  V30 16241 H 1485.97 2.27054 3.26393 0
M  V30 16242 N 1486.97 -0.927146 1.27443 0
M  V30 16243 C 1488.19 -1.71426 1.16739 0
M  V30 16244 C 1488.62 -1.86122 -0.272063 0
M  V30 16245 O 1487.98 -1.36165 -1.19703 0
M  V30 16246 C 1488.02 -3.09131 1.85661 0
M  V30 16247 O 1487.13 -3.95897 1.15495 0
M  V30 16248 H 1486.47 -0.525428 0.405983 0
M  V30 16249 H 1489 -1.16022 1.68523 0
M  V30 16250 H 1489.01 -3.59442 1.93042 0
M  V30 16251 H 1487.68 -2.97752 2.90373 0
M  V30 16252 H 1486.26 -3.54337 1.16187 0
M  V30 16253 N 1488.45 -1.09474 -1.13372 0
M  V30 16254 C 1489.39 -0.73458 -2.18798 0
M  V30 16255 C 1490.36 0.284433 -1.63647 0
M  V30 16256 O 1491.55 0.165958 -1.90077 0
M  V30 16257 C 1488.69 -0.161826 -3.4472 0
M  V30 16258 C 1487.8 -1.23494 -4.13973 0
M  V30 16259 C 1486.94 -0.624886 -5.27512 0
M  V30 16260 C 1485.98 -1.67927 -5.88614 0
M  V30 16261 N 1485.11 -1.09021 -6.93584 0
M  V30 16262 H 1489.95 -1.63787 -2.48954 0
M  V30 16263 H 1487.49 -0.818297 -1.22239 0
M  V30 16264 H 1489.45 0.188053 -4.16776 0
M  V30 16265 H 1488.08 0.70473 -3.15013 0
M  V30 16266 H 1487.13 -1.70209 -3.40196 0
M  V30 16267 H 1488.44 -2.0335 -4.55467 0
M  V30 16268 H 1487.6 -0.22388 -6.06287 0
M  V30 16269 H 1486.33 0.205214 -4.87268 0
M  V30 16270 H 1485.34 -2.08982 -5.08534 0
M  V30 16271 H 1486.56 -2.51204 -6.3093 0
M  V30 16272 H 1484.51 -0.281401 -6.55396 0
M  V30 16273 H 1484.43 -1.82573 -7.33623 0
M  V30 16274 H 1485.7 -0.715428 -7.7621 0
M  V30 16275 N 1489.92 1.30607 -0.882012 0
M  V30 16276 C 1491.17 1.95531 -0.495038 0
M  V30 16277 C 1491.49 1.70418 0.96005 0
M  V30 16278 O 1492.69 2.29301 1.45373 0
M  V30 16279 C 1491.15 3.50094 -0.834382 0
M  V30 16280 C 1490.76 3.84031 -2.30704 0
M  V30 16281 C 1492.5 4.21347 -0.516463 0
M  V30 16282 C 1490.41 5.31759 -2.58817 0
M  V30 16283 H 1489.34 0.731854 -0.181399 0
M  V30 16284 H 1491.99 1.486 -1.07658 0
M  V30 16285 H 1490.37 3.95582 -0.181961 0
M  V30 16286 H 1491.54 3.49463 -3.00353 0
M  V30 16287 H 1489.86 3.25874 -2.5922 0
M  V30 16288 H 1492.46 5.30051 -0.703576 0
M  V30 16289 H 1492.8 4.12731 0.543935 0
M  V30 16290 H 1493.33 3.81533 -1.12595 0
M  V30 16291 H 1490.07 5.45422 -3.63586 0
M  V30 16292 H 1489.59 5.67637 -1.93774 0
M  V30 16293 H 1491.27 5.9916 -2.44165 0
M  V30 16294 N 1491.4 0.642663 1.43901 0
M  V30 16295 C 1492.65 0.151778 2.0193 0
M  V30 16296 C 1492.98 -1.23052 1.50627 0
M  V30 16297 O 1492.23 -1.83305 0.685404 0
M  V30 16298 C 1492.53 0.100139 3.5726 0
M  V30 16299 C 1492.2 1.42276 4.27865 0
M  V30 16300 C 1490.86 1.78497 4.46869 0
M  V30 16301 C 1493.21 2.29526 4.67939 0
M  V30 16302 C 1490.54 3.01655 5.03211 0
M  V30 16303 C 1492.89 3.51966 5.25645 0
M  V30 16304 C 1491.56 3.88396 5.42867 0
M  V30 16305 H 1490.83 0.0555394 0.738916 0
M  V30 16306 H 1493.47 0.831273 1.72517 0
M  V30 16307 H 1491.78 -0.66277 3.86154 0
M  V30 16308 H 1493.47 -0.29638 3.99903 0
M  V30 16309 H 1490.06 1.13091 4.13411 0
M  V30 16310 H 1494.25 2.02835 4.52959 0
M  V30 16311 H 1489.5 3.29943 5.14731 0
M  V30 16312 H 1493.68 4.19799 5.55645 0
M  V30 16313 H 1491.31 4.83909 5.8629 0
M  V30 16314 N 1492.88 -1.52852 0.383918 0
M  V30 16315 C 1493.83 -2.27828 -0.468762 0
M  V30 16316 C 1494.82 -1.31516 -1.0677 0
M  V30 16317 O 1496.03 -1.49075 -1.0088 0
M  V30 16318 H 1492.4 -0.732552 -0.169917 0
M  V30 16319 H 1494.38 -2.97825 0.185124 0
M  V30 16320 C 1493.12 -3.09378 -1.58683 0
M  V30 16321 H 1492.45 -3.83343 -1.13527 0
M  V30 16322 H 1493.89 -3.64987 -2.15779 0
M  V30 16323 C 1492.35 -2.21354 -2.53976 0
M  V30 16324 O 1492.88 -1.83668 -3.57252 0
M  V30 16325 N 1491.08 -1.85621 -2.23591 0
M  V30 16326 H 1490.63 -2.16467 -1.39642 0
M  V30 16327 H 1490.59 -1.27015 -2.87602 0
M  V30 16328 N 1494.36 -0.113586 -1.5719 0
M  V30 16329 C 1495.58 0.556928 -1.99783 0
M  V30 16330 C 1496.01 1.59774 -0.992669 0
M  V30 16331 O 1495.37 1.81263 0.0363821 0
M  V30 16332 C 1495.42 1.16463 -3.41275 0
M  V30 16333 O 1494.52 2.28024 -3.43626 0
M  V30 16334 H 1493.86 0.139628 -0.649153 0
M  V30 16335 H 1496.39 -0.200462 -2.03616 0
M  V30 16336 H 1496.4 1.50147 -3.79368 0
M  V30 16337 H 1495.08 0.402232 -4.1395 0
M  V30 16338 H 1493.65 1.9582 -3.17347 0
M  V30 16339 N 1495.84 1.56784 0.160173 0
M  V30 16340 C 1497.07 1.86767 0.89026 0
M  V30 16341 C 1497.48 0.700276 1.75333 0
M  V30 16342 O 1496.84 -0.330342 1.79485 0
M  V30 16343 C 1496.89 3.15883 1.75784 0
M  V30 16344 O 1496.61 4.28124 0.929575 0
M  V30 16345 C 1498.11 3.5929 2.59664 0
M  V30 16346 H 1495.33 0.61938 0.258088 0
M  V30 16347 H 1497.87 2.03897 0.156919 0
M  V30 16348 H 1496.03 3.00546 2.4444 0
M  V30 16349 H 1496.44 5.01872 1.52397 0
M  V30 16350 H 1497.92 4.52506 3.16136 0
M  V30 16351 H 1498.39 2.83943 3.35072 0
M  V30 16352 H 1499 3.77277 1.96323 0
M  V30 16353 N 1497.32 -0.429099 1.51646 0
M  V30 16354 C 1498.59 -1.18958 1.55269 0
M  V30 16355 C 1498.97 -2.08633 0.321816 0
M  V30 16356 O 1498.32 -2.1775 -0.69261 0
M  V30 16357 C 1498.53 -1.98427 2.87102 0
M  V30 16358 C 1499.88 -2.55185 3.39361 0
M  V30 16359 O 1500.9 -2.08629 2.88708 0
M  V30 16360 O 1499.76 -3.40119 4.27763 0
M  V30 16361 H 1496.86 -0.542041 0.624596 0
M  V30 16362 H 1499.4 -0.437499 1.63964 0
M  V30 16363 H 1498.17 -1.32613 3.68143 0
M  V30 16364 H 1497.8 -2.80683 2.81608 0
M  V30 16365 N 1498.79 -1.41931 -0.685074 0
M  V30 16366 C 1500.02 -1.45018 -1.4715 0
M  V30 16367 C 1500.43 -0.0569412 -1.89114 0
M  V30 16368 O 1499.77 0.936419 -1.58041 0
M  V30 16369 C 1499.84 -2.30522 -2.75862 0
M  V30 16370 C 1499.5 -3.78542 -2.56037 0
M  V30 16371 C 1500.5 -4.70448 -2.21303 0
M  V30 16372 C 1498.18 -4.22698 -2.71351 0
M  V30 16373 C 1500.18 -6.045 -2.02135 0
M  V30 16374 C 1497.86 -5.56812 -2.518 0
M  V30 16375 C 1498.86 -6.47529 -2.17244 0
M  V30 16376 O 1498.55 -7.79167 -1.97872 0
M  V30 16377 H 1498.28 -0.495682 -0.459647 0
M  V30 16378 H 1500.84 -1.86983 -0.850079 0
M  V30 16379 H 1499.07 -1.83389 -3.40449 0
M  V30 16380 H 1500.75 -2.25186 -3.37707 0
M  V30 16381 H 1501.52 -4.37621 -2.09077 0
M  V30 16382 H 1497.4 -3.52385 -2.9723 0
M  V30 16383 H 1500.94 -6.75271 -1.75086 0
M  V30 16384 H 1496.84 -5.89216 -2.6362 0
M  V30 16385 H 1497.61 -7.9042 -2.12552 0
M  V30 16386 N 1500.27 0.920374 -1.27933 0
M  V30 16387 C 1501.68 1.48385 -1.13309 0
M  V30 16388 C 1502.03 1.94202 0.279307 0
M  V30 16389 O 1501.16 1.81855 1.17294 0
M  V30 16390 C 1501.75 2.69681 -2.05079 0
M  V30 16391 C 1500.31 3.22229 -1.94539 0
M  V30 16392 C 1499.46 1.94948 -1.97207 0
M  V30 16393 H 1502.41 0.733744 -1.40719 0
M  V30 16394 H 1502.43 3.44717 -1.6109 0
M  V30 16395 H 1501.94 2.36304 -3.07867 0
M  V30 16396 H 1500.04 3.60348 -0.94764 0
M  V30 16397 H 1500.16 3.87927 -2.81157 0
M  V30 16398 H 1498.52 2.1176 -1.41527 0
M  V30 16399 H 1499.3 1.63875 -3.01662 0
M  V30 16400 N 1501.75 1.10074 1.1279 0
M  V30 16401 C 1502.71 0.74967 2.16593 0
M  V30 16402 C 1503.71 -0.224046 1.59232 0
M  V30 16403 O 1504.9 -0.00137104 1.742 0
M  V30 16404 C 1502.03 0.109795 3.40723 0
M  V30 16405 H 1503.23 1.66906 2.49164 0
M  V30 16406 H 1500.78 0.900781 1.27733 0
M  V30 16407 H 1501.52 -0.820501 3.13749 0
M  V30 16408 H 1501.3 0.810517 3.83631 0
M  V30 16409 H 1502.79 -0.120198 4.17427 0
M  V30 16410 N 1503.23 -1.30138 0.888926 0
M  V30 16411 C 1504.45 -2.00679 0.523697 0
M  V30 16412 C 1504.88 -1.66167 -0.881479 0
M  V30 16413 O 1504.24 -0.880418 -1.58488 0
M  V30 16414 C 1504.28 -3.53535 0.710284 0
M  V30 16415 O 1503.39 -4.11689 -0.242066 0
M  V30 16416 H 1502.73 -0.631273 0.205888 0
M  V30 16417 H 1505.26 -1.65891 1.19756 0
M  V30 16418 H 1505.27 -4.03402 0.610794 0
M  V30 16419 H 1503.94 -3.77992 1.73478 0
M  V30 16420 H 1502.52 -3.72777 -0.0959393 0
M  V30 16421 N 1504.71 -0.650285 -1.43559 0
M  V30 16422 C 1505.64 0.0817484 -2.29054 0
M  V30 16423 C 1506.65 0.790023 -1.42346 0
M  V30 16424 O 1507.84 0.648269 -1.66312 0
M  V30 16425 C 1504.94 1.13873 -3.19196 0
M  V30 16426 C 1504.11 0.509177 -4.34426 0
M  V30 16427 C 1503.17 1.46265 -5.05463 0
M  V30 16428 O 1502.2 0.972378 -5.60833 0
M  V30 16429 N 1503.4 2.79668 -5.08691 0
M  V30 16430 H 1506.16 -0.652062 -2.92521 0
M  V30 16431 H 1503.73 -0.49285 -1.54216 0
M  V30 16432 H 1505.72 1.77732 -3.63584 0
M  V30 16433 H 1504.29 1.77454 -2.5735 0
M  V30 16434 H 1503.51 -0.308444 -3.92991 0
M  V30 16435 H 1504.8 0.0695732 -5.08752 0
M  V30 16436 H 1504.19 3.22062 -4.65072 0
M  V30 16437 H 1502.75 3.38838 -5.56805 0
M  V30 16438 N 1506.18 1.52647 -0.392018 0
M  V30 16439 C 1507.6 1.59544 -0.0421007 0
M  V30 16440 C 1507.8 1.40586 1.44353 0
M  V30 16441 O 1506.86 1.22422 2.20837 0
M  V30 16442 C 1508.17 2.9614 -0.521713 0
M  V30 16443 C 1509.72 3.09325 -0.478205 0
M  V30 16444 C 1510.19 4.48374 -0.93405 0
M  V30 16445 N 1511.68 4.54566 -0.890173 0
M  V30 16446 C 1512.42 5.60395 -1.21427 0
M  V30 16447 N 1511.91 6.73858 -1.60897 0
M  V30 16448 N 1513.71 5.50515 -1.13534 0
M  V30 16449 H 1505.86 1.63219 -1.35917 0
M  V30 16450 H 1508.12 0.766913 -0.557269 0
M  V30 16451 H 1507.83 3.15238 -1.55942 0
M  V30 16452 H 1507.7 3.7712 0.0777658 0
M  V30 16453 H 1510.09 2.89921 0.550418 0
M  V30 16454 H 1510.17 2.30292 -1.11352 0
M  V30 16455 H 1509.81 4.68519 -1.96092 0
M  V30 16456 H 1509.74 5.25878 -0.275717 0
M  V30 16457 H 1512.23 3.7311 -0.599758 0
M  V30 16458 H 1512.55 7.5058 -1.83983 0
M  V30 16459 H 1510.89 6.75182 -1.64786 0
M  V30 16460 H 1514.08 4.60755 -0.825977 0
M  V30 16461 H 1514.26 6.32889 -1.39124 0
M  V30 16462 N 1507.66 0.121921 1.57128 0
M  V30 16463 C 1508.94 -0.579087 1.86831 0
M  V30 16464 C 1509.32 -1.84623 1.0236 0
M  V30 16465 O 1508.67 -2.28266 0.103326 0
M  V30 16466 C 1508.88 -0.86872 3.38015 0
M  V30 16467 C 1510.23 -1.22051 4.0668 0
M  V30 16468 O 1511.25 -0.958889 3.43051 0
M  V30 16469 O 1510.11 -1.71164 5.19004 0
M  V30 16470 H 1507.2 -0.292539 0.773531 0
M  V30 16471 H 1509.75 0.156644 1.68975 0
M  V30 16472 H 1508.52 0.0291056 3.91289 0
M  V30 16473 H 1508.14 -1.65951 3.61312 0
M  V30 16474 N 1509.14 -1.56867 -0.151857 0
M  V30 16475 C 1510.07 -1.93039 -1.21701 0
M  V30 16476 C 1511.05 -0.795607 -1.41806 0
M  V30 16477 O 1512.24 -1.05076 -1.56497 0
M  V30 16478 C 1509.36 -2.19822 -2.57674 0
M  V30 16479 C 1508.41 -3.42474 -2.54192 0
M  V30 16480 S 1509.24 -4.96199 -2.01363 0
M  V30 16481 C 1510.4 -5.26098 -3.39075 0
M  V30 16482 H 1510.63 -2.83083 -0.90837 0
M  V30 16483 H 1508.16 -1.5021 -0.357265 0
M  V30 16484 H 1510.12 -2.35932 -3.35926 0
M  V30 16485 H 1508.78 -1.30451 -2.8573 0
M  V30 16486 H 1507.98 -3.58476 -3.54276 0
M  V30 16487 H 1507.58 -3.25581 -1.84047 0
M  V30 16488 H 1509.87 -5.19268 -4.35163 0
M  V30 16489 H 1510.81 -6.27588 -3.27931 0
M  V30 16490 H 1511.22 -4.53623 -3.35986 0
M  V30 16491 N 1510.62 0.421051 -1.51871 0
M  V30 16492 C 1512.03 0.758781 -1.40409 0
M  V30 16493 C 1512.23 1.95219 -0.499197 0
M  V30 16494 O 1511.29 2.52469 0.0395216 0
M  V30 16495 C 1512.6 1.02388 -2.82731 0
M  V30 16496 C 1514.15 1.12733 -2.91994 0
M  V30 16497 C 1514.63 1.42527 -4.35259 0
M  V30 16498 N 1516.12 1.49417 -4.38439 0
M  V30 16499 C 1516.85 1.74074 -5.46339 0
M  V30 16500 N 1516.35 1.96414 -6.64375 0
M  V30 16501 N 1518.14 1.7599 -5.33839 0
M  V30 16502 H 1510.29 -0.364682 -2.09246 0
M  V30 16503 H 1512.56 -0.100819 -0.942624 0
M  V30 16504 H 1512.26 0.219491 -3.51014 0
M  V30 16505 H 1512.14 1.94724 -3.23052 0
M  V30 16506 H 1514.52 1.92233 -2.23899 0
M  V30 16507 H 1514.6 0.182611 -2.55147 0
M  V30 16508 H 1514.25 0.635486 -5.03909 0
M  V30 16509 H 1514.18 2.38231 -4.69631 0
M  V30 16510 H 1516.67 1.3399 -3.53348 0
M  V30 16511 H 1516.98 2.14644 -7.42393 0
M  V30 16512 H 1515.33 1.93702 -6.67461 0
M  V30 16513 H 1518.52 1.58067 -4.40605 0
M  V30 16514 H 1518.69 1.94868 -6.18005 0
M  V30 16515 N 1512.1 1.42293 0.677538 0
M  V30 16516 C 1513.34 1.42827 1.43973 0
M  V30 16517 C 1513.68 0.0435041 1.94151 0
M  V30 16518 O 1512.95 -0.931794 1.70727 0
M  V30 16519 C 1513.23 2.45037 2.63873 0
M  V30 16520 C 1513.09 3.92694 2.19344 0
M  V30 16521 C 1514.41 2.4427 3.66087 0
M  V30 16522 H 1511.52 0.520097 0.522176 0
M  V30 16523 H 1514.17 1.73688 0.770219 0
M  V30 16524 H 1512.32 2.18851 3.20993 0
M  V30 16525 H 1513.99 4.2985 1.67412 0
M  V30 16526 H 1512.23 4.06692 1.50944 0
M  V30 16527 H 1512.9 4.59784 3.05455 0
M  V30 16528 H 1515.38 2.67551 3.18678 0
M  V30 16529 H 1514.25 3.17769 4.47564 0
M  V30 16530 H 1514.52 1.46769 4.17027 0
M  V30 16531 N 1513.57 -0.913576 1.28419 0
M  V30 16532 C 1514.82 -1.65944 1.15355 0
M  V30 16533 C 1515.14 -1.92706 -0.298228 0
M  V30 16534 O 1514.41 -1.54333 -1.20657 0
M  V30 16535 H 1512.99 -0.615063 0.423919 0
M  V30 16536 H 1515.66 -1.0962 1.6115 0
M  V30 16537 H 1514.75 -2.62173 1.69327 0
M  V30 16538 N 1515.05 -1.1067 -1.12204 0
M  V30 16539 C 1516.3 -0.85189 -1.8404 0
M  V30 16540 C 1516.63 0.620988 -1.84004 0
M  V30 16541 O 1515.91 1.45801 -1.28734 0
M  V30 16542 C 1516.19 -1.40401 -3.31602 0
M  V30 16543 C 1516.04 -2.94392 -3.40078 0
M  V30 16544 C 1517.36 -1.04834 -4.27432 0
M  V30 16545 H 1514.48 -0.310924 -0.668203 0
M  V30 16546 H 1517.12 -1.37026 -1.3162 0
M  V30 16547 H 1515.27 -0.963107 -3.76373 0
M  V30 16548 H 1516.94 -3.47027 -3.03924 0
M  V30 16549 H 1515.19 -3.3087 -2.80548 0
M  V30 16550 H 1515.86 -3.28107 -4.43903 0
M  V30 16551 H 1518.33 -1.42882 -3.90799 0
M  V30 16552 H 1517.21 -1.46153 -5.29085 0
M  V30 16553 H 1517.47 0.0419272 -4.4208 0
M  V30 16554 N 1516.53 1.29665 -0.895815 0
M  V30 16555 C 1517.76 1.99572 -0.534267 0
M  V30 16556 C 1518.17 1.67254 0.884455 0
M  V30 16557 O 1517.51 0.911762 1.59476 0
M  V30 16558 C 1517.57 3.53719 -0.642099 0
M  V30 16559 C 1517.24 4.09583 -2.02709 0
M  V30 16560 C 1518.23 4.24769 -2.99779 0
M  V30 16561 C 1515.92 4.44706 -2.33542 0
M  V30 16562 C 1517.91 4.74305 -4.25809 0
M  V30 16563 C 1515.6 4.93939 -3.59815 0
M  V30 16564 C 1516.6 5.08693 -4.55763 0
M  V30 16565 O 1516.29 5.5686 -5.79795 0
M  V30 16566 H 1516.02 0.644481 -0.204012 0
M  V30 16567 H 1518.57 1.66262 -1.20607 0
M  V30 16568 H 1516.8 3.86603 0.0867197 0
M  V30 16569 H 1518.49 4.04861 -0.290265 0
M  V30 16570 H 1519.26 3.97925 -2.77273 0
M  V30 16571 H 1515.14 4.32483 -1.59622 0
M  V30 16572 H 1518.68 4.85736 -5.00706 0
M  V30 16573 H 1514.58 5.2022 -3.82154 0
M  V30 16574 H 1515.35 5.75182 -5.82329 0
M  V30 16575 N 1518.01 0.657889 1.43212 0
M  V30 16576 C 1519.26 0.172845 2.0136 0
M  V30 16577 C 1519.58 -1.21911 1.52193 0
M  V30 16578 O 1518.85 -1.81529 0.736492 0
M  V30 16579 H 1517.43 0.0609091 0.744513 0
M  V30 16580 H 1520.09 0.850605 1.75359 0
M  V30 16581 H 1519.19 0.161062 3.11684 0
M  V30 16582 N 1519.49 -1.52437 0.400108 0
M  V30 16583 C 1520.45 -2.2536 -0.417808 0
M  V30 16584 C 1521.45 -1.27393 -0.981204 0
M  V30 16585 O 1522.64 -1.51406 -0.861503 0
M  V30 16586 C 1519.77 -3.01695 -1.58724 0
M  V30 16587 H 1520.96 -2.99086 0.220782 0
M  V30 16588 H 1518.52 -1.55555 0.152439 0
M  V30 16589 H 1519.25 -2.32295 -2.26295 0
M  V30 16590 H 1519.04 -3.73611 -1.18984 0
M  V30 16591 H 1520.53 -3.57033 -2.16604 0
M  V30 16592 N 1520.96 -0.130252 -1.57061 0
M  V30 16593 C 1521.89 0.812189 -2.18919 0
M  V30 16594 C 1522.88 1.2692 -1.13249 0
M  V30 16595 O 1524.06 1.32978 -1.41529 0
M  V30 16596 C 1521.19 2.05803 -2.79754 0
M  V30 16597 C 1520.14 1.73841 -3.91105 0
M  V30 16598 C 1519.47 3.05549 -4.38799 0
M  V30 16599 C 1520.77 0.997991 -5.12677 0
M  V30 16600 H 1522.46 0.296692 -2.97926 0
M  V30 16601 H 1520.01 0.141265 -1.43305 0
M  V30 16602 H 1521.96 2.72201 -3.21691 0
M  V30 16603 H 1520.69 2.59697 -1.98053 0
M  V30 16604 H 1519.35 1.09828 -3.49762 0
M  V30 16605 H 1518.99 3.57399 -3.53942 0
M  V30 16606 H 1518.69 2.84932 -5.13894 0
M  V30 16607 H 1520.22 3.73045 -4.83394 0
M  V30 16608 H 1521.63 1.56372 -5.51562 0
M  V30 16609 H 1520.03 0.892378 -5.93428 0
M  V30 16610 H 1521.1 -0.0132936 -4.84898 0
M  V30 16611 N 1522.44 1.56945 0.143535 0
M  V30 16612 C 1523.69 1.83176 0.853873 0
M  V30 16613 C 1524.01 0.71168 1.81549 0
M  V30 16614 O 1523.28 -0.266391 1.9408 0
M  V30 16615 H 1521.86 0.675785 0.318313 0
M  V30 16616 H 1524.52 1.9442 0.136712 0
M  V30 16617 H 1523.62 2.7823 1.41402 0
M  V30 16618 N 1523.92 -0.412991 1.52093 0
M  V30 16619 C 1524.85 -1.50986 1.78117 0
M  V30 16620 C 1525.83 -1.57925 0.631963 0
M  V30 16621 O 1527.02 -1.73261 0.877168 0
M  V30 16622 C 1524.15 -2.88846 1.92835 0
M  V30 16623 C 1523.1 -2.96759 3.08412 0
M  V30 16624 C 1522.43 -4.36837 3.08347 0
M  V30 16625 C 1523.73 -2.68599 4.47942 0
M  V30 16626 H 1525.42 -1.29459 2.69964 0
M  V30 16627 H 1522.97 -0.621348 1.29905 0
M  V30 16628 H 1524.92 -3.65563 2.09623 0
M  V30 16629 H 1523.64 -3.11658 0.976553 0
M  V30 16630 H 1522.3 -2.22487 2.91368 0
M  V30 16631 H 1521.95 -4.56652 2.10897 0
M  V30 16632 H 1521.65 -4.43056 3.85973 0
M  V30 16633 H 1523.18 -5.15493 3.2726 0
M  V30 16634 H 1524.59 -3.35039 4.65212 0
M  V30 16635 H 1522.99 -2.86199 5.27456 0
M  V30 16636 H 1524.06 -1.64058 4.56304 0
M  V30 16637 N 1525.4 -1.4265 -0.669982 0
M  V30 16638 C 1526.36 -1.46196 -1.7652 0
M  V30 16639 C 1527.36 -0.348884 -1.5697 0
M  V30 16640 O 1528.55 -0.609921 -1.63174 0
M  V30 16641 C 1525.68 -1.29829 -3.1521 0
M  V30 16642 H 1526.88 -2.43718 -1.74762 0
M  V30 16643 H 1524.43 -1.29168 -0.88007 0
M  V30 16644 H 1525.17 -0.332493 -3.22591 0
M  V30 16645 H 1524.95 -2.10501 -3.30804 0
M  V30 16646 H 1526.44 -1.35205 -3.95107 0
M  V30 16647 N 1526.88 0.906753 -1.28902 0
M  V30 16648 C 1527.81 2.01497 -1.09233 0
M  V30 16649 C 1528.82 1.62746 -0.0419378 0
M  V30 16650 O 1530.01 1.76198 -0.285728 0
M  V30 16651 C 1527.11 3.32816 -0.639255 0
M  V30 16652 C 1526.28 4.00137 -1.76661 0
M  V30 16653 C 1525.34 5.09742 -1.30573 0
M  V30 16654 O 1524.37 5.32559 -2.00921 0
M  V30 16655 N 1525.57 5.80243 -0.17275 0
M  V30 16656 H 1528.34 2.18927 -2.04673 0
M  V30 16657 H 1525.9 1.0785 -1.20748 0
M  V30 16658 H 1527.89 4.03477 -0.31439 0
M  V30 16659 H 1526.46 3.11807 0.222498 0
M  V30 16660 H 1525.68 3.22933 -2.26071 0
M  V30 16661 H 1526.97 4.41859 -2.52266 0
M  V30 16662 H 1526.37 5.64184 0.413931 0
M  V30 16663 H 1524.92 6.51734 0.0927926 0
M  V30 16664 N 1528.36 1.11264 1.11616 0
M  V30 16665 C 1529.6 0.858664 1.82952 0
M  V30 16666 C 1529.92 -0.617439 1.84967 0
M  V30 16667 O 1529.19 -1.44849 1.31893 0
M  V30 16668 H 1527.77 0.314671 0.677489 0
M  V30 16669 H 1530.44 1.40466 1.35113 0
M  V30 16670 H 1529.53 1.22921 2.86874 0
M  V30 16671 N 1529.83 -1.29188 0.902679 0
M  V30 16672 C 1531.08 -1.94718 0.526082 0
M  V30 16673 C 1531.4 -1.71924 -0.932816 0
M  V30 16674 O 1532.6 -2.31585 -1.41707 0
M  V30 16675 C 1531.06 -3.48723 0.889974 0
M  V30 16676 C 1530.67 -3.80312 2.36784 0
M  V30 16677 C 1532.41 -4.20472 0.58343 0
M  V30 16678 C 1530.32 -5.27574 2.67244 0
M  V30 16679 H 1529.25 -0.728875 0.193019 0
M  V30 16680 H 1531.9 -1.46869 1.10008 0
M  V30 16681 H 1530.28 -3.95242 0.244872 0
M  V30 16682 H 1531.45 -3.44641 3.05875 0
M  V30 16683 H 1529.77 -3.21709 2.64371 0
M  V30 16684 H 1532.37 -5.28864 0.787813 0
M  V30 16685 H 1532.71 -4.13544 -0.478204 0
M  V30 16686 H 1533.24 -3.79693 1.1865 0
M  V30 16687 H 1529.98 -5.39569 3.72217 0
M  V30 16688 H 1529.5 -5.64482 2.0278 0
M  V30 16689 H 1531.18 -5.95199 2.53666 0
M  V30 16690 N 1531.31 -0.665475 -1.42861 0
M  V30 16691 C 1532.56 -0.183884 -2.01663 0
M  V30 16692 C 1532.89 1.2064 -1.52566 0
M  V30 16693 O 1532.14 1.82191 -0.714479 0
M  V30 16694 C 1532.44 -0.156963 -3.57055 0
M  V30 16695 C 1532.11 -1.49065 -4.25547 0
M  V30 16696 C 1530.77 -1.85584 -4.43973 0
M  V30 16697 C 1533.12 -2.36942 -4.64228 0
M  V30 16698 C 1530.45 -3.09622 -4.98348 0
M  V30 16699 C 1532.8 -3.60284 -5.19979 0
M  V30 16700 C 1531.46 -3.96984 -5.36619 0
M  V30 16701 H 1530.73 -0.0672879 -0.737939 0
M  V30 16702 H 1533.38 -0.858614 -1.71173 0
M  V30 16703 H 1531.69 0.601253 -3.87159 0
M  V30 16704 H 1533.38 0.232721 -4.00324 0
M  V30 16705 H 1529.97 -1.19653 -4.11559 0
M  V30 16706 H 1534.16 -2.10015 -4.49675 0
M  V30 16707 H 1529.41 -3.3809 -5.09417 0
M  V30 16708 H 1533.59 -4.28586 -5.48896 0
M  V30 16709 H 1531.21 -4.93175 -5.78518 0
M  V30 16710 N 1532.79 1.52222 -0.408187 0
M  V30 16711 C 1534.04 2.02102 0.168154 0
M  V30 16712 C 1534.37 1.2933 1.4487 0
M  V30 16713 O 1533.64 0.399336 1.90356 0
M  V30 16714 C 1533.93 3.57679 0.416821 0
M  V30 16715 C 1533.78 4.41101 -0.880335 0
M  V30 16716 C 1535.1 4.23442 1.19936 0
M  V30 16717 H 1532.22 0.734583 0.0596402 0
M  V30 16718 H 1534.86 1.82121 -0.541467 0
M  V30 16719 H 1533.01 3.74835 1.02131 0
M  V30 16720 H 1534.68 4.35658 -1.51656 0
M  V30 16721 H 1532.92 4.07353 -1.49152 0
M  V30 16722 H 1533.6 5.48031 -0.660748 0
M  V30 16723 H 1536.07 4.10379 0.687605 0
M  V30 16724 H 1534.95 5.32239 1.3421 0
M  V30 16725 H 1535.21 3.82335 2.21973 0
M  V30 16726 N 1534.27 0.138579 1.5699 0
M  V30 16727 C 1535.51 -0.514627 1.95852 0
M  V30 16728 C 1535.84 -1.65424 1.02299 0
M  V30 16729 O 1535.1 -1.95635 0.0505654 0
M  V30 16730 C 1535.4 -1.06969 3.41017 0
M  V30 16731 C 1535.06 -0.049396 4.50873 0
M  V30 16732 C 1533.72 0.231103 4.80645 0
M  V30 16733 C 1536.08 0.644865 5.17195 0
M  V30 16734 C 1533.4 1.21181 5.74049 0
M  V30 16735 C 1535.76 1.61434 6.11655 0
M  V30 16736 C 1534.42 1.90262 6.3981 0
M  V30 16737 H 1533.69 -0.188315 0.716672 0
M  V30 16738 H 1536.34 0.223629 1.9019 0
M  V30 16739 H 1534.64 -1.88511 3.43469 0
M  V30 16740 H 1536.34 -1.58354 3.68409 0
M  V30 16741 H 1532.93 -0.278202 4.27696 0
M  V30 16742 H 1537.11 0.441346 4.94334 0
M  V30 16743 H 1532.37 1.4417 5.94159 0
M  V30 16744 H 1536.54 2.15786 6.62125 0
M  V30 16745 H 1534.17 2.66407 7.11991 0
M  V30 16746 N 1535.75 -1.57019 -0.13521 0
M  V30 16747 C 1536.99 -1.83178 -0.844308 0
M  V30 16748 C 1537.31 -0.7217 -1.81799 0
M  V30 16749 O 1538.51 -0.869232 -2.57209 0
M  V30 16750 C 1536.97 -3.2471 -1.55214 0
M  V30 16751 C 1536.58 -4.43685 -0.620268 0
M  V30 16752 C 1538.32 -3.60133 -2.24732 0
M  V30 16753 C 1536.23 -5.76242 -1.3304 0
M  V30 16754 H 1535.16 -0.683175 -0.319041 0
M  V30 16755 H 1537.81 -1.83243 -0.0970242 0
M  V30 16756 H 1536.19 -3.19067 -2.34547 0
M  V30 16757 H 1537.37 -4.60591 0.138685 0
M  V30 16758 H 1535.68 -4.16387 -0.0328906 0
M  V30 16759 H 1538.28 -4.56431 -2.78522 0
M  V30 16760 H 1538.62 -2.86767 -3.01779 0
M  V30 16761 H 1539.15 -3.67489 -1.52305 0
M  V30 16762 H 1535.89 -6.52734 -0.60155 0
M  V30 16763 H 1535.41 -5.63251 -2.06176 0
M  V30 16764 H 1537.09 -6.19445 -1.86808 0
M  V30 16765 N 1537.22 0.404919 -1.52309 0
M  V30 16766 C 1538.19 1.47627 -1.75325 0
M  V30 16767 C 1539.19 1.48234 -0.623153 0
M  V30 16768 O 1540.38 1.49685 -0.891069 0
M  V30 16769 C 1537.51 2.87013 -1.83947 0
M  V30 16770 H 1538.7 1.2851 -2.70971 0
M  V30 16771 H 1536.26 0.635677 -1.42789 0
M  V30 16772 H 1536.99 3.11495 -0.902309 0
M  V30 16773 H 1536.78 2.87974 -2.66108 0
M  V30 16774 H 1538.27 3.64671 -2.03481 0
M  V30 16775 N 1538.7 1.43003 0.662408 0
M  V30 16776 C 1539.65 1.43898 1.76854 0
M  V30 16777 C 1540.64 0.308629 1.57912 0
M  V30 16778 O 1541.83 0.551757 1.6818 0
M  V30 16779 C 1538.96 1.35585 3.15391 0
M  V30 16780 C 1538.04 2.53614 3.39913 0
M  V30 16781 N 1538.43 3.78998 3.34954 0
M  V30 16782 C 1536.73 2.48141 3.70597 0
M  V30 16783 C 1537.43 4.57467 3.59303 0
M  V30 16784 N 1536.41 3.8806 3.80671 0
M  V30 16785 H 1540.21 2.38722 1.71432 0
M  V30 16786 H 1537.73 1.37526 0.863728 0
M  V30 16787 H 1539.72 1.34308 3.94673 0
M  V30 16788 H 1538.38 0.417735 3.22002 0
M  V30 16789 H 1539.39 4.11417 3.14574 0
M  V30 16790 H 1536.07 1.62971 3.84379 0
M  V30 16791 H 1537.46 5.66475 3.61326 0
M  V30 16792 N 1540.18 -0.899904 1.29381 0
M  V30 16793 C 1541.43 -1.65038 1.17341 0
M  V30 16794 C 1541.76 -1.92544 -0.275135 0
M  V30 16795 O 1541.01 -1.53402 -1.21517 0
M  V30 16796 C 1541.31 -3.0069 1.93185 0
M  V30 16797 C 1540.98 -2.92792 3.42905 0
M  V30 16798 C 1539.64 -2.90345 3.83736 0
M  V30 16799 C 1541.99 -2.82015 4.38312 0
M  V30 16800 C 1539.32 -2.7494 5.1829 0
M  V30 16801 C 1541.67 -2.68149 5.72956 0
M  V30 16802 C 1540.33 -2.64068 6.13045 0
M  V30 16803 H 1539.6 -0.603915 0.42938 0
M  V30 16804 H 1542.25 -1.04743 1.60316 0
M  V30 16805 H 1540.56 -3.6485 1.428 0
M  V30 16806 H 1542.25 -3.57688 1.81274 0
M  V30 16807 H 1538.84 -2.95498 3.10449 0
M  V30 16808 H 1543.03 -2.82982 4.07719 0
M  V30 16809 H 1538.28 -2.70186 5.48461 0
M  V30 16810 H 1542.46 -2.58781 6.46533 0
M  V30 16811 H 1540.08 -2.51889 7.17256 0
M  V30 16812 N 1541.66 -1.11854 -1.11024 0
M  V30 16813 C 1542.9 -0.88128 -1.83317 0
M  V30 16814 C 1543.26 0.586708 -1.83236 0
M  V30 16815 O 1542.55 1.42786 -1.27761 0
M  V30 16816 C 1542.75 -1.3823 -3.29586 0
M  V30 16817 C 1542.58 -2.89747 -3.43914 0
M  V30 16818 C 1541.35 -3.57917 -3.56684 0
M  V30 16819 C 1543.54 -3.8778 -3.37833 0
M  V30 16820 N 1541.53 -4.97608 -3.59526 0
M  V30 16821 C 1542.9 -5.13565 -3.47348 0
M  V30 16822 C 1544.95 -3.80278 -3.21393 0
M  V30 16823 C 1543.65 -6.32731 -3.42117 0
M  V30 16824 C 1545.68 -4.98959 -3.1748 0
M  V30 16825 C 1545.04 -6.236 -3.2757 0
M  V30 16826 H 1541.14 -0.375681 -0.685848 0
M  V30 16827 H 1543.73 -1.4237 -1.32811 0
M  V30 16828 H 1541.9 -0.86701 -3.78599 0
M  V30 16829 H 1543.63 -1.08774 -3.89808 0
M  V30 16830 H 1540.38 -3.08393 -3.59431 0
M  V30 16831 H 1540.81 -5.70451 -3.64575 0
M  V30 16832 H 1545.45 -2.84815 -3.12474 0
M  V30 16833 H 1543.17 -7.28467 -3.49802 0
M  V30 16834 H 1546.75 -4.94878 -3.05919 0
M  V30 16835 H 1545.63 -7.13894 -3.24537 0
M  V30 16836 N 1543.14 1.28707 -0.909517 0
M  V30 16837 C 1544.36 1.99821 -0.555557 0
M  V30 16838 C 1544.79 1.67549 0.854931 0
M  V30 16839 O 1544.14 0.905521 1.57067 0
M  V30 16840 C 1544.19 3.52361 -0.766438 0
M  V30 16841 O 1543.3 4.12022 0.17654 0
M  V30 16842 H 1542.64 0.627918 -0.215905 0
M  V30 16843 H 1545.17 1.63965 -1.2238 0
M  V30 16844 H 1545.18 4.02379 -0.674894 0
M  V30 16845 H 1543.85 3.75184 -1.7947 0
M  V30 16846 H 1542.43 3.72882 0.0366216 0
M  V30 16847 N 1544.61 0.673042 1.42506 0
M  V30 16848 C 1545.58 0.00283156 2.292 0
M  V30 16849 C 1546.58 -0.73077 1.43235 0
M  V30 16850 O 1547.77 -0.569037 1.64644 0
M  V30 16851 C 1544.9 -1.00666 3.25698 0
M  V30 16852 H 1546.09 0.765869 2.89956 0
M  V30 16853 H 1543.65 0.435301 1.50116 0
M  V30 16854 H 1544.38 -1.79825 2.69877 0
M  V30 16855 H 1544.17 -0.484043 3.89101 0
M  V30 16856 H 1545.66 -1.47409 3.90718 0
M  V30 16857 N 1546.09 -1.52004 0.416254 0
M  V30 16858 C 1547.34 -2.01889 -0.157201 0
M  V30 16859 C 1547.67 -1.30153 -1.44535 0
M  V30 16860 O 1546.92 -0.39855 -1.91599 0
M  V30 16861 C 1547.22 -3.54624 -0.444553 0
M  V30 16862 C 1546.89 -4.4453 0.755251 0
M  V30 16863 C 1545.55 -4.68824 1.08433 0
M  V30 16864 C 1547.9 -4.97412 1.55663 0
M  V30 16865 C 1545.23 -5.43246 2.21586 0
M  V30 16866 C 1547.58 -5.73074 2.67898 0
M  V30 16867 C 1546.25 -5.95637 3.01285 0
M  V30 16868 H 1545.52 -0.738764 -0.0575239 0
M  V30 16869 H 1548.16 -1.83156 0.559133 0
M  V30 16870 H 1546.47 -3.71575 -1.24254 0
M  V30 16871 H 1548.16 -3.90739 -0.901333 0
M  V30 16872 H 1544.75 -4.25804 0.488789 0
M  V30 16873 H 1548.94 -4.78545 1.31562 0
M  V30 16874 H 1544.19 -5.58936 2.47792 0
M  V30 16875 H 1548.37 -6.13044 3.30378 0
M  V30 16876 H 1546 -6.53086 3.89079 0
M  V30 16877 N 1547.57 -0.146903 -1.56914 0
M  V30 16878 C 1548.82 0.503237 -1.95734 0
M  V30 16879 C 1549.14 1.65407 -1.03275 0
M  V30 16880 O 1548.41 1.95673 -0.0942784 0
M  V30 16881 H 1546.99 0.188899 -0.722721 0
M  V30 16882 H 1549.65 -0.222379 -1.93627 0
M  V30 16883 H 1548.75 0.879445 -2.99453 0
M  V30 16884 N 1549.05 1.57088 0.126881 0
M  V30 16885 C 1550.3 1.84436 0.836048 0
M  V30 16886 C 1550.62 0.730824 1.80248 0
M  V30 16887 O 1549.88 -0.278509 1.93708 0
M  V30 16888 C 1550.18 3.18225 1.62688 0
M  V30 16889 C 1549.84 4.43648 0.80545 0
M  V30 16890 C 1548.51 4.77705 0.578901 0
M  V30 16891 C 1550.86 5.20682 0.232355 0
M  V30 16892 C 1548.19 5.86245 -0.231126 0
M  V30 16893 C 1550.54 6.30073 -0.564819 0
M  V30 16894 C 1549.2 6.62667 -0.801759 0
M  V30 16895 H 1548.47 0.674898 0.305932 0
M  V30 16896 H 1551.12 1.91245 0.0987618 0
M  V30 16897 H 1549.42 3.06956 2.43485 0
M  V30 16898 H 1551.12 3.36604 2.17942 0
M  V30 16899 H 1547.71 4.16959 0.99211 0
M  V30 16900 H 1551.89 4.94729 0.394616 0
M  V30 16901 H 1547.15 6.09928 -0.423998 0
M  V30 16902 H 1551.32 6.8895 -1.01592 0
M  V30 16903 H 1548.95 7.46605 -1.43126 0
M  V30 16904 N 1550.53 -0.396836 1.52522 0
M  V30 16905 C 1551.77 -1.14432 1.67431 0
M  V30 16906 C 1552.11 -1.89842 0.409115 0
M  V30 16907 O 1551.38 -1.85244 -0.592863 0
M  V30 16908 C 1551.66 -2.12889 2.90431 0
M  V30 16909 C 1551.52 -1.41295 4.27031 0
M  V30 16910 C 1552.84 -3.13412 3.08967 0
M  V30 16911 H 1549.95 -0.414643 0.609295 0
M  V30 16912 H 1552.6 -0.428604 1.85103 0
M  V30 16913 H 1550.75 -2.73924 2.75495 0
M  V30 16914 H 1552.42 -0.832848 4.53719 0
M  V30 16915 H 1550.66 -0.714834 4.2787 0
M  V30 16916 H 1551.33 -2.13198 5.09167 0
M  V30 16917 H 1553.81 -2.62462 3.22883 0
M  V30 16918 H 1552.68 -3.79555 3.96522 0
M  V30 16919 H 1552.95 -3.81836 2.22831 0
M  V30 16920 N 1552.01 -1.43353 -0.654814 0
M  V30 16921 C 1552.96 -1.44834 -1.76089 0
M  V30 16922 C 1553.94 -0.316999 -1.57746 0
M  V30 16923 O 1555.13 -0.560668 -1.67885 0
M  V30 16924 C 1552.26 -1.37256 -3.14668 0
M  V30 16925 C 1551.35 -2.55413 -3.38563 0
M  V30 16926 N 1551.74 -3.80769 -3.3294 0
M  V30 16927 C 1550.04 -2.50103 -3.69276 0
M  V30 16928 C 1550.74 -4.59366 -3.56872 0
M  V30 16929 N 1549.71 -3.90073 -3.78608 0
M  V30 16930 H 1553.51 -2.39628 -1.70164 0
M  V30 16931 H 1551.03 -1.37982 -0.856422 0
M  V30 16932 H 1553.03 -1.364 -3.93955 0
M  V30 16933 H 1551.69 -0.434805 -3.21776 0
M  V30 16934 H 1552.7 -4.13079 -3.12387 0
M  V30 16935 H 1549.37 -1.65007 -3.83509 0
M  V30 16936 H 1550.76 -5.68383 -3.58316 0
M  V30 16937 N 1553.48 0.89303 -1.29857 0
M  V30 16938 C 1554.45 1.97944 -1.15546 0
M  V30 16939 C 1555.45 1.60554 -0.088989 0
M  V30 16940 O 1556.64 1.7092 -0.336464 0
M  V30 16941 C 1553.77 3.32126 -0.768442 0
M  V30 16942 H 1554.96 2.12067 -2.12055 0
M  V30 16943 H 1552.51 1.0784 -1.13138 0
M  V30 16944 H 1553.25 3.23704 0.196504 0
M  V30 16945 H 1553.03 3.60631 -1.53907 0
M  V30 16946 H 1554.52 4.11834 -0.691559 0
M  V30 16947 N 1554.96 1.12442 1.10429 0
M  V30 16948 C 1556.19 0.902914 1.86714 0
M  V30 16949 C 1556.61 -0.542514 1.80107 0
M  V30 16950 O 1555.97 -1.38406 1.17105 0
M  V30 16951 C 1556.02 1.38238 3.33051 0
M  V30 16952 O 1555.12 0.560877 4.08568 0
M  V30 16953 H 1554.46 0.324397 0.579364 0
M  V30 16954 H 1556.99 1.49652 1.39519 0
M  V30 16955 H 1557 1.38148 3.839 0
M  V30 16956 H 1555.68 2.43486 3.37176 0
M  V30 16957 H 1554.25 0.628771 3.67561 0
M  V30 16958 N 1556.44 -1.28223 0.91633 0
M  V30 16959 C 1557.39 -2.29188 0.396916 0
M  V30 16960 C 1558.38 -1.61453 -0.512763 0
M  V30 16961 O 1559.59 -1.75641 -0.393723 0
M  V30 16962 H 1555.96 -0.743947 0.109761 0
M  V30 16963 H 1557.93 -2.70423 1.2615 0
M  V30 16964 C 1556.68 -3.4598 -0.345452 0
M  V30 16965 H 1556.01 -3.98306 0.345326 0
M  V30 16966 H 1557.45 -4.18617 -0.67349 0
M  V30 16967 C 1555.9 -2.98904 -1.55429 0
M  V30 16968 O 1556.43 -3.01598 -2.65333 0
M  V30 16969 N 1554.64 -2.54534 -1.40217 0
M  V30 16970 H 1554.19 -2.52541 -0.508029 0
M  V30 16971 H 1554.15 -2.23397 -2.21227 0
M  V30 16972 N 1557.92 -0.68059 -1.42147 0
M  V30 16973 C 1559.17 -0.202445 -2.00681 0
M  V30 16974 C 1559.48 1.19997 -1.54467 0
M  V30 16975 O 1560.69 1.77479 -2.05459 0
M  V30 16976 C 1559.14 -0.311064 -3.58553 0
M  V30 16977 C 1558.75 -1.7179 -4.13754 0
M  V30 16978 C 1560.49 0.108072 -4.24362 0
M  V30 16979 C 1558.4 -1.77897 -5.64009 0
M  V30 16980 H 1557.33 -0.0719266 -0.750561 0
M  V30 16981 H 1559.98 -0.846614 -1.62803 0
M  V30 16982 H 1558.36 0.401098 -3.93963 0
M  V30 16983 H 1559.54 -2.45761 -3.89793 0
M  V30 16984 H 1557.85 -2.08539 -3.60417 0
M  V30 16985 H 1560.45 0.0826684 -5.34636 0
M  V30 16986 H 1560.79 1.14431 -4.00264 0
M  V30 16987 H 1561.33 -0.553285 -3.93933 0
M  V30 16988 H 1558.06 -2.79523 -5.92914 0
M  V30 16989 H 1557.58 -1.0829 -5.89944 0
M  V30 16990 H 1559.26 -1.53504 -6.28527 0
M  V30 16991 N 1559.4 1.51781 -0.424309 0
M  V30 16992 C 1560.33 2.30313 0.384462 0
M  V30 16993 C 1561.31 1.35166 1.03268 0
M  V30 16994 O 1562.49 1.64081 1.0388 0
M  V30 16995 C 1559.62 3.13566 1.49311 0
M  V30 16996 C 1558.58 4.16884 0.969096 0
M  V30 16997 C 1557.9 4.88576 2.17251 0
M  V30 16998 C 1559.2 5.22298 0.0125613 0
M  V30 16999 H 1560.9 2.98172 -0.270871 0
M  V30 17000 H 1558.44 1.43396 -0.131712 0
M  V30 17001 H 1560.39 3.67279 2.06602 0
M  V30 17002 H 1559.12 2.43504 2.17655 0
M  V30 17003 H 1557.78 3.64203 0.418494 0
M  V30 17004 H 1557.43 4.15029 2.84183 0
M  V30 17005 H 1557.13 5.58432 1.82833 0
M  V30 17006 H 1558.65 5.45107 2.75119 0
M  V30 17007 H 1560.06 5.71161 0.494744 0
M  V30 17008 H 1558.46 5.99606 -0.243544 0
M  V30 17009 H 1559.53 4.75935 -0.92813 0
M  V30 17010 N 1560.87 0.155222 1.56834 0
M  V30 17011 C 1561.82 -0.793251 2.13756 0
M  V30 17012 C 1562.81 -1.20386 1.06752 0
M  V30 17013 O 1564 -1.1689 1.32912 0
M  V30 17014 C 1561.13 -2.02904 2.7692 0
M  V30 17015 C 1560.21 -1.64116 3.91058 0
M  V30 17016 N 1560.61 -0.961946 4.96568 0
M  V30 17017 C 1558.9 -1.93331 4.01919 0
M  V30 17018 C 1559.6 -0.773392 5.76536 0
M  V30 17019 N 1558.58 -1.30983 5.27584 0
M  V30 17020 H 1562.38 -0.265174 2.92701 0
M  V30 17021 H 1559.9 -0.0460321 1.62335 0
M  V30 17022 H 1561.89 -2.7186 3.16066 0
M  V30 17023 H 1560.55 -2.56222 1.9945 0
M  V30 17024 H 1561.56 -0.621782 5.14154 0
M  V30 17025 H 1558.24 -2.4844 3.35535 0
M  V30 17026 H 1559.63 -0.237458 6.7148 0
M  V30 17027 N 1562.35 -1.57153 -0.118549 0
M  V30 17028 C 1563.3 -2.00374 -1.14538 0
M  V30 17029 C 1564.27 -0.875964 -1.41124 0
M  V30 17030 O 1565.45 -1.14022 -1.52982 0
M  V30 17031 C 1562.59 -2.4135 -2.46666 0
M  V30 17032 C 1561.71 -3.67545 -2.27012 0
M  V30 17033 C 1560.84 -3.975 -3.52374 0
M  V30 17034 C 1559.88 -5.16877 -3.27879 0
M  V30 17035 N 1559.02 -5.427 -4.45445 0
M  V30 17036 H 1563.86 -2.87885 -0.769821 0
M  V30 17037 H 1561.39 -1.42406 -0.368622 0
M  V30 17038 H 1563.35 -2.63144 -3.23745 0
M  V30 17039 H 1561.98 -1.5688 -2.82114 0
M  V30 17040 H 1561.03 -3.53364 -1.40848 0
M  V30 17041 H 1562.35 -4.54777 -2.04889 0
M  V30 17042 H 1561.5 -4.19945 -4.37871 0
M  V30 17043 H 1560.24 -3.08745 -3.77529 0
M  V30 17044 H 1559.24 -4.94276 -2.40773 0
M  V30 17045 H 1560.47 -6.0721 -3.04094 0
M  V30 17046 H 1558.42 -4.56902 -4.70719 0
M  V30 17047 H 1558.33 -6.24256 -4.26428 0
M  V30 17048 H 1559.6 -5.69664 -5.32074 0
M  V30 17049 N 1563.83 0.388742 -1.5273 0
M  V30 17050 C 1564.76 1.49441 -1.73781 0
M  V30 17051 C 1565.77 1.50602 -0.618285 0
M  V30 17052 O 1566.96 1.545 -0.893986 0
M  V30 17053 C 1564.06 2.88288 -1.78166 0
M  V30 17054 C 1563.24 3.11089 -3.07478 0
M  V30 17055 C 1562.3 4.2992 -3.03407 0
M  V30 17056 O 1561.32 4.26212 -3.77269 0
M  V30 17057 N 1562.52 5.36121 -2.2261 0
M  V30 17058 H 1565.29 1.3177 -2.69178 0
M  V30 17059 H 1562.85 0.578258 -1.51221 0
M  V30 17060 H 1564.84 3.65884 -1.72949 0
M  V30 17061 H 1563.41 2.99317 -0.901553 0
M  V30 17062 H 1562.63 2.21356 -3.26183 0
M  V30 17063 H 1563.92 3.23177 -3.92981 0
M  V30 17064 H 1563.32 5.41988 -1.62067 0
M  V30 17065 H 1561.87 6.12381 -2.23232 0
M  V30 17066 N 1565.31 1.43698 0.647203 0
M  V30 17067 C 1566.24 1.52135 1.77136 0
M  V30 17068 C 1567.22 0.375551 1.65902 0
M  V30 17069 O 1568.4 0.593564 1.84907 0
M  V30 17070 C 1565.53 1.44974 3.15594 0
M  V30 17071 C 1564.49 2.57866 3.41598 0
M  V30 17072 C 1563.81 2.35757 4.7992 0
M  V30 17073 C 1565.11 4.00089 3.35747 0
M  V30 17074 H 1566.81 2.46227 1.70332 0
M  V30 17075 H 1564.35 1.18507 0.818046 0
M  V30 17076 H 1566.31 1.4948 3.93997 0
M  V30 17077 H 1565.03 0.473905 3.23143 0
M  V30 17078 H 1563.69 2.52722 2.65569 0
M  V30 17079 H 1563.34 1.36403 4.84152 0
M  V30 17080 H 1563.04 3.11436 4.98278 0
M  V30 17081 H 1564.56 2.42055 5.60572 0
M  V30 17082 H 1565.98 4.06687 4.04078 0
M  V30 17083 H 1564.37 4.75842 3.65642 0
M  V30 17084 H 1565.44 4.24798 2.33825 0
M  V30 17085 N 1566.79 -0.886131 1.30328 0
M  V30 17086 C 1567.72 -2.00793 1.19183 0
M  V30 17087 C 1568.7 -1.69899 0.08276 0
M  V30 17088 O 1569.88 -1.92389 0.264593 0
M  V30 17089 C 1567.01 -3.35922 0.881669 0
M  V30 17090 C 1565.97 -3.81072 1.94855 0
M  V30 17091 C 1565.29 -5.1348 1.4914 0
M  V30 17092 C 1566.59 -3.99923 3.35944 0
M  V30 17093 H 1568.29 -2.10375 2.13032 0
M  V30 17094 H 1565.83 -1.0108 1.02561 0
M  V30 17095 H 1567.79 -4.13922 0.790359 0
M  V30 17096 H 1566.51 -3.26469 -0.0925037 0
M  V30 17097 H 1565.17 -3.053 2.02947 0
M  V30 17098 H 1564.82 -5.00453 0.50553 0
M  V30 17099 H 1564.52 -5.44659 2.205 0
M  V30 17100 H 1566.04 -5.94005 1.41386 0
M  V30 17101 H 1567.45 -4.68364 3.30617 0
M  V30 17102 H 1565.85 -4.42477 4.05381 0
M  V30 17103 H 1566.92 -3.03816 3.77921 0
M  V30 17104 N 1568.26 -1.13026 -1.09832 0
M  V30 17105 C 1569.21 -0.799174 -2.1844 0
M  V30 17106 C 1570.21 0.216695 -1.68008 0
M  V30 17107 O 1571.41 0.0742662 -1.79847 0
M  V30 17108 H 1567.79 -0.24064 -0.712458 0
M  V30 17109 H 1569.76 -1.72342 -2.436 0
M  V30 17110 C 1568.51 -0.276925 -3.46595 0
M  V30 17111 H 1567.83 -1.04993 -3.85768 0
M  V30 17112 H 1569.27 -0.0836468 -4.23917 0
M  V30 17113 C 1567.73 0.996479 -3.21826 0
M  V30 17114 O 1568.26 2.0731 -3.44072 0
M  V30 17115 N 1566.47 0.925903 -2.75455 0
M  V30 17116 H 1566.01 0.0496383 -2.57552 0
M  V30 17117 H 1565.97 1.77853 -2.5926 0
M  V30 17118 N 1569.74 1.27735 -0.923117 0
M  V30 17119 C 1570.69 2.28975 -0.409065 0
M  V30 17120 C 1571.68 1.61723 0.504194 0
M  V30 17121 O 1572.89 1.75848 0.384402 0
M  V30 17122 H 1569.27 0.743354 -0.113705 0
M  V30 17123 H 1571.24 2.69751 -1.27582 0
M  V30 17124 C 1569.99 3.46158 0.327099 0
M  V30 17125 H 1569.31 3.98117 -0.366444 0
M  V30 17126 H 1570.75 4.18968 0.65128 0
M  V30 17127 C 1569.21 2.99724 1.53842 0
M  V30 17128 O 1569.74 3.03001 2.6373 0
M  V30 17129 N 1567.94 2.55274 1.38865 0
M  V30 17130 H 1567.49 2.52807 0.494629 0
M  V30 17131 H 1567.45 2.24567 2.20039 0
M  V30 17132 N 1571.22 0.688118 1.41784 0
M  V30 17133 C 1572.47 0.213085 2.00571 0
M  V30 17134 C 1572.78 -1.19176 1.55101 0
M  V30 17135 O 1573.99 -1.76387 2.06397 0
M  V30 17136 C 1572.44 0.330075 3.58383 0
M  V30 17137 C 1572.05 1.73981 4.12837 0
M  V30 17138 C 1573.8 -0.0855651 4.24414 0
M  V30 17139 C 1571.7 1.80886 5.63058 0
M  V30 17140 H 1570.63 0.075906 0.750169 0
M  V30 17141 H 1573.28 0.855236 1.62351 0
M  V30 17142 H 1571.67 -0.380199 3.94171 0
M  V30 17143 H 1572.84 2.47825 3.88484 0
M  V30 17144 H 1571.16 2.10447 3.59306 0
M  V30 17145 H 1573.75 -0.0543142 5.34672 0
M  V30 17146 H 1574.1 -1.12307 4.00865 0
M  V30 17147 H 1574.63 0.574169 3.93635 0
M  V30 17148 H 1571.37 2.82663 5.91424 0
M  V30 17149 H 1570.89 1.11417 5.89361 0
M  V30 17150 H 1572.57 1.56835 6.27704 0
M  V30 17151 N 1572.7 -1.51554 0.432352 0
M  V30 17152 C 1573.63 -2.30514 -0.372243 0
M  V30 17153 C 1574.61 -1.35712 -1.02549 0
M  V30 17154 O 1575.79 -1.6463 -1.03009 0
M  V30 17155 C 1572.92 -3.14353 -1.47646 0
M  V30 17156 C 1571.88 -4.17392 -0.946974 0
M  V30 17157 C 1571.2 -4.89721 -2.14656 0
M  V30 17158 C 1572.5 -5.22298 0.0151377 0
M  V30 17159 H 1574.2 -2.98024 0.28668 0
M  V30 17160 H 1571.74 -1.43325 0.139315 0
M  V30 17161 H 1573.7 -3.68369 -2.04651 0
M  V30 17162 H 1572.42 -2.44654 -2.1636 0
M  V30 17163 H 1571.08 -3.6442 -0.399174 0
M  V30 17164 H 1570.73 -4.1653 -2.81978 0
M  V30 17165 H 1570.43 -5.59393 -1.79869 0
M  V30 17166 H 1571.95 -5.46559 -2.72224 0
M  V30 17167 H 1573.37 -5.71416 -0.464447 0
M  V30 17168 H 1571.76 -5.99468 0.275339 0
M  V30 17169 H 1572.83 -4.75436 0.953357 0
M  V30 17170 N 1574.18 -0.163538 -1.56749 0
M  V30 17171 C 1575.59 0.192717 -1.58432 0
M  V30 17172 C 1575.79 1.63438 -1.17856 0
M  V30 17173 O 1574.85 2.36425 -0.88654 0
M  V30 17174 C 1576.16 -0.0810427 -3.00591 0
M  V30 17175 C 1577.71 -0.0186378 -3.12994 0
M  V30 17176 C 1578.18 -0.265283 -4.57231 0
M  V30 17177 N 1579.68 -0.212787 -4.62711 0
M  V30 17178 C 1580.41 -0.37791 -5.72153 0
M  V30 17179 N 1579.91 -0.601663 -6.90182 0
M  V30 17180 N 1581.7 -0.314357 -5.6122 0
M  V30 17181 H 1573.85 -1.10467 -1.81413 0
M  V30 17182 H 1576.11 -0.438569 -0.840453 0
M  V30 17183 H 1575.82 -1.07944 -3.34725 0
M  V30 17184 H 1575.69 0.630888 -3.71887 0
M  V30 17185 H 1578.08 0.970324 -2.78691 0
M  V30 17186 H 1578.16 -0.763158 -2.44151 0
M  V30 17187 H 1577.81 -1.25142 -4.92242 0
M  V30 17188 H 1577.74 0.499756 -5.24223 0
M  V30 17189 H 1580.23 -0.0451754 -3.77873 0
M  V30 17190 H 1580.54 -0.717319 -7.69464 0
M  V30 17191 H 1578.88 -0.638184 -6.92064 0
M  V30 17192 H 1582.08 -0.140197 -4.6789 0
M  V30 17193 H 1582.25 -0.446472 -6.4646 0
M  V30 17194 N 1575.65 1.57214 0.110213 0
M  V30 17195 C 1576.62 2.00034 1.11888 0
M  V30 17196 C 1577.62 0.891697 1.33811 0
M  V30 17197 O 1578.81 1.15754 1.3018 0
M  V30 17198 C 1575.94 2.34806 2.47142 0
M  V30 17199 H 1577.13 2.90354 0.750647 0
M  V30 17200 H 1574.69 1.5222 0.35479 0
M  V30 17201 H 1575.42 1.47393 2.8887 0
M  V30 17202 H 1575.21 3.15671 2.32581 0
M  V30 17203 H 1576.7 2.68644 3.19719 0
M  V30 17204 N 1577.13 -0.380637 1.52934 0
M  V30 17205 C 1578.54 -0.958182 1.60237 0
M  V30 17206 C 1578.89 -1.90722 0.460393 0
M  V30 17207 O 1578.02 -2.12376 -0.415354 0
M  V30 17208 C 1578.61 -1.7446 2.90429 0
M  V30 17209 C 1577.17 -2.27172 3.00116 0
M  V30 17210 C 1576.32 -1.07969 2.55417 0
M  V30 17211 H 1579.27 -0.159908 1.57892 0
M  V30 17212 H 1579.29 -2.60456 2.77385 0
M  V30 17213 H 1578.8 -1.05362 3.73524 0
M  V30 17214 H 1576.91 -2.99557 2.21577 0
M  V30 17215 H 1577.02 -2.56086 4.04916 0
M  V30 17216 H 1575.38 -1.4422 2.09935 0
M  V30 17217 H 1576.17 -0.403925 3.40915 0
M  V30 17218 N 1578.61 -1.44039 -0.639573 0
M  V30 17219 C 1579.54 -1.44715 -1.76445 0
M  V30 17220 C 1580.52 -0.306957 -1.59676 0
M  V30 17221 O 1581.71 -0.502643 -1.81675 0
M  V30 17222 C 1578.83 -1.27177 -3.13917 0
M  V30 17223 C 1577.88 -2.44649 -3.49355 0
M  V30 17224 S 1578.71 -4.07191 -3.47787 0
M  V30 17225 C 1579.87 -3.92061 -4.87893 0
M  V30 17226 H 1580.1 -2.39897 -1.75603 0
M  V30 17227 H 1577.63 -1.31235 -0.813438 0
M  V30 17228 H 1579.59 -1.17745 -3.93251 0
M  V30 17229 H 1578.25 -0.335196 -3.12306 0
M  V30 17230 H 1577.45 -2.28219 -4.49369 0
M  V30 17231 H 1577.05 -2.50777 -2.77465 0
M  V30 17232 H 1579.34 -3.55229 -5.76904 0
M  V30 17233 H 1580.28 -4.91875 -5.09377 0
M  V30 17234 H 1580.69 -3.24271 -4.6207 0
M  V30 17235 N 1580.09 0.879207 -1.30796 0
M  V30 17236 C 1581.5 1.16344 -1.09253 0
M  V30 17237 C 1581.7 2.00992 0.142993 0
M  V30 17238 O 1580.76 2.38295 0.834966 0
M  V30 17239 C 1582.07 1.86452 -2.35915 0
M  V30 17240 C 1583.62 1.99193 -2.41436 0
M  V30 17241 C 1584.1 2.72714 -3.67955 0
M  V30 17242 N 1585.59 2.80256 -3.68796 0
M  V30 17243 C 1586.32 3.37732 -4.63384 0
M  V30 17244 N 1585.82 3.96212 -5.6832 0
M  V30 17245 N 1587.61 3.35602 -4.50918 0
M  V30 17246 H 1579.76 0.314928 -2.10052 0
M  V30 17247 H 1582.03 0.202087 -0.92621 0
M  V30 17248 H 1581.73 1.31699 -3.26111 0
M  V30 17249 H 1581.61 2.86796 -2.45006 0
M  V30 17250 H 1583.99 2.53113 -1.51716 0
M  V30 17251 H 1584.07 0.97919 -2.36317 0
M  V30 17252 H 1583.72 2.19464 -4.58037 0
M  V30 17253 H 1583.65 3.74376 -3.70338 0
M  V30 17254 H 1586.14 2.38742 -2.92935 0
M  V30 17255 H 1586.45 4.38153 -6.36586 0
M  V30 17256 H 1584.8 3.94615 -5.72105 0
M  V30 17257 H 1587.99 2.89147 -3.68119 0
M  V30 17258 H 1588.16 3.80099 -5.24813 0
M  V30 17259 N 1581.57 1.13606 1.09231 0
M  V30 17260 C 1582.81 0.899054 1.81448 0
M  V30 17261 C 1583.14 -0.574726 1.85815 0
M  V30 17262 O 1582.4 -1.44144 1.32366 0
M  V30 17263 C 1582.7 1.43456 3.27345 0
M  V30 17264 C 1582.36 2.92553 3.43109 0
M  V30 17265 C 1581.02 3.3326 3.47118 0
M  V30 17266 C 1583.38 3.88467 3.47481 0
M  V30 17267 C 1580.7 4.68562 3.53081 0
M  V30 17268 C 1583.06 5.23616 3.54978 0
M  V30 17269 C 1581.72 5.63847 3.57257 0
M  V30 17270 H 1580.99 0.328987 0.663964 0
M  V30 17271 H 1583.64 1.41834 1.28668 0
M  V30 17272 H 1581.94 0.83602 3.82777 0
M  V30 17273 H 1583.64 1.22723 3.81759 0
M  V30 17274 H 1580.23 2.60076 3.40674 0
M  V30 17275 H 1584.41 3.58103 3.43622 0
M  V30 17276 H 1579.67 4.99106 3.53134 0
M  V30 17277 H 1583.84 5.9775 3.57306 0
M  V30 17278 H 1581.47 6.68676 3.6163 0
M  V30 17279 N 1583.05 -1.27244 0.929878 0
M  V30 17280 C 1584.29 -1.94269 0.57146 0
M  V30 17281 C 1584.62 -1.73064 -0.887639 0
M  V30 17282 O 1583.88 -1.05422 -1.64878 0
M  V30 17283 C 1584.17 -3.47233 0.846386 0
M  V30 17284 C 1583.84 -3.88563 2.28757 0
M  V30 17285 C 1582.5 -3.99557 2.68156 0
M  V30 17286 C 1584.85 -4.09468 3.22467 0
M  V30 17287 C 1582.18 -4.28846 4.00385 0
M  V30 17288 C 1584.53 -4.40242 4.54279 0
M  V30 17289 C 1583.2 -4.4945 4.93509 0
M  V30 17290 H 1582.47 -0.710882 0.209112 0
M  V30 17291 H 1585.12 -1.51273 1.17425 0
M  V30 17292 H 1583.42 -3.91469 0.160941 0
M  V30 17293 H 1585.12 -3.97238 0.548006 0
M  V30 17294 H 1581.71 -3.80544 1.97192 0
M  V30 17295 H 1585.89 -4.00412 2.9323 0
M  V30 17296 H 1581.15 -4.34184 4.30458 0
M  V30 17297 H 1585.32 -4.55365 5.26892 0
M  V30 17298 H 1582.95 -4.71899 5.95999 0
M  V30 17299 N 1584.52 -0.695628 -1.41417 0
M  V30 17300 C 1585.8 -0.154646 -1.94988 0
M  V30 17301 C 1586.18 1.33534 -1.63499 0
M  V30 17302 O 1585.53 2.08178 -0.942031 0
M  V30 17303 C 1585.74 -0.446004 -3.46138 0
M  V30 17304 C 1587.09 -0.37378 -4.22952 0
M  V30 17305 O 1588.11 -0.380921 -3.54157 0
M  V30 17306 O 1586.97 -0.33395 -5.45479 0
M  V30 17307 H 1584.06 -0.0150053 -0.826864 0
M  V30 17308 H 1586.61 -0.771792 -1.51134 0
M  V30 17309 H 1585.38 -1.47734 -3.6234 0
M  V30 17310 H 1585 0.202111 -3.97086 0
M  V30 17311 N 1586 1.51322 -0.440383 0
M  V30 17312 C 1587.23 2.0653 0.123649 0
M  V30 17313 C 1587.64 1.30751 1.36197 0
M  V30 17314 O 1587 0.367932 1.78753 0
M  V30 17315 C 1587.05 3.58778 0.442802 0
M  V30 17316 O 1586.77 4.31695 -0.746375 0
M  V30 17317 C 1588.27 4.3051 1.05717 0
M  V30 17318 H 1585.49 0.670968 0.00657466 0
M  V30 17319 H 1588.04 1.94864 -0.620341 0
M  V30 17320 H 1586.19 3.70349 1.13669 0
M  V30 17321 H 1586.61 5.22368 -0.472466 0
M  V30 17322 H 1588.08 5.38111 1.23046 0
M  V30 17323 H 1588.56 3.88999 2.03903 0
M  V30 17324 H 1589.16 4.2339 0.402574 0
M  V30 17325 N 1587.48 0.171848 1.5666 0
M  V30 17326 C 1588.71 -0.479221 2.01274 0
M  V30 17327 C 1589.12 -1.56771 1.05206 0
M  V30 17328 O 1588.48 -1.82423 0.0530164 0
M  V30 17329 C 1588.53 -1.05705 3.457 0
M  V30 17330 O 1588.25 -0.0120133 4.38098 0
M  V30 17331 C 1589.75 -1.78629 4.05717 0
M  V30 17332 H 1586.97 -0.122598 0.659705 0
M  V30 17333 H 1589.52 0.273733 2.0266 0
M  V30 17334 H 1587.67 -1.7605 3.45087 0
M  V30 17335 H 1588.09 -0.438714 5.22662 0
M  V30 17336 H 1589.56 -2.14319 5.08696 0
M  V30 17337 H 1590.04 -2.68149 3.4784 0
M  V30 17338 H 1590.64 -1.12925 4.10034 0
M  V30 17339 N 1588.96 -1.5727 -0.101874 0
M  V30 17340 C 1590.37 -1.74753 -0.657147 0
M  V30 17341 C 1590.72 -0.793052 -1.79458 0
M  V30 17342 O 1589.84 0.0300559 -2.16379 0
M  V30 17343 C 1590.44 -3.1688 -1.19885 0
M  V30 17344 C 1589 -3.3581 -1.70025 0
M  V30 17345 C 1588.15 -2.70575 -0.607007 0
M  V30 17346 H 1591.1 -1.58214 0.124158 0
M  V30 17347 H 1591.12 -3.19378 -2.06829 0
M  V30 17348 H 1590.63 -3.86325 -0.37079 0
M  V30 17349 H 1588.73 -2.71434 -2.55253 0
M  V30 17350 H 1588.84 -4.44086 -1.79791 0
M  V30 17351 H 1587.21 -2.32284 -1.04481 0
M  V30 17352 H 1587.99 -3.42655 0.21036 0
M  V30 17353 N 1590.44 0.372521 -1.53134 0
M  V30 17354 C 1591.66 1.13668 -1.72879 0
M  V30 17355 C 1592.08 1.83246 -0.454588 0
M  V30 17356 O 1591.44 1.73302 0.572062 0
M  V30 17357 C 1591.49 2.17226 -2.88955 0
M  V30 17358 O 1591.21 1.50483 -4.11445 0
M  V30 17359 C 1592.71 3.06243 -3.20516 0
M  V30 17360 H 1589.93 0.340156 -0.57839 0
M  V30 17361 H 1592.47 0.433557 -1.99851 0
M  V30 17362 H 1590.63 2.83148 -2.64397 0
M  V30 17363 H 1591.04 2.19425 -4.76396 0
M  V30 17364 H 1592.52 3.74901 -4.05158 0
M  V30 17365 H 1592.99 3.70669 -2.35587 0
M  V30 17366 H 1593.6 2.45946 -3.46973 0
M  V30 17367 N 1591.91 1.44376 0.631925 0
M  V30 17368 C 1593.16 1.46827 1.38875 0
M  V30 17369 C 1593.48 0.101789 1.94734 0
M  V30 17370 O 1592.75 -0.86579 1.7573 0
M  V30 17371 H 1591.33 0.540642 0.515475 0
M  V30 17372 H 1593.99 1.80148 0.743822 0
M  V30 17373 H 1593.09 2.19321 2.22047 0
M  V30 17374 N 1593.39 -0.872258 1.31261 0
M  V30 17375 C 1594.81 -1.15763 1.09868 0
M  V30 17376 C 1595.01 -2.01065 -0.132331 0
M  V30 17377 O 1594.06 -2.38735 -0.822317 0
M  V30 17378 C 1595.38 -1.85199 2.36901 0
M  V30 17379 C 1596.92 -1.9791 2.42489 0
M  V30 17380 C 1597.4 -2.70759 3.69396 0
M  V30 17381 N 1598.89 -2.78296 3.70278 0
M  V30 17382 C 1599.63 -3.3527 4.65168 0
M  V30 17383 N 1599.12 -3.93193 5.70413 0
M  V30 17384 N 1600.91 -3.33206 4.52692 0
M  V30 17385 H 1593.07 -0.303784 2.10216 0
M  V30 17386 H 1595.33 -0.197172 0.927269 0
M  V30 17387 H 1595.03 -1.29968 3.26804 0
M  V30 17388 H 1594.91 -2.85493 2.46523 0
M  V30 17389 H 1597.3 -2.52305 1.53056 0
M  V30 17390 H 1597.38 -0.966644 2.36833 0
M  V30 17391 H 1597.02 -2.17031 4.59195 0
M  V30 17392 H 1596.95 -3.72407 3.72318 0
M  V30 17393 H 1599.44 -2.37185 2.94197 0
M  V30 17394 H 1599.75 -4.34771 6.38901 0
M  V30 17395 H 1598.1 -3.91575 5.7419 0
M  V30 17396 H 1601.29 -2.87191 3.69647 0
M  V30 17397 H 1601.46 -3.7731 5.26822 0
M  V30 17398 N 1594.87 -1.14184 -1.08627 0
M  V30 17399 C 1596.12 -0.903271 -1.80344 0
M  V30 17400 C 1596.43 0.571801 -1.87056 0
M  V30 17401 O 1597.64 0.92756 -2.55164 0
M  V30 17402 C 1596.09 -1.56653 -3.24018 0
M  V30 17403 C 1595.7 -3.07771 -3.25548 0
M  V30 17404 C 1597.45 -1.40899 -4.00434 0
M  V30 17405 C 1595.35 -3.66943 -4.63796 0
M  V30 17406 H 1594.28 -0.334288 -0.675846 0
M  V30 17407 H 1596.93 -1.3705 -1.22023 0
M  V30 17408 H 1595.32 -1.02698 -3.82452 0
M  V30 17409 H 1596.49 -3.68375 -2.76834 0
M  V30 17410 H 1594.8 -3.23136 -2.62625 0
M  V30 17411 H 1597.4 -1.82511 -5.02587 0
M  V30 17412 H 1597.74 -0.354822 -4.14785 0
M  V30 17413 H 1598.28 -1.91879 -3.48464 0
M  V30 17414 H 1595.02 -4.72203 -4.54648 0
M  V30 17415 H 1594.54 -3.11119 -5.12801 0
M  V30 17416 H 1596.22 -3.67103 -5.32771 0
M  V30 17417 N 1596.35 1.26749 -0.936613 0
M  V30 17418 C 1597.59 1.94251 -0.582616 0
M  V30 17419 C 1597.93 1.73352 0.875361 0
M  V30 17420 O 1597.2 1.06784 1.62565 0
M  V30 17421 C 1597.49 3.48145 -0.920151 0
M  V30 17422 C 1597.34 3.78349 -2.43253 0
M  V30 17423 C 1598.66 4.37971 -0.432326 0
M  V30 17424 H 1595.78 0.705507 -0.213141 0
M  V30 17425 H 1598.42 1.49703 -1.17001 0
M  V30 17426 H 1596.57 3.8622 -0.420279 0
M  V30 17427 H 1598.24 3.50015 -3.00478 0
M  V30 17428 H 1596.48 3.24586 -2.87795 0
M  V30 17429 H 1597.15 4.85902 -2.61922 0
M  V30 17430 H 1599.63 4.07098 -0.860857 0
M  V30 17431 H 1598.51 5.44452 -0.697366 0
M  V30 17432 H 1598.77 4.37029 0.667694 0
M  V30 17433 N 1597.83 0.703118 1.41046 0
M  V30 17434 C 1598.77 0.0312802 2.32579 0
M  V30 17435 C 1599.77 -0.760463 1.51371 0
M  V30 17436 O 1600.97 -0.665235 1.67256 0
M  V30 17437 H 1597.35 -0.00868655 0.75195 0
M  V30 17438 H 1599.32 0.820195 2.86907 0
M  V30 17439 C 1598.07 -0.885639 3.36232 0
M  V30 17440 H 1597.39 -0.285819 3.98777 0
M  V30 17441 H 1598.83 -1.3239 4.02801 0
M  V30 17442 C 1597.29 -2.00533 2.70718 0
M  V30 17443 O 1597.82 -3.09491 2.56082 0
M  V30 17444 N 1596.03 -1.78528 2.29295 0
M  V30 17445 H 1595.57 -0.899139 2.41399 0
M  V30 17446 H 1595.53 -2.53627 1.85797 0
M  V30 17447 N 1599.3 -1.51086 0.448402 0
M  V30 17448 C 1600.72 -1.59278 0.101286 0
M  V30 17449 C 1600.92 -1.45847 -1.39036 0
M  V30 17450 O 1599.98 -1.30534 -2.16142 0
M  V30 17451 C 1601.29 -2.93999 0.631264 0
M  V30 17452 C 1602.84 -3.07337 0.59268 0
M  V30 17453 C 1603.31 -4.44599 1.09982 0
M  V30 17454 N 1604.8 -4.50949 1.05827 0
M  V30 17455 C 1605.54 -5.55503 1.42142 0
M  V30 17456 N 1605.03 -6.67422 1.85796 0
M  V30 17457 N 1606.83 -5.45922 1.33888 0
M  V30 17458 H 1598.98 -1.58062 1.41881 0
M  V30 17459 H 1601.24 -0.745702 0.585349 0
M  V30 17460 H 1600.95 -3.09233 1.67534 0
M  V30 17461 H 1600.82 -3.77149 0.0622533 0
M  V30 17462 H 1603.21 -2.91764 -0.442437 0
M  V30 17463 H 1603.29 -2.26 1.19823 0
M  V30 17464 H 1602.93 -4.60919 2.13345 0
M  V30 17465 H 1602.86 -5.24492 0.470703 0
M  V30 17466 H 1605.35 -3.70627 0.737822 0
M  V30 17467 H 1605.67 -7.43234 2.11714 0
M  V30 17468 H 1604.01 -6.68601 1.89731 0
M  V30 17469 H 1607.2 -4.57372 0.996415 0
M  V30 17470 H 1607.38 -6.2729 1.62517 0
M  V30 17471 N 1600.78 -0.180154 -1.56567 0
M  V30 17472 C 1602.03 0.46252 -1.97147 0
M  V30 17473 C 1602.36 1.62654 -1.06649 0
M  V30 17474 O 1601.61 1.95432 -0.102417 0
M  V30 17475 C 1601.91 0.978895 -3.43733 0
M  V30 17476 C 1601.58 -0.0701623 -4.50845 0
M  V30 17477 C 1600.24 -0.358456 -4.79863 0
M  V30 17478 C 1602.59 -0.781763 -5.15304 0
M  V30 17479 C 1599.92 -1.36359 -5.70634 0
M  V30 17480 C 1602.27 -1.77594 -6.0716 0
M  V30 17481 C 1600.94 -2.07159 -6.3454 0
M  V30 17482 H 1600.21 0.169248 -0.721413 0
M  V30 17483 H 1602.85 -0.273976 -1.8953 0
M  V30 17484 H 1601.16 1.79338 -3.48346 0
M  V30 17485 H 1602.85 1.4853 -3.72478 0
M  V30 17486 H 1599.44 0.164708 -4.28283 0
M  V30 17487 H 1603.63 -0.572254 -4.9299 0
M  V30 17488 H 1598.88 -1.59872 -5.90128 0
M  V30 17489 H 1603.06 -2.33265 -6.56171 0
M  V30 17490 H 1600.69 -2.85191 -7.04677 0
M  V30 17491 N 1602.26 1.57322 0.0935319 0
M  V30 17492 C 1603.22 2.0121 1.0976 0
M  V30 17493 C 1604.22 0.905839 1.32858 0
M  V30 17494 O 1605.41 1.17128 1.28945 0
M  V30 17495 C 1602.55 2.37414 2.44638 0
M  V30 17496 H 1603.74 2.91134 0.719809 0
M  V30 17497 H 1601.29 1.52588 0.338625 0
M  V30 17498 H 1602.03 1.50449 2.8729 0
M  V30 17499 H 1601.81 3.1812 2.2922 0
M  V30 17500 H 1603.3 2.7202 3.16851 0
M  V30 17501 N 1603.74 -0.364395 1.53329 0
M  V30 17502 C 1604.99 -1.10473 1.69234 0
M  V30 17503 C 1605.31 -1.89799 0.447347 0
M  V30 17504 O 1604.58 -1.8835 -0.538612 0
M  V30 17505 H 1603.16 -0.410826 0.623884 0
M  V30 17506 H 1605.82 -0.410721 1.90523 0
M  V30 17507 H 1604.92 -1.79387 2.55396 0
M  V30 17508 N 1605.22 -1.44709 -0.62426 0
M  V30 17509 C 1606.49 -1.38328 -1.38292 0
M  V30 17510 C 1606.87 -0.0454388 -2.11051 0
M  V30 17511 O 1606.22 0.972183 -2.06787 0
M  V30 17512 C 1606.43 -2.58602 -2.34364 0
M  V30 17513 C 1607.78 -3.02966 -2.97484 0
M  V30 17514 O 1608.8 -2.58856 -2.44688 0
M  V30 17515 O 1607.66 -3.79466 -3.93278 0
M  V30 17516 H 1604.76 -0.54812 -0.619269 0
M  V30 17517 H 1607.3 -1.5681 -0.648741 0
M  V30 17518 H 1606.07 -3.47573 -1.79746 0
M  V30 17519 H 1605.7 -2.42368 -3.15188 0
M  V30 17520 N 1606.69 0.865285 -1.31722 0
M  V30 17521 C 1607.94 1.6135 -1.21033 0
M  V30 17522 C 1608.26 1.94253 0.229141 0
M  V30 17523 O 1609.46 2.67613 0.457771 0
M  V30 17524 C 1607.92 2.90898 -2.11912 0
M  V30 17525 C 1607.53 2.6546 -3.60881 0
M  V30 17526 C 1609.27 3.68898 -2.10035 0
M  V30 17527 C 1607.18 3.90943 -4.43754 0
M  V30 17528 H 1606.11 0.605418 -0.449428 0
M  V30 17529 H 1608.76 0.956335 -1.56609 0
M  V30 17530 H 1607.14 3.58014 -1.69239 0
M  V30 17531 H 1608.31 2.06721 -4.11829 0
M  V30 17532 H 1606.63 2.00806 -3.64782 0
M  V30 17533 H 1609.23 4.61995 -2.69193 0
M  V30 17534 H 1609.57 4.01813 -1.08865 0
M  V30 17535 H 1610.1 3.08671 -2.50932 0
M  V30 17536 H 1606.84 3.63176 -5.45696 0
M  V30 17537 H 1606.36 4.49116 -3.97561 0
M  V30 17538 H 1608.04 4.58784 -4.56208 0
M  V30 17539 N 1608.17 1.14759 1.0802 0
M  V30 17540 C 1609.4 0.942316 1.84757 0
M  V30 17541 C 1609.82 -0.504188 1.81217 0
M  V30 17542 O 1609.18 -1.35891 1.20014 0
M  V30 17543 C 1609.23 1.45271 3.30043 0
M  V30 17544 O 1608.33 0.647414 4.07287 0
M  V30 17545 H 1607.67 0.336613 0.572353 0
M  V30 17546 H 1610.2 1.52578 1.36313 0
M  V30 17547 H 1610.21 1.4626 3.80883 0
M  V30 17548 H 1608.89 2.50583 3.31935 0
M  V30 17549 H 1607.47 0.706595 3.66144 0
M  V30 17550 N 1609.65 -1.26251 0.943322 0
M  V30 17551 C 1610.88 -1.97739 0.608852 0
M  V30 17552 C 1611.29 -1.70225 -0.81663 0
M  V30 17553 O 1610.65 -0.97172 -1.54479 0
M  V30 17554 C 1610.7 -3.51505 0.844172 0
M  V30 17555 O 1610.42 -3.78063 2.21359 0
M  V30 17556 C 1611.92 -4.40233 0.52054 0
M  V30 17557 H 1609.14 -0.630619 0.229262 0
M  V30 17558 H 1611.69 -1.6071 1.26461 0
M  V30 17559 H 1609.84 -3.86687 0.23499 0
M  V30 17560 H 1610.26 -4.72582 2.27523 0
M  V30 17561 H 1611.73 -5.47074 0.735802 0
M  V30 17562 H 1612.21 -4.35811 -0.544541 0
M  V30 17563 H 1612.81 -4.10599 1.10854 0
M  V30 17564 N 1611.13 -0.710588 -1.40671 0
M  V30 17565 C 1612.38 -0.248316 -2.01274 0
M  V30 17566 C 1612.71 1.1539 -1.56201 0
M  V30 17567 O 1611.98 1.78182 -0.779838 0
M  V30 17568 C 1612.27 -0.322762 -3.58651 0
M  V30 17569 C 1612.12 -1.763 -4.1381 0
M  V30 17570 C 1613.44 0.308908 -4.39015 0
M  V30 17571 H 1610.56 -0.0917037 -0.731272 0
M  V30 17572 H 1613.2 -0.902145 -1.67216 0
M  V30 17573 H 1611.35 0.233923 -3.87795 0
M  V30 17574 H 1613.02 -2.37468 -3.95483 0
M  V30 17575 H 1611.26 -2.29233 -3.68286 0
M  V30 17576 H 1611.94 -1.76652 -5.22971 0
M  V30 17577 H 1614.41 -0.165363 -4.15771 0
M  V30 17578 H 1613.29 0.226347 -5.48433 0
M  V30 17579 H 1613.55 1.39174 -4.19622 0
M  V30 17580 N 1612.61 1.50847 -0.456408 0
M  V30 17581 C 1613.88 1.94907 0.164485 0
M  V30 17582 C 1614.26 1.39609 1.58343 0
M  V30 17583 O 1613.61 0.590971 2.20726 0
M  V30 17584 C 1613.82 3.48784 0.122794 0
M  V30 17585 C 1615.17 4.234 0.318964 0
M  V30 17586 O 1616.19 3.55638 0.20005 0
M  V30 17587 O 1615.05 5.43649 0.557507 0
M  V30 17588 H 1612.15 0.818298 0.119652 0
M  V30 17589 H 1614.69 1.61673 -0.515758 0
M  V30 17590 H 1613.47 3.81541 -0.868468 0
M  V30 17591 H 1613.09 3.88514 0.84513 0
M  V30 17592 N 1614.09 0.188454 1.56469 0
M  V30 17593 C 1615.36 -0.499324 1.89119 0
M  V30 17594 C 1615.74 -1.80116 1.10098 0
M  V30 17595 O 1615.09 -2.27623 0.200048 0
M  V30 17596 C 1615.3 -0.724574 3.41396 0
M  V30 17597 C 1616.65 -1.04692 4.11491 0
M  V30 17598 O 1617.67 -0.812526 3.46809 0
M  V30 17599 O 1616.53 -1.48998 5.25797 0
M  V30 17600 H 1613.63 -0.259468 0.785242 0
M  V30 17601 H 1616.17 0.228172 1.68159 0
M  V30 17602 H 1614.94 0.195039 3.90814 0
M  V30 17603 H 1614.57 -1.50477 3.68025 0
M  V30 17604 N 1615.56 -1.5737 -0.0851874 0
M  V30 17605 C 1616.79 -1.90802 -0.800137 0
M  V30 17606 C 1617.21 -0.783132 -1.71792 0
M  V30 17607 O 1616.56 0.244331 -1.80857 0
M  V30 17608 C 1616.61 -3.2391 -1.60513 0
M  V30 17609 O 1616.34 -4.32072 -0.724253 0
M  V30 17610 C 1617.84 -3.7127 -2.42226 0
M  V30 17611 H 1615.06 -0.630988 -0.228242 0
M  V30 17612 H 1617.6 -2.04414 -0.0594587 0
M  V30 17613 H 1615.76 -3.11867 -2.29822 0
M  V30 17614 H 1616.17 -5.08571 -1.28279 0
M  V30 17615 H 1617.64 -4.67074 -2.94187 0
M  V30 17616 H 1618.12 -2.99606 -3.21143 0
M  V30 17617 H 1618.73 -3.86214 -1.78099 0
M  V30 17618 N 1617.04 0.356258 -1.53521 0
M  V30 17619 C 1617.97 1.44271 -1.83598 0
M  V30 17620 C 1618.95 1.5547 -0.690141 0
M  V30 17621 O 1620.14 1.69886 -0.940868 0
M  V30 17622 C 1617.27 2.8149 -2.03422 0
M  V30 17623 C 1616.22 2.85108 -3.19213 0
M  V30 17624 C 1615.55 4.25091 -3.24348 0
M  V30 17625 C 1616.85 2.51788 -4.57602 0
M  V30 17626 H 1618.54 1.1935 -2.74583 0
M  V30 17627 H 1616.09 0.572707 -1.32121 0
M  V30 17628 H 1618.04 3.57531 -2.23046 0
M  V30 17629 H 1616.76 3.07819 -1.09155 0
M  V30 17630 H 1615.42 2.1152 -2.99424 0
M  V30 17631 H 1615.07 4.4851 -2.277 0
M  V30 17632 H 1614.77 4.28426 -4.0215 0
M  V30 17633 H 1616.3 5.02992 -3.46167 0
M  V30 17634 H 1617.71 3.17542 -4.77326 0
M  V30 17635 H 1616.11 2.66426 -5.37715 0
M  V30 17636 H 1617.18 1.4701 -4.62078 0
M  V30 17637 N 1618.52 1.45038 0.616577 0
M  V30 17638 C 1619.93 1.4316 1.19842 0
M  V30 17639 C 1620.28 0.154504 1.95591 0
M  V30 17640 O 1619.41 -0.744409 2.03193 0
M  V30 17641 C 1620 2.59354 2.17993 0
M  V30 17642 C 1618.56 2.60625 2.71573 0
M  V30 17643 C 1617.71 2.35243 1.4682 0
M  V30 17644 H 1620.66 1.53408 0.406402 0
M  V30 17645 H 1620.68 2.32939 3.00865 0
M  V30 17646 H 1620.19 3.52288 1.62833 0
M  V30 17647 H 1618.29 1.71672 3.30695 0
M  V30 17648 H 1618.41 3.59568 3.16619 0
M  V30 17649 H 1616.77 1.84622 1.75462 0
M  V30 17650 H 1617.55 3.3031 0.935414 0
M  V30 17651 N 1620 -0.858287 1.32179 0
M  V30 17652 C 1620.93 -1.97304 1.16636 0
M  V30 17653 C 1621.94 -1.62478 0.102311 0
M  V30 17654 O 1623.13 -1.75016 0.350926 0
M  V30 17655 C 1620.23 -3.30215 0.762337 0
M  V30 17656 C 1619.4 -3.93305 1.9139 0
M  V30 17657 C 1618.46 -5.04545 1.49402 0
M  V30 17658 O 1617.49 -5.24735 2.20548 0
M  V30 17659 N 1618.69 -5.79202 0.387984 0
M  V30 17660 H 1621.46 -2.11179 2.12658 0
M  V30 17661 H 1619.02 -1.03294 1.24668 0
M  V30 17662 H 1621.01 -4.02032 0.463922 0
M  V30 17663 H 1619.58 -3.12418 -0.10662 0
M  V30 17664 H 1618.8 -3.1432 2.37901 0
M  V30 17665 H 1620.09 -4.32192 2.68492 0
M  V30 17666 H 1619.49 -5.65331 -0.204252 0
M  V30 17667 H 1618.04 -6.51629 0.149158 0
M  V30 17668 N 1621.48 -1.1533 -1.07409 0
M  V30 17669 C 1622.7 -0.952101 -1.84255 0
M  V30 17670 C 1623.13 0.494571 -1.81482 0
M  V30 17671 O 1622.48 1.35253 -1.20733 0
M  V30 17672 C 1622.53 -1.47019 -3.29268 0
M  V30 17673 O 1621.64 -0.669005 -4.06937 0
M  V30 17674 H 1620.98 -0.339643 -0.57056 0
M  V30 17675 H 1623.51 -1.53298 -1.35502 0
M  V30 17676 H 1623.52 -1.48278 -3.80102 0
M  V30 17677 H 1622.19 -2.5234 -3.30602 0
M  V30 17678 H 1620.77 -0.726003 -3.65764 0
M  V30 17679 N 1622.95 1.25748 -0.950004 0
M  V30 17680 C 1623.88 2.28419 -0.484467 0
M  V30 17681 C 1624.86 1.63569 0.466813 0
M  V30 17682 O 1626.05 1.90705 0.366766 0
M  V30 17683 C 1623.18 3.46449 0.242916 0
M  V30 17684 C 1622.13 4.23447 -0.622657 0
M  V30 17685 C 1621.46 5.34182 0.235199 0
M  V30 17686 C 1622.76 4.86576 -1.89845 0
M  V30 17687 H 1624.45 2.6761 -1.34257 0
M  V30 17688 H 1622 1.28646 -0.647014 0
M  V30 17689 H 1623.95 4.17394 0.579693 0
M  V30 17690 H 1622.68 3.06235 1.13523 0
M  V30 17691 H 1621.34 3.54279 -0.942453 0
M  V30 17692 H 1620.98 4.90209 1.12713 0
M  V30 17693 H 1620.68 5.86612 -0.340609 0
M  V30 17694 H 1622.21 6.07961 0.567048 0
M  V30 17695 H 1623.62 5.49688 -1.62837 0
M  V30 17696 H 1622.02 5.49162 -2.41954 0
M  V30 17697 H 1623.09 4.09021 -2.60441 0
M  V30 17698 N 1624.43 0.718038 1.40292 0
M  V30 17699 C 1625.85 0.391848 1.54715 0
M  V30 17700 C 1626.05 -1.09911 1.68884 0
M  V30 17701 O 1625.1 -1.88518 1.6798 0
M  V30 17702 C 1626.42 1.16005 2.77423 0
M  V30 17703 C 1627.96 1.14659 2.91243 0
M  V30 17704 C 1628.44 1.897 4.16867 0
M  V30 17705 N 1629.93 1.86781 4.23872 0
M  V30 17706 C 1630.67 2.41665 5.19986 0
M  V30 17707 N 1630.16 3.05116 6.21994 0
M  V30 17708 N 1631.95 2.31794 5.12082 0
M  V30 17709 H 1624.11 1.68477 1.29342 0
M  V30 17710 H 1626.37 0.712248 0.625625 0
M  V30 17711 H 1626.07 2.21435 2.73239 0
M  V30 17712 H 1625.95 0.75328 3.69602 0
M  V30 17713 H 1628.34 0.100477 2.94929 0
M  V30 17714 H 1628.42 1.5926 2.00175 0
M  V30 17715 H 1628.06 2.94303 4.13942 0
M  V30 17716 H 1627.99 1.42518 5.06948 0
M  V30 17717 H 1630.48 1.40541 3.50794 0
M  V30 17718 H 1630.79 3.44505 6.91763 0
M  V30 17719 H 1629.14 3.09201 6.22431 0
M  V30 17720 H 1632.33 1.81879 4.31321 0
M  V30 17721 H 1632.5 2.74868 5.86815 0
M  V30 17722 N 1625.91 -1.50602 0.464402 0
M  V30 17723 C 1627.14 -2.07191 -0.0930678 0
M  V30 17724 C 1627.56 -1.32675 -1.33338 0
M  V30 17725 O 1626.92 -0.372453 -1.77433 0
M  V30 17726 C 1626.97 -3.5873 -0.366775 0
M  V30 17727 O 1626.07 -3.86125 -1.44849 0
M  V30 17728 H 1625.41 -0.663924 0.0100336 0
M  V30 17729 H 1627.94 -1.93882 0.653522 0
M  V30 17730 H 1627.95 -4.03425 -0.609258 0
M  V30 17731 H 1626.63 -4.12385 0.539608 0
M  V30 17732 H 1625.2 -3.53273 -1.19384 0
M  V30 17733 N 1627.39 -0.19675 -1.56367 0
M  V30 17734 C 1628.63 0.435602 -1.98681 0
M  V30 17735 C 1628.99 1.59124 -1.08155 0
M  V30 17736 O 1628.28 1.91183 -0.126295 0
M  V30 17737 C 1628.48 0.942382 -3.44752 0
M  V30 17738 C 1628.31 -0.162611 -4.49406 0
M  V30 17739 C 1627.08 -0.620794 -5.01472 0
M  V30 17740 C 1629.27 -0.972148 -5.05028 0
M  V30 17741 N 1627.26 -1.70344 -5.89793 0
M  V30 17742 C 1628.63 -1.90416 -5.90035 0
M  V30 17743 C 1630.68 -1.01438 -4.87457 0
M  V30 17744 C 1629.38 -2.8749 -6.5935 0
M  V30 17745 C 1631.41 -1.97318 -5.57512 0
M  V30 17746 C 1630.77 -2.89262 -6.42267 0
M  V30 17747 H 1626.87 0.126773 -0.771656 0
M  V30 17748 H 1629.46 -0.302824 -1.92331 0
M  V30 17749 H 1627.63 1.65024 -3.51598 0
M  V30 17750 H 1629.36 1.54548 -3.74028 0
M  V30 17751 H 1626.11 -0.213841 -4.73117 0
M  V30 17752 H 1626.54 -2.24601 -6.38658 0
M  V30 17753 H 1631.18 -0.31751 -4.21606 0
M  V30 17754 H 1628.9 -3.58152 -7.24398 0
M  V30 17755 H 1632.48 -2.01228 -5.45892 0
M  V30 17756 H 1631.36 -3.62244 -6.95521 0
M  V30 17757 N 1628.87 1.57413 0.0768405 0
M  V30 17758 C 1630.12 1.86186 0.775741 0
M  V30 17759 C 1630.43 0.788676 1.78995 0
M  V30 17760 O 1631.63 0.964095 2.53806 0
M  V30 17761 C 1630.09 3.30247 1.43055 0
M  V30 17762 C 1629.7 4.45682 0.45517 0
M  V30 17763 C 1631.44 3.68225 2.11211 0
M  V30 17764 C 1629.35 5.80782 1.11561 0
M  V30 17765 H 1628.28 0.694546 0.293466 0
M  V30 17766 H 1630.93 1.83477 0.0289478 0
M  V30 17767 H 1629.31 3.27552 2.22544 0
M  V30 17768 H 1630.49 4.59759 -0.309535 0
M  V30 17769 H 1628.8 4.16222 -0.121671 0
M  V30 17770 H 1631.4 4.66454 2.6139 0
M  V30 17771 H 1631.74 2.9777 2.90928 0
M  V30 17772 H 1632.27 3.72888 1.38561 0
M  V30 17773 H 1629.01 6.54517 0.358877 0
M  V30 17774 H 1628.53 5.70515 1.8513 0
M  V30 17775 H 1630.21 6.25951 1.63689 0
M  V30 17776 N 1630.34 -0.348112 1.53707 0
M  V30 17777 C 1631.57 -1.10903 1.74666 0
M  V30 17778 C 1631.99 -1.82499 0.483683 0
M  V30 17779 O 1631.34 -1.74191 -0.544419 0
M  V30 17780 C 1631.4 -2.12602 2.92374 0
M  V30 17781 O 1631.12 -1.43918 4.13787 0
M  V30 17782 C 1632.62 -3.01105 3.25347 0
M  V30 17783 H 1629.84 -0.330911 0.583728 0
M  V30 17784 H 1632.38 -0.401707 2.00516 0
M  V30 17785 H 1630.54 -2.78906 2.68869 0
M  V30 17786 H 1630.95 -2.11818 4.79826 0
M  V30 17787 H 1632.42 -3.68408 4.11071 0
M  V30 17788 H 1632.9 -3.66874 2.41455 0
M  V30 17789 H 1633.51 -2.40395 3.50842 0
M  V30 17790 N 1631.82 -1.45363 -0.608876 0
M  V30 17791 C 1633.06 -1.50852 -1.37925 0
M  V30 17792 C 1633.43 -0.146034 -1.91444 0
M  V30 17793 O 1634.63 -0.0756115 -2.68694 0
M  V30 17794 C 1632.9 -2.55668 -2.49737 0
M  V30 17795 S 1634.46 -2.80371 -3.37546 0
M  V30 17796 H 1631.28 -0.533283 -0.470244 0
M  V30 17797 H 1633.88 -1.82435 -0.702697 0
M  V30 17798 H 1632.58 -3.53334 -2.08767 0
M  V30 17799 H 1632.11 -2.25731 -3.22194 0
M  V30 17800 H 1634.13 -2.13653 -4.47847 0
M  V30 17801 N 1633.3 0.851265 -1.32632 0
M  V30 17802 C 1634.55 1.60569 -1.23385 0
M  V30 17803 C 1634.88 1.93433 0.203484 0
M  V30 17804 O 1634.13 1.57806 1.1574 0
M  V30 17805 C 1634.43 2.93312 -2.04212 0
M  V30 17806 C 1634.1 2.79864 -3.53535 0
M  V30 17807 C 1632.76 2.75903 -3.94247 0
M  V30 17808 C 1635.11 2.65553 -4.48476 0
M  V30 17809 C 1632.44 2.55515 -5.28137 0
M  V30 17810 C 1634.79 2.467 -5.82514 0
M  V30 17811 C 1633.45 2.41134 -6.22423 0
M  V30 17812 H 1632.72 0.587563 -0.451498 0
M  V30 17813 H 1635.37 0.987209 -1.64093 0
M  V30 17814 H 1633.68 3.59298 -1.56243 0
M  V30 17815 H 1635.37 3.50714 -1.94424 0
M  V30 17816 H 1631.96 2.83773 -3.21202 0
M  V30 17817 H 1636.15 2.67655 -4.17941 0
M  V30 17818 H 1631.4 2.49644 -5.58111 0
M  V30 17819 H 1635.58 2.34607 -6.55692 0
M  V30 17820 H 1633.2 2.25095 -7.2611 0
M  V30 17821 N 1634.78 1.15898 1.06796 0
M  V30 17822 C 1635.71 0.88395 2.16122 0
M  V30 17823 C 1636.69 -0.167708 1.69271 0
M  V30 17824 O 1637.87 -0.0208846 1.94189 0
M  V30 17825 C 1635 0.378656 3.4523 0
M  V30 17826 C 1633.96 1.36764 4.05561 0
M  V30 17827 C 1633.28 0.720956 5.29817 0
M  V30 17828 C 1634.58 2.73554 4.44933 0
M  V30 17829 H 1636.28 1.79818 2.39386 0
M  V30 17830 H 1633.82 0.866008 1.15049 0
M  V30 17831 H 1635.78 0.17376 4.21042 0
M  V30 17832 H 1634.5 -0.571063 3.21569 0
M  V30 17833 H 1633.16 1.55899 3.318 0
M  V30 17834 H 1632.81 -0.235089 5.0245 0
M  V30 17835 H 1632.51 1.38101 5.71141 0
M  V30 17836 H 1634.03 0.525963 6.0833 0
M  V30 17837 H 1635.45 2.58231 5.11849 0
M  V30 17838 H 1633.84 3.35986 4.97226 0
M  V30 17839 H 1634.91 3.29192 3.56034 0
M  V30 17840 N 1636.26 -1.25243 0.956659 0
M  V30 17841 C 1637.5 -1.92632 0.611328 0
M  V30 17842 C 1637.83 -1.75272 -0.85467 0
M  V30 17843 O 1637.1 -1.11758 -1.60894 0
M  V30 17844 H 1635.68 -0.712904 0.223109 0
M  V30 17845 H 1638.34 -1.52366 1.21534 0
M  V30 17846 H 1637.43 -3.00516 0.842396 0
M  V30 17847 N 1637.73 -0.725468 -1.3991 0
M  V30 17848 C 1638.98 -0.266188 -1.99936 0
M  V30 17849 C 1639.3 1.15022 -1.58207 0
M  V30 17850 O 1640.5 1.70853 -2.11001 0
M  V30 17851 C 1638.96 -0.424978 -3.57382 0
M  V30 17852 C 1638.57 -1.84866 -4.08079 0
M  V30 17853 C 1640.31 -0.0269907 -4.24491 0
M  V30 17854 C 1638.22 -1.95751 -5.58064 0
M  V30 17855 H 1637.15 -0.0957688 -0.747893 0
M  V30 17856 H 1639.8 -0.89798 -1.60027 0
M  V30 17857 H 1638.18 0.275558 -3.9504 0
M  V30 17858 H 1639.35 -2.58037 -3.81776 0
M  V30 17859 H 1637.67 -2.199 -3.536 0
M  V30 17860 H 1640.27 -0.0874638 -5.34628 0
M  V30 17861 H 1640.61 1.01639 -4.03702 0
M  V30 17862 H 1641.14 -0.678332 -3.91974 0
M  V30 17863 H 1637.88 -2.98244 -5.83721 0
M  V30 17864 H 1637.4 -1.27004 -5.862 0
M  V30 17865 H 1639.08 -1.73422 -6.23325 0
M  V30 17866 N 1639.21 1.50354 -0.472382 0
M  V30 17867 C 1640.46 2.01526 0.0838536 0
M  V30 17868 C 1640.77 1.35913 1.40667 0
M  V30 17869 O 1641.98 1.78248 2.04792 0
M  V30 17870 C 1640.44 3.59344 0.199949 0
M  V30 17871 C 1640.04 4.33916 -1.11451 0
M  V30 17872 C 1641.79 4.18553 0.708075 0
M  V30 17873 C 1639.7 5.83521 -0.962138 0
M  V30 17874 H 1638.63 0.753182 0.0351127 0
M  V30 17875 H 1641.28 1.73153 -0.607474 0
M  V30 17876 H 1639.66 3.8431 0.955088 0
M  V30 17877 H 1640.83 4.20673 -1.8807 0
M  V30 17878 H 1639.15 3.86322 -1.55385 0
M  V30 17879 H 1641.74 5.28075 0.839126 0
M  V30 17880 H 1642.09 3.80019 1.69973 0
M  V30 17881 H 1642.62 3.97799 0.0102847 0
M  V30 17882 H 1639.36 6.26529 -1.9272 0
M  V30 17883 H 1638.88 5.99334 -0.236348 0
M  V30 17884 H 1640.56 6.43933 -0.629276 0
M  V30 17885 N 1640.69 0.205039 1.56261 0
M  V30 17886 C 1641.92 -0.439502 2.0269 0
M  V30 17887 C 1642.34 -1.53715 1.08413 0
M  V30 17888 O 1641.7 -1.81167 0.0693616 0
M  V30 17889 C 1641.75 -0.963672 3.47485 0
M  V30 17890 O 1640.85 -2.07602 3.56336 0
M  V30 17891 H 1640.19 -0.101543 0.65619 0
M  V30 17892 H 1642.72 0.318835 2.021 0
M  V30 17893 H 1642.73 -1.27773 3.87476 0
M  V30 17894 H 1641.41 -0.160203 4.15591 0
M  V30 17895 H 1639.98 -1.76985 3.28224 0
M  V30 17896 N 1642.17 -1.57451 -0.0684915 0
M  V30 17897 C 1643.4 -1.9164 -0.779855 0
M  V30 17898 C 1643.81 -0.801309 -1.70952 0
M  V30 17899 O 1643.17 0.225134 -1.81106 0
M  V30 17900 C 1643.22 -3.25594 -1.57068 0
M  V30 17901 O 1642.94 -4.32816 -0.678385 0
M  V30 17902 C 1644.44 -3.73818 -2.38275 0
M  V30 17903 H 1641.66 -0.633374 -0.221537 0
M  V30 17904 H 1644.21 -2.04465 -0.0377746 0
M  V30 17905 H 1642.36 -3.14287 -2.26501 0
M  V30 17906 H 1642.78 -5.09903 -1.22877 0
M  V30 17907 H 1644.25 -4.70168 -2.89216 0
M  V30 17908 H 1644.73 -3.02995 -3.17947 0
M  V30 17909 H 1645.33 -3.88081 -1.73992 0
M  V30 17910 N 1643.65 0.339955 -1.5389 0
M  V30 17911 C 1644.58 1.42316 -1.85117 0
M  V30 17912 C 1645.56 1.5473 -0.706591 0
M  V30 17913 O 1646.74 1.68879 -0.958834 0
M  V30 17914 C 1643.87 2.79317 -2.06396 0
M  V30 17915 C 1642.83 2.81707 -3.22219 0
M  V30 17916 C 1642.15 4.21627 -3.28838 0
M  V30 17917 C 1643.45 2.46921 -4.60247 0
M  V30 17918 H 1645.15 1.16431 -2.75834 0
M  V30 17919 H 1642.69 0.558661 -1.32721 0
M  V30 17920 H 1644.65 3.55145 -2.26826 0
M  V30 17921 H 1643.37 3.06644 -1.12414 0
M  V30 17922 H 1642.03 2.08332 -3.01651 0
M  V30 17923 H 1641.68 4.4607 -2.32444 0
M  V30 17924 H 1641.38 4.24137 -4.06672 0
M  V30 17925 H 1642.9 4.99292 -3.51482 0
M  V30 17926 H 1644.32 3.12462 -4.80667 0
M  V30 17927 H 1642.71 2.60707 -5.40511 0
M  V30 17928 H 1643.78 1.421 -4.63611 0
M  V30 17929 N 1645.13 1.45684 0.601159 0
M  V30 17930 C 1646.37 1.50258 1.362 0
M  V30 17931 C 1646.7 0.146358 1.93648 0
M  V30 17932 O 1645.98 -0.839985 1.75427 0
M  V30 17933 C 1646.26 2.5868 2.50513 0
M  V30 17934 C 1646.12 4.03769 1.98219 0
M  V30 17935 C 1647.43 2.63332 3.52624 0
M  V30 17936 H 1644.55 0.547045 0.493873 0
M  V30 17937 H 1647.2 1.77527 0.677068 0
M  V30 17938 H 1645.35 2.35559 3.08941 0
M  V30 17939 H 1647.02 4.3812 1.44391 0
M  V30 17940 H 1645.26 4.14121 1.29174 0
M  V30 17941 H 1645.93 4.75329 2.80653 0
M  V30 17942 H 1648.41 2.84067 3.04048 0
M  V30 17943 H 1647.28 3.41047 4.30091 0
M  V30 17944 H 1647.54 1.68668 4.0866 0
M  V30 17945 N 1646.6 -0.84422 1.33082 0
M  V30 17946 C 1647.54 -1.95789 1.17226 0
M  V30 17947 C 1648.51 -1.62453 0.0690721 0
M  V30 17948 O 1649.7 -1.87088 0.230322 0
M  V30 17949 C 1646.83 -3.29193 0.796847 0
M  V30 17950 C 1645.87 -3.81503 1.90677 0
M  V30 17951 S 1646.7 -4.03828 3.51686 0
M  V30 17952 C 1647.86 -5.40191 3.16139 0
M  V30 17953 H 1648.09 -2.08938 2.115 0
M  V30 17954 H 1645.63 -0.99739 1.17862 0
M  V30 17955 H 1647.58 -4.06281 0.587018 0
M  V30 17956 H 1646.25 -3.13842 -0.127199 0
M  V30 17957 H 1645.44 -4.78018 1.59734 0
M  V30 17958 H 1645.04 -3.11293 2.07299 0
M  V30 17959 H 1647.33 -6.22827 2.66632 0
M  V30 17960 H 1648.28 -5.76105 4.11715 0
M  V30 17961 H 1648.68 -5.04691 2.52879 0
M  V30 17962 N 1648.08 -1.16463 -1.0618 0
M  V30 17963 C 1649.33 -0.941322 -1.78387 0
M  V30 17964 C 1649.64 0.531995 -1.88226 0
M  V30 17965 O 1650.85 0.873227 -2.57074 0
M  V30 17966 C 1649.31 -1.63491 -3.20623 0
M  V30 17967 C 1648.91 -3.14607 -3.18946 0
M  V30 17968 C 1650.66 -1.49361 -3.97356 0
M  V30 17969 C 1648.56 -3.76698 -4.55908 0
M  V30 17970 H 1647.49 -0.348549 -0.668603 0
M  V30 17971 H 1650.15 -1.39607 -1.19088 0
M  V30 17972 H 1648.53 -1.10787 -3.80187 0
M  V30 17973 H 1649.7 -3.74164 -2.68957 0
M  V30 17974 H 1648.02 -3.28634 -2.55712 0
M  V30 17975 H 1650.61 -1.93131 -4.98603 0
M  V30 17976 H 1650.96 -0.442724 -4.13939 0
M  V30 17977 H 1651.49 -1.99227 -3.44316 0
M  V30 17978 H 1648.23 -4.8174 -4.4453 0
M  V30 17979 H 1647.75 -3.21927 -5.06086 0
M  V30 17980 H 1649.43 -3.78321 -5.24864 0
M  V30 17981 N 1649.56 1.24734 -0.963288 0
M  V30 17982 C 1650.8 1.94431 -0.630554 0
M  V30 17983 C 1651.16 1.7368 0.818489 0
M  V30 17984 O 1652.36 2.37374 1.26123 0
M  V30 17985 C 1650.64 3.43421 -0.989774 0
M  V30 17986 S 1652.19 4.31975 -0.770922 0
M  V30 17987 H 1649.01 0.672265 -0.231474 0
M  V30 17988 H 1651.61 1.512 -1.2393 0
M  V30 17989 H 1650.32 3.5603 -2.04135 0
M  V30 17990 H 1649.85 3.91641 -0.371622 0
M  V30 17991 H 1651.86 4.94936 0.35396 0
M  V30 17992 N 1651.04 0.732878 1.39523 0
M  V30 17993 C 1651.97 0.0403016 2.28164 0
M  V30 17994 C 1652.95 -0.749899 1.44275 0
M  V30 17995 O 1654.13 -0.732905 1.73669 0
M  V30 17996 C 1651.26 -0.95013 3.251 0
M  V30 17997 C 1650.31 -0.248672 4.25774 0
M  V30 17998 S 1651.14 1.03584 5.25386 0
M  V30 17999 C 1652.29 0.0479532 6.25882 0
M  V30 18000 H 1652.53 0.792023 2.86556 0
M  V30 18001 H 1650.06 0.524589 1.45215 0
M  V30 18002 H 1652.02 -1.51629 3.81469 0
M  V30 18003 H 1650.68 -1.67467 2.65732 0
M  V30 18004 H 1649.87 -0.998025 4.9402 0
M  V30 18005 H 1649.47 0.245398 3.73194 0
M  V30 18006 H 1651.77 -0.793145 6.72841 0
M  V30 18007 H 1652.71 0.69749 7.04656 0
M  V30 18008 H 1653.12 -0.323498 5.63572 0
M  V30 18009 N 1652.52 -1.50101 0.480349 0
M  V30 18010 C 1653.48 -2.27258 -0.297763 0
M  V30 18011 C 1654.48 -1.32415 -0.912296 0
M  V30 18012 O 1655.67 -1.5576 -0.780035 0
M  V30 18013 C 1652.8 -3.09684 -1.42508 0
M  V30 18014 H 1653.99 -2.97495 0.379011 0
M  V30 18015 H 1651.55 -1.54528 0.234681 0
M  V30 18016 H 1652.28 -2.43964 -2.13663 0
M  V30 18017 H 1652.07 -3.79393 -0.990125 0
M  V30 18018 H 1653.56 -3.68013 -1.97374 0
M  V30 18019 N 1653.99 -0.213323 -1.5615 0
M  V30 18020 C 1655.22 0.425688 -2.02473 0
M  V30 18021 C 1655.64 1.53926 -1.09326 0
M  V30 18022 O 1654.99 1.82218 -0.101364 0
M  V30 18023 C 1655.04 0.965021 -3.48381 0
M  V30 18024 O 1654.77 -0.104145 -4.37976 0
M  V30 18025 C 1656.27 1.6781 -4.10311 0
M  V30 18026 H 1653.49 0.105064 -0.662724 0
M  V30 18027 H 1656.03 -0.327369 -2.01863 0
M  V30 18028 H 1654.19 1.66838 -3.49634 0
M  V30 18029 H 1654.6 0.299985 -5.23641 0
M  V30 18030 H 1656.07 2.00757 -5.14199 0
M  V30 18031 H 1656.55 2.58833 -3.54827 0
M  V30 18032 H 1657.16 1.02014 -4.12884 0
M  V30 18033 N 1655.47 1.57485 0.0601405 0
M  V30 18034 C 1656.88 1.76433 0.610583 0
M  V30 18035 C 1657.23 0.840353 1.77292 0
M  V30 18036 O 1656.36 0.0273238 2.16383 0
M  V30 18037 C 1656.95 3.19947 1.11441 0
M  V30 18038 C 1655.51 3.402 1.61062 0
M  V30 18039 C 1654.66 2.72089 0.535055 0
M  V30 18040 H 1657.61 1.57829 -0.166062 0
M  V30 18041 H 1657.63 3.24749 1.98288 0
M  V30 18042 H 1657.14 3.87172 0.268233 0
M  V30 18043 H 1655.25 2.78106 2.47967 0
M  V30 18044 H 1655.36 4.48696 1.67954 0
M  V30 18045 H 1653.72 2.34972 0.982855 0
M  V30 18046 H 1654.51 3.41977 -0.301135 0
M  V30 18047 N 1656.95 -0.331789 1.54068 0
M  V30 18048 C 1658.2 -1.07228 1.72134 0
M  V30 18049 C 1658.53 -1.87936 0.489265 0
M  V30 18050 O 1657.8 -1.87592 -0.513761 0
M  V30 18051 C 1658.09 -2.00379 2.99199 0
M  V30 18052 C 1657.94 -1.23056 4.3264 0
M  V30 18053 C 1659.26 -3.00026 3.21982 0
M  V30 18054 H 1656.38 -0.388428 0.626333 0
M  V30 18055 H 1659.02 -0.34971 1.86754 0
M  V30 18056 H 1657.17 -2.61993 2.86865 0
M  V30 18057 H 1658.84 -0.639661 4.56844 0
M  V30 18058 H 1657.09 -0.532717 4.30517 0
M  V30 18059 H 1657.76 -1.91411 5.17751 0
M  V30 18060 H 1660.23 -2.48531 3.33724 0
M  V30 18061 H 1659.11 -3.62395 4.12263 0
M  V30 18062 H 1659.37 -3.72041 2.38826 0
M  V30 18063 N 1658.43 -1.46001 -0.593424 0
M  V30 18064 C 1659.68 -1.50755 -1.352 0
M  V30 18065 C 1660 -0.154929 -1.93882 0
M  V30 18066 O 1659.26 0.848161 -1.76365 0
M  V30 18067 C 1659.56 -2.54568 -2.50858 0
M  V30 18068 C 1659.22 -3.98888 -2.10236 0
M  V30 18069 C 1657.89 -4.38182 -1.98872 0
M  V30 18070 C 1660.24 -4.89591 -1.78746 0
M  V30 18071 C 1657.57 -5.66057 -1.5426 0
M  V30 18072 C 1659.92 -6.17892 -1.35617 0
M  V30 18073 C 1658.58 -6.56103 -1.22822 0
M  V30 18074 H 1657.85 -0.551652 -0.494734 0
M  V30 18075 H 1660.5 -1.79422 -0.669327 0
M  V30 18076 H 1658.8 -2.19523 -3.24526 0
M  V30 18077 H 1660.5 -2.5548 -3.09081 0
M  V30 18078 H 1657.09 -3.67822 -2.20012 0
M  V30 18079 H 1661.27 -4.59959 -1.86416 0
M  V30 18080 H 1656.53 -5.94444 -1.42988 0
M  V30 18081 H 1660.7 -6.87609 -1.10301 0
M  V30 18082 H 1658.33 -7.55086 -0.880285 0
M  V30 18083 N 1659.91 0.83715 -1.33527 0
M  V30 18084 C 1661.13 1.62456 -1.28124 0
M  V30 18085 C 1661.55 1.88223 0.147499 0
M  V30 18086 O 1660.91 1.4636 1.09018 0
M  V30 18087 C 1660.96 2.97376 -2.05547 0
M  V30 18088 O 1660.68 2.7274 -3.42847 0
M  V30 18089 C 1662.18 3.91805 -2.07374 0
M  V30 18090 H 1659.4 0.505436 -0.441334 0
M  V30 18091 H 1661.94 1.04263 -1.75925 0
M  V30 18092 H 1660.1 3.52166 -1.61424 0
M  V30 18093 H 1660.51 3.58669 -3.82696 0
M  V30 18094 H 1661.99 4.83684 -2.65996 0
M  V30 18095 H 1662.46 4.26106 -1.06444 0
M  V30 18096 H 1663.07 3.42952 -2.51523 0
M  V30 18097 N 1661.38 1.17024 1.05561 0
M  V30 18098 C 1662.63 0.950769 1.77886 0
M  V30 18099 C 1662.95 -0.522005 1.88506 0
M  V30 18100 O 1664.15 -0.859582 2.57533 0
M  V30 18101 C 1662.61 1.65189 3.19751 0
M  V30 18102 C 1662.22 3.16294 3.17273 0
M  V30 18103 C 1663.96 1.51466 3.96558 0
M  V30 18104 C 1661.87 3.79111 4.53904 0
M  V30 18105 H 1660.8 0.352089 0.666745 0
M  V30 18106 H 1663.45 1.40237 1.18346 0
M  V30 18107 H 1661.83 1.12801 3.79594 0
M  V30 18108 H 1663 3.75585 2.66969 0
M  V30 18109 H 1661.32 3.29986 2.53966 0
M  V30 18110 H 1663.92 1.95772 4.97571 0
M  V30 18111 H 1664.26 0.46467 4.13699 0
M  V30 18112 H 1664.79 2.0105 3.43254 0
M  V30 18113 H 1661.53 4.84091 4.41969 0
M  V30 18114 H 1661.05 3.24606 5.04372 0
M  V30 18115 H 1662.73 3.81099 5.2285 0
M  V30 18116 N 1662.86 -1.24221 0.969889 0
M  V30 18117 C 1664.11 -1.91656 0.628559 0
M  V30 18118 C 1664.42 -1.76627 -0.840371 0
M  V30 18119 O 1665.63 -2.38771 -1.29232 0
M  V30 18120 C 1664.09 -3.43515 1.07357 0
M  V30 18121 C 1663.69 -3.67226 2.56611 0
M  V30 18122 C 1665.44 -4.16788 0.805493 0
M  V30 18123 C 1663.35 -5.12667 2.94834 0
M  V30 18124 H 1662.28 -0.717619 0.231384 0
M  V30 18125 H 1664.93 -1.40831 1.17639 0
M  V30 18126 H 1663.31 -3.93388 0.454037 0
M  V30 18127 H 1664.48 -3.27942 3.23713 0
M  V30 18128 H 1662.8 -3.07243 2.81053 0
M  V30 18129 H 1665.39 -5.23945 1.06705 0
M  V30 18130 H 1665.74 -4.15498 -0.258321 0
M  V30 18131 H 1666.27 -3.7287 1.3861 0
M  V30 18132 H 1663.01 -5.1908 4.00295 0
M  V30 18133 H 1662.53 -5.5294 2.32417 0
M  V30 18134 H 1664.21 -5.80916 2.8486 0
M  V30 18135 N 1664.34 -0.740267 -1.39132 0
M  V30 18136 C 1665.59 -0.290953 -2.00702 0
M  V30 18137 C 1665.92 1.12051 -1.58613 0
M  V30 18138 O 1665.19 1.76488 -0.817457 0
M  V30 18139 C 1665.48 -0.398765 -3.57885 0
M  V30 18140 C 1665.33 -1.85038 -4.09977 0
M  V30 18141 C 1666.65 0.215717 -4.39571 0
M  V30 18142 H 1663.77 -0.107194 -0.729163 0
M  V30 18143 H 1666.41 -0.937411 -1.65265 0
M  V30 18144 H 1664.56 0.151613 -3.88204 0
M  V30 18145 H 1666.23 -2.45804 -3.90357 0
M  V30 18146 H 1664.48 -2.36994 -3.63341 0
M  V30 18147 H 1665.15 -1.87705 -5.19106 0
M  V30 18148 H 1667.62 -0.253518 -4.15327 0
M  V30 18149 H 1666.5 0.109966 -5.4879 0
M  V30 18150 H 1666.76 1.30242 -4.2248 0
M  V30 18151 N 1665.82 1.49844 -0.488302 0
M  V30 18152 C 1667.07 2.01603 0.0624744 0
M  V30 18153 C 1667.38 1.37397 1.39217 0
M  V30 18154 O 1668.59 1.8041 2.0289 0
M  V30 18155 C 1667.04 3.59536 0.161824 0
M  V30 18156 C 1666.65 4.32709 -1.16047 0
M  V30 18157 C 1668.39 4.1928 0.663642 0
M  V30 18158 C 1666.3 5.82468 -1.02397 0
M  V30 18159 H 1665.23 0.753512 0.0271222 0
M  V30 18160 H 1667.88 1.72499 -0.625805 0
M  V30 18161 H 1666.26 3.85301 0.914273 0
M  V30 18162 H 1667.44 4.18655 -1.92522 0
M  V30 18163 H 1665.75 3.84652 -1.59473 0
M  V30 18164 H 1668.35 5.28935 0.783069 0
M  V30 18165 H 1668.69 3.81801 1.65933 0
M  V30 18166 H 1669.23 3.97787 -0.0319078 0
M  V30 18167 H 1665.97 6.2445 -1.99355 0
M  V30 18168 H 1665.49 5.9905 -0.299902 0
M  V30 18169 H 1667.16 6.43229 -0.697538 0
M  V30 18170 N 1667.3 0.221601 1.56034 0
M  V30 18171 C 1668.71 -0.28624 1.84493 0
M  V30 18172 C 1669.06 -1.59469 1.14298 0
M  V30 18173 O 1668.18 -2.12429 0.412672 0
M  V30 18174 C 1668.78 -0.526128 3.3469 0
M  V30 18175 C 1667.34 -0.978278 3.63465 0
M  V30 18176 C 1666.48 -0.0413786 2.77269 0
M  V30 18177 H 1669.44 0.444792 1.52339 0
M  V30 18178 H 1669.46 -1.37212 3.54899 0
M  V30 18179 H 1668.97 0.426348 3.85751 0
M  V30 18180 H 1667.07 -1.94411 3.1786 0
M  V30 18181 H 1667.18 -0.852651 4.71452 0
M  V30 18182 H 1665.55 -0.548179 2.48731 0
M  V30 18183 H 1666.33 0.906016 3.31129 0
M  V30 18184 N 1668.77 -1.57515 -0.0517878 0
M  V30 18185 C 1669.7 -2.0809 -1.05929 0
M  V30 18186 C 1670.69 -0.978529 -1.39136 0
M  V30 18187 O 1671.87 -1.25245 -1.48416 0
M  V30 18188 C 1669 -2.54147 -2.36699 0
M  V30 18189 C 1667.95 -3.68442 -2.17794 0
M  V30 18190 C 1667.28 -4.00624 -3.54125 0
M  V30 18191 C 1668.58 -4.97743 -1.5827 0
M  V30 18192 H 1670.27 -2.92515 -0.638371 0
M  V30 18193 H 1667.82 -1.40719 -0.305625 0
M  V30 18194 H 1669.77 -2.88145 -3.07491 0
M  V30 18195 H 1668.5 -1.66775 -2.80809 0
M  V30 18196 H 1667.16 -3.34758 -1.4944 0
M  V30 18197 H 1666.8 -3.10353 -3.95841 0
M  V30 18198 H 1666.5 -4.77597 -3.42308 0
M  V30 18199 H 1668.03 -4.37136 -4.26315 0
M  V30 18200 H 1669.44 -5.29843 -2.18951 0
M  V30 18201 H 1667.84 -5.79173 -1.57094 0
M  V30 18202 H 1668.91 -4.81815 -0.546127 0
M  V30 18203 N 1670.25 0.323614 -1.54242 0
M  V30 18204 C 1671.5 1.05947 -1.72104 0
M  V30 18205 C 1671.82 1.88547 -0.497512 0
M  V30 18206 O 1671.09 1.89712 0.488485 0
M  V30 18207 H 1669.67 0.394141 -0.634557 0
M  V30 18208 H 1672.33 0.360063 -1.91545 0
M  V30 18209 H 1671.43 1.72552 -2.60062 0
M  V30 18210 N 1671.73 1.46313 0.585673 0
M  V30 18211 C 1672.98 1.50738 1.34019 0
M  V30 18212 C 1673.29 0.162245 1.94926 0
M  V30 18213 O 1674.5 0.0842676 2.71369 0
M  V30 18214 C 1672.96 2.65592 2.42876 0
M  V30 18215 C 1672.56 4.06513 1.88285 0
M  V30 18216 C 1674.31 2.79284 3.19689 0
M  V30 18217 C 1672.21 5.12712 2.94754 0
M  V30 18218 H 1671.14 0.560979 0.503804 0
M  V30 18219 H 1673.8 1.72516 0.625344 0
M  V30 18220 H 1672.18 2.37138 3.17146 0
M  V30 18221 H 1673.35 4.44744 1.20578 0
M  V30 18222 H 1671.67 3.97462 1.2415 0
M  V30 18223 H 1674.26 3.55795 3.99142 0
M  V30 18224 H 1674.61 1.86694 3.7209 0
M  V30 18225 H 1675.14 3.0737 2.52525 0
M  V30 18226 H 1671.88 6.07084 2.47244 0
M  V30 18227 H 1671.4 4.79028 3.6096 0
M  V30 18228 H 1673.08 5.38426 3.58757 0
M  V30 18229 N 1673.21 -0.830057 1.33969 0
M  V30 18230 C 1674.46 -1.58084 1.25269 0
M  V30 18231 C 1674.77 -1.94792 -0.177557 0
M  V30 18232 O 1675.98 -2.68733 -0.386657 0
M  V30 18233 C 1674.43 -2.85177 2.1955 0
M  V30 18234 C 1674.04 -2.55798 3.67792 0
M  V30 18235 C 1675.79 -3.632 2.19741 0
M  V30 18236 C 1673.69 -3.79041 4.53963 0
M  V30 18237 H 1672.62 -0.593289 0.465321 0
M  V30 18238 H 1675.27 -0.914476 1.5909 0
M  V30 18239 H 1673.66 -3.53401 1.78672 0
M  V30 18240 H 1674.83 -1.9573 4.17165 0
M  V30 18241 H 1673.14 -1.91064 3.69978 0
M  V30 18242 H 1675.74 -4.54695 2.81347 0
M  V30 18243 H 1676.08 -3.98786 1.1948 0
M  V30 18244 H 1676.62 -3.0191 2.59028 0
M  V30 18245 H 1673.36 -3.4858 5.55133 0
M  V30 18246 H 1672.88 -4.38417 4.09329 0
M  V30 18247 H 1674.56 -4.46527 4.68212 0
M  V30 18248 N 1674.69 -1.17582 -1.04939 0
M  V30 18249 C 1675.92 -0.988962 -1.81392 0
M  V30 18250 C 1676.33 0.46597 -1.83372 0
M  V30 18251 O 1675.67 1.33538 -1.26148 0
M  V30 18252 C 1675.73 -1.45656 -3.28671 0
M  V30 18253 C 1675.39 -2.93412 -3.50369 0
M  V30 18254 C 1676.39 -3.91329 -3.42283 0
M  V30 18255 C 1674.08 -3.31645 -3.77249 0
M  V30 18256 C 1676.07 -5.25478 -3.60766 0
M  V30 18257 C 1673.76 -4.65959 -3.95381 0
M  V30 18258 C 1674.76 -5.62684 -3.87138 0
M  V30 18259 O 1674.44 -6.94567 -4.04761 0
M  V30 18260 H 1674.18 -0.349962 -0.578362 0
M  V30 18261 H 1676.73 -1.5635 -1.33206 0
M  V30 18262 H 1674.96 -0.825602 -3.77784 0
M  V30 18263 H 1676.65 -1.23497 -3.86657 0
M  V30 18264 H 1677.41 -3.63138 -3.2149 0
M  V30 18265 H 1673.29 -2.56925 -3.82767 0
M  V30 18266 H 1676.84 -6.00961 -3.54248 0
M  V30 18267 H 1672.73 -4.93855 -4.15665 0
M  V30 18268 H 1673.5 -7.01343 -4.21972 0
M  V30 18269 N 1676.17 1.23705 -0.976463 0
M  V30 18270 C 1677.41 1.92299 -0.64412 0
M  V30 18271 C 1677.74 1.7605 0.819767 0
M  V30 18272 O 1677.02 1.11902 1.59086 0
M  V30 18273 C 1677.3 3.45042 -1.03044 0
M  V30 18274 C 1677.16 3.70418 -2.55167 0
M  V30 18275 C 1678.47 4.36374 -0.571444 0
M  V30 18276 H 1675.59 0.698369 -0.235478 0
M  V30 18277 H 1678.24 1.45904 -1.21704 0
M  V30 18278 H 1676.39 3.84687 -0.54294 0
M  V30 18279 H 1678.06 3.40278 -3.11462 0
M  V30 18280 H 1676.3 3.15266 -2.97976 0
M  V30 18281 H 1676.97 4.77323 -2.77248 0
M  V30 18282 H 1679.45 4.04153 -0.989936 0
M  V30 18283 H 1678.32 5.41958 -0.870226 0
M  V30 18284 H 1678.58 4.38932 0.528318 0
M  V30 18285 N 1677.64 0.747635 1.38738 0
M  V30 18286 C 1678.87 0.310484 2.05063 0
M  V30 18287 C 1679.29 -1.05078 1.56013 0
M  V30 18288 O 1678.65 -1.66842 0.709461 0
M  V30 18289 C 1678.7 0.335837 3.59033 0
M  V30 18290 O 1677.8 -0.672218 4.06884 0
M  V30 18291 H 1677.14 0.138591 0.649375 0
M  V30 18292 H 1679.67 1.01709 1.77529 0
M  V30 18293 H 1679.68 0.184631 4.07582 0
M  V30 18294 H 1678.36 1.32906 3.94092 0
M  V30 18295 H 1676.94 -0.486112 3.69718 0
M  V30 18296 N 1679.12 -1.49583 0.496242 0
M  V30 18297 C 1680.37 -2.02738 -0.050037 0
M  V30 18298 C 1680.7 -1.37556 -1.37083 0
M  V30 18299 O 1679.98 -0.50964 -1.87704 0
M  V30 18300 C 1680.26 -3.59501 -0.207575 0
M  V30 18301 C 1680.11 -4.35218 1.13601 0
M  V30 18302 C 1681.43 -4.29715 -0.950443 0
M  V30 18303 H 1678.55 -0.736811 -0.0167105 0
M  V30 18304 H 1681.19 -1.78654 0.646728 0
M  V30 18305 H 1679.34 -3.80152 -0.801033 0
M  V30 18306 H 1681.01 -4.26075 1.76798 0
M  V30 18307 H 1679.26 -3.97964 1.72648 0
M  V30 18308 H 1679.93 -5.43247 0.979142 0
M  V30 18309 H 1682.4 -4.1369 -0.447173 0
M  V30 18310 H 1681.28 -5.39159 -1.02951 0
M  V30 18311 H 1681.54 -3.94627 -1.99304 0
M  V30 18312 N 1680.6 -0.229873 -1.55915 0
M  V30 18313 C 1681.53 0.70927 -2.1795 0
M  V30 18314 C 1682.54 1.15142 -1.15092 0
M  V30 18315 O 1683.73 1.08114 -1.42034 0
M  V30 18316 C 1680.83 1.97359 -2.75504 0
M  V30 18317 C 1680.01 1.68565 -4.03614 0
M  V30 18318 C 1679.07 2.79786 -4.45652 0
M  V30 18319 O 1678.09 2.479 -5.12381 0
M  V30 18320 N 1679.29 4.08921 -4.12024 0
M  V30 18321 H 1682.06 0.178573 -2.99168 0
M  V30 18322 H 1679.62 -0.0491789 -1.61825 0
M  V30 18323 H 1681.61 2.70972 -3.00593 0
M  V30 18324 H 1680.18 2.41454 -1.98542 0
M  V30 18325 H 1679.4 0.785547 -3.86294 0
M  V30 18326 H 1680.69 1.46769 -4.87172 0
M  V30 18327 H 1680.09 4.37667 -3.58419 0
M  V30 18328 H 1678.64 4.79052 -4.41987 0
M  V30 18329 N 1682.08 1.5754 0.0434337 0
M  V30 18330 C 1683.01 2.00964 1.08114 0
M  V30 18331 C 1683.99 0.891404 1.35988 0
M  V30 18332 O 1685.17 1.15607 1.48887 0
M  V30 18333 C 1682.3 2.3705 2.41919 0
M  V30 18334 C 1681.35 3.59171 2.29996 0
M  V30 18335 S 1682.18 5.08892 1.66702 0
M  V30 18336 C 1683.33 5.48206 3.02028 0
M  V30 18337 H 1683.57 2.88668 0.711202 0
M  V30 18338 H 1681.1 1.52314 0.25294 0
M  V30 18339 H 1683.06 2.58513 3.18875 0
M  V30 18340 H 1681.72 1.49824 2.76064 0
M  V30 18341 H 1680.91 3.82029 3.28739 0
M  V30 18342 H 1680.51 3.37486 1.61181 0
M  V30 18343 H 1682.81 5.48012 3.98358 0
M  V30 18344 H 1683.75 6.48688 2.83919 0
M  V30 18345 H 1684.16 4.7569 3.03939 0
M  V30 18346 N 1683.56 -0.31543 1.54411 0
M  V30 18347 C 1684.8 -1.0524 1.73005 0
M  V30 18348 C 1685.13 -1.87747 0.50808 0
M  V30 18349 O 1684.39 -1.88935 -0.51012 0
M  V30 18350 C 1684.68 -1.99884 2.96279 0
M  V30 18351 C 1684.35 -1.33468 4.30694 0
M  V30 18352 C 1683.01 -1.15087 4.67235 0
M  V30 18353 C 1685.36 -0.858688 5.14078 0
M  V30 18354 C 1682.69 -0.47767 5.84752 0
M  V30 18355 C 1685.04 -0.199278 6.32286 0
M  V30 18356 C 1683.71 -0.00338158 6.675 0
M  V30 18357 H 1682.98 -0.385102 0.63307 0
M  V30 18358 H 1685.63 -0.328714 1.88658 0
M  V30 18359 H 1683.93 -2.78732 2.75347 0
M  V30 18360 H 1685.63 -2.56951 3.07859 0
M  V30 18361 H 1682.22 -1.48779 4.01949 0
M  V30 18362 H 1686.4 -0.98846 4.86357 0
M  V30 18363 H 1681.66 -0.314772 6.10589 0
M  V30 18364 H 1685.83 0.177517 6.96174 0
M  V30 18365 H 1683.46 0.52028 7.58418 0
M  V30 18366 N 1685.03 -1.46622 -0.577906 0
M  V30 18367 C 1686.26 -1.55534 -1.35988 0
M  V30 18368 C 1686.67 -0.197065 -1.88171 0
M  V30 18369 O 1686.02 0.816609 -1.64551 0
M  V30 18370 C 1686.08 -2.5035 -2.58002 0
M  V30 18371 C 1685.74 -3.96491 -2.27253 0
M  V30 18372 C 1686.74 -4.85567 -1.85797 0
M  V30 18373 C 1684.42 -4.41662 -2.39249 0
M  V30 18374 C 1686.42 -6.17828 -1.56738 0
M  V30 18375 C 1684.1 -5.73956 -2.09803 0
M  V30 18376 C 1685.1 -6.6186 -1.68613 0
M  V30 18377 O 1684.79 -7.91698 -1.3953 0
M  V30 18378 H 1684.52 -0.528412 -0.421612 0
M  V30 18379 H 1687.08 -1.92774 -0.709038 0
M  V30 18380 H 1685.31 -2.08137 -3.25908 0
M  V30 18381 H 1687 -2.49616 -3.20073 0
M  V30 18382 H 1687.76 -4.51924 -1.76039 0
M  V30 18383 H 1683.64 -3.73462 -2.70272 0
M  V30 18384 H 1687.18 -6.86398 -1.24514 0
M  V30 18385 H 1683.08 -6.07147 -2.19187 0
M  V30 18386 H 1683.85 -8.04009 -1.53335 0
M  V30 18387 N 1686.51 0.822941 -1.34408 0
M  V30 18388 C 1687.76 1.58149 -1.26951 0
M  V30 18389 C 1688.09 1.93538 0.160222 0
M  V30 18390 O 1687.37 1.60021 1.1056 0
M  V30 18391 C 1687.65 2.88101 -2.16032 0
M  V30 18392 C 1687.5 2.59293 -3.67542 0
M  V30 18393 C 1688.82 3.89673 -2.04556 0
M  V30 18394 H 1685.94 0.573811 -0.462504 0
M  V30 18395 H 1688.58 0.948017 -1.64659 0
M  V30 18396 H 1686.73 3.42162 -1.84003 0
M  V30 18397 H 1688.4 2.11542 -4.09936 0
M  V30 18398 H 1686.65 1.92738 -3.88632 0
M  V30 18399 H 1687.32 3.51962 -4.25238 0
M  V30 18400 H 1689.79 3.44965 -2.32677 0
M  V30 18401 H 1688.67 4.78404 -2.69111 0
M  V30 18402 H 1688.93 4.30113 -1.02253 0
M  V30 18403 N 1687.99 1.18137 1.04314 0
M  V30 18404 C 1689.22 1.00062 1.81666 0
M  V30 18405 C 1689.64 -0.446281 1.82729 0
M  V30 18406 O 1689 -1.32004 1.24277 0
M  V30 18407 C 1689.05 1.55698 3.25255 0
M  V30 18408 O 1688.15 0.776662 4.05021 0
M  V30 18409 H 1687.49 0.354651 0.561354 0
M  V30 18410 H 1690.02 1.56837 1.3139 0
M  V30 18411 H 1690.03 1.58303 3.76037 0
M  V30 18412 H 1688.71 2.61016 3.23795 0
M  V30 18413 H 1687.28 0.822723 3.63711 0
M  V30 18414 N 1689.47 -1.23186 0.98301 0
M  V30 18415 C 1690.7 -1.95702 0.671453 0
M  V30 18416 C 1691.11 -1.72737 -0.76206 0
M  V30 18417 O 1690.47 -1.02037 -1.5131 0
M  V30 18418 C 1690.52 -3.48642 0.955573 0
M  V30 18419 O 1690.24 -3.70829 2.33275 0
M  V30 18420 C 1691.74 -4.38354 0.660333 0
M  V30 18421 H 1688.96 -0.623006 0.249209 0
M  V30 18422 H 1691.51 -1.56606 1.3151 0
M  V30 18423 H 1689.66 -3.85743 0.357892 0
M  V30 18424 H 1690.07 -4.65104 2.42443 0
M  V30 18425 H 1691.55 -5.44456 0.909477 0
M  V30 18426 H 1692.03 -4.37323 -0.405615 0
M  V30 18427 H 1692.63 -4.06864 1.23861 0
M  V30 18428 N 1690.95 -0.754982 -1.38339 0
M  V30 18429 C 1692.17 -0.321355 -2.04895 0
M  V30 18430 C 1692.6 1.04249 -1.56569 0
M  V30 18431 O 1691.95 1.66464 -0.718299 0
M  V30 18432 C 1692 -0.354873 -3.5885 0
M  V30 18433 O 1691.11 0.65063 -4.07235 0
M  V30 18434 H 1690.45 -0.142033 -0.648631 0
M  V30 18435 H 1692.98 -1.02649 -1.76987 0
M  V30 18436 H 1692.99 -0.206243 -4.07478 0
M  V30 18437 H 1691.66 -1.34994 -3.93382 0
M  V30 18438 H 1690.24 0.466498 -3.69971 0
M  V30 18439 N 1692.42 1.49318 -0.504168 0
M  V30 18440 C 1693.84 1.58793 -0.160331 0
M  V30 18441 C 1694.04 1.50906 1.33527 0
M  V30 18442 O 1693.1 1.38466 2.11148 0
M  V30 18443 C 1694.41 2.91454 -0.739945 0
M  V30 18444 C 1695.96 3.04926 -0.706338 0
M  V30 18445 C 1696.43 4.4021 -1.26407 0
M  V30 18446 N 1697.92 4.46711 -1.22491 0
M  V30 18447 C 1698.66 5.49844 -1.62661 0
M  V30 18448 N 1698.15 6.60066 -2.10439 0
M  V30 18449 N 1699.95 5.40576 -1.54058 0
M  V30 18450 H 1692.1 1.52687 -1.4765 0
M  V30 18451 H 1694.36 0.723463 -0.612622 0
M  V30 18452 H 1694.07 3.02802 -1.78896 0
M  V30 18453 H 1693.94 3.76658 -0.202187 0
M  V30 18454 H 1696.33 2.93206 0.333845 0
M  V30 18455 H 1696.41 2.21398 -1.28128 0
M  V30 18456 H 1696.05 4.52683 -2.30305 0
M  V30 18457 H 1695.98 5.22384 -0.665041 0
M  V30 18458 H 1698.47 3.67634 -0.874869 0
M  V30 18459 H 1698.79 7.34865 -2.39153 0
M  V30 18460 H 1697.13 6.61098 -2.14415 0
M  V30 18461 H 1700.32 4.53359 -1.16548 0
M  V30 18462 H 1700.5 6.20826 -1.85687 0
M  V30 18463 N 1693.9 0.238138 1.5579 0
M  V30 18464 C 1694.83 -0.697701 2.18323 0
M  V30 18465 C 1695.85 -1.1453 1.15701 0
M  V30 18466 O 1697.04 -1.07359 1.42605 0
M  V30 18467 C 1694.14 -1.95895 2.76547 0
M  V30 18468 C 1693.31 -1.66422 4.04503 0
M  V30 18469 C 1692.37 -2.77419 4.4713 0
M  V30 18470 O 1691.39 -2.45179 5.13689 0
M  V30 18471 N 1692.6 -4.06731 4.14187 0
M  V30 18472 H 1695.36 -0.162705 2.99258 0
M  V30 18473 H 1692.92 0.0577602 1.61797 0
M  V30 18474 H 1694.91 -2.69374 3.02026 0
M  V30 18475 H 1693.48 -2.40398 1.99819 0
M  V30 18476 H 1692.7 -0.76505 3.86705 0
M  V30 18477 H 1693.99 -1.44183 4.87943 0
M  V30 18478 H 1693.39 -4.3576 3.60735 0
M  V30 18479 H 1691.95 -4.76701 4.44521 0
M  V30 18480 N 1695.38 -1.57561 -0.0350783 0
M  V30 18481 C 1696.31 -2.09201 -1.03716 0
M  V30 18482 C 1697.29 -0.993231 -1.3809 0
M  V30 18483 O 1698.48 -1.26812 -1.47079 0
M  V30 18484 C 1695.61 -2.56643 -2.3399 0
M  V30 18485 C 1694.56 -3.70731 -2.13874 0
M  V30 18486 C 1693.89 -4.04358 -3.49855 0
M  V30 18487 C 1695.19 -4.99393 -1.52982 0
M  V30 18488 H 1696.88 -2.93176 -0.60731 0
M  V30 18489 H 1694.43 -1.41036 -0.290683 0
M  V30 18490 H 1696.38 -2.9139 -3.04417 0
M  V30 18491 H 1695.1 -1.69744 -2.79024 0
M  V30 18492 H 1693.76 -3.36325 -1.45881 0
M  V30 18493 H 1693.41 -3.14534 -3.92527 0
M  V30 18494 H 1693.11 -4.81201 -3.37223 0
M  V30 18495 H 1694.63 -4.41633 -4.21654 0
M  V30 18496 H 1696.05 -5.32135 -2.13319 0
M  V30 18497 H 1694.45 -5.80807 -1.50943 0
M  V30 18498 H 1695.52 -4.82367 -0.494993 0
M  V30 18499 N 1696.86 0.307236 -1.54576 0
M  V30 18500 C 1698.27 0.652539 -1.45651 0
M  V30 18501 C 1698.47 1.90978 -0.64263 0
M  V30 18502 O 1697.53 2.52067 -0.147863 0
M  V30 18503 C 1698.84 0.811341 -2.89547 0
M  V30 18504 C 1700.39 0.90763 -2.99551 0
M  V30 18505 C 1700.87 1.09848 -4.44632 0
M  V30 18506 N 1702.36 1.16483 -4.48315 0
M  V30 18507 C 1703.09 1.33068 -5.57746 0
M  V30 18508 N 1702.59 1.46591 -6.77114 0
M  V30 18509 N 1704.38 1.35906 -5.45423 0
M  V30 18510 H 1696.53 -0.518891 -2.05964 0
M  V30 18511 H 1698.8 -0.170463 -0.932548 0
M  V30 18512 H 1698.5 -0.0414879 -3.51676 0
M  V30 18513 H 1698.38 1.70224 -3.36606 0
M  V30 18514 H 1700.76 1.75095 -2.37541 0
M  V30 18515 H 1700.84 -0.00715386 -2.55799 0
M  V30 18516 H 1700.49 0.259948 -5.07234 0
M  V30 18517 H 1700.42 2.02739 -4.86009 0
M  V30 18518 H 1702.91 1.07411 -3.62314 0
M  V30 18519 H 1703.22 1.58983 -7.5627 0
M  V30 18520 H 1701.57 1.43658 -6.79991 0
M  V30 18521 H 1704.76 1.24949 -4.51116 0
M  V30 18522 H 1704.93 1.48489 -6.30758 0
M  V30 18523 N 1698.34 1.46926 0.570122 0
M  V30 18524 C 1699.75 1.32159 0.894766 0
M  V30 18525 C 1699.95 0.302411 1.99218 0
M  V30 18526 O 1699.01 -0.290615 2.50822 0
M  V30 18527 C 1700.32 2.71136 1.30021 0
M  V30 18528 C 1701.87 2.79323 1.41236 0
M  V30 18529 C 1702.34 4.18911 1.85142 0
M  V30 18530 N 1703.84 4.2139 1.92314 0
M  V30 18531 C 1704.57 5.263 2.27588 0
M  V30 18532 N 1704.07 6.41526 2.61565 0
M  V30 18533 N 1705.86 5.13671 2.28251 0
M  V30 18534 H 1698.01 2.11837 -0.154603 0
M  V30 18535 H 1700.27 0.947978 -0.00649658 0
M  V30 18536 H 1699.98 3.47087 0.567775 0
M  V30 18537 H 1699.85 3.02066 2.25911 0
M  V30 18538 H 1702.24 2.03653 2.13564 0
M  V30 18539 H 1702.32 2.52063 0.43566 0
M  V30 18540 H 1701.97 4.95081 1.13389 0
M  V30 18541 H 1701.9 4.43587 2.83792 0
M  V30 18542 H 1704.39 3.38257 1.68495 0
M  V30 18543 H 1704.7 7.17343 2.8747 0
M  V30 18544 H 1703.04 6.44867 2.59175 0
M  V30 18545 H 1706.24 4.22684 2.01137 0
M  V30 18546 H 1706.41 5.95541 2.55412 0
M  V30 18547 N 1699.82 -0.815801 1.34842 0
M  V30 18548 C 1700.75 -1.94193 1.29659 0
M  V30 18549 C 1701.73 -1.69221 0.172703 0
M  V30 18550 O 1702.91 -1.90716 0.366203 0
M  V30 18551 C 1700.04 -3.30777 1.0585 0
M  V30 18552 C 1699 -3.70207 2.1478 0
M  V30 18553 C 1698.32 -5.04852 1.76149 0
M  V30 18554 C 1699.62 -3.81553 3.56671 0
M  V30 18555 H 1701.32 -1.98787 2.23884 0
M  V30 18556 H 1698.86 -0.955013 1.07775 0
M  V30 18557 H 1700.81 -4.0915 1.00866 0
M  V30 18558 H 1699.54 -3.265 0.0806804 0
M  V30 18559 H 1698.2 -2.94113 2.18845 0
M  V30 18560 H 1697.85 -4.9707 0.770099 0
M  V30 18561 H 1697.55 -5.32205 2.49062 0
M  V30 18562 H 1699.07 -5.85676 1.72674 0
M  V30 18563 H 1700.48 -4.50181 3.54979 0
M  V30 18564 H 1698.88 -4.20367 4.28266 0
M  V30 18565 H 1699.95 -2.83356 3.93494 0
M  V30 18566 N 1701.29 -1.18689 -1.03686 0
M  V30 18567 C 1702.57 -0.89414 -1.73967 0
M  V30 18568 C 1702.95 0.602104 -2.02331 0
M  V30 18569 O 1702.3 1.55794 -1.67154 0
M  V30 18570 C 1702.51 -1.74549 -3.02214 0
M  V30 18571 C 1703.86 -1.97487 -3.75878 0
M  V30 18572 O 1704.88 -1.71634 -3.12122 0
M  V30 18573 O 1703.74 -2.41031 -4.90476 0
M  V30 18574 H 1700.83 -0.332501 -0.757213 0
M  V30 18575 H 1703.38 -1.29461 -1.09717 0
M  V30 18576 H 1702.15 -2.75961 -2.77419 0
M  V30 18577 H 1701.77 -1.34378 -3.74204 0
M  V30 18578 N 1702.77 1.22662 -0.989529 0
M  V30 18579 C 1704 1.95883 -0.681511 0
M  V30 18580 C 1704.42 1.72646 0.746646 0
M  V30 18581 O 1703.78 1.00358 1.5099 0
M  V30 18582 C 1703.83 3.46773 -0.988975 0
M  V30 18583 O 1702.93 4.12311 -0.0858485 0
M  V30 18584 H 1702.27 0.612916 -0.255401 0
M  V30 18585 H 1704.8 1.5585 -1.32559 0
M  V30 18586 H 1704.81 3.97273 -0.929426 0
M  V30 18587 H 1703.49 3.63011 -2.02967 0
M  V30 18588 H 1702.06 3.7236 -0.200592 0
M  V30 18589 N 1704.25 0.762308 1.37937 0
M  V30 18590 C 1705.5 0.322846 2.00214 0
M  V30 18591 C 1705.83 -1.09513 1.60376 0
M  V30 18592 O 1705.1 -1.75165 0.845432 0
M  V30 18593 C 1705.39 0.455651 3.57206 0
M  V30 18594 C 1705.24 1.91537 4.06981 0
M  V30 18595 C 1706.56 -0.145758 4.39859 0
M  V30 18596 H 1703.68 0.118781 0.727365 0
M  V30 18597 H 1706.32 0.963585 1.63753 0
M  V30 18598 H 1704.47 -0.0898341 3.88396 0
M  V30 18599 H 1706.14 2.51983 3.86397 0
M  V30 18600 H 1704.38 2.42744 3.59524 0
M  V30 18601 H 1705.06 1.9594 5.16054 0
M  V30 18602 H 1707.53 0.31956 4.14871 0
M  V30 18603 H 1706.41 -0.0226441 5.48895 0
M  V30 18604 H 1706.67 -1.23504 4.24499 0
M  V30 18605 N 1705.73 -1.49049 0.51208 0
M  V30 18606 C 1706.96 -2.06885 -0.0249703 0
M  V30 18607 C 1707.37 -1.371 -1.29804 0
M  V30 18608 O 1706.73 -0.452798 -1.76794 0
M  V30 18609 C 1706.78 -3.60482 -0.27112 0
M  V30 18610 O 1706.5 -4.27643 0.951493 0
M  V30 18611 C 1708 -4.35063 -0.850568 0
M  V30 18612 H 1705.22 -0.670517 0.0254456 0
M  V30 18613 H 1707.76 -1.91682 0.712607 0
M  V30 18614 H 1705.92 -3.7535 -0.958702 0
M  V30 18615 H 1706.33 -5.19519 0.721156 0
M  V30 18616 H 1707.81 -5.43369 -0.972322 0
M  V30 18617 H 1708.28 -3.98285 -1.85111 0
M  V30 18618 H 1708.89 -4.24829 -0.200111 0
M  V30 18619 N 1707.21 -0.246397 -1.55662 0
M  V30 18620 C 1708.62 0.108465 -1.59231 0
M  V30 18621 C 1708.82 1.56961 -1.26354 0
M  V30 18622 O 1707.88 2.31393 -1.01062 0
M  V30 18623 C 1709.19 -0.240265 -2.99739 0
M  V30 18624 C 1710.74 -0.184523 -3.12456 0
M  V30 18625 C 1711.21 -0.507279 -4.55182 0
M  V30 18626 N 1712.7 -0.457761 -4.60933 0
M  V30 18627 C 1713.44 -0.680664 -5.69346 0
M  V30 18628 N 1712.94 -0.966667 -6.86023 0
M  V30 18629 N 1714.73 -0.611405 -5.58765 0
M  V30 18630 H 1706.88 -1.19928 -1.75303 0
M  V30 18631 H 1709.14 -0.482503 -0.816024 0
M  V30 18632 H 1708.85 -1.25535 -3.28533 0
M  V30 18633 H 1708.72 0.432872 -3.74708 0
M  V30 18634 H 1711.11 0.821232 -2.83443 0
M  V30 18635 H 1711.19 -0.891504 -2.39762 0
M  V30 18636 H 1710.83 -1.51059 -4.84916 0
M  V30 18637 H 1710.76 0.221174 -5.26135 0
M  V30 18638 H 1713.26 -0.245414 -3.77102 0
M  V30 18639 H 1713.57 -1.12419 -7.6458 0
M  V30 18640 H 1711.91 -1.00413 -6.87708 0
M  V30 18641 H 1715.1 -0.388018 -4.66489 0
M  V30 18642 H 1715.28 -0.788519 -6.43185 0
M  V30 18643 N 1708.68 1.57577 0.026722 0
M  V30 18644 C 1709.91 1.94035 0.732473 0
M  V30 18645 C 1710.33 0.846575 1.67972 0
M  V30 18646 O 1709.69 -0.197514 1.80221 0
M  V30 18647 C 1709.74 3.2956 1.46365 0
M  V30 18648 O 1708.84 3.21975 2.57694 0
M  V30 18649 H 1708.18 0.634155 0.196832 0
M  V30 18650 H 1710.71 2.04592 -0.018503 0
M  V30 18651 H 1710.72 3.64504 1.83305 0
M  V30 18652 H 1709.4 4.0873 0.768943 0
M  V30 18653 H 1707.98 2.98665 2.23279 0
M  V30 18654 N 1710.16 -0.299034 1.54737 0
M  V30 18655 C 1711.57 -0.871897 1.6509 0
M  V30 18656 C 1711.92 -1.88013 0.560843 0
M  V30 18657 O 1711.05 -2.1428 -0.302194 0
M  V30 18658 C 1711.64 -1.5882 2.99269 0
M  V30 18659 C 1710.2 -2.10944 3.11736 0
M  V30 18660 C 1709.35 -0.942776 2.60782 0
M  V30 18661 H 1712.3 -0.0759883 1.58518 0
M  V30 18662 H 1712.32 -2.45387 2.90802 0
M  V30 18663 H 1711.83 -0.854144 3.78584 0
M  V30 18664 H 1709.93 -2.87391 2.37144 0
M  V30 18665 H 1710.05 -2.34262 4.17921 0
M  V30 18666 H 1708.41 -1.3289 2.17284 0
M  V30 18667 H 1709.19 -0.222646 3.42577 0
M  V30 18668 N 1711.64 -1.47227 -0.562322 0
M  V30 18669 C 1712.89 -1.52851 -1.31604 0
M  V30 18670 C 1713.2 -0.193236 -1.94643 0
M  V30 18671 O 1714.41 -0.127429 -2.71201 0
M  V30 18672 C 1712.86 -2.69422 -2.3862 0
M  V30 18673 C 1712.47 -4.09457 -1.81794 0
M  V30 18674 C 1714.22 -2.84334 -3.15205 0
M  V30 18675 C 1712.12 -5.17337 -2.8656 0
M  V30 18676 H 1711.05 -0.568923 -0.494816 0
M  V30 18677 H 1713.7 -1.73489 -0.597819 0
M  V30 18678 H 1712.09 -2.42153 -3.13333 0
M  V30 18679 H 1713.26 -4.46606 -1.13487 0
M  V30 18680 H 1711.57 -3.99387 -1.17811 0
M  V30 18681 H 1714.17 -3.621 -3.93431 0
M  V30 18682 H 1714.51 -1.9259 -3.69073 0
M  V30 18683 H 1715.05 -3.11348 -2.47603 0
M  V30 18684 H 1711.79 -6.1094 -2.37554 0
M  V30 18685 H 1711.31 -4.8471 -3.53293 0
M  V30 18686 H 1712.99 -5.44065 -3.50146 0
M  V30 18687 N 1713.12 0.808639 -1.35273 0
M  V30 18688 C 1714.35 1.5947 -1.31351 0
M  V30 18689 C 1714.76 1.88871 0.111546 0
M  V30 18690 O 1714.1 1.49082 1.07332 0
M  V30 18691 C 1714.16 2.95278 -2.05064 0
M  V30 18692 C 1713.82 2.88702 -3.5426 0
M  V30 18693 C 1714.82 2.62283 -4.48892 0
M  V30 18694 C 1712.51 3.07884 -3.96879 0
M  V30 18695 C 1714.5 2.55118 -5.84118 0
M  V30 18696 C 1712.19 3.00343 -5.322 0
M  V30 18697 C 1713.19 2.73995 -6.25632 0
M  V30 18698 O 1712.87 2.66413 -7.58472 0
M  V30 18699 H 1712.61 0.501927 -0.45282 0
M  V30 18700 H 1715.16 1.01307 -1.78678 0
M  V30 18701 H 1713.39 3.55416 -1.5237 0
M  V30 18702 H 1715.08 3.56403 -1.94246 0
M  V30 18703 H 1715.84 2.47184 -4.17283 0
M  V30 18704 H 1711.72 3.27404 -3.24542 0
M  V30 18705 H 1715.27 2.34473 -6.57015 0
M  V30 18706 H 1711.16 3.14999 -5.63424 0
M  V30 18707 H 1711.93 2.82036 -7.68374 0
M  V30 18708 N 1714.6 1.19237 1.03055 0
M  V30 18709 C 1715.82 1.01983 1.80594 0
M  V30 18710 C 1716.25 -0.426875 1.83192 0
M  V30 18711 O 1715.6 -1.30678 1.2567 0
M  V30 18712 C 1715.65 1.59139 3.23585 0
M  V30 18713 O 1714.76 0.819576 4.04174 0
M  V30 18714 H 1714.1 0.360585 0.557561 0
M  V30 18715 H 1716.63 1.58222 1.29719 0
M  V30 18716 H 1716.64 1.62283 3.74337 0
M  V30 18717 H 1715.31 2.64436 3.21009 0
M  V30 18718 H 1713.89 0.861253 3.62818 0
M  V30 18719 N 1716.07 -1.22136 0.99602 0
M  V30 18720 C 1717.02 -2.2199 0.520059 0
M  V30 18721 C 1718.01 -1.55497 -0.413454 0
M  V30 18722 O 1719.2 -1.75369 -0.239765 0
M  V30 18723 C 1716.33 -3.42923 -0.160875 0
M  V30 18724 C 1715.42 -4.16618 0.793126 0
M  V30 18725 N 1715.81 -4.67022 1.94226 0
M  V30 18726 C 1714.1 -4.41814 0.609648 0
M  V30 18727 C 1714.81 -5.23252 2.5413 0
M  V30 18728 N 1713.78 -5.12096 1.8237 0
M  V30 18729 H 1717.58 -2.58606 1.39643 0
M  V30 18730 H 1715.1 -1.37842 0.858682 0
M  V30 18731 H 1717.09 -4.13654 -0.519266 0
M  V30 18732 H 1715.75 -3.07818 -1.03334 0
M  V30 18733 H 1716.77 -4.62882 2.32294 0
M  V30 18734 H 1713.44 -4.16938 -0.216495 0
M  V30 18735 H 1714.83 -5.72769 3.51263 0
M  V30 18736 N 1717.55 -0.769612 -1.37531 0
M  V30 18737 C 1718.8 -0.332966 -1.99744 0
M  V30 18738 C 1719.13 1.0899 -1.61094 0
M  V30 18739 O 1718.38 1.7639 -0.847656 0
M  V30 18740 C 1718.68 -0.421385 -3.54907 0
M  V30 18741 C 1718.35 -1.8022 -4.13318 0
M  V30 18742 C 1717.01 -2.18005 -4.28984 0
M  V30 18743 C 1719.36 -2.70724 -4.45374 0
M  V30 18744 C 1716.69 -3.45736 -4.74008 0
M  V30 18745 C 1719.04 -3.97862 -4.91822 0
M  V30 18746 C 1717.71 -4.35695 -5.05694 0
M  V30 18747 H 1716.98 -0.121841 -0.730914 0
M  V30 18748 H 1719.62 -0.98322 -1.64332 0
M  V30 18749 H 1717.93 0.312411 -3.90552 0
M  V30 18750 H 1719.62 -0.0648705 -4.00948 0
M  V30 18751 H 1716.21 -1.49852 -4.0155 0
M  V30 18752 H 1720.4 -2.42792 -4.32857 0
M  V30 18753 H 1715.65 -3.74946 -4.82935 0
M  V30 18754 H 1719.83 -4.68121 -5.15593 0
M  V30 18755 H 1717.46 -5.34729 -5.40341 0
M  V30 18756 N 1719.03 1.48775 -0.519977 0
M  V30 18757 C 1720.26 2.07394 0.0161061 0
M  V30 18758 C 1720.68 1.37532 1.28322 0
M  V30 18759 O 1720.04 0.438049 1.75928 0
M  V30 18760 C 1720.09 3.59844 0.233382 0
M  V30 18761 O 1719.19 3.91235 1.30418 0
M  V30 18762 H 1718.53 0.663094 -0.0346678 0
M  V30 18763 H 1721.06 1.91323 -0.725029 0
M  V30 18764 H 1721.07 4.05409 0.45911 0
M  V30 18765 H 1719.75 4.10098 -0.69229 0
M  V30 18766 H 1718.32 3.5746 1.0619 0
M  V30 18767 N 1720.51 0.254649 1.55529 0
M  V30 18768 C 1721.42 -0.652184 2.25352 0
M  V30 18769 C 1722.43 -1.18695 1.2723 0
M  V30 18770 O 1723.61 -1.22158 1.60123 0
M  V30 18771 C 1720.68 -1.829 2.94531 0
M  V30 18772 C 1719.74 -1.33294 4.08082 0
M  V30 18773 C 1718.97 -2.45367 4.73952 0
M  V30 18774 O 1719.19 -3.64271 4.38933 0
M  V30 18775 O 1718.13 -2.14684 5.62311 0
M  V30 18776 H 1721.95 -0.0871786 3.03575 0
M  V30 18777 H 1719.54 0.0228432 1.49383 0
M  V30 18778 H 1721.42 -2.5156 3.38076 0
M  V30 18779 H 1720.09 -2.38148 2.19242 0
M  V30 18780 H 1719 -0.613396 3.69037 0
M  V30 18781 H 1720.33 -0.826454 4.85212 0
M  V30 18782 N 1721.99 -1.57589 -0.0183649 0
M  V30 18783 C 1723.21 -1.94024 -0.718491 0
M  V30 18784 C 1723.63 -0.85529 -1.68316 0
M  V30 18785 O 1722.99 0.167403 -1.81731 0
M  V30 18786 C 1723.04 -3.30427 -1.4663 0
M  V30 18787 O 1722.76 -4.34755 -0.540345 0
M  V30 18788 C 1724.26 -3.81209 -2.26262 0
M  V30 18789 H 1721.48 -0.640101 -0.201275 0
M  V30 18790 H 1724.02 -2.04482 0.0272935 0
M  V30 18791 H 1722.18 -3.21333 -2.16388 0
M  V30 18792 H 1722.59 -5.13554 -1.06593 0
M  V30 18793 H 1724.07 -4.79131 -2.74112 0
M  V30 18794 H 1724.54 -3.12957 -3.08147 0
M  V30 18795 H 1725.15 -3.9342 -1.61558 0
M  V30 18796 N 1723.46 0.290824 -1.54893 0
M  V30 18797 C 1724.71 1.02627 -1.74916 0
M  V30 18798 C 1725.04 1.86572 -0.538921 0
M  V30 18799 O 1724.32 1.88888 0.463844 0
M  V30 18800 C 1724.6 1.92376 -3.04407 0
M  V30 18801 C 1724.45 1.11542 -4.3575 0
M  V30 18802 C 1725.77 2.91383 -3.29824 0
M  V30 18803 H 1722.89 0.371685 -0.636411 0
M  V30 18804 H 1725.53 0.300072 -1.87615 0
M  V30 18805 H 1723.68 2.54295 -2.93711 0
M  V30 18806 H 1725.36 0.518312 -4.58379 0
M  V30 18807 H 1723.6 0.418386 -4.31778 0
M  V30 18808 H 1724.27 1.77616 -5.22644 0
M  V30 18809 H 1726.75 2.39595 -3.40196 0
M  V30 18810 H 1725.62 3.51338 -4.21726 0
M  V30 18811 H 1725.88 3.65579 -2.48606 0
M  V30 18812 N 1724.94 1.47523 0.554506 0
M  V30 18813 C 1726.17 1.58154 1.34172 0
M  V30 18814 C 1726.59 0.233124 1.8665 0
M  V30 18815 O 1725.95 -0.791439 1.63113 0
M  V30 18816 C 1726 2.61242 2.48566 0
M  V30 18817 O 1725.1 2.167 3.50877 0
M  V30 18818 H 1724.44 0.531184 0.398421 0
M  V30 18819 H 1726.97 1.93324 0.669841 0
M  V30 18820 H 1726.98 2.81746 2.95098 0
M  V30 18821 H 1725.66 3.59148 2.09727 0
M  V30 18822 H 1724.24 2.06305 3.10632 0
M  V30 18823 N 1726.42 -0.801453 1.357 0
M  V30 18824 C 1727.67 -1.55571 1.29004 0
M  V30 18825 C 1727.99 -1.9454 -0.133836 0
M  V30 18826 O 1727.26 -1.64004 -1.07143 0
M  V30 18827 H 1725.84 -0.576922 0.47452 0
M  V30 18828 H 1728.5 -0.95568 1.69861 0
M  V30 18829 H 1727.6 -2.46879 1.90937 0
M  V30 18830 N 1727.9 -1.19782 -1.02421 0
M  V30 18831 C 1728.83 -0.963553 -2.12692 0
M  V30 18832 C 1729.81 0.104769 -1.69777 0
M  V30 18833 O 1730.99 -0.0512017 -1.94132 0
M  V30 18834 C 1728.12 -0.506525 -3.43586 0
M  V30 18835 C 1727.08 -1.51722 -4.00206 0
M  V30 18836 C 1726.4 -0.917097 -5.26776 0
M  V30 18837 C 1727.7 -2.89879 -4.34474 0
M  V30 18838 H 1729.4 -1.88579 -2.32547 0
M  V30 18839 H 1726.94 -0.908111 -1.11756 0
M  V30 18840 H 1728.9 -0.329907 -4.20107 0
M  V30 18841 H 1727.62 0.451322 -3.23467 0
M  V30 18842 H 1726.28 -1.68106 -3.25785 0
M  V30 18843 H 1725.93 0.0484457 -5.02977 0
M  V30 18844 H 1725.63 -1.59204 -5.65622 0
M  V30 18845 H 1727.15 -0.751379 -6.05959 0
M  V30 18846 H 1728.57 -2.7705 -5.01913 0
M  V30 18847 H 1726.96 -3.54209 -4.84413 0
M  V30 18848 H 1728.03 -3.42179 -3.43571 0
M  V30 18849 N 1729.38 1.21606 -1.00248 0
M  V30 18850 C 1730.79 1.72365 -0.717446 0
M  V30 18851 C 1731.14 1.80668 0.765078 0
M  V30 18852 O 1730.26 1.45951 1.59772 0
M  V30 18853 C 1730.86 3.13046 -1.29567 0
M  V30 18854 C 1729.42 3.61172 -1.05981 0
M  V30 18855 C 1728.57 2.38775 -1.41003 0
M  V30 18856 H 1731.52 1.06818 -1.17369 0
M  V30 18857 H 1731.54 3.74392 -0.679054 0
M  V30 18858 H 1731.05 3.0697 -2.37467 0
M  V30 18859 H 1729.15 3.726 0.00214307 0
M  V30 18860 H 1729.26 4.46778 -1.72993 0
M  V30 18861 H 1727.63 2.40839 -0.82877 0
M  V30 18862 H 1728.41 2.35352 -2.49928 0
M  V30 18863 N 1730.86 0.776895 1.37121 0
M  V30 18864 C 1732.1 0.344063 1.9986 0
M  V30 18865 C 1732.43 -1.07806 1.61529 0
M  V30 18866 O 1731.71 -1.74258 0.863963 0
M  V30 18867 C 1731.99 0.493512 3.56702 0
M  V30 18868 C 1731.85 1.95842 4.04927 0
M  V30 18869 C 1733.16 -0.099097 4.39988 0
M  V30 18870 H 1730.28 0.126489 0.726064 0
M  V30 18871 H 1732.93 0.980899 1.62722 0
M  V30 18872 H 1731.08 -0.0486344 3.8847 0
M  V30 18873 H 1732.75 2.56067 3.83702 0
M  V30 18874 H 1730.99 2.46544 3.56929 0
M  V30 18875 H 1731.66 2.01402 5.13947 0
M  V30 18876 H 1734.14 0.363545 4.14509 0
M  V30 18877 H 1733.01 0.0355748 5.48888 0
M  V30 18878 H 1733.27 -1.18995 4.25785 0
M  V30 18879 N 1732.33 -1.48497 0.527859 0
M  V30 18880 C 1733.58 -2.01698 -0.00900086 0
M  V30 18881 C 1733.9 -1.4104 -1.35525 0
M  V30 18882 O 1735.1 -1.85726 -1.98035 0
M  V30 18883 C 1733.56 -3.59839 -0.0664428 0
M  V30 18884 C 1733.17 -4.2948 1.27479 0
M  V30 18885 C 1734.91 -4.20893 -0.552244 0
M  V30 18886 C 1732.82 -5.79548 1.17805 0
M  V30 18887 H 1731.75 -0.753966 -0.00713463 0
M  V30 18888 H 1734.4 -1.70779 0.67132 0
M  V30 18889 H 1732.78 -3.8759 -0.811795 0
M  V30 18890 H 1733.95 -4.13403 2.03554 0
M  V30 18891 H 1732.27 -3.80289 1.69616 0
M  V30 18892 H 1734.87 -5.30825 -0.642556 0
M  V30 18893 H 1735.21 -3.86066 -1.55752 0
M  V30 18894 H 1735.74 -3.97563 0.137363 0
M  V30 18895 H 1732.48 -6.18945 2.15841 0
M  V30 18896 H 1732 -5.98044 0.458624 0
M  V30 18897 H 1733.68 -6.41153 0.867834 0
M  V30 18898 N 1733.81 -0.262893 -1.55392 0
M  V30 18899 C 1735.23 0.09157 -1.59337 0
M  V30 18900 C 1735.43 1.55612 -1.28012 0
M  V30 18901 O 1734.48 2.30308 -1.0351 0
M  V30 18902 C 1735.8 -0.272043 -2.99467 0
M  V30 18903 C 1737.34 -0.217653 -3.12242 0
M  V30 18904 C 1737.82 -0.555528 -4.54618 0
M  V30 18905 N 1739.31 -0.506623 -4.60421 0
M  V30 18906 C 1740.05 -0.741013 -5.68592 0
M  V30 18907 N 1739.54 -1.03937 -6.84959 0
M  V30 18908 N 1741.33 -0.670636 -5.58085 0
M  V30 18909 H 1733.49 -1.2178 -1.74021 0
M  V30 18910 H 1735.75 -0.491131 -0.81086 0
M  V30 18911 H 1735.45 -1.29012 -3.27183 0
M  V30 18912 H 1735.33 0.393105 -3.75146 0
M  V30 18913 H 1737.72 0.791123 -2.84298 0
M  V30 18914 H 1737.8 -0.916884 -2.38803 0
M  V30 18915 H 1737.44 -1.56193 -4.83287 0
M  V30 18916 H 1737.37 0.165358 -5.2634 0
M  V30 18917 H 1739.86 -0.285397 -3.76821 0
M  V30 18918 H 1740.17 -1.20522 -7.63344 0
M  V30 18919 H 1738.52 -1.07702 -6.86604 0
M  V30 18920 H 1741.71 -0.437473 -4.66051 0
M  V30 18921 H 1741.88 -0.856692 -6.42312 0
M  V30 18922 N 1735.29 1.57597 0.0100073 0
M  V30 18923 C 1736.25 2.06745 0.989401 0
M  V30 18924 C 1737.25 0.97499 1.27869 0
M  V30 18925 O 1738.44 1.23798 1.22555 0
M  V30 18926 C 1735.57 2.50048 2.31709 0
M  V30 18927 H 1736.77 2.9454 0.564473 0
M  V30 18928 H 1734.32 1.54168 0.257266 0
M  V30 18929 H 1735.06 1.65466 2.78911 0
M  V30 18930 H 1734.84 3.29823 2.12035 0
M  V30 18931 H 1736.33 2.88433 3.01987 0
M  V30 18932 N 1736.77 -0.282606 1.55045 0
M  V30 18933 C 1738.01 -1.01547 1.75198 0
M  V30 18934 C 1738.34 -1.86627 0.54779 0
M  V30 18935 O 1737.6 -1.89974 -0.46993 0
M  V30 18936 C 1737.9 -1.93554 3.00452 0
M  V30 18937 C 1737.56 -1.24303 4.33428 0
M  V30 18938 C 1736.22 -1.0515 4.69571 0
M  V30 18939 C 1738.58 -0.749451 5.15784 0
M  V30 18940 C 1735.9 -0.353528 5.85634 0
M  V30 18941 C 1738.26 -0.0651157 6.32566 0
M  V30 18942 C 1736.92 0.138206 6.67357 0
M  V30 18943 H 1736.19 -0.371587 0.641096 0
M  V30 18944 H 1738.84 -0.288623 1.89312 0
M  V30 18945 H 1737.14 -2.72828 2.81197 0
M  V30 18946 H 1738.84 -2.50363 3.1324 0
M  V30 18947 H 1735.43 -1.4022 4.05014 0
M  V30 18948 H 1739.61 -0.885074 4.88344 0
M  V30 18949 H 1734.87 -0.185186 6.11119 0
M  V30 18950 H 1739.04 0.325146 6.95641 0
M  V30 18951 H 1736.67 0.681034 7.57143 0
M  V30 18952 N 1738.25 -1.47815 -0.546675 0
M  V30 18953 C 1739.16 -1.63744 -1.68003 0
M  V30 18954 C 1740.17 -0.520118 -1.66044 0
M  V30 18955 O 1741.35 -0.789033 -1.853 0
M  V30 18956 C 1738.41 -1.65778 -3.04497 0
M  V30 18957 C 1737.47 -2.89015 -3.17441 0
M  V30 18958 C 1736.71 -2.90943 -4.47424 0
M  V30 18959 O 1736.93 -2.01769 -5.33522 0
M  V30 18960 O 1735.86 -3.82927 -4.64382 0
M  V30 18961 H 1739.69 -2.59665 -1.57505 0
M  V30 18962 H 1737.27 -1.31022 -0.717883 0
M  V30 18963 H 1739.16 -1.69734 -3.85705 0
M  V30 18964 H 1737.83 -0.730268 -3.15355 0
M  V30 18965 H 1736.74 -2.90599 -2.35591 0
M  V30 18966 H 1738.07 -3.81095 -3.11492 0
M  V30 18967 N 1739.72 0.794246 -1.36123 0
M  V30 18968 C 1740.67 1.8963 -1.26588 0
M  V30 18969 C 1741.66 1.60118 -0.158415 0
M  V30 18970 O 1742.85 1.72632 -0.390783 0
M  V30 18971 C 1739.98 3.26767 -1.05255 0
M  V30 18972 C 1739.06 3.62304 -2.20447 0
M  V30 18973 N 1739.46 3.69185 -3.4574 0
M  V30 18974 C 1737.75 3.92336 -2.12106 0
M  V30 18975 C 1738.45 4.00822 -4.21565 0
M  V30 18976 N 1737.43 4.15553 -3.50453 0
M  V30 18977 H 1741.23 1.93169 -2.21501 0
M  V30 18978 H 1738.75 0.989508 -1.28773 0
M  V30 18979 H 1740.74 4.05575 -0.965108 0
M  V30 18980 H 1739.4 3.24505 -0.112374 0
M  V30 18981 H 1740.41 3.51951 -3.79935 0
M  V30 18982 H 1737.09 3.98028 -1.26016 0
M  V30 18983 H 1738.48 4.1311 -5.29896 0
M  V30 18984 N 1741.2 1.20323 1.01785 0
M  V30 18985 C 1742.13 0.908716 2.10416 0
M  V30 18986 C 1743.15 -0.103029 1.62474 0
M  V30 18987 O 1744.34 0.127825 1.78042 0
M  V30 18988 C 1741.44 0.340601 3.37184 0
M  V30 18989 C 1740.61 1.40358 4.14268 0
M  V30 18990 C 1739.67 0.847016 5.19338 0
M  V30 18991 O 1738.69 1.5274 5.48324 0
M  V30 18992 N 1739.9 -0.344198 5.79479 0
M  V30 18993 H 1742.66 1.84383 2.36269 0
M  V30 18994 H 1740.22 1.10673 1.18165 0
M  V30 18995 H 1742.21 -0.0458443 4.04674 0
M  V30 18996 H 1740.78 -0.499042 3.08591 0
M  V30 18997 H 1740 1.96442 3.41766 0
M  V30 18998 H 1741.29 2.11952 4.62551 0
M  V30 18999 H 1740.69 -0.914263 5.58263 0
M  V30 19000 H 1739.25 -0.672296 6.48324 0
M  V30 19001 N 1742.68 -1.21073 1.00892 0
M  V30 19002 C 1743.61 -2.22968 0.530841 0
M  V30 19003 C 1744.62 -1.58239 -0.382664 0
M  V30 19004 O 1745.81 -1.77567 -0.182237 0
M  V30 19005 C 1742.91 -3.37991 -0.248096 0
M  V30 19006 C 1742.09 -4.32309 0.665439 0
M  V30 19007 C 1741.15 -5.2616 -0.0645731 0
M  V30 19008 O 1740.17 -5.66484 0.555383 0
M  V30 19009 N 1741.37 -5.64777 -1.3419 0
M  V30 19010 H 1744.14 -2.64614 1.4071 0
M  V30 19011 H 1741.7 -1.35536 0.885528 0
M  V30 19012 H 1743.69 -3.97774 -0.745513 0
M  V30 19013 H 1742.26 -2.95297 -1.02558 0
M  V30 19014 H 1741.48 -3.70607 1.34329 0
M  V30 19015 H 1742.77 -4.92254 1.28701 0
M  V30 19016 H 1742.17 -5.34016 -1.86664 0
M  V30 19017 H 1740.72 -6.26905 -1.78419 0
M  V30 19018 N 1744.16 -0.784156 -1.36707 0
M  V30 19019 C 1745.57 -0.465219 -1.52669 0
M  V30 19020 C 1745.77 1.01729 -1.73935 0
M  V30 19021 O 1744.83 1.80289 -1.76783 0
M  V30 19022 C 1746.14 -1.29109 -2.71572 0
M  V30 19023 C 1747.69 -1.28424 -2.8544 0
M  V30 19024 C 1748.17 -2.09373 -4.07341 0
M  V30 19025 N 1749.66 -2.06792 -4.14477 0
M  V30 19026 C 1750.39 -2.66199 -5.07864 0
M  V30 19027 N 1749.89 -3.34445 -6.06728 0
M  V30 19028 N 1751.68 -2.55962 -5.0044 0
M  V30 19029 H 1743.83 -1.74456 -1.21156 0
M  V30 19030 H 1746.1 -0.741286 -0.59093 0
M  V30 19031 H 1745.8 -2.34219 -2.62363 0
M  V30 19032 H 1745.68 -0.928764 -3.65587 0
M  V30 19033 H 1748.06 -0.241077 -2.94114 0
M  V30 19034 H 1748.14 -1.68629 -1.92348 0
M  V30 19035 H 1747.79 -3.13718 -3.99429 0
M  V30 19036 H 1747.72 -1.66542 -4.99571 0
M  V30 19037 H 1750.21 -1.57118 -3.43689 0
M  V30 19038 H 1750.52 -3.77118 -6.74538 0
M  V30 19039 H 1748.87 -3.38546 -6.06969 0
M  V30 19040 H 1752.06 -2.02251 -4.22152 0
M  V30 19041 H 1752.23 -3.02553 -5.73032 0
M  V30 19042 N 1745.64 1.48215 -0.535727 0
M  V30 19043 C 1746.88 2.025 -0.00372753 0
M  V30 19044 C 1747.21 1.41227 1.33735 0
M  V30 19045 O 1746.47 0.549544 1.87826 0
M  V30 19046 C 1746.77 3.57036 0.161344 0
M  V30 19047 C 1746.43 4.37122 -1.10611 0
M  V30 19048 C 1745.09 4.58724 -1.45346 0
M  V30 19049 C 1747.45 4.83469 -1.94698 0
M  V30 19050 C 1744.77 5.2392 -2.64055 0
M  V30 19051 C 1747.13 5.49973 -3.1259 0
M  V30 19052 C 1745.79 5.69812 -3.47664 0
M  V30 19053 H 1745.06 0.740999 -0.001364 0
M  V30 19054 H 1747.71 1.78133 -0.70291 0
M  V30 19055 H 1746.01 3.80274 0.943337 0
M  V30 19056 H 1747.71 3.96666 0.587981 0
M  V30 19057 H 1744.3 4.20573 -0.825608 0
M  V30 19058 H 1748.48 4.66577 -1.69173 0
M  V30 19059 H 1743.74 5.37477 -2.91424 0
M  V30 19060 H 1747.91 5.84852 -3.78049 0
M  V30 19061 H 1745.54 6.20103 -4.39746 0
M  V30 19062 N 1747.11 0.27113 1.5525 0
M  V30 19063 C 1748.04 -0.61179 2.25343 0
M  V30 19064 C 1749.03 -1.16208 1.24216 0
M  V30 19065 O 1750.21 -1.19696 1.52927 0
M  V30 19066 C 1747.34 -1.7978 2.97147 0
M  V30 19067 C 1746.29 -1.37922 4.05169 0
M  V30 19068 C 1745.62 -2.64801 4.64526 0
M  V30 19069 C 1746.92 -0.532357 5.1958 0
M  V30 19070 H 1748.61 -0.0272538 2.99388 0
M  V30 19071 H 1746.16 -0.0116681 1.43995 0
M  V30 19072 H 1748.11 -2.42132 3.44891 0
M  V30 19073 H 1746.84 -2.40811 2.20631 0
M  V30 19074 H 1745.5 -0.778918 3.5823 0
M  V30 19075 H 1745.14 -3.24081 3.84682 0
M  V30 19076 H 1744.84 -2.37507 5.37461 0
M  V30 19077 H 1746.37 -3.28009 5.15017 0
M  V30 19078 H 1747.78 -1.06078 5.63401 0
M  V30 19079 H 1746.18 -0.35447 5.99052 0
M  V30 19080 H 1747.25 0.44981 4.82809 0
M  V30 19081 N 1748.59 -1.576 -0.00164943 0
M  V30 19082 C 1749.54 -2.08318 -0.993594 0
M  V30 19083 C 1750.51 -0.978234 -1.34238 0
M  V30 19084 O 1751.69 -1.25056 -1.44103 0
M  V30 19085 C 1748.83 -2.58982 -2.28084 0
M  V30 19086 C 1747.95 -3.83372 -1.99123 0
M  V30 19087 C 1747.08 -4.22543 -3.21917 0
M  V30 19088 C 1746.12 -5.39774 -2.88635 0
M  V30 19089 N 1745.26 -5.74247 -4.03962 0
M  V30 19090 H 1750.1 -2.92802 -0.554154 0
M  V30 19091 H 1747.64 -1.44748 -0.261973 0
M  V30 19092 H 1749.59 -2.86434 -3.03334 0
M  V30 19093 H 1748.22 -1.77374 -2.697 0
M  V30 19094 H 1747.28 -3.62838 -1.14248 0
M  V30 19095 H 1748.59 -4.68722 -1.70591 0
M  V30 19096 H 1747.74 -4.51268 -4.05514 0
M  V30 19097 H 1746.48 -3.35899 -3.53587 0
M  V30 19098 H 1745.49 -5.10774 -2.03445 0
M  V30 19099 H 1746.71 -6.28094 -2.58215 0
M  V30 19100 H 1744.66 -4.9056 -4.35531 0
M  V30 19101 H 1744.57 -6.54167 -3.78948 0
M  V30 19102 H 1745.84 -6.07563 -4.88352 0
M  V30 19103 N 1750.07 0.274379 -1.55193 0
M  V30 19104 C 1751.02 1.34139 -1.84366 0
M  V30 19105 C 1752 1.44755 -0.702475 0
M  V30 19106 O 1753.2 1.48459 -0.963785 0
M  V30 19107 C 1750.33 2.7019 -2.11784 0
M  V30 19108 C 1749.41 2.63689 -3.32158 0
M  V30 19109 N 1749.8 2.26808 -4.52097 0
M  V30 19110 C 1748.1 2.94752 -3.34719 0
M  V30 19111 C 1748.8 2.30264 -5.34185 0
M  V30 19112 N 1747.78 2.68683 -4.72557 0
M  V30 19113 H 1751.58 1.0463 -2.74645 0
M  V30 19114 H 1749.09 0.483012 -1.55051 0
M  V30 19115 H 1751.09 3.47158 -2.30839 0
M  V30 19116 H 1749.75 3.00588 -1.22788 0
M  V30 19117 H 1750.76 1.98809 -4.78221 0
M  V30 19118 H 1747.44 3.29871 -2.55912 0
M  V30 19119 H 1748.83 2.04323 -6.4008 0
M  V30 19120 N 1751.55 1.48103 0.538828 0
M  V30 19121 C 1752.5 1.62398 1.66522 0
M  V30 19122 C 1753.49 0.490669 1.62138 0
M  V30 19123 O 1754.7 0.669098 1.67102 0
M  V30 19124 H 1751.07 0.511415 0.551324 0
M  V30 19125 H 1753.04 2.57018 1.51606 0
M  V30 19126 C 1751.79 1.67264 3.04824 0
M  V30 19127 H 1751.11 2.53828 3.08887 0
M  V30 19128 H 1752.55 1.81312 3.83278 0
M  V30 19129 C 1751.01 0.409539 3.34402 0
M  V30 19130 O 1751.54 -0.481433 3.98805 0
M  V30 19131 N 1749.75 0.283934 2.8921 0
M  V30 19132 H 1749.3 1.00993 2.36977 0
M  V30 19133 H 1749.25 -0.560201 3.09369 0
M  V30 19134 N 1753.03 -0.787016 1.36542 0
M  V30 19135 C 1753.94 -1.93103 1.33223 0
M  V30 19136 C 1754.95 -1.72419 0.234047 0
M  V30 19137 O 1756.13 -1.95915 0.466828 0
M  V30 19138 C 1753.19 -3.28002 1.12319 0
M  V30 19139 C 1752.25 -3.61447 2.31635 0
M  V30 19140 C 1751.49 -4.89909 2.11719 0
M  V30 19141 O 1751.71 -5.59818 1.0936 0
M  V30 19142 O 1750.64 -5.22065 2.99552 0
M  V30 19143 H 1754.47 -1.98853 2.29545 0
M  V30 19144 H 1752.06 -0.92761 1.17114 0
M  V30 19145 H 1753.94 -4.08722 1.02589 0
M  V30 19146 H 1752.61 -3.23138 0.19061 0
M  V30 19147 H 1751.52 -2.81024 2.46934 0
M  V30 19148 H 1752.85 -3.71037 3.23407 0
M  V30 19149 N 1754.5 -1.20861 -1.01145 0
M  V30 19150 C 1755.75 -1.02343 -1.75082 0
M  V30 19151 C 1756.08 0.44278 -1.89085 0
M  V30 19152 O 1755.36 1.32867 -1.42045 0
M  V30 19153 C 1755.64 -1.71368 -3.1671 0
M  V30 19154 C 1755.49 -3.25466 -3.1047 0
M  V30 19155 C 1756.81 -1.45097 -4.15494 0
M  V30 19156 H 1753.93 -0.373198 -0.635525 0
M  V30 19157 H 1756.57 -1.48947 -1.17961 0
M  V30 19158 H 1754.72 -1.31746 -3.6548 0
M  V30 19159 H 1756.4 -3.74415 -2.69464 0
M  V30 19160 H 1754.64 -3.56104 -2.47735 0
M  V30 19161 H 1755.31 -3.68924 -4.10608 0
M  V30 19162 H 1757.79 -1.7948 -3.75401 0
M  V30 19163 H 1756.66 -1.95917 -5.12745 0
M  V30 19164 H 1756.92 -0.379628 -4.40467 0
M  V30 19165 N 1755.98 1.20536 -1.01532 0
M  V30 19166 C 1757.4 1.41929 -0.729957 0
M  V30 19167 C 1757.6 1.89286 0.69088 0
M  V30 19168 O 1756.65 2.06094 1.45882 0
M  V30 19169 C 1757.97 2.44202 -1.75458 0
M  V30 19170 C 1759.52 2.57971 -1.77257 0
M  V30 19171 C 1759.99 3.63486 -2.78643 0
M  V30 19172 N 1761.48 3.70968 -2.77375 0
M  V30 19173 C 1762.22 4.52266 -3.52481 0
M  V30 19174 N 1761.71 5.37379 -4.37259 0
M  V30 19175 N 1763.51 4.46787 -3.41084 0
M  V30 19176 H 1755.66 0.881116 -1.93262 0
M  V30 19177 H 1757.92 0.449299 -0.834766 0
M  V30 19178 H 1757.63 2.16401 -2.77243 0
M  V30 19179 H 1757.5 3.43171 -1.56568 0
M  V30 19180 H 1759.89 2.85103 -0.761586 0
M  V30 19181 H 1759.97 1.59202 -2.00221 0
M  V30 19182 H 1759.61 3.37097 -3.79905 0
M  V30 19183 H 1759.54 4.61874 -2.52942 0
M  V30 19184 H 1762.03 3.10171 -2.15876 0
M  V30 19185 H 1762.35 5.96495 -4.91338 0
M  V30 19186 H 1760.69 5.36886 -4.41337 0
M  V30 19187 H 1763.88 3.79329 -2.74275 0
M  V30 19188 H 1764.05 5.0991 -3.9987 0
M  V30 19189 N 1757.46 0.791395 1.36289 0
M  V30 19190 C 1758.71 0.361277 1.98438 0
M  V30 19191 C 1759.02 -1.07343 1.63514 0
M  V30 19192 O 1760.23 -1.60591 2.18913 0
M  V30 19193 C 1758.68 0.595005 3.54947 0
M  V30 19194 C 1758.29 2.04125 3.98794 0
M  V30 19195 C 1760.04 0.22949 4.23879 0
M  V30 19196 C 1757.94 2.22154 5.48089 0
M  V30 19197 H 1756.87 0.131343 0.742472 0
M  V30 19198 H 1759.52 0.973308 1.5556 0
M  V30 19199 H 1757.91 -0.0867658 3.95905 0
M  V30 19200 H 1759.08 2.75959 3.6903 0
M  V30 19201 H 1757.4 2.3652 3.42706 0
M  V30 19202 H 1759.99 0.342442 5.33602 0
M  V30 19203 H 1760.34 -0.822622 4.08091 0
M  V30 19204 H 1760.87 0.864575 3.88291 0
M  V30 19205 H 1757.61 3.25755 5.68827 0
M  V30 19206 H 1757.13 1.54827 5.79473 0
M  V30 19207 H 1758.81 2.02964 6.14341 0
M  V30 19208 N 1758.94 -1.47929 0.54358 0
M  V30 19209 C 1760.22 -1.95535 -0.0505687 0
M  V30 19210 C 1760.6 -1.48603 -1.49934 0
M  V30 19211 O 1759.94 -0.718655 -2.16905 0
M  V30 19212 C 1760.15 -3.48907 0.0807654 0
M  V30 19213 C 1761.5 -4.2454 -0.0715671 0
M  V30 19214 O 1762.53 -3.56199 0.007637 0
M  V30 19215 O 1761.39 -5.45975 -0.239596 0
M  V30 19216 H 1758.48 -0.823883 -0.0717396 0
M  V30 19217 H 1761.03 -1.58391 0.60914 0
M  V30 19218 H 1759.8 -3.75828 1.08944 0
M  V30 19219 H 1759.42 -3.92781 -0.617178 0
M  V30 19220 N 1760.42 -0.27936 -1.55104 0
M  V30 19221 C 1761.65 0.339429 -2.04097 0
M  V30 19222 C 1762.06 1.49151 -1.15756 0
M  V30 19223 O 1761.42 1.81624 -0.178558 0
M  V30 19224 C 1761.47 0.816392 -3.52161 0
M  V30 19225 O 1761.19 -0.289812 -4.3714 0
M  V30 19226 C 1762.69 1.50256 -4.17059 0
M  V30 19227 H 1759.91 0.0768615 -0.666583 0
M  V30 19228 H 1762.45 -0.412691 -2.00293 0
M  V30 19229 H 1760.61 1.51859 -3.56395 0
M  V30 19230 H 1761.02 0.0776213 -5.24443 0
M  V30 19231 H 1762.5 1.78767 -5.22251 0
M  V30 19232 H 1762.97 2.4355 -3.65486 0
M  V30 19233 H 1763.58 0.844106 -4.16839 0
M  V30 19234 N 1761.9 1.57599 -0.0067085 0
M  V30 19235 C 1762.84 2.09973 1.00071 0
M  V30 19236 C 1763.84 1.02121 1.35158 0
M  V30 19237 O 1765.04 1.20579 1.33644 0
M  V30 19238 H 1761.42 0.670547 0.340398 0
M  V30 19239 H 1763.39 2.93593 0.533471 0
M  V30 19240 C 1762.14 2.62376 2.28153 0
M  V30 19241 H 1761.46 3.45002 2.02024 0
M  V30 19242 H 1762.9 3.02694 2.96905 0
M  V30 19243 C 1761.36 1.54093 2.99595 0
M  V30 19244 O 1761.89 0.927722 3.9084 0
M  V30 19245 N 1760.1 1.26676 2.61537 0
M  V30 19246 H 1759.64 1.76728 1.87417 0
M  V30 19247 H 1759.6 0.544464 3.0965 0
M  V30 19248 N 1763.37 -0.266145 1.55336 0
M  V30 19249 C 1764.31 -1.35159 1.85107 0
M  V30 19250 C 1765.32 -1.45213 0.736006 0
M  V30 19251 O 1766.51 -1.46907 1.01393 0
M  V30 19252 C 1763.61 -2.73218 2.00512 0
M  V30 19253 C 1762.78 -2.85671 3.31226 0
M  V30 19254 C 1761.84 -4.0445 3.36611 0
M  V30 19255 O 1760.87 -3.94884 4.09945 0
M  V30 19256 N 1762.07 -5.16735 2.64508 0
M  V30 19257 H 1764.83 -1.09963 2.78798 0
M  V30 19258 H 1762.39 -0.456261 1.55338 0
M  V30 19259 H 1764.39 -3.50983 2.01477 0
M  V30 19260 H 1762.96 -2.91206 1.13655 0
M  V30 19261 H 1762.18 -1.94736 3.42741 0
M  V30 19262 H 1763.46 -2.90927 4.17419 0
M  V30 19263 H 1762.86 -5.27395 2.04624 0
M  V30 19264 H 1761.42 -5.92706 2.71189 0
M  V30 19265 N 1764.85 -1.48386 -0.530967 0
M  V30 19266 C 1765.8 -1.62835 -1.63564 0
M  V30 19267 C 1766.77 -0.470453 -1.59298 0
M  V30 19268 O 1767.95 -0.693813 -1.77738 0
M  V30 19269 C 1765.09 -1.67314 -3.01828 0
M  V30 19270 C 1764.21 -2.94204 -3.16335 0
M  V30 19271 C 1763.34 -2.8985 -4.45152 0
M  V30 19272 C 1762.38 -4.11449 -4.53185 0
M  V30 19273 N 1761.52 -4.05178 -5.7339 0
M  V30 19274 H 1766.36 -2.57172 -1.50554 0
M  V30 19275 H 1763.89 -1.27537 -0.732991 0
M  V30 19276 H 1765.85 -1.67892 -3.81927 0
M  V30 19277 H 1764.48 -0.764688 -3.13612 0
M  V30 19278 H 1763.53 -3.03375 -2.29495 0
M  V30 19279 H 1764.85 -3.84179 -3.18132 0
M  V30 19280 H 1764 -2.88824 -5.33541 0
M  V30 19281 H 1762.74 -1.97602 -4.45875 0
M  V30 19282 H 1761.74 -4.12751 -3.63203 0
M  V30 19283 H 1762.97 -5.04855 -4.54201 0
M  V30 19284 H 1760.92 -3.15749 -5.75012 0
M  V30 19285 H 1760.83 -4.88857 -5.76676 0
M  V30 19286 H 1762.1 -4.08209 -6.64067 0
M  V30 19287 N 1766.33 0.779763 -1.36958 0
M  V30 19288 C 1767.57 1.55113 -1.33114 0
M  V30 19289 C 1767.93 1.91808 0.0859451 0
M  V30 19290 O 1769.13 2.67644 0.24903 0
M  V30 19291 C 1767.41 2.78752 -2.23679 0
M  V30 19292 S 1768.96 3.68899 -2.37611 0
M  V30 19293 H 1765.78 0.531134 -0.472671 0
M  V30 19294 H 1768.38 0.917613 -1.72627 0
M  V30 19295 H 1767.09 2.4986 -3.25573 0
M  V30 19296 H 1766.62 3.47069 -1.85221 0
M  V30 19297 H 1768.63 4.70347 -1.58075 0
M  V30 19298 N 1767.81 1.21396 1.00503 0
M  V30 19299 C 1769.05 1.0327 1.74537 0
M  V30 19300 C 1769.39 -0.432746 1.89317 0
M  V30 19301 O 1768.66 -1.32111 1.42747 0
M  V30 19302 C 1768.94 1.73045 3.15797 0
M  V30 19303 C 1768.8 3.27108 3.0874 0
M  V30 19304 C 1770.12 1.47298 4.14718 0
M  V30 19305 H 1767.24 0.376563 0.633537 0
M  V30 19306 H 1769.88 1.49571 1.17169 0
M  V30 19307 H 1768.03 1.33682 3.64776 0
M  V30 19308 H 1769.7 3.75839 2.67475 0
M  V30 19309 H 1767.94 3.57413 2.45843 0
M  V30 19310 H 1768.61 3.71096 4.08646 0
M  V30 19311 H 1771.09 1.81468 3.74444 0
M  V30 19312 H 1769.97 1.98633 5.11699 0
M  V30 19313 H 1770.23 0.402981 4.4026 0
M  V30 19314 N 1769.29 -1.19996 1.0217 0
M  V30 19315 C 1770.53 -1.89495 0.713989 0
M  V30 19316 C 1770.86 -1.79172 -0.756819 0
M  V30 19317 O 1770.12 -1.17362 -1.56603 0
M  V30 19318 C 1770.41 -3.39999 1.10162 0
M  V30 19319 C 1770.08 -3.70524 2.5695 0
M  V30 19320 C 1768.74 -3.78565 2.97056 0
M  V30 19321 C 1771.09 -3.8442 3.51952 0
M  V30 19322 C 1768.42 -3.97965 4.31092 0
M  V30 19323 C 1770.77 -4.05332 4.85684 0
M  V30 19324 C 1769.44 -4.11604 5.25489 0
M  V30 19325 H 1768.71 -0.693412 0.261267 0
M  V30 19326 H 1771.36 -1.42146 1.28323 0
M  V30 19327 H 1769.66 -3.89197 0.45088 0
M  V30 19328 H 1771.36 -3.92078 0.841158 0
M  V30 19329 H 1767.95 -3.64868 2.24876 0
M  V30 19330 H 1772.13 -3.77558 3.22123 0
M  V30 19331 H 1767.39 -4.01058 4.61479 0
M  V30 19332 H 1771.56 -4.15027 5.59219 0
M  V30 19333 H 1769.19 -4.26389 6.29362 0
M  V30 19334 N 1770.76 -0.798611 -1.35867 0
M  V30 19335 C 1771.99 -0.386378 -2.03769 0
M  V30 19336 C 1772.41 0.992154 -1.59806 0
M  V30 19337 O 1771.77 1.64094 -0.770895 0
M  V30 19338 C 1771.82 -0.468859 -3.57539 0
M  V30 19339 O 1770.92 0.520742 -4.09099 0
M  V30 19340 H 1770.26 -0.162597 -0.643784 0
M  V30 19341 H 1772.79 -1.08228 -1.73631 0
M  V30 19342 H 1772.8 -0.335775 -4.06616 0
M  V30 19343 H 1771.48 -1.47441 -3.88888 0
M  V30 19344 H 1770.06 0.348559 -3.71267 0
M  V30 19345 N 1772.24 1.47639 -0.551417 0
M  V30 19346 C 1773.49 2.03372 -0.0334523 0
M  V30 19347 C 1773.84 1.4188 1.29953 0
M  V30 19348 O 1773.14 0.563001 1.83142 0
M  V30 19349 C 1773.33 3.57187 0.123467 0
M  V30 19350 C 1773.16 4.33593 -1.19276 0
M  V30 19351 C 1771.93 4.73714 -1.75849 0
M  V30 19352 C 1774.13 4.69087 -2.1086 0
M  V30 19353 N 1772.11 5.34742 -3.01537 0
M  V30 19354 C 1773.48 5.30356 -3.21126 0
M  V30 19355 C 1775.53 4.51016 -2.10925 0
M  V30 19356 C 1774.24 5.75463 -4.31549 0
M  V30 19357 C 1776.26 4.97118 -3.20356 0
M  V30 19358 C 1775.63 5.58431 -4.29342 0
M  V30 19359 H 1771.72 0.780115 -0.0542641 0
M  V30 19360 H 1774.31 1.80195 -0.73743 0
M  V30 19361 H 1772.48 3.80144 0.796558 0
M  V30 19362 H 1774.21 3.9956 0.642974 0
M  V30 19363 H 1770.97 4.55488 -1.2972 0
M  V30 19364 H 1771.39 5.69803 -3.65586 0
M  V30 19365 H 1776.03 4.02975 -1.27951 0
M  V30 19366 H 1773.75 6.22499 -5.15287 0
M  V30 19367 H 1777.34 4.8491 -3.21487 0
M  V30 19368 H 1776.22 5.93455 -5.12622 0
M  V30 19369 N 1773.72 0.287581 1.54954 0
M  V30 19370 C 1774.97 -0.326315 1.99043 0
M  V30 19371 C 1775.28 -1.56033 1.17954 0
M  V30 19372 O 1776.49 -2.24797 1.52246 0
M  V30 19373 C 1774.94 -0.631918 3.54309 0
M  V30 19374 C 1774.55 0.582998 4.4419 0
M  V30 19375 C 1776.3 -1.20775 4.06957 0
M  V30 19376 C 1774.2 0.251291 5.90866 0
M  V30 19377 H 1773.13 -0.125703 0.743448 0
M  V30 19378 H 1775.78 0.394188 1.79216 0
M  V30 19379 H 1774.17 -1.41166 3.69984 0
M  V30 19380 H 1775.34 1.35957 4.40287 0
M  V30 19381 H 1773.66 1.07653 4.02243 0
M  V30 19382 H 1776.25 -1.46995 5.14098 0
M  V30 19383 H 1776.6 -2.14569 3.56743 0
M  V30 19384 H 1777.13 -0.490021 3.9477 0
M  V30 19385 H 1773.87 1.15744 6.452 0
M  V30 19386 H 1773.39 -0.488274 5.97809 0
M  V30 19387 H 1775.07 -0.152008 6.46821 0
M  V30 19388 N 1775.2 -1.57593 0.0150662 0
M  V30 19389 C 1776.43 -1.95504 -0.677174 0
M  V30 19390 C 1776.84 -0.8908 -1.66464 0
M  V30 19391 O 1776.2 0.128818 -1.82045 0
M  V30 19392 C 1776.25 -3.33463 -1.39589 0
M  V30 19393 O 1775.97 -4.35803 -0.448005 0
M  V30 19394 C 1777.47 -3.85923 -2.18125 0
M  V30 19395 H 1774.69 -0.644226 -0.187652 0
M  V30 19396 H 1777.24 -2.04378 0.070661 0
M  V30 19397 H 1775.39 -3.25851 -2.09523 0
M  V30 19398 H 1775.8 -5.157 -0.956756 0
M  V30 19399 H 1777.28 -4.84838 -2.63887 0
M  V30 19400 H 1777.76 -3.19423 -3.01439 0
M  V30 19401 H 1778.36 -3.96758 -1.53176 0
M  V30 19402 N 1776.68 0.257904 -1.55475 0
M  V30 19403 C 1777.9 1.00955 -1.81171 0
M  V30 19404 C 1778.33 1.78586 -0.590651 0
M  V30 19405 O 1777.68 1.75365 0.460105 0
M  V30 19406 C 1777.73 1.93188 -3.04485 0
M  V30 19407 O 1776.84 3.02194 -2.80628 0
M  V30 19408 H 1776.18 0.28785 -0.598363 0
M  V30 19409 H 1778.71 0.28223 -2.02644 0
M  V30 19410 H 1778.72 2.3486 -3.33624 0
M  V30 19411 H 1777.39 1.361 -3.93001 0
M  V30 19412 H 1775.97 2.64729 -2.62627 0
M  V30 19413 N 1778.15 1.48666 0.52309 0
M  V30 19414 C 1779.1 1.64155 1.6479 0
M  V30 19415 C 1780.1 0.507838 1.61609 0
M  V30 19416 O 1781.3 0.686784 1.66383 0
M  V30 19417 H 1777.68 0.517234 0.545869 0
M  V30 19418 H 1779.65 2.58611 1.48871 0
M  V30 19419 C 1778.4 1.70488 3.03033 0
M  V30 19420 H 1777.72 2.5709 3.06178 0
M  V30 19421 H 1779.16 1.85367 3.81333 0
M  V30 19422 C 1777.62 0.444984 3.33948 0
M  V30 19423 O 1778.15 -0.439107 3.99293 0
M  V30 19424 N 1776.36 0.314593 2.88892 0
M  V30 19425 H 1775.9 1.03501 2.35893 0
M  V30 19426 H 1775.86 -0.527357 3.09946 0
M  V30 19427 N 1779.63 -0.772489 1.37369 0
M  V30 19428 C 1781.05 -1.07294 1.18153 0
M  V30 19429 C 1781.25 -2.01493 0.0171782 0
M  V30 19430 O 1780.3 -2.44177 -0.642964 0
M  V30 19431 C 1781.62 -1.67116 2.49986 0
M  V30 19432 C 1783.17 -1.79377 2.56501 0
M  V30 19433 C 1783.64 -2.42612 3.88463 0
M  V30 19434 N 1785.13 -2.50063 3.89901 0
M  V30 19435 C 1785.87 -2.99841 4.88756 0
M  V30 19436 N 1785.36 -3.49798 5.98008 0
M  V30 19437 N 1787.16 -2.98709 4.76161 0
M  V30 19438 H 1779.31 -0.147014 2.11891 0
M  V30 19439 H 1781.57 -0.127846 0.93934 0
M  V30 19440 H 1781.28 -1.05369 3.35545 0
M  V30 19441 H 1781.15 -2.6642 2.67021 0
M  V30 19442 H 1783.54 -2.40257 1.71349 0
M  V30 19443 H 1783.62 -0.788304 2.4335 0
M  V30 19444 H 1783.26 -1.82372 4.74029 0
M  V30 19445 H 1783.19 -3.43763 3.98917 0
M  V30 19446 H 1785.68 -2.14709 3.1098 0
M  V30 19447 H 1786 -3.86181 6.69391 0
M  V30 19448 H 1784.34 -3.47905 6.01654 0
M  V30 19449 H 1787.53 -2.5898 3.89932 0
M  V30 19450 H 1787.7 -3.37193 5.53358 0
M  V30 19451 N 1781.11 -1.21927 -0.998575 0
M  V30 19452 C 1782.36 -1.05199 -1.74082 0
M  V30 19453 C 1782.71 0.409387 -1.87994 0
M  V30 19454 O 1782 1.29958 -1.40788 0
M  V30 19455 C 1782.2 -1.69015 -3.1491 0
M  V30 19456 C 1782.03 -3.21208 -3.14731 0
M  V30 19457 C 1780.8 -3.90284 -3.20946 0
M  V30 19458 C 1783 -4.18214 -2.99335 0
M  V30 19459 N 1780.98 -5.29611 -3.10461 0
M  V30 19460 C 1782.35 -5.44334 -2.96816 0
M  V30 19461 C 1784.4 -4.09179 -2.83684 0
M  V30 19462 C 1783.11 -6.62459 -2.80251 0
M  V30 19463 C 1785.13 -5.26948 -2.68477 0
M  V30 19464 C 1784.49 -6.51983 -2.66641 0
M  V30 19465 H 1780.59 -0.439342 -0.646918 0
M  V30 19466 H 1783.18 -1.54381 -1.18636 0
M  V30 19467 H 1781.35 -1.22392 -3.68612 0
M  V30 19468 H 1783.08 -1.45433 -3.77666 0
M  V30 19469 H 1779.84 -3.41248 -3.284 0
M  V30 19470 H 1780.26 -6.02603 -3.08543 0
M  V30 19471 H 1784.9 -3.13301 -2.83905 0
M  V30 19472 H 1782.62 -7.58492 -2.78776 0
M  V30 19473 H 1786.21 -5.21784 -2.57358 0
M  V30 19474 H 1785.09 -7.41577 -2.55016 0
M  V30 19475 N 1782.59 1.19452 -1.02805 0
M  V30 19476 C 1783.52 2.24875 -0.628752 0
M  V30 19477 C 1784.5 1.66207 0.361844 0
M  V30 19478 O 1785.68 1.92652 0.244743 0
M  V30 19479 C 1782.81 3.47293 0.0220954 0
M  V30 19480 C 1781.77 4.1863 -0.890693 0
M  V30 19481 C 1781.09 5.34597 -0.104997 0
M  V30 19482 C 1782.39 4.73518 -2.20405 0
M  V30 19483 H 1784.09 2.5853 -1.51005 0
M  V30 19484 H 1781.63 1.24271 -0.727518 0
M  V30 19485 H 1783.59 4.20235 0.313073 0
M  V30 19486 H 1782.31 3.12835 0.938182 0
M  V30 19487 H 1780.97 3.47568 -1.16585 0
M  V30 19488 H 1780.62 4.96385 0.813098 0
M  V30 19489 H 1780.32 5.83258 -0.712983 0
M  V30 19490 H 1781.84 6.10337 0.179259 0
M  V30 19491 H 1783.26 5.3822 -1.97465 0
M  V30 19492 H 1781.65 5.32663 -2.76388 0
M  V30 19493 H 1782.72 3.9163 -2.85926 0
M  V30 19494 N 1784.07 0.805805 1.35442 0
M  V30 19495 C 1785.03 0.221278 2.28129 0
M  V30 19496 C 1786.03 -0.590919 1.49549 0
M  V30 19497 O 1787.22 -0.409518 1.69318 0
M  V30 19498 C 1784.35 -0.691643 3.3381 0
M  V30 19499 H 1785.54 1.03875 2.81336 0
M  V30 19500 H 1783.1 0.5764 1.45284 0
M  V30 19501 H 1783.83 -1.53283 2.85788 0
M  V30 19502 H 1783.62 -0.110972 3.91943 0
M  V30 19503 H 1785.11 -1.09497 4.02989 0
M  V30 19504 N 1785.54 -1.47344 0.559239 0
M  V30 19505 C 1786.79 -2.01672 0.0337843 0
M  V30 19506 C 1787.11 -1.43883 -1.32503 0
M  V30 19507 O 1788.31 -1.89885 -1.94051 0
M  V30 19508 C 1786.77 -3.59899 0.00989925 0
M  V30 19509 C 1786.38 -4.2668 1.3656 0
M  V30 19510 C 1788.12 -4.21969 -0.462842 0
M  V30 19511 C 1786.03 -5.76919 1.30071 0
M  V30 19512 H 1784.96 -0.753948 0.00885972 0
M  V30 19513 H 1787.61 -1.69317 0.707394 0
M  V30 19514 H 1785.99 -3.89225 -0.729399 0
M  V30 19515 H 1787.16 -4.08993 2.12277 0
M  V30 19516 H 1785.48 -3.76605 1.77644 0
M  V30 19517 H 1788.08 -5.32069 -0.529816 0
M  V30 19518 H 1788.42 -3.89283 -1.47528 0
M  V30 19519 H 1788.95 -3.97182 0.221661 0
M  V30 19520 H 1785.69 -6.14227 2.28921 0
M  V30 19521 H 1785.21 -5.96937 0.585375 0
M  V30 19522 H 1786.89 -6.39168 1.00364 0
M  V30 19523 N 1787.02 -0.295795 -1.54799 0
M  V30 19524 C 1788.44 0.0577516 -1.59495 0
M  V30 19525 C 1788.64 1.52862 -1.31284 0
M  V30 19526 O 1787.69 2.28061 -1.08372 0
M  V30 19527 C 1789.01 -0.335503 -2.98822 0
M  V30 19528 C 1790.56 -0.283835 -3.1171 0
M  V30 19529 C 1791.03 -0.651835 -4.53338 0
M  V30 19530 N 1792.52 -0.604171 -4.59243 0
M  V30 19531 C 1793.26 -0.861453 -5.66892 0
M  V30 19532 N 1792.75 -1.18443 -6.826 0
M  V30 19533 N 1794.55 -0.788863 -5.56537 0
M  V30 19534 H 1786.7 -1.25444 -1.71399 0
M  V30 19535 H 1788.96 -0.50822 -0.80026 0
M  V30 19536 H 1788.67 -1.35923 -3.24373 0
M  V30 19537 H 1788.54 0.313443 -3.75895 0
M  V30 19538 H 1790.93 0.730641 -2.85912 0
M  V30 19539 H 1791.01 -0.967331 -2.36804 0
M  V30 19540 H 1790.65 -1.66409 -4.79865 0
M  V30 19541 H 1790.58 0.053676 -5.26573 0
M  V30 19542 H 1793.07 -0.365262 -3.76131 0
M  V30 19543 H 1793.39 -1.36686 -7.60616 0
M  V30 19544 H 1791.73 -1.22242 -6.84165 0
M  V30 19545 H 1794.92 -0.536231 -4.65018 0
M  V30 19546 H 1795.09 -0.992744 -6.4035 0
M  V30 19547 N 1788.5 1.57583 -0.0234236 0
M  V30 19548 C 1789.43 2.12907 0.958804 0
M  V30 19549 C 1790.41 1.0438 1.34309 0
M  V30 19550 O 1791.6 1.32184 1.42271 0
M  V30 19551 C 1788.73 2.65151 2.24304 0
M  V30 19552 C 1787.68 3.78414 1.99967 0
M  V30 19553 C 1787.01 4.17064 3.34607 0
M  V30 19554 C 1788.31 5.04727 1.34342 0
M  V30 19555 H 1790 2.95228 0.498081 0
M  V30 19556 H 1787.55 1.42017 0.238138 0
M  V30 19557 H 1789.5 3.02487 2.93393 0
M  V30 19558 H 1788.22 1.79983 2.72532 0
M  V30 19559 H 1786.88 3.41507 1.33298 0
M  V30 19560 H 1786.53 3.28886 3.80583 0
M  V30 19561 H 1786.23 4.93385 3.19132 0
M  V30 19562 H 1787.76 4.56978 4.04973 0
M  V30 19563 H 1789.17 5.39686 1.93422 0
M  V30 19564 H 1787.57 5.86009 1.29282 0
M  V30 19565 H 1788.64 4.83872 0.315625 0
M  V30 19566 N 1789.98 -0.249655 1.5561 0
M  V30 19567 C 1790.89 -1.33061 1.93215 0
M  V30 19568 C 1791.91 -1.52806 0.832239 0
M  V30 19569 O 1793.08 -1.66482 1.13339 0
M  V30 19570 C 1790.15 -2.66569 2.2168 0
M  V30 19571 C 1789.21 -2.5537 3.45087 0
M  V30 19572 C 1788.44 -3.82511 3.72184 0
M  V30 19573 O 1788.66 -4.84267 3.014 0
M  V30 19574 O 1787.6 -3.81309 4.65711 0
M  V30 19575 H 1791.42 -1.04161 2.85279 0
M  V30 19576 H 1789.01 -0.450177 1.42456 0
M  V30 19577 H 1790.89 -3.45468 2.41308 0
M  V30 19578 H 1789.57 -2.95207 1.32794 0
M  V30 19579 H 1788.47 -1.74766 3.30768 0
M  V30 19580 H 1789.81 -2.31677 4.34266 0
M  V30 19581 N 1791.46 -1.48941 -0.515198 0
M  V30 19582 C 1792.39 -1.67466 -1.62719 0
M  V30 19583 C 1793.37 -0.523393 -1.61847 0
M  V30 19584 O 1794.55 -0.757631 -1.78812 0
M  V30 19585 C 1791.68 -1.72799 -3.0126 0
M  V30 19586 C 1790.64 -2.87574 -3.16994 0
M  V30 19587 C 1789.96 -2.78008 -4.56745 0
M  V30 19588 C 1791.26 -4.28693 -2.98362 0
M  V30 19589 H 1792.96 -2.60562 -1.47471 0
M  V30 19590 H 1790.5 -1.25391 -0.708027 0
M  V30 19591 H 1792.46 -1.84346 -3.78939 0
M  V30 19592 H 1791.18 -0.762918 -3.17564 0
M  V30 19593 H 1789.84 -2.75606 -2.41737 0
M  V30 19594 H 1789.49 -1.79438 -4.69905 0
M  V30 19595 H 1789.19 -3.55033 -4.68215 0
M  V30 19596 H 1790.71 -2.91543 -5.36503 0
M  V30 19597 H 1792.13 -4.41416 -3.65821 0
M  V30 19598 H 1790.52 -5.0683 -3.21315 0
M  V30 19599 H 1791.59 -4.44125 -1.9463 0
M  V30 19600 N 1792.94 0.765193 -1.37777 0
M  V30 19601 C 1794.18 1.52623 -1.33545 0
M  V30 19602 C 1794.51 1.94043 0.077992 0
M  V30 19603 O 1793.79 1.64566 1.03673 0
M  V30 19604 C 1794.07 2.78679 -2.28057 0
M  V30 19605 C 1793.93 2.43471 -3.78209 0
M  V30 19606 C 1795.24 3.80646 -2.20899 0
M  V30 19607 H 1792.36 0.553678 -0.486425 0
M  V30 19608 H 1795.01 0.877326 -1.68532 0
M  V30 19609 H 1793.16 3.3405 -1.9835 0
M  V30 19610 H 1794.83 1.93965 -4.1854 0
M  V30 19611 H 1793.07 1.76081 -3.96457 0
M  V30 19612 H 1793.74 3.33609 -4.39783 0
M  V30 19613 H 1796.22 3.34786 -2.47099 0
M  V30 19614 H 1795.09 4.6656 -2.89159 0
M  V30 19615 H 1795.35 4.25389 -1.20403 0
M  V30 19616 N 1794.41 1.22455 0.992094 0
M  V30 19617 C 1795.66 1.04752 1.72833 0
M  V30 19618 C 1795.98 -0.418152 1.90464 0
M  V30 19619 O 1795.25 -1.30072 1.46486 0
M  V30 19620 H 1793.83 0.384626 0.640368 0
M  V30 19621 H 1796.49 1.5398 1.19483 0
M  V30 19622 H 1795.59 1.52601 2.72249 0
M  V30 19623 N 1795.89 -1.18905 1.03437 0
M  V30 19624 C 1796.84 -2.24362 0.613557 0
M  V30 19625 C 1797.83 -1.65605 -0.356541 0
M  V30 19626 O 1799.04 -1.78594 -0.22452 0
M  V30 19627 H 1795.41 -0.730098 0.18017 0
M  V30 19628 H 1797.39 -2.57168 1.51351 0
M  V30 19629 C 1796.13 -3.47697 -0.0141125 0
M  V30 19630 H 1795.46 -3.93201 0.723394 0
M  V30 19631 H 1796.9 -4.2313 -0.271424 0
M  V30 19632 C 1795.36 -3.12357 -1.26232 0
M  V30 19633 O 1795.89 -3.25515 -2.35378 0
M  V30 19634 N 1794.09 -2.6674 -1.15318 0
M  V30 19635 H 1793.64 -2.56233 -0.26501 0
M  V30 19636 H 1793.6 -2.43466 -1.98927 0
M  V30 19637 N 1797.37 -0.812977 -1.35013 0
M  V30 19638 C 1798.3 -0.242397 -2.32238 0
M  V30 19639 C 1799.28 0.635676 -1.57776 0
M  V30 19640 O 1800.47 0.564621 -1.85811 0
M  V30 19641 C 1797.6 0.604686 -3.41995 0
M  V30 19642 C 1796.55 -0.17542 -4.2764 0
M  V30 19643 C 1795.88 0.793772 -5.28775 0
M  V30 19644 C 1797.18 -1.37802 -5.03794 0
M  V30 19645 H 1798.87 -1.0547 -2.80208 0
M  V30 19646 H 1796.42 -0.508619 -1.34718 0
M  V30 19647 H 1798.37 1.01396 -4.09019 0
M  V30 19648 H 1797.09 1.44994 -2.9265 0
M  V30 19649 H 1795.75 -0.565948 -3.62205 0
M  V30 19650 H 1795.4 1.63471 -4.75696 0
M  V30 19651 H 1795.1 0.276085 -5.86951 0
M  V30 19652 H 1796.62 1.20112 -5.9867 0
M  V30 19653 H 1798.04 -1.04328 -5.63727 0
M  V30 19654 H 1796.43 -1.83064 -5.71496 0
M  V30 19655 H 1797.5 -2.16138 -4.34065 0
M  V30 19656 N 1798.85 1.47045 -0.567045 0
M  V30 19657 C 1800.08 2.06835 -0.0518309 0
M  V30 19658 C 1800.49 1.41823 1.24626 0
M  V30 19659 O 1799.85 0.518102 1.74991 0
M  V30 19660 C 1799.9 3.6124 0.137142 0
M  V30 19661 O 1799.62 4.23817 -1.10955 0
M  V30 19662 C 1801.12 4.37921 0.688511 0
M  V30 19663 H 1798.34 0.669111 -0.0503138 0
M  V30 19664 H 1800.88 1.88906 -0.783258 0
M  V30 19665 H 1799.04 3.7865 0.818733 0
M  V30 19666 H 1799.45 5.16484 -0.913475 0
M  V30 19667 H 1800.93 5.46603 0.769984 0
M  V30 19668 H 1801.4 4.0488 1.70201 0
M  V30 19669 H 1802.01 4.25279 0.0423004 0
M  V30 19670 N 1800.33 0.304 1.5464 0
M  V30 19671 C 1801.57 -0.304845 2.00496 0
M  V30 19672 C 1801.9 -1.53308 1.19206 0
M  V30 19673 O 1801.18 -1.92627 0.269305 0
M  V30 19674 C 1801.46 -0.658462 3.54029 0
M  V30 19675 C 1801.32 0.579125 4.46056 0
M  V30 19676 C 1802.63 -1.4838 4.14332 0
M  V30 19677 H 1799.75 -0.109327 0.728846 0
M  V30 19678 H 1802.4 0.416694 1.85374 0
M  V30 19679 H 1800.55 -1.27319 3.67045 0
M  V30 19680 H 1802.22 1.21758 4.44941 0
M  V30 19681 H 1800.46 1.21179 4.16531 0
M  V30 19682 H 1801.13 0.287518 5.51251 0
M  V30 19683 H 1803.61 -0.964367 4.04771 0
M  V30 19684 H 1802.48 -1.70001 5.21911 0
M  V30 19685 H 1802.74 -2.47394 3.66399 0
M  V30 19686 N 1801.8 -1.57568 0.0317802 0
M  V30 19687 C 1803.05 -1.9191 -0.646281 0
M  V30 19688 C 1803.38 -0.908432 -1.71982 0
M  V30 19689 O 1802.63 0.0822426 -1.95527 0
M  V30 19690 C 1802.93 -3.32976 -1.29852 0
M  V30 19691 C 1802.6 -4.495 -0.355092 0
M  V30 19692 C 1801.26 -4.81105 -0.0954326 0
M  V30 19693 C 1803.61 -5.20378 0.292586 0
M  V30 19694 C 1800.94 -5.80946 0.819667 0
M  V30 19695 C 1803.29 -6.21196 1.19576 0
M  V30 19696 C 1801.96 -6.51241 1.46428 0
M  V30 19697 H 1801.23 -0.702249 -0.236491 0
M  V30 19698 H 1803.87 -1.91269 0.0941159 0
M  V30 19699 H 1802.18 -3.29892 -2.11373 0
M  V30 19700 H 1803.88 -3.5682 -1.82977 0
M  V30 19701 H 1800.47 -4.24824 -0.567652 0
M  V30 19702 H 1804.65 -4.96189 0.105041 0
M  V30 19703 H 1799.91 -6.02569 1.03538 0
M  V30 19704 H 1804.08 -6.75236 1.7038 0
M  V30 19705 H 1801.71 -7.28421 2.17502 0
M  V30 19706 N 1803.28 0.241399 -1.5574 0
M  V30 19707 C 1804.53 0.968663 -1.77829 0
M  V30 19708 C 1804.86 1.85109 -0.597078 0
M  V30 19709 O 1804.11 1.91153 0.419396 0
M  V30 19710 C 1804.41 1.8552 -3.05478 0
M  V30 19711 C 1804.08 1.12767 -4.36571 0
M  V30 19712 C 1802.74 0.926631 -4.72194 0
M  V30 19713 C 1805.09 0.612437 -5.17589 0
M  V30 19714 C 1802.42 0.198133 -5.86365 0
M  V30 19715 C 1804.77 -0.102621 -6.32517 0
M  V30 19716 C 1803.44 -0.315095 -6.66756 0
M  V30 19717 H 1802.71 0.354459 -0.650723 0
M  V30 19718 H 1805.35 0.238329 -1.90011 0
M  V30 19719 H 1803.66 2.65277 -2.88332 0
M  V30 19720 H 1805.35 2.4197 -3.19768 0
M  V30 19721 H 1801.94 1.29432 -4.08589 0
M  V30 19722 H 1806.13 0.755287 -4.90519 0
M  V30 19723 H 1801.38 0.0230937 -6.11396 0
M  V30 19724 H 1805.56 -0.509468 -6.94534 0
M  V30 19725 H 1803.19 -0.881538 -7.55071 0
M  V30 19726 N 1804.76 1.49212 0.507292 0
M  V30 19727 C 1805.99 1.62343 1.29072 0
M  V30 19728 C 1806.41 0.292387 1.85814 0
M  V30 19729 O 1805.77 -0.739145 1.65549 0
M  V30 19730 C 1805.82 2.69017 2.40129 0
M  V30 19731 O 1804.92 2.27753 3.43806 0
M  V30 19732 H 1804.26 0.543591 0.38132 0
M  V30 19733 H 1806.79 1.95358 0.607997 0
M  V30 19734 H 1806.8 2.90992 2.85985 0
M  V30 19735 H 1805.48 3.65638 1.98195 0
M  V30 19736 H 1804.05 2.16084 3.03912 0
M  V30 19737 N 1806.24 -0.757876 1.38181 0
M  V30 19738 C 1807.2 -1.85317 1.34871 0
M  V30 19739 C 1808.2 -1.58844 0.250041 0
M  V30 19740 O 1809.39 -1.66668 0.506688 0
M  V30 19741 C 1806.52 -3.22712 1.09864 0
M  V30 19742 H 1807.72 -1.89661 2.32312 0
M  V30 19743 H 1805.27 -0.959122 1.23412 0
M  V30 19744 H 1806 -3.24039 0.130112 0
M  V30 19745 H 1805.79 -3.4332 1.89403 0
M  V30 19746 H 1807.28 -4.02789 1.10232 0
M  V30 19747 N 1807.72 -1.22979 -0.985586 0
M  V30 19748 C 1808.65 -1.03073 -2.09519 0
M  V30 19749 C 1809.63 0.0507025 -1.70024 0
M  V30 19750 O 1810.81 -0.112938 -1.93871 0
M  V30 19751 C 1807.94 -0.615578 -3.41801 0
M  V30 19752 C 1806.9 -1.64377 -3.95176 0
M  V30 19753 C 1806.22 -1.08422 -5.23592 0
M  V30 19754 C 1807.52 -3.03555 -4.25032 0
M  V30 19755 H 1809.22 -1.95882 -2.2643 0
M  V30 19756 H 1806.76 -0.943206 -1.0881 0
M  V30 19757 H 1808.72 -0.463394 -4.18844 0
M  V30 19758 H 1807.44 0.348185 -3.24739 0
M  V30 19759 H 1806.1 -1.78386 -3.20272 0
M  V30 19760 H 1805.75 -0.111597 -5.02876 0
M  V30 19761 H 1805.45 -1.77118 -5.6027 0
M  V30 19762 H 1806.97 -0.94378 -6.03262 0
M  V30 19763 H 1808.38 -2.92878 -4.92844 0
M  V30 19764 H 1806.78 -3.69441 -4.72899 0
M  V30 19765 H 1807.85 -3.52937 -3.32511 0
M  V30 19766 N 1809.19 1.18355 -1.04066 0
M  V30 19767 C 1810.13 2.20807 -0.576164 0
M  V30 19768 C 1811.11 1.57871 0.389277 0
M  V30 19769 O 1812.29 1.86039 0.303581 0
M  V30 19770 C 1809.42 3.3833 0.158303 0
M  V30 19771 C 1808.46 4.19667 -0.760391 0
M  V30 19772 S 1809.3 4.86249 -2.24326 0
M  V30 19773 C 1810.45 6.07172 -1.51964 0
M  V30 19774 H 1810.68 2.59866 -1.4442 0
M  V30 19775 H 1808.22 1.2879 -0.851623 0
M  V30 19776 H 1810.18 4.0644 0.575896 0
M  V30 19777 H 1808.84 2.97682 1.00222 0
M  V30 19778 H 1808.03 5.03631 -0.192705 0
M  V30 19779 H 1807.63 3.56935 -1.11683 0
M  V30 19780 H 1809.92 6.72608 -0.812694 0
M  V30 19781 H 1810.87 6.68447 -2.33633 0
M  V30 19782 H 1811.27 5.55355 -1.01198 0
M  V30 19783 N 1810.67 0.820125 1.3458 0
M  V30 19784 C 1811.61 0.185324 2.27446 0
M  V30 19785 C 1812.58 -0.656627 1.48752 0
M  V30 19786 O 1813.77 -0.620975 1.77978 0
M  V30 19787 C 1810.89 -0.741455 3.30485 0
M  V30 19788 C 1809.94 0.0226077 4.26494 0
M  V30 19789 S 1810.77 1.36787 5.17735 0
M  V30 19790 C 1811.93 0.445893 6.2431 0
M  V30 19791 H 1812.16 0.972658 2.80939 0
M  V30 19792 H 1809.7 0.615879 1.41585 0
M  V30 19793 H 1811.65 -1.27062 3.9034 0
M  V30 19794 H 1810.31 -1.50229 2.75844 0
M  V30 19795 H 1809.51 -0.681827 4.99367 0
M  V30 19796 H 1809.11 0.482239 3.70878 0
M  V30 19797 H 1811.4 -0.363637 6.76523 0
M  V30 19798 H 1812.34 1.14421 6.98794 0
M  V30 19799 H 1812.75 0.0355676 5.64489 0
M  V30 19800 N 1812.15 -1.46743 0.574835 0
M  V30 19801 C 1813.4 -2.02718 0.0575005 0
M  V30 19802 C 1813.73 -1.4463 -1.29599 0
M  V30 19803 O 1813 -0.608422 -1.84739 0
M  V30 19804 C 1813.29 -3.60096 -0.016719 0
M  V30 19805 C 1813.14 -4.28584 1.36511 0
M  V30 19806 C 1814.46 -4.34149 -0.721324 0
M  V30 19807 H 1811.58 -0.73666 0.0223697 0
M  V30 19808 H 1814.22 -1.74975 0.74052 0
M  V30 19809 H 1812.37 -3.83864 -0.598396 0
M  V30 19810 H 1814.04 -4.16104 1.99135 0
M  V30 19811 H 1812.29 -3.88253 1.935 0
M  V30 19812 H 1812.96 -5.37293 1.26573 0
M  V30 19813 H 1815.43 -4.15479 -0.227256 0
M  V30 19814 H 1814.31 -5.43858 -0.742263 0
M  V30 19815 H 1814.57 -4.04637 -1.78106 0
M  V30 19816 N 1813.63 -0.312197 -1.54477 0
M  V30 19817 C 1814.88 0.294607 -1.99537 0
M  V30 19818 C 1815.19 1.54137 -1.20421 0
M  V30 19819 O 1816.4 2.22346 -1.55803 0
M  V30 19820 C 1814.85 0.57547 -3.55269 0
M  V30 19821 C 1814.46 -0.653591 -4.43207 0
M  V30 19822 C 1816.2 1.14285 -4.08827 0
M  V30 19823 C 1814.11 -0.345261 -5.90391 0
M  V30 19824 H 1813.04 0.113859 -0.745354 0
M  V30 19825 H 1815.69 -0.42265 -1.78566 0
M  V30 19826 H 1814.07 1.35262 -3.72183 0
M  V30 19827 H 1815.25 -1.42945 -4.38068 0
M  V30 19828 H 1813.56 -1.14039 -4.0048 0
M  V30 19829 H 1816.16 1.38797 -5.16371 0
M  V30 19830 H 1816.5 2.08866 -3.60112 0
M  V30 19831 H 1817.04 0.427154 -3.955 0
M  V30 19832 H 1813.78 -1.25994 -6.43277 0
M  V30 19833 H 1813.3 0.393106 -5.9851 0
M  V30 19834 H 1814.97 0.0490847 -6.46981 0
M  V30 19835 N 1815.11 1.57549 -0.040136 0
M  V30 19836 C 1816.34 1.96272 0.645049 0
M  V30 19837 C 1816.74 0.915804 1.65559 0
M  V30 19838 O 1816.09 -0.109666 1.83372 0
M  V30 19839 C 1816.15 3.31187 1.3984 0
M  V30 19840 C 1815.81 4.53739 0.544953 0
M  V30 19841 C 1816.81 5.19573 -0.184369 0
M  V30 19842 C 1814.5 5.0001 0.479119 0
M  V30 19843 C 1816.49 6.30006 -0.968081 0
M  V30 19844 C 1814.18 6.10322 -0.30829 0
M  V30 19845 C 1815.17 6.7518 -1.03059 0
M  V30 19846 O 1814.86 7.83373 -1.80507 0
M  V30 19847 H 1814.59 0.651051 0.181958 0
M  V30 19848 H 1817.15 2.05159 -0.0995179 0
M  V30 19849 H 1815.38 3.18823 2.18835 0
M  V30 19850 H 1817.07 3.54735 1.97276 0
M  V30 19851 H 1817.83 4.84789 -0.142908 0
M  V30 19852 H 1813.71 4.49325 1.0309 0
M  V30 19853 H 1817.26 6.80562 -1.53237 0
M  V30 19854 H 1813.15 6.44543 -0.351428 0
M  V30 19855 H 1813.92 8.00094 -1.72601 0
M  V30 19856 N 1816.58 -0.233136 1.55866 0
M  V30 19857 C 1818 -0.582304 1.48598 0
M  V30 19858 C 1818.2 -1.87694 0.733016 0
M  V30 19859 O 1817.26 -2.51074 0.267959 0
M  V30 19860 C 1818.57 -0.67227 2.93089 0
M  V30 19861 C 1820.12 -0.763676 3.03541 0
M  V30 19862 C 1820.59 -0.885087 4.49366 0
M  V30 19863 N 1822.08 -0.949606 4.53362 0
M  V30 19864 C 1822.82 -1.06306 5.6346 0
M  V30 19865 N 1822.31 -1.14118 6.83337 0
M  V30 19866 N 1824.11 -1.09729 5.51286 0
M  V30 19867 H 1816.26 0.616568 2.03254 0
M  V30 19868 H 1818.52 0.214762 0.923353 0
M  V30 19869 H 1818.23 0.20923 3.51077 0
M  V30 19870 H 1818.1 -1.5397 3.44344 0
M  V30 19871 H 1820.49 -1.63562 2.45625 0
M  V30 19872 H 1820.57 0.129191 2.55474 0
M  V30 19873 H 1820.21 -0.017644 5.07897 0
M  V30 19874 H 1820.14 -1.7932 4.95128 0
M  V30 19875 H 1822.63 -0.900018 3.67026 0
M  V30 19876 H 1822.95 -1.2272 7.62994 0
M  V30 19877 H 1821.29 -1.11051 6.8607 0
M  V30 19878 H 1824.48 -1.03283 4.56563 0
M  V30 19879 H 1824.66 -1.18225 6.37124 0
M  V30 19880 N 1818.06 -1.49479 -0.499372 0
M  V30 19881 C 1819.34 -1.4955 -1.26071 0
M  V30 19882 C 1819.72 -0.224142 -2.09907 0
M  V30 19883 O 1819.07 0.793432 -2.14282 0
M  V30 19884 C 1819.28 -2.77534 -2.11604 0
M  V30 19885 C 1820.63 -3.27088 -2.70738 0
M  V30 19886 O 1821.65 -2.78662 -2.2187 0
M  V30 19887 O 1820.51 -4.11432 -3.59703 0
M  V30 19888 H 1817.6 -0.598631 -0.570587 0
M  V30 19889 H 1820.15 -1.61744 -0.513509 0
M  V30 19890 H 1818.92 -3.61556 -1.49642 0
M  V30 19891 H 1818.54 -2.68208 -2.93514 0
M  V30 19892 N 1819.54 0.750537 -1.38581 0
M  V30 19893 C 1820.77 1.53978 -1.38196 0
M  V30 19894 C 1821.18 1.8878 0.0274976 0
M  V30 19895 O 1820.54 1.52997 0.994894 0
M  V30 19896 C 1820.59 2.83702 -2.24043 0
M  V30 19897 O 1820.31 2.50384 -3.59499 0
M  V30 19898 C 1821.81 3.77823 -2.31872 0
M  V30 19899 H 1819.03 0.476345 -0.472585 0
M  V30 19900 H 1821.58 0.928634 -1.82199 0
M  V30 19901 H 1819.73 3.41187 -1.83494 0
M  V30 19902 H 1820.15 3.33605 -4.04732 0
M  V30 19903 H 1821.62 4.65788 -2.96218 0
M  V30 19904 H 1822.1 4.18474 -1.33327 0
M  V30 19905 H 1822.7 3.26262 -2.72824 0
M  V30 19906 N 1821.02 1.235 0.979051 0
M  V30 19907 C 1821.95 1.04183 2.08969 0
M  V30 19908 C 1822.93 -0.041685 1.70049 0
M  V30 19909 O 1824.12 0.123217 1.93809 0
M  V30 19910 C 1821.25 0.633696 3.4147 0
M  V30 19911 C 1820.2 1.66471 3.94299 0
M  V30 19912 C 1819.53 1.11198 5.2301 0
M  V30 19913 C 1820.83 3.05804 4.23416 0
M  V30 19914 H 1822.52 1.9708 2.25388 0
M  V30 19915 H 1820.07 0.948963 1.08308 0
M  V30 19916 H 1822.02 0.485599 4.18593 0
M  V30 19917 H 1820.74 -0.330958 3.24919 0
M  V30 19918 H 1819.4 1.80082 3.19321 0
M  V30 19919 H 1819.05 0.138264 5.0281 0
M  V30 19920 H 1818.75 1.80087 5.59323 0
M  V30 19921 H 1820.27 0.975759 6.02753 0
M  V30 19922 H 1821.69 2.95487 4.91284 0
M  V30 19923 H 1820.08 3.71944 4.70933 0
M  V30 19924 H 1821.15 3.54695 3.30635 0
M  V30 19925 N 1822.5 -1.17802 1.04693 0
M  V30 19926 C 1823.72 -1.92408 0.774194 0
M  V30 19927 C 1824.15 -1.76012 -0.663424 0
M  V30 19928 O 1823.51 -1.07447 -1.4603 0
M  V30 19929 C 1823.55 -3.4166 1.1533 0
M  V30 19930 O 1822.66 -4.11431 0.282469 0
M  V30 19931 H 1822 -0.600033 0.284353 0
M  V30 19932 H 1824.53 -1.49348 1.39844 0
M  V30 19933 H 1824.54 -3.92386 1.11791 0
M  V30 19934 H 1823.21 -3.52914 2.20056 0
M  V30 19935 H 1821.79 -3.70979 0.378021 0
M  V30 19936 N 1823.98 -0.827251 -1.34143 0
M  V30 19937 C 1825.22 -0.41656 -1.9776 0
M  V30 19938 C 1825.54 1.02488 -1.65895 0
M  V30 19939 O 1824.81 1.71219 -0.951891 0
M  V30 19940 H 1823.39 -0.151044 -0.73157 0
M  V30 19941 H 1826.06 -1.05765 -1.63706 0
M  V30 19942 H 1825.15 -0.539101 -3.07409 0
M  V30 19943 N 1825.45 1.46436 -0.582609 0
M  V30 19944 C 1826.73 1.956 -0.00129167 0
M  V30 19945 C 1827.11 1.52526 1.45942 0
M  V30 19946 O 1826.46 0.775911 2.14923 0
M  V30 19947 C 1826.67 3.4857 -0.173243 0
M  V30 19948 C 1828.02 4.2458 -0.0410173 0
M  V30 19949 O 1829.04 3.56054 -0.102074 0
M  V30 19950 O 1827.9 5.46418 0.0947564 0
M  V30 19951 H 1824.99 0.825495 0.0498706 0
M  V30 19952 H 1827.54 1.5672 -0.650921 0
M  V30 19953 H 1826.31 3.72808 -1.1887 0
M  V30 19954 H 1825.93 3.94279 0.512822 0
M  V30 19955 N 1826.93 0.320385 1.54309 0
M  V30 19956 C 1828.16 -0.285197 2.04925 0
M  V30 19957 C 1828.57 -1.46029 1.1967 0
M  V30 19958 O 1827.93 -1.81087 0.22665 0
M  V30 19959 C 1827.98 -0.722736 3.54202 0
M  V30 19960 O 1827.7 0.40561 4.36218 0
M  V30 19961 C 1829.2 -1.39146 4.20896 0
M  V30 19962 H 1826.42 -0.0591612 0.668387 0
M  V30 19963 H 1828.97 0.46565 1.99128 0
M  V30 19964 H 1827.12 -1.42356 3.60296 0
M  V30 19965 H 1827.54 0.0614526 5.24464 0
M  V30 19966 H 1829.01 -1.64858 5.26807 0
M  V30 19967 H 1829.49 -2.33774 3.71815 0
M  V30 19968 H 1830.09 -0.733291 4.18931 0
M  V30 19969 N 1828.41 -1.57525 0.0484906 0
M  V30 19970 C 1829.66 -1.9287 -0.626817 0
M  V30 19971 C 1829.99 -0.926899 -1.70652 0
M  V30 19972 O 1829.26 0.0475129 -1.94442 0
M  V30 19973 C 1829.55 -3.38609 -1.22539 0
M  V30 19974 C 1829.4 -4.49537 -0.153923 0
M  V30 19975 C 1830.72 -3.84689 -2.13781 0
M  V30 19976 H 1827.84 -0.701367 -0.226391 0
M  V30 19977 H 1830.48 -1.89683 0.109708 0
M  V30 19978 H 1828.63 -3.41456 -1.85311 0
M  V30 19979 H 1830.3 -4.58818 0.477846 0
M  V30 19980 H 1828.54 -4.30692 0.518334 0
M  V30 19981 H 1829.22 -5.48589 -0.612708 0
M  V30 19982 H 1831.69 -3.83701 -1.60974 0
M  V30 19983 H 1830.57 -4.8732 -2.52607 0
M  V30 19984 H 1830.83 -3.21293 -3.03682 0
M  V30 19985 N 1829.89 0.224867 -1.55988 0
M  V30 19986 C 1831.14 0.947871 -1.78493 0
M  V30 19987 C 1831.46 1.85001 -0.616413 0
M  V30 19988 O 1830.73 1.92435 0.366847 0
M  V30 19989 H 1829.31 0.352987 -0.658338 0
M  V30 19990 H 1831.97 0.237519 -1.93447 0
M  V30 19991 H 1831.06 1.55664 -2.70509 0
M  V30 19992 N 1831.37 1.49742 0.491438 0
M  V30 19993 C 1832.61 1.59711 1.24494 0
M  V30 19994 C 1832.94 0.288122 1.92354 0
M  V30 19995 O 1832.2 -0.724652 1.81789 0
M  V30 19996 C 1832.49 2.71245 2.32725 0
M  V30 19997 C 1832.16 4.12423 1.82258 0
M  V30 19998 C 1830.82 4.50841 1.68214 0
M  V30 19999 C 1833.17 5.00741 1.44595 0
M  V30 20000 C 1830.5 5.75339 1.149 0
M  V30 20001 C 1832.85 6.25767 0.927292 0
M  V30 20002 C 1831.52 6.63005 0.773323 0
M  V30 20003 H 1830.79 0.584422 0.455556 0
M  V30 20004 H 1833.44 1.83607 0.544137 0
M  V30 20005 H 1831.74 2.41357 3.08632 0
M  V30 20006 H 1833.44 2.76165 2.90747 0
M  V30 20007 H 1830.03 3.82104 1.94151 0
M  V30 20008 H 1834.21 4.71709 1.54288 0
M  V30 20009 H 1829.47 6.02883 1.01699 0
M  V30 20010 H 1833.64 6.93574 0.626707 0
M  V30 20011 H 1831.27 7.59356 0.358031 0
M  V30 20012 N 1832.84 -0.743177 1.38977 0
M  V30 20013 C 1834.09 -1.50479 1.35956 0
M  V30 20014 C 1834.42 -1.94143 -0.0471116 0
M  V30 20015 O 1833.7 -1.66195 -1.01042 0
M  V30 20016 C 1833.98 -2.75016 2.32461 0
M  V30 20017 C 1833.83 -2.37423 3.82034 0
M  V30 20018 C 1835.15 -3.77084 2.26927 0
M  V30 20019 H 1832.27 -0.545869 0.495172 0
M  V30 20020 H 1834.91 -0.850403 1.69906 0
M  V30 20021 H 1833.06 -3.30852 2.03639 0
M  V30 20022 H 1834.74 -1.87282 4.21572 0
M  V30 20023 H 1832.98 -1.69752 3.99208 0
M  V30 20024 H 1833.65 -3.2657 4.45035 0
M  V30 20025 H 1836.13 -3.30812 2.52394 0
M  V30 20026 H 1835 -4.61901 2.96545 0
M  V30 20027 H 1835.26 -4.23419 1.27156 0
M  V30 20028 N 1834.32 -1.24018 -0.972487 0
M  V30 20029 C 1835.25 -1.0529 -2.08414 0
M  V30 20030 C 1836.23 0.0326663 -1.70069 0
M  V30 20031 O 1837.42 -0.133494 -1.93741 0
M  V30 20032 C 1834.55 -0.651796 -3.41129 0
M  V30 20033 C 1833.5 -1.68559 -3.9341 0
M  V30 20034 C 1832.83 -1.1397 -5.22413 0
M  V30 20035 C 1834.13 -3.08046 -4.21788 0
M  V30 20036 H 1835.82 -1.98272 -2.2434 0
M  V30 20037 H 1833.37 -0.954694 -1.07804 0
M  V30 20038 H 1835.32 -0.507792 -4.18329 0
M  V30 20039 H 1834.05 0.313722 -3.2509 0
M  V30 20040 H 1832.7 -1.81773 -3.18362 0
M  V30 20041 H 1832.35 -0.164928 -5.0273 0
M  V30 20042 H 1832.05 -1.83051 -5.5836 0
M  V30 20043 H 1833.58 -1.00771 -6.02227 0
M  V30 20044 H 1834.99 -2.98088 -4.8971 0
M  V30 20045 H 1833.39 -3.74436 -4.68954 0
M  V30 20046 H 1834.46 -3.56444 -3.28749 0
M  V30 20047 N 1835.8 1.17245 -1.05316 0
M  V30 20048 C 1837.03 1.91995 -0.784387 0
M  V30 20049 C 1837.45 1.76362 0.65408 0
M  V30 20050 O 1836.81 1.0822 1.45458 0
M  V30 20051 C 1836.86 3.41043 -1.1714 0
M  V30 20052 O 1835.96 4.11276 -0.304285 0
M  V30 20053 H 1835.3 0.598516 -0.287532 0
M  V30 20054 H 1837.83 1.48604 -1.40634 0
M  V30 20055 H 1837.84 3.91788 -1.13871 0
M  V30 20056 H 1836.52 3.51742 -2.21924 0
M  V30 20057 H 1835.09 3.70773 -0.39769 0
M  V30 20058 N 1837.28 0.834353 1.33702 0
M  V30 20059 C 1838.23 0.252818 2.31222 0
M  V30 20060 C 1839.22 -0.612723 1.57931 0
M  V30 20061 O 1840.43 -0.502788 1.72835 0
M  V30 20062 H 1836.8 0.0630243 0.749354 0
M  V30 20063 H 1838.77 1.08992 2.77783 0
M  V30 20064 C 1837.52 -0.561132 3.43142 0
M  V30 20065 H 1836.84 0.0955723 3.99686 0
M  V30 20066 H 1838.28 -0.933951 4.13586 0
M  V30 20067 C 1836.74 -1.73817 2.88599 0
M  V30 20068 O 1837.27 -2.83674 2.84415 0
M  V30 20069 N 1835.48 -1.5586 2.45267 0
M  V30 20070 H 1835.03 -0.664959 2.4887 0
M  V30 20071 H 1834.98 -2.34764 2.09125 0
M  V30 20072 N 1838.76 -1.46125 0.590367 0
M  V30 20073 C 1839.72 -2.2884 -0.128368 0
M  V30 20074 C 1840.72 -1.38818 -0.81156 0
M  V30 20075 O 1841.91 -1.61117 -0.662347 0
M  V30 20076 C 1839.04 -3.19402 -1.19144 0
M  V30 20077 H 1840.23 -2.93864 0.598641 0
M  V30 20078 H 1837.79 -1.52362 0.34866 0
M  V30 20079 H 1838.52 -2.59141 -1.94978 0
M  V30 20080 H 1838.31 -3.85692 -0.705973 0
M  V30 20081 H 1839.8 -3.8164 -1.69532 0
M  V30 20082 N 1840.23 -0.328564 -1.54137 0
M  V30 20083 C 1841.16 0.527734 -2.27458 0
M  V30 20084 C 1842.15 1.11518 -1.28444 0
M  V30 20085 O 1843.33 1.13938 -1.57264 0
M  V30 20086 C 1840.46 1.68628 -3.03615 0
M  V30 20087 C 1839.41 1.22789 -4.10008 0
M  V30 20088 C 1838.74 2.47378 -4.74034 0
M  V30 20089 C 1840.04 0.339152 -5.21198 0
M  V30 20090 H 1841.73 -0.0838808 -2.99282 0
M  V30 20091 H 1839.28 -0.0417829 -1.43939 0
M  V30 20092 H 1841.23 2.29165 -3.5364 0
M  V30 20093 H 1839.96 2.32456 -2.29416 0
M  V30 20094 H 1838.62 0.645427 -3.60874 0
M  V30 20095 H 1838.26 3.09581 -3.96445 0
M  V30 20096 H 1837.96 2.17396 -5.45905 0
M  V30 20097 H 1839.49 3.08668 -5.26836 0
M  V30 20098 H 1840.9 0.850947 -5.6695 0
M  V30 20099 H 1839.3 0.131892 -5.99955 0
M  V30 20100 H 1840.37 -0.628692 -4.80807 0
M  V30 20101 N 1841.71 1.57497 -0.0568439 0
M  V30 20102 C 1842.66 2.1305 0.933398 0
M  V30 20103 C 1843.65 1.06369 1.31841 0
M  V30 20104 O 1844.86 1.2477 1.2974 0
M  V30 20105 H 1841.24 0.681037 0.318893 0
M  V30 20106 H 1843.21 2.95141 0.439796 0
M  V30 20107 C 1841.96 2.69502 2.1969 0
M  V30 20108 H 1841.28 3.51255 1.90945 0
M  V30 20109 H 1842.72 3.11986 2.87124 0
M  V30 20110 C 1841.18 1.63547 2.94541 0
M  V30 20111 O 1841.71 1.0516 3.87691 0
M  V30 20112 N 1839.91 1.34933 2.57374 0
M  V30 20113 H 1839.46 1.82601 1.81699 0
M  V30 20114 H 1839.42 0.642701 3.07761 0
M  V30 20115 N 1843.19 -0.216591 1.56105 0
M  V30 20116 C 1844.44 -0.938321 1.78545 0
M  V30 20117 C 1844.75 -1.85302 0.62629 0
M  V30 20118 O 1845.96 -2.61377 0.734451 0
M  V30 20119 C 1844.41 -1.71871 3.16209 0
M  V30 20120 C 1844.02 -0.849904 4.39864 0
M  V30 20121 C 1845.77 -2.43136 3.47973 0
M  V30 20122 C 1843.67 -1.62793 5.68553 0
M  V30 20123 H 1842.6 -0.354098 0.66568 0
M  V30 20124 H 1845.25 -0.192079 1.82492 0
M  V30 20125 H 1843.64 -2.50804 3.06453 0
M  V30 20126 H 1844.81 -0.100757 4.6069 0
M  V30 20127 H 1843.13 -0.249139 4.15654 0
M  V30 20128 H 1845.72 -3.01856 4.41347 0
M  V30 20129 H 1846.07 -3.16267 2.70704 0
M  V30 20130 H 1846.6 -1.71189 3.59081 0
M  V30 20131 H 1843.34 -0.939801 6.48728 0
M  V30 20132 H 1842.86 -2.35156 5.5178 0
M  V30 20133 H 1844.54 -2.18733 6.08905 0
M  V30 20134 N 1844.67 -1.5 -0.48349 0
M  V30 20135 C 1845.9 -1.64105 -1.26004 0
M  V30 20136 C 1846.31 -0.319389 -1.86079 0
M  V30 20137 O 1845.67 0.697243 -1.68656 0
M  V30 20138 C 1845.72 -2.72299 -2.37772 0
M  V30 20139 O 1845.44 -3.99341 -1.80163 0
M  V30 20140 C 1846.94 -2.97266 -3.28858 0
M  V30 20141 H 1844.16 -0.551971 -0.381535 0
M  V30 20142 H 1846.71 -1.96146 -0.57852 0
M  V30 20143 H 1844.86 -2.42987 -3.01722 0
M  V30 20144 H 1845.27 -4.59077 -2.5367 0
M  V30 20145 H 1846.75 -3.76662 -4.03521 0
M  V30 20146 H 1847.23 -2.07855 -3.86902 0
M  V30 20147 H 1847.83 -3.28062 -2.70657 0
M  V30 20148 N 1846.15 0.735796 -1.39369 0
M  V30 20149 C 1847.08 1.86001 -1.33926 0
M  V30 20150 C 1848.09 1.60897 -0.24818 0
M  V30 20151 O 1849.28 1.71146 -0.507074 0
M  V30 20152 C 1846.38 3.2201 -1.05654 0
M  V30 20153 C 1845.55 3.74476 -2.26023 0
M  V30 20154 C 1844.61 4.89045 -1.94221 0
M  V30 20155 O 1843.64 5.02748 -2.66896 0
M  V30 20156 N 1844.84 5.73357 -0.907884 0
M  V30 20157 H 1847.61 1.91175 -2.30807 0
M  V30 20158 H 1845.17 0.916499 -1.33461 0
M  V30 20159 H 1847.16 3.96223 -0.824001 0
M  V30 20160 H 1845.73 3.12109 -0.175094 0
M  V30 20161 H 1844.95 2.91624 -2.65234 0
M  V30 20162 H 1846.24 4.06263 -3.06313 0
M  V30 20163 H 1845.63 5.64874 -0.305564 0
M  V30 20164 H 1844.19 6.4764 -0.735237 0
M  V30 20165 N 1847.63 1.24532 0.965897 0
M  V30 20166 C 1848.85 1.11318 1.74401 0
M  V30 20167 C 1849.27 -0.33411 1.8582 0
M  V30 20168 O 1848.63 -1.23044 1.34783 0
M  V30 20169 C 1848.68 1.74927 3.16358 0
M  V30 20170 O 1848.4 3.13998 3.05511 0
M  V30 20171 C 1849.9 1.67347 4.105 0
M  V30 20172 H 1847.12 0.388835 0.546853 0
M  V30 20173 H 1849.66 1.64674 1.21255 0
M  V30 20174 H 1847.82 1.2557 3.66485 0
M  V30 20175 H 1848.23 3.45097 3.94979 0
M  V30 20176 H 1849.71 2.16533 5.07757 0
M  V30 20177 H 1850.18 0.635036 4.34585 0
M  V30 20178 H 1850.79 2.16139 3.66284 0
M  V30 20179 N 1849.1 -1.16685 1.05936 0
M  V30 20180 C 1850.03 -2.23129 0.688153 0
M  V30 20181 C 1851.01 -1.67108 -0.31765 0
M  V30 20182 O 1852.2 -1.93233 -0.193578 0
M  V30 20183 C 1849.33 -3.47229 0.069991 0
M  V30 20184 C 1848.28 -4.16121 1.00137 0
M  V30 20185 C 1847.61 -5.34131 0.246699 0
M  V30 20186 C 1848.91 -4.67508 2.32882 0
M  V30 20187 H 1850.6 -2.54436 1.57806 0
M  V30 20188 H 1848.15 -1.22298 0.76021 0
M  V30 20189 H 1850.1 -4.20918 -0.201545 0
M  V30 20190 H 1848.83 -3.15212 -0.854909 0
M  V30 20191 H 1847.49 -3.44355 1.25759 0
M  V30 20192 H 1847.13 -4.98366 -0.681204 0
M  V30 20193 H 1846.83 -5.81163 0.867373 0
M  V30 20194 H 1848.36 -6.10598 -0.0173762 0
M  V30 20195 H 1849.77 -5.32795 2.11666 0
M  V30 20196 H 1848.17 -5.25147 2.90414 0
M  V30 20197 H 1849.24 -3.83912 2.96209 0
M  V30 20198 N 1850.58 -0.841432 -1.33258 0
M  V30 20199 C 1851.53 -0.265077 -2.31085 0
M  V30 20200 C 1852.52 0.604339 -1.58253 0
M  V30 20201 O 1853.73 0.493615 -1.731 0
M  V30 20202 H 1850.1 -0.0669974 -0.74901 0
M  V30 20203 H 1852.08 -1.10464 -2.77201 0
M  V30 20204 C 1850.82 0.542926 -3.43435 0
M  V30 20205 H 1850.15 -0.116767 -3.99629 0
M  V30 20206 H 1851.59 0.912004 -4.14075 0
M  V30 20207 C 1850.05 1.72284 -2.89517 0
M  V30 20208 O 1850.58 2.82161 -2.85916 0
M  V30 20209 N 1848.78 1.54557 -2.4609 0
M  V30 20210 H 1848.33 0.651752 -2.49219 0
M  V30 20211 H 1848.29 2.33651 -2.10367 0
M  V30 20212 N 1852.06 1.4581 -0.598108 0
M  V30 20213 C 1853.31 2.03163 -0.0981368 0
M  V30 20214 C 1853.66 1.45942 1.25374 0
M  V30 20215 O 1852.95 0.620981 1.81258 0
M  V30 20216 C 1853.15 3.57399 0.00976809 0
M  V30 20217 C 1852.98 4.29579 -1.3301 0
M  V30 20218 C 1851.75 4.6788 -1.90831 0
M  V30 20219 C 1853.94 4.62141 -2.25677 0
M  V30 20220 N 1851.93 5.24878 -3.18397 0
M  V30 20221 C 1853.3 5.19872 -3.37836 0
M  V30 20222 C 1855.35 4.44077 -2.25167 0
M  V30 20223 C 1854.06 5.61443 -4.49639 0
M  V30 20224 C 1856.08 4.86674 -3.36009 0
M  V30 20225 C 1855.44 5.44489 -4.4689 0
M  V30 20226 H 1851.54 0.777994 -0.0790554 0
M  V30 20227 H 1854.13 1.77757 -0.794384 0
M  V30 20228 H 1852.3 3.82486 0.675215 0
M  V30 20229 H 1854.03 4.01403 0.515531 0
M  V30 20230 H 1850.78 4.51131 -1.44145 0
M  V30 20231 H 1851.21 5.57884 -3.83529 0
M  V30 20232 H 1855.85 3.987 -1.40706 0
M  V30 20233 H 1853.57 6.0579 -5.34831 0
M  V30 20234 H 1857.15 4.74437 -3.36751 0
M  V30 20235 H 1856.03 5.76846 -5.31243 0
M  V30 20236 N 1853.54 0.336733 1.53961 0
M  V30 20237 C 1854.47 -0.515664 2.27735 0
M  V30 20238 C 1855.45 -1.10835 1.29033 0
M  V30 20239 O 1856.63 -1.13102 1.57866 0
M  V30 20240 C 1853.76 -1.67015 3.04505 0
M  V30 20241 C 1852.72 -1.20613 4.10654 0
M  V30 20242 C 1852.04 -2.44861 4.75339 0
M  V30 20243 C 1853.34 -0.311507 5.2137 0
M  V30 20244 H 1855.04 0.0997513 2.99234 0
M  V30 20245 H 1852.58 0.0494157 1.43915 0
M  V30 20246 H 1854.54 -2.27286 3.54851 0
M  V30 20247 H 1853.26 -2.31236 2.30646 0
M  V30 20248 H 1851.92 -0.62628 3.61211 0
M  V30 20249 H 1851.57 -3.07474 3.98081 0
M  V30 20250 H 1851.27 -2.14498 5.47051 0
M  V30 20251 H 1852.79 -3.0587 5.28466 0
M  V30 20252 H 1854.21 -0.820868 5.67393 0
M  V30 20253 H 1852.6 -0.100073 6.00017 0
M  V30 20254 H 1853.67 0.654181 4.80467 0
M  V30 20255 N 1855.02 -1.57465 0.0651956 0
M  V30 20256 C 1856.26 -1.93524 -0.606325 0
M  V30 20257 C 1856.59 -0.944947 -1.6966 0
M  V30 20258 O 1855.87 0.0268871 -1.94481 0
M  V30 20259 C 1856.15 -3.3989 -1.18941 0
M  V30 20260 C 1856.01 -4.49675 -0.106235 0
M  V30 20261 C 1857.32 -3.86935 -2.09689 0
M  V30 20262 H 1854.44 -0.703729 -0.218939 0
M  V30 20263 H 1857.09 -1.89556 0.12982 0
M  V30 20264 H 1855.24 -3.43402 -1.81679 0
M  V30 20265 H 1856.91 -4.58286 0.526483 0
M  V30 20266 H 1855.15 -4.30118 0.563985 0
M  V30 20267 H 1855.82 -5.49208 -0.554488 0
M  V30 20268 H 1858.3 -3.85387 -1.56895 0
M  V30 20269 H 1857.17 -4.89972 -2.47424 0
M  V30 20270 H 1857.43 -3.24496 -3.00258 0
M  V30 20271 N 1856.49 0.20831 -1.56217 0
M  V30 20272 C 1857.91 0.55859 -1.49506 0
M  V30 20273 C 1858.11 1.86504 -0.762784 0
M  V30 20274 O 1857.17 2.50616 -0.307868 0
M  V30 20275 C 1858.48 0.625557 -2.94121 0
M  V30 20276 C 1860.03 0.715289 -3.04717 0
M  V30 20277 C 1860.5 0.813485 -4.50718 0
M  V30 20278 N 1861.99 0.87736 -4.54815 0
M  V30 20279 C 1862.73 0.973279 -5.65079 0
M  V30 20280 N 1862.22 1.03232 -6.85066 0
M  V30 20281 N 1864.02 1.00944 -5.52962 0
M  V30 20282 H 1856.17 -0.648826 -2.02247 0
M  V30 20283 H 1858.43 -0.229425 -0.91982 0
M  V30 20284 H 1858.14 -0.265056 -3.507 0
M  V30 20285 H 1858.01 1.48473 -3.4675 0
M  V30 20286 H 1860.4 1.59634 -2.48196 0
M  V30 20287 H 1860.48 -0.169818 -2.55236 0
M  V30 20288 H 1860.12 -0.0631602 -5.07861 0
M  V30 20289 H 1860.05 1.7142 -4.97918 0
M  V30 20290 H 1862.54 0.841513 -3.68411 0
M  V30 20291 H 1862.86 1.10566 -7.6485 0
M  V30 20292 H 1861.2 1.00122 -6.8775 0
M  V30 20293 H 1864.39 0.960065 -4.58149 0
M  V30 20294 H 1864.57 1.08074 -6.38924 0
M  V30 20295 N 1857.97 1.50255 0.475528 0
M  V30 20296 C 1858.9 1.63428 1.59268 0
M  V30 20297 C 1859.88 0.482517 1.55276 0
M  V30 20298 O 1861.07 0.70144 1.74963 0
M  V30 20299 C 1858.19 1.61277 2.97838 0
M  V30 20300 C 1857.24 2.81961 3.20001 0
M  V30 20301 S 1858.07 4.43321 3.00378 0
M  V30 20302 C 1859.23 4.43855 4.41297 0
M  V30 20303 H 1859.46 2.57928 1.47853 0
M  V30 20304 H 1856.99 1.39462 0.662547 0
M  V30 20305 H 1858.95 1.60721 3.77729 0
M  V30 20306 H 1857.61 0.680212 3.06646 0
M  V30 20307 H 1856.81 2.76747 4.21221 0
M  V30 20308 H 1856.41 2.80061 2.47875 0
M  V30 20309 H 1858.7 4.17145 5.33851 0
M  V30 20310 H 1859.64 5.45439 4.51555 0
M  V30 20311 H 1860.05 3.73616 4.23168 0
M  V30 20312 N 1859.45 -0.728395 1.39758 0
M  V30 20313 C 1860.68 -1.5176 1.40629 0
M  V30 20314 C 1861.09 -1.888 0.00253909 0
M  V30 20315 O 1860.45 -1.54561 -0.970428 0
M  V30 20316 C 1860.5 -2.80102 2.28528 0
M  V30 20317 O 1860.22 -2.44633 3.63436 0
M  V30 20318 C 1861.72 -3.74087 2.37853 0
M  V30 20319 H 1858.94 -0.468767 0.480103 0
M  V30 20320 H 1861.49 -0.89953 1.83654 0
M  V30 20321 H 1859.64 -3.38225 1.88898 0
M  V30 20322 H 1860.06 -3.27124 4.09988 0
M  V30 20323 H 1861.53 -4.61017 3.03591 0
M  V30 20324 H 1862.01 -4.163 1.39968 0
M  V30 20325 H 1862.61 -3.2188 2.7798 0
M  V30 20326 N 1860.93 -1.25042 -0.959279 0
M  V30 20327 C 1862.15 -1.12339 -1.74341 0
M  V30 20328 C 1862.58 0.319342 -1.85369 0
M  V30 20329 O 1861.94 1.23129 -1.33075 0
M  V30 20330 C 1861.98 -1.77734 -3.13756 0
M  V30 20331 O 1861.09 -1.05383 -3.98708 0
M  V30 20332 H 1860.43 -0.392479 -0.535589 0
M  V30 20333 H 1862.96 -1.65516 -1.20274 0
M  V30 20334 H 1862.97 -1.83832 -3.64239 0
M  V30 20335 H 1861.64 -2.82702 -3.05045 0
M  V30 20336 H 1860.22 -1.07132 -3.57179 0
M  V30 20337 N 1862.41 1.16121 -1.06553 0
M  V30 20338 C 1863.32 2.24229 -0.689833 0
M  V30 20339 C 1864.33 1.71476 0.295308 0
M  V30 20340 O 1865.51 2.00885 0.143964 0
M  V30 20341 C 1862.57 3.46596 -0.0847857 0
M  V30 20342 C 1861.63 4.14375 -1.12213 0
M  V30 20343 C 1860.87 5.30901 -0.54586 0
M  V30 20344 O 1861.09 5.66792 0.640588 0
M  V30 20345 O 1860.02 5.87983 -1.28683 0
M  V30 20346 H 1863.85 2.5868 -1.59117 0
M  V30 20347 H 1861.44 1.23687 -0.837966 0
M  V30 20348 H 1863.32 4.20653 0.250764 0
M  V30 20349 H 1861.99 3.13912 0.789998 0
M  V30 20350 H 1860.9 3.42276 -1.5099 0
M  V30 20351 H 1862.23 4.5112 -1.96853 0
M  V30 20352 N 1863.88 0.848487 1.3281 0
M  V30 20353 C 1865.13 0.445116 1.96727 0
M  V30 20354 C 1865.45 -1.00311 1.6792 0
M  V30 20355 O 1866.65 -1.51162 2.25527 0
M  V30 20356 C 1865.11 0.745015 3.52104 0
M  V30 20357 C 1864.72 2.20856 3.89778 0
M  V30 20358 C 1866.46 0.409065 4.22524 0
M  V30 20359 C 1864.37 2.452 5.38174 0
M  V30 20360 H 1863.3 0.162715 0.736233 0
M  V30 20361 H 1865.95 1.03841 1.51292 0
M  V30 20362 H 1864.33 0.0812291 3.95917 0
M  V30 20363 H 1865.5 2.91362 3.56994 0
M  V30 20364 H 1863.82 2.50842 3.32366 0
M  V30 20365 H 1866.42 0.568453 5.3167 0
M  V30 20366 H 1866.76 -0.648796 4.11213 0
M  V30 20367 H 1867.29 1.02848 3.84275 0
M  V30 20368 H 1864.03 3.49588 5.54499 0
M  V30 20369 H 1863.55 1.79265 5.72384 0
M  V30 20370 H 1865.23 2.28838 6.0518 0
M  V30 20371 N 1865.36 -1.4549 0.605832 0
M  V30 20372 C 1866.27 -2.34313 -0.115915 0
M  V30 20373 C 1867.29 -1.51136 -0.862199 0
M  V30 20374 O 1868.46 -1.83943 -0.820181 0
M  V30 20375 C 1865.53 -3.28724 -1.10188 0
M  V30 20376 C 1864.59 -4.27807 -0.357749 0
M  V30 20377 C 1863.82 -5.17707 -1.29675 0
M  V30 20378 O 1864.05 -5.10999 -2.53448 0
M  V30 20379 O 1862.98 -5.9663 -0.794767 0
M  V30 20380 H 1866.81 -2.97429 0.613981 0
M  V30 20381 H 1864.39 -1.44845 0.366103 0
M  V30 20382 H 1866.27 -3.86905 -1.6698 0
M  V30 20383 H 1864.95 -2.68175 -1.81284 0
M  V30 20384 H 1863.86 -3.73246 0.252588 0
M  V30 20385 H 1865.19 -4.91206 0.312682 0
M  V30 20386 N 1866.84 -0.344893 -1.5378 0
M  V30 20387 C 1868.07 0.252559 -2.05353 0
M  V30 20388 C 1868.48 1.44107 -1.21978 0
M  V30 20389 O 1867.84 1.80704 -0.25543 0
M  V30 20390 C 1867.89 0.666294 -3.55307 0
M  V30 20391 O 1867.61 -0.474957 -4.35518 0
M  V30 20392 C 1869.11 1.32432 -4.23056 0
M  V30 20393 H 1866.33 0.0485202 -0.669243 0
M  V30 20394 H 1868.88 -0.497271 -1.98362 0
M  V30 20395 H 1867.03 1.36606 -3.62515 0
M  V30 20396 H 1867.45 -0.144883 -5.243 0
M  V30 20397 H 1868.92 1.56456 -5.29363 0
M  V30 20398 H 1869.4 2.27829 -3.75487 0
M  V30 20399 H 1870 0.66655 -4.20044 0
M  V30 20400 N 1868.32 1.57428 -0.0735454 0
M  V30 20401 C 1869.27 2.14028 0.910749 0
M  V30 20402 C 1870.26 1.07761 1.30705 0
M  V30 20403 O 1871.47 1.26139 1.28409 0
M  V30 20404 H 1867.84 0.684381 0.311652 0
M  V30 20405 H 1869.81 2.95591 0.408468 0
M  V30 20406 C 1868.56 2.71817 2.1682 0
M  V30 20407 H 1867.88 3.5326 1.87209 0
M  V30 20408 H 1869.32 3.15014 2.83799 0
M  V30 20409 C 1867.78 1.66661 2.92789 0
M  V30 20410 O 1868.31 1.09266 3.86554 0
M  V30 20411 N 1866.52 1.37655 2.55929 0
M  V30 20412 H 1866.07 1.84518 1.79752 0
M  V30 20413 H 1866.02 0.675307 3.07062 0
M  V30 20414 N 1869.8 -0.200022 1.56326 0
M  V30 20415 C 1871.05 -0.919331 1.7953 0
M  V30 20416 C 1871.36 -1.84628 0.645908 0
M  V30 20417 O 1872.56 -2.60584 0.762132 0
M  V30 20418 C 1871.02 -1.68508 3.18014 0
M  V30 20419 C 1870.63 -0.803202 4.40741 0
M  V30 20420 C 1872.37 -2.39432 3.50532 0
M  V30 20421 C 1870.28 -1.56753 5.70248 0
M  V30 20422 H 1869.21 -0.347018 0.669399 0
M  V30 20423 H 1871.86 -0.172713 1.82685 0
M  V30 20424 H 1870.24 -2.4754 3.09095 0
M  V30 20425 H 1871.42 -0.0518889 4.60771 0
M  V30 20426 H 1869.73 -0.205039 4.15895 0
M  V30 20427 H 1872.33 -2.97158 4.44524 0
M  V30 20428 H 1872.67 -3.13378 2.74043 0
M  V30 20429 H 1873.2 -1.6737 3.60877 0
M  V30 20430 H 1869.94 -0.870942 6.49688 0
M  V30 20431 H 1869.46 -2.29291 5.54243 0
M  V30 20432 H 1871.14 -2.12262 6.11191 0
M  V30 20433 N 1871.27 -1.50505 -0.467553 0
M  V30 20434 C 1872.52 -1.6191 -1.22118 0
M  V30 20435 C 1872.85 -0.320112 -1.91544 0
M  V30 20436 O 1872.13 0.678631 -1.82277 0
M  V30 20437 C 1872.41 -2.80184 -2.26206 0
M  V30 20438 C 1872.26 -4.19975 -1.61062 0
M  V30 20439 C 1873.58 -2.94011 -3.27484 0
M  V30 20440 H 1870.7 -0.589289 -0.442615 0
M  V30 20441 H 1873.34 -1.82902 -0.514484 0
M  V30 20442 H 1871.49 -2.62417 -2.86478 0
M  V30 20443 H 1873.17 -4.4934 -1.04359 0
M  V30 20444 H 1871.41 -4.24069 -0.91365 0
M  V30 20445 H 1872.08 -4.98667 -2.36718 0
M  V30 20446 H 1874.56 -3.10288 -2.77238 0
M  V30 20447 H 1873.43 -3.78384 -3.97639 0
M  V30 20448 H 1873.69 -2.04777 -3.91815 0
M  V30 20449 N 1872.75 0.720973 -1.40142 0
M  V30 20450 C 1873.72 1.81676 -1.39737 0
M  V30 20451 C 1874.72 1.58125 -0.292068 0
M  V30 20452 O 1875.91 1.65266 -0.550699 0
M  V30 20453 C 1873.04 3.19685 -1.18381 0
M  V30 20454 H 1874.23 1.83435 -2.37259 0
M  V30 20455 H 1871.78 0.926064 -1.25912 0
M  V30 20456 H 1872.52 3.2358 -0.21598 0
M  V30 20457 H 1872.3 3.38178 -1.98439 0
M  V30 20458 H 1873.79 3.99724 -1.20873 0
M  V30 20459 N 1874.23 1.25549 0.952634 0
M  V30 20460 C 1875.48 1.1058 1.7 0
M  V30 20461 C 1875.81 -0.35206 1.90982 0
M  V30 20462 O 1875.08 -1.25938 1.48222 0
M  V30 20463 C 1875.37 1.86283 3.08173 0
M  V30 20464 C 1875.22 3.39909 2.94588 0
M  V30 20465 C 1876.54 1.64755 4.08098 0
M  V30 20466 H 1873.66 0.403095 0.616996 0
M  V30 20467 H 1876.3 1.54406 1.1072 0
M  V30 20468 H 1874.45 1.49033 3.58778 0
M  V30 20469 H 1876.12 3.86845 2.51294 0
M  V30 20470 H 1874.37 3.67518 2.30462 0
M  V30 20471 H 1875.04 3.88094 3.92539 0
M  V30 20472 H 1877.51 1.97186 3.66411 0
M  V30 20473 H 1876.39 2.20157 5.02814 0
M  V30 20474 H 1876.65 0.589348 4.38154 0
M  V30 20475 N 1875.71 -1.15554 1.07168 0
M  V30 20476 C 1876.62 -2.2386 0.701714 0
M  V30 20477 C 1877.63 -1.7163 -0.28621 0
M  V30 20478 O 1878.81 -2.00958 -0.133308 0
M  V30 20479 C 1875.88 -3.46546 0.103165 0
M  V30 20480 C 1874.94 -4.13774 1.14409 0
M  V30 20481 C 1874.17 -5.30604 0.574007 0
M  V30 20482 O 1874.39 -5.67123 -0.610521 0
M  V30 20483 O 1873.33 -5.87293 1.31799 0
M  V30 20484 H 1877.15 -2.57833 1.60487 0
M  V30 20485 H 1874.74 -1.23241 0.844514 0
M  V30 20486 H 1876.62 -4.2078 -0.228452 0
M  V30 20487 H 1875.29 -3.14327 -0.773339 0
M  V30 20488 H 1874.2 -3.4147 1.52803 0
M  V30 20489 H 1875.53 -4.5007 1.99243 0
M  V30 20490 N 1877.19 -0.855519 -1.32358 0
M  V30 20491 C 1878.6 -0.545491 -1.49989 0
M  V30 20492 C 1878.8 0.923656 -1.79083 0
M  V30 20493 O 1877.86 1.70664 -1.86091 0
M  V30 20494 C 1879.17 -1.43323 -2.64347 0
M  V30 20495 C 1880.72 -1.43374 -2.78232 0
M  V30 20496 C 1881.2 -2.30671 -3.9567 0
M  V30 20497 N 1882.69 -2.28471 -4.02933 0
M  V30 20498 C 1883.42 -2.92746 -4.93039 0
M  V30 20499 N 1882.92 -3.66136 -5.88147 0
M  V30 20500 N 1884.71 -2.82129 -4.86168 0
M  V30 20501 H 1876.86 -1.80633 -1.11738 0
M  V30 20502 H 1879.12 -0.771568 -0.550805 0
M  V30 20503 H 1878.83 -2.47797 -2.49578 0
M  V30 20504 H 1878.7 -1.12125 -3.6015 0
M  V30 20505 H 1881.09 -0.396641 -2.92422 0
M  V30 20506 H 1881.17 -1.78588 -1.83139 0
M  V30 20507 H 1880.82 -3.3445 -3.82238 0
M  V30 20508 H 1880.75 -1.92789 -4.90041 0
M  V30 20509 H 1883.24 -1.75115 -3.34878 0
M  V30 20510 H 1883.55 -4.12344 -6.536 0
M  V30 20511 H 1881.9 -3.70244 -5.88171 0
M  V30 20512 H 1885.09 -2.24344 -4.10837 0
M  V30 20513 H 1885.26 -3.32502 -5.56189 0
M  V30 20514 N 1878.67 1.45167 -0.61354 0
M  V30 20515 C 1879.91 2.01407 -0.10861 0
M  V30 20516 C 1880.23 1.48701 1.27072 0
M  V30 20517 O 1881.43 1.96956 1.8687 0
M  V30 20518 C 1879.89 3.59614 -0.143466 0
M  V30 20519 C 1879.5 4.21317 -1.52302 0
M  V30 20520 C 1881.24 4.23396 0.305912 0
M  V30 20521 C 1879.15 5.71694 -1.51393 0
M  V30 20522 H 1878.08 0.7531 -0.0368359 0
M  V30 20523 H 1880.73 1.66575 -0.769748 0
M  V30 20524 H 1879.11 3.91664 0.584438 0
M  V30 20525 H 1880.29 4.00832 -2.2731 0
M  V30 20526 H 1878.6 3.69753 -1.91499 0
M  V30 20527 H 1881.2 5.33668 0.331977 0
M  V30 20528 H 1881.54 3.9449 1.32978 0
M  V30 20529 H 1882.07 3.96086 -0.36892 0
M  V30 20530 H 1878.81 6.05308 -2.5156 0
M  V30 20531 H 1878.33 5.94353 -0.80652 0
M  V30 20532 H 1880.01 6.35003 -1.24017 0
M  V30 20533 N 1880.14 0.353044 1.53595 0
M  V30 20534 C 1881.37 -0.241665 2.05484 0
M  V30 20535 C 1881.79 -1.43458 1.2274 0
M  V30 20536 O 1881.14 -1.80566 0.26501 0
M  V30 20537 C 1881.19 -0.647442 3.55655 0
M  V30 20538 O 1880.92 0.498047 4.3526 0
M  V30 20539 C 1882.42 -1.30187 4.23753 0
M  V30 20540 H 1879.64 -0.0449704 0.669491 0
M  V30 20541 H 1882.18 0.507783 1.98095 0
M  V30 20542 H 1880.34 -1.34682 3.63235 0
M  V30 20543 H 1880.75 0.172685 5.24216 0
M  V30 20544 H 1882.22 -1.53646 5.30186 0
M  V30 20545 H 1882.7 -2.25835 3.7669 0
M  V30 20546 H 1883.31 -0.644265 4.20392 0
M  V30 20547 N 1881.62 -1.57387 0.0818932 0
M  V30 20548 C 1882.53 -2.16804 -0.89629 0
M  V30 20549 C 1883.55 -1.1339 -1.3198 0
M  V30 20550 O 1884.72 -1.45702 -1.39042 0
M  V30 20551 C 1881.79 -2.72607 -2.14211 0
M  V30 20552 C 1880.85 -3.90929 -1.77406 0
M  V30 20553 C 1880.08 -4.44062 -2.96049 0
M  V30 20554 O 1880.31 -3.96166 -4.10376 0
M  V30 20555 O 1879.24 -5.35261 -2.75279 0
M  V30 20556 H 1883.07 -3.0077 -0.420827 0
M  V30 20557 H 1880.65 -1.48726 -0.141737 0
M  V30 20558 H 1882.53 -3.0833 -2.87247 0
M  V30 20559 H 1881.21 -1.91694 -2.60835 0
M  V30 20560 H 1880.11 -3.60042 -1.01591 0
M  V30 20561 H 1881.45 -4.73165 -1.35556 0
M  V30 20562 N 1883.1 0.191729 -1.56429 0
M  V30 20563 C 1884.33 0.926363 -1.84667 0
M  V30 20564 C 1884.74 1.77215 -0.662674 0
M  V30 20565 O 1884.08 1.79772 0.377839 0
M  V30 20566 C 1884.14 1.86973 -3.07053 0
M  V30 20567 C 1883.81 1.20556 -4.40812 0
M  V30 20568 C 1884.8 0.580852 -5.16645 0
M  V30 20569 C 1882.49 1.20841 -4.87548 0
M  V30 20570 C 1884.48 -0.0321402 -6.37392 0
M  V30 20571 C 1882.17 0.59158 -6.0823 0
M  V30 20572 C 1883.17 -0.0276096 -6.82994 0
M  V30 20573 O 1882.86 -0.634761 -8.0139 0
M  V30 20574 H 1882.59 0.27562 -0.61726 0
M  V30 20575 H 1885.14 0.202927 -2.04395 0
M  V30 20576 H 1883.37 2.63295 -2.83219 0
M  V30 20577 H 1885.06 2.47244 -3.21909 0
M  V30 20578 H 1885.83 0.570769 -4.8163 0
M  V30 20579 H 1881.71 1.67975 -4.29308 0
M  V30 20580 H 1885.25 -0.516048 -6.95689 0
M  V30 20581 H 1881.15 0.599177 -6.42713 0
M  V30 20582 H 1881.91 -0.531997 -8.16769 0
M  V30 20583 N 1884.58 1.50751 0.459565 0
M  V30 20584 C 1885.81 1.66089 1.23377 0
M  V30 20585 C 1886.22 0.348952 1.85547 0
M  V30 20586 O 1885.58 -0.670323 1.69744 0
M  V30 20587 C 1885.63 2.76047 2.3341 0
M  V30 20588 O 1885.35 4.02156 1.73787 0
M  V30 20589 C 1886.85 3.02461 3.24087 0
M  V30 20590 H 1884.07 0.557971 0.372705 0
M  V30 20591 H 1886.61 1.97042 0.547242 0
M  V30 20592 H 1884.77 2.47756 2.97818 0
M  V30 20593 H 1885.18 4.63055 2.46335 0
M  V30 20594 H 1886.66 3.83034 3.97478 0
M  V30 20595 H 1887.13 2.13984 3.83546 0
M  V30 20596 H 1887.74 3.32326 2.65404 0
M  V30 20597 N 1886.06 -0.713531 1.40522 0
M  V30 20598 C 1887 -1.82761 1.40951 0
M  V30 20599 C 1887.97 -1.63953 0.266188 0
M  V30 20600 O 1889.16 -1.85058 0.464558 0
M  V30 20601 C 1886.3 -3.20488 1.27989 0
M  V30 20602 C 1885.41 -3.50853 2.52044 0
M  V30 20603 C 1884.55 -4.78097 2.31509 0
M  V30 20604 C 1883.58 -5.01373 3.51129 0
M  V30 20605 N 1882.72 -6.19832 3.29777 0
M  V30 20606 H 1887.56 -1.81729 2.36175 0
M  V30 20607 H 1885.1 -0.887703 1.17296 0
M  V30 20608 H 1887.06 -4.00023 1.1848 0
M  V30 20609 H 1885.69 -3.20743 0.363832 0
M  V30 20610 H 1884.74 -2.65858 2.72073 0
M  V30 20611 H 1886.05 -3.63961 3.41077 0
M  V30 20612 H 1885.2 -5.65654 2.19365 0
M  V30 20613 H 1883.94 -4.67203 1.39903 0
M  V30 20614 H 1882.95 -4.12271 3.63748 0
M  V30 20615 H 1884.17 -5.14139 4.43664 0
M  V30 20616 H 1882.12 -6.10184 2.40855 0
M  V30 20617 H 1882.04 -6.33626 4.12376 0
M  V30 20618 H 1883.3 -7.1017 3.2137 0
M  V30 20619 N 1887.53 -1.26053 -0.945962 0
M  V30 20620 C 1888.78 -1.1148 -1.69411 0
M  V30 20621 C 1889.11 0.341927 -1.91166 0
M  V30 20622 O 1888.39 1.2515 -1.48888 0
M  V30 20623 C 1888.67 -1.87915 -3.07181 0
M  V30 20624 C 1888.52 -3.41466 -2.92781 0
M  V30 20625 C 1889.84 -1.66917 -4.07218 0
M  V30 20626 H 1886.96 -0.406361 -0.614849 0
M  V30 20627 H 1889.6 -1.54991 -1.099 0
M  V30 20628 H 1887.75 -1.50934 -3.57982 0
M  V30 20629 H 1889.43 -3.88172 -2.49238 0
M  V30 20630 H 1887.67 -3.68735 -2.2851 0
M  V30 20631 H 1888.34 -3.90171 -3.90475 0
M  V30 20632 H 1890.82 -1.99127 -3.6536 0
M  V30 20633 H 1889.69 -2.22821 -5.01639 0
M  V30 20634 H 1889.95 -0.612576 -4.37835 0
M  V30 20635 N 1889.01 1.14984 -1.07779 0
M  V30 20636 C 1889.92 2.23484 -0.713576 0
M  V30 20637 C 1890.94 1.71779 0.277104 0
M  V30 20638 O 1892.11 2.01026 0.122649 0
M  V30 20639 C 1889.18 3.46487 -0.121542 0
M  V30 20640 C 1888.24 4.13162 -1.16602 0
M  V30 20641 C 1887.47 5.30292 -0.602138 0
M  V30 20642 O 1887.7 5.67439 0.580436 0
M  V30 20643 O 1886.63 5.86585 -1.34912 0
M  V30 20644 H 1890.46 2.56978 -1.61852 0
M  V30 20645 H 1888.04 1.22791 -0.851038 0
M  V30 20646 H 1889.92 4.20896 0.206134 0
M  V30 20647 H 1888.6 3.14732 0.756659 0
M  V30 20648 H 1887.5 3.40655 -1.54612 0
M  V30 20649 H 1888.84 4.49007 -2.01627 0
M  V30 20650 N 1890.49 0.862526 1.31902 0
M  V30 20651 C 1891.44 0.301807 2.30634 0
M  V30 20652 C 1892.43 -0.579086 1.59195 0
M  V30 20653 O 1893.64 -0.466014 1.73863 0
M  V30 20654 H 1890.01 0.078905 0.747849 0
M  V30 20655 H 1891.98 1.1486 2.75408 0
M  V30 20656 C 1890.73 -0.48822 3.44255 0
M  V30 20657 H 1890.06 0.18033 3.99393 0
M  V30 20658 H 1891.5 -0.846013 4.15474 0
M  V30 20659 C 1889.95 -1.67656 2.92221 0
M  V30 20660 O 1890.48 -2.77577 2.90369 0
M  V30 20661 N 1888.69 -1.50622 2.48518 0
M  V30 20662 H 1888.24 -0.612021 2.50224 0
M  V30 20663 H 1888.2 -2.30275 2.14058 0
M  V30 20664 N 1891.97 -1.4484 0.62123 0
M  V30 20665 C 1892.88 -2.34423 -0.0910566 0
M  V30 20666 C 1893.89 -1.52042 -0.846121 0
M  V30 20667 O 1895.07 -1.84802 -0.800625 0
M  V30 20668 C 1892.14 -3.29874 -1.06696 0
M  V30 20669 C 1891.2 -4.28162 -0.312354 0
M  V30 20670 C 1890.43 -5.19053 -1.24177 0
M  V30 20671 O 1890.65 -5.13659 -2.48014 0
M  V30 20672 O 1889.59 -5.97439 -0.731442 0
M  V30 20673 H 1893.41 -2.96761 0.645493 0
M  V30 20674 H 1891 -1.44448 0.381445 0
M  V30 20675 H 1892.88 -3.88654 -1.62867 0
M  V30 20676 H 1891.55 -2.70083 -1.78429 0
M  V30 20677 H 1890.46 -3.72957 0.292161 0
M  V30 20678 H 1891.79 -4.90847 0.364763 0
M  V30 20679 N 1893.45 -0.361184 -1.53405 0
M  V30 20680 C 1894.41 0.475026 -2.24223 0
M  V30 20681 C 1895.41 1.01331 -1.24855 0
M  V30 20682 O 1896.6 0.899756 -1.49164 0
M  V30 20683 C 1893.73 1.6635 -2.97557 0
M  V30 20684 H 1894.92 -0.144595 -2.99551 0
M  V30 20685 H 1892.48 -0.112802 -1.55892 0
M  V30 20686 H 1893.21 2.32133 -2.26461 0
M  V30 20687 H 1893 1.28454 -3.70462 0
M  V30 20688 H 1894.49 2.2562 -3.51405 0
M  V30 20689 N 1894.92 1.57341 -0.0902386 0
M  V30 20690 C 1896.34 1.8145 0.439638 0
M  V30 20691 C 1896.69 1.00551 1.68475 0
M  V30 20692 O 1895.81 0.233442 2.15137 0
M  V30 20693 C 1896.41 3.29113 0.804384 0
M  V30 20694 C 1894.97 3.54003 1.27903 0
M  V30 20695 C 1894.11 2.7595 0.27328 0
M  V30 20696 H 1897.06 1.55527 -0.315738 0
M  V30 20697 H 1897.08 3.4217 1.66432 0
M  V30 20698 H 1896.6 3.87966 -0.102017 0
M  V30 20699 H 1894.7 3.00475 2.20331 0
M  V30 20700 H 1894.81 4.62662 1.24422 0
M  V30 20701 H 1893.17 2.43271 0.754419 0
M  V30 20702 H 1893.96 3.3755 -0.625715 0
M  V30 20703 N 1896.4 -0.183431 1.56529 0
M  V30 20704 C 1897.65 -0.898713 1.82468 0
M  V30 20705 C 1898 -1.80394 0.66902 0
M  V30 20706 O 1897.3 -1.88645 -0.33521 0
M  V30 20707 C 1897.49 -1.74055 3.12153 0
M  V30 20708 C 1897.32 -0.918322 4.40224 0
M  V30 20709 C 1896.09 -0.598154 5.01747 0
M  V30 20710 C 1898.29 -0.26554 5.13614 0
M  V30 20711 N 1896.27 0.241481 6.13425 0
M  V30 20712 C 1897.64 0.435784 6.18467 0
M  V30 20713 C 1899.7 -0.182461 4.97566 0
M  V30 20714 C 1898.4 1.21229 7.09011 0
M  V30 20715 C 1900.42 0.580679 5.88542 0
M  V30 20716 C 1899.79 1.27041 6.92849 0
M  V30 20717 H 1895.89 -0.307874 0.718845 0
M  V30 20718 H 1898.47 -0.166565 1.93986 0
M  V30 20719 H 1896.64 -2.44421 3.01849 0
M  V30 20720 H 1898.37 -2.3962 3.26135 0
M  V30 20721 H 1895.13 -0.925363 4.64472 0
M  V30 20722 H 1895.55 0.651252 6.7386 0
M  V30 20723 H 1900.19 -0.701357 4.16942 0
M  V30 20724 H 1897.91 1.74257 7.89088 0
M  V30 20725 H 1901.5 0.646471 5.78197 0
M  V30 20726 H 1900.38 1.85146 7.62031 0
M  V30 20727 N 1897.88 -1.50992 -0.451564 0
M  V30 20728 C 1899.13 -1.63197 -1.20394 0
M  V30 20729 C 1899.46 -0.340409 -1.91193 0
M  V30 20730 O 1898.73 0.65926 -1.82986 0
M  V30 20731 C 1899.02 -2.82567 -2.23221 0
M  V30 20732 C 1898.87 -4.2166 -1.56598 0
M  V30 20733 C 1900.19 -2.97468 -3.24347 0
M  V30 20734 H 1897.31 -0.59395 -0.43634 0
M  V30 20735 H 1899.95 -1.83437 -0.495056 0
M  V30 20736 H 1898.1 -2.65441 -2.83678 0
M  V30 20737 H 1899.77 -4.50422 -0.995877 0
M  V30 20738 H 1898.02 -4.25015 -0.86862 0
M  V30 20739 H 1898.69 -5.0115 -2.31415 0
M  V30 20740 H 1901.16 -3.13211 -2.73931 0
M  V30 20741 H 1900.04 -3.82581 -3.93603 0
M  V30 20742 H 1900.3 -2.08921 -3.89621 0
M  V30 20743 N 1899.36 0.706069 -1.40899 0
M  V30 20744 C 1900.59 1.49504 -1.43025 0
M  V30 20745 C 1901 1.88772 -0.0325752 0
M  V30 20746 O 1900.36 1.56085 0.945716 0
M  V30 20747 C 1900.41 2.76431 -2.32955 0
M  V30 20748 O 1900.13 2.38821 -3.67282 0
M  V30 20749 C 1901.63 3.70255 -2.43774 0
M  V30 20750 H 1898.85 0.461069 -0.4875 0
M  V30 20751 H 1901.4 0.870198 -1.85062 0
M  V30 20752 H 1899.55 3.35177 -1.94255 0
M  V30 20753 H 1899.96 3.2056 -4.1514 0
M  V30 20754 H 1901.44 4.56129 -3.10887 0
M  V30 20755 H 1901.92 4.14021 -1.46573 0
M  V30 20756 H 1902.52 3.17417 -2.83066 0
M  V30 20757 N 1900.84 1.26553 0.939264 0
M  V30 20758 C 1902.11 1.02956 1.66312 0
M  V30 20759 C 1902.49 -0.439417 2.06476 0
M  V30 20760 O 1901.84 -1.42019 1.79005 0
M  V30 20761 C 1902.05 1.98013 2.87388 0
M  V30 20762 C 1903.4 2.26732 3.58996 0
M  V30 20763 O 1904.42 1.95894 2.97496 0
M  V30 20764 O 1903.28 2.79244 4.69771 0
M  V30 20765 H 1900.38 0.391621 0.728397 0
M  V30 20766 H 1902.92 1.37771 0.990824 0
M  V30 20767 H 1901.69 2.97133 2.54613 0
M  V30 20768 H 1901.32 1.63689 3.62342 0
M  V30 20769 N 1902.31 -1.14411 1.08387 0
M  V30 20770 C 1903.26 -2.19489 0.713668 0
M  V30 20771 C 1904.23 -1.63368 -0.300036 0
M  V30 20772 O 1905.42 -1.8991 -0.184088 0
M  V30 20773 C 1902.56 -3.44859 0.128925 0
M  V30 20774 C 1901.67 -4.15132 1.19538 0
M  V30 20775 C 1900.8 -5.28084 0.574521 0
M  V30 20776 C 1899.84 -5.9019 1.62303 0
M  V30 20777 N 1898.98 -6.94593 1.02398 0
M  V30 20778 H 1903.82 -2.50505 1.61404 0
M  V30 20779 H 1901.36 -1.23014 0.806595 0
M  V30 20780 H 1903.32 -4.16578 -0.227814 0
M  V30 20781 H 1901.95 -3.14327 -0.734757 0
M  V30 20782 H 1901 -3.41804 1.66955 0
M  V30 20783 H 1902.31 -4.57387 1.98994 0
M  V30 20784 H 1901.46 -6.06473 0.166017 0
M  V30 20785 H 1900.2 -4.8705 -0.251701 0
M  V30 20786 H 1899.21 -5.10505 2.0412 0
M  V30 20787 H 1900.43 -6.33299 2.45172 0
M  V30 20788 H 1898.38 -6.55635 0.218849 0
M  V30 20789 H 1898.3 -7.35332 1.75564 0
M  V30 20790 H 1899.56 -7.76857 0.641327 0
M  V30 20791 N 1903.79 -0.869509 -1.31443 0
M  V30 20792 C 1905.21 -0.561369 -1.49402 0
M  V30 20793 C 1905.41 0.90461 -1.80053 0
M  V30 20794 O 1904.46 1.68681 -1.87891 0
M  V30 20795 C 1905.78 -1.46118 -2.62812 0
M  V30 20796 C 1907.33 -1.46317 -2.76695 0
M  V30 20797 C 1907.8 -2.34855 -3.93201 0
M  V30 20798 N 1909.29 -2.32732 -4.00487 0
M  V30 20799 C 1910.03 -2.97959 -4.89906 0
M  V30 20800 N 1909.52 -3.72353 -5.8423 0
M  V30 20801 N 1911.32 -2.8727 -4.83149 0
M  V30 20802 H 1903.47 -1.81808 -1.09816 0
M  V30 20803 H 1905.73 -0.777367 -0.542591 0
M  V30 20804 H 1905.44 -2.5043 -2.46936 0
M  V30 20805 H 1905.31 -1.15938 -3.5894 0
M  V30 20806 H 1907.7 -0.427634 -2.91985 0
M  V30 20807 H 1907.78 -1.8052 -1.81235 0
M  V30 20808 H 1907.42 -3.38485 -3.78669 0
M  V30 20809 H 1907.35 -1.97976 -4.87968 0
M  V30 20810 H 1909.84 -1.78657 -3.33002 0
M  V30 20811 H 1910.16 -4.19253 -6.4919 0
M  V30 20812 H 1908.5 -3.76461 -5.8421 0
M  V30 20813 H 1911.69 -2.28689 -4.08435 0
M  V30 20814 H 1911.86 -3.38383 -5.52631 0
M  V30 20815 N 1905.27 1.44508 -0.628902 0
M  V30 20816 C 1906.68 1.85457 -0.215122 0
M  V30 20817 C 1907.03 1.52619 1.23296 0
M  V30 20818 O 1906.16 0.963178 1.93783 0
M  V30 20819 C 1906.75 3.36621 -0.383645 0
M  V30 20820 C 1905.31 3.76392 -0.0243904 0
M  V30 20821 C 1904.46 2.68369 -0.698081 0
M  V30 20822 H 1907.41 1.35006 -0.834208 0
M  V30 20823 H 1907.43 3.78617 0.378049 0
M  V30 20824 H 1906.94 3.6049 -1.43767 0
M  V30 20825 H 1905.04 3.58139 1.02798 0
M  V30 20826 H 1905.16 4.7714 -0.432898 0
M  V30 20827 H 1903.52 2.54349 -0.133605 0
M  V30 20828 H 1904.3 2.95071 -1.75465 0
M  V30 20829 N 1906.75 0.369315 1.53212 0
M  V30 20830 C 1908.16 -0.10909 1.86381 0
M  V30 20831 C 1908.51 -1.47849 1.28977 0
M  V30 20832 O 1907.64 -2.07528 0.613267 0
M  V30 20833 C 1908.23 -0.204726 3.38181 0
M  V30 20834 C 1906.79 -0.627391 3.71134 0
M  V30 20835 C 1905.94 0.223086 2.76401 0
M  V30 20836 H 1908.89 0.587967 1.47406 0
M  V30 20837 H 1908.91 -1.02761 3.66361 0
M  V30 20838 H 1908.42 0.792082 3.79931 0
M  V30 20839 H 1906.52 -1.63229 3.34943 0
M  V30 20840 H 1906.64 -0.39941 4.77432 0
M  V30 20841 H 1905 -0.308608 2.52823 0
M  V30 20842 H 1905.78 1.2175 3.20986 0
M  V30 20843 N 1908.23 -1.57291 0.0985816 0
M  V30 20844 C 1909.64 -1.81681 -0.430009 0
M  V30 20845 C 1909.99 -1.01443 -1.6794 0
M  V30 20846 O 1909.11 -0.244848 -2.1501 0
M  V30 20847 C 1909.71 -3.29535 -0.786919 0
M  V30 20848 C 1908.27 -3.54676 -1.26024 0
M  V30 20849 C 1907.42 -2.76091 -0.258642 0
M  V30 20850 H 1910.37 -1.55358 0.323982 0
M  V30 20851 H 1910.39 -3.43048 -1.64616 0
M  V30 20852 H 1909.9 -3.87906 0.122591 0
M  V30 20853 H 1908 -3.01639 -2.18734 0
M  V30 20854 H 1908.11 -4.63315 -1.21967 0
M  V30 20855 H 1906.48 -2.43667 -0.741507 0
M  V30 20856 H 1907.26 -3.37213 0.643607 0
M  V30 20857 N 1909.71 0.175127 -1.56624 0
M  V30 20858 C 1910.98 0.919424 -1.72644 0
M  V30 20859 C 1911.36 2.00553 -0.658929 0
M  V30 20860 O 1910.71 2.2615 0.326897 0
M  V30 20861 C 1910.92 1.48764 -3.15706 0
M  V30 20862 C 1912.27 1.96204 -3.76549 0
M  V30 20863 O 1913.29 1.58565 -3.1896 0
M  V30 20864 O 1912.15 2.65525 -4.7766 0
M  V30 20865 H 1909.25 0.43251 -0.704886 0
M  V30 20866 H 1911.79 0.163255 -1.68913 0
M  V30 20867 H 1910.56 0.705743 -3.84883 0
M  V30 20868 H 1910.19 2.3081 -3.23748 0
M  V30 20869 N 1911.18 1.5123 0.44355 0
M  V30 20870 C 1912.43 1.64796 1.19222 0
M  V30 20871 C 1912.78 0.356753 1.89064 0
M  V30 20872 O 1912.08 -0.64708 1.80343 0
M  V30 20873 C 1912.27 2.78511 2.23978 0
M  V30 20874 C 1912.1 4.18565 1.64418 0
M  V30 20875 C 1910.87 4.8459 1.43181 0
M  V30 20876 C 1913.07 5.01871 1.12383 0
M  V30 20877 N 1911.05 6.08776 0.791531 0
M  V30 20878 C 1912.42 6.17007 0.608446 0
M  V30 20879 C 1914.48 4.87445 1.015 0
M  V30 20880 C 1913.18 7.193 -0.00507306 0
M  V30 20881 C 1915.21 5.89939 0.415381 0
M  V30 20882 C 1914.57 7.04343 -0.0894936 0
M  V30 20883 H 1910.67 0.656973 0.424159 0
M  V30 20884 H 1913.25 1.88439 0.489793 0
M  V30 20885 H 1911.42 2.56543 2.91616 0
M  V30 20886 H 1913.15 2.8129 2.9096 0
M  V30 20887 H 1909.91 4.42351 1.69182 0
M  V30 20888 H 1910.33 6.75232 0.489009 0
M  V30 20889 H 1914.97 3.99256 1.39121 0
M  V30 20890 H 1912.69 8.07142 -0.393432 0
M  V30 20891 H 1916.28 5.80845 0.333158 0
M  V30 20892 H 1915.16 7.82296 -0.546186 0
M  V30 20893 N 1912.66 -0.698586 1.41271 0
M  V30 20894 C 1914.07 -1.2784 1.36066 0
M  V30 20895 C 1914.42 -1.96154 0.0422934 0
M  V30 20896 O 1913.55 -1.98599 -0.859498 0
M  V30 20897 C 1914.14 -2.32481 2.46451 0
M  V30 20898 C 1912.7 -2.86046 2.44652 0
M  V30 20899 C 1911.85 -1.60045 2.26453 0
M  V30 20900 H 1914.8 -0.493547 1.5083 0
M  V30 20901 H 1914.82 -3.13705 2.15335 0
M  V30 20902 H 1914.33 -1.82732 3.4239 0
M  V30 20903 H 1912.43 -3.3998 1.52461 0
M  V30 20904 H 1912.55 -3.36682 3.40855 0
M  V30 20905 H 1910.91 -1.85742 1.74275 0
M  V30 20906 H 1911.69 -1.12295 3.24414 0
M  V30 20907 N 1914.14 -1.27049 -0.93254 0
M  V30 20908 C 1915.36 -1.16011 -1.71919 0
M  V30 20909 C 1915.79 0.279951 -1.86005 0
M  V30 20910 O 1915.15 1.20279 -1.35657 0
M  V30 20911 C 1915.2 -1.84349 -3.09916 0
M  V30 20912 O 1914.3 -1.13816 -3.96383 0
M  V30 20913 H 1913.64 -0.403752 -0.527144 0
M  V30 20914 H 1916.17 -1.6803 -1.16736 0
M  V30 20915 H 1916.18 -1.91516 -3.60258 0
M  V30 20916 H 1914.86 -2.89109 -2.9898 0
M  V30 20917 H 1913.43 -1.14684 -3.54827 0
M  V30 20918 N 1915.62 1.13835 -1.08993 0
M  V30 20919 C 1916.56 2.19107 -0.725298 0
M  V30 20920 C 1917.53 1.63524 0.291368 0
M  V30 20921 O 1918.72 1.90005 0.174014 0
M  V30 20922 C 1915.86 3.44786 -0.147212 0
M  V30 20923 C 1914.97 4.14492 -1.21738 0
M  V30 20924 C 1914.11 5.27772 -0.602519 0
M  V30 20925 C 1913.15 5.89321 -1.65431 0
M  V30 20926 N 1912.28 6.9404 -1.0608 0
M  V30 20927 H 1917.12 2.49646 -1.6273 0
M  V30 20928 H 1914.66 1.22585 -0.813108 0
M  V30 20929 H 1916.62 4.16692 0.205719 0
M  V30 20930 H 1915.25 3.14712 0.718077 0
M  V30 20931 H 1914.3 3.40914 -1.68766 0
M  V30 20932 H 1915.61 4.56325 -2.01417 0
M  V30 20933 H 1914.77 6.06376 -0.198177 0
M  V30 20934 H 1913.51 4.87177 0.225868 0
M  V30 20935 H 1912.51 5.09415 -2.06824 0
M  V30 20936 H 1913.74 6.3199 -2.48528 0
M  V30 20937 H 1911.68 6.5551 -0.253616 0
M  V30 20938 H 1911.6 7.34391 -1.79461 0
M  V30 20939 H 1912.87 7.76506 -0.682517 0
M  V30 20940 N 1917.1 0.876467 1.3098 0
M  V30 20941 C 1918.34 0.489671 1.96078 0
M  V30 20942 C 1918.66 -0.962603 1.69585 0
M  V30 20943 O 1917.93 -1.67568 1.01478 0
M  V30 20944 H 1916.51 0.178091 0.72546 0
M  V30 20945 H 1919.18 1.11768 1.59668 0
M  V30 20946 H 1918.27 0.652822 3.05196 0
M  V30 20947 N 1918.57 -1.44173 0.636557 0
M  V30 20948 C 1919.52 -2.30708 -0.0651156 0
M  V30 20949 C 1920.49 -1.43795 -0.831389 0
M  V30 20950 O 1921.68 -1.7269 -0.81134 0
M  V30 20951 C 1918.82 -3.2915 -1.03703 0
M  V30 20952 C 1917.93 -4.31164 -0.268603 0
M  V30 20953 C 1917.06 -5.16696 -1.23282 0
M  V30 20954 C 1916.1 -6.10415 -0.453864 0
M  V30 20955 N 1915.24 -6.88628 -1.36881 0
M  V30 20956 H 1920.08 -2.90167 0.678744 0
M  V30 20957 H 1917.62 -1.42961 0.346492 0
M  V30 20958 H 1919.57 -3.84717 -1.61395 0
M  V30 20959 H 1918.2 -2.71379 -1.74795 0
M  V30 20960 H 1917.26 -3.78026 0.424338 0
M  V30 20961 H 1918.57 -4.97655 0.337844 0
M  V30 20962 H 1917.72 -5.76807 -1.88091 0
M  V30 20963 H 1916.46 -4.50292 -1.87318 0
M  V30 20964 H 1915.47 -5.49408 0.207683 0
M  V30 20965 H 1916.69 -6.78856 0.181863 0
M  V30 20966 H 1914.64 -6.24887 -1.99629 0
M  V30 20967 H 1914.55 -7.51578 -0.816523 0
M  V30 20968 H 1915.82 -7.53258 -2.00558 0
M  V30 20969 N 1920.05 -0.377435 -1.53014 0
M  V30 20970 C 1921.3 0.209712 -2.00607 0
M  V30 20971 C 1921.61 1.48891 -1.2685 0
M  V30 20972 O 1922.82 2.15538 -1.65093 0
M  V30 20973 C 1921.28 0.424271 -3.5739 0
M  V30 20974 C 1920.88 -0.840982 -4.40036 0
M  V30 20975 C 1922.63 0.968428 -4.13306 0
M  V30 20976 C 1920.53 -0.595355 -5.88396 0
M  V30 20977 H 1919.46 0.0821436 -0.749512 0
M  V30 20978 H 1922.12 -0.498005 -1.76613 0
M  V30 20979 H 1920.5 1.19354 -3.77585 0
M  V30 20980 H 1921.67 -1.61396 -4.31611 0
M  V30 20981 H 1919.99 -1.30922 -3.95283 0
M  V30 20982 H 1922.58 1.16771 -5.21794 0
M  V30 20983 H 1922.93 1.93405 -3.68647 0
M  V30 20984 H 1923.46 0.259025 -3.96956 0
M  V30 20985 H 1920.2 -1.53164 -6.37355 0
M  V30 20986 H 1919.72 0.138904 -5.99639 0
M  V30 20987 H 1921.4 -0.225366 -6.46607 0
M  V30 20988 N 1921.53 1.57237 -0.106922 0
M  V30 20989 C 1922.46 2.11718 0.877968 0
M  V30 20990 C 1923.48 1.0571 1.23812 0
M  V30 20991 O 1924.66 1.3312 1.18917 0
M  V30 20992 C 1921.76 2.59182 2.18352 0
M  V30 20993 C 1920.94 3.89156 1.99691 0
M  V30 20994 C 1920 4.22344 3.13866 0
M  V30 20995 O 1919.02 4.91367 2.87309 0
M  V30 20996 N 1920.22 3.78694 4.39967 0
M  V30 20997 H 1922.99 2.96846 0.412584 0
M  V30 20998 H 1920.55 1.61713 0.0778505 0
M  V30 20999 H 1922.54 2.78423 2.93706 0
M  V30 21000 H 1921.11 1.78999 2.56277 0
M  V30 21001 H 1920.33 3.78945 1.086 0
M  V30 21002 H 1921.62 4.74165 1.84514 0
M  V30 21003 H 1921.02 3.23 4.64422 0
M  V30 21004 H 1919.58 4.03067 5.12231 0
M  V30 21005 N 1923.01 -0.166818 1.56715 0
M  V30 21006 C 1924.26 -0.882715 1.82248 0
M  V30 21007 C 1924.58 -1.82049 0.684716 0
M  V30 21008 O 1923.84 -1.92937 -0.327717 0
M  V30 21009 C 1924.14 -1.70734 3.13982 0
M  V30 21010 C 1923.8 -0.918095 4.41454 0
M  V30 21011 C 1922.47 -0.700286 4.76077 0
M  V30 21012 C 1924.82 -0.364791 5.19922 0
M  V30 21013 C 1922.15 0.081855 5.86643 0
M  V30 21014 C 1924.5 0.404286 6.31307 0
M  V30 21015 C 1923.16 0.632854 6.64493 0
M  V30 21016 H 1922.43 -0.323008 0.666893 0
M  V30 21017 H 1925.08 -0.147401 1.90932 0
M  V30 21018 H 1923.38 -2.51218 3.0066 0
M  V30 21019 H 1925.08 -2.26437 3.30949 0
M  V30 21020 H 1921.67 -1.0979 4.14299 0
M  V30 21021 H 1925.85 -0.520394 4.93564 0
M  V30 21022 H 1921.11 0.268637 6.1081 0
M  V30 21023 H 1925.28 0.840259 6.91312 0
M  V30 21024 H 1922.91 1.24079 7.50006 0
M  V30 21025 N 1924.49 -1.51463 -0.435524 0
M  V30 21026 C 1925.43 -1.73484 -1.54939 0
M  V30 21027 C 1926.43 -0.601197 -1.58373 0
M  V30 21028 O 1927.63 -0.782622 -1.62096 0
M  V30 21029 H 1924.01 -0.54818 -0.514784 0
M  V30 21030 H 1925.98 -2.66851 -1.3354 0
M  V30 21031 C 1924.73 -1.87866 -2.92578 0
M  V30 21032 H 1924.05 -2.74503 -2.90668 0
M  V30 21033 H 1925.49 -2.07285 -3.69877 0
M  V30 21034 C 1923.95 -0.638928 -3.30786 0
M  V30 21035 O 1924.48 0.205561 -4.01174 0
M  V30 21036 N 1922.69 -0.48249 -2.86567 0
M  V30 21037 H 1922.23 -1.17078 -2.29457 0
M  V30 21038 H 1922.19 0.345753 -3.12493 0
M  V30 21039 N 1925.96 0.691085 -1.4164 0
M  V30 21040 C 1926.91 1.82625 -1.44051 0
M  V30 21041 C 1927.91 1.66388 -0.318032 0
M  V30 21042 O 1929.11 1.73194 -0.490276 0
M  V30 21043 H 1925.49 0.601889 -0.450815 0
M  V30 21044 H 1927.46 1.77709 -2.39713 0
M  V30 21045 C 1926.21 3.20676 -1.34395 0
M  V30 21046 H 1925.53 3.3379 -2.20056 0
M  V30 21047 H 1926.97 4.0017 -1.40143 0
M  V30 21048 C 1925.43 3.36852 -0.0568027 0
M  V30 21049 O 1925.96 3.91562 0.896762 0
M  V30 21050 N 1924.17 2.90593 0.0207452 0
M  V30 21051 H 1923.71 2.46257 -0.755995 0
M  V30 21052 H 1923.67 3.01794 0.88136 0
M  V30 21053 N 1927.44 1.27542 0.925789 0
M  V30 21054 C 1928.67 1.16641 1.70524 0
M  V30 21055 C 1929.08 -0.279149 1.87129 0
M  V30 21056 O 1928.42 -1.20171 1.38941 0
M  V30 21057 C 1928.49 1.77978 3.12352 0
M  V30 21058 C 1928.15 3.27168 3.19077 0
M  V30 21059 C 1929.15 4.23775 3.01182 0
M  V30 21060 C 1926.83 3.67911 3.41975 0
M  V30 21061 C 1928.83 5.59102 3.06077 0
M  V30 21062 C 1926.51 5.03367 3.46504 0
M  V30 21063 C 1927.51 5.98773 3.28573 0
M  V30 21064 O 1927.2 7.3176 3.3284 0
M  V30 21065 H 1926.93 0.406366 0.540225 0
M  V30 21066 H 1929.48 1.68956 1.16803 0
M  V30 21067 H 1927.71 1.20143 3.67563 0
M  V30 21068 H 1929.4 1.61765 3.72273 0
M  V30 21069 H 1930.17 3.93635 2.83331 0
M  V30 21070 H 1926.05 2.94125 3.54981 0
M  V30 21071 H 1929.59 6.33547 2.92 0
M  V30 21072 H 1925.49 5.33162 3.63879 0
M  V30 21073 H 1926.26 7.40233 3.49282 0
M  V30 21074 N 1928.92 -1.13255 1.09595 0
M  V30 21075 C 1929.85 -2.18416 0.69477 0
M  V30 21076 C 1930.87 -1.60641 -0.264232 0
M  V30 21077 O 1932.05 -1.7843 -0.0500201 0
M  V30 21078 C 1929.15 -3.389 0.00330039 0
M  V30 21079 C 1928.33 -4.26181 0.984281 0
M  V30 21080 C 1927.39 -5.2519 0.325898 0
M  V30 21081 O 1926.41 -5.60804 0.974057 0
M  V30 21082 N 1927.61 -5.73175 -0.919261 0
M  V30 21083 H 1930.38 -2.53448 1.59951 0
M  V30 21084 H 1927.94 -1.28594 0.983625 0
M  V30 21085 H 1929.93 -4.02208 -0.4484 0
M  V30 21086 H 1928.5 -3.02091 -0.803713 0
M  V30 21087 H 1927.72 -3.59622 1.61449 0
M  V30 21088 H 1929.01 -4.81351 1.64861 0
M  V30 21089 H 1928.41 -5.46391 -1.46538 0
M  V30 21090 H 1926.97 -6.38413 -1.31425 0
M  V30 21091 N 1930.4 -0.883401 -1.30514 0
M  V30 21092 C 1931.64 -0.501795 -1.96494 0
M  V30 21093 C 1931.98 0.946294 -1.69585 0
M  V30 21094 O 1931.25 1.66842 -0.999705 0
M  V30 21095 C 1931.54 -0.775405 -3.51653 0
M  V30 21096 C 1931.39 -2.27401 -3.88084 0
M  V30 21097 C 1932.71 -0.250854 -4.39384 0
M  V30 21098 H 1929.83 -0.183786 -0.713717 0
M  V30 21099 H 1932.47 -1.1071 -1.54412 0
M  V30 21100 H 1930.62 -0.260217 -3.87628 0
M  V30 21101 H 1932.29 -2.85748 -3.62141 0
M  V30 21102 H 1930.53 -2.74128 -3.36209 0
M  V30 21103 H 1931.2 -2.41606 -4.96317 0
M  V30 21104 H 1933.68 -0.691785 -4.10309 0
M  V30 21105 H 1932.56 -0.471637 -5.4687 0
M  V30 21106 H 1932.82 0.847835 -4.33894 0
M  V30 21107 N 1931.88 1.43833 -0.644194 0
M  V30 21108 C 1933.29 1.56542 -0.310952 0
M  V30 21109 C 1933.49 1.62946 1.18536 0
M  V30 21110 O 1932.55 1.57961 1.96989 0
M  V30 21111 C 1933.86 2.83074 -1.01437 0
M  V30 21112 C 1935.41 2.96805 -0.993759 0
M  V30 21113 C 1935.88 4.26158 -1.6779 0
M  V30 21114 N 1937.38 4.33002 -1.64511 0
M  V30 21115 C 1938.11 5.31837 -2.14328 0
M  V30 21116 N 1937.61 6.37003 -2.72394 0
M  V30 21117 N 1939.4 5.23431 -2.04881 0
M  V30 21118 H 1931.55 1.37919 -1.61531 0
M  V30 21119 H 1933.81 0.661778 -0.678789 0
M  V30 21120 H 1933.52 2.84372 -2.06943 0
M  V30 21121 H 1933.39 3.73016 -0.560273 0
M  V30 21122 H 1935.78 2.95053 0.0528599 0
M  V30 21123 H 1935.86 2.08177 -1.48647 0
M  V30 21124 H 1935.51 4.28671 -2.72404 0
M  V30 21125 H 1935.44 5.13667 -1.15992 0
M  V30 21126 H 1937.93 3.57621 -1.22129 0
M  V30 21127 H 1938.24 7.08724 -3.08107 0
M  V30 21128 H 1936.58 6.37652 -2.76451 0
M  V30 21129 H 1939.78 4.40186 -1.59229 0
M  V30 21130 H 1939.95 6.00301 -2.44015 0
M  V30 21131 N 1933.35 0.385544 1.52811 0
M  V30 21132 C 1934.58 -0.197738 2.05652 0
M  V30 21133 C 1934.99 -1.41373 1.2574 0
M  V30 21134 O 1934.34 -1.81297 0.296184 0
M  V30 21135 C 1934.4 -0.636031 3.53829 0
M  V30 21136 C 1934.06 0.465981 4.54618 0
M  V30 21137 C 1935.06 1.3222 5.02806 0
M  V30 21138 C 1932.74 0.631936 4.98309 0
M  V30 21139 C 1934.74 2.32954 5.93305 0
M  V30 21140 C 1932.42 1.64261 5.8861 0
M  V30 21141 C 1933.42 2.48983 6.36 0
M  V30 21142 O 1933.11 3.48324 7.24518 0
M  V30 21143 H 1932.84 -0.0343646 0.675126 0
M  V30 21144 H 1935.4 0.548149 1.97951 0
M  V30 21145 H 1933.63 -1.43384 3.59135 0
M  V30 21146 H 1935.32 -1.14456 3.89429 0
M  V30 21147 H 1936.08 1.20528 4.69785 0
M  V30 21148 H 1931.96 -0.0177815 4.60997 0
M  V30 21149 H 1935.5 2.99118 6.30218 0
M  V30 21150 H 1931.4 1.75993 6.21045 0
M  V30 21151 H 1932.17 3.44288 7.42569 0
M  V30 21152 N 1934.83 -1.57178 0.115259 0
M  V30 21153 C 1936.25 -1.57765 -0.241345 0
M  V30 21154 C 1936.45 -1.12775 -1.66985 0
M  V30 21155 O 1935.5 -0.813419 -2.39039 0
M  V30 21156 C 1936.82 -3.00698 -0.0114291 0
M  V30 21157 C 1938.37 -3.12904 -0.0776187 0
M  V30 21158 C 1938.84 -4.57831 0.124557 0
M  V30 21159 N 1940.33 -4.63146 0.0703998 0
M  V30 21160 C 1941.07 -5.73045 0.20179 0
M  V30 21161 N 1940.56 -6.91706 0.389143 0
M  V30 21162 N 1942.36 -5.61922 0.141629 0
M  V30 21163 H 1934.51 -1.84725 1.04836 0
M  V30 21164 H 1936.77 -0.853542 0.412517 0
M  V30 21165 H 1936.48 -3.37886 0.975995 0
M  V30 21166 H 1936.35 -3.69771 -0.744947 0
M  V30 21167 H 1938.74 -2.75575 -1.05556 0
M  V30 21168 H 1938.82 -2.46382 0.687719 0
M  V30 21169 H 1938.46 -4.95857 1.09946 0
M  V30 21170 H 1938.39 -5.22439 -0.660721 0
M  V30 21171 H 1940.88 -3.77833 -0.0710442 0
M  V30 21172 H 1941.2 -7.71306 0.480365 0
M  V30 21173 H 1939.54 -6.93699 0.425069 0
M  V30 21174 H 1942.73 -4.681 -0.00374873 0
M  V30 21175 H 1942.9 -6.47527 0.24747 0
M  V30 21176 N 1936.31 0.158505 -1.56801 0
M  V30 21177 C 1937.72 0.71972 -1.7227 0
M  V30 21178 C 1938.07 1.822 -0.72784 0
M  V30 21179 O 1937.2 2.1613 0.108043 0
M  V30 21180 C 1937.79 1.31231 -3.12352 0
M  V30 21181 C 1936.35 1.82021 -3.29462 0
M  V30 21182 C 1935.5 0.704157 -2.68211 0
M  V30 21183 H 1938.45 -0.0670395 -1.58558 0
M  V30 21184 H 1938.47 2.18208 -3.11714 0
M  V30 21185 H 1937.98 0.509823 -3.84737 0
M  V30 21186 H 1936.08 2.64873 -2.62056 0
M  V30 21187 H 1936.2 1.95684 -4.37315 0
M  V30 21188 H 1934.56 1.12787 -2.28366 0
M  V30 21189 H 1935.34 -0.0866929 -3.43191 0
M  V30 21190 N 1937.79 1.51692 0.427485 0
M  V30 21191 C 1938.7 1.76576 1.5446 0
M  V30 21192 C 1939.72 0.650421 1.61386 0
M  V30 21193 O 1940.89 0.933787 1.78444 0
M  V30 21194 C 1937.96 1.89451 2.90361 0
M  V30 21195 C 1937.02 3.13326 2.93471 0
M  V30 21196 C 1936.25 3.25577 4.22889 0
M  V30 21197 O 1936.47 2.43528 5.15801 0
M  V30 21198 O 1935.41 4.18618 4.32484 0
M  V30 21199 H 1939.23 2.7136 1.36373 0
M  V30 21200 H 1936.82 1.36312 0.611496 0
M  V30 21201 H 1938.7 1.99848 3.70997 0
M  V30 21202 H 1937.38 0.978556 3.08555 0
M  V30 21203 H 1936.28 3.08401 2.11754 0
M  V30 21204 H 1937.62 4.04643 2.80223 0
M  V30 21205 N 1939.27 -0.683564 1.42004 0
M  V30 21206 C 1940.2 -1.8095 1.47578 0
M  V30 21207 C 1941.18 -1.66804 0.333208 0
M  V30 21208 O 1942.36 -1.86357 0.546314 0
M  V30 21209 C 1939.49 -3.19182 1.36895 0
M  V30 21210 C 1938.45 -3.4805 2.49089 0
M  V30 21211 C 1937.77 -4.85764 2.23467 0
M  V30 21212 C 1939.07 -3.4582 3.91415 0
M  V30 21213 H 1940.77 -1.76543 2.41812 0
M  V30 21214 H 1938.31 -0.84794 1.16387 0
M  V30 21215 H 1940.27 -3.97674 1.39404 0
M  V30 21216 H 1938.99 -3.24245 0.391513 0
M  V30 21217 H 1937.65 -2.71915 2.45882 0
M  V30 21218 H 1937.3 -4.87467 1.24037 0
M  V30 21219 H 1937 -5.06043 2.98654 0
M  V30 21220 H 1938.52 -5.66551 2.27711 0
M  V30 21221 H 1939.94 -4.14297 3.96272 0
M  V30 21222 H 1938.33 -3.77633 4.66383 0
M  V30 21223 H 1939.4 -2.4456 4.1871 0
M  V30 21224 N 1940.75 -1.28031 -0.919012 0
M  V30 21225 C 1942.02 -1.05588 -1.64653 0
M  V30 21226 C 1942.4 0.406513 -2.07149 0
M  V30 21227 O 1941.75 1.39153 -1.81242 0
M  V30 21228 C 1941.96 -2.0256 -2.84202 0
M  V30 21229 C 1943.31 -2.32414 -3.55343 0
M  V30 21230 O 1944.33 -2.00602 -2.94342 0
M  V30 21231 O 1943.19 -2.86683 -4.65269 0
M  V30 21232 H 1940.29 -0.40316 -0.722074 0
M  V30 21233 H 1942.83 -1.3933 -0.968781 0
M  V30 21234 H 1941.6 -3.01146 -2.49853 0
M  V30 21235 H 1941.23 -1.69433 -3.59692 0
M  V30 21236 N 1942.22 1.12672 -1.10194 0
M  V30 21237 C 1943.15 2.20422 -0.770492 0
M  V30 21238 C 1944.13 1.68172 0.25541 0
M  V30 21239 O 1945.32 1.93818 0.121728 0
M  V30 21240 C 1942.45 3.4673 -0.198815 0
M  V30 21241 C 1941.4 4.12118 -1.15512 0
M  V30 21242 C 1940.73 5.32847 -0.444768 0
M  V30 21243 C 1942.03 4.58542 -2.50073 0
M  V30 21244 H 1943.72 2.48404 -1.67141 0
M  V30 21245 H 1941.27 1.19392 -0.805077 0
M  V30 21246 H 1943.22 4.21376 0.0451853 0
M  V30 21247 H 1941.95 3.18168 0.737331 0
M  V30 21248 H 1940.61 3.3945 -1.38453 0
M  V30 21249 H 1940.25 5.00551 0.49577 0
M  V30 21250 H 1939.95 5.77543 -1.08247 0
M  V30 21251 H 1941.48 6.10241 -0.209255 0
M  V30 21252 H 1942.89 5.24572 -2.31294 0
M  V30 21253 H 1941.29 5.14007 -3.09704 0
M  V30 21254 H 1942.36 3.72654 -3.10254 0
M  V30 21255 N 1943.7 0.89031 1.30043 0
M  V30 21256 C 1944.95 0.512208 1.96225 0
M  V30 21257 C 1945.28 -0.937287 1.70084 0
M  V30 21258 O 1944.56 -1.66309 1.00854 0
M  V30 21259 C 1944.84 0.794043 3.51236 0
M  V30 21260 C 1944.69 2.29456 3.86872 0
M  V30 21261 C 1946.01 0.274152 4.39245 0
M  V30 21262 H 1943.13 0.187568 0.712732 0
M  V30 21263 H 1945.77 1.11528 1.53823 0
M  V30 21264 H 1943.92 0.28077 3.87484 0
M  V30 21265 H 1945.59 2.87665 3.6062 0
M  V30 21266 H 1943.84 2.75907 3.34751 0
M  V30 21267 H 1944.51 2.44235 4.95029 0
M  V30 21268 H 1946.98 0.713535 4.09936 0
M  V30 21269 H 1945.86 0.500633 5.46612 0
M  V30 21270 H 1946.12 -0.824812 4.34338 0
M  V30 21271 N 1945.18 -1.43489 0.651812 0
M  V30 21272 C 1946.11 -2.33484 -0.0271093 0
M  V30 21273 C 1947.09 -1.4939 -0.813427 0
M  V30 21274 O 1948.28 -1.78058 -0.775186 0
M  V30 21275 C 1945.41 -3.32737 -0.995143 0
M  V30 21276 C 1944.36 -4.26809 -0.319036 0
M  V30 21277 C 1943.69 -5.1609 -1.39842 0
M  V30 21278 C 1944.99 -5.16326 0.787692 0
M  V30 21279 H 1946.68 -2.90503 0.724441 0
M  V30 21280 H 1944.23 -1.39686 0.349826 0
M  V30 21281 H 1946.18 -3.94593 -1.479 0
M  V30 21282 H 1944.9 -2.73972 -1.77784 0
M  V30 21283 H 1943.56 -3.66316 0.144366 0
M  V30 21284 H 1943.21 -4.53664 -2.17251 0
M  V30 21285 H 1942.91 -5.79848 -0.951292 0
M  V30 21286 H 1944.43 -5.80819 -1.88367 0
M  V30 21287 H 1945.85 -5.71999 0.386053 0
M  V30 21288 H 1944.24 -5.88798 1.1592 0
M  V30 21289 H 1945.31 -4.56099 1.64626 0
M  V30 21290 N 1946.66 -0.393643 -1.52605 0
M  V30 21291 C 1948.07 -0.0437985 -1.5954 0
M  V30 21292 C 1948.27 1.44203 -1.4074 0
M  V30 21293 O 1947.33 2.20707 -1.22657 0
M  V30 21294 C 1948.64 -0.524864 -2.96084 0
M  V30 21295 C 1950.19 -0.481497 -3.09274 0
M  V30 21296 C 1950.67 -0.938821 -4.48275 0
M  V30 21297 N 1952.16 -0.895009 -4.54471 0
M  V30 21298 C 1952.89 -1.22023 -5.60266 0
M  V30 21299 N 1952.39 -1.61614 -6.73686 0
M  V30 21300 N 1954.18 -1.1412 -5.50393 0
M  V30 21301 H 1946.33 -1.36091 -1.63074 0
M  V30 21302 H 1948.59 -0.558085 -0.766319 0
M  V30 21303 H 1948.3 -1.56277 -3.15072 0
M  V30 21304 H 1948.17 0.0737526 -3.77128 0
M  V30 21305 H 1950.56 0.547333 -2.8998 0
M  V30 21306 H 1950.64 -1.11597 -2.30173 0
M  V30 21307 H 1950.29 -1.9659 -4.6831 0
M  V30 21308 H 1950.22 -0.281313 -5.25848 0
M  V30 21309 H 1952.71 -0.603728 -3.73046 0
M  V30 21310 H 1953.02 -1.84782 -7.50384 0
M  V30 21311 H 1951.37 -1.65504 -6.75006 0
M  V30 21312 H 1954.56 -0.83088 -4.60667 0
M  V30 21313 H 1954.73 -1.39797 -6.32741 0
M  V30 21314 N 1948.14 1.57115 -0.123593 0
M  V30 21315 C 1949.38 1.94966 0.532239 0
M  V30 21316 C 1949.7 1.00808 1.66922 0
M  V30 21317 O 1948.97 0.0652202 1.95791 0
M  V30 21318 H 1947.55 0.719838 0.199607 0
M  V30 21319 H 1950.22 1.93936 -0.19361 0
M  V30 21320 H 1949.31 2.98115 0.923802 0
M  V30 21321 N 1949.61 -0.150187 1.56883 0
M  V30 21322 C 1950.86 -0.861749 1.82364 0
M  V30 21323 C 1951.18 -1.82479 0.704319 0
M  V30 21324 O 1952.38 -2.58027 0.844649 0
M  V30 21325 C 1950.84 -1.58305 3.23214 0
M  V30 21326 C 1950.45 -0.662577 4.43073 0
M  V30 21327 C 1952.19 -2.28159 3.57972 0
M  V30 21328 C 1950.1 -1.38532 5.74946 0
M  V30 21329 H 1949.03 -0.325546 0.6801 0
M  V30 21330 H 1951.68 -0.114505 1.83142 0
M  V30 21331 H 1950.06 -2.37581 3.16814 0
M  V30 21332 H 1951.23 0.0947281 4.60703 0
M  V30 21333 H 1949.55 -0.0726217 4.16337 0
M  V30 21334 H 1952.15 -2.82865 4.53753 0
M  V30 21335 H 1952.49 -3.04501 2.83874 0
M  V30 21336 H 1953.02 -1.55805 3.66019 0
M  V30 21337 H 1949.76 -0.663808 6.5213 0
M  V30 21338 H 1949.28 -2.11542 5.61258 0
M  V30 21339 H 1950.96 -1.9271 6.17634 0
M  V30 21340 N 1951.09 -1.51916 -0.419434 0
M  V30 21341 C 1952.32 -1.69302 -1.1893 0
M  V30 21342 C 1952.74 -0.398024 -1.84557 0
M  V30 21343 O 1952.09 0.625083 -1.71461 0
M  V30 21344 C 1952.14 -2.82139 -2.26009 0
M  V30 21345 O 1951.86 -4.06623 -1.63064 0
M  V30 21346 C 1953.37 -3.10947 -3.15954 0
M  V30 21347 H 1950.59 -0.567657 -0.357781 0
M  V30 21348 H 1953.13 -1.98424 -0.494807 0
M  V30 21349 H 1951.28 -2.55565 -2.91144 0
M  V30 21350 H 1951.7 -4.69423 -2.33971 0
M  V30 21351 H 1953.17 -3.93438 -3.87183 0
M  V30 21352 H 1953.65 -2.24078 -3.77738 0
M  V30 21353 H 1954.26 -3.39246 -2.56499 0
M  V30 21354 N 1952.57 0.676023 -1.42365 0
M  V30 21355 C 1953.81 1.44811 -1.44253 0
M  V30 21356 C 1954.17 1.91917 -0.0565699 0
M  V30 21357 O 1955.38 2.68754 0.0498119 0
M  V30 21358 C 1953.65 2.61392 -2.4374 0
M  V30 21359 S 1955.21 3.50257 -2.6432 0
M  V30 21360 H 1952.02 0.494609 -0.510767 0
M  V30 21361 H 1954.63 0.787035 -1.78958 0
M  V30 21362 H 1953.33 2.25022 -3.4321 0
M  V30 21363 H 1952.86 3.32373 -2.10456 0
M  V30 21364 H 1954.88 4.57326 -1.92529 0
M  V30 21365 N 1954.05 1.28517 0.912209 0
M  V30 21366 C 1955.33 1.0646 1.6409 0
M  V30 21367 C 1955.71 -0.395521 2.07362 0
M  V30 21368 O 1955.05 -1.3819 1.81978 0
M  V30 21369 C 1955.26 2.04064 2.83123 0
M  V30 21370 C 1956.61 2.34295 3.54106 0
M  V30 21371 O 1957.64 2.0216 2.93274 0
M  V30 21372 O 1956.49 2.89146 4.63742 0
M  V30 21373 H 1953.59 0.406984 0.719926 0
M  V30 21374 H 1956.13 1.39841 0.961378 0
M  V30 21375 H 1954.91 3.02467 2.48253 0
M  V30 21376 H 1954.53 1.71338 3.58788 0
M  V30 21377 N 1955.53 -1.12086 1.1079 0
M  V30 21378 C 1956.78 -1.83036 0.847387 0
M  V30 21379 C 1957.09 -1.85209 -0.629051 0
M  V30 21380 O 1958.29 -2.52191 -1.00559 0
M  V30 21381 C 1956.75 -3.28682 1.46615 0
M  V30 21382 C 1956.36 -3.34858 2.97614 0
M  V30 21383 C 1958.1 -4.04578 1.28519 0
M  V30 21384 C 1956.01 -4.7486 3.52508 0
M  V30 21385 H 1954.94 -0.685806 0.313347 0
M  V30 21386 H 1957.59 -1.2618 1.33233 0
M  V30 21387 H 1955.97 -3.85429 0.908883 0
M  V30 21388 H 1957.15 -2.8803 3.59688 0
M  V30 21389 H 1955.46 -2.72438 3.14907 0
M  V30 21390 H 1958.06 -5.07962 1.6697 0
M  V30 21391 H 1958.4 -4.1568 0.227105 0
M  V30 21392 H 1958.93 -3.542 1.81073 0
M  V30 21393 H 1955.67 -4.68954 4.57999 0
M  V30 21394 H 1955.19 -5.22125 2.95203 0
M  V30 21395 H 1956.87 -5.43807 3.50546 0
M  V30 21396 N 1957 -0.897194 -1.29569 0
M  V30 21397 C 1958.25 -0.520803 -1.95274 0
M  V30 21398 C 1958.57 0.935501 -1.71095 0
M  V30 21399 O 1957.84 1.65932 -1.04131 0
M  V30 21400 H 1956.42 -0.18961 -0.722535 0
M  V30 21401 H 1959.09 -1.14294 -1.5787 0
M  V30 21402 H 1958.18 -0.701293 -3.04119 0
M  V30 21403 N 1958.48 1.43142 -0.659413 0
M  V30 21404 C 1959.71 2.06603 -0.181642 0
M  V30 21405 C 1960.13 1.49137 1.14629 0
M  V30 21406 O 1959.49 0.603739 1.70952 0
M  V30 21407 C 1959.54 3.6043 -0.110662 0
M  V30 21408 O 1958.64 4.01884 0.925344 0
M  V30 21409 H 1957.98 0.656771 -0.097712 0
M  V30 21410 H 1960.51 1.83541 -0.904086 0
M  V30 21411 H 1960.52 4.07939 0.0706089 0
M  V30 21412 H 1959.2 4.01632 -1.08002 0
M  V30 21413 H 1957.78 3.65954 0.716361 0
M  V30 21414 N 1959.96 0.40173 1.52394 0
M  V30 21415 C 1960.89 -0.4718 2.2327 0
M  V30 21416 C 1961.87 -1.05401 1.23812 0
M  V30 21417 O 1963.06 -1.10329 1.52839 0
M  V30 21418 C 1960.18 -1.6542 2.95557 0
M  V30 21419 C 1959.23 -1.19607 4.09385 0
M  V30 21420 S 1960.06 -0.16732 5.35239 0
M  V30 21421 C 1961.22 -1.35521 6.11052 0
M  V30 21422 H 1961.45 0.130025 2.97016 0
M  V30 21423 H 1958.98 0.185984 1.53276 0
M  V30 21424 H 1960.94 -2.33224 3.37812 0
M  V30 21425 H 1959.6 -2.22735 2.21468 0
M  V30 21426 H 1958.8 -2.07925 4.59111 0
M  V30 21427 H 1958.4 -0.596775 3.69208 0
M  V30 21428 H 1960.69 -2.28013 6.37978 0
M  V30 21429 H 1961.63 -0.898632 7.02375 0
M  V30 21430 H 1962.04 -1.57765 5.42006 0
M  V30 21431 N 1961.44 -1.57047 0.131923 0
M  V30 21432 C 1962.35 -2.19545 -0.826862 0
M  V30 21433 C 1963.36 -1.17532 -1.28305 0
M  V30 21434 O 1964.54 -1.50052 -1.34337 0
M  V30 21435 C 1961.61 -2.79284 -2.0543 0
M  V30 21436 C 1960.67 -3.96375 -1.64879 0
M  V30 21437 C 1959.9 -4.53256 -2.81771 0
M  V30 21438 O 1960.12 -4.09022 -3.97564 0
M  V30 21439 O 1959.06 -5.43748 -2.58111 0
M  V30 21440 H 1962.88 -3.01957 -0.324926 0
M  V30 21441 H 1960.47 -1.49102 -0.0943495 0
M  V30 21442 H 1962.35 -3.17312 -2.77292 0
M  V30 21443 H 1961.02 -1.99895 -2.54605 0
M  V30 21444 H 1959.93 -3.63092 -0.900848 0
M  V30 21445 H 1961.26 -4.77238 -1.20434 0
M  V30 21446 N 1962.92 0.141865 -1.5696 0
M  V30 21447 C 1963.86 1.175 -1.98651 0
M  V30 21448 C 1964.83 1.42409 -0.854918 0
M  V30 21449 O 1966.02 1.54658 -1.11738 0
M  V30 21450 C 1963.16 2.50222 -2.37661 0
M  V30 21451 C 1962.27 2.32443 -3.64135 0
M  V30 21452 C 1961.41 3.58236 -3.92225 0
M  V30 21453 C 1960.45 3.35516 -5.11952 0
M  V30 21454 N 1959.58 4.53452 -5.36027 0
M  V30 21455 H 1964.42 0.812473 -2.8671 0
M  V30 21456 H 1961.96 0.389721 -1.41844 0
M  V30 21457 H 1963.92 3.27616 -2.58309 0
M  V30 21458 H 1962.55 2.84412 -1.52675 0
M  V30 21459 H 1961.6 1.46078 -3.51234 0
M  V30 21460 H 1962.91 2.11618 -4.51685 0
M  V30 21461 H 1962.07 4.44057 -4.13399 0
M  V30 21462 H 1960.8 3.8207 -3.03106 0
M  V30 21463 H 1959.81 2.48084 -4.90647 0
M  V30 21464 H 1961.03 3.13075 -6.02628 0
M  V30 21465 H 1958.98 4.7745 -4.49864 0
M  V30 21466 H 1958.9 4.35648 -6.17856 0
M  V30 21467 H 1960.17 5.40472 -5.61703 0
M  V30 21468 N 1964.39 1.52136 0.411372 0
M  V30 21469 C 1965.64 1.65314 1.15561 0
M  V30 21470 C 1965.96 0.38805 1.91712 0
M  V30 21471 O 1967.16 0.399588 2.68543 0
M  V30 21472 C 1965.62 2.92059 2.10308 0
M  V30 21473 C 1965.23 4.25667 1.39684 0
M  V30 21474 C 1966.97 3.14599 2.85005 0
M  V30 21475 C 1964.88 5.43538 2.33067 0
M  V30 21476 H 1963.81 0.615812 0.435077 0
M  V30 21477 H 1966.46 1.78622 0.420271 0
M  V30 21478 H 1964.84 2.72444 2.87385 0
M  V30 21479 H 1966.01 4.55757 0.679869 0
M  V30 21480 H 1964.33 4.09212 0.77038 0
M  V30 21481 H 1966.93 3.99839 3.55011 0
M  V30 21482 H 1967.27 2.28739 3.47828 0
M  V30 21483 H 1967.8 3.34676 2.15028 0
M  V30 21484 H 1964.54 6.31738 1.74894 0
M  V30 21485 H 1964.06 5.1779 3.02744 0
M  V30 21486 H 1965.74 5.76527 2.93641 0
M  V30 21487 N 1965.87 -0.668464 1.42721 0
M  V30 21488 C 1967.12 -1.42567 1.43245 0
M  V30 21489 C 1967.44 -1.9493 0.0521972 0
M  V30 21490 O 1966.71 -1.73469 -0.910231 0
M  V30 21491 H 1965.29 -0.529068 0.527349 0
M  V30 21492 H 1967.95 -0.789428 1.78197 0
M  V30 21493 H 1967.05 -2.27556 2.13599 0
M  V30 21494 N 1967.35 -1.28999 -0.905381 0
M  V30 21495 C 1968.6 -1.16813 -1.65779 0
M  V30 21496 C 1968.93 0.280936 -1.92157 0
M  V30 21497 O 1968.21 1.2035 -1.52794 0
M  V30 21498 C 1968.49 -1.97593 -3.01047 0
M  V30 21499 C 1968.34 -3.50608 -2.8177 0
M  V30 21500 C 1969.66 -1.79788 -4.01702 0
M  V30 21501 H 1966.78 -0.425716 -0.60161 0
M  V30 21502 H 1969.42 -1.58409 -1.04913 0
M  V30 21503 H 1967.57 -1.62246 -3.52999 0
M  V30 21504 H 1969.24 -3.95905 -2.36763 0
M  V30 21505 H 1967.49 -3.75818 -2.16663 0
M  V30 21506 H 1968.16 -4.02396 -3.77865 0
M  V30 21507 H 1970.63 -2.10649 -3.5884 0
M  V30 21508 H 1969.51 -2.38667 -4.94297 0
M  V30 21509 H 1969.77 -0.75156 -4.35665 0
M  V30 21510 N 1968.83 1.11497 -1.11383 0
M  V30 21511 C 1970.08 1.83494 -0.863592 0
M  V30 21512 C 1970.41 1.84395 0.609259 0
M  V30 21513 O 1969.68 1.2966 1.44978 0
M  V30 21514 C 1969.97 3.30701 -1.42509 0
M  V30 21515 C 1969.82 3.38197 -2.96552 0
M  V30 21516 C 1971.14 4.26756 -1.07553 0
M  V30 21517 H 1968.26 0.666209 -0.315173 0
M  V30 21518 H 1970.9 1.30745 -1.37861 0
M  V30 21519 H 1969.05 3.75752 -0.987053 0
M  V30 21520 H 1970.72 3.01709 -3.48955 0
M  V30 21521 H 1968.96 2.78436 -3.3265 0
M  V30 21522 H 1969.64 4.41804 -3.30927 0
M  V30 21523 H 1972.11 3.89882 -1.45367 0
M  V30 21524 H 1970.99 5.28143 -1.49519 0
M  V30 21525 H 1971.25 4.42098 0.0137773 0
M  V30 21526 N 1970.31 0.904053 1.29092 0
M  V30 21527 C 1971.56 0.531152 1.94995 0
M  V30 21528 C 1971.88 -0.926415 1.71588 0
M  V30 21529 O 1971.15 -1.65378 1.0501 0
M  V30 21530 H 1969.73 0.193439 0.721519 0
M  V30 21531 H 1972.39 1.1513 1.57262 0
M  V30 21532 H 1971.48 0.717412 3.03743 0
M  V30 21533 N 1971.79 -1.4279 0.666995 0
M  V30 21534 C 1973.2 -1.56027 0.335817 0
M  V30 21535 C 1973.4 -1.64812 -1.15928 0
M  V30 21536 O 1972.46 -1.61074 -1.94451 0
M  V30 21537 C 1973.77 -2.81425 1.05928 0
M  V30 21538 C 1975.32 -2.95187 1.04085 0
M  V30 21539 C 1975.79 -4.23435 1.74548 0
M  V30 21540 N 1977.28 -4.3033 1.71379 0
M  V30 21541 C 1978.02 -5.2836 2.22762 0
M  V30 21542 N 1977.52 -6.32589 2.82494 0
M  V30 21543 N 1979.31 -5.20106 2.13182 0
M  V30 21544 H 1971.46 -1.35332 1.63704 0
M  V30 21545 H 1973.72 -0.650895 0.689231 0
M  V30 21546 H 1973.43 -2.81044 2.1144 0
M  V30 21547 H 1973.3 -3.72077 0.619546 0
M  V30 21548 H 1975.69 -2.95099 -0.00591289 0
M  V30 21549 H 1975.77 -2.05786 1.5194 0
M  V30 21550 H 1975.41 -4.24283 2.79189 0
M  V30 21551 H 1975.34 -5.11756 1.24149 0
M  V30 21552 H 1977.84 -3.55633 1.27803 0
M  V30 21553 H 1978.15 -7.03733 3.19343 0
M  V30 21554 H 1976.49 -6.33173 2.86561 0
M  V30 21555 H 1979.68 -4.37597 1.66211 0
M  V30 21556 H 1979.86 -5.96343 2.53534 0
M  V30 21557 N 1973.26 -0.409806 -1.52179 0
M  V30 21558 C 1974.49 0.165235 -2.06239 0
M  V30 21559 C 1974.91 1.38804 -1.2798 0
M  V30 21560 O 1974.26 1.79458 -0.331843 0
M  V30 21561 C 1974.31 0.514997 -3.57813 0
M  V30 21562 O 1974.04 -0.659248 -4.33111 0
M  V30 21563 C 1975.54 1.1437 -4.28293 0
M  V30 21564 H 1972.76 0.0200917 -0.670699 0
M  V30 21565 H 1975.3 -0.580955 -1.96074 0
M  V30 21566 H 1973.46 1.21108 -3.67983 0
M  V30 21567 H 1973.87 -0.367126 -5.23214 0
M  V30 21568 H 1975.34 1.33863 -5.35523 0
M  V30 21569 H 1975.82 2.11699 -3.84812 0
M  V30 21570 H 1976.43 0.487795 -4.22493 0
M  V30 21571 N 1974.74 1.56975 -0.14025 0
M  V30 21572 C 1975.99 1.95519 0.51153 0
M  V30 21573 C 1976.31 1.02572 1.65843 0
M  V30 21574 O 1975.58 0.0859828 1.95711 0
M  V30 21575 H 1974.16 0.721914 0.191961 0
M  V30 21576 H 1976.82 1.9372 -0.214169 0
M  V30 21577 H 1975.92 2.99078 0.892131 0
M  V30 21578 N 1976.22 -0.133539 1.57033 0
M  V30 21579 C 1977.18 -1.14845 1.98351 0
M  V30 21580 C 1978.18 -1.3512 0.871734 0
M  V30 21581 O 1979.37 -1.31884 1.13808 0
M  V30 21582 C 1976.5 -2.506 2.31111 0
M  V30 21583 H 1977.7 -0.793667 2.89207 0
M  V30 21584 H 1975.25 -0.377348 1.51677 0
M  V30 21585 H 1975.99 -2.91026 1.43089 0
M  V30 21586 H 1975.77 -2.37242 3.12184 0
M  V30 21587 H 1977.26 -3.23672 2.63868 0
M  V30 21588 N 1977.7 -1.52352 -0.403298 0
M  V30 21589 C 1978.95 -1.66368 -1.14744 0
M  V30 21590 C 1979.27 -0.398899 -1.90876 0
M  V30 21591 O 1978.54 0.586372 -1.86918 0
M  V30 21592 H 1977.12 -0.613226 -0.426571 0
M  V30 21593 H 1979.78 -1.89416 -0.459075 0
M  V30 21594 H 1978.87 -2.50748 -1.85828 0
M  V30 21595 N 1979.18 0.660885 -1.43074 0
M  V30 21596 C 1980.12 1.77404 -1.47637 0
M  V30 21597 C 1981.09 1.62852 -0.326854 0
M  V30 21598 O 1982.28 1.83206 -0.532921 0
M  V30 21599 C 1979.42 3.15517 -1.39796 0
M  V30 21600 C 1978.53 3.41257 -2.64892 0
M  V30 21601 C 1977.67 4.69176 -2.49093 0
M  V30 21602 C 1976.7 4.87995 -3.69496 0
M  V30 21603 N 1975.84 6.07166 -3.52554 0
M  V30 21604 H 1980.68 1.72838 -2.42757 0
M  V30 21605 H 1978.22 0.843558 -1.20509 0
M  V30 21606 H 1980.18 3.9535 -1.33245 0
M  V30 21607 H 1978.81 3.19172 -0.482623 0
M  V30 21608 H 1977.86 2.55577 -2.81753 0
M  V30 21609 H 1979.17 3.51052 -3.5435 0
M  V30 21610 H 1978.32 5.57122 -2.40207 0
M  V30 21611 H 1977.06 4.61688 -1.57147 0
M  V30 21612 H 1976.07 3.98487 -3.78799 0
M  V30 21613 H 1977.29 4.97318 -4.62441 0
M  V30 21614 H 1975.24 6.00825 -2.63336 0
M  V30 21615 H 1975.16 6.17884 -4.35609 0
M  V30 21616 H 1976.42 6.97754 -3.47506 0
M  V30 21617 N 1980.65 1.29477 0.898527 0
M  V30 21618 C 1981.88 1.20529 1.68783 0
M  V30 21619 C 1982.3 -0.230536 1.86682 0
M  V30 21620 O 1981.66 -1.1664 1.38798 0
M  V30 21621 C 1981.71 1.92501 3.04919 0
M  V30 21622 O 1980.81 1.24286 3.93226 0
M  V30 21623 H 1980.16 0.417586 0.516254 0
M  V30 21624 H 1982.69 1.71066 1.1224 0
M  V30 21625 H 1982.7 2.01001 3.55053 0
M  V30 21626 H 1981.37 2.96934 2.9121 0
M  V30 21627 H 1979.95 1.24052 3.51661 0
M  V30 21628 N 1982.13 -1.10905 1.11972 0
M  V30 21629 C 1983.36 -1.87095 0.894991 0
M  V30 21630 C 1983.78 -1.79875 -0.550144 0
M  V30 21631 O 1983.14 -1.16517 -1.38901 0
M  V30 21632 C 1983.19 -3.33634 1.36825 0
M  V30 21633 O 1982.29 -4.08802 0.543553 0
M  V30 21634 H 1981.63 -0.580734 0.321938 0
M  V30 21635 H 1984.16 -1.40152 1.49059 0
M  V30 21636 H 1984.17 -3.84482 1.36519 0
M  V30 21637 H 1982.85 -3.38205 2.42054 0
M  V30 21638 H 1981.43 -3.67824 0.613185 0
M  V30 21639 N 1983.61 -0.910886 -1.2861 0
M  V30 21640 C 1984.54 -0.413998 -2.29801 0
M  V30 21641 C 1985.52 0.51689 -1.62056 0
M  V30 21642 O 1986.71 0.425236 -1.89487 0
M  V30 21643 C 1983.84 0.349336 -3.45539 0
M  V30 21644 C 1982.79 -0.49215 -4.25161 0
M  V30 21645 C 1982.12 0.399352 -5.33207 0
M  V30 21646 C 1983.42 -1.74792 -4.92184 0
M  V30 21647 H 1985.11 -1.25965 -2.71612 0
M  V30 21648 H 1982.66 -0.607149 -1.30575 0
M  V30 21649 H 1984.61 0.70777 -4.15414 0
M  V30 21650 H 1983.33 1.22887 -3.02599 0
M  V30 21651 H 1981.99 -0.833064 -3.57009 0
M  V30 21652 H 1981.64 1.27734 -4.86511 0
M  V30 21653 H 1981.34 -0.160062 -5.87382 0
M  V30 21654 H 1982.86 0.753731 -6.0593 0
M  V30 21655 H 1984.28 -1.45856 -5.54436 0
M  V30 21656 H 1982.68 -2.24952 -5.56342 0
M  V30 21657 H 1983.75 -2.4774 -4.16837 0
M  V30 21658 N 1985.09 1.42434 -0.674558 0
M  V30 21659 C 1986.32 2.05881 -0.205113 0
M  V30 21660 C 1986.73 1.50677 1.13763 0
M  V30 21661 O 1986.09 0.646479 1.70666 0
M  V30 21662 C 1986.14 3.61262 -0.131194 0
M  V30 21663 O 1985.86 4.14419 -1.42087 0
M  V30 21664 C 1987.36 4.41821 0.361775 0
M  V30 21665 H 1984.58 0.663535 -0.0998083 0
M  V30 21666 H 1987.13 1.82575 -0.921226 0
M  V30 21667 H 1985.28 3.8368 0.535604 0
M  V30 21668 H 1985.69 5.08285 -1.29407 0
M  V30 21669 H 1987.17 5.50809 0.362405 0
M  V30 21670 H 1987.65 4.1639 1.39699 0
M  V30 21671 H 1988.25 4.24421 -0.273278 0
M  V30 21672 N 1986.57 0.417871 1.51959 0
M  V30 21673 C 1987.51 -0.417897 2.28815 0
M  V30 21674 C 1988.51 -1.03814 1.33862 0
M  V30 21675 O 1989.71 -0.975341 1.51285 0
M  V30 21676 H 1986.09 -0.153557 0.736155 0
M  V30 21677 H 1988.06 0.25142 2.97339 0
M  V30 21678 C 1986.81 -1.51752 3.12836 0
M  V30 21679 H 1986.13 -1.0496 3.85776 0
M  V30 21680 H 1987.57 -2.07595 3.69703 0
M  V30 21681 C 1986.03 -2.48983 2.26957 0
M  V30 21682 O 1986.56 -3.53072 1.91581 0
M  V30 21683 N 1984.77 -2.19401 1.90556 0
M  V30 21684 H 1984.31 -1.34786 2.19524 0
M  V30 21685 H 1984.27 -2.84701 1.3339 0
M  V30 21686 N 1988.04 -1.56898 0.148573 0
M  V30 21687 C 1989.28 -1.98067 -0.504877 0
M  V30 21688 C 1989.65 -1.03158 -1.61934 0
M  V30 21689 O 1990.85 -1.33377 -2.33375 0
M  V30 21690 C 1989.12 -3.43224 -0.99658 0
M  V30 21691 S 1990.68 -4.06417 -1.65441 0
M  V30 21692 H 1987.5 -0.692019 -0.163191 0
M  V30 21693 H 1990.1 -1.94013 0.240659 0
M  V30 21694 H 1988.8 -4.10028 -0.174727 0
M  V30 21695 H 1988.33 -3.50994 -1.7767 0
M  V30 21696 H 1990.35 -3.99598 -2.9417 0
M  V30 21697 N 1989.52 0.125209 -1.57102 0
M  V30 21698 C 1990.45 1.15521 -2.02922 0
M  V30 21699 C 1991.43 1.43549 -0.912559 0
M  V30 21700 O 1992.62 1.54097 -1.18185 0
M  V30 21701 C 1989.75 2.48297 -2.42829 0
M  V30 21702 C 1988.7 2.34744 -3.57881 0
M  V30 21703 C 1988.03 3.72427 -3.83669 0
M  V30 21704 C 1989.33 1.81317 -4.89818 0
M  V30 21705 H 1991.02 0.774129 -2.89219 0
M  V30 21706 H 1988.57 0.370935 -1.3914 0
M  V30 21707 H 1990.52 3.20597 -2.73487 0
M  V30 21708 H 1989.25 2.88283 -1.53495 0
M  V30 21709 H 1987.9 1.64893 -3.27423 0
M  V30 21710 H 1987.55 4.09887 -2.9155 0
M  V30 21711 H 1987.25 3.64215 -4.61109 0
M  V30 21712 H 1988.78 4.46242 -4.16773 0
M  V30 21713 H 1990.19 2.43429 -5.19052 0
M  V30 21714 H 1988.59 1.83941 -5.71214 0
M  V30 21715 H 1989.66 0.770291 -4.78743 0
M  V30 21716 N 1991 1.52564 0.395213 0
M  V30 21717 C 1992.25 1.67305 1.14085 0
M  V30 21718 C 1992.58 0.409869 1.90132 0
M  V30 21719 O 1991.83 -0.607574 1.8603 0
M  V30 21720 C 1992.13 2.85496 2.15004 0
M  V30 21721 C 1991.8 4.23179 1.55661 0
M  V30 21722 C 1990.46 4.60626 1.39202 0
M  V30 21723 C 1992.81 5.08923 1.12457 0
M  V30 21724 C 1990.14 5.81482 0.780775 0
M  V30 21725 C 1992.49 6.30397 0.527451 0
M  V30 21726 C 1991.15 6.66581 0.350111 0
M  V30 21727 H 1990.42 0.612211 0.417467 0
M  V30 21728 H 1993.07 1.86695 0.426269 0
M  V30 21729 H 1991.38 2.60496 2.92658 0
M  V30 21730 H 1993.07 2.94096 2.72595 0
M  V30 21731 H 1989.66 3.93678 1.69457 0
M  V30 21732 H 1993.85 4.80566 1.23976 0
M  V30 21733 H 1989.1 6.0813 0.631518 0
M  V30 21734 H 1993.28 6.96156 0.184351 0
M  V30 21735 H 1990.9 7.60096 -0.125616 0
M  V30 21736 N 1992.48 -0.653289 1.43422 0
M  V30 21737 C 1993.89 -0.968948 1.26821 0
M  V30 21738 C 1994.09 -2.00622 0.187882 0
M  V30 21739 O 1993.15 -2.48747 -0.43371 0
M  V30 21740 C 1994.46 -1.45328 2.63249 0
M  V30 21741 C 1996.01 -1.56993 2.70781 0
M  V30 21742 C 1996.49 -2.08817 4.07627 0
M  V30 21743 N 1997.98 -2.16119 4.09691 0
M  V30 21744 C 1998.71 -2.5734 5.1241 0
M  V30 21745 N 1998.21 -2.97858 6.25502 0
M  V30 21746 N 2000 -2.57279 4.99764 0
M  V30 21747 H 1992.15 0.0330932 2.12374 0
M  V30 21748 H 1994.42 -0.0477768 0.946795 0
M  V30 21749 H 1994.12 -0.765519 3.43268 0
M  V30 21750 H 1994 -2.42831 2.8864 0
M  V30 21751 H 1996.38 -2.24871 1.91095 0
M  V30 21752 H 1996.46 -0.579228 2.49156 0
M  V30 21753 H 1996.11 -1.41541 4.87779 0
M  V30 21754 H 1996.04 -3.08718 4.26616 0
M  V30 21755 H 1998.53 -1.8758 3.28058 0
M  V30 21756 H 1998.84 -3.2806 6.99712 0
M  V30 21757 H 1997.19 -2.95662 6.28974 0
M  V30 21758 H 2000.38 -2.25002 4.10478 0
M  V30 21759 H 2000.55 -2.89082 5.79944 0
M  V30 21760 N 1993.96 -1.29952 -0.891648 0
M  V30 21761 C 1995.21 -1.17758 -1.63756 0
M  V30 21762 C 1995.52 0.268231 -1.93752 0
M  V30 21763 O 1996.72 0.511595 -2.66636 0
M  V30 21764 C 1995.18 -2.06008 -2.95108 0
M  V30 21765 C 1994.79 -3.55459 -2.72677 0
M  V30 21766 C 1996.53 -2.0256 -3.73055 0
M  V30 21767 C 1994.44 -4.35787 -3.99805 0
M  V30 21768 H 1993.37 -0.437139 -0.61435 0
M  V30 21769 H 1996.02 -1.54651 -0.987694 0
M  V30 21770 H 1994.4 -1.61991 -3.61351 0
M  V30 21771 H 1995.58 -4.0758 -2.14977 0
M  V30 21772 H 1993.89 -3.60662 -2.08115 0
M  V30 21773 H 1996.49 -2.5983 -4.67325 0
M  V30 21774 H 1996.83 -1.00748 -4.03925 0
M  V30 21775 H 1997.36 -2.44662 -3.13664 0
M  V30 21776 H 1994.1 -5.38268 -3.74096 0
M  V30 21777 H 1993.62 -3.88432 -4.57035 0
M  V30 21778 H 1995.3 -4.46872 -4.67883 0
M  V30 21779 N 1995.44 1.1031 -1.12559 0
M  V30 21780 C 1996.37 2.18738 -0.817073 0
M  V30 21781 C 1997.35 1.68675 0.219681 0
M  V30 21782 O 1998.53 1.94033 0.0805889 0
M  V30 21783 C 1995.66 3.46231 -0.272317 0
M  V30 21784 C 1994.62 4.09575 -1.24228 0
M  V30 21785 C 1993.94 5.31784 -0.557693 0
M  V30 21786 C 1995.24 4.53135 -2.59743 0
M  V30 21787 H 1996.94 2.44802 -1.72372 0
M  V30 21788 H 1994.48 1.17658 -0.830221 0
M  V30 21789 H 1996.43 4.21377 -0.0442049 0
M  V30 21790 H 1995.16 3.19661 0.669677 0
M  V30 21791 H 1993.82 3.36437 -1.45622 0
M  V30 21792 H 1993.47 5.0149 0.389484 0
M  V30 21793 H 1993.17 5.75117 -1.20473 0
M  V30 21794 H 1994.69 6.0966 -0.338649 0
M  V30 21795 H 1996.1 5.19548 -2.42369 0
M  V30 21796 H 1994.5 5.07322 -3.20537 0
M  V30 21797 H 1995.57 3.65989 -3.18088 0
M  V30 21798 N 1996.91 0.917694 1.28125 0
M  V30 21799 C 1997.82 0.414339 2.30912 0
M  V30 21800 C 1998.84 -0.49998 1.66662 0
M  V30 21801 O 2000.02 -0.385213 1.97682 0
M  V30 21802 C 1997.08 -0.333886 3.45089 0
M  V30 21803 C 1996.14 0.614131 4.24885 0
M  V30 21804 C 1995.37 -0.0984806 5.33609 0
M  V30 21805 O 1995.6 -1.31956 5.54927 0
M  V30 21806 O 1994.53 0.568228 5.99212 0
M  V30 21807 H 1998.36 1.26755 2.75984 0
M  V30 21808 H 1995.94 0.682661 1.32891 0
M  V30 21809 H 1997.82 -0.756311 4.14557 0
M  V30 21810 H 1996.5 -1.16286 3.02091 0
M  V30 21811 H 1995.41 1.08603 3.57989 0
M  V30 21812 H 1996.74 1.41003 4.71571 0
M  V30 21813 N 1998.39 -1.42074 0.682102 0
M  V30 21814 C 1999.35 -2.29193 0.0174256 0
M  V30 21815 C 2000.35 -1.43698 -0.721635 0
M  V30 21816 O 2001.54 -1.65003 -0.558542 0
M  V30 21817 C 1998.68 -3.26332 -0.985903 0
M  V30 21818 H 1999.87 -2.89462 0.784316 0
M  V30 21819 H 1997.42 -1.49836 0.44485 0
M  V30 21820 H 1998.16 -2.71016 -1.78103 0
M  V30 21821 H 1997.94 -3.89401 -0.459258 0
M  V30 21822 H 1999.43 -3.91649 -1.44918 0
M  V30 21823 N 1999.87 -0.425924 -1.51735 0
M  V30 21824 C 2000.83 0.379497 -2.26036 0
M  V30 21825 C 2001.83 0.95944 -1.2904 0
M  V30 21826 O 2003.02 0.83568 -1.52846 0
M  V30 21827 C 2000.15 1.5358 -3.04345 0
M  V30 21828 H 2001.35 -0.271515 -2.98668 0
M  V30 21829 H 1998.9 -0.17882 -1.55274 0
M  V30 21830 H 1999.64 2.2232 -2.36103 0
M  V30 21831 H 1999.42 1.12626 -3.75577 0
M  V30 21832 H 2000.91 2.10513 -3.60658 0
M  V30 21833 N 2001.35 1.56817 -0.156891 0
M  V30 21834 C 2002.6 1.96051 0.490764 0
M  V30 21835 C 2002.92 1.04326 1.64746 0
M  V30 21836 O 2002.19 0.106736 1.95609 0
M  V30 21837 H 2000.77 0.72391 0.184293 0
M  V30 21838 H 2003.43 1.93482 -0.234704 0
M  V30 21839 H 2002.52 3.00007 0.86036 0
M  V30 21840 N 2002.83 -0.116876 1.57166 0
M  V30 21841 C 2004.07 -0.822659 1.84599 0
M  V30 21842 C 2004.39 -1.80315 0.742392 0
M  V30 21843 O 2003.66 -1.94505 -0.233411 0
M  V30 21844 H 2002.24 -0.306797 0.681091 0
M  V30 21845 H 2004.91 -0.103693 1.94624 0
M  V30 21846 H 2004 -1.36659 2.8059 0
M  V30 21847 N 2004.3 -1.52772 -0.387116 0
M  V30 21848 C 2005.24 -1.7394 -1.49256 0
M  V30 21849 C 2006.25 -0.619887 -1.50537 0
M  V30 21850 O 2007.44 -0.89563 -1.54404 0
M  V30 21851 C 2004.54 -1.78473 -2.88098 0
M  V30 21852 C 2003.71 -3.07809 -3.10761 0
M  V30 21853 C 2002.77 -3.03864 -4.29597 0
M  V30 21854 O 2001.8 -3.77723 -4.2581 0
M  V30 21855 N 2003 -2.2318 -5.35883 0
M  V30 21856 H 2005.76 -2.69318 -1.31484 0
M  V30 21857 H 2003.32 -1.51282 -0.576648 0
M  V30 21858 H 2005.32 -1.73338 -3.65699 0
M  V30 21859 H 2003.89 -0.904738 -2.99221 0
M  V30 21860 H 2003.11 -3.26418 -2.21009 0
M  V30 21861 H 2004.39 -3.93324 -3.22759 0
M  V30 21862 H 2003.79 -1.62644 -5.41815 0
M  V30 21863 H 2002.35 -2.23883 -6.12143 0
M  V30 21864 N 2005.78 0.645673 -1.43767 0
M  V30 21865 C 2007.03 1.40137 -1.45067 0
M  V30 21866 C 2007.34 1.9543 -0.0815041 0
M  V30 21867 O 2008.55 2.71486 0.0280161 0
M  V30 21868 C 2007.01 2.53651 -2.55322 0
M  V30 21869 C 2006.61 2.04934 -3.98379 0
M  V30 21870 C 2008.36 3.30964 -2.65826 0
M  V30 21871 C 2006.26 3.15703 -5.00086 0
M  V30 21872 H 2005.19 0.52657 -0.539667 0
M  V30 21873 H 2007.85 0.696144 -1.69782 0
M  V30 21874 H 2006.23 3.26681 -2.23821 0
M  V30 21875 H 2007.4 1.38865 -4.39378 0
M  V30 21876 H 2005.72 1.40478 -3.91988 0
M  V30 21877 H 2008.31 4.13513 -3.38986 0
M  V30 21878 H 2008.66 3.79492 -1.71149 0
M  V30 21879 H 2009.19 2.65018 -2.96665 0
M  V30 21880 H 2005.93 2.72136 -5.96341 0
M  V30 21881 H 2005.45 3.80459 -4.63693 0
M  V30 21882 H 2007.13 3.80714 -5.23131 0
M  V30 21883 N 2007.26 1.30423 0.884744 0
M  V30 21884 C 2008.51 1.18625 1.63129 0
M  V30 21885 C 2008.82 -0.257953 1.93892 0
M  V30 21886 O 2010.03 -0.497448 2.66904 0
M  V30 21887 C 2008.48 2.0757 2.94011 0
M  V30 21888 C 2008.09 3.569 2.70788 0
M  V30 21889 C 2009.84 2.04535 3.71975 0
M  V30 21890 C 2007.74 4.37901 3.97488 0
M  V30 21891 H 2006.67 0.440391 0.612023 0
M  V30 21892 H 2009.32 1.55172 0.979478 0
M  V30 21893 H 2007.71 1.63905 3.60487 0
M  V30 21894 H 2008.88 4.08715 2.12812 0
M  V30 21895 H 2007.19 3.61761 2.06199 0
M  V30 21896 H 2009.79 2.62305 4.6594 0
M  V30 21897 H 2010.13 1.02888 4.03385 0
M  V30 21898 H 2010.67 2.46322 3.12362 0
M  V30 21899 H 2007.41 5.40244 3.71236 0
M  V30 21900 H 2006.93 3.9085 4.54968 0
M  V30 21901 H 2008.61 4.49347 4.65506 0
M  V30 21902 N 2008.74 -1.09711 1.13142 0
M  V30 21903 C 2009.99 -1.81198 0.886021 0
M  V30 21904 C 2010.3 -1.86501 -0.589624 0
M  V30 21905 O 2011.51 -2.54267 -0.951866 0
M  V30 21906 C 2009.96 -3.25498 1.53554 0
M  V30 21907 C 2009.57 -3.2847 3.0465 0
M  V30 21908 C 2011.31 -4.01761 1.37072 0
M  V30 21909 C 2009.22 -4.67276 3.62501 0
M  V30 21910 H 2008.15 -0.679005 0.327824 0
M  V30 21911 H 2010.8 -1.23325 1.35879 0
M  V30 21912 H 2009.18 -3.83414 0.990434 0
M  V30 21913 H 2010.36 -2.80336 3.65716 0
M  V30 21914 H 2008.67 -2.65697 3.20615 0
M  V30 21915 H 2011.27 -5.04306 1.77707 0
M  V30 21916 H 2011.61 -4.15105 0.315226 0
M  V30 21917 H 2012.15 -3.50279 1.88545 0
M  V30 21918 H 2008.88 -4.59133 4.67843 0
M  V30 21919 H 2008.4 -5.15746 3.06212 0
M  V30 21920 H 2010.08 -5.36249 3.62002 0
M  V30 21921 N 2010.22 -0.924476 -1.27637 0
M  V30 21922 C 2011.49 -0.481742 -1.89575 0
M  V30 21923 C 2011.87 1.04002 -1.83703 0
M  V30 21924 O 2011.22 1.89277 -1.28009 0
M  V30 21925 C 2011.43 -1.02419 -3.33633 0
M  V30 21926 C 2012.78 -1.08274 -4.10563 0
M  V30 21927 O 2013.8 -0.97359 -3.42636 0
M  V30 21928 O 2012.66 -1.25042 -5.32003 0
M  V30 21929 H 2009.76 -0.15444 -0.812451 0
M  V30 21930 H 2012.3 -1.01596 -1.35928 0
M  V30 21931 H 2011.07 -2.06808 -3.32184 0
M  V30 21932 H 2010.7 -0.471435 -3.94795 0
M  V30 21933 N 2011.69 1.41711 -0.689627 0
M  V30 21934 C 2012.94 2.00925 -0.217655 0
M  V30 21935 C 2013.26 1.5487 1.18491 0
M  V30 21936 O 2012.53 0.776746 1.79843 0
M  V30 21937 H 2011.11 0.742971 -0.0774783 0
M  V30 21938 H 2013.78 1.73421 -0.889456 0
M  V30 21939 H 2012.87 3.11248 -0.230451 0
M  V30 21940 N 2013.17 0.433965 1.51507 0
M  V30 21941 C 2014.42 -0.133827 2.02358 0
M  V30 21942 C 2014.75 -1.42654 1.3177 0
M  V30 21943 O 2014.03 -1.89651 0.431588 0
M  V30 21944 C 2014.31 -0.356052 3.58335 0
M  V30 21945 C 2014.16 0.955077 4.39543 0
M  V30 21946 C 2015.48 -1.12732 4.25417 0
M  V30 21947 H 2012.6 -0.0471634 0.735489 0
M  V30 21948 H 2015.24 0.572301 1.81176 0
M  V30 21949 H 2013.39 -0.957541 3.76515 0
M  V30 21950 H 2015.06 1.59029 4.33021 0
M  V30 21951 H 2013.31 1.56044 4.04762 0
M  V30 21952 H 2013.98 0.753671 5.46831 0
M  V30 21953 H 2016.45 -0.617852 4.11487 0
M  V30 21954 H 2015.33 -1.25157 5.34441 0
M  V30 21955 H 2015.59 -2.15452 3.86048 0
M  V30 21956 N 2014.65 -1.56732 0.165206 0
M  V30 21957 C 2015.93 -1.88357 -0.527344 0
M  V30 21958 C 2016.31 -1.07412 -1.8173 0
M  V30 21959 O 2015.66 -0.166236 -2.27895 0
M  V30 21960 C 2015.87 -3.40282 -0.775175 0
M  V30 21961 C 2017.21 -4.09891 -1.10789 0
M  V30 21962 O 2018.24 -3.45565 -0.863921 0
M  V30 21963 O 2017.1 -5.23527 -1.56787 0
M  V30 21964 H 2014.19 -0.781304 -0.271096 0
M  V30 21965 H 2016.74 -1.68479 0.203183 0
M  V30 21966 H 2015.51 -3.9106 0.137 0
M  V30 21967 H 2015.13 -3.65751 -1.55924 0
M  V30 21968 N 2016.13 0.10854 -1.57226 0
M  V30 21969 C 2017.38 0.813095 -1.84585 0
M  V30 21970 C 2017.69 1.80548 -0.752453 0
M  V30 21971 O 2018.9 2.55697 -0.912763 0
M  V30 21972 C 2017.35 1.4968 -3.27298 0
M  V30 21973 C 2016.96 0.544871 -4.44674 0
M  V30 21974 C 2018.7 2.18587 -3.63895 0
M  V30 21975 C 2016.61 1.2324 -5.78417 0
M  V30 21976 H 2015.54 0.3074 -0.688492 0
M  V30 21977 H 2018.19 0.065908 -1.83382 0
M  V30 21978 H 2016.57 2.29098 -3.23002 0
M  V30 21979 H 2017.75 -0.216842 -4.6029 0
M  V30 21980 H 2016.06 -0.0377882 -4.16383 0
M  V30 21981 H 2018.66 2.70735 -4.61093 0
M  V30 21982 H 2019 2.96868 -2.91848 0
M  V30 21983 H 2019.54 1.46046 -3.70021 0
M  V30 21984 H 2016.28 0.490673 -6.53661 0
M  V30 21985 H 2015.8 1.96587 -5.66669 0
M  V30 21986 H 2017.47 1.76267 -6.22526 0
M  V30 21987 N 2017.61 1.52975 0.379009 0
M  V30 21988 C 2018.57 1.77806 1.4463 0
M  V30 21989 C 2019.57 0.648223 1.47155 0
M  V30 21990 O 2020.76 0.916347 1.48151 0
M  V30 21991 C 2017.89 1.88792 2.83849 0
M  V30 21992 H 2019.08 2.73113 1.23892 0
M  V30 21993 H 2016.64 1.43848 0.61135 0
M  V30 21994 H 2017.37 0.955049 3.09918 0
M  V30 21995 H 2017.16 2.70957 2.83416 0
M  V30 21996 H 2018.65 2.09642 3.61165 0
M  V30 21997 N 2019.08 -0.63804 1.44107 0
M  V30 21998 C 2020.31 -1.43004 1.50215 0
M  V30 21999 C 2020.73 -1.87678 0.125903 0
M  V30 22000 O 2020.09 -1.58316 -0.883508 0
M  V30 22001 C 2020.14 -2.63112 2.46585 0
M  V30 22002 O 2019.24 -3.62706 1.9626 0
M  V30 22003 H 2018.59 -0.428173 0.507508 0
M  V30 22004 H 2021.12 -0.779402 1.89173 0
M  V30 22005 H 2021.13 -3.10742 2.64393 0
M  V30 22006 H 2019.8 -2.29941 3.46554 0
M  V30 22007 H 2018.38 -3.21932 1.88186 0
M  V30 22008 N 2020.56 -1.3089 -0.877815 0
M  V30 22009 C 2021.81 -1.19488 -1.62498 0
M  V30 22010 C 2022.12 0.247666 -1.94026 0
M  V30 22011 O 2023.33 0.483286 -2.67164 0
M  V30 22012 C 2021.79 -2.09126 -2.92906 0
M  V30 22013 C 2021.39 -3.58331 -2.68891 0
M  V30 22014 C 2023.14 -2.06505 -3.70885 0
M  V30 22015 C 2021.05 -4.40003 -3.9516 0
M  V30 22016 H 2019.98 -0.44363 -0.609679 0
M  V30 22017 H 2022.63 -1.5569 -0.971235 0
M  V30 22018 H 2021.01 -1.65815 -3.59613 0
M  V30 22019 H 2022.18 -4.09838 -2.10642 0
M  V30 22020 H 2020.5 -3.62849 -2.04278 0
M  V30 22021 H 2023.09 -2.64772 -4.64543 0
M  V30 22022 H 2023.44 -1.05026 -4.02834 0
M  V30 22023 H 2023.97 -2.47975 -3.11052 0
M  V30 22024 H 2020.71 -5.42205 -3.68366 0
M  V30 22025 H 2020.23 -3.93258 -4.52889 0
M  V30 22026 H 2021.91 -4.5181 -4.63117 0
M  V30 22027 N 2022.04 1.0911 -1.13723 0
M  V30 22028 C 2023.29 1.80994 -0.899205 0
M  V30 22029 C 2023.61 1.86296 0.576084 0
M  V30 22030 O 2022.88 1.35086 1.41875 0
M  V30 22031 H 2021.46 0.670311 -0.329685 0
M  V30 22032 H 2024.12 1.3195 -1.4344 0
M  V30 22033 H 2023.22 2.84065 -1.29281 0
M  V30 22034 N 2023.52 0.931232 1.27145 0
M  V30 22035 C 2024.45 0.450505 2.29113 0
M  V30 22036 C 2025.43 -0.491043 1.62858 0
M  V30 22037 O 2026.61 -0.395036 1.9014 0
M  V30 22038 C 2023.74 -0.29432 3.46051 0
M  V30 22039 C 2022.7 0.559727 4.24324 0
M  V30 22040 C 2022.02 -0.314473 5.33774 0
M  V30 22041 C 2023.32 1.826 4.89341 0
M  V30 22042 H 2025.02 1.3027 2.69574 0
M  V30 22043 H 2022.56 0.627845 1.29592 0
M  V30 22044 H 2024.52 -0.641592 4.16487 0
M  V30 22045 H 2023.24 -1.18057 3.04516 0
M  V30 22046 H 2021.9 0.889756 3.55639 0
M  V30 22047 H 2021.55 -1.19978 4.88482 0
M  V30 22048 H 2021.25 0.253489 5.87053 0
M  V30 22049 H 2022.77 -0.657238 6.07053 0
M  V30 22050 H 2024.19 1.54659 5.52045 0
M  V30 22051 H 2022.58 2.33775 5.52693 0
M  V30 22052 H 2023.65 2.5434 4.12842 0
M  V30 22053 N 2025 -1.41343 0.697132 0
M  V30 22054 C 2025.95 -2.27998 0.00959736 0
M  V30 22055 C 2026.93 -1.42285 -0.751254 0
M  V30 22056 O 2028.12 -1.65542 -0.626491 0
M  V30 22057 C 2025.25 -3.30606 -0.924919 0
M  V30 22058 C 2024.34 -4.23797 -0.160232 0
M  V30 22059 N 2024.73 -4.98661 0.846797 0
M  V30 22060 C 2023.03 -4.44243 -0.395486 0
M  V30 22061 C 2023.73 -5.6688 1.30467 0
M  V30 22062 N 2022.7 -5.39934 0.630293 0
M  V30 22063 H 2026.51 -2.83314 0.781684 0
M  V30 22064 H 2024.02 -1.53574 0.528104 0
M  V30 22065 H 2026.02 -3.91511 -1.43264 0
M  V30 22066 H 2024.68 -2.7685 -1.69659 0
M  V30 22067 H 2025.69 -5.03153 1.22708 0
M  V30 22068 H 2022.37 -4.01495 -1.14492 0
M  V30 22069 H 2023.76 -6.36896 2.1404 0
M  V30 22070 N 2026.48 -0.441993 -1.51275 0
M  V30 22071 C 2027.75 0.183076 -1.94741 0
M  V30 22072 C 2028.13 1.59668 -1.38092 0
M  V30 22073 O 2027.48 2.21279 -0.569882 0
M  V30 22074 C 2027.69 0.156071 -3.48651 0
M  V30 22075 C 2029.04 0.359351 -4.23077 0
M  V30 22076 O 2030.06 0.233977 -3.55431 0
M  V30 22077 O 2028.92 0.609358 -5.43092 0
M  V30 22078 H 2026.02 0.127455 -0.817119 0
M  V30 22079 H 2028.56 -0.500307 -1.62157 0
M  V30 22080 H 2027.33 -0.832021 -3.82352 0
M  V30 22081 H 2026.96 0.882165 -3.8769 0
M  V30 22082 N 2027.95 1.56642 -0.173515 0
M  V30 22083 C 2028.88 2.21076 0.751509 0
M  V30 22084 C 2029.86 1.16706 1.23749 0
M  V30 22085 O 2031.05 1.45142 1.29025 0
M  V30 22086 C 2028.18 2.85323 1.9801 0
M  V30 22087 C 2027.13 3.95751 1.62989 0
M  V30 22088 C 2026.46 4.47058 2.93332 0
M  V30 22089 C 2027.76 5.15234 0.856231 0
M  V30 22090 H 2029.45 2.98631 0.21442 0
M  V30 22091 H 2027 1.4364 0.101692 0
M  V30 22092 H 2028.95 3.29075 2.63226 0
M  V30 22093 H 2027.68 2.0514 2.54136 0
M  V30 22094 H 2026.34 3.52658 1.00141 0
M  V30 22095 H 2025.98 3.63663 3.47503 0
M  V30 22096 H 2025.68 5.21556 2.70652 0
M  V30 22097 H 2027.21 4.93497 3.59573 0
M  V30 22098 H 2028.62 5.55665 1.41102 0
M  V30 22099 H 2027.02 5.95663 0.728389 0
M  V30 22100 H 2028.09 4.84677 -0.147009 0
M  V30 22101 N 2029.43 -0.1002 1.57281 0
M  V30 22102 C 2030.85 -0.454271 1.52998 0
M  V30 22103 C 2031.05 -1.80807 0.889451 0
M  V30 22104 O 2030.1 -2.479 0.479781 0
M  V30 22105 C 2031.42 -0.421457 2.97732 0
M  V30 22106 C 2032.96 -0.503676 3.08921 0
M  V30 22107 C 2033.44 -0.501062 4.55251 0
M  V30 22108 N 2034.93 -0.561964 4.59778 0
M  V30 22109 C 2035.67 -0.581696 5.70442 0
M  V30 22110 N 2035.16 -0.557942 6.9055 0
M  V30 22111 N 2036.95 -0.626123 5.58602 0
M  V30 22112 H 2029.11 0.786609 1.97297 0
M  V30 22113 H 2031.37 0.292244 0.90183 0
M  V30 22114 H 2031.07 0.506016 3.48041 0
M  V30 22115 H 2030.95 -1.24233 3.56154 0
M  V30 22116 H 2033.34 -1.42157 2.58603 0
M  V30 22117 H 2033.42 0.345241 2.5346 0
M  V30 22118 H 2033.06 0.412865 5.06219 0
M  V30 22119 H 2032.99 -1.36712 5.08544 0
M  V30 22120 H 2035.48 -0.585723 3.73333 0
M  V30 22121 H 2035.79 -0.576141 7.70649 0
M  V30 22122 H 2034.14 -0.52507 6.93014 0
M  V30 22123 H 2037.33 -0.642175 4.63674 0
M  V30 22124 H 2037.5 -0.638033 6.44851 0
M  V30 22125 N 2030.91 -1.53174 -0.370891 0
M  V30 22126 C 2031.82 -1.82187 -1.478 0
M  V30 22127 C 2032.84 -0.70987 -1.58861 0
M  V30 22128 O 2034.01 -0.999372 -1.74856 0
M  V30 22129 C 2031.08 -2.00097 -2.83129 0
M  V30 22130 C 2030.14 -3.24002 -2.8164 0
M  V30 22131 C 2029.37 -3.41048 -4.10514 0
M  V30 22132 O 2029.59 -2.62503 -5.06407 0
M  V30 22133 O 2028.53 -4.34381 -4.16649 0
M  V30 22134 H 2032.35 -2.76234 -1.26207 0
M  V30 22135 H 2029.94 -1.38488 -0.560483 0
M  V30 22136 H 2031.82 -2.13479 -3.63324 0
M  V30 22137 H 2030.5 -1.0924 -3.0471 0
M  V30 22138 H 2029.4 -3.16048 -2.00162 0
M  V30 22139 H 2030.74 -4.14764 -2.65012 0
M  V30 22140 N 2032.39 0.630389 -1.44443 0
M  V30 22141 C 2033.33 1.74232 -1.51367 0
M  V30 22142 C 2034.3 1.62122 -0.361324 0
M  V30 22143 O 2035.49 1.82035 -0.571662 0
M  V30 22144 C 2032.63 3.12481 -1.46457 0
M  V30 22145 C 2031.74 3.35561 -2.72071 0
M  V30 22146 C 2030.88 4.63787 -2.58989 0
M  V30 22147 C 2029.92 4.80048 -3.79764 0
M  V30 22148 N 2029.05 5.99551 -3.65354 0
M  V30 22149 H 2033.89 1.6765 -2.46368 0
M  V30 22150 H 2031.43 0.817807 -1.22272 0
M  V30 22151 H 2033.39 3.92435 -1.41601 0
M  V30 22152 H 2032.02 3.18076 -0.550216 0
M  V30 22153 H 2031.07 2.49543 -2.8711 0
M  V30 22154 H 2032.38 3.43456 -3.61717 0
M  V30 22155 H 2031.54 5.51902 -2.51971 0
M  V30 22156 H 2030.28 4.58251 -1.66905 0
M  V30 22157 H 2029.28 3.90362 -3.87166 0
M  V30 22158 H 2030.51 4.87397 -4.72886 0
M  V30 22159 H 2028.45 5.95104 -2.76021 0
M  V30 22160 H 2028.37 6.08505 -4.48617 0
M  V30 22161 H 2029.64 6.90226 -3.62228 0
M  V30 22162 N 2033.87 1.31354 0.870861 0
M  V30 22163 C 2034.8 1.21518 1.99388 0
M  V30 22164 C 2035.78 0.102582 1.6979 0
M  V30 22165 O 2036.96 0.287028 1.92067 0
M  V30 22166 C 2034.09 0.920813 3.34871 0
M  V30 22167 C 2033.05 1.99289 3.78772 0
M  V30 22168 C 2032.37 1.55123 5.11704 0
M  V30 22169 C 2033.67 3.40589 3.95975 0
M  V30 22170 H 2035.37 2.15473 2.07875 0
M  V30 22171 H 2032.91 1.03734 0.998761 0
M  V30 22172 H 2034.86 0.838612 4.12971 0
M  V30 22173 H 2033.59 -0.0543971 3.26555 0
M  V30 22174 H 2032.25 2.06496 3.0291 0
M  V30 22175 H 2031.9 0.563901 4.99829 0
M  V30 22176 H 2031.6 2.26842 5.42048 0
M  V30 22177 H 2033.12 1.48308 5.92315 0
M  V30 22178 H 2034.53 3.36061 4.64474 0
M  V30 22179 H 2032.93 4.10517 4.37716 0
M  V30 22180 H 2034 3.8144 2.99385 0
M  V30 22181 N 2035.34 -1.08505 1.143 0
M  V30 22182 C 2036.57 -1.84615 0.934069 0
M  V30 22183 C 2036.99 -1.81572 -0.517403 0
M  V30 22184 O 2036.34 -1.21866 -1.35849 0
M  V30 22185 C 2036.39 -3.32199 1.42571 0
M  V30 22186 O 2036.12 -3.35247 2.82031 0
M  V30 22187 C 2037.62 -4.25118 1.25658 0
M  V30 22188 H 2034.84 -0.582839 0.332474 0
M  V30 22189 H 2037.38 -1.37043 1.51787 0
M  V30 22190 H 2035.54 -3.77163 0.884694 0
M  V30 22191 H 2035.95 -4.27366 3.0407 0
M  V30 22192 H 2037.42 -5.26788 1.64919 0
M  V30 22193 H 2037.9 -4.38747 0.199328 0
M  V30 22194 H 2038.51 -3.85978 1.78609 0
M  V30 22195 N 2036.82 -0.937962 -1.26649 0
M  V30 22196 C 2038.07 -0.57958 -1.93194 0
M  V30 22197 C 2038.38 0.88505 -1.74431 0
M  V30 22198 O 2039.59 1.35267 -2.35404 0
M  V30 22199 C 2038.05 -0.985803 -3.46136 0
M  V30 22200 C 2037.65 -2.47182 -3.73637 0
M  V30 22201 C 2039.4 -0.699162 -4.18703 0
M  V30 22202 C 2037.3 -2.81691 -5.20004 0
M  V30 22203 H 2036.23 -0.213046 -0.723275 0
M  V30 22204 H 2038.89 -1.14017 -1.43779 0
M  V30 22205 H 2037.27 -0.353775 -3.94417 0
M  V30 22206 H 2038.44 -3.15263 -3.36075 0
M  V30 22207 H 2036.76 -2.73143 -3.14296 0
M  V30 22208 H 2039.35 -0.933359 -5.26491 0
M  V30 22209 H 2039.7 0.363979 -4.14706 0
M  V30 22210 H 2040.23 -1.29076 -3.76277 0
M  V30 22211 H 2036.97 -3.86955 -5.29099 0
M  V30 22212 H 2036.49 -2.1827 -5.58675 0
M  V30 22213 H 2038.17 -2.69984 -5.87978 0
M  V30 22214 N 2038.3 1.40971 -0.704618 0
M  V30 22215 C 2039.55 2.00309 -0.236478 0
M  V30 22216 C 2039.86 1.56482 1.17358 0
M  V30 22217 O 2041.07 2.08442 1.73966 0
M  V30 22218 C 2039.52 3.57974 -0.371877 0
M  V30 22219 C 2039.13 4.10779 -1.78788 0
M  V30 22220 C 2040.88 4.24485 0.0360284 0
M  V30 22221 C 2038.78 5.60909 -1.87445 0
M  V30 22222 H 2037.71 0.749233 -0.0846557 0
M  V30 22223 H 2040.36 1.61342 -0.874125 0
M  V30 22224 H 2038.75 3.94587 0.334172 0
M  V30 22225 H 2039.92 3.85565 -2.52342 0
M  V30 22226 H 2038.23 3.56826 -2.14626 0
M  V30 22227 H 2040.83 5.34699 -0.00808813 0
M  V30 22228 H 2041.17 4.02149 1.07621 0
M  V30 22229 H 2041.71 3.92938 -0.620069 0
M  V30 22230 H 2038.45 5.88084 -2.89546 0
M  V30 22231 H 2037.97 5.88021 -1.18287 0
M  V30 22232 H 2039.65 6.25831 -1.6415 0
M  V30 22233 N 2039.78 0.45001 1.51039 0
M  V30 22234 C 2041.19 -0.0101397 1.86697 0
M  V30 22235 C 2041.54 -1.40804 1.36633 0
M  V30 22236 O 2040.67 -2.03986 0.722411 0
M  V30 22237 C 2041.26 -0.0251761 3.38791 0
M  V30 22238 C 2039.82 -0.429779 3.73938 0
M  V30 22239 C 2038.97 0.369286 2.7483 0
M  V30 22240 H 2041.92 0.665278 1.44082 0
M  V30 22241 H 2041.94 -0.831964 3.71293 0
M  V30 22242 H 2041.45 0.992361 3.75198 0
M  V30 22243 H 2039.55 -1.45245 3.43125 0
M  V30 22244 H 2039.66 -0.145773 4.78878 0
M  V30 22245 H 2038.03 -0.174158 2.54104 0
M  V30 22246 H 2038.81 1.38594 3.14081 0
M  V30 22247 N 2041.26 -1.56548 0.18182 0
M  V30 22248 C 2042.19 -2.15665 -0.775955 0
M  V30 22249 C 2043.2 -1.11496 -1.18627 0
M  V30 22250 O 2044.39 -1.38642 -1.1243 0
M  V30 22251 C 2041.49 -2.69305 -2.05738 0
M  V30 22252 C 2040.66 -3.9824 -1.80897 0
M  V30 22253 C 2039.72 -4.36838 -2.93358 0
M  V30 22254 O 2038.75 -5.04516 -2.63539 0
M  V30 22255 N 2039.95 -3.99254 -4.21398 0
M  V30 22256 H 2042.72 -2.98477 -0.270484 0
M  V30 22257 H 2040.28 -1.619 -0.000606634 0
M  V30 22258 H 2042.27 -2.92119 -2.80087 0
M  V30 22259 H 2040.84 -1.91023 -2.47445 0
M  V30 22260 H 2040.06 -3.83695 -0.903963 0
M  V30 22261 H 2041.35 -4.82428 -1.6168 0
M  V30 22262 H 2040.74 -3.44791 -4.48482 0
M  V30 22263 H 2039.3 -4.27047 -4.92417 0
M  V30 22264 N 2042.73 0.0918577 -1.57332 0
M  V30 22265 C 2044.01 0.826617 -1.77275 0
M  V30 22266 C 2044.39 1.96778 -0.764311 0
M  V30 22267 O 2043.74 2.27564 0.20656 0
M  V30 22268 C 2043.95 1.3182 -3.23148 0
M  V30 22269 C 2045.3 1.75968 -3.8642 0
M  V30 22270 O 2046.32 1.41435 -3.26917 0
M  V30 22271 O 2045.18 2.39831 -4.91063 0
M  V30 22272 H 2042.27 0.394537 -0.726821 0
M  V30 22273 H 2044.82 0.0734883 -1.69541 0
M  V30 22274 H 2043.59 0.500733 -3.88083 0
M  V30 22275 H 2043.22 2.13324 -3.35527 0
M  V30 22276 N 2044.21 1.53368 0.362763 0
M  V30 22277 C 2045.62 1.61344 0.939417 0
M  V30 22278 C 2045.97 0.48262 1.90172 0
M  V30 22279 O 2045.1 -0.39054 2.12847 0
M  V30 22280 C 2045.69 2.92445 1.71059 0
M  V30 22281 C 2044.25 3.02747 2.23654 0
M  V30 22282 C 2043.4 2.5666 1.0498 0
M  V30 22283 H 2046.35 1.58068 0.141471 0
M  V30 22284 H 2046.37 2.80406 2.57201 0
M  V30 22285 H 2045.88 3.74728 1.00996 0
M  V30 22286 H 2043.99 2.25057 2.96951 0
M  V30 22287 H 2044.1 4.07877 2.51343 0
M  V30 22288 H 2042.46 2.11603 1.41761 0
M  V30 22289 H 2043.25 3.41364 0.364111 0
M  V30 22290 N 2045.69 -0.62272 1.44776 0
M  V30 22291 C 2046.94 -1.37812 1.47278 0
M  V30 22292 C 2047.25 -1.95276 0.112585 0
M  V30 22293 O 2048.46 -2.71496 0.0151784 0
M  V30 22294 C 2046.91 -2.49557 2.59325 0
M  V30 22295 C 2046.52 -1.9857 4.01589 0
M  V30 22296 C 2048.27 -3.26693 2.71057 0
M  V30 22297 C 2046.17 -3.07707 5.05045 0
M  V30 22298 H 2045.1 -0.517918 0.547976 0
M  V30 22299 H 2047.75 -0.669045 1.70868 0
M  V30 22300 H 2046.14 -3.23078 2.2899 0
M  V30 22301 H 2047.31 -1.31858 4.41532 0
M  V30 22302 H 2045.63 -1.34224 3.94174 0
M  V30 22303 H 2048.22 -4.08067 3.45521 0
M  V30 22304 H 2048.57 -3.76721 1.77164 0
M  V30 22305 H 2049.1 -2.60265 3.00844 0
M  V30 22306 H 2045.84 -2.62614 6.00595 0
M  V30 22307 H 2045.36 -3.73034 4.69687 0
M  V30 22308 H 2047.04 -3.72343 5.29121 0
M  V30 22309 N 2047.17 -1.31814 -0.863883 0
M  V30 22310 C 2048.1 -1.22574 -1.98741 0
M  V30 22311 C 2049.08 -0.111585 -1.69734 0
M  V30 22312 O 2050.26 -0.29721 -1.91912 0
M  V30 22313 C 2047.39 -0.938559 -3.34378 0
M  V30 22314 C 2046.35 -2.01295 -3.7771 0
M  V30 22315 C 2045.67 -1.57834 -5.10874 0
M  V30 22316 C 2046.97 -3.42684 -3.94164 0
M  V30 22317 H 2048.67 -2.16572 -2.06729 0
M  V30 22318 H 2046.21 -1.04262 -0.993246 0
M  V30 22319 H 2048.17 -0.860501 -4.12521 0
M  V30 22320 H 2046.89 0.0370783 -3.26579 0
M  V30 22321 H 2045.55 -2.081 -3.01811 0
M  V30 22322 H 2045.2 -0.5904 -4.99523 0
M  V30 22323 H 2044.9 -2.29713 -5.40838 0
M  V30 22324 H 2046.42 -1.51448 -5.9152 0
M  V30 22325 H 2047.84 -3.38519 -4.62685 0
M  V30 22326 H 2046.23 -4.12833 -4.35533 0
M  V30 22327 H 2047.3 -3.83023 -2.97358 0
M  V30 22328 N 2048.65 1.07897 -1.14873 0
M  V30 22329 C 2049.89 1.80386 -0.920169 0
M  V30 22330 C 2050.22 1.86473 0.553002 0
M  V30 22331 O 2049.48 1.3404 1.4259 0
M  V30 22332 C 2049.78 3.25649 -1.47267 0
M  V30 22333 C 2049.44 3.39671 -2.96537 0
M  V30 22334 C 2048.1 3.43205 -3.37288 0
M  V30 22335 C 2050.46 3.42923 -3.92496 0
M  V30 22336 C 2047.78 3.47589 -4.72651 0
M  V30 22337 C 2050.14 3.48843 -5.27723 0
M  V30 22338 C 2048.8 3.50652 -5.67978 0
M  V30 22339 H 2048.07 0.66008 -0.336714 0
M  V30 22340 H 2050.72 1.27004 -1.43326 0
M  V30 22341 H 2049.02 3.81775 -0.880635 0
M  V30 22342 H 2050.72 3.80301 -1.2717 0
M  V30 22343 H 2047.31 3.37615 -2.64034 0
M  V30 22344 H 2051.49 3.39419 -3.62089 0
M  V30 22345 H 2046.75 3.47285 -5.03193 0
M  V30 22346 H 2050.92 3.50305 -6.0188 0
M  V30 22347 H 2048.55 3.53802 -6.72851 0
M  V30 22348 N 2050.12 0.944665 1.2615 0
M  V30 22349 C 2051.35 0.610451 1.98213 0
M  V30 22350 C 2051.77 -0.808401 1.69843 0
M  V30 22351 O 2051.13 -1.5451 0.948491 0
M  V30 22352 C 2051.18 0.863318 3.50113 0
M  V30 22353 O 2050.28 -0.062849 4.12352 0
M  V30 22354 H 2049.63 0.233139 0.621725 0
M  V30 22355 H 2052.16 1.26855 1.60527 0
M  V30 22356 H 2052.17 0.785602 4.00365 0
M  V30 22357 H 2050.84 1.89748 3.70092 0
M  V30 22358 H 2049.42 0.066222 3.72841 0
M  V30 22359 N 2051.6 -1.40596 0.712085 0
M  V30 22360 C 2052.85 -2.00553 0.249593 0
M  V30 22361 C 2053.17 -1.56736 -1.16012 0
M  V30 22362 O 2052.44 -0.805259 -1.78584 0
M  V30 22363 H 2051.02 -0.741644 0.0892885 0
M  V30 22364 H 2053.68 -1.71984 0.916933 0
M  V30 22365 H 2052.78 -3.10842 0.279939 0
M  V30 22366 N 2053.08 -0.458013 -1.50798 0
M  V30 22367 C 2054.31 0.10185 -2.0715 0
M  V30 22368 C 2054.73 1.33899 -1.32109 0
M  V30 22369 O 2054.09 1.77589 -0.364928 0
M  V30 22370 C 2054.14 0.381979 -3.58571 0
M  V30 22371 O 2053.24 1.46484 -3.85508 0
M  V30 22372 H 2052.58 -0.00721903 -0.663961 0
M  V30 22373 H 2055.11 -0.645297 -1.94157 0
M  V30 22374 H 2055.12 0.626354 -4.03163 0
M  V30 22375 H 2053.8 -0.522121 -4.1261 0
M  V30 22376 H 2052.37 1.20881 -3.52764 0
M  V30 22377 N 2054.56 1.56449 -0.190119 0
M  V30 22378 C 2055.49 2.21861 0.728019 0
M  V30 22379 C 2056.47 1.18012 1.22504 0
M  V30 22380 O 2057.66 1.46503 1.27478 0
M  V30 22381 C 2054.79 2.87407 1.94973 0
M  V30 22382 C 2053.74 3.97457 1.58782 0
M  V30 22383 C 2053.07 4.50144 2.88573 0
M  V30 22384 C 2054.37 5.16113 0.801535 0
M  V30 22385 H 2056.06 2.98842 0.182734 0
M  V30 22386 H 2053.61 1.4374 0.0864508 0
M  V30 22387 H 2055.56 3.31848 2.59721 0
M  V30 22388 H 2054.28 2.07824 2.51946 0
M  V30 22389 H 2052.94 3.537 0.96395 0
M  V30 22390 H 2052.59 3.67328 3.43626 0
M  V30 22391 H 2052.29 5.24398 2.65105 0
M  V30 22392 H 2053.81 4.97283 3.54318 0
M  V30 22393 H 2055.23 5.5713 1.35201 0
M  V30 22394 H 2053.62 5.96402 0.66517 0
M  V30 22395 H 2054.69 4.84494 -0.198407 0
M  V30 22396 N 2056.04 -0.0835127 1.57379 0
M  V30 22397 C 2057.45 -0.438018 1.53472 0
M  V30 22398 C 2057.65 -1.79853 0.908578 0
M  V30 22399 O 2056.71 -2.47377 0.506047 0
M  V30 22400 C 2058.02 -0.389855 2.98162 0
M  V30 22401 C 2059.57 -0.470883 3.09438 0
M  V30 22402 C 2060.05 -0.452749 4.55757 0
M  V30 22403 N 2061.54 -0.513166 4.60349 0
M  V30 22404 C 2062.27 -0.52116 5.71027 0
M  V30 22405 N 2061.77 -0.484668 6.91103 0
M  V30 22406 N 2063.56 -0.566841 5.59235 0
M  V30 22407 H 2055.71 0.807491 1.96452 0
M  V30 22408 H 2057.97 0.301793 0.89868 0
M  V30 22409 H 2057.68 0.542902 3.47484 0
M  V30 22410 H 2057.55 -1.20449 3.57452 0
M  V30 22411 H 2059.94 -1.39406 2.60096 0
M  V30 22412 H 2060.02 0.372104 2.53079 0
M  V30 22413 H 2059.67 0.466533 5.05753 0
M  V30 22414 H 2059.6 -1.31311 5.09966 0
M  V30 22415 H 2062.09 -0.546093 3.73933 0
M  V30 22416 H 2062.4 -0.494371 7.71217 0
M  V30 22417 H 2060.75 -0.451537 6.93532 0
M  V30 22418 H 2063.94 -0.59296 4.64329 0
M  V30 22419 H 2064.11 -0.569602 6.45492 0
M  V30 22420 N 2057.52 -1.53558 -0.354624 0
M  V30 22421 C 2058.45 -1.75568 -1.45778 0
M  V30 22422 C 2059.43 -0.604381 -1.5095 0
M  V30 22423 O 2060.61 -0.838257 -1.68836 0
M  V30 22424 C 2057.74 -1.84435 -2.8408 0
M  V30 22425 C 2056.78 -3.06498 -2.96583 0
M  V30 22426 S 2057.62 -4.65789 -2.64199 0
M  V30 22427 C 2058.77 -4.7752 -4.0463 0
M  V30 22428 H 2059.01 -2.68861 -1.2689 0
M  V30 22429 H 2056.54 -1.44286 -0.549628 0
M  V30 22430 H 2058.5 -1.90229 -3.63762 0
M  V30 22431 H 2057.16 -0.921738 -3.00271 0
M  V30 22432 H 2056.35 -3.09344 -3.97897 0
M  V30 22433 H 2055.95 -2.98873 -2.24836 0
M  V30 22434 H 2058.24 -4.58248 -4.99014 0
M  V30 22435 H 2059.19 -5.79597 -4.06784 0
M  V30 22436 H 2059.6 -4.06062 -3.9214 0
M  V30 22437 N 2058.99 0.615033 -1.45104 0
M  V30 22438 C 2059.94 1.74733 -1.53529 0
M  V30 22439 C 2060.94 1.64468 -0.405784 0
M  V30 22440 O 2062.14 1.70352 -0.581394 0
M  V30 22441 H 2058.52 0.577146 -0.482086 0
M  V30 22442 H 2060.49 1.64752 -2.48796 0
M  V30 22443 C 2059.24 3.13102 -1.51204 0
M  V30 22444 H 2058.56 3.21656 -2.3744 0
M  V30 22445 H 2060 3.92179 -1.61158 0
M  V30 22446 C 2058.46 3.36077 -0.235281 0
M  V30 22447 O 2058.99 3.95765 0.687942 0
M  V30 22448 N 2057.19 2.90294 -0.133321 0
M  V30 22449 H 2056.74 2.41903 -0.885467 0
M  V30 22450 H 2056.7 3.06041 0.720147 0
M  V30 22451 N 2060.47 1.3227 0.85688 0
M  V30 22452 C 2061.4 1.23626 1.98088 0
M  V30 22453 C 2062.38 0.120585 1.69672 0
M  V30 22454 O 2063.57 0.307383 1.91752 0
M  V30 22455 C 2060.7 0.956279 3.33875 0
M  V30 22456 C 2059.65 2.03295 3.76637 0
M  V30 22457 C 2058.98 1.60541 5.1003 0
M  V30 22458 C 2060.28 3.4477 3.92341 0
M  V30 22459 H 2061.97 2.17665 2.05578 0
M  V30 22460 H 2059.52 1.04788 0.987703 0
M  V30 22461 H 2061.47 0.882366 4.12059 0
M  V30 22462 H 2060.19 -0.0197585 3.26594 0
M  V30 22463 H 2058.85 2.09698 3.00703 0
M  V30 22464 H 2058.5 0.616883 4.99203 0
M  V30 22465 H 2058.2 2.32578 5.39612 0
M  V30 22466 H 2059.73 1.54582 5.90709 0
M  V30 22467 H 2061.14 3.40968 4.60884 0
M  V30 22468 H 2059.54 4.15137 4.33338 0
M  V30 22469 H 2060.61 3.84594 2.95322 0
M  V30 22470 N 2061.95 -1.07287 1.15444 0
M  V30 22471 C 2063.23 -1.76634 0.840221 0
M  V30 22472 C 2063.61 -2.00384 -0.664037 0
M  V30 22473 O 2062.95 -1.62284 -1.60861 0
M  V30 22474 C 2063.16 -3.07439 1.65174 0
M  V30 22475 C 2064.51 -3.81773 1.85835 0
M  V30 22476 O 2065.54 -3.17252 1.61955 0
M  V30 22477 O 2064.4 -4.97656 2.25834 0
M  V30 22478 H 2061.49 -0.76708 0.309059 0
M  V30 22479 H 2064.04 -1.13646 1.26026 0
M  V30 22480 H 2062.81 -2.85774 2.67299 0
M  V30 22481 H 2062.43 -3.78159 1.22807 0
M  V30 22482 N 2063.43 -0.951342 -1.25647 0
M  V30 22483 C 2064.84 -0.645559 -1.75184 0
M  V30 22484 C 2065.19 0.83913 -1.7735 0
M  V30 22485 O 2064.31 1.65671 -1.3922 0
M  V30 22486 C 2064.91 -1.16512 -3.18136 0
M  V30 22487 C 2063.47 -0.90956 -3.65245 0
M  V30 22488 C 2062.62 -1.31009 -2.44401 0
M  V30 22489 H 2065.57 -1.12852 -1.1158 0
M  V30 22490 H 2065.59 -0.523662 -3.76879 0
M  V30 22491 H 2065.1 -2.24571 -3.16527 0
M  V30 22492 H 2063.2 0.156212 -3.72272 0
M  V30 22493 H 2063.31 -1.54371 -4.53549 0
M  V30 22494 H 2061.68 -0.728474 -2.4406 0
M  V30 22495 H 2062.46 -2.39983 -2.45486 0
M  V30 22496 N 2064.91 1.40216 -0.719531 0
M  V30 22497 C 2066.15 2.00814 -0.26074 0
M  V30 22498 C 2066.48 1.5706 1.14727 0
M  V30 22499 O 2065.74 0.783515 1.79331 0
M  V30 22500 C 2066.03 3.56196 -0.293164 0
M  V30 22501 C 2065.7 4.19546 -1.65202 0
M  V30 22502 C 2064.36 4.36564 -2.02398 0
M  V30 22503 C 2066.71 4.54844 -2.54492 0
M  V30 22504 C 2064.04 4.86164 -3.28422 0
M  V30 22505 C 2066.39 5.05845 -3.79873 0
M  V30 22506 C 2065.06 5.21072 -4.17181 0
M  V30 22507 H 2064.33 0.734832 -0.0954117 0
M  V30 22508 H 2066.98 1.6777 -0.923337 0
M  V30 22509 H 2065.28 3.89172 0.453006 0
M  V30 22510 H 2066.98 4.00921 0.0797168 0
M  V30 22511 H 2063.57 4.06691 -1.35278 0
M  V30 22512 H 2067.75 4.41329 -2.2703 0
M  V30 22513 H 2063.01 4.96138 -3.57292 0
M  V30 22514 H 2067.18 5.32134 -4.49229 0
M  V30 22515 H 2064.81 5.59268 -5.14902 0
M  V30 22516 N 2066.38 0.466004 1.50553 0
M  V30 22517 C 2067.33 -0.344889 2.30029 0
M  V30 22518 C 2068.33 -0.995031 1.37097 0
M  V30 22519 O 2069.53 -0.926717 1.54311 0
M  V30 22520 H 2065.91 -0.130059 0.740668 0
M  V30 22521 H 2067.88 0.345888 2.96389 0
M  V30 22522 C 2066.63 -1.41723 3.17506 0
M  V30 22523 H 2065.95 -0.926335 3.8892 0
M  V30 22524 H 2067.39 -1.95728 3.7612 0
M  V30 22525 C 2065.85 -2.41636 2.34763 0
M  V30 22526 O 2066.38 -3.46798 2.02716 0
M  V30 22527 N 2064.58 -2.13228 1.97439 0
M  V30 22528 H 2064.13 -1.27733 2.23701 0
M  V30 22529 H 2064.09 -2.80313 1.4238 0
M  V30 22530 N 2067.86 -1.56346 0.198413 0
M  V30 22531 C 2068.81 -2.20589 -0.737791 0
M  V30 22532 C 2069.8 -1.17807 -1.21729 0
M  V30 22533 O 2071.01 -1.35944 -1.1798 0
M  V30 22534 H 2067.38 -0.706982 -0.256282 0
M  V30 22535 H 2069.36 -2.97902 -0.172284 0
M  V30 22536 C 2068.1 -2.88187 -1.94534 0
M  V30 22537 H 2067.43 -3.6702 -1.58545 0
M  V30 22538 H 2068.87 -3.3657 -2.57869 0
M  V30 22539 C 2067.33 -1.89401 -2.7862 0
M  V30 22540 O 2067.86 -1.39638 -3.76649 0
M  V30 22541 N 2066.06 -1.57557 -2.4418 0
M  V30 22542 H 2065.61 -1.98218 -1.64521 0
M  V30 22543 H 2065.57 -0.917179 -3.00724 0
M  V30 22544 N 2069.34 0.0751653 -1.57421 0
M  V30 22545 C 2070.57 0.786829 -1.9103 0
M  V30 22546 C 2070.98 1.71812 -0.792303 0
M  V30 22547 O 2070.32 1.8208 0.243447 0
M  V30 22548 C 2070.38 1.63681 -3.20076 0
M  V30 22549 C 2070.05 0.875252 -4.4854 0
M  V30 22550 C 2071.04 0.196017 -5.1953 0
M  V30 22551 C 2068.73 0.843425 -4.95168 0
M  V30 22552 C 2070.72 -0.504853 -6.35398 0
M  V30 22553 C 2068.41 0.13878 -6.10942 0
M  V30 22554 C 2069.41 -0.534162 -6.80908 0
M  V30 22555 O 2069.1 -1.22746 -7.94474 0
M  V30 22556 H 2068.83 0.229074 -0.636004 0
M  V30 22557 H 2071.38 0.0507529 -2.05337 0
M  V30 22558 H 2069.61 2.41561 -3.01969 0
M  V30 22559 H 2071.3 2.22685 -3.39362 0
M  V30 22560 H 2072.07 0.211935 -4.84537 0
M  V30 22561 H 2067.95 1.35667 -4.40585 0
M  V30 22562 H 2071.49 -1.03067 -6.89944 0
M  V30 22563 H 2067.39 0.120778 -6.45387 0
M  V30 22564 H 2068.16 -1.13639 -8.10573 0
M  V30 22565 N 2070.82 1.53744 0.346476 0
M  V30 22566 C 2072.04 1.75095 1.1116 0
M  V30 22567 C 2072.47 0.487459 1.81674 0
M  V30 22568 O 2071.83 -0.55973 1.72443 0
M  V30 22569 C 2071.87 2.92927 2.103 0
M  V30 22570 O 2070.98 2.62871 3.17762 0
M  V30 22571 H 2070.32 0.580905 0.321629 0
M  V30 22572 H 2072.85 2.00696 0.397762 0
M  V30 22573 H 2072.86 3.19633 2.53572 0
M  V30 22574 H 2071.53 3.84566 1.58372 0
M  V30 22575 H 2070.11 2.47043 2.79328 0
M  V30 22576 N 2072.3 -0.607329 1.45428 0
M  V30 22577 C 2073.57 -1.36669 1.39932 0
M  V30 22578 C 2073.95 -2.10984 0.0700663 0
M  V30 22579 O 2073.3 -2.07907 -0.947984 0
M  V30 22580 C 2073.51 -2.3133 2.61319 0
M  V30 22581 C 2074.86 -2.93928 3.06417 0
M  V30 22582 O 2075.88 -2.4165 2.61694 0
M  V30 22583 O 2074.74 -3.88823 3.8403 0
M  V30 22584 H 2071.84 -0.61283 0.55531 0
M  V30 22585 H 2074.38 -0.630396 1.57557 0
M  V30 22586 H 2073.15 -1.75677 3.49647 0
M  V30 22587 H 2072.78 -3.12338 2.4603 0
M  V30 22588 N 2073.77 -1.32722 -0.849853 0
M  V30 22589 C 2074.68 -1.2407 -1.99108 0
M  V30 22590 C 2075.7 -0.153362 -1.73323 0
M  V30 22591 O 2076.88 -0.374928 -1.97879 0
M  V30 22592 C 2073.94 -0.96896 -3.32884 0
M  V30 22593 C 2073 -2.14522 -3.71859 0
M  V30 22594 C 2072.24 -1.88635 -4.99252 0
M  V30 22595 O 2072.46 -0.831259 -5.6431 0
M  V30 22596 O 2071.39 -2.74872 -5.35471 0
M  V30 22597 H 2075.22 -2.20019 -2.09345 0
M  V30 22598 H 2072.8 -1.1266 -0.981232 0
M  V30 22599 H 2074.69 -0.834109 -4.13062 0
M  V30 22600 H 2073.36 -0.0396635 -3.23676 0
M  V30 22601 H 2072.27 -2.33556 -2.92237 0
M  V30 22602 H 2073.6 -3.05747 -3.8572 0
M  V30 22603 N 2075.25 1.06673 -1.16011 0
M  V30 22604 C 2076.16 2.17576 -0.877386 0
M  V30 22605 C 2077.18 1.73362 0.148919 0
M  V30 22606 O 2078.35 2.01382 -0.0268051 0
M  V30 22607 C 2075.42 3.44631 -0.378223 0
M  V30 22608 C 2074.48 4.03374 -1.46928 0
M  V30 22609 C 2073.71 5.24365 -0.993837 0
M  V30 22610 O 2073.94 5.70181 0.157925 0
M  V30 22611 O 2072.87 5.74962 -1.78052 0
M  V30 22612 H 2076.7 2.44264 -1.80468 0
M  V30 22613 H 2074.28 1.1614 -0.939777 0
M  V30 22614 H 2076.16 4.21265 -0.106644 0
M  V30 22615 H 2074.84 3.19478 0.521114 0
M  V30 22616 H 2073.75 3.28248 -1.79455 0
M  V30 22617 H 2075.08 4.32814 -2.34378 0
M  V30 22618 N 2076.73 0.957992 1.25141 0
M  V30 22619 C 2077.98 0.610242 1.92247 0
M  V30 22620 C 2078.29 -0.857187 1.75817 0
M  V30 22621 O 2079.5 -1.31504 2.37527 0
M  V30 22622 C 2077.95 1.04075 3.44524 0
M  V30 22623 C 2077.56 2.53095 3.69658 0
M  V30 22624 C 2079.31 0.765685 4.17537 0
M  V30 22625 C 2077.21 2.89928 5.15457 0
M  V30 22626 H 2076.14 0.224526 0.719794 0
M  V30 22627 H 2078.79 1.1629 1.41947 0
M  V30 22628 H 2077.18 0.416478 3.93804 0
M  V30 22629 H 2078.35 3.20569 3.31017 0
M  V30 22630 H 2076.67 2.78108 3.09911 0
M  V30 22631 H 2079.26 1.017 5.24939 0
M  V30 22632 H 2079.61 -0.297957 4.15232 0
M  V30 22633 H 2080.14 1.35046 3.74176 0
M  V30 22634 H 2076.88 3.95324 5.22876 0
M  V30 22635 H 2076.4 2.2713 5.55132 0
M  V30 22636 H 2078.08 2.79304 5.83608 0
M  V30 22637 N 2078.21 -1.39832 0.726957 0
M  V30 22638 C 2079.45 -2.01454 0.280653 0
M  V30 22639 C 2079.81 -1.56637 -1.11725 0
M  V30 22640 O 2079.1 -0.781652 -1.74931 0
M  V30 22641 C 2079.3 -3.56035 0.31205 0
M  V30 22642 C 2079.13 -4.15859 1.71146 0
M  V30 22643 C 2077.9 -4.48798 2.32181 0
M  V30 22644 C 2080.09 -4.39946 2.66368 0
M  V30 22645 N 2078.08 -4.9408 3.6436 0
M  V30 22646 C 2079.45 -4.87344 3.8327 0
M  V30 22647 C 2081.5 -4.22001 2.64234 0
M  V30 22648 C 2080.2 -5.1868 4.98361 0
M  V30 22649 C 2082.23 -4.54446 3.78462 0
M  V30 22650 C 2081.59 -5.02043 4.94098 0
M  V30 22651 H 2077.69 -0.767716 0.14878 0
M  V30 22652 H 2080.28 -1.69883 0.951199 0
M  V30 22653 H 2078.45 -3.87012 -0.328108 0
M  V30 22654 H 2080.18 -4.04414 -0.152041 0
M  V30 22655 H 2076.93 -4.36321 1.84177 0
M  V30 22656 H 2077.36 -5.21088 4.32199 0
M  V30 22657 H 2082 -3.84412 1.76031 0
M  V30 22658 H 2079.72 -5.55177 5.872 0
M  V30 22659 H 2083.3 -4.42191 3.78098 0
M  V30 22660 H 2082.18 -5.26673 5.81021 0
M  V30 22661 N 2079.69 -0.473982 -1.50304 0
M  V30 22662 C 2080.63 0.318686 -2.28589 0
M  V30 22663 C 2081.6 0.984628 -1.3377 0
M  V30 22664 O 2082.79 0.996508 -1.62709 0
M  V30 22665 C 2079.93 1.39305 -3.15734 0
M  V30 22666 C 2079.04 0.7416 -4.25587 0
M  V30 22667 C 2078.18 1.79411 -4.99985 0
M  V30 22668 C 2077.22 1.12306 -6.01709 0
M  V30 22669 N 2076.35 2.11854 -6.69374 0
M  V30 22670 H 2081.19 -0.3552 -2.95876 0
M  V30 22671 H 2078.73 -0.187014 -1.45906 0
M  V30 22672 H 2080.69 2.02764 -3.64613 0
M  V30 22673 H 2079.32 2.03607 -2.50488 0
M  V30 22674 H 2078.37 -0.00562528 -3.804 0
M  V30 22675 H 2079.68 0.212032 -4.98349 0
M  V30 22676 H 2078.84 2.50443 -5.52597 0
M  V30 22677 H 2077.57 2.35749 -4.26936 0
M  V30 22678 H 2076.58 0.398372 -5.48355 0
M  V30 22679 H 2077.8 0.566533 -6.76733 0
M  V30 22680 H 2075.75 2.67204 -5.99114 0
M  V30 22681 H 2075.67 1.6389 -7.38022 0
M  V30 22682 H 2076.94 2.82258 -7.26602 0
M  V30 22683 N 2081.16 1.56239 -0.206702 0
M  V30 22684 C 2082.13 2.18382 0.695843 0
M  V30 22685 C 2083.13 1.14149 1.13255 0
M  V30 22686 O 2084.32 1.39468 1.04376 0
M  V30 22687 C 2081.45 2.79522 1.95141 0
M  V30 22688 H 2082.64 2.99503 0.154275 0
M  V30 22689 H 2080.2 1.56241 0.0429222 0
M  V30 22690 H 2080.93 2.02231 2.53521 0
M  V30 22691 H 2080.72 3.55837 1.64689 0
M  V30 22692 H 2082.21 3.27203 2.59476 0
M  V30 22693 N 2082.64 -0.0668159 1.57458 0
M  V30 22694 C 2083.57 -1.0791 2.07069 0
M  V30 22695 C 2084.55 -1.40063 0.965207 0
M  V30 22696 O 2085.74 -1.49604 1.23823 0
M  V30 22697 C 2082.87 -2.39113 2.51877 0
M  V30 22698 C 2081.82 -2.213 3.66347 0
M  V30 22699 C 2081.15 -3.57931 3.97227 0
M  V30 22700 C 2082.45 -1.63013 4.9621 0
M  V30 22701 H 2084.14 -0.666254 2.91893 0
M  V30 22702 H 2081.69 -0.319039 1.40421 0
M  V30 22703 H 2083.64 -3.10226 2.85198 0
M  V30 22704 H 2082.37 -2.82387 1.64088 0
M  V30 22705 H 2081.02 -1.52628 3.33317 0
M  V30 22706 H 2080.67 -3.98784 3.06562 0
M  V30 22707 H 2080.37 -3.4685 4.74309 0
M  V30 22708 H 2081.9 -4.30467 4.33048 0
M  V30 22709 H 2083.31 -2.23997 5.27729 0
M  V30 22710 H 2081.71 -1.62614 5.77648 0
M  V30 22711 H 2082.78 -0.592078 4.81272 0
M  V30 22712 N 2084.12 -1.53926 -0.338317 0
M  V30 22713 C 2085.03 -1.85282 -1.43902 0
M  V30 22714 C 2086.05 -0.743407 -1.5732 0
M  V30 22715 O 2087.22 -1.03624 -1.72697 0
M  V30 22716 C 2084.29 -2.06058 -2.78821 0
M  V30 22717 C 2083.35 -3.29903 -2.74704 0
M  V30 22718 C 2082.58 -3.49679 -4.03188 0
M  V30 22719 O 2082.81 -2.73186 -5.00725 0
M  V30 22720 O 2081.74 -4.43121 -4.07342 0
M  V30 22721 H 2085.57 -2.78849 -1.2032 0
M  V30 22722 H 2083.15 -1.39646 -0.530982 0
M  V30 22723 H 2085.03 -2.21138 -3.58714 0
M  V30 22724 H 2083.71 -1.15679 -3.02325 0
M  V30 22725 H 2082.61 -3.20222 -1.93413 0
M  V30 22726 H 2083.95 -4.20292 -2.56155 0
M  V30 22727 N 2085.6 0.599608 -1.45748 0
M  V30 22728 C 2086.53 1.72038 -1.57877 0
M  V30 22729 C 2087.51 1.64578 -0.429893 0
M  V30 22730 O 2088.7 1.82855 -0.654037 0
M  V30 22731 C 2085.83 3.10657 -1.55272 0
M  V30 22732 C 2084.78 3.32936 -2.68957 0
M  V30 22733 C 2084.11 4.71909 -2.51408 0
M  V30 22734 C 2085.41 3.22412 -4.10911 0
M  V30 22735 H 2087.1 1.62144 -2.51694 0
M  V30 22736 H 2084.65 0.778641 -1.21133 0
M  V30 22737 H 2086.6 3.8887 -1.62353 0
M  V30 22738 H 2085.32 3.21411 -0.579891 0
M  V30 22739 H 2083.98 2.57117 -2.61317 0
M  V30 22740 H 2083.63 4.79406 -1.52247 0
M  V30 22741 H 2083.33 4.8777 -3.2765 0
M  V30 22742 H 2084.85 5.52311 -2.60355 0
M  V30 22743 H 2086.27 3.90488 -4.19752 0
M  V30 22744 H 2084.66 3.498 -4.87607 0
M  V30 22745 H 2085.73 2.19732 -4.32256 0
M  V30 22746 N 2087.08 1.33171 0.842803 0
M  V30 22747 C 2088.04 1.23019 1.93388 0
M  V30 22748 C 2089.04 0.15022 1.60097 0
M  V30 22749 O 2090.23 0.401472 1.69511 0
M  V30 22750 C 2087.36 0.89468 3.2895 0
M  V30 22751 H 2088.56 2.19997 2.03817 0
M  V30 22752 H 2086.11 1.17173 1.03442 0
M  V30 22753 H 2086.84 -0.0727774 3.24218 0
M  V30 22754 H 2086.63 1.67563 3.54493 0
M  V30 22755 H 2088.12 0.848284 4.08894 0
M  V30 22756 N 2088.56 -1.06056 1.16576 0
M  V30 22757 C 2089.51 -2.11853 0.842761 0
M  V30 22758 C 2090.49 -1.59903 -0.178851 0
M  V30 22759 O 2091.68 -1.76986 0.0223245 0
M  V30 22760 C 2088.81 -3.41529 0.348238 0
M  V30 22761 C 2087.9 -4.00299 1.40077 0
M  V30 22762 N 2088.29 -4.33148 2.61183 0
M  V30 22763 C 2086.59 -4.27932 1.25659 0
M  V30 22764 C 2087.29 -4.79896 3.28747 0
M  V30 22765 N 2086.26 -4.79479 2.56126 0
M  V30 22766 H 2090.06 -2.351 1.76366 0
M  V30 22767 H 2087.58 -1.23621 1.05317 0
M  V30 22768 H 2089.58 -4.16784 0.0984337 0
M  V30 22769 H 2088.24 -3.19719 -0.566566 0
M  V30 22770 H 2089.25 -4.23421 2.9822 0
M  V30 22771 H 2085.92 -4.15553 0.402732 0
M  V30 22772 H 2087.31 -5.14497 4.32137 0
M  V30 22773 N 2090.03 -0.964615 -1.24631 0
M  V30 22774 C 2090.96 -0.511091 -2.27838 0
M  V30 22775 C 2091.94 0.447692 -1.64103 0
M  V30 22776 O 2093.13 0.344485 -1.9112 0
M  V30 22777 C 2090.26 0.202467 -3.46709 0
M  V30 22778 C 2089.21 -0.672032 -4.22691 0
M  V30 22779 C 2088.54 0.172842 -5.34421 0
M  V30 22780 C 2089.84 -1.9551 -4.84327 0
M  V30 22781 H 2091.53 -1.37371 -2.66025 0
M  V30 22782 H 2089.08 -0.661983 -1.27882 0
M  V30 22783 H 2091.03 0.530942 -4.18042 0
M  V30 22784 H 2089.76 1.09942 -3.07539 0
M  V30 22785 H 2088.42 -0.983734 -3.53155 0
M  V30 22786 H 2088.06 1.06985 -4.91491 0
M  V30 22787 H 2087.76 -0.409046 -5.86175 0
M  V30 22788 H 2089.29 0.496057 -6.08582 0
M  V30 22789 H 2090.7 -1.69241 -5.4775 0
M  V30 22790 H 2089.1 -2.48346 -5.46301 0
M  V30 22791 H 2090.17 -2.65197 -4.05954 0
M  V30 22792 N 2091.51 1.39445 -0.734362 0
M  V30 22793 C 2092.46 2.30609 -0.093969 0
M  V30 22794 C 2093.43 1.49181 0.730356 0
M  V30 22795 O 2094.61 1.77869 0.69045 0
M  V30 22796 C 2091.75 3.35512 0.807817 0
M  V30 22797 C 2090.87 4.3199 -0.0290549 0
M  V30 22798 C 2090 5.23961 0.873946 0
M  V30 22799 C 2089.04 6.12091 0.0322837 0
M  V30 22800 N 2088.18 6.96421 0.891182 0
M  V30 22801 H 2093.02 2.84802 -0.877022 0
M  V30 22802 H 2090.55 1.40234 -0.444152 0
M  V30 22803 H 2092.51 3.94922 1.34509 0
M  V30 22804 H 2091.14 2.82775 1.55685 0
M  V30 22805 H 2090.19 3.74205 -0.683744 0
M  V30 22806 H 2091.51 4.94145 -0.679865 0
M  V30 22807 H 2090.66 5.88394 1.47909 0
M  V30 22808 H 2089.4 4.62127 1.55854 0
M  V30 22809 H 2088.4 5.46672 -0.585665 0
M  V30 22810 H 2089.63 6.75991 -0.649081 0
M  V30 22811 H 2087.58 6.37155 1.56108 0
M  V30 22812 H 2087.49 7.55417 0.296837 0
M  V30 22813 H 2088.76 7.65284 1.48191 0
M  V30 22814 N 2092.99 0.481946 1.5005 0
M  V30 22815 C 2094.21 -0.0688814 2.07286 0
M  V30 22816 C 2094.64 -1.3178 1.34222 0
M  V30 22817 O 2094 -1.76986 0.393135 0
M  V30 22818 C 2094.05 -0.324885 3.59133 0
M  V30 22819 O 2093.15 -1.40333 3.87789 0
M  V30 22820 H 2092.49 0.0177812 0.663762 0
M  V30 22821 H 2095.02 0.676104 1.93106 0
M  V30 22822 H 2095.03 -0.562135 4.04109 0
M  V30 22823 H 2093.71 0.587698 4.11727 0
M  V30 22824 H 2092.28 -1.15253 3.54642 0
M  V30 22825 N 2094.47 -1.56127 0.214985 0
M  V30 22826 C 2095.71 -1.98129 -0.41849 0
M  V30 22827 C 2096.04 -1.10246 -1.60238 0
M  V30 22828 O 2095.3 -0.145925 -1.95155 0
M  V30 22829 C 2095.6 -3.45828 -0.902084 0
M  V30 22830 C 2095.26 -4.50577 0.170573 0
M  V30 22831 C 2093.92 -4.78945 0.465258 0
M  V30 22832 C 2096.28 -5.13434 0.896355 0
M  V30 22833 C 2093.6 -5.67455 1.49036 0
M  V30 22834 C 2095.96 -6.03053 1.91074 0
M  V30 22835 C 2094.62 -6.29768 2.21242 0
M  V30 22836 H 2093.89 -0.725004 -0.153136 0
M  V30 22837 H 2096.54 -1.88873 0.316127 0
M  V30 22838 H 2094.84 -3.52255 -1.71534 0
M  V30 22839 H 2096.54 -3.75694 -1.40196 0
M  V30 22840 H 2093.13 -4.28544 -0.0692657 0
M  V30 22841 H 2097.31 -4.91593 0.681928 0
M  V30 22842 H 2092.57 -5.8642 1.72978 0
M  V30 22843 H 2096.74 -6.50812 2.47824 0
M  V30 22844 H 2094.37 -6.9815 3.00817 0
M  V30 22845 N 2095.95 0.0584645 -1.57492 0
M  V30 22846 C 2097.19 0.75619 -1.88174 0
M  V30 22847 C 2097.52 1.76546 -0.809018 0
M  V30 22848 O 2096.8 1.93672 0.179286 0
M  V30 22849 C 2097.08 1.45223 -3.29518 0
M  V30 22850 C 2096.94 0.458472 -4.47457 0
M  V30 22851 C 2098.25 2.39381 -3.69303 0
M  V30 22852 H 2095.37 0.27344 -0.684397 0
M  V30 22853 H 2098.02 0.0191997 -1.8999 0
M  V30 22854 H 2096.17 2.08044 -3.28101 0
M  V30 22855 H 2097.84 -0.165547 -4.61003 0
M  V30 22856 H 2096.08 -0.225018 -4.33216 0
M  V30 22857 H 2096.75 0.983384 -5.4317 0
M  V30 22858 H 2099.23 1.86628 -3.719 0
M  V30 22859 H 2098.1 2.85078 -4.69065 0
M  V30 22860 H 2098.36 3.24775 -2.99956 0
M  V30 22861 N 2097.42 1.54103 0.330149 0
M  V30 22862 C 2098.39 1.82317 1.389 0
M  V30 22863 C 2099.39 0.694711 1.45019 0
M  V30 22864 O 2100.58 0.963016 1.45161 0
M  V30 22865 C 2097.71 1.97727 2.77699 0
M  V30 22866 H 2098.9 2.76916 1.15141 0
M  V30 22867 H 2096.45 1.4572 0.565276 0
M  V30 22868 H 2097.19 1.05316 3.06723 0
M  V30 22869 H 2096.97 2.79837 2.74652 0
M  V30 22870 H 2098.46 2.21026 3.54313 0
M  V30 22871 N 2098.9 -0.59187 1.46064 0
M  V30 22872 C 2100.13 -1.38153 1.54688 0
M  V30 22873 C 2100.55 -1.87183 0.185547 0
M  V30 22874 O 2099.91 -1.61046 -0.832694 0
M  V30 22875 C 2099.96 -2.55134 2.54831 0
M  V30 22876 O 2099.06 -3.56279 2.077 0
M  V30 22877 H 2098.4 -0.41181 0.520873 0
M  V30 22878 H 2100.93 -0.718824 1.91557 0
M  V30 22879 H 2100.94 -3.02173 2.74145 0
M  V30 22880 H 2099.62 -2.188 3.53694 0
M  V30 22881 H 2098.2 -3.15782 1.98333 0
M  V30 22882 N 2100.38 -1.33616 -0.835729 0
M  V30 22883 C 2101.31 -1.26762 -1.96096 0
M  V30 22884 C 2102.29 -0.147563 -1.69459 0
M  V30 22885 O 2103.48 -0.33785 -1.91239 0
M  V30 22886 C 2100.61 -1.00927 -3.32312 0
M  V30 22887 C 2099.56 -2.09261 -3.73355 0
M  V30 22888 C 2098.89 -1.68635 -5.07411 0
M  V30 22889 C 2100.19 -3.50968 -3.86806 0
M  V30 22890 H 2101.88 -2.20908 -2.02089 0
M  V30 22891 H 2099.43 -1.06346 -0.970907 0
M  V30 22892 H 2101.38 -0.947809 -4.10603 0
M  V30 22893 H 2100.1 -0.0322023 -3.26584 0
M  V30 22894 H 2098.76 -2.14455 -2.97329 0
M  V30 22895 H 2098.41 -0.696223 -4.98158 0
M  V30 22896 H 2098.11 -2.41134 -5.35844 0
M  V30 22897 H 2099.63 -1.63961 -5.88175 0
M  V30 22898 H 2101.05 -3.48257 -4.55401 0
M  V30 22899 H 2099.45 -4.21978 -4.26678 0
M  V30 22900 H 2100.52 -3.89244 -2.89166 0
M  V30 22901 N 2101.86 1.05436 -1.17136 0
M  V30 22902 C 2102.79 2.13111 -0.843582 0
M  V30 22903 C 2103.8 1.6208 0.152942 0
M  V30 22904 O 2104.99 1.78351 -0.0730153 0
M  V30 22905 C 2102.09 3.38072 -0.236753 0
M  V30 22906 C 2101.27 4.18389 -1.27553 0
M  V30 22907 C 2100.32 5.21697 -0.686916 0
M  V30 22908 O 2099.35 5.52761 -1.35807 0
M  V30 22909 N 2100.55 5.78146 0.522229 0
M  V30 22910 H 2103.32 2.41827 -1.7703 0
M  V30 22911 H 2100.88 1.21513 -1.06987 0
M  V30 22912 H 2102.87 4.04342 0.170262 0
M  V30 22913 H 2101.44 3.0691 0.593699 0
M  V30 22914 H 2100.66 3.47645 -1.85839 0
M  V30 22915 H 2101.95 4.6885 -1.97628 0
M  V30 22916 H 2101.35 5.55188 1.0855 0
M  V30 22917 H 2099.9 6.4595 0.871341 0
M  V30 22918 N 2103.34 0.971211 1.24118 0
M  V30 22919 C 2104.27 0.523167 2.27564 0
M  V30 22920 C 2105.25 -0.438983 1.64338 0
M  V30 22921 O 2106.43 -0.334345 1.913 0
M  V30 22922 C 2103.56 -0.184078 3.46812 0
M  V30 22923 C 2102.52 0.694439 4.22329 0
M  V30 22924 C 2101.84 -0.144498 5.34505 0
M  V30 22925 C 2103.14 1.98076 4.83284 0
M  V30 22926 H 2104.84 1.3878 2.65293 0
M  V30 22927 H 2102.38 0.668756 1.27529 0
M  V30 22928 H 2104.34 -0.508765 4.18318 0
M  V30 22929 H 2103.06 -1.08309 3.08118 0
M  V30 22930 H 2101.72 1.00245 3.52628 0
M  V30 22931 H 2101.37 -1.04377 4.92051 0
M  V30 22932 H 2101.07 0.440127 5.85949 0
M  V30 22933 H 2102.59 -0.463776 6.08836 0
M  V30 22934 H 2104 1.72143 5.46845 0
M  V30 22935 H 2102.4 2.5124 5.44976 0
M  V30 22936 H 2103.47 2.67346 4.04542 0
M  V30 22937 N 2104.81 -1.39054 0.741747 0
M  V30 22938 C 2106.06 -1.99978 0.292077 0
M  V30 22939 C 2106.38 -1.59162 -1.12662 0
M  V30 22940 O 2105.65 -0.842958 -1.76836 0
M  V30 22941 H 2104.23 -0.739584 0.105 0
M  V30 22942 H 2106.9 -1.7 0.953207 0
M  V30 22943 H 2105.99 -3.10178 0.34581 0
M  V30 22944 N 2106.29 -0.489897 -1.49792 0
M  V30 22945 C 2107.22 0.283966 -2.31767 0
M  V30 22946 C 2108.2 0.972934 -1.39528 0
M  V30 22947 O 2109.39 0.966482 -1.68442 0
M  V30 22948 C 2106.52 1.35538 -3.19761 0
M  V30 22949 C 2105.47 0.786932 -4.20703 0
M  V30 22950 C 2104.8 1.95803 -4.97559 0
M  V30 22951 C 2106.1 -0.214528 -5.21859 0
M  V30 22952 H 2107.79 -0.40025 -2.96713 0
M  V30 22953 H 2105.34 -0.193932 -1.42688 0
M  V30 22954 H 2107.29 1.90438 -3.75914 0
M  V30 22955 H 2106.02 2.06862 -2.52736 0
M  V30 22956 H 2104.67 0.259755 -3.65679 0
M  V30 22957 H 2104.32 2.65871 -4.26992 0
M  V30 22958 H 2104.02 1.58381 -5.65853 0
M  V30 22959 H 2105.55 2.51159 -5.56553 0
M  V30 22960 H 2106.96 0.245954 -5.72772 0
M  V30 22961 H 2105.36 -0.504002 -5.9798 0
M  V30 22962 H 2106.43 -1.13417 -4.71449 0
M  V30 22963 N 2107.77 1.56011 -0.223262 0
M  V30 22964 C 2109 2.03189 0.415817 0
M  V30 22965 C 2109.42 1.102 1.52439 0
M  V30 22966 O 2108.78 0.0904999 1.81074 0
M  V30 22967 C 2108.83 3.48586 0.923053 0
M  V30 22968 O 2107.93 3.58734 2.03429 0
M  V30 22969 H 2107.27 0.65733 0.0938783 0
M  V30 22970 H 2109.8 2.01715 -0.342399 0
M  V30 22971 H 2109.81 3.88941 1.23243 0
M  V30 22972 H 2108.49 4.1575 0.11169 0
M  V30 22973 H 2107.06 3.30267 1.73142 0
M  V30 22974 N 2109.25 -0.0501116 1.5752 0
M  V30 22975 C 2110.2 -1.06457 2.01621 0
M  V30 22976 C 2111.18 -1.3325 0.901851 0
M  V30 22977 O 2112.37 -1.33187 1.16577 0
M  V30 22978 C 2109.5 -2.37203 2.48173 0
M  V30 22979 C 2108.59 -2.13592 3.66387 0
M  V30 22980 N 2108.98 -1.59973 4.79836 0
M  V30 22981 C 2107.28 -2.43972 3.73355 0
M  V30 22982 C 2107.98 -1.5168 5.61576 0
M  V30 22983 N 2106.96 -1.985 5.06062 0
M  V30 22984 H 2110.76 -0.643677 2.86765 0
M  V30 22985 H 2108.27 -0.256812 1.60357 0
M  V30 22986 H 2110.27 -3.10665 2.78016 0
M  V30 22987 H 2108.93 -2.7999 1.64425 0
M  V30 22988 H 2109.94 -1.28533 5.01697 0
M  V30 22989 H 2106.62 -2.89977 3.00366 0
M  V30 22990 H 2108.01 -1.10893 6.62686 0
M  V30 22991 N 2110.73 -1.54276 -0.321972 0
M  V30 22992 C 2111.64 -1.86797 -1.41929 0
M  V30 22993 C 2112.65 -0.760051 -1.56522 0
M  V30 22994 O 2113.83 -1.0545 -1.71588 0
M  V30 22995 C 2110.89 -2.09003 -2.7662 0
M  V30 22996 C 2109.95 -3.32799 -2.71189 0
M  V30 22997 C 2109.19 -3.53936 -3.99456 0
M  V30 22998 O 2109.41 -2.78482 -4.97799 0
M  V30 22999 O 2108.34 -4.47417 -4.02619 0
M  V30 23000 H 2112.17 -2.8011 -1.17355 0
M  V30 23001 H 2109.76 -1.40201 -0.516141 0
M  V30 23002 H 2111.64 -2.2493 -3.56349 0
M  V30 23003 H 2110.31 -1.18879 -3.01081 0
M  V30 23004 H 2109.22 -3.22256 -1.90006 0
M  V30 23005 H 2110.55 -4.22986 -2.51683 0
M  V30 23006 N 2112.2 0.584116 -1.46376 0
M  V30 23007 C 2113.45 1.34437 -1.51837 0
M  V30 23008 C 2113.78 1.93464 -0.168948 0
M  V30 23009 O 2113.06 1.76395 0.819455 0
M  V30 23010 C 2113.34 2.47477 -2.61586 0
M  V30 23011 C 2113.19 1.93494 -4.06054 0
M  V30 23012 C 2114.51 3.49527 -2.6743 0
M  V30 23013 H 2111.63 0.487455 -0.552772 0
M  V30 23014 H 2114.27 0.656303 -1.78305 0
M  V30 23015 H 2112.42 3.0617 -2.39148 0
M  V30 23016 H 2114.1 1.39268 -4.39775 0
M  V30 23017 H 2112.34 1.24333 -4.15601 0
M  V30 23018 H 2113.01 2.75087 -4.78572 0
M  V30 23019 H 2115.49 3.00712 -2.87596 0
M  V30 23020 H 2114.36 4.26082 -3.46043 0
M  V30 23021 H 2114.62 4.06664 -1.73426 0
M  V30 23022 N 2113.68 1.34058 0.828631 0
M  V30 23023 C 2114.91 1.29156 1.61636 0
M  V30 23024 C 2115.33 -0.135511 1.88313 0
M  V30 23025 O 2114.68 -1.08084 1.47051 0
M  V30 23026 C 2114.73 2.07436 2.96062 0
M  V30 23027 O 2114.46 3.44577 2.70552 0
M  V30 23028 C 2115.96 2.09865 3.90476 0
M  V30 23029 H 2113.18 0.444543 0.502615 0
M  V30 23030 H 2115.72 1.76585 1.0314 0
M  V30 23031 H 2113.88 1.63663 3.51131 0
M  V30 23032 H 2114.29 3.84972 3.56225 0
M  V30 23033 H 2115.76 2.69071 4.8198 0
M  V30 23034 H 2116.24 1.09155 4.2542 0
M  V30 23035 H 2116.85 2.53702 3.41344 0
M  V30 23036 N 2115.16 -1.04814 1.17694 0
M  V30 23037 C 2116.07 -2.16152 0.911889 0
M  V30 23038 C 2117.09 -1.73577 -0.121319 0
M  V30 23039 O 2118.26 -2.01314 0.0588399 0
M  V30 23040 C 2115.33 -3.43985 0.433003 0
M  V30 23041 C 2114.39 -4.00986 1.53326 0
M  V30 23042 C 2113.62 -5.22717 1.07713 0
M  V30 23043 O 2113.85 -5.7036 -0.0671938 0
M  V30 23044 O 2112.78 -5.72056 1.87176 0
M  V30 23045 H 2116.61 -2.41362 1.84331 0
M  V30 23046 H 2114.19 -1.1463 0.958135 0
M  V30 23047 H 2116.07 -4.21042 0.17365 0
M  V30 23048 H 2114.75 -3.20266 -0.470221 0
M  V30 23049 H 2113.65 -3.25352 1.84654 0
M  V30 23050 H 2114.99 -4.2903 2.41234 0
M  V30 23051 N 2116.64 -0.977779 -1.23601 0
M  V30 23052 C 2117.6 -0.520908 -2.23202 0
M  V30 23053 C 2118.6 0.38804 -1.56048 0
M  V30 23054 O 2119.79 0.182096 -1.73246 0
M  V30 23055 C 2116.92 0.244298 -3.40024 0
M  V30 23056 H 2118.12 -1.40154 -2.65135 0
M  V30 23057 H 2115.67 -0.763397 -1.36389 0
M  V30 23058 H 2116.41 1.14159 -3.03543 0
M  V30 23059 H 2116.19 -0.408125 -3.8997 0
M  V30 23060 H 2117.68 0.55263 -4.13927 0
M  V30 23061 N 2118.12 1.38658 -0.749111 0
M  V30 23062 C 2119.37 1.99821 -0.302678 0
M  V30 23063 C 2119.69 1.59757 1.11816 0
M  V30 23064 O 2118.96 0.852324 1.76387 0
M  V30 23065 H 2117.54 0.739016 -0.108921 0
M  V30 23066 H 2120.2 1.69492 -0.962209 0
M  V30 23067 H 2119.29 3.09991 -0.362255 0
M  V30 23068 N 2119.6 0.497834 1.49531 0
M  V30 23069 C 2120.84 -0.0477142 2.02044 0
M  V30 23070 C 2121.16 -1.37777 1.37994 0
M  V30 23071 O 2120.43 -1.88476 0.534194 0
M  V30 23072 H 2119.01 -0.0206231 0.746715 0
M  V30 23073 H 2121.68 0.654353 1.83587 0
M  V30 23074 H 2120.77 -0.179706 3.11582 0
M  V30 23075 N 2121.07 -1.5589 0.231532 0
M  V30 23076 C 2122.02 -2.22104 -0.690835 0
M  V30 23077 C 2123.02 -1.20363 -1.19202 0
M  V30 23078 O 2124.22 -1.38416 -1.1507 0
M  V30 23079 H 2120.6 -0.712259 -0.241228 0
M  V30 23080 H 2122.57 -2.98201 -0.109056 0
M  V30 23081 C 2121.32 -2.92249 -1.88377 0
M  V30 23082 H 2120.64 -3.703 -1.50725 0
M  V30 23083 H 2122.08 -3.41964 -2.50672 0
M  V30 23084 C 2120.54 -1.95268 -2.7454 0
M  V30 23085 O 2121.07 -1.47596 -3.73602 0
M  V30 23086 N 2119.27 -1.62701 -2.40783 0
M  V30 23087 H 2118.82 -2.01663 -1.6028 0
M  V30 23088 H 2118.78 -0.98076 -2.98711 0
M  V30 23089 N 2122.55 0.0417572 -1.57545 0
M  V30 23090 C 2123.48 1.04602 -2.0876 0
M  V30 23091 C 2124.46 1.3851 -0.987368 0
M  V30 23092 O 2125.65 1.47615 -1.26188 0
M  V30 23093 C 2122.78 2.35076 -2.55649 0
M  V30 23094 C 2121.73 2.15444 -3.69821 0
M  V30 23095 C 2121.06 3.51566 -4.02871 0
M  V30 23096 C 2122.36 1.55098 -4.9874 0
M  V30 23097 H 2124.05 0.619732 -2.92916 0
M  V30 23098 H 2121.6 0.296659 -1.40911 0
M  V30 23099 H 2123.55 3.0565 -2.90097 0
M  V30 23100 H 2122.27 2.79741 -1.6856 0
M  V30 23101 H 2120.93 1.47306 -3.35703 0
M  V30 23102 H 2120.58 3.93857 -3.12867 0
M  V30 23103 H 2120.28 3.3926 -4.79767 0
M  V30 23104 H 2121.81 4.23523 -4.39842 0
M  V30 23105 H 2123.22 2.15573 -5.31226 0
M  V30 23106 H 2121.62 1.53403 -5.80162 0
M  V30 23107 H 2122.69 0.515437 -4.82153 0
M  V30 23108 N 2124.03 1.54445 0.313786 0
M  V30 23109 C 2125.25 1.77413 1.07421 0
M  V30 23110 C 2125.68 0.525885 1.80599 0
M  V30 23111 O 2125.04 -0.523027 1.73592 0
M  V30 23112 C 2125.09 2.97322 2.04039 0
M  V30 23113 O 2124.19 2.69552 3.12115 0
M  V30 23114 H 2123.53 0.587597 0.309235 0
M  V30 23115 H 2126.06 2.01495 0.355102 0
M  V30 23116 H 2126.07 3.2494 2.46735 0
M  V30 23117 H 2124.75 3.87839 1.5018 0
M  V30 23118 H 2123.32 2.52913 2.74025 0
M  V30 23119 N 2125.51 -0.576345 1.46683 0
M  V30 23120 C 2126.76 -1.33056 1.51588 0
M  V30 23121 C 2127.07 -1.94819 0.174653 0
M  V30 23122 O 2128.28 -2.7131 0.101545 0
M  V30 23123 C 2126.73 -2.4118 2.67133 0
M  V30 23124 C 2126.34 -1.85693 4.07703 0
M  V30 23125 C 2128.08 -3.17904 2.81314 0
M  V30 23126 C 2125.99 -2.91484 5.14579 0
M  V30 23127 H 2124.92 -0.500222 0.564175 0
M  V30 23128 H 2127.57 -0.614346 1.7291 0
M  V30 23129 H 2125.95 -3.1563 2.39152 0
M  V30 23130 H 2127.13 -1.17744 4.45503 0
M  V30 23131 H 2125.44 -1.21616 3.98244 0
M  V30 23132 H 2128.04 -3.96868 3.58329 0
M  V30 23133 H 2128.38 -3.70894 1.8906 0
M  V30 23134 H 2128.92 -2.50562 3.08971 0
M  V30 23135 H 2125.65 -2.43373 6.08646 0
M  V30 23136 H 2125.17 -3.57902 4.81317 0
M  V30 23137 H 2126.85 -3.55321 5.40699 0
M  V30 23138 N 2126.99 -1.34495 -0.82151 0
M  V30 23139 C 2128.23 -1.26681 -1.57469 0
M  V30 23140 C 2128.55 0.162701 -1.9432 0
M  V30 23141 O 2127.82 1.09566 -1.62395 0
M  V30 23142 H 2126.4 -0.465903 -0.583903 0
M  V30 23143 H 2129.07 -1.68424 -0.980791 0
M  V30 23144 H 2128.16 -1.87251 -2.49686 0
M  V30 23145 N 2128.46 1.04188 -1.18248 0
M  V30 23146 C 2129.4 2.12204 -0.866138 0
M  V30 23147 C 2130.41 1.62233 0.135743 0
M  V30 23148 O 2131.6 1.78263 -0.0919276 0
M  V30 23149 C 2128.7 3.37802 -0.272597 0
M  V30 23150 C 2127.87 4.17012 -1.31983 0
M  V30 23151 C 2126.93 5.20939 -0.74221 0
M  V30 23152 O 2125.96 5.5129 -1.41662 0
M  V30 23153 N 2127.16 5.78668 0.460879 0
M  V30 23154 H 2129.92 2.39936 -1.79585 0
M  V30 23155 H 2127.48 1.20371 -1.0827 0
M  V30 23156 H 2129.48 4.045 0.127367 0
M  V30 23157 H 2128.05 3.07523 0.561114 0
M  V30 23158 H 2127.27 3.45655 -1.89516 0
M  V30 23159 H 2128.55 4.66728 -2.0259 0
M  V30 23160 H 2127.95 5.56308 1.02655 0
M  V30 23161 H 2126.51 6.46837 0.80278 0
M  V30 23162 N 2129.94 0.98432 1.23081 0
M  V30 23163 C 2131.36 0.6936 1.43741 0
M  V30 23164 C 2131.56 -0.738828 1.87466 0
M  V30 23165 O 2130.61 -1.51079 2.02315 0
M  V30 23166 C 2131.93 1.69187 2.48589 0
M  V30 23167 C 2133.48 1.70635 2.62398 0
M  V30 23168 C 2133.95 2.69302 3.7046 0
M  V30 23169 N 2135.44 2.67844 3.77907 0
M  V30 23170 C 2136.18 3.40857 4.6109 0
M  V30 23171 N 2135.67 4.23441 5.48333 0
M  V30 23172 N 2137.47 3.29603 4.55322 0
M  V30 23173 H 2129.62 1.90957 0.930015 0
M  V30 23174 H 2131.88 0.823061 0.470398 0
M  V30 23175 H 2131.59 2.71646 2.23386 0
M  V30 23176 H 2131.46 1.47784 3.47044 0
M  V30 23177 H 2133.85 0.688782 2.86949 0
M  V30 23178 H 2133.93 1.96104 1.64246 0
M  V30 23179 H 2133.57 3.71203 3.46656 0
M  V30 23180 H 2133.5 2.41106 4.68162 0
M  V30 23181 H 2135.99 2.07913 3.15564 0
M  V30 23182 H 2136.31 4.75999 6.08806 0
M  V30 23183 H 2134.65 4.27531 5.47944 0
M  V30 23184 H 2137.84 2.64533 3.86186 0
M  V30 23185 H 2138.01 3.86764 5.19921 0
M  V30 23186 N 2131.42 -1.38259 0.756453 0
M  V30 23187 C 2132.35 -2.2902 0.0908208 0
M  V30 23188 C 2133.37 -1.47887 -0.680684 0
M  V30 23189 O 2134.55 -1.70718 -0.521301 0
M  V30 23190 C 2131.65 -3.26859 -0.895342 0
M  V30 23191 C 2130.83 -4.37026 -0.180877 0
M  V30 23192 C 2129.89 -5.15035 -1.0782 0
M  V30 23193 O 2128.91 -5.66559 -0.547658 0
M  V30 23194 N 2130.11 -5.28291 -2.40602 0
M  V30 23195 H 2132.88 -2.86785 0.870302 0
M  V30 23196 H 2130.44 -1.50071 0.607483 0
M  V30 23197 H 2132.43 -3.75926 -1.49873 0
M  V30 23198 H 2131 -2.69972 -1.57588 0
M  V30 23199 H 2130.22 -3.89557 0.603252 0
M  V30 23200 H 2131.51 -5.07834 0.313403 0
M  V30 23201 H 2130.91 -4.87986 -2.86158 0
M  V30 23202 H 2129.47 -5.80721 -2.95984 0
M  V30 23203 N 2132.9 -0.505757 -1.49264 0
M  V30 23204 C 2133.83 0.259368 -2.32055 0
M  V30 23205 C 2134.81 0.95808 -1.40552 0
M  V30 23206 O 2135.99 0.948562 -1.69458 0
M  V30 23207 C 2133.12 1.32138 -3.2118 0
M  V30 23208 C 2132.08 0.742267 -4.21514 0
M  V30 23209 C 2131.4 1.90515 -4.99608 0
M  V30 23210 C 2132.7 -0.269866 -5.21602 0
M  V30 23211 H 2134.4 -0.431697 -2.96271 0
M  V30 23212 H 2131.94 -0.209055 -1.42474 0
M  V30 23213 H 2133.9 1.86441 -3.77912 0
M  V30 23214 H 2132.62 2.0417 -2.54916 0
M  V30 23215 H 2131.28 0.220956 -3.65934 0
M  V30 23216 H 2130.93 2.61327 -4.29788 0
M  V30 23217 H 2130.63 1.52371 -5.67501 0
M  V30 23218 H 2132.15 2.45242 -5.59186 0
M  V30 23219 H 2133.57 0.18519 -5.73001 0
M  V30 23220 H 2131.96 -0.567397 -5.97412 0
M  V30 23221 H 2133.03 -1.18411 -4.7022 0
M  V30 23222 N 2134.38 1.55765 -0.239796 0
M  V30 23223 C 2135.31 2.24064 0.657067 0
M  V30 23224 C 2136.29 1.2185 1.18687 0
M  V30 23225 O 2137.47 1.50484 1.22753 0
M  V30 23226 C 2134.6 2.93465 1.8573 0
M  V30 23227 C 2133.56 4.02307 1.46057 0
M  V30 23228 C 2132.88 4.59097 2.74106 0
M  V30 23229 C 2134.18 5.18402 0.636932 0
M  V30 23230 H 2135.88 2.99272 0.0875675 0
M  V30 23231 H 2133.42 1.43943 0.0406772 0
M  V30 23232 H 2135.38 3.39943 2.49032 0
M  V30 23233 H 2134.1 2.15734 2.45207 0
M  V30 23234 H 2132.76 3.56588 0.850935 0
M  V30 23235 H 2132.41 3.78075 3.31766 0
M  V30 23236 H 2132.11 5.32566 2.48288 0
M  V30 23237 H 2133.63 5.08304 3.38318 0
M  V30 23238 H 2135.04 5.61149 1.17408 0
M  V30 23239 H 2133.44 5.98216 0.475092 0
M  V30 23240 H 2134.51 4.83617 -0.352445 0
M  V30 23241 N 2135.85 -0.0334016 1.57565 0
M  V30 23242 C 2137.09 -0.729978 1.90921 0
M  V30 23243 C 2137.46 -1.72752 0.8379 0
M  V30 23244 O 2138.66 -2.47203 1.05566 0
M  V30 23245 C 2136.93 -1.38584 3.29438 0
M  V30 23246 S 2138.49 -2.11217 3.8462 0
M  V30 23247 H 2135.31 -0.241926 0.668575 0
M  V30 23248 H 2137.91 0.0152577 1.95494 0
M  V30 23249 H 2136.61 -0.64653 4.05275 0
M  V30 23250 H 2136.14 -2.16971 3.28157 0
M  V30 23251 H 2138.16 -3.383 3.62998 0
M  V30 23252 N 2137.33 -1.54609 -0.305591 0
M  V30 23253 C 2138.26 -1.88242 -1.38157 0
M  V30 23254 C 2139.24 -0.740883 -1.53117 0
M  V30 23255 O 2140.43 -0.996214 -1.66701 0
M  V30 23256 C 2137.56 -2.12567 -2.7465 0
M  V30 23257 C 2136.51 -3.28415 -2.74459 0
M  V30 23258 C 2135.84 -3.38148 -4.14198 0
M  V30 23259 C 2137.14 -4.65633 -2.36607 0
M  V30 23260 H 2138.83 -2.78359 -1.10258 0
M  V30 23261 H 2136.38 -1.33933 -0.528959 0
M  V30 23262 H 2138.33 -2.34681 -3.50004 0
M  V30 23263 H 2137.06 -1.19216 -3.04064 0
M  V30 23264 H 2135.71 -3.06217 -2.01561 0
M  V30 23265 H 2135.36 -2.42323 -4.40782 0
M  V30 23266 H 2135.06 -4.16019 -4.14973 0
M  V30 23267 H 2136.59 -3.62517 -4.91339 0
M  V30 23268 H 2138 -4.87508 -3.01677 0
M  V30 23269 H 2136.4 -5.46184 -2.48603 0
M  V30 23270 H 2137.47 -4.66662 -1.31738 0
M  V30 23271 N 2138.81 0.568558 -1.46987 0
M  V30 23272 C 2140.06 1.3236 -1.52726 0
M  V30 23273 C 2140.38 1.94107 -0.186356 0
M  V30 23274 O 2139.65 1.79328 0.78857 0
M  V30 23275 H 2138.23 0.491483 -0.562542 0
M  V30 23276 H 2140.89 0.664797 -1.83212 0
M  V30 23277 H 2139.99 2.12301 -2.28768 0
M  V30 23278 N 2140.29 1.34929 0.814366 0
M  V30 23279 C 2141.7 1.14798 1.10877 0
M  V30 23280 C 2141.9 -0.0447901 2.0145 0
M  V30 23281 O 2140.96 -0.717746 2.42084 0
M  V30 23282 C 2142.27 2.44729 1.74724 0
M  V30 23283 C 2143.82 2.50864 1.8718 0
M  V30 23284 C 2144.3 3.80819 2.54443 0
M  V30 23285 N 2145.79 3.82027 2.61935 0
M  V30 23286 C 2146.52 4.79305 3.14729 0
M  V30 23287 N 2146.02 5.86969 3.68021 0
M  V30 23288 N 2147.81 4.6675 3.1321 0
M  V30 23289 H 2139.96 2.11338 0.212102 0
M  V30 23290 H 2142.23 0.934964 0.156671 0
M  V30 23291 H 2141.93 3.32146 1.15637 0
M  V30 23292 H 2141.81 2.58702 2.74505 0
M  V30 23293 H 2144.19 1.6388 2.45412 0
M  V30 23294 H 2144.27 2.40811 0.862763 0
M  V30 23295 H 2143.92 4.68196 1.96862 0
M  V30 23296 H 2143.85 3.88157 3.55867 0
M  V30 23297 H 2146.34 3.04231 2.2417 0
M  V30 23298 H 2146.65 6.57199 4.06582 0
M  V30 23299 H 2145 5.90671 3.66241 0
M  V30 23300 H 2148.19 3.81784 2.70849 0
M  V30 23301 H 2148.36 5.42728 3.54049 0
M  V30 23302 N 2141.77 -1.0356 1.18799 0
M  V30 23303 C 2142.73 -2.09853 0.921649 0
M  V30 23304 C 2143.73 -1.60519 -0.095096 0
M  V30 23305 O 2144.92 -1.73645 0.138909 0
M  V30 23306 C 2142.05 -3.38733 0.383809 0
M  V30 23307 H 2143.24 -2.34914 1.86428 0
M  V30 23308 H 2140.8 -1.20064 1.00071 0
M  V30 23309 H 2141.53 -3.19337 -0.565188 0
M  V30 23310 H 2141.32 -3.75859 1.11681 0
M  V30 23311 H 2142.81 -4.17039 0.216329 0
M  V30 23312 N 2143.25 -0.990834 -1.22557 0
M  V30 23313 C 2144.18 -0.559304 -2.26703 0
M  V30 23314 C 2145.16 0.412782 -1.65016 0
M  V30 23315 O 2146.34 0.303868 -1.91808 0
M  V30 23316 C 2143.47 0.12888 -3.47061 0
M  V30 23317 C 2142.43 -0.76154 -4.2117 0
M  V30 23318 C 2141.75 0.0594442 -5.34667 0
M  V30 23319 C 2143.05 -2.0574 -4.80071 0
M  V30 23320 H 2144.75 -1.42983 -2.63052 0
M  V30 23321 H 2142.29 -0.68896 -1.26449 0
M  V30 23322 H 2144.24 0.44215 -4.19074 0
M  V30 23323 H 2142.97 1.03394 -3.09802 0
M  V30 23324 H 2141.63 -1.05842 -3.50989 0
M  V30 23325 H 2141.28 0.965355 -4.9365 0
M  V30 23326 H 2140.98 -0.533291 -5.85175 0
M  V30 23327 H 2142.5 0.366857 -6.09497 0
M  V30 23328 H 2143.91 -1.80821 -5.44037 0
M  V30 23329 H 2142.31 -2.59878 -5.4091 0
M  V30 23330 H 2143.38 -2.73748 -4.00237 0
M  V30 23331 N 2144.72 1.37856 -0.763775 0
M  V30 23332 C 2145.65 2.32961 -0.158515 0
M  V30 23333 C 2146.63 1.55381 0.692142 0
M  V30 23334 O 2147.82 1.83655 0.631241 0
M  V30 23335 C 2144.95 3.39593 0.727585 0
M  V30 23336 C 2143.9 4.27995 -0.0211379 0
M  V30 23337 C 2143.23 5.2557 0.983884 0
M  V30 23338 C 2144.53 5.08434 -1.1955 0
M  V30 23339 H 2146.22 2.83828 -0.952999 0
M  V30 23340 H 2143.77 1.36465 -0.459721 0
M  V30 23341 H 2145.72 4.05098 1.16076 0
M  V30 23342 H 2144.45 2.87233 1.5545 0
M  V30 23343 H 2143.11 3.6401 -0.435002 0
M  V30 23344 H 2142.75 4.69493 1.80514 0
M  V30 23345 H 2142.45 5.85574 0.487507 0
M  V30 23346 H 2143.98 5.9395 1.41616 0
M  V30 23347 H 2145.39 5.67122 -0.839372 0
M  V30 23348 H 2143.79 5.77724 -1.62342 0
M  V30 23349 H 2144.86 4.41575 -2.00349 0
M  V30 23350 N 2146.2 0.513665 1.48994 0
M  V30 23351 C 2147.62 0.170439 1.58687 0
M  V30 23352 C 2147.82 -1.32564 1.51754 0
M  V30 23353 O 2146.87 -2.10262 1.39807 0
M  V30 23354 C 2148.19 0.758488 2.90977 0
M  V30 23355 C 2149.73 0.725739 3.0447 0
M  V30 23356 C 2150.21 1.29207 4.39397 0
M  V30 23357 N 2151.7 1.25333 4.45922 0
M  V30 23358 C 2152.44 1.66159 5.48798 0
M  V30 23359 N 2151.93 2.14638 6.58713 0
M  V30 23360 N 2153.72 1.57496 5.39584 0
M  V30 23361 H 2145.88 1.48619 1.51744 0
M  V30 23362 H 2148.14 0.617216 0.719548 0
M  V30 23363 H 2147.84 1.8082 3.01657 0
M  V30 23364 H 2147.72 0.226166 3.76521 0
M  V30 23365 H 2150.11 -0.315169 2.93412 0
M  V30 23366 H 2150.19 1.29535 2.20577 0
M  V30 23367 H 2149.83 2.33183 4.51207 0
M  V30 23368 H 2149.76 0.69829 5.2195 0
M  V30 23369 H 2152.25 0.89826 3.67069 0
M  V30 23370 H 2152.56 2.43827 7.33327 0
M  V30 23371 H 2150.91 2.18621 6.5972 0
M  V30 23372 H 2154.1 1.19432 4.52608 0
M  V30 23373 H 2154.27 1.89636 6.19631 0
M  V30 23374 N 2147.68 -1.55636 0.248053 0
M  V30 23375 C 2148.63 -2.21428 -0.651012 0
M  V30 23376 C 2149.6 -1.17855 -1.17045 0
M  V30 23377 O 2150.78 -1.46306 -1.22471 0
M  V30 23378 C 2147.92 -2.91846 -1.84174 0
M  V30 23379 C 2147.03 -4.10077 -1.35872 0
M  V30 23380 C 2146.17 -4.68207 -2.50909 0
M  V30 23381 C 2145.21 -5.78685 -1.99475 0
M  V30 23382 N 2144.35 -6.30993 -3.07883 0
M  V30 23383 H 2149.19 -2.97884 -0.0832758 0
M  V30 23384 H 2146.72 -1.47071 -0.0293424 0
M  V30 23385 H 2148.68 -3.30873 -2.54124 0
M  V30 23386 H 2147.31 -2.17862 -2.38193 0
M  V30 23387 H 2146.36 -3.76356 -0.553219 0
M  V30 23388 H 2147.67 -4.89829 -0.941776 0
M  V30 23389 H 2146.83 -5.09814 -3.28899 0
M  V30 23390 H 2145.57 -3.87674 -2.95905 0
M  V30 23391 H 2144.57 -5.36555 -1.19955 0
M  V30 23392 H 2145.8 -6.6107 -1.55447 0
M  V30 23393 H 2143.74 -5.53365 -3.52312 0
M  V30 23394 H 2143.66 -7.05941 -2.70523 0
M  V30 23395 H 2144.93 -6.77258 -3.8593 0
M  V30 23396 N 2149.16 0.0250451 -1.5758 0
M  V30 23397 C 2150.38 0.730408 -1.94113 0
M  V30 23398 C 2150.81 1.67882 -0.848362 0
M  V30 23399 O 2150.17 1.80242 0.195596 0
M  V30 23400 C 2150.21 1.46014 -3.29715 0
M  V30 23401 O 2149.32 2.57351 -3.22249 0
M  V30 23402 H 2148.66 0.196157 -0.634365 0
M  V30 23403 H 2151.19 -0.0206802 -2.0459 0
M  V30 23404 H 2151.2 1.82917 -3.64699 0
M  V30 23405 H 2149.87 0.764593 -4.08811 0
M  V30 23406 H 2148.45 2.22961 -2.98903 0
M  V30 23407 N 2150.64 1.54769 0.297388 0
M  V30 23408 C 2151.58 1.8597 1.36689 0
M  V30 23409 C 2152.55 0.708928 1.50211 0
M  V30 23410 O 2153.74 0.9579 1.65012 0
M  V30 23411 C 2150.88 2.11576 2.72635 0
M  V30 23412 C 2149.99 3.39191 2.67533 0
M  V30 23413 C 2149.13 3.54621 3.95496 0
M  V30 23414 C 2148.16 4.76015 3.84806 0
M  V30 23415 N 2147.3 4.88232 5.04553 0
M  V30 23416 H 2152.14 2.772 1.09381 0
M  V30 23417 H 2149.68 1.3726 0.528967 0
M  V30 23418 H 2151.64 2.24418 3.517 0
M  V30 23419 H 2150.27 1.23608 2.98196 0
M  V30 23420 H 2149.32 3.3495 1.80312 0
M  V30 23421 H 2150.63 4.28379 2.55525 0
M  V30 23422 H 2149.78 3.67147 4.82999 0
M  V30 23423 H 2148.52 2.63573 4.10342 0
M  V30 23424 H 2147.53 4.63518 2.95687 0
M  V30 23425 H 2148.75 5.68475 3.71502 0
M  V30 23426 H 2146.7 4.00108 5.19855 0
M  V30 23427 H 2146.62 5.71427 4.94982 0
M  V30 23428 H 2147.88 5.05119 5.93696 0
M  V30 23429 N 2152.11 -0.560755 1.47286 0
M  V30 23430 C 2153.36 -1.31441 1.52991 0
M  V30 23431 C 2153.68 -1.94622 0.195307 0
M  V30 23432 O 2154.88 -2.71187 0.130315 0
M  V30 23433 C 2153.34 -2.38334 2.69676 0
M  V30 23434 C 2152.95 -1.81358 4.0965 0
M  V30 23435 C 2154.69 -3.14902 2.8467 0
M  V30 23436 C 2152.6 -2.8601 5.17641 0
M  V30 23437 H 2151.53 -0.49421 0.569449 0
M  V30 23438 H 2154.18 -0.595972 1.73552 0
M  V30 23439 H 2152.56 -3.13075 2.42487 0
M  V30 23440 H 2153.73 -1.13012 4.46727 0
M  V30 23441 H 2152.05 -1.17385 3.99512 0
M  V30 23442 H 2154.65 -3.93045 3.62518 0
M  V30 23443 H 2154.99 -3.68868 1.92983 0
M  V30 23444 H 2155.52 -2.47271 3.11612 0
M  V30 23445 H 2152.26 -2.36904 6.11193 0
M  V30 23446 H 2151.78 -3.52777 4.85086 0
M  V30 23447 H 2153.46 -3.49566 5.44438 0
M  V30 23448 N 2153.59 -1.35359 -0.807199 0
M  V30 23449 C 2154.52 -1.30893 -1.93363 0
M  V30 23450 C 2155.5 -0.183475 -1.69108 0
M  V30 23451 O 2156.69 -0.378339 -1.90479 0
M  V30 23452 C 2153.82 -1.07954 -3.30096 0
M  V30 23453 C 2152.77 -2.17133 -3.68832 0
M  V30 23454 C 2152.1 -1.7936 -5.0372 0
M  V30 23455 C 2153.4 -3.59094 -3.79274 0
M  V30 23456 H 2155.09 -2.25145 -1.97357 0
M  V30 23457 H 2152.64 -1.08381 -0.948131 0
M  V30 23458 H 2154.59 -1.03469 -4.085 0
M  V30 23459 H 2153.31 -0.101468 -3.26442 0
M  V30 23460 H 2151.97 -2.20714 -2.92713 0
M  V30 23461 H 2151.62 -0.801733 -4.96569 0
M  V30 23462 H 2151.32 -2.52445 -5.30608 0
M  V30 23463 H 2152.85 -1.764 -5.84564 0
M  V30 23464 H 2154.26 -3.57839 -4.47911 0
M  V30 23465 H 2152.66 -4.30934 -4.17632 0
M  V30 23466 H 2153.73 -3.9529 -2.80845 0
M  V30 23467 N 2155.07 1.02928 -1.19346 0
M  V30 23468 C 2156.32 1.76582 -0.997324 0
M  V30 23469 C 2156.65 1.88407 0.470801 0
M  V30 23470 O 2155.92 1.40057 1.34961 0
M  V30 23471 C 2156.21 3.19219 -1.66647 0
M  V30 23472 C 2156.06 3.15268 -3.20822 0
M  V30 23473 C 2157.38 4.17602 -1.38912 0
M  V30 23474 H 2154.5 0.640995 -0.363722 0
M  V30 23475 H 2157.14 1.20159 -1.4718 0
M  V30 23476 H 2155.29 3.67395 -1.26306 0
M  V30 23477 H 2156.96 2.74993 -3.70374 0
M  V30 23478 H 2155.2 2.52994 -3.52387 0
M  V30 23479 H 2155.88 4.1604 -3.62788 0
M  V30 23480 H 2158.35 3.78025 -1.73887 0
M  V30 23481 H 2157.23 5.15597 -1.88283 0
M  V30 23482 H 2157.49 4.40982 -0.314198 0
M  V30 23483 N 2156.55 0.997319 1.2203 0
M  V30 23484 C 2157.48 0.571319 2.26403 0
M  V30 23485 C 2158.46 -0.404025 1.65232 0
M  V30 23486 O 2159.64 -0.293692 1.91966 0
M  V30 23487 C 2156.77 -0.110472 3.47124 0
M  V30 23488 C 2155.73 0.783865 4.20761 0
M  V30 23489 C 2155.05 -0.0310887 5.34691 0
M  V30 23490 C 2156.35 2.08283 4.78974 0
M  V30 23491 H 2158.05 1.44376 2.6229 0
M  V30 23492 H 2155.59 0.695656 1.26082 0
M  V30 23493 H 2157.55 -0.419919 4.19303 0
M  V30 23494 H 2156.27 -1.01749 3.10346 0
M  V30 23495 H 2154.93 1.07702 3.50422 0
M  V30 23496 H 2154.58 -0.939162 4.94155 0
M  V30 23497 H 2154.28 0.564316 5.84884 0
M  V30 23498 H 2155.8 -0.334528 6.09683 0
M  V30 23499 H 2157.22 1.83704 5.43071 0
M  V30 23500 H 2155.61 2.62743 5.39524 0
M  V30 23501 H 2156.68 2.75867 3.9878 0
M  V30 23502 N 2158.03 -1.37449 0.771075 0
M  V30 23503 C 2159.3 -1.93866 0.259851 0
M  V30 23504 C 2159.68 -1.7048 -1.24498 0
M  V30 23505 O 2159.03 -1.05322 -2.0278 0
M  V30 23506 C 2159.24 -3.4322 0.63251 0
M  V30 23507 C 2160.59 -4.20312 0.601925 0
M  V30 23508 O 2161.61 -3.5158 0.571859 0
M  V30 23509 O 2160.47 -5.42875 0.628405 0
M  V30 23510 H 2157.57 -0.824843 0.0596922 0
M  V30 23511 H 2160.11 -1.4674 0.852382 0
M  V30 23512 H 2158.88 -3.53822 1.6711 0
M  V30 23513 H 2158.51 -3.97598 0.0128904 0
M  V30 23514 N 2159.5 -0.52156 -1.4872 0
M  V30 23515 C 2160.41 0.249847 -2.33266 0
M  V30 23516 C 2161.43 0.947297 -1.45953 0
M  V30 23517 O 2162.61 0.924126 -1.78947 0
M  V30 23518 C 2159.67 1.28824 -3.21878 0
M  V30 23519 C 2158.73 0.602041 -4.25058 0
M  V30 23520 C 2157.97 1.59096 -5.09435 0
M  V30 23521 O 2158.19 2.82282 -4.95654 0
M  V30 23522 O 2157.12 1.13498 -5.91102 0
M  V30 23523 H 2160.95 -0.442725 -3.00456 0
M  V30 23524 H 2158.53 -0.282593 -1.46703 0
M  V30 23525 H 2160.42 1.88853 -3.76713 0
M  V30 23526 H 2159.09 1.96337 -2.57359 0
M  V30 23527 H 2158 -0.0385256 -3.7408 0
M  V30 23528 H 2159.33 -0.0310005 -4.9219 0
M  V30 23529 N 2160.98 1.55502 -0.256304 0
M  V30 23530 C 2161.95 2.20485 0.626014 0
M  V30 23531 C 2162.95 1.17694 1.09566 0
M  V30 23532 O 2164.14 1.42718 0.998856 0
M  V30 23533 C 2161.27 2.85589 1.86149 0
M  V30 23534 H 2162.46 2.99842 0.0589124 0
M  V30 23535 H 2160.01 1.56299 -0.0068064 0
M  V30 23536 H 2160.75 2.10195 2.46959 0
M  V30 23537 H 2160.53 3.60896 1.53285 0
M  V30 23538 H 2162.02 3.35293 2.48935 0
M  V30 23539 N 2162.46 -0.0166879 1.57591 0
M  V30 23540 C 2163.69 -0.716426 1.941 0
M  V30 23541 C 2164.1 -1.68225 0.857081 0
M  V30 23542 O 2163.46 -1.81748 -0.165469 0
M  V30 23543 C 2163.51 -1.46279 3.30583 0
M  V30 23544 O 2163.23 -0.535718 4.34812 0
M  V30 23545 C 2164.73 -2.25856 3.8145 0
M  V30 23546 H 2161.95 -0.200593 0.640315 0
M  V30 23547 H 2164.5 0.0294696 2.04479 0
M  V30 23548 H 2162.65 -2.16045 3.21564 0
M  V30 23549 H 2163.07 -1.06046 5.13668 0
M  V30 23550 H 2164.54 -2.73602 4.79423 0
M  V30 23551 H 2165.02 -3.07813 3.13285 0
M  V30 23552 H 2165.62 -1.61139 3.93592 0
M  V30 23553 N 2163.94 -1.54924 -0.289176 0
M  V30 23554 C 2164.9 -1.85935 -1.34017 0
M  V30 23555 C 2165.9 -0.732916 -1.43126 0
M  V30 23556 O 2167.09 -1.00116 -1.42556 0
M  V30 23557 C 2164.22 -2.0502 -2.72359 0
M  V30 23558 H 2165.42 -2.79872 -1.07758 0
M  V30 23559 H 2162.97 -1.47168 -0.526442 0
M  V30 23560 H 2163.7 -1.13412 -3.03823 0
M  V30 23561 H 2163.49 -2.8702 -2.67136 0
M  V30 23562 H 2164.98 -2.30342 -3.48328 0
M  V30 23563 N 2165.42 0.552936 -1.47582 0
M  V30 23564 C 2166.38 1.64175 -1.59936 0
M  V30 23565 C 2167.38 1.5365 -0.474152 0
M  V30 23566 O 2168.57 1.57732 -0.739338 0
M  V30 23567 C 2165.7 3.03732 -1.5479 0
M  V30 23568 H 2166.89 1.54569 -2.56999 0
M  V30 23569 H 2164.45 0.773198 -1.35836 0
M  V30 23570 H 2165.18 3.18866 -0.591183 0
M  V30 23571 H 2164.97 3.12779 -2.36456 0
M  V30 23572 H 2166.46 3.82936 -1.66582 0
M  V30 23573 N 2166.89 1.35785 0.800009 0
M  V30 23574 C 2168.14 1.29617 1.55972 0
M  V30 23575 C 2168.47 -0.12735 1.93782 0
M  V30 23576 O 2167.75 -1.07828 1.61875 0
M  V30 23577 C 2168.03 2.2089 2.84393 0
M  V30 23578 C 2167.88 3.7189 2.53018 0
M  V30 23579 C 2169.2 2.11141 3.86145 0
M  V30 23580 H 2166.32 0.472177 0.565878 0
M  V30 23581 H 2168.96 1.66245 0.919932 0
M  V30 23582 H 2167.11 1.89784 3.3899 0
M  V30 23583 H 2168.79 4.13468 2.04553 0
M  V30 23584 H 2167.03 3.91847 1.86114 0
M  V30 23585 H 2167.7 4.3115 3.44693 0
M  V30 23586 H 2170.18 2.38498 3.40966 0
M  V30 23587 H 2169.05 2.77192 4.73768 0
M  V30 23588 H 2169.31 1.09538 4.28315 0
M  V30 23589 N 2168.37 -1.02294 1.19891 0
M  V30 23590 C 2169.65 -1.72912 0.914382 0
M  V30 23591 C 2170.03 -2.0302 -0.57845 0
M  V30 23592 O 2169.38 -1.68961 -1.53833 0
M  V30 23593 C 2169.59 -3.00157 1.78064 0
M  V30 23594 C 2170.94 -3.73547 2.0186 0
M  V30 23595 O 2171.96 -3.10098 1.75265 0
M  V30 23596 O 2170.82 -4.87629 2.46738 0
M  V30 23597 H 2167.91 -0.753281 0.341315 0
M  V30 23598 H 2170.46 -1.08199 1.30733 0
M  V30 23599 H 2169.23 -2.7418 2.79179 0
M  V30 23600 H 2168.85 -3.7261 1.38736 0
M  V30 23601 N 2169.85 -1.00378 -1.21499 0
M  V30 23602 C 2170.78 -0.583318 -2.26097 0
M  V30 23603 C 2171.76 0.395257 -1.65444 0
M  V30 23604 O 2172.95 0.283508 -1.92119 0
M  V30 23605 C 2170.08 0.0920619 -3.47178 0
M  V30 23606 C 2169.03 -0.806168 -4.20339 0
M  V30 23607 C 2168.36 0.0027323 -5.347 0
M  V30 23608 C 2169.66 -2.1082 -4.77862 0
M  V30 23609 H 2171.35 -1.45765 -2.6152 0
M  V30 23610 H 2168.9 -0.702333 -1.25711 0
M  V30 23611 H 2170.85 0.397677 -4.19519 0
M  V30 23612 H 2169.57 1.00102 -3.10881 0
M  V30 23613 H 2168.23 -1.09559 -3.49846 0
M  V30 23614 H 2167.88 0.912942 -4.94646 0
M  V30 23615 H 2167.58 -0.595326 -5.84576 0
M  V30 23616 H 2169.1 0.302191 -6.09852 0
M  V30 23617 H 2170.52 -1.86581 -5.42089 0
M  V30 23618 H 2168.92 -2.656 -5.38123 0
M  V30 23619 H 2169.99 -2.77978 -3.97311 0
M  V30 23620 N 2171.33 1.37038 -0.778354 0
M  V30 23621 C 2172.24 2.33983 -0.170042 0
M  V30 23622 C 2173.25 1.60504 0.671902 0
M  V30 23623 O 2174.43 1.92556 0.590278 0
M  V30 23624 C 2171.5 3.39689 0.693729 0
M  V30 23625 C 2170.56 4.28981 -0.165434 0
M  V30 23626 C 2169.79 5.29638 0.657205 0
M  V30 23627 O 2170.01 5.38041 1.8939 0
M  V30 23628 O 2168.95 6.01867 0.0629255 0
M  V30 23629 H 2172.77 2.87749 -0.97131 0
M  V30 23630 H 2170.36 1.39314 -0.53962 0
M  V30 23631 H 2172.24 4.04348 1.18664 0
M  V30 23632 H 2170.91 2.8824 1.47307 0
M  V30 23633 H 2169.82 3.674 -0.704851 0
M  V30 23634 H 2171.15 4.83752 -0.908023 0
M  V30 23635 N 2172.81 0.529439 1.48441 0
M  V30 23636 C 2174.04 -0.000824174 2.069 0
M  V30 23637 C 2174.45 -1.28195 1.38605 0
M  V30 23638 O 2173.81 -1.76253 0.4734 0
M  V30 23639 C 2173.86 -0.229032 3.60774 0
M  V30 23640 O 2173.58 1.00134 4.26503 0
M  V30 23641 C 2175.08 -0.799736 4.36027 0
M  V30 23642 H 2172.3 0.0332691 0.670175 0
M  V30 23643 H 2174.84 0.734929 1.90838 0
M  V30 23644 H 2173 -0.914832 3.76443 0
M  V30 23645 H 2173.41 0.781737 5.18642 0
M  V30 23646 H 2174.89 -0.908842 5.44467 0
M  V30 23647 H 2175.36 -1.8045 4.00418 0
M  V30 23648 H 2175.97 -0.150518 4.25034 0
M  V30 23649 N 2174.29 -1.55364 0.264547 0
M  V30 23650 C 2175.56 -1.9133 -0.406489 0
M  V30 23651 C 2175.94 -1.18752 -1.74531 0
M  V30 23652 O 2175.29 -0.310831 -2.26376 0
M  V30 23653 C 2175.5 -3.44523 -0.557199 0
M  V30 23654 C 2176.85 -4.16107 -0.844973 0
M  V30 23655 O 2177.87 -3.50359 -0.642406 0
M  V30 23656 O 2176.73 -5.32438 -1.23175 0
M  V30 23657 H 2173.83 -0.796963 -0.220859 0
M  V30 23658 H 2176.37 -1.66846 0.309918 0
M  V30 23659 H 2175.14 -3.89397 0.385423 0
M  V30 23660 H 2174.77 -3.74926 -1.32348 0
M  V30 23661 N 2175.76 0.00833021 -1.57598 0
M  V30 23662 C 2176.71 1.0207 -2.09008 0
M  V30 23663 C 2177.71 1.36126 -1.00826 0
M  V30 23664 O 2178.91 1.34788 -1.19298 0
M  V30 23665 H 2175.29 0.346781 -0.667268 0
M  V30 23666 H 2177.26 0.561462 -2.9307 0
M  V30 23667 C 2176.01 2.30647 -2.60187 0
M  V30 23668 H 2175.33 2.05307 -3.43059 0
M  V30 23669 H 2176.77 2.9978 -2.99847 0
M  V30 23670 C 2175.23 3.01051 -1.51227 0
M  V30 23671 O 2175.76 3.91708 -0.890385 0
M  V30 23672 N 2173.96 2.62734 -1.24175 0
M  V30 23673 H 2173.51 1.89095 -1.74931 0
M  V30 23674 H 2173.47 3.10155 -0.514892 0
M  V30 23675 N 2177.24 1.55075 0.280956 0
M  V30 23676 C 2178.17 1.90416 1.35145 0
M  V30 23677 C 2179.15 0.765149 1.51919 0
M  V30 23678 O 2180.34 1.02261 1.65095 0
M  V30 23679 C 2177.47 2.16909 2.71233 0
M  V30 23680 C 2176.42 3.32739 2.692 0
M  V30 23681 C 2175.75 3.44695 4.08766 0
M  V30 23682 C 2177.05 4.69338 2.2917 0
M  V30 23683 H 2178.74 2.80078 1.05815 0
M  V30 23684 H 2176.29 1.34758 0.507584 0
M  V30 23685 H 2178.24 2.40219 3.46226 0
M  V30 23686 H 2176.96 1.24039 3.02129 0
M  V30 23687 H 2175.62 3.09385 1.96664 0
M  V30 23688 H 2175.27 2.49305 4.36871 0
M  V30 23689 H 2174.97 4.22568 4.08301 0
M  V30 23690 H 2176.5 3.70288 4.85509 0
M  V30 23691 H 2177.91 4.92246 2.93883 0
M  V30 23692 H 2176.31 5.5007 2.39882 0
M  V30 23693 H 2177.38 4.68698 1.24297 0
M  V30 23694 N 2178.72 -0.545102 1.47873 0
M  V30 23695 C 2179.97 -1.29811 1.54376 0
M  V30 23696 C 2180.28 -1.94404 0.215938 0
M  V30 23697 O 2181.49 -2.71034 0.159071 0
M  V30 23698 C 2179.94 -2.3546 2.72189 0
M  V30 23699 C 2179.55 -1.77003 4.11551 0
M  V30 23700 C 2181.3 -3.11865 2.87993 0
M  V30 23701 C 2179.2 -2.80503 5.20646 0
M  V30 23702 H 2178.13 -0.488142 0.574659 0
M  V30 23703 H 2180.78 -0.577531 1.74175 0
M  V30 23704 H 2179.17 -3.10486 2.45794 0
M  V30 23705 H 2180.34 -1.08268 4.479 0
M  V30 23706 H 2178.65 -1.13141 4.00734 0
M  V30 23707 H 2181.25 -3.89178 3.66666 0
M  V30 23708 H 2181.59 -3.668 1.96884 0
M  V30 23709 H 2182.13 -2.43952 3.14217 0
M  V30 23710 H 2178.87 -2.30408 6.13671 0
M  V30 23711 H 2178.39 -3.47612 4.888 0
M  V30 23712 H 2180.07 -3.43772 5.48115 0
M  V30 23713 N 2180.2 -1.36208 -0.792797 0
M  V30 23714 C 2181.13 -1.2612 -1.9138 0
M  V30 23715 C 2182.14 -0.181437 -1.61786 0
M  V30 23716 O 2183.33 -0.435871 -1.73097 0
M  V30 23717 C 2180.43 -0.922489 -3.26103 0
M  V30 23718 C 2179.6 -2.10345 -3.83502 0
M  V30 23719 C 2178.66 -1.73833 -4.96657 0
M  V30 23720 O 2177.69 -2.45879 -5.13354 0
M  V30 23721 N 2178.89 -0.670023 -5.7662 0
M  V30 23722 H 2181.66 -2.22705 -2.00556 0
M  V30 23723 H 2179.22 -1.29557 -0.970902 0
M  V30 23724 H 2181.21 -0.659458 -3.99291 0
M  V30 23725 H 2179.78 -0.0458868 -3.12566 0
M  V30 23726 H 2179 -2.52948 -3.02342 0
M  V30 23727 H 2180.29 -2.89252 -4.18582 0
M  V30 23728 H 2179.69 -0.0717267 -5.65655 0
M  V30 23729 H 2178.24 -0.466808 -6.50126 0
M  V30 23730 N 2181.68 1.01656 -1.20431 0
M  V30 23731 C 2182.9 1.78855 -1.04012 0
M  V30 23732 C 2183.32 1.8428 0.410661 0
M  V30 23733 O 2182.68 1.29579 1.28512 0
M  V30 23734 C 2182.73 3.23321 -1.61696 0
M  V30 23735 O 2182.45 3.18233 -3.01097 0
M  V30 23736 C 2183.95 4.17068 -1.5023 0
M  V30 23737 H 2181.17 0.562464 -0.36589 0
M  V30 23738 H 2183.71 1.27961 -1.59519 0
M  V30 23739 H 2181.87 3.71363 -1.10309 0
M  V30 23740 H 2182.28 4.08911 -3.28469 0
M  V30 23741 H 2183.76 5.16277 -1.95352 0
M  V30 23742 H 2184.23 4.36839 -0.454792 0
M  V30 23743 H 2184.84 3.74908 -2.00808 0
M  V30 23744 N 2183.15 1.01021 1.20965 0
M  V30 23745 C 2184.38 0.71488 1.94157 0
M  V30 23746 C 2184.8 -0.723393 1.74392 0
M  V30 23747 O 2184.15 -1.48999 1.05383 0
M  V30 23748 C 2184.2 1.033 3.46427 0
M  V30 23749 O 2183.93 2.41477 3.65541 0
M  V30 23750 C 2185.43 0.757815 4.36775 0
M  V30 23751 H 2182.65 0.263024 0.6173 0
M  V30 23752 H 2185.19 1.34966 1.53637 0
M  V30 23753 H 2183.35 0.443729 3.8485 0
M  V30 23754 H 2183.76 2.52743 4.59588 0
M  V30 23755 H 2185.23 1.03053 5.42295 0
M  V30 23756 H 2185.71 -0.308099 4.38118 0
M  V30 23757 H 2186.32 1.32894 4.04004 0
M  V30 23758 N 2184.63 -1.36623 0.78561 0
M  V30 23759 C 2185.88 -1.98589 0.352861 0
M  V30 23760 C 2186.19 -1.63058 -1.08035 0
M  V30 23761 O 2187.4 -2.1823 -1.61518 0
M  V30 23762 C 2185.86 -3.55196 0.579953 0
M  V30 23763 C 2185.46 -3.99656 2.02433 0
M  V30 23764 C 2187.21 -4.23973 0.21152 0
M  V30 23765 C 2185.11 -5.49026 2.19828 0
M  V30 23766 H 2184.04 -0.743022 0.128194 0
M  V30 23767 H 2186.7 -1.55971 0.966705 0
M  V30 23768 H 2185.08 -3.95865 -0.103548 0
M  V30 23769 H 2186.25 -3.70197 2.74392 0
M  V30 23770 H 2184.57 -3.43705 2.35065 0
M  V30 23771 H 2187.16 -5.33743 0.319819 0
M  V30 23772 H 2187.51 -4.07739 -0.839914 0
M  V30 23773 H 2188.04 -3.88654 0.848108 0
M  V30 23774 H 2184.78 -5.70203 3.23341 0
M  V30 23775 H 2184.3 -5.80124 1.52369 0
M  V30 23776 H 2185.98 -6.15196 2.00358 0
M  V30 23777 N 2186.11 -0.537304 -1.48158 0
M  V30 23778 C 2187.04 0.258662 -2.27736 0
M  V30 23779 C 2188.05 0.897752 -1.3581 0
M  V30 23780 O 2189.24 0.774959 -1.608 0
M  V30 23781 C 2186.34 1.38219 -3.09433 0
M  V30 23782 C 2185.52 0.843651 -4.29187 0
M  V30 23783 C 2184.58 1.84921 -4.92636 0
M  V30 23784 O 2183.6 1.40323 -5.51632 0
M  V30 23785 N 2184.8 3.18174 -4.85536 0
M  V30 23786 H 2187.57 -0.423863 -2.96688 0
M  V30 23787 H 2185.13 -0.372098 -1.57566 0
M  V30 23788 H 2187.12 2.0532 -3.48749 0
M  V30 23789 H 2185.69 1.96827 -2.42854 0
M  V30 23790 H 2184.91 -0.00356721 -3.942 0
M  V30 23791 H 2186.2 0.462851 -5.0669 0
M  V30 23792 H 2185.6 3.57068 -4.3877 0
M  V30 23793 H 2184.15 3.80888 -5.28931 0
M  V30 23794 N 2187.59 1.55221 -0.272782 0
M  V30 23795 C 2188.54 2.23858 0.631705 0
M  V30 23796 C 2189.53 1.23481 1.15969 0
M  V30 23797 O 2190.74 1.41418 1.11359 0
M  V30 23798 H 2187.11 0.718404 0.222259 0
M  V30 23799 H 2189.08 2.98385 0.0299551 0
M  V30 23800 C 2187.83 2.9714 1.80563 0
M  V30 23801 H 2187.15 3.74166 1.40854 0
M  V30 23802 H 2188.59 3.4849 2.41517 0
M  V30 23803 C 2187.05 2.02478 2.69266 0
M  V30 23804 O 2187.58 1.57449 3.69557 0
M  V30 23805 N 2185.79 1.69028 2.36385 0
M  V30 23806 H 2185.34 2.05842 1.54877 0
M  V30 23807 H 2185.29 1.05961 2.96006 0
M  V30 23808 N 2189.07 2.77022e-05 1.576 0
M  V30 23809 C 2189.98 -1.0077 2.11855 0
M  V30 23810 C 2190.99 -1.37692 1.06382 0
M  V30 23811 O 2192.17 -1.46423 1.38283 0
M  V30 23812 C 2189.23 -2.28082 2.61112 0
M  V30 23813 C 2188.29 -1.97473 3.81186 0
M  V30 23814 C 2187.53 -3.18716 4.28084 0
M  V30 23815 O 2187.75 -4.30401 3.74315 0
M  V30 23816 O 2186.68 -3.02712 5.20239 0
M  V30 23817 H 2190.51 -0.576494 2.98178 0
M  V30 23818 H 2188.1 -0.218802 1.47789 0
M  V30 23819 H 2189.98 -3.02875 2.92992 0
M  V30 23820 H 2188.65 -2.70441 1.77886 0
M  V30 23821 H 2187.56 -1.20156 3.54279 0
M  V30 23822 H 2188.89 -1.59951 4.65485 0
M  V30 23823 N 2190.54 -1.55222 -0.272728 0
M  V30 23824 C 2191.79 -1.75841 -1.00429 0
M  V30 23825 C 2192.12 -0.559662 -1.86274 0
M  V30 23826 O 2191.37 0.457824 -1.90269 0
M  V30 23827 C 2191.67 -3.01679 -1.91637 0
M  V30 23828 C 2191.34 -4.34211 -1.2154 0
M  V30 23829 C 2190 -4.70231 -1.02158 0
M  V30 23830 C 2192.35 -5.1625 -0.716594 0
M  V30 23831 C 2189.68 -5.85847 -0.316231 0
M  V30 23832 C 2192.03 -6.32595 -0.0248364 0
M  V30 23833 C 2190.7 -6.67255 0.180696 0
M  V30 23834 H 2189.97 -0.643449 -0.367497 0
M  V30 23835 H 2192.61 -1.89492 -0.276563 0
M  V30 23836 H 2190.92 -2.82929 -2.71032 0
M  V30 23837 H 2192.62 -3.14828 -2.48363 0
M  V30 23838 H 2189.21 -4.05899 -1.37638 0
M  V30 23839 H 2193.39 -4.88898 -0.853961 0
M  V30 23840 H 2188.65 -6.11225 -0.14627 0
M  V30 23841 H 2192.82 -6.95419 0.369433 0
M  V30 23842 H 2190.45 -7.56694 0.729231 0
M  V30 23843 N 2192.02 0.537252 -1.4816 0
M  V30 23844 C 2192.99 1.62469 -1.61668 0
M  V30 23845 C 2193.99 1.53139 -0.490422 0
M  V30 23846 O 2195.18 1.56939 -0.756026 0
M  V30 23847 C 2192.31 3.02073 -1.58003 0
M  V30 23848 H 2193.5 1.51834 -2.58624 0
M  V30 23849 H 2191.05 0.758747 -1.36648 0
M  V30 23850 H 2191.79 3.18221 -0.624969 0
M  V30 23851 H 2191.57 3.10254 -2.3976 0
M  V30 23852 H 2193.06 3.81148 -1.70634 0
M  V30 23853 N 2193.5 1.36626 0.785562 0
M  V30 23854 C 2194.45 1.27793 1.8882 0
M  V30 23855 C 2195.43 0.168607 1.60014 0
M  V30 23856 O 2196.63 0.401767 1.7238 0
M  V30 23857 C 2193.76 1.07333 3.2609 0
M  V30 23858 C 2192.84 2.22749 3.60893 0
M  V30 23859 N 2193.23 3.48083 3.66976 0
M  V30 23860 C 2191.53 2.14599 3.90977 0
M  V30 23861 C 2192.23 4.24108 3.98129 0
M  V30 23862 N 2191.21 3.53091 4.13313 0
M  V30 23863 H 2195.01 2.22727 1.91755 0
M  V30 23864 H 2192.52 1.29401 0.981288 0
M  V30 23865 H 2194.52 0.990913 4.04952 0
M  V30 23866 H 2193.18 0.133034 3.24427 0
M  V30 23867 H 2194.19 3.82169 3.49525 0
M  V30 23868 H 2190.87 1.28547 3.97218 0
M  V30 23869 H 2192.26 5.32516 4.09727 0
M  V30 23870 N 2194.98 -1.01016 1.20969 0
M  V30 23871 C 2196.22 -1.7625 1.03514 0
M  V30 23872 C 2196.58 -1.87247 -0.424547 0
M  V30 23873 O 2197.78 -2.58993 -0.719463 0
M  V30 23874 C 2196.05 -3.13983 1.70731 0
M  V30 23875 S 2197.61 -4.05173 1.68465 0
M  V30 23876 H 2194.43 -0.606502 0.371048 0
M  V30 23877 H 2197.03 -1.20905 1.5363 0
M  V30 23878 H 2195.74 -3.0361 2.76133 0
M  V30 23879 H 2195.27 -3.74403 1.20774 0
M  V30 23880 H 2197.28 -4.90918 0.722074 0
M  V30 23881 N 2196.46 -1.01661 -1.20428 0
M  V30 23882 C 2197.68 -0.725166 -1.93776 0
M  V30 23883 C 2198.1 0.714135 -1.74773 0
M  V30 23884 O 2197.46 1.48438 -1.06171 0
M  V30 23885 C 2197.51 -1.05136 -3.45874 0
M  V30 23886 O 2197.23 -2.43412 -3.64255 0
M  V30 23887 C 2198.73 -0.780967 -4.36367 0
M  V30 23888 H 2195.95 -0.266294 -0.615896 0
M  V30 23889 H 2198.49 -1.35779 -1.52919 0
M  V30 23890 H 2196.65 -0.464133 -3.8461 0
M  V30 23891 H 2197.06 -2.55177 -4.58241 0
M  V30 23892 H 2198.54 -1.05928 -5.41741 0
M  V30 23893 H 2199.01 0.28486 -4.38275 0
M  V30 23894 H 2199.62 -1.35034 -4.03294 0
M  V30 23895 N 2197.93 1.36205 -0.792844 0
M  V30 23896 C 2199.18 1.99445 -0.367365 0
M  V30 23897 C 2199.51 1.62776 1.05914 0
M  V30 23898 O 2198.79 0.884241 1.73238 0
M  V30 23899 C 2199.07 3.56102 -0.535107 0
M  V30 23900 C 2198.92 4.02614 -2.00555 0
M  V30 23901 C 2200.24 4.40074 0.0477417 0
M  V30 23902 H 2197.36 0.724539 -0.134954 0
M  V30 23903 H 2200 1.61566 -0.999822 0
M  V30 23904 H 2198.15 3.885 0.003295 0
M  V30 23905 H 2199.83 3.80688 -2.60527 0
M  V30 23906 H 2198.07 3.54028 -2.50693 0
M  V30 23907 H 2198.74 5.11561 -2.07386 0
M  V30 23908 H 2201.22 4.14056 -0.411895 0
M  V30 23909 H 2200.09 5.4881 -0.0996301 0
M  V30 23910 H 2200.35 4.27144 1.14018 0
M  V30 23911 N 2199.41 0.545154 1.47871 0
M  V30 23912 C 2200.66 0.0145388 2.01695 0
M  V30 23913 C 2200.97 -1.3387 1.42612 0
M  V30 23914 O 2202.18 -1.95854 1.88025 0
M  V30 23915 C 2200.64 -0.0244435 3.59892 0
M  V30 23916 C 2200.24 1.32482 4.27963 0
M  V30 23917 C 2201.99 -0.503086 4.21508 0
M  V30 23918 C 2199.9 1.2456 5.78134 0
M  V30 23919 H 2198.83 0.00166498 0.753998 0
M  V30 23920 H 2201.48 0.691205 1.69984 0
M  V30 23921 H 2199.86 -0.766507 3.88511 0
M  V30 23922 H 2201.03 2.08365 4.11 0
M  V30 23923 H 2199.35 1.74042 3.78283 0
M  V30 23924 H 2201.94 -0.580563 5.31539 0
M  V30 23925 H 2202.29 -1.51236 3.87858 0
M  V30 23926 H 2202.82 0.183751 3.97375 0
M  V30 23927 H 2199.56 2.2305 6.16384 0
M  V30 23928 H 2199.08 0.528387 5.97468 0
M  V30 23929 H 2200.76 0.9426 6.40097 0
M  V30 23930 N 2200.89 -1.55074 0.28101 0
M  V30 23931 C 2202.12 -2.04133 -0.337257 0
M  V30 23932 C 2202.53 -1.15915 -1.49028 0
M  V30 23933 O 2201.89 -0.180491 -1.81605 0
M  V30 23934 C 2201.94 -3.52248 -0.812644 0
M  V30 23935 O 2201.66 -4.37109 0.294464 0
M  V30 23936 C 2203.16 -4.17218 -1.49812 0
M  V30 23937 H 2200.38 -0.666665 -0.0761521 0
M  V30 23938 H 2202.93 -2.00249 0.414822 0
M  V30 23939 H 2201.08 -3.56557 -1.5148 0
M  V30 23940 H 2201.5 -5.24451 -0.0720403 0
M  V30 23941 H 2202.97 -5.22441 -1.78211 0
M  V30 23942 H 2203.45 -3.65745 -2.43161 0
M  V30 23943 H 2204.05 -4.16929 -0.839669 0
M  V30 23944 N 2202.37 -0.00838561 -1.57598 0
M  V30 23945 C 2203.62 0.673935 -1.90108 0
M  V30 23946 C 2203.93 1.74469 -0.884306 0
M  V30 23947 O 2205.14 2.48222 -1.09992 0
M  V30 23948 C 2203.59 1.24989 -3.37499 0
M  V30 23949 C 2203.2 0.213522 -4.47491 0
M  V30 23950 C 2204.95 1.90992 -3.79107 0
M  V30 23951 C 2202.85 0.799947 -5.85965 0
M  V30 23952 H 2201.78 0.255482 -0.709398 0
M  V30 23953 H 2204.43 -0.0703015 -1.83365 0
M  V30 23954 H 2202.82 2.04507 -3.39106 0
M  V30 23955 H 2203.99 -0.557676 -4.57413 0
M  V30 23956 H 2202.3 -0.346547 -4.14955 0
M  V30 23957 H 2204.9 2.35787 -4.79905 0
M  V30 23958 H 2205.24 2.74401 -3.13065 0
M  V30 23959 H 2205.78 1.18196 -3.79835 0
M  V30 23960 H 2202.52 0.00445186 -6.555 0
M  V30 23961 H 2202.04 1.54011 -5.7969 0
M  V30 23962 H 2203.72 1.29604 -6.33886 0
M  V30 23963 N 2203.85 1.55365 0.264492 0
M  V30 23964 C 2204.81 1.88044 1.31042 0
M  V30 23965 C 2205.81 0.755594 1.41942 0
M  V30 23966 O 2207 1.02372 1.40946 0
M  V30 23967 C 2204.13 2.09327 2.69063 0
M  V30 23968 H 2205.33 2.81551 1.03292 0
M  V30 23969 H 2202.88 1.47986 0.502963 0
M  V30 23970 H 2203.61 1.18231 3.0198 0
M  V30 23971 H 2203.4 2.91234 2.62536 0
M  V30 23972 H 2204.89 2.35854 3.44619 0
M  V30 23973 N 2205.33 -0.529387 1.48443 0
M  V30 23974 C 2206.28 -1.63011 1.5941 0
M  V30 23975 C 2207.26 -1.54444 0.451193 0
M  V30 23976 O 2208.45 -1.62455 0.702664 0
M  V30 23977 C 2205.58 -3.01729 1.63752 0
M  V30 23978 C 2204.67 -3.15397 2.83523 0
M  V30 23979 N 2205.06 -2.99037 4.07934 0
M  V30 23980 C 2203.36 -3.46452 2.80868 0
M  V30 23981 C 2204.06 -3.16137 4.88295 0
M  V30 23982 N 2203.03 -3.43739 4.21123 0
M  V30 23983 H 2206.83 -1.48973 2.53346 0
M  V30 23984 H 2204.35 -0.73486 1.44823 0
M  V30 23985 H 2206.35 -3.80798 1.69702 0
M  V30 23986 H 2205.01 -3.16858 0.70932 0
M  V30 23987 H 2206.02 -2.75788 4.38362 0
M  V30 23988 H 2202.69 -3.67935 1.97307 0
M  V30 23989 H 2204.08 -3.08221 5.97034 0
M  V30 23990 N 2206.8 -1.37041 -0.778305 0
M  V30 23991 C 2208.22 -1.17697 -1.07794 0
M  V30 23992 C 2208.42 -0.00863657 -2.01498 0
M  V30 23993 O 2207.48 0.653309 -2.43902 0
M  V30 23994 C 2208.79 -2.49275 -1.68174 0
M  V30 23995 C 2210.34 -2.55739 -1.80463 0
M  V30 23996 C 2210.81 -3.87431 -2.44257 0
M  V30 23997 N 2212.3 -3.88837 -2.51714 0
M  V30 23998 C 2213.04 -4.87481 -3.01911 0
M  V30 23999 N 2212.53 -5.9652 -3.5233 0
M  V30 24000 N 2214.33 -4.74891 -3.00725 0
M  V30 24001 H 2206.48 -2.11826 -0.155995 0
M  V30 24002 H 2208.74 -0.938789 -0.131827 0
M  V30 24003 H 2208.45 -3.35095 -1.0679 0
M  V30 24004 H 2208.32 -2.65889 -2.67549 0
M  V30 24005 H 2210.71 -1.70329 -2.40981 0
M  V30 24006 H 2210.79 -2.43014 -0.798613 0
M  V30 24007 H 2210.43 -4.73251 -1.84379 0
M  V30 24008 H 2210.36 -3.97456 -3.45451 0
M  V30 24009 H 2212.85 -3.10067 -2.16025 0
M  V30 24010 H 2213.17 -6.67748 -3.89015 0
M  V30 24011 H 2211.51 -6.00174 -3.50452 0
M  V30 24012 H 2214.7 -3.8883 -2.60631 0
M  V30 24013 H 2214.88 -5.51924 -3.39535 0
M  V30 24014 N 2208.28 1.00373 -1.21503 0
M  V30 24015 C 2209.21 2.11026 -0.999515 0
M  V30 24016 C 2210.19 1.6993 0.0759372 0
M  V30 24017 O 2211.38 1.94018 -0.0841447 0
M  V30 24018 C 2208.51 3.42677 -0.564769 0
M  V30 24019 C 2207.46 3.97573 -1.58493 0
M  V30 24020 C 2206.79 5.25144 -1.00638 0
M  V30 24021 C 2208.09 4.29491 -2.97212 0
M  V30 24022 H 2209.78 2.29313 -1.92499 0
M  V30 24023 H 2207.33 1.10198 -0.926949 0
M  V30 24024 H 2209.28 4.19486 -0.401165 0
M  V30 24025 H 2208 3.24186 0.396354 0
M  V30 24026 H 2206.66 3.22885 -1.73612 0
M  V30 24027 H 2206.31 5.02986 -0.0369323 0
M  V30 24028 H 2206.01 5.62838 -1.68781 0
M  V30 24029 H 2207.54 6.04597 -0.854121 0
M  V30 24030 H 2208.95 4.97138 -2.85529 0
M  V30 24031 H 2207.35 4.78331 -3.6238 0
M  V30 24032 H 2208.42 3.37714 -3.47962 0
M  V30 24033 N 2209.76 1.02298 1.19887 0
M  V30 24034 C 2210.71 0.569379 2.20776 0
M  V30 24035 C 2211.69 -0.378713 1.5638 0
M  V30 24036 O 2212.89 -0.200642 1.75859 0
M  V30 24037 C 2210.01 -0.0844474 3.43196 0
M  V30 24038 C 2209.1 0.885733 4.14748 0
M  V30 24039 N 2209.49 2.04581 4.6258 0
M  V30 24040 C 2207.79 0.707912 4.40346 0
M  V30 24041 C 2208.49 2.65723 5.17461 0
M  V30 24042 N 2207.47 1.93732 5.07906 0
M  V30 24043 H 2211.27 1.45369 2.55431 0
M  V30 24044 H 2208.78 0.889174 1.35895 0
M  V30 24045 H 2210.78 -0.426994 4.14708 0
M  V30 24046 H 2209.44 -0.96452 3.10044 0
M  V30 24047 H 2210.45 2.42548 4.57593 0
M  V30 24048 H 2207.13 -0.123567 4.17317 0
M  V30 24049 H 2208.52 3.63935 5.64802 0
M  V30 24050 N 2211.24 -1.35782 0.800057 0
M  V30 24051 C 2212.47 -2.03198 0.389642 0
M  V30 24052 C 2212.88 -1.60307 -0.997347 0
M  V30 24053 O 2212.24 -0.79751 -1.64152 0
M  V30 24054 C 2212.29 -3.58613 0.455918 0
M  V30 24055 O 2212.01 -3.99943 1.78822 0
M  V30 24056 C 2213.51 -4.43284 0.0374812 0
M  V30 24057 H 2210.73 -0.651855 0.159143 0
M  V30 24058 H 2213.27 -1.7354 1.08186 0
M  V30 24059 H 2211.43 -3.86944 -0.187989 0
M  V30 24060 H 2211.84 -4.9457 1.74645 0
M  V30 24061 H 2213.32 -5.51835 0.134979 0
M  V30 24062 H 2213.79 -4.27277 -1.01643 0
M  V30 24063 H 2214.4 -4.20237 0.654289 0
M  V30 24064 N 2212.72 -0.552988 -1.4758 0
M  V30 24065 C 2213.96 -0.025235 -2.01684 0
M  V30 24066 C 2214.28 1.33112 -1.4332 0
M  V30 24067 O 2215.48 1.94855 -1.89061 0
M  V30 24068 C 2213.94 0.00535725 -3.599 0
M  V30 24069 C 2213.55 -1.3475 -4.27255 0
M  V30 24070 C 2215.29 0.480725 -4.21769 0
M  V30 24071 C 2213.2 -1.27624 -5.77465 0
M  V30 24072 H 2212.13 -0.00566359 -0.753979 0
M  V30 24073 H 2214.78 -0.70021 -1.69615 0
M  V30 24074 H 2213.16 0.745892 -3.88912 0
M  V30 24075 H 2214.34 -2.10541 -4.09889 0
M  V30 24076 H 2212.65 -1.76046 -3.77355 0
M  V30 24077 H 2215.25 0.552366 -5.31839 0
M  V30 24078 H 2215.59 1.49177 -3.88654 0
M  V30 24079 H 2216.12 -0.204822 -3.97272 0
M  V30 24080 H 2212.86 -2.26315 -6.15192 0
M  V30 24081 H 2212.38 -0.560065 -5.97179 0
M  V30 24082 H 2214.06 -0.976533 -6.39588 0
M  V30 24083 N 2214.19 1.54923 -0.28923 0
M  V30 24084 C 2215.13 2.19222 0.633784 0
M  V30 24085 C 2216.1 1.15774 1.14172 0
M  V30 24086 O 2217.29 1.44363 1.21209 0
M  V30 24087 C 2214.42 2.82671 1.86587 0
M  V30 24088 C 2213.46 3.99544 1.4922 0
M  V30 24089 S 2214.29 5.32583 0.558219 0
M  V30 24090 C 2215.45 5.99508 1.79836 0
M  V30 24091 H 2215.68 2.97171 0.0874893 0
M  V30 24092 H 2213.22 1.54225 -0.073417 0
M  V30 24093 H 2215.17 3.19855 2.57299 0
M  V30 24094 H 2213.84 2.04589 2.38332 0
M  V30 24095 H 2213.03 4.4268 2.40937 0
M  V30 24096 H 2212.63 3.63856 0.865129 0
M  V30 24097 H 2214.92 6.19599 2.74049 0
M  V30 24098 H 2215.87 6.93924 1.40978 0
M  V30 24099 H 2216.27 5.2902 1.96973 0
M  V30 24100 N 2215.67 0.0167433 1.57591 0
M  V30 24101 C 2216.95 -0.702532 1.82548 0
M  V30 24102 C 2217.33 -1.91045 0.898051 0
M  V30 24103 O 2216.68 -2.28447 -0.0493055 0
M  V30 24104 C 2216.89 -1.09246 3.31461 0
M  V30 24105 C 2218.23 -1.4893 3.97624 0
M  V30 24106 O 2219.26 -1.18578 3.35883 0
M  V30 24107 O 2218.12 -2.05433 5.06418 0
M  V30 24108 H 2215.21 -0.343531 0.752274 0
M  V30 24109 H 2217.76 0.0434794 1.69644 0
M  V30 24110 H 2216.53 -0.232201 3.9061 0
M  V30 24111 H 2216.15 -1.89703 3.49426 0
M  V30 24112 N 2217.15 -1.55503 -0.256249 0
M  V30 24113 C 2218.38 -1.81278 -1.00762 0
M  V30 24114 C 2218.8 -0.592551 -1.78523 0
M  V30 24115 O 2218.16 0.458239 -1.75413 0
M  V30 24116 C 2218.21 -3.0469 -1.92864 0
M  V30 24117 O 2217.31 -2.8095 -3.01896 0
M  V30 24118 H 2216.65 -0.598669 -0.287213 0
M  V30 24119 H 2219.18 -2.02674 -0.280074 0
M  V30 24120 H 2219.19 -3.33873 -2.34505 0
M  V30 24121 H 2217.87 -3.93145 -1.35682 0
M  V30 24122 H 2216.44 -2.62909 -2.64449 0
M  V30 24123 N 2218.63 0.521507 -1.48721 0
M  V30 24124 C 2219.91 1.28278 -1.47662 0
M  V30 24125 C 2220.29 2.10216 -0.192957 0
M  V30 24126 O 2219.63 2.13081 0.825155 0
M  V30 24127 C 2219.84 2.157 -2.74362 0
M  V30 24128 C 2221.19 2.75563 -3.23032 0
M  V30 24129 O 2222.22 2.25982 -2.75337 0
M  V30 24130 O 2221.07 3.65771 -4.06046 0
M  V30 24131 H 2218.17 0.579411 -0.590095 0
M  V30 24132 H 2220.71 0.537464 -1.60964 0
M  V30 24133 H 2219.49 1.54993 -3.59295 0
M  V30 24134 H 2219.11 2.97463 -2.63821 0
M  V30 24135 N 2220.11 1.37452 0.771027 0
M  V30 24136 C 2221.05 1.33273 1.88433 0
M  V30 24137 C 2222.02 0.198165 1.64914 0
M  V30 24138 O 2223.21 0.387639 1.86821 0
M  V30 24139 C 2220.35 1.14627 3.25507 0
M  V30 24140 C 2219.46 2.3732 3.60975 0
M  V30 24141 C 2218.6 2.11541 4.87261 0
M  V30 24142 C 2217.64 3.30097 5.15463 0
M  V30 24143 N 2216.77 3.03864 6.32938 0
M  V30 24144 H 2221.61 2.28458 1.9134 0
M  V30 24145 H 2219.15 1.13525 0.935446 0
M  V30 24146 H 2221.11 1.01838 4.0458 0
M  V30 24147 H 2219.74 0.230893 3.21973 0
M  V30 24148 H 2218.79 2.60847 2.76881 0
M  V30 24149 H 2220.1 3.25736 3.77754 0
M  V30 24150 H 2219.26 1.95787 5.74241 0
M  V30 24151 H 2217.99 1.20465 4.72588 0
M  V30 24152 H 2217 3.46389 4.26959 0
M  V30 24153 H 2218.22 4.22025 5.32045 0
M  V30 24154 H 2216.17 2.15418 6.19622 0
M  V30 24155 H 2216.09 3.85823 6.50136 0
M  V30 24156 H 2217.36 2.91729 7.22852 0
M  V30 24157 N 2221.58 -0.997276 1.22033 0
M  V30 24158 C 2222.83 -1.73876 1.04379 0
M  V30 24159 C 2223.16 -1.89589 -0.420682 0
M  V30 24160 O 2222.44 -1.43586 -1.312 0
M  V30 24161 C 2222.72 -3.14688 1.75052 0
M  V30 24162 C 2222.57 -3.06651 3.29067 0
M  V30 24163 C 2223.89 -4.13772 1.49936 0
M  V30 24164 H 2221.01 -0.631127 0.380589 0
M  V30 24165 H 2223.65 -1.16214 1.50314 0
M  V30 24166 H 2221.8 -3.63917 1.36002 0
M  V30 24167 H 2223.48 -2.65076 3.77534 0
M  V30 24168 H 2221.72 -2.43562 3.58971 0
M  V30 24169 H 2222.39 -4.06275 3.73691 0
M  V30 24170 H 2224.87 -3.73281 1.83849 0
M  V30 24171 H 2223.74 -5.10424 2.01887 0
M  V30 24172 H 2224 -4.39994 0.431006 0
M  V30 24173 N 2223.06 -1.02932 -1.19343 0
M  V30 24174 C 2224 -0.555068 -2.21346 0
M  V30 24175 C 2224.97 0.404323 -1.57493 0
M  V30 24176 O 2226.16 0.32132 -1.85741 0
M  V30 24177 C 2223.28 0.19058 -3.38163 0
M  V30 24178 C 2222.33 -0.72031 -4.20373 0
M  V30 24179 S 2223.16 -2.19676 -4.88367 0
M  V30 24180 C 2224.32 -1.46164 -6.08594 0
M  V30 24181 H 2224.55 -1.41933 -2.61232 0
M  V30 24182 H 2222.09 -0.839295 -1.29596 0
M  V30 24183 H 2224.04 0.614653 -4.05872 0
M  V30 24184 H 2222.7 1.03058 -2.96712 0
M  V30 24185 H 2221.9 -0.144639 -5.03792 0
M  V30 24186 H 2221.5 -1.08272 -3.57985 0
M  V30 24187 H 2223.79 -0.748476 -6.73353 0
M  V30 24188 H 2224.73 -2.27244 -6.70646 0
M  V30 24189 H 2225.14 -0.95894 -5.56295 0
M  V30 24190 N 2224.54 1.35356 -0.807246 0
M  V30 24191 C 2225.79 1.99044 -0.388498 0
M  V30 24192 C 2226.12 1.6389 1.04181 0
M  V30 24193 O 2225.39 0.902565 1.7229 0
M  V30 24194 C 2225.68 3.55514 -0.572846 0
M  V30 24195 C 2225.53 4.00464 -2.04814 0
M  V30 24196 C 2226.85 4.401 0.00106328 0
M  V30 24197 H 2223.97 0.723067 -0.142631 0
M  V30 24198 H 2226.61 1.60496 -1.0169 0
M  V30 24199 H 2224.76 3.88482 -0.0379108 0
M  V30 24200 H 2226.43 3.77903 -2.6455 0
M  V30 24201 H 2224.68 3.51349 -2.54433 0
M  V30 24202 H 2225.35 5.09333 -2.128 0
M  V30 24203 H 2227.82 4.13596 -0.455788 0
M  V30 24204 H 2226.7 5.48673 -0.157833 0
M  V30 24205 H 2226.96 4.2833 1.09481 0
M  V30 24206 N 2226.02 0.560807 1.47284 0
M  V30 24207 C 2226.95 -0.173064 2.32858 0
M  V30 24208 C 2227.93 -0.905255 1.44011 0
M  V30 24209 O 2229.11 -0.885016 1.72862 0
M  V30 24210 C 2226.24 -1.20127 3.25863 0
M  V30 24211 C 2225.2 -0.585313 4.23979 0
M  V30 24212 C 2224.52 -1.71841 5.06335 0
M  V30 24213 C 2225.82 0.46327 5.20241 0
M  V30 24214 H 2227.52 0.541359 2.94465 0
M  V30 24215 H 2225.06 0.261789 1.416 0
M  V30 24216 H 2227.02 -1.72286 3.84572 0
M  V30 24217 H 2225.74 -1.94568 2.62318 0
M  V30 24218 H 2224.4 -0.0849896 3.66501 0
M  V30 24219 H 2224.05 -2.45195 4.3919 0
M  V30 24220 H 2223.75 -1.31203 5.72765 0
M  V30 24221 H 2225.27 -2.24319 5.67902 0
M  V30 24222 H 2226.69 0.0276027 5.73293 0
M  V30 24223 H 2225.08 0.788731 5.94894 0
M  V30 24224 H 2226.15 1.35782 4.65501 0
M  V30 24225 N 2227.5 -1.54768 0.297442 0
M  V30 24226 C 2228.77 -1.92149 -0.365813 0
M  V30 24227 C 2229.15 -1.22427 -1.71973 0
M  V30 24228 O 2228.5 -0.358779 -2.25666 0
M  V30 24229 C 2228.71 -3.45628 -0.483995 0
M  V30 24230 C 2230.06 -4.17806 -0.756521 0
M  V30 24231 O 2231.08 -3.51643 -0.567945 0
M  V30 24232 O 2229.94 -5.34931 -1.11853 0
M  V30 24233 H 2227.04 -0.801468 -0.203905 0
M  V30 24234 H 2229.58 -1.66151 0.345239 0
M  V30 24235 H 2228.35 -3.88492 0.467933 0
M  V30 24236 H 2227.98 -3.77649 -1.24365 0
M  V30 24237 N 2228.97 -0.0251005 -1.5758 0
M  V30 24238 C 2229.92 0.976133 -2.11127 0
M  V30 24239 C 2230.92 1.33957 -1.03691 0
M  V30 24240 O 2232.12 1.32227 -1.22131 0
M  V30 24241 H 2228.5 0.33255 -0.674474 0
M  V30 24242 H 2230.47 0.499171 -2.94195 0
M  V30 24243 C 2229.22 2.25076 -2.65021 0
M  V30 24244 H 2228.54 1.97984 -3.47336 0
M  V30 24245 H 2229.98 2.93352 -3.06138 0
M  V30 24246 C 2228.44 2.97776 -1.57579 0
M  V30 24247 O 2228.97 3.89731 -0.973272 0
M  V30 24248 N 2227.18 2.60041 -1.2972 0
M  V30 24249 H 2226.72 1.85342 -1.78903 0
M  V30 24250 H 2226.68 3.08993 -0.580564 0
M  V30 24251 N 2230.45 1.55637 0.247999 0
M  V30 24252 C 2231.7 1.77066 0.974264 0
M  V30 24253 C 2232.02 0.588882 1.85896 0
M  V30 24254 O 2231.29 -0.395373 1.91869 0
M  V30 24255 H 2229.87 0.653025 0.362722 0
M  V30 24256 H 2232.53 1.93073 0.26621 0
M  V30 24257 H 2231.63 2.68168 1.59662 0
M  V30 24258 N 2231.93 -0.513613 1.48996 0
M  V30 24259 C 2232.88 -1.61653 1.64733 0
M  V30 24260 C 2233.85 -1.58738 0.489012 0
M  V30 24261 O 2235.03 -1.76916 0.714509 0
M  V30 24262 C 2232.17 -2.99855 1.70825 0
M  V30 24263 C 2231.29 -3.1288 2.97876 0
M  V30 24264 C 2230.42 -4.41739 2.95025 0
M  V30 24265 C 2229.46 -4.48352 4.1671 0
M  V30 24266 N 2228.6 -5.68622 4.11842 0
M  V30 24267 H 2233.44 -1.47542 2.58912 0
M  V30 24268 H 2230.97 -0.718057 1.28384 0
M  V30 24269 H 2232.93 -3.79941 1.72338 0
M  V30 24270 H 2231.56 -3.12698 0.801236 0
M  V30 24271 H 2230.61 -2.25939 3.06033 0
M  V30 24272 H 2231.93 -3.13626 3.87866 0
M  V30 24273 H 2231.08 -5.30134 2.95031 0
M  V30 24274 H 2229.82 -4.43539 2.02792 0
M  V30 24275 H 2228.82 -3.58362 4.16962 0
M  V30 24276 H 2230.05 -4.48278 5.10121 0
M  V30 24277 H 2228 -5.71288 3.22438 0
M  V30 24278 H 2227.91 -5.70932 4.95553 0
M  V30 24279 H 2229.18 -6.59258 4.15931 0
M  V30 24280 N 2233.41 -1.37859 -0.763727 0
M  V30 24281 C 2234.66 -1.3283 -1.51786 0
M  V30 24282 C 2234.97 0.0823376 -1.95427 0
M  V30 24283 O 2236.18 0.255124 -2.70299 0
M  V30 24284 C 2234.63 -2.33198 -2.74129 0
M  V30 24285 C 2234.24 -3.79831 -2.37555 0
M  V30 24286 C 2235.99 -2.37195 -3.5205 0
M  V30 24287 C 2233.89 -4.7191 -3.56448 0
M  V30 24288 H 2232.82 -0.493705 -0.569887 0
M  V30 24289 H 2235.47 -1.63361 -0.835793 0
M  V30 24290 H 2233.86 -1.95696 -3.44266 0
M  V30 24291 H 2235.03 -4.26215 -1.7515 0
M  V30 24292 H 2233.34 -3.78856 -1.72791 0
M  V30 24293 H 2235.94 -3.0319 -4.40432 0
M  V30 24294 H 2236.28 -1.38789 -3.92484 0
M  V30 24295 H 2236.82 -2.73445 -2.88917 0
M  V30 24296 H 2233.56 -5.71474 -3.21089 0
M  V30 24297 H 2233.08 -4.30225 -4.17931 0
M  V30 24298 H 2234.76 -4.89433 -4.23159 0
M  V30 24299 N 2234.89 0.990791 -1.22561 0
M  V30 24300 C 2236.14 1.72485 -1.04556 0
M  V30 24301 C 2236.45 1.91053 0.419316 0
M  V30 24302 O 2237.66 2.61804 0.719075 0
M  V30 24303 C 2236.11 3.10351 -1.82236 0
M  V30 24304 C 2235.72 2.99707 -3.32986 0
M  V30 24305 C 2237.46 3.87788 -1.72687 0
M  V30 24306 C 2235.37 4.32741 -4.03099 0
M  V30 24307 H 2234.3 0.646732 -0.387626 0
M  V30 24308 H 2236.95 1.10591 -1.46431 0
M  V30 24309 H 2235.33 3.7294 -1.33161 0
M  V30 24310 H 2236.51 2.46271 -3.89471 0
M  V30 24311 H 2234.82 2.35752 -3.43235 0
M  V30 24312 H 2237.42 4.86258 -2.2239 0
M  V30 24313 H 2237.76 4.10581 -0.687679 0
M  V30 24314 H 2238.3 3.31881 -2.19316 0
M  V30 24315 H 2235.03 4.15147 -5.0728 0
M  V30 24316 H 2234.55 4.86082 -3.51403 0
M  V30 24317 H 2236.23 5.01479 -4.08813 0
M  V30 24318 N 2236.37 1.03564 1.18795 0
M  V30 24319 C 2237.28 0.632544 2.25912 0
M  V30 24320 C 2238.29 -0.338852 1.70669 0
M  V30 24321 O 2239.47 -0.195041 2.00453 0
M  V30 24322 C 2236.53 -0.00344848 3.467 0
M  V30 24323 C 2235.59 1.01631 4.17097 0
M  V30 24324 C 2234.83 0.410571 5.32118 0
M  V30 24325 O 2235.05 -0.784626 5.64978 0
M  V30 24326 O 2233.98 1.13677 5.91068 0
M  V30 24327 H 2237.81 1.52483 2.62646 0
M  V30 24328 H 2235.39 0.806217 1.2578 0
M  V30 24329 H 2237.28 -0.357736 4.19879 0
M  V30 24330 H 2235.95 -0.869631 3.118 0
M  V30 24331 H 2234.86 1.4223 3.46008 0
M  V30 24332 H 2236.19 1.85309 4.55984 0
M  V30 24333 N 2237.84 -1.34926 0.814413 0
M  V30 24334 C 2239.08 -2.00364 0.4042 0
M  V30 24335 C 2239.45 -1.63187 -1.01163 0
M  V30 24336 O 2240.65 -2.21403 -1.52427 0
M  V30 24337 C 2238.92 -3.52483 0.59078 0
M  V30 24338 S 2240.48 -4.37955 0.272152 0
M  V30 24339 H 2237.3 -0.694316 0.153122 0
M  V30 24340 H 2239.9 -1.64374 1.05837 0
M  V30 24341 H 2238.6 -3.77028 1.62106 0
M  V30 24342 H 2238.13 -3.93322 -0.0784322 0
M  V30 24343 H 2240.15 -4.87647 -0.917319 0
M  V30 24344 N 2239.32 -0.56861 -1.46985 0
M  V30 24345 C 2240.57 -0.0487377 -2.02041 0
M  V30 24346 C 2240.89 1.31037 -1.44411 0
M  V30 24347 O 2240.16 1.85713 -0.62351 0
M  V30 24348 H 2238.74 -0.0150271 -0.746849 0
M  V30 24349 H 2241.4 -0.7412 -1.80256 0
M  V30 24350 H 2240.5 0.0308412 -3.12085 0
M  V30 24351 N 2240.8 1.54608 -0.305646 0
M  V30 24352 C 2242.02 2.05107 0.307526 0
M  V30 24353 C 2242.45 1.18125 1.46383 0
M  V30 24354 O 2241.81 0.186356 1.8034 0
M  V30 24355 C 2241.86 3.52989 0.736978 0
M  V30 24356 O 2240.96 3.69013 1.84128 0
M  V30 24357 H 2240.3 0.661382 0.0589027 0
M  V30 24358 H 2242.83 1.99616 -0.448842 0
M  V30 24359 H 2242.84 3.94927 1.02452 0
M  V30 24360 H 2241.52 4.15758 -0.108847 0
M  V30 24361 H 2240.09 3.3898 1.55392 0
M  V30 24362 N 2242.28 0.033457 1.57564 0
M  V30 24363 C 2243.69 -0.504766 1.79747 0
M  V30 24364 C 2244.04 -1.71991 0.944121 0
M  V30 24365 O 2243.16 -2.15839 0.155732 0
M  V30 24366 C 2243.76 -0.922509 3.25999 0
M  V30 24367 C 2242.32 -1.40582 3.49161 0
M  V30 24368 C 2241.47 -0.372585 2.74786 0
M  V30 24369 H 2244.42 0.259464 1.56565 0
M  V30 24370 H 2244.44 -1.7866 3.35948 0
M  V30 24371 H 2243.95 -0.0379142 3.88081 0
M  V30 24372 H 2242.05 -2.3102 2.92336 0
M  V30 24373 H 2242.16 -1.4102 4.57876 0
M  V30 24374 H 2240.53 -0.84163 2.40393 0
M  V30 24375 H 2241.31 0.503619 3.39586 0
M  V30 24376 N 2243.76 -1.55766 -0.239741 0
M  V30 24377 C 2244.67 -1.94058 -1.31828 0
M  V30 24378 C 2245.68 -0.841952 -1.52273 0
M  V30 24379 O 2246.86 -1.14397 -1.65757 0
M  V30 24380 C 2243.92 -2.23372 -2.65152 0
M  V30 24381 C 2242.98 -3.46706 -2.53167 0
M  V30 24382 C 2242.22 -3.74612 -3.80133 0
M  V30 24383 O 2242.44 -3.04477 -4.82338 0
M  V30 24384 O 2241.37 -4.6813 -3.78336 0
M  V30 24385 H 2245.2 -2.85937 -1.02342 0
M  V30 24386 H 2242.78 -1.4274 -0.441098 0
M  V30 24387 H 2244.67 -2.43503 -3.43925 0
M  V30 24388 H 2243.34 -1.34671 -2.94356 0
M  V30 24389 H 2242.25 -3.31874 -1.72656 0
M  V30 24390 H 2243.58 -4.35732 -2.28907 0
M  V30 24391 N 2245.23 0.505704 -1.49266 0
M  V30 24392 C 2246.14 1.63424 -1.68315 0
M  V30 24393 C 2247.16 1.64547 -0.56571 0
M  V30 24394 O 2248.34 1.83054 -0.839833 0
M  V30 24395 C 2245.4 2.9981 -1.74112 0
M  V30 24396 C 2244.46 3.0935 -2.97659 0
M  V30 24397 C 2243.69 4.3923 -3.03171 0
M  V30 24398 O 2243.92 5.27755 -2.16405 0
M  V30 24399 O 2242.85 4.53645 -3.95588 0
M  V30 24400 H 2246.68 1.50284 -2.6391 0
M  V30 24401 H 2244.26 0.681478 -1.32952 0
M  V30 24402 H 2246.14 3.80877 -1.80306 0
M  V30 24403 H 2244.82 3.13221 -0.816956 0
M  V30 24404 H 2243.73 2.27488 -2.96985 0
M  V30 24405 H 2245.06 3.00864 -3.8954 0
M  V30 24406 N 2246.71 1.38262 0.756405 0
M  V30 24407 C 2247.64 1.37979 1.88372 0
M  V30 24408 C 2248.62 0.246111 1.6831 0
M  V30 24409 O 2249.81 0.448773 1.88944 0
M  V30 24410 C 2246.94 1.2013 3.25862 0
M  V30 24411 C 2245.89 2.30673 3.60519 0
M  V30 24412 C 2245.22 1.97932 4.96716 0
M  V30 24413 C 2246.52 3.72923 3.65686 0
M  V30 24414 H 2248.21 2.32315 1.88865 0
M  V30 24415 H 2245.76 1.11825 0.907253 0
M  V30 24416 H 2247.71 1.18559 4.04378 0
M  V30 24417 H 2246.44 0.222555 3.25841 0
M  V30 24418 H 2245.09 2.31425 2.8432 0
M  V30 24419 H 2244.74 0.98548 4.93252 0
M  V30 24420 H 2244.44 2.71965 5.20873 0
M  V30 24421 H 2245.97 1.97974 5.77615 0
M  V30 24422 H 2247.38 3.74216 4.34322 0
M  V30 24423 H 2245.78 4.46137 4.0135 0
M  V30 24424 H 2246.85 4.05441 2.6598 0
M  V30 24425 N 2248.19 -0.984277 1.23084 0
M  V30 24426 C 2249.12 -2.09409 1.03296 0
M  V30 24427 C 2250.1 -1.7003 -0.0488931 0
M  V30 24428 O 2251.29 -1.93859 0.115001 0
M  V30 24429 C 2248.42 -3.41735 0.619215 0
M  V30 24430 C 2247.37 -3.95001 1.64798 0
M  V30 24431 C 2246.7 -5.23476 1.08979 0
M  V30 24432 C 2248 -4.24708 3.04007 0
M  V30 24433 H 2249.69 -2.26222 1.96123 0
M  V30 24434 H 2247.24 -1.0871 0.944363 0
M  V30 24435 H 2249.19 -4.18795 0.467851 0
M  V30 24436 H 2247.91 -3.24776 -0.344729 0
M  V30 24437 H 2246.57 -3.20082 1.78726 0
M  V30 24438 H 2246.22 -5.02864 0.116948 0
M  V30 24439 H 2245.92 -5.60082 1.77714 0
M  V30 24440 H 2247.44 -6.03161 0.950199 0
M  V30 24441 H 2248.86 -4.92532 2.93402 0
M  V30 24442 H 2247.26 -4.72506 3.69944 0
M  V30 24443 H 2248.33 -3.32135 3.5329 0
M  V30 24444 N 2249.67 -1.04192 -1.18244 0
M  V30 24445 C 2250.6 -0.592127 -2.21419 0
M  V30 24446 C 2251.61 0.338881 -1.59234 0
M  V30 24447 O 2252.8 0.1332 -1.78002 0
M  V30 24448 C 2249.9 0.154794 -3.38546 0
M  V30 24449 C 2249.08 -0.784403 -4.30309 0
M  V30 24450 C 2248.13 -0.0805508 -5.26138 0
M  V30 24451 O 2247.16 -0.711391 -5.64737 0
M  V30 24452 N 2248.36 1.18564 -5.68263 0
M  V30 24453 H 2251.13 -1.47954 -2.60633 0
M  V30 24454 H 2248.69 -0.922568 -1.33042 0
M  V30 24455 H 2250.68 0.635535 -3.99679 0
M  V30 24456 H 2249.25 0.943758 -2.98013 0
M  V30 24457 H 2248.47 -1.44498 -3.66762 0
M  V30 24458 H 2249.76 -1.42227 -4.88517 0
M  V30 24459 H 2249.16 1.71867 -5.3896 0
M  V30 24460 H 2247.71 1.61063 -6.31587 0
M  V30 24461 N 2251.15 1.34492 -0.821557 0
M  V30 24462 C 2252.4 1.97584 -0.40539 0
M  V30 24463 C 2252.71 1.65865 1.03674 0
M  V30 24464 O 2253.91 2.22436 1.55675 0
M  V30 24465 C 2252.37 3.53534 -0.673924 0
M  V30 24466 C 2251.98 3.94148 -2.12958 0
M  V30 24467 C 2253.72 4.23263 -0.323854 0
M  V30 24468 C 2251.63 5.43005 -2.34308 0
M  V30 24469 H 2250.56 0.739362 -0.147849 0
M  V30 24470 H 2253.21 1.53353 -1.00772 0
M  V30 24471 H 2251.59 3.96 -0.00144515 0
M  V30 24472 H 2252.77 3.62792 -2.84111 0
M  V30 24473 H 2251.08 3.37352 -2.44095 0
M  V30 24474 H 2253.68 5.32707 -0.461219 0
M  V30 24475 H 2254.02 4.09823 0.731514 0
M  V30 24476 H 2254.55 3.86269 -0.950854 0
M  V30 24477 H 2251.29 5.61429 -3.38345 0
M  V30 24478 H 2250.81 5.7588 -1.67697 0
M  V30 24479 H 2252.49 6.09667 -2.16599 0
M  V30 24480 N 2252.62 0.576397 1.46681 0
M  V30 24481 C 2254.04 0.148124 1.86111 0
M  V30 24482 C 2254.39 -1.28718 1.48075 0
M  V30 24483 O 2253.51 -1.97129 0.892691 0
M  V30 24484 C 2254.11 0.262041 3.37785 0
M  V30 24485 C 2252.67 -0.111318 3.76235 0
M  V30 24486 C 2251.81 0.600878 2.70712 0
M  V30 24487 H 2254.76 0.784995 1.37926 0
M  V30 24488 H 2254.78 -0.514298 3.77008 0
M  V30 24489 H 2254.3 1.30677 3.65438 0
M  V30 24490 H 2252.4 -1.15643 3.542 0
M  V30 24491 H 2252.51 0.260604 4.78391 0
M  V30 24492 H 2250.87 0.0418231 2.54666 0
M  V30 24493 H 2251.66 1.64714 3.01205 0
M  V30 24494 N 2254.1 -1.54444 0.313841 0
M  V30 24495 C 2255.35 -1.99993 -0.291064 0
M  V30 24496 C 2255.67 -1.20369 -1.53416 0
M  V30 24497 O 2254.94 -0.302961 -1.93543 0
M  V30 24498 H 2253.52 -0.738776 -0.110539 0
M  V30 24499 H 2256.18 -1.90139 0.428139 0
M  V30 24500 H 2255.28 -3.0714 -0.554214 0
M  V30 24501 N 2255.58 -0.0418125 -1.57545 0
M  V30 24502 C 2256.99 0.495227 -1.80012 0
M  V30 24503 C 2257.34 1.71488 -0.953229 0
M  V30 24504 O 2256.47 2.15753 -0.167176 0
M  V30 24505 C 2257.06 0.905208 -3.26483 0
M  V30 24506 C 2255.62 1.38728 -3.49902 0
M  V30 24507 C 2254.77 0.358007 -2.74979 0
M  V30 24508 H 2257.72 -0.267763 -1.56425 0
M  V30 24509 H 2257.74 1.76876 -3.36891 0
M  V30 24510 H 2257.25 0.0173328 -3.88096 0
M  V30 24511 H 2255.35 2.29466 -2.93558 0
M  V30 24512 H 2255.47 1.3859 -4.58617 0
M  V30 24513 H 2253.83 0.828869 -2.40836 0
M  V30 24514 H 2254.61 -0.521621 -3.39314 0
M  V30 24515 N 2257.06 1.55891 0.231477 0
M  V30 24516 C 2258.31 1.78442 0.95732 0
M  V30 24517 C 2258.63 0.608852 1.84725 0
M  V30 24518 O 2257.89 -0.407216 1.91416 0
M  V30 24519 C 2258.19 3.06653 1.83571 0
M  V30 24520 C 2257.85 4.3728 1.09985 0
M  V30 24521 C 2256.52 4.72774 0.896546 0
M  V30 24522 C 2258.87 5.17969 0.579467 0
M  V30 24523 C 2256.2 5.8648 0.160793 0
M  V30 24524 C 2258.55 6.32439 -0.142894 0
M  V30 24525 C 2257.21 6.66542 -0.357544 0
M  V30 24526 H 2256.48 0.652966 0.350308 0
M  V30 24527 H 2259.13 1.90159 0.226225 0
M  V30 24528 H 2257.43 2.90015 2.63436 0
M  V30 24529 H 2259.13 3.21302 2.39929 0
M  V30 24530 H 2255.72 4.09405 1.26828 0
M  V30 24531 H 2259.9 4.9099 0.724038 0
M  V30 24532 H 2255.16 6.11398 -0.0158367 0
M  V30 24533 H 2259.33 6.94195 -0.553681 0
M  V30 24534 H 2256.96 7.54495 -0.929599 0
M  V30 24535 N 2258.54 -0.497781 1.49532 0
M  V30 24536 C 2259.77 -1.27379 1.62659 0
M  V30 24537 C 2260.17 -1.8683 0.298521 0
M  V30 24538 O 2259.52 -1.68726 -0.726441 0
M  V30 24539 C 2259.58 -2.44088 2.63934 0
M  V30 24540 C 2259.24 -2.05482 4.08199 0
M  V30 24541 C 2260.24 -1.5927 4.94903 0
M  V30 24542 C 2257.93 -2.15018 4.53952 0
M  V30 24543 C 2259.92 -1.23102 6.254 0
M  V30 24544 C 2257.61 -1.78462 5.84461 0
M  V30 24545 C 2258.6 -1.32579 6.70009 0
M  V30 24546 O 2258.29 -0.965187 7.98085 0
M  V30 24547 H 2258.02 -0.392424 0.550436 0
M  V30 24548 H 2260.58 -0.603767 1.96326 0
M  V30 24549 H 2258.81 -3.14177 2.25454 0
M  V30 24550 H 2260.5 -3.06108 2.66557 0
M  V30 24551 H 2261.26 -1.51346 4.60781 0
M  V30 24552 H 2257.14 -2.49683 3.8753 0
M  V30 24553 H 2260.69 -0.872177 6.92126 0
M  V30 24554 H 2256.58 -1.86037 6.1811 0
M  V30 24555 H 2257.35 -1.09638 8.11124 0
M  V30 24556 N 2260.01 -1.38661 -0.749062 0
M  V30 24557 C 2261.26 -1.35116 -1.5083 0
M  V30 24558 C 2261.59 0.0573707 -1.94415 0
M  V30 24559 O 2260.84 1.03538 -1.66067 0
M  V30 24560 C 2261.14 -2.25702 -2.77116 0
M  V30 24561 C 2260.81 -3.7359 -2.52471 0
M  V30 24562 C 2259.47 -4.13888 -2.45458 0
M  V30 24563 C 2261.82 -4.67185 -2.31057 0
M  V30 24564 C 2259.15 -5.45865 -2.15054 0
M  V30 24565 C 2261.5 -5.99424 -2.02173 0
M  V30 24566 C 2260.17 -6.38802 -1.9362 0
M  V30 24567 H 2259.44 -0.494426 -0.551927 0
M  V30 24568 H 2262.08 -1.71055 -0.860949 0
M  V30 24569 H 2260.39 -1.82833 -3.46524 0
M  V30 24570 H 2262.09 -2.2026 -3.35092 0
M  V30 24571 H 2258.68 -3.41643 -2.58801 0
M  V30 24572 H 2262.86 -4.36894 -2.35451 0
M  V30 24573 H 2258.12 -5.75312 -2.06944 0
M  V30 24574 H 2262.29 -6.71485 -1.84609 0
M  V30 24575 H 2259.92 -7.40988 -1.69826 0
M  V30 24576 N 2261.49 0.977736 -1.23605 0
M  V30 24577 C 2262.43 2.06894 -0.962808 0
M  V30 24578 C 2263.4 1.62293 0.0998458 0
M  V30 24579 O 2264.59 1.88468 -0.0349752 0
M  V30 24580 C 2261.72 3.35684 -0.451009 0
M  V30 24581 C 2260.76 3.99227 -1.50068 0
M  V30 24582 S 2261.59 4.38136 -3.07891 0
M  V30 24583 C 2262.75 5.70076 -2.58388 0
M  V30 24584 H 2262.98 2.29753 -1.88681 0
M  V30 24585 H 2260.52 1.11429 -1.06878 0
M  V30 24586 H 2262.47 4.10179 -0.162333 0
M  V30 24587 H 2261.14 3.10829 0.452124 0
M  V30 24588 H 2260.33 4.92011 -1.09277 0
M  V30 24589 H 2259.93 3.3112 -1.73884 0
M  V30 24590 H 2262.22 6.47129 -2.00574 0
M  V30 24591 H 2263.17 6.15711 -3.49722 0
M  V30 24592 H 2263.57 5.28203 -1.99152 0
M  V30 24593 N 2262.97 1.04818 1.1769 0
M  V30 24594 C 2263.93 0.650156 2.19785 0
M  V30 24595 C 2264.93 -0.296399 1.58045 0
M  V30 24596 O 2266.12 -0.0807791 1.74013 0
M  V30 24597 C 2263.26 -0.0456387 3.40869 0
M  V30 24598 H 2264.45 1.55374 2.56513 0
M  V30 24599 H 2262 0.841617 1.31706 0
M  V30 24600 H 2262.74 -0.962672 3.09682 0
M  V30 24601 H 2262.52 0.634795 3.86927 0
M  V30 24602 H 2264.01 -0.310358 4.16445 0
M  V30 24603 N 2264.45 -1.34055 0.828678 0
M  V30 24604 C 2265.4 -2.29413 0.252607 0
M  V30 24605 C 2266.37 -1.53858 -0.625853 0
M  V30 24606 O 2267.55 -1.82203 -0.56628 0
M  V30 24607 C 2264.69 -3.4028 -0.574771 0
M  V30 24608 C 2263.8 -4.30764 0.326575 0
M  V30 24609 C 2262.94 -5.28737 -0.510923 0
M  V30 24610 C 2261.98 -6.1086 0.38945 0
M  V30 24611 N 2261.12 -7.00906 -0.409315 0
M  V30 24612 H 2265.96 -2.78084 1.07113 0
M  V30 24613 H 2263.49 -1.36842 0.539701 0
M  V30 24614 H 2265.45 -4.03249 -1.06985 0
M  V30 24615 H 2264.08 -2.92828 -1.35836 0
M  V30 24616 H 2263.13 -3.68605 0.939902 0
M  V30 24617 H 2264.44 -4.88288 1.01866 0
M  V30 24618 H 2263.6 -5.97186 -1.07024 0
M  V30 24619 H 2262.34 -4.71765 -1.23648 0
M  V30 24620 H 2261.34 -5.41339 0.960864 0
M  V30 24621 H 2262.57 -6.69914 1.11321 0
M  V30 24622 H 2260.51 -6.46395 -1.11845 0
M  V30 24623 H 2260.43 -7.55667 0.224259 0
M  V30 24624 H 2261.7 -7.73675 -0.9512 0
M  V30 24625 N 2265.93 -0.584167 -1.46374 0
M  V30 24626 C 2266.84 0.150686 -2.34116 0
M  V30 24627 C 2267.85 0.884541 -1.4984 0
M  V30 24628 O 2269.03 0.847397 -1.82705 0
M  V30 24629 C 2266.09 1.15056 -3.27052 0
M  V30 24630 C 2265.16 0.421218 -4.27229 0
M  V30 24631 C 2264.39 1.37346 -5.15725 0
M  V30 24632 O 2264.61 2.61006 -5.07181 0
M  V30 24633 O 2263.55 0.88325 -5.95384 0
M  V30 24634 H 2267.37 -0.56976 -2.98308 0
M  V30 24635 H 2264.96 -0.34456 -1.45372 0
M  V30 24636 H 2266.84 1.72705 -3.84384 0
M  V30 24637 H 2265.51 1.85245 -2.65454 0
M  V30 24638 H 2264.42 -0.197151 -3.7358 0
M  V30 24639 H 2265.75 -0.239727 -4.91616 0
M  V30 24640 N 2267.41 1.54275 -0.322027 0
M  V30 24641 C 2268.37 2.22942 0.531935 0
M  V30 24642 C 2269.37 1.22236 1.04475 0
M  V30 24643 O 2270.56 1.46826 0.937426 0
M  V30 24644 C 2267.69 2.93227 1.73869 0
M  V30 24645 H 2268.88 2.99822 -0.0683139 0
M  V30 24646 H 2266.44 1.56129 -0.0730918 0
M  V30 24647 H 2267.17 2.2048 2.37822 0
M  V30 24648 H 2266.96 3.67073 1.3784 0
M  V30 24649 H 2268.45 3.45549 2.3449 0
M  V30 24650 N 2268.88 0.0501669 1.5752 0
M  V30 24651 C 2270.13 -0.622608 1.92271 0
M  V30 24652 C 2270.45 -1.71442 0.929113 0
M  V30 24653 O 2269.72 -1.95883 -0.0261842 0
M  V30 24654 H 2268.3 -0.232968 0.709743 0
M  V30 24655 H 2270.96 0.102932 1.94628 0
M  V30 24656 H 2270.06 -1.06186 2.93481 0
M  V30 24657 N 2270.36 -1.56011 -0.223207 0
M  V30 24658 C 2271.61 -1.78146 -0.945881 0
M  V30 24659 C 2271.92 -0.618429 -1.85566 0
M  V30 24660 O 2273.13 -0.723364 -2.61686 0
M  V30 24661 C 2271.59 -3.15478 -1.7321 0
M  V30 24662 C 2271.19 -4.395 -0.868542 0
M  V30 24663 C 2272.94 -3.46939 -2.44609 0
M  V30 24664 C 2270.84 -5.67858 -1.65202 0
M  V30 24665 H 2269.77 -0.664173 -0.356917 0
M  V30 24666 H 2272.43 -1.82409 -0.199813 0
M  V30 24667 H 2270.81 -3.05387 -2.52101 0
M  V30 24668 H 2271.98 -4.60643 -0.120285 0
M  V30 24669 H 2270.3 -4.15545 -0.266757 0
M  V30 24670 H 2272.89 -4.40063 -3.03724 0
M  V30 24671 H 2273.24 -2.69361 -3.17412 0
M  V30 24672 H 2273.77 -3.58352 -1.72709 0
M  V30 24673 H 2270.51 -6.48324 -0.967293 0
M  V30 24674 H 2270.03 -5.50779 -2.37493 0
M  V30 24675 H 2271.71 -6.07972 -2.21312 0
M  V30 24676 N 2271.84 0.489844 -1.49794 0
M  V30 24677 C 2272.75 1.6163 -1.70038 0
M  V30 24678 C 2273.77 1.63938 -0.583131 0
M  V30 24679 O 2274.94 1.82153 -0.859201 0
M  V30 24680 C 2272.01 2.97946 -1.77282 0
M  V30 24681 C 2271.07 3.06176 -3.00923 0
M  V30 24682 C 2270.3 4.3599 -3.07812 0
M  V30 24683 O 2270.52 5.2543 -2.21991 0
M  V30 24684 O 2269.46 4.49424 -4.00377 0
M  V30 24685 H 2273.28 1.47477 -2.65489 0
M  V30 24686 H 2270.87 0.667339 -1.33667 0
M  V30 24687 H 2272.75 3.78944 -1.84336 0
M  V30 24688 H 2271.43 3.12337 -0.850131 0
M  V30 24689 H 2270.33 2.24325 -2.99381 0
M  V30 24690 H 2271.67 2.96716 -3.92709 0
M  V30 24691 N 2273.32 1.39056 0.741698 0
M  V30 24692 C 2274.27 1.37374 1.877 0
M  V30 24693 C 2275.26 0.257841 1.67426 0
M  V30 24694 O 2276.47 0.427519 1.74849 0
M  V30 24695 H 2272.84 0.428823 0.61775 0
M  V30 24696 H 2274.81 2.3315 1.86235 0
M  V30 24697 C 2273.56 1.22747 3.25313 0
M  V30 24698 H 2272.88 2.07879 3.41506 0
M  V30 24699 H 2274.32 1.25626 4.04962 0
M  V30 24700 C 2272.78 -0.0646724 3.36838 0
M  V30 24701 O 2273.31 -1.03734 3.88075 0
M  V30 24702 N 2271.52 -0.125493 2.90329 0
M  V30 24703 H 2271.07 0.666726 2.48822 0
M  V30 24704 H 2271.02 -0.989587 2.9842 0
M  V30 24705 N 2274.8 -0.971167 1.24121 0
M  V30 24706 C 2276.04 -1.71623 1.08044 0
M  V30 24707 C 2276.37 -1.90438 -0.380373 0
M  V30 24708 O 2275.65 -1.46336 -1.28125 0
M  V30 24709 C 2275.93 -3.10904 1.81688 0
M  V30 24710 C 2275.79 -2.99602 3.35498 0
M  V30 24711 C 2277.1 -4.10499 1.58679 0
M  V30 24712 H 2274.22 -0.622912 0.393891 0
M  V30 24713 H 2276.87 -1.13 1.52745 0
M  V30 24714 H 2275.02 -3.6095 1.43691 0
M  V30 24715 H 2276.69 -2.57009 3.83072 0
M  V30 24716 H 2274.93 -2.35893 3.64056 0
M  V30 24717 H 2275.6 -3.98257 3.82224 0
M  V30 24718 H 2278.08 -3.69298 1.91725 0
M  V30 24719 H 2276.95 -5.06027 2.12669 0
M  V30 24720 H 2277.21 -4.38981 0.524238 0
M  V30 24721 N 2276.27 -1.05441 -1.17133 0
M  V30 24722 C 2277.22 -0.65155 -2.23288 0
M  V30 24723 C 2278.22 0.328382 -1.66187 0
M  V30 24724 O 2279.42 0.194174 -1.7895 0
M  V30 24725 H 2275.8 -0.192536 -0.726935 0
M  V30 24726 H 2277.77 -1.55694 -2.54562 0
M  V30 24727 C 2276.52 -0.0449047 -3.47671 0
M  V30 24728 H 2275.84 -0.790029 -3.91917 0
M  V30 24729 H 2277.28 0.199566 -4.2353 0
M  V30 24730 C 2275.74 1.20912 -3.14455 0
M  V30 24731 O 2276.27 2.29819 -3.29463 0
M  V30 24732 N 2274.48 1.10774 -2.68659 0
M  V30 24733 H 2274.02 0.221481 -2.56646 0
M  V30 24734 H 2273.98 1.94766 -2.46807 0
M  V30 24735 N 2277.75 1.33613 -0.835776 0
M  V30 24736 C 2278.98 2.02626 -0.442425 0
M  V30 24737 C 2279.4 1.62481 0.947707 0
M  V30 24738 O 2278.76 0.815854 1.61906 0
M  V30 24739 C 2278.81 3.5611 -0.567279 0
M  V30 24740 O 2277.91 4.1038 0.407726 0
M  V30 24741 H 2277.25 0.639055 -0.180289 0
M  V30 24742 H 2279.78 1.70581 -1.12975 0
M  V30 24743 H 2279.79 4.05535 -0.44778 0
M  V30 24744 H 2278.47 3.84674 -1.58109 0
M  V30 24745 H 2277.05 3.72087 0.246042 0
M  V30 24746 N 2279.23 0.591922 1.46062 0
M  V30 24747 C 2280.46 0.0869299 2.06717 0
M  V30 24748 C 2280.87 -1.22201 1.43918 0
M  V30 24749 O 2280.23 -1.74087 0.547729 0
M  V30 24750 C 2280.28 -0.0758089 3.61421 0
M  V30 24751 O 2280 1.18133 4.21872 0
M  V30 24752 C 2281.5 -0.614083 4.39026 0
M  V30 24753 H 2278.72 0.0616635 0.668161 0
M  V30 24754 H 2281.27 0.815208 1.87549 0
M  V30 24755 H 2279.42 -0.754346 3.79985 0
M  V30 24756 H 2279.84 1.00101 5.14859 0
M  V30 24757 H 2281.31 -0.677097 5.47832 0
M  V30 24758 H 2281.79 -1.63305 4.07711 0
M  V30 24759 H 2282.39 0.029889 4.25289 0
M  V30 24760 N 2280.71 -1.54102 0.330204 0
M  V30 24761 C 2281.66 -2.24568 -0.532722 0
M  V30 24762 C 2282.63 -1.23893 -1.10633 0
M  V30 24763 O 2283.81 -1.52593 -1.14543 0
M  V30 24764 C 2280.95 -3.01198 -1.68445 0
M  V30 24765 C 2280.06 -4.16702 -1.13943 0
M  V30 24766 C 2279.2 -4.80849 -2.25738 0
M  V30 24767 C 2278.24 -5.88445 -1.68519 0
M  V30 24768 N 2277.37 -6.46426 -2.74003 0
M  V30 24769 H 2282.21 -2.97906 0.0747429 0
M  V30 24770 H 2279.75 -1.4702 0.0486579 0
M  V30 24771 H 2281.71 -3.43878 -2.36228 0
M  V30 24772 H 2280.34 -2.30182 -2.2631 0
M  V30 24773 H 2279.39 -3.78759 -0.352944 0
M  V30 24774 H 2280.7 -4.94132 -0.680805 0
M  V30 24775 H 2279.86 -5.26531 -3.01413 0
M  V30 24776 H 2278.6 -4.02814 -2.7494 0
M  V30 24777 H 2277.6 -5.42159 -0.913448 0
M  V30 24778 H 2278.83 -6.6838 -1.20186 0
M  V30 24779 H 2276.77 -5.71262 -3.22484 0
M  V30 24780 H 2276.69 -7.19289 -2.32723 0
M  V30 24781 H 2277.96 -6.96763 -3.49487 0
M  V30 24782 N 2282.19 -0.0585199 -1.57491 0
M  V30 24783 C 2283.43 0.613615 -1.92979 0
M  V30 24784 C 2283.76 1.70415 -0.937491 0
M  V30 24785 O 2283.02 1.95639 0.0490436 0
M  V30 24786 C 2283.32 1.24182 -3.35132 0
M  V30 24787 C 2282.98 0.278747 -4.50038 0
M  V30 24788 C 2281.64 0.0137601 -4.81198 0
M  V30 24789 C 2284 -0.380868 -5.19807 0
M  V30 24790 C 2281.32 -0.918153 -5.79471 0
M  V30 24791 C 2283.68 -1.30102 -6.19077 0
M  V30 24792 C 2282.34 -1.57461 -6.48662 0
M  V30 24793 H 2281.61 0.224537 -0.706161 0
M  V30 24794 H 2284.26 -0.126567 -1.91081 0
M  V30 24795 H 2282.56 2.05743 -3.33432 0
M  V30 24796 H 2284.26 1.76894 -3.59874 0
M  V30 24797 H 2280.85 0.495464 -4.25727 0
M  V30 24798 H 2285.03 -0.189245 -4.95939 0
M  V30 24799 H 2280.29 -1.13751 -6.00725 0
M  V30 24800 H 2284.46 -1.81816 -6.72247 0
M  V30 24801 H 2282.09 -2.29834 -7.24624 0
M  V30 24802 O 2283.7 1.61289 0.0824313 0
M  V30 24803 H 2284.39 1.80235 0.709584 0
M  V30 END ATOM
M  V30 BEGIN BOND
M  V30 END BOND
M  V30 END CTAB
M  END
$$$$
