drugbank_target|Q92843 Bcl-2-like protein 2 (DB12340)
 OpenBabel12092120313D

  0  0  0     0  0            999 V3000
M  V30 BEGIN CTAB
M  V30 COUNTS 2877 2913 0 0 0
M  V30 BEGIN ATOM
M  V30 1 H -0.908 1.98254 -0.117106 0
M  V30 2 N 0 1.576 0 0
M  V30 3 C 0.933 2.03868 1.02534 0
M  V30 4 C 1.911 0.928543 1.3348 0
M  V30 5 O 3.095 1.19667 1.45644 0
M  V30 6 C 0.222 2.43627 2.35294 0
M  V30 7 C -0.732 3.65373 2.2001 0
M  V30 8 S 0.101 5.13292 1.52614 0
M  V30 9 C 1.257 5.56322 2.86805 0
M  V30 10 H 1.49 2.90518 0.631377 0
M  V30 11 H -0.977 1.52953 0.210867 0
M  V30 12 H 0.981 2.67203 3.11629 0
M  V30 13 H -0.358 1.57376 2.7183 0
M  V30 14 H -1.165 3.90944 3.18086 0
M  V30 15 H -1.563 3.418 1.51819 0
M  V30 16 H 0.729 5.58782 3.83104 0
M  V30 17 H 1.672 6.56266 2.65933 0
M  V30 18 H 2.08 4.83886 2.90714 0
M  V30 19 N 1.4781 -0.272755 1.55222 0
M  V30 20 C 2.4411 -1.32041 1.87344 0
M  V30 21 C 3.4411 -1.42342 0.74803 0
M  V30 22 O 4.6311 -1.41488 1.0162 0
M  V30 23 C 1.7631 -2.70173 2.07893 0
M  V30 24 H 2.9561 -1.04789 2.80997 0
M  V30 25 H 0.5091 -0.51083 1.47717 0
M  V30 26 H 1.2441 -3.02605 1.16622 0
M  V30 27 H 1.0291 -2.64082 2.89833 0
M  V30 28 H 2.5191 -3.45869 2.34017 0
M  V30 29 N 2.9562 -1.48159 -0.537278 0
M  V30 30 C 4.1842 -1.59454 -1.31841 0
M  V30 31 C 4.5992 -0.252065 -1.8711 0
M  V30 32 O 3.9562 0.757621 -1.66031 0
M  V30 33 C 4.0072 -2.63546 -2.47439 0
M  V30 34 O 3.7282 -3.92583 -1.94449 0
M  V30 35 C 5.2292 -2.85212 -3.39366 0
M  V30 36 H 2.4492 -0.53785 -0.401196 0
M  V30 37 H 4.9932 -1.93932 -0.648891 0
M  V30 38 H 3.1482 -2.31946 -3.1029 0
M  V30 39 H 3.5622 -4.49629 -2.70063 0
M  V30 40 H 5.0362 -3.61863 -4.16844 0
M  V30 41 H 5.5132 -1.93765 -3.94147 0
M  V30 42 H 6.1192 -3.18086 -2.82314 0
M  V30 43 N 4.4343 0.785586 -1.36625 0
M  V30 44 C 5.8453 1.36101 -1.27803 0
M  V30 45 C 6.1963 1.96035 0.0804875 0
M  V30 46 O 5.3213 1.92834 0.982042 0
M  V30 47 C 5.9163 2.47442 -2.31426 0
M  V30 48 C 4.4753 3.00789 -2.26281 0
M  V30 49 C 3.6223 1.73896 -2.15999 0
M  V30 50 H 6.5733 0.586928 -1.47448 0
M  V30 51 H 6.5943 3.2656 -1.95291 0
M  V30 52 H 6.1063 2.03791 -3.30289 0
M  V30 53 H 4.2073 3.48851 -1.30896 0
M  V30 54 H 4.3203 3.57343 -3.19128 0
M  V30 55 H 2.6843 1.9628 -1.62316 0
M  V30 56 H 3.4673 1.32368 -3.16755 0
M  V30 57 N 5.9124 1.20967 1.01018 0
M  V30 58 C 6.8754 0.965918 2.07853 0
M  V30 59 C 7.8754 -0.0610545 1.60684 0
M  V30 60 O 9.0654 0.175681 1.73312 0
M  V30 61 C 6.1974 0.455513 3.37843 0
M  V30 62 H 7.3904 1.91365 2.3091 0
M  V30 63 H 4.9434 1.02594 1.17916 0
M  V30 64 H 5.6784 -0.497381 3.20463 0
M  V30 65 H 5.4634 1.19622 3.73407 0
M  V30 66 H 6.9534 0.304667 4.16487 0
M  V30 67 N 7.3905 -1.2043 1.01659 0
M  V30 68 C 8.6155 -1.94318 0.724942 0
M  V30 69 C 9.0405 -1.74266 -0.708034 0
M  V30 70 O 8.3985 -1.03694 -1.48719 0
M  V30 71 C 8.4465 -3.44486 1.06591 0
M  V30 72 O 7.5505 -4.12017 0.177599 0
M  V30 73 H 6.8915 -0.60708 0.26898 0
M  V30 74 H 9.4215 -1.52861 1.35995 0
M  V30 75 H 9.4315 -3.95106 1.01762 0
M  V30 76 H 8.1065 -3.58404 2.10997 0
M  V30 77 H 6.6835 -3.71821 0.283421 0
M  V30 78 N 8.8686 -0.792821 -1.36206 0
M  V30 79 C 9.8316 -0.199459 -2.2833 0
M  V30 80 C 10.8316 0.605189 -1.48977 0
M  V30 81 O 12.0216 0.425685 -1.68919 0
M  V30 82 C 9.1536 0.723523 -3.33134 0
M  V30 83 H 10.3466 -1.01181 -2.82316 0
M  V30 84 H 7.8996 -0.562485 -1.45828 0
M  V30 85 H 8.6346 1.56008 -2.84309 0
M  V30 86 H 8.4196 0.148436 -3.91819 0
M  V30 87 H 9.9096 1.13344 -4.01924 0
M  V30 88 N 10.3467 1.47872 -0.545128 0
M  V30 89 C 11.7577 1.86384 -0.108581 0
M  V30 90 C 12.1087 1.45309 1.31832 0
M  V30 91 O 11.2337 0.850641 1.9898 0
M  V30 92 C 11.8287 3.38265 -0.190274 0
M  V30 93 C 10.3877 3.75914 0.191164 0
M  V30 94 C 9.5347 2.71926 -0.543273 0
M  V30 95 H 12.4857 1.39561 -0.755537 0
M  V30 96 H 12.5067 3.75831 0.594217 0
M  V30 97 H 12.0187 3.6813 -1.2289 0
M  V30 98 H 10.1197 3.51665 1.23136 0
M  V30 99 H 10.2327 4.78836 -0.158987 0
M  V30 100 H 8.5967 2.54697 0.0122495 0
M  V30 101 H 9.3797 3.04634 -1.58282 0
M  V30 102 N 11.8248 0.280983 1.55075 0
M  V30 103 C 13.1018 -0.386207 1.91749 0
M  V30 104 C 13.4818 -1.73264 1.20594 0
M  V30 105 O 12.8298 -2.26034 0.334784 0
M  V30 106 C 13.0398 -0.520687 3.45094 0
M  V30 107 C 14.3878 -0.800865 4.16979 0
M  V30 108 O 15.4118 -0.605271 3.5102 0
M  V30 109 O 14.2708 -1.1753 5.33712 0
M  V30 110 H 11.3648 -0.212408 0.799257 0
M  V30 111 H 13.9108 0.327568 1.66509 0
M  V30 112 H 12.6828 0.426633 3.88967 0
M  V30 113 H 12.3058 -1.2837 3.76307 0
M  V30 114 N 13.3029 -1.57598 0.00835791 0
M  V30 115 C 14.5309 -1.95214 -0.68549 0
M  V30 116 C 14.9459 -0.883706 -1.66841 0
M  V30 117 O 14.3029 0.136565 -1.81988 0
M  V30 118 C 14.3539 -3.32865 -1.41007 0
M  V30 119 O 14.0749 -4.35609 -0.466552 0
M  V30 120 C 15.5759 -3.84991 -2.19765 0
M  V30 121 H 12.7959 -0.643422 -0.190392 0
M  V30 122 H 15.3399 -2.04406 0.0619607 0
M  V30 123 H 13.4949 -3.24956 -2.10908 0
M  V30 124 H 13.9089 -5.15288 -0.978699 0
M  V30 125 H 15.3829 -4.8371 -2.65948 0
M  V30 126 H 15.8599 -3.18137 -3.02796 0
M  V30 127 H 16.4659 -3.96103 -1.54864 0
M  V30 128 N 14.781 0.264519 -1.55364 0
M  V30 129 C 16.197 0.61215 -1.47394 0
M  V30 130 C 16.397 1.89134 -0.695018 0
M  V30 131 O 15.453 2.51563 -0.217275 0
M  V30 132 C 16.766 0.731235 -2.91674 0
M  V30 133 C 18.314 0.82473 -3.01939 0
M  V30 134 C 18.789 0.975522 -4.4749 0
M  V30 135 N 20.28 1.04083 -4.51354 0
M  V30 136 C 21.015 1.17646 -5.61201 0
M  V30 137 N 20.511 1.27874 -6.80896 0
M  V30 138 N 22.304 1.20823 -5.48961 0
M  V30 139 H 14.455 -0.575456 -2.04456 0
M  V30 140 H 16.718 -0.196099 -0.927496 0
M  V30 141 H 16.424 -0.138392 -3.51428 0
M  V30 142 H 16.298 1.60883 -3.41169 0
M  V30 143 H 18.685 1.68482 -2.42276 0
M  V30 144 H 18.766 -0.0776479 -2.55682 0
M  V30 145 H 18.41 0.120058 -5.07758 0
M  V30 146 H 18.34 1.89268 -4.91412 0
M  V30 147 H 20.831 0.973846 -3.65136 0
M  V30 148 H 21.144 1.38081 -7.60364 0
M  V30 149 H 19.489 1.24863 -6.83692 0
M  V30 150 H 22.68 1.12469 -4.54388 0
M  V30 151 H 22.853 1.31049 -6.3461 0
M  V30 152 N 16.2591 1.48442 0.529413 0
M  V30 153 C 17.2221 1.62524 1.61612 0
M  V30 154 C 18.2221 0.498509 1.52877 0
M  V30 155 O 19.4121 0.76431 1.56537 0
M  V30 156 C 16.5441 1.59597 3.01233 0
M  V30 157 H 17.7371 2.59423 1.50465 0
M  V30 158 H 15.2901 1.37047 0.751514 0
M  V30 159 H 16.0251 0.641781 3.17886 0
M  V30 160 H 15.8101 2.41397 3.08982 0
M  V30 161 H 17.3001 1.72646 3.80241 0
M  V30 162 N 17.7372 -0.778329 1.37039 0
M  V30 163 C 18.6672 -1.90546 1.34962 0
M  V30 164 C 19.6482 -1.68681 0.219274 0
M  V30 165 O 20.8332 -1.89634 0.418624 0
M  V30 166 C 17.9632 -3.27734 1.14925 0
M  V30 167 C 16.9172 -3.64147 2.24902 0
M  V30 168 C 16.2432 -4.99806 1.89996 0
M  V30 169 C 17.5432 -3.71579 3.67051 0
M  V30 170 H 19.2372 -1.92541 2.29277 0
M  V30 171 H 16.7832 -0.924948 1.10366 0
M  V30 172 H 18.7362 -4.06215 1.12104 0
M  V30 173 H 17.4602 -3.26154 0.170631 0
M  V30 174 H 16.1192 -2.8797 2.26868 0
M  V30 175 H 15.7672 -4.94759 0.906796 0
M  V30 176 H 15.4672 -5.25139 2.63634 0
M  V30 177 H 16.9912 -5.80694 1.88749 0
M  V30 178 H 18.4052 -4.40227 3.67251 0
M  V30 179 H 16.8022 -4.08405 4.39688 0
M  V30 180 H 17.8722 -2.72404 4.01154 0
M  V30 181 N 19.2153 -1.21501 -1.00376 0
M  V30 182 C 20.4613 -1.03452 -1.74429 0
M  V30 183 C 20.7943 0.430764 -1.89362 0
M  V30 184 O 20.0693 1.31962 -1.42886 0
M  V30 185 C 20.3523 -1.73375 -3.15615 0
M  V30 186 C 20.2053 -3.27431 -3.08397 0
M  V30 187 C 21.5243 -1.47732 -4.14564 0
M  V30 188 H 18.6433 -0.377226 -0.633143 0
M  V30 189 H 21.2853 -1.49693 -1.17013 0
M  V30 190 H 19.4353 -1.34064 -3.64636 0
M  V30 191 H 21.1073 -3.76119 -2.67081 0
M  V30 192 H 19.3503 -3.5767 -2.45468 0
M  V30 193 H 20.0213 -3.71524 -4.08258 0
M  V30 194 H 22.4973 -1.8186 -3.74254 0
M  V30 195 H 21.3733 -1.99169 -5.11491 0
M  V30 196 H 21.6343 -0.407589 -4.40217 0
M  V30 197 N 20.6934 1.19889 -1.02296 0
M  V30 198 C 21.6564 2.21116 -0.603351 0
M  V30 199 C 22.6564 1.5738 0.329884 0
M  V30 200 O 23.8464 1.73802 0.117702 0
M  V30 201 C 20.9784 3.40696 0.117992 0
M  V30 202 H 22.1714 2.59754 -1.49893 0
M  V30 203 H 19.7244 1.33463 -0.813468 0
M  V30 204 H 20.4594 3.07569 1.0282 0
M  V30 205 H 20.2444 3.88188 -0.552511 0
M  V30 206 H 21.7344 4.15692 0.398696 0
M  V30 207 N 22.1715 0.800033 1.35784 0
M  V30 208 C 23.4485 0.30088 1.93272 0
M  V30 209 C 23.8285 -1.20857 1.73081 0
M  V30 210 O 23.1765 -2.00502 1.09596 0
M  V30 211 C 23.3865 0.70511 3.41803 0
M  V30 212 C 24.7345 0.690871 4.18942 0
M  V30 213 O 25.7585 0.646244 3.50289 0
M  V30 214 O 24.6175 0.74332 5.41421 0
M  V30 215 H 21.7115 0.0771605 0.823393 0
M  V30 216 H 24.2575 0.88329 1.449 0
M  V30 217 H 23.0295 1.74571 3.50201 0
M  V30 218 H 22.6525 0.0971541 3.97481 0
M  V30 219 N 23.6496 -1.47581 0.552962 0
M  V30 220 C 24.8966 -2.02482 0.0273243 0
M  V30 221 C 25.2246 -1.42776 -1.32081 0
M  V30 222 O 24.4796 -0.571393 -1.87173 0
M  V30 223 C 24.7786 -3.57199 -0.119728 0
M  V30 224 C 24.4446 -4.35804 1.15697 0
M  V30 225 C 23.1066 -4.57 1.50681 0
M  V30 226 C 25.4586 -4.81167 2.00319 0
M  V30 227 C 22.7866 -5.20807 2.70142 0
M  V30 228 C 25.1386 -5.46293 3.18978 0
M  V30 229 C 23.8026 -5.65722 3.54281 0
M  V30 230 H 23.0726 -0.740933 0.00999866 0
M  V30 231 H 25.7196 -1.77302 0.72362 0
M  V30 232 H 24.0246 -3.81348 -0.89896 0
M  V30 233 H 25.7216 -3.97324 -0.541718 0
M  V30 234 H 22.3116 -4.19582 0.874561 0
M  V30 235 H 26.4956 -4.64574 1.74599 0
M  V30 236 H 21.7516 -5.34045 2.97668 0
M  V30 237 H 25.9256 -5.80407 3.84838 0
M  V30 238 H 23.5526 -6.14936 4.46942 0
M  V30 239 N 25.1277 -0.289203 -1.54924 0
M  V30 240 C 26.3737 0.323998 -2.00195 0
M  V30 241 C 26.7067 1.54441 -1.17735 0
M  V30 242 O 25.9817 1.92875 -0.250878 0
M  V30 243 C 26.2647 0.692276 -3.53383 0
M  V30 244 C 26.1177 -0.536457 -4.46589 0
M  V30 245 C 27.4367 1.52335 -4.12895 0
M  V30 246 H 24.5557 0.116289 -0.727768 0
M  V30 247 H 27.1977 -0.398954 -1.85764 0
M  V30 248 H 25.3477 1.30822 -3.65811 0
M  V30 249 H 27.0197 -1.17499 -4.46085 0
M  V30 250 H 25.2627 -1.17192 -4.1767 0
M  V30 251 H 25.9337 -0.234806 -5.515 0
M  V30 252 H 28.4097 1.00302 -4.0383 0
M  V30 253 H 27.2857 1.74982 -5.20262 0
M  V30 254 H 27.5467 2.50886 -3.64018 0
M  V30 255 N 26.6058 1.57591 -0.0167156 0
M  V30 256 C 27.8538 1.90906 0.663285 0
M  V30 257 C 28.1748 0.892509 1.73376 0
M  V30 258 O 27.4448 -0.0677623 1.95783 0
M  V30 259 H 26.0248 0.704637 0.247983 0
M  V30 260 H 28.6868 1.94803 -0.0615909 0
M  V30 261 H 27.7828 2.9116 1.12393 0
M  V30 262 N 28.0839 -0.256276 1.55502 0
M  V30 263 C 29.3139 -1.00196 1.80677 0
M  V30 264 C 29.7219 -1.79805 0.588797 0
M  V30 265 O 29.0649 -1.78055 -0.451883 0
M  V30 266 C 29.1269 -1.99515 2.99055 0
M  V30 267 C 28.7909 -1.38688 4.35448 0
M  V30 268 C 29.7879 -0.794079 5.138 0
M  V30 269 C 27.4729 -1.40906 4.82132 0
M  V30 270 C 29.4669 -0.231562 6.36979 0
M  V30 271 C 27.1539 -0.842684 6.05262 0
M  V30 272 C 28.1519 -0.254953 6.82524 0
M  V30 273 O 27.8399 0.3027 8.0333 0
M  V30 274 H 27.5719 -0.300919 0.60533 0
M  V30 275 H 30.1259 -0.287307 2.03381 0
M  V30 276 H 28.3559 -2.74785 2.72084 0
M  V30 277 H 30.0449 -2.60349 3.11405 0
M  V30 278 H 30.8109 -0.769519 4.78856 0
M  V30 279 H 26.6899 -1.85591 4.21992 0
M  V30 280 H 30.2339 0.227816 6.97228 0
M  V30 281 H 26.1309 -0.86454 6.39684 0
M  V30 282 H 26.8989 0.193662 8.18271 0
M  V30 283 N 29.562 -1.4872 -0.521534 0
M  V30 284 C 30.509 -1.63871 -1.62527 0
M  V30 285 C 31.479 -0.480559 -1.58996 0
M  V30 286 O 32.664 -0.705085 -1.77294 0
M  V30 287 C 29.804 -1.69227 -3.00759 0
M  V30 288 C 28.917 -2.96207 -3.14461 0
M  V30 289 C 28.052 -2.92671 -4.43303 0
M  V30 290 C 27.091 -4.14318 -4.50563 0
M  V30 291 N 26.228 -4.0881 -5.70805 0
M  V30 292 H 31.068 -2.58123 -1.48918 0
M  V30 293 H 28.605 -1.28 -0.724878 0
M  V30 294 H 30.563 -1.70314 -3.80853 0
M  V30 295 H 29.193 -0.784586 -3.1312 0
M  V30 296 H 28.245 -3.04826 -2.27564 0
M  V30 297 H 29.557 -3.86192 -3.15686 0
M  V30 298 H 28.711 -2.92206 -5.31696 0
M  V30 299 H 27.45 -2.00429 -4.44612 0
M  V30 300 H 26.455 -4.15049 -3.60575 0
M  V30 301 H 27.68 -5.07729 -4.50986 0
M  V30 302 H 25.626 -3.19394 -5.72995 0
M  V30 303 H 25.543 -4.92509 -5.7356 0
M  V30 304 H 26.811 -4.12418 -6.61462 0
M  V30 305 N 31.0401 0.771051 -1.3745 0
M  V30 306 C 31.9701 1.89827 -1.3597 0
M  V30 307 C 32.9511 1.68562 -0.228216 0
M  V30 308 O 34.1361 1.8941 -0.428675 0
M  V30 309 C 31.2661 3.2712 -1.16662 0
M  V30 310 C 30.2201 3.6295 -2.2683 0
M  V30 311 C 29.5461 4.98791 -1.92644 0
M  V30 312 C 30.8461 3.69627 -3.69017 0
M  V30 313 H 32.5401 1.91323 -2.30295 0
M  V30 314 H 30.0861 0.919082 -1.10855 0
M  V30 315 H 32.0391 4.05615 -1.14256 0
M  V30 316 H 30.7631 3.26059 -0.187926 0
M  V30 317 H 29.4221 2.86763 -2.28392 0
M  V30 318 H 29.0701 4.94271 -0.933021 0
M  V30 319 H 28.7701 5.23733 -2.66416 0
M  V30 320 H 30.2941 5.79685 -1.91826 0
M  V30 321 H 31.7081 4.38273 -3.69581 0
M  V30 322 H 30.1051 4.06067 -4.41848 0
M  V30 323 H 31.1751 2.70273 -4.02592 0
M  V30 324 N 32.5182 1.22032 0.997298 0
M  V30 325 C 33.9342 0.979326 1.26021 0
M  V30 326 C 34.1342 -0.32972 1.98784 0
M  V30 327 O 33.1902 -1.05345 2.29475 0
M  V30 328 C 34.5032 2.17509 2.07631 0
M  V30 329 C 36.0512 2.21817 2.2083 0
M  V30 330 C 36.5262 3.40933 3.05825 0
M  V30 331 N 38.0172 3.41067 3.13412 0
M  V30 332 C 38.7522 4.29885 3.79455 0
M  V30 333 N 38.2482 5.28914 4.47462 0
M  V30 334 N 40.0412 4.17673 3.76173 0
M  V30 335 H 32.1922 2.06202 0.509352 0
M  V30 336 H 34.4552 0.90334 0.287541 0
M  V30 337 H 34.1612 3.12415 1.61524 0
M  V30 338 H 34.0352 2.17206 3.08385 0
M  V30 339 H 36.4222 1.27462 2.66153 0
M  V30 340 H 36.5032 2.2616 1.1952 0
M  V30 341 H 36.1472 4.35586 2.61203 0
M  V30 342 H 36.0772 3.33829 4.07266 0
M  V30 343 H 38.5682 2.69406 2.65007 0
M  V30 344 H 38.8812 5.92973 4.95583 0
M  V30 345 H 37.2262 5.32831 4.46224 0
M  V30 346 H 40.4172 3.39564 3.22202 0
M  V30 347 H 40.5902 4.87098 4.27363 0
M  V30 348 N 33.9963 -1.19345 1.0293 0
M  V30 349 C 34.9283 -2.22036 0.56857 0
M  V30 350 C 35.9413 -1.58865 -0.355779 0
M  V30 351 O 37.1303 -1.77851 -0.152103 0
M  V30 352 C 34.2303 -3.38363 -0.190752 0
M  V30 353 C 33.4033 -4.31118 0.738643 0
M  V30 354 C 32.4623 -5.26194 0.0246497 0
M  V30 355 O 31.4883 -5.65461 0.651354 0
M  V30 356 N 32.6903 -5.66971 -1.24594 0
M  V30 357 H 35.4553 -2.6219 1.45177 0
M  V30 358 H 33.0163 -1.34015 0.908381 0
M  V30 359 H 35.0083 -3.98981 -0.677961 0
M  V30 360 H 33.5783 -2.96994 -0.975366 0
M  V30 361 H 32.7983 -3.68276 1.40593 0
M  V30 362 H 34.0863 -4.90001 1.37029 0
M  V30 363 H 33.4843 -5.37104 -1.77583 0
M  V30 364 H 32.0413 -6.2984 -1.67764 0
M  V30 365 N 35.4744 -0.807222 -1.35358 0
M  V30 366 C 36.4214 -0.216037 -2.29787 0
M  V30 367 C 37.3914 0.650278 -1.52842 0
M  V30 368 O 38.5764 0.595227 -1.81278 0
M  V30 369 C 35.7164 0.628893 -3.39321 0
M  V30 370 C 34.8294 -0.257927 -4.31229 0
M  V30 371 C 33.9644 0.595069 -5.27856 0
M  V30 372 C 33.0034 -0.292111 -6.11403 0
M  V30 373 N 32.1404 0.520895 -7.00165 0
M  V30 374 H 36.9804 -1.02671 -2.79755 0
M  V30 375 H 34.5174 -0.517839 -1.37684 0
M  V30 376 H 36.4754 1.13393 -4.01494 0
M  V30 377 H 35.1054 1.40482 -2.90628 0
M  V30 378 H 34.1574 -0.881076 -3.70056 0
M  V30 379 H 35.4694 -0.940759 -4.89848 0
M  V30 380 H 34.6234 1.16522 -5.95405 0
M  V30 381 H 33.3624 1.31146 -4.69736 0
M  V30 382 H 32.3674 -0.874525 -5.428 0
M  V30 383 H 33.5924 -1.00638 -6.71602 0
M  V30 384 H 31.5384 1.22125 -6.44532 0
M  V30 385 H 31.4554 -0.103877 -7.55929 0
M  V30 386 H 32.7234 1.0743 -7.72062 0
M  V30 387 N 36.9525 1.47285 -0.560781 0
M  V30 388 C 38.2005 2.02064 -0.0379868 0
M  V30 389 C 38.5215 1.43711 1.31803 0
M  V30 390 O 37.7915 0.61362 1.86042 0
M  V30 391 H 36.3715 0.746918 -0.0110531 0
M  V30 392 H 39.0335 1.80648 -0.731598 0
M  V30 393 H 38.1295 3.12064 0.0474463 0
M  V30 394 N 38.4306 0.297415 1.54768 0
M  V30 395 C 39.6606 -0.315165 2.04182 0
M  V30 396 C 40.0686 -1.4834 1.17439 0
M  V30 397 O 39.4116 -1.82695 0.191891 0
M  V30 398 C 39.4736 -0.837583 3.49607 0
M  V30 399 C 39.1376 0.204912 4.5654 0
M  V30 400 C 40.1346 1.03214 5.09552 0
M  V30 401 C 37.8196 0.345578 5.0111 0
M  V30 402 C 39.8136 1.986 6.05671 0
M  V30 403 C 37.5006 1.30289 5.97049 0
M  V30 404 C 38.4986 2.12159 6.49213 0
M  V30 405 O 38.1866 3.06268 7.43273 0
M  V30 406 H 37.9186 -0.0729646 0.672051 0
M  V30 407 H 40.4726 0.433907 2.00765 0
M  V30 408 H 38.7026 -1.63712 3.50336 0
M  V30 409 H 40.3916 -1.36566 3.82236 0
M  V30 410 H 41.1576 0.934312 4.75916 0
M  V30 411 H 37.0366 -0.28171 4.60138 0
M  V30 412 H 40.5806 2.62542 6.46311 0
M  V30 413 H 36.4776 1.40145 6.30103 0
M  V30 414 H 37.2456 3.01205 7.61064 0
M  V30 415 N 39.9087 -1.5758 0.0250728 0
M  V30 416 C 41.1547 -1.91917 -0.655413 0
M  V30 417 C 41.4877 -0.901433 -1.72011 0
M  V30 418 O 40.7627 0.0764069 -1.9435 0
M  V30 419 C 41.0457 -3.36751 -1.27558 0
M  V30 420 C 40.8987 -4.49258 -0.220719 0
M  V30 421 C 42.2177 -3.81469 -2.19475 0
M  V30 422 H 39.3367 -0.697925 -0.23679 0
M  V30 423 H 41.9787 -1.89825 0.0815036 0
M  V30 424 H 40.1287 -3.38664 -1.90365 0
M  V30 425 H 41.8007 -4.59478 0.409601 0
M  V30 426 H 40.0437 -4.31415 0.454264 0
M  V30 427 H 40.7147 -5.47618 -0.694175 0
M  V30 428 H 43.1907 -3.81266 -1.66659 0
M  V30 429 H 42.0667 -4.83512 -2.59822 0
M  V30 430 H 42.3277 -3.16744 -3.08424 0
M  V30 431 N 41.3868 0.248026 -1.55636 0
M  V30 432 C 42.6268 0.983592 -1.79178 0
M  V30 433 C 42.9908 1.82567 -0.594414 0
M  V30 434 O 44.1918 2.59292 -0.708583 0
M  V30 435 C 42.4628 1.82228 -3.07454 0
M  V30 436 S 44.0218 2.61709 -3.52213 0
M  V30 437 H 40.8398 0.330866 -0.629324 0
M  V30 438 H 43.4418 0.251562 -1.93875 0
M  V30 439 H 42.1458 1.19333 -3.92668 0
M  V30 440 H 41.6768 2.59708 -2.95492 0
M  V30 441 H 43.6918 3.84655 -3.13457 0
M  V30 442 N 42.8649 1.48995 0.513639 0
M  V30 443 C 44.1129 1.57531 1.26604 0
M  V30 444 C 44.4339 0.258236 1.93283 0
M  V30 445 O 43.7039 -0.721502 1.8213 0
M  V30 446 H 42.2839 0.580387 0.470276 0
M  V30 447 H 44.9459 1.85552 0.596373 0
M  V30 448 H 44.0419 2.36486 2.03669 0
M  V30 449 N 44.343 -0.763751 1.37857 0
M  V30 450 C 45.306 -1.85889 1.34081 0
M  V30 451 C 46.306 -1.58949 0.243277 0
M  V30 452 O 47.496 -1.66882 0.499589 0
M  V30 453 C 44.628 -3.23176 1.08489 0
M  V30 454 H 45.821 -1.90648 2.31502 0
M  V30 455 H 43.374 -0.964367 1.23003 0
M  V30 456 H 44.109 -3.24091 0.116318 0
M  V30 457 H 43.894 -3.44124 1.8794 0
M  V30 458 H 45.384 -4.03254 1.08517 0
M  V30 459 N 45.8211 -1.22559 -0.990812 0
M  V30 460 C 47.0691 -1.04933 -1.72724 0
M  V30 461 C 47.3901 0.416158 -1.90508 0
M  V30 462 O 46.6601 1.29918 -1.46622 0
M  V30 463 H 45.2401 -0.385296 -0.639965 0
M  V30 464 H 47.9021 -1.54105 -1.19322 0
M  V30 465 H 46.9981 -1.52886 -2.72089 0
M  V30 466 N 47.2992 1.18797 -1.03562 0
M  V30 467 C 48.7102 1.70322 -0.764676 0
M  V30 468 C 49.0612 1.82708 0.714996 0
M  V30 469 O 48.1862 1.50299 1.55689 0
M  V30 470 C 48.7812 3.09356 -1.38145 0
M  V30 471 C 47.3402 3.58114 -1.15895 0
M  V30 472 C 46.4872 2.34798 -1.4753 0
M  V30 473 H 49.4382 1.03543 -1.20268 0
M  V30 474 H 49.4592 3.72378 -0.781977 0
M  V30 475 H 48.9712 3.00309 -2.45837 0
M  V30 476 H 47.0722 3.72464 -0.100544 0
M  V30 477 H 47.1852 4.4184 -1.8524 0
M  V30 478 H 45.5492 2.38464 -0.894829 0
M  V30 479 H 46.3322 2.28375 -2.56319 0
M  V30 480 N 48.7773 0.814389 1.34928 0
M  V30 481 C 50.0253 0.397636 1.9815 0
M  V30 482 C 50.3463 -1.04069 1.64908 0
M  V30 483 O 49.6163 -1.72121 0.93548 0
M  V30 484 H 48.1963 0.144043 0.732981 0
M  V30 485 H 50.8583 1.04195 1.6471 0
M  V30 486 H 49.9543 0.509688 3.0791 0
M  V30 487 N 50.2554 -1.46986 0.568584 0
M  V30 488 C 51.1654 -2.33942 -0.17555 0
M  V30 489 C 52.1814 -1.48891 -0.90041 0
M  V30 490 O 53.3574 -1.81794 -0.86676 0
M  V30 491 C 50.4224 -3.25811 -1.18524 0
M  V30 492 C 49.4834 -4.26757 -0.466582 0
M  V30 493 C 48.7164 -5.14236 -1.42817 0
M  V30 494 O 48.9394 -5.04379 -2.66379 0
M  V30 495 O 47.8734 -5.94412 -0.946453 0
M  V30 496 H 51.6994 -2.98896 0.538036 0
M  V30 497 H 49.2844 -1.4573 0.329097 0
M  V30 498 H 51.1664 -3.82527 -1.76779 0
M  V30 499 H 49.8414 -2.63471 -1.88055 0
M  V30 500 H 48.7484 -3.73769 0.157451 0
M  V30 501 H 50.0814 -4.91843 0.187485 0
M  V30 502 N 51.7335 -0.305618 -1.54608 0
M  V30 503 C 52.9815 0.301701 -1.99835 0
M  V30 504 C 53.3025 1.54054 -1.19551 0
M  V30 505 O 52.5725 1.93702 -0.292658 0
M  V30 506 H 51.1525 0.114468 -0.738178 0
M  V30 507 H 53.8145 -0.418016 -1.90364 0
M  V30 508 H 52.9105 0.570548 -3.06841 0
M  V30 509 N 53.2116 1.57565 -0.0334293 0
M  V30 510 C 54.6226 1.79746 0.504798 0
M  V30 511 C 54.9736 0.944091 1.71992 0
M  V30 512 O 54.0986 0.155694 2.15839 0
M  V30 513 C 54.6936 3.25997 0.922567 0
M  V30 514 C 53.2526 3.49159 1.40588 0
M  V30 515 C 52.3996 2.74785 0.372633 0
M  V30 516 H 55.3506 1.56565 -0.259436 0
M  V30 517 H 55.3716 3.35945 1.78666 0
M  V30 518 H 54.8836 3.88081 0.0379825 0
M  V30 519 H 52.9846 2.92332 2.31025 0
M  V30 520 H 53.0976 4.57873 1.41028 0
M  V30 521 H 51.4616 2.40391 0.841672 0
M  V30 522 H 52.2446 3.39587 -0.503559 0
M  V30 523 N 54.6897 -0.239769 1.55765 0
M  V30 524 C 55.6527 -1.28038 1.90103 0
M  V30 525 C 56.6527 -1.40723 0.778055 0
M  V30 526 O 57.8427 -1.39301 1.04599 0
M  V30 527 C 54.9747 -2.65702 2.13577 0
M  V30 528 H 56.1677 -0.988048 2.83157 0
M  V30 529 H 53.7207 -0.479382 1.48767 0
M  V30 530 H 54.4557 -3.00063 1.23015 0
M  V30 531 H 54.2407 -2.57875 2.95369 0
M  V30 532 H 55.7307 -3.40828 2.41301 0
M  V30 533 N 56.1678 -1.49265 -0.50573 0
M  V30 534 C 57.1308 -1.65075 -1.59006 0
M  V30 535 C 58.1308 -0.522768 -1.52065 0
M  V30 536 O 59.3208 -0.789117 -1.55302 0
M  V30 537 C 56.4528 -1.64369 -2.98656 0
M  V30 538 H 57.6458 -2.61784 -1.46319 0
M  V30 539 H 55.1988 -1.38226 -0.729616 0
M  V30 540 H 55.9338 -0.692272 -3.16825 0
M  V30 541 H 55.7188 -2.46282 -3.05103 0
M  V30 542 H 57.2088 -1.78674 -3.77446 0
M  V30 543 N 57.6459 0.756429 -1.3826 0
M  V30 544 C 58.9229 1.50584 -1.24835 0
M  V30 545 C 59.3029 2.10556 0.151485 0
M  V30 546 O 58.6509 1.96825 1.1607 0
M  V30 547 C 58.8609 2.57448 -2.3563 0
M  V30 548 C 60.2089 3.24429 -2.73917 0
M  V30 549 O 61.2329 2.67751 -2.34921 0
M  V30 550 O 60.0919 4.26937 -3.41156 0
M  V30 551 H 57.1859 0.667664 -0.48801 0
M  V30 552 H 59.7319 0.792083 -1.5008 0
M  V30 553 H 58.5039 2.11362 -3.29305 0
M  V30 554 H 58.1269 3.36408 -2.11933 0
M  V30 555 N 59.124 1.23083 0.984299 0
M  V30 556 C 60.535 1.05609 1.5396 0
M  V30 557 C 60.886 -0.377793 1.92528 0
M  V30 558 O 60.011 -1.26398 1.75649 0
M  V30 559 C 60.606 1.91087 2.7977 0
M  V30 560 C 59.165 1.77885 3.31713 0
M  V30 561 C 58.312 1.87028 2.04733 0
M  V30 562 H 61.263 1.36802 0.804419 0
M  V30 563 H 61.284 1.43336 3.5247 0
M  V30 564 H 60.796 2.9544 2.51668 0
M  V30 565 H 58.897 0.762995 3.64704 0
M  V30 566 H 59.01 2.61047 4.01735 0
M  V30 567 H 57.374 1.30565 2.18689 0
M  V30 568 H 58.157 2.92929 1.79017 0
M  V30 569 N 60.6021 -1.18246 1.0419 0
M  V30 570 C 61.5321 -2.24127 0.654914 0
M  V30 571 C 62.5131 -1.66617 -0.342451 0
M  V30 572 O 63.6981 -1.92924 -0.222277 0
M  V30 573 C 60.8281 -3.47295 0.0183757 0
M  V30 574 C 59.7821 -4.17563 0.939414 0
M  V30 575 C 59.1081 -5.34438 0.167286 0
M  V30 576 C 60.4081 -4.70917 2.25908 0
M  V30 577 H 62.1021 -2.56753 1.54007 0
M  V30 578 H 59.6481 -1.23414 0.74195 0
M  V30 579 H 61.6011 -4.20572 -0.264082 0
M  V30 580 H 60.3251 -3.13907 -0.901664 0
M  V30 581 H 58.9841 -3.46186 1.20628 0
M  V30 582 H 58.6321 -4.97298 -0.7552 0
M  V30 583 H 58.3321 -5.82388 0.780901 0
M  V30 584 H 59.8561 -6.10504 -0.108125 0
M  V30 585 H 61.2701 -5.35882 2.03724 0
M  V30 586 H 59.6671 -5.29406 2.82577 0
M  V30 587 H 60.7371 -3.88272 2.9047 0
M  V30 588 N 62.0802 -0.821533 -1.34494 0
M  V30 589 C 63.0302 -0.214793 -2.26986 0
M  V30 590 C 64.0142 0.620125 -1.4847 0
M  V30 591 O 65.2062 0.474933 -1.70509 0
M  V30 592 C 62.3352 0.623566 -3.37589 0
M  V30 593 C 61.4212 -0.221904 -4.23519 0
M  V30 594 N 61.8122 -1.29223 -4.89014 0
M  V30 595 C 60.1102 -0.00600922 -4.46 0
M  V30 596 C 60.8112 -1.80965 -5.52835 0
M  V30 597 N 59.7872 -1.11376 -5.32068 0
M  V30 598 H 63.5892 -1.03354 -2.75128 0
M  V30 599 H 61.1032 -0.6642 -1.48196 0
M  V30 600 H 63.1002 1.0744 -4.02818 0
M  V30 601 H 61.7602 1.44049 -2.90998 0
M  V30 602 H 62.7712 -1.67502 -4.90065 0
M  V30 603 H 59.4482 0.77886 -4.10171 0
M  V30 604 H 60.8382 -2.70502 -6.15043 0
M  V30 605 N 63.5583 1.46682 -0.576371 0
M  V30 606 C 64.4903 2.28341 0.198231 0
M  V30 607 C 65.5033 1.38141 0.861453 0
M  V30 608 O 66.6923 1.62797 0.732082 0
M  V30 609 C 63.7923 3.12986 1.29972 0
M  V30 610 C 62.9653 4.31271 0.729639 0
M  V30 611 C 62.0243 4.97363 1.71803 0
M  V30 612 O 61.0503 5.55156 1.25658 0
M  V30 613 N 62.2523 4.93796 3.05198 0
M  V30 614 H 65.0173 2.9546 -0.502324 0
M  V30 615 H 62.5783 1.56525 -0.413715 0
M  V30 616 H 64.5703 3.54066 1.96008 0
M  V30 617 H 63.1403 2.47984 1.90323 0
M  V30 618 H 62.3603 3.94052 -0.108012 0
M  V30 619 H 63.6483 5.07739 0.328438 0
M  V30 620 H 63.0463 4.48077 3.45317 0
M  V30 621 H 61.6033 5.38837 3.6674 0
M  V30 622 N 65.0364 0.313813 1.54444 0
M  V30 623 C 65.9994 -0.54379 2.22656 0
M  V30 624 C 66.9994 -1.05124 1.21678 0
M  V30 625 O 68.1894 -0.945225 1.46325 0
M  V30 626 C 65.3214 -1.75427 2.92298 0
M  V30 627 H 66.5144 0.0523599 2.99854 0
M  V30 628 H 64.0674 0.0647834 1.56166 0
M  V30 629 H 64.8024 -2.38991 2.19211 0
M  V30 630 H 64.5874 -1.39791 3.66334 0
M  V30 631 H 66.0774 -2.36325 3.44297 0
M  V30 632 N 66.5145 -1.57545 0.0417849 0
M  V30 633 C 67.4475 -2.06514 -0.970928 0
M  V30 634 C 68.4255 -0.963607 -1.30971 0
M  V30 635 O 69.6095 -1.23486 -1.4242 0
M  V30 636 C 66.7365 -2.4978 -2.28752 0
M  V30 637 C 65.7825 -3.71078 -2.10246 0
M  V30 638 S 66.6155 -5.17158 -1.38952 0
M  V30 639 C 67.7715 -5.6373 -2.71954 0
M  V30 640 H 68.0045 -2.9209 -0.554129 0
M  V30 641 H 65.5375 -1.53459 -0.17024 0
M  V30 642 H 67.4955 -2.75371 -3.04435 0
M  V30 643 H 66.1565 -1.64527 -2.67562 0
M  V30 644 H 65.3495 -3.9924 -3.07609 0
M  V30 645 H 64.9515 -3.45705 -1.42704 0
M  V30 646 H 67.2435 -5.68743 -3.68154 0
M  V30 647 H 68.1865 -6.63086 -2.4844 0
M  V30 648 H 68.5945 -4.91424 -2.77782 0
M  V30 649 N 67.9926 0.231505 -1.5589 0
M  V30 650 C 69.4086 0.580748 -1.48659 0
M  V30 651 C 69.6086 1.87617 -0.73498 0
M  V30 652 O 68.6646 2.51046 -0.270586 0
M  V30 653 C 69.9776 0.669202 -2.93159 0
M  V30 654 C 71.5256 0.760499 -3.03621 0
M  V30 655 C 72.0006 0.880383 -4.49459 0
M  V30 656 N 73.4916 0.944861 -4.53461 0
M  V30 657 C 74.2266 1.05716 -5.63571 0
M  V30 658 N 73.7226 1.13403 -6.83456 0
M  V30 659 N 75.5156 1.09152 -5.514 0
M  V30 660 H 67.6666 -0.618695 -2.03189 0
M  V30 661 H 69.9296 -0.215728 -0.923128 0
M  V30 662 H 69.6356 -0.212904 -3.51055 0
M  V30 663 H 69.5096 1.5361 -3.44505 0
M  V30 664 H 71.8966 1.63305 -2.45796 0
M  V30 665 H 71.9776 -0.131864 -2.5546 0
M  V30 666 H 71.6216 0.0123284 -5.07899 0
M  V30 667 H 71.5516 1.78802 -4.95316 0
M  V30 668 H 74.0426 0.896176 -3.6712 0
M  V30 669 H 74.3556 1.21921 -7.63122 0
M  V30 670 H 72.7006 1.10333 -6.86186 0
M  V30 671 H 75.8916 1.02805 -4.56671 0
M  V30 672 H 76.0646 1.17558 -6.37247 0
M  V30 673 N 69.4707 1.49531 0.497807 0
M  V30 674 C 70.4337 1.65916 1.58128 0
M  V30 675 C 71.4337 0.530825 1.51786 0
M  V30 676 O 72.6237 0.797342 1.54881 0
M  V30 677 C 69.7557 1.65951 2.9778 0
M  V30 678 H 70.9487 2.62556 1.44929 0
M  V30 679 H 68.5017 1.38611 0.722275 0
M  V30 680 H 69.2367 0.709065 3.16453 0
M  V30 681 H 69.0217 2.47897 3.03792 0
M  V30 682 H 70.5117 1.80673 3.76493 0
M  V30 683 N 70.9488 -0.749086 1.3866 0
M  V30 684 C 71.9118 -1.84457 1.36045 0
M  V30 685 C 72.9118 -1.58682 0.260122 0
M  V30 686 O 74.1018 -1.66343 0.517261 0
M  V30 687 C 71.2338 -3.22008 1.11911 0
M  V30 688 H 72.4268 -1.88182 2.33512 0
M  V30 689 H 69.9798 -0.951266 1.24019 0
M  V30 690 H 70.7148 -3.2395 0.150686 0
M  V30 691 H 70.4998 -3.42111 1.91579 0
M  V30 692 H 71.9898 -4.0208 1.12788 0
M  V30 693 N 72.4269 -1.23603 -0.977757 0
M  V30 694 C 73.6749 -1.06759 -1.71601 0
M  V30 695 C 73.9959 0.395929 -1.90938 0
M  V30 696 O 73.2659 1.28356 -1.47992 0
M  V30 697 H 71.8459 -0.392062 -0.635843 0
M  V30 698 H 74.5079 -1.55362 -1.1768 0
M  V30 699 H 73.6039 -1.55763 -2.70452 0
M  V30 700 N 73.905 1.17692 -1.04816 0
M  V30 701 C 75.182 1.83768 -0.669963 0
M  V30 702 C 75.562 1.93232 0.849986 0
M  V30 703 O 74.91 1.46397 1.75443 0
M  V30 704 C 75.12 3.21641 -1.35455 0
M  V30 705 C 76.468 3.97592 -1.49017 0
M  V30 706 O 77.492 3.31107 -1.31326 0
M  V30 707 O 76.351 5.16729 -1.77914 0
M  V30 708 H 73.445 0.792799 -0.235368 0
M  V30 709 H 75.991 1.25021 -1.14751 0
M  V30 710 H 74.763 3.097 -2.39168 0
M  V30 711 H 74.386 3.88052 -0.866107 0
M  V30 712 N 75.3831 0.828654 1.34056 0
M  V30 713 C 76.2931 0.256725 2.33191 0
M  V30 714 C 77.3091 -0.611898 1.62886 0
M  V30 715 O 78.4851 -0.51844 1.94613 0
M  V30 716 C 75.5501 -0.567238 3.42028 0
M  V30 717 C 74.6111 0.324458 4.28072 0
M  V30 718 C 73.8441 -0.460274 5.31712 0
M  V30 719 O 74.0671 -1.693 5.44696 0
M  V30 720 O 73.0011 0.160391 6.01686 0
M  V30 721 H 76.8271 1.07739 2.83947 0
M  V30 722 H 74.4121 0.59093 1.37217 0
M  V30 723 H 76.2941 -1.03582 4.08471 0
M  V30 724 H 74.9691 -1.36513 2.93506 0
M  V30 725 H 73.8761 0.840659 3.64532 0
M  V30 726 H 75.2091 1.08685 4.8005 0
M  V30 727 N 76.8612 -1.46375 0.584142 0
M  V30 728 C 78.1082 -2.02378 0.0702675 0
M  V30 729 C 78.4362 -1.45545 -1.29023 0
M  V30 730 O 77.6912 -0.610967 -1.85918 0
M  V30 731 C 77.9902 -3.57373 -0.0439342 0
M  V30 732 C 77.6562 -4.33252 1.24915 0
M  V30 733 C 76.3182 -4.53701 1.60341 0
M  V30 734 C 78.6702 -4.7681 2.1048 0
M  V30 735 C 75.9982 -5.1496 2.81128 0
M  V30 736 C 78.3502 -5.39404 3.30494 0
M  V30 737 C 77.0142 -5.5808 3.66201 0
M  V30 738 H 76.2842 -0.740554 0.0257127 0
M  V30 739 H 78.9312 -1.75727 0.761065 0
M  V30 740 H 77.2362 -3.83169 -0.817869 0
M  V30 741 H 78.9332 -3.98384 -0.457318 0
M  V30 742 H 75.5232 -4.17633 0.963364 0
M  V30 743 H 79.7072 -4.60766 1.84414 0
M  V30 744 H 74.9632 -5.27611 3.08928 0
M  V30 745 H 79.1372 -5.72114 3.97063 0
M  V30 746 H 76.7642 -6.05318 4.59885 0
M  V30 747 N 78.3393 -0.321999 -1.54275 0
M  V30 748 C 79.2493 0.553631 -2.27974 0
M  V30 749 C 80.2653 1.13054 -1.32268 0
M  V30 750 O 81.4413 1.15084 -1.6528 0
M  V30 751 C 78.5063 1.69927 -3.02201 0
M  V30 752 C 77.5673 1.15433 -4.1349 0
M  V30 753 C 76.8003 2.24537 -4.84168 0
M  V30 754 O 77.0233 3.44852 -4.5435 0
M  V30 755 O 75.9573 1.90044 -5.7111 0
M  V30 756 H 79.7833 -0.0448345 -3.03667 0
M  V30 757 H 77.3683 -0.0877418 -1.49142 0
M  V30 758 H 79.2503 2.3663 -3.48689 0
M  V30 759 H 77.9253 2.28395 -2.29385 0
M  V30 760 H 76.8323 0.452436 -3.71354 0
M  V30 761 H 78.1653 0.614805 -4.88345 0
M  V30 762 N 79.8174 1.5752 -0.0501392 0
M  V30 763 C 81.0454 1.96963 0.633492 0
M  V30 764 C 81.4604 0.927631 1.6444 0
M  V30 765 O 80.8174 -0.0882665 1.82286 0
M  V30 766 C 80.8684 3.36487 1.32132 0
M  V30 767 O 80.5894 4.36693 0.350894 0
M  V30 768 C 82.0904 3.90682 2.09481 0
M  V30 769 H 79.3104 0.648244 0.173266 0
M  V30 770 H 81.8544 2.0417 -0.116134 0
M  V30 771 H 80.0094 3.30434 2.02218 0
M  V30 772 H 80.4234 5.17702 0.841735 0
M  V30 773 H 81.8974 4.90591 2.5303 0
M  V30 774 H 82.3744 3.26053 2.94255 0
M  V30 775 H 82.9804 4.00069 1.44307 0
M  V30 776 N 81.2955 -0.223234 1.56011 0
M  V30 777 C 82.7115 -0.572856 1.48965 0
M  V30 778 C 82.9115 -1.87225 0.74492 0
M  V30 779 O 81.9675 -2.50899 0.283896 0
M  V30 780 C 83.2805 -0.653646 2.9351 0
M  V30 781 C 84.8285 -0.744386 3.0402 0
M  V30 782 C 85.3035 -0.856535 4.49919 0
M  V30 783 N 86.7945 -0.9208 4.53955 0
M  V30 784 C 87.5295 -1.02726 5.64123 0
M  V30 785 N 87.0255 -1.09777 6.84047 0
M  V30 786 N 88.8185 -1.06226 5.51971 0
M  V30 787 H 80.9695 0.629462 2.02858 0
M  V30 788 H 83.2325 0.220621 0.921971 0
M  V30 789 H 82.9385 0.231518 3.50937 0
M  V30 790 H 82.8125 -1.51781 3.45315 0
M  V30 791 H 85.1995 -1.61999 2.46658 0
M  V30 792 H 85.2805 0.14541 2.55386 0
M  V30 793 H 84.9245 0.0146069 5.07898 0
M  V30 794 H 84.8545 -1.76172 4.96257 0
M  V30 795 H 87.3455 -0.876694 3.6759 0
M  V30 796 H 87.6585 -1.17872 7.63758 0
M  V30 797 H 86.0035 -1.06693 6.86762 0
M  V30 798 H 89.1945 -1.00382 4.5721 0
M  V30 799 H 89.3675 -1.14177 6.37862 0
M  V30 800 N 82.7736 -1.49793 -0.48987 0
M  V30 801 C 84.0206 -1.59841 -1.24327 0
M  V30 802 C 84.3486 -0.290135 -1.92324 0
M  V30 803 O 83.6036 0.722749 -1.81865 0
M  V30 804 C 83.9026 -2.71488 -2.32441 0
M  V30 805 C 83.5686 -4.12614 -1.81826 0
M  V30 806 C 82.2306 -4.51017 -1.67742 0
M  V30 807 C 84.5826 -5.00892 -1.4407 0
M  V30 808 C 81.9106 -5.75459 -1.14297 0
M  V30 809 C 84.2626 -6.25863 -0.920742 0
M  V30 810 C 82.9266 -6.63086 -0.766383 0
M  V30 811 H 82.1966 -0.584899 -0.454944 0
M  V30 812 H 84.8436 -1.83663 -0.542215 0
M  V30 813 H 83.1486 -2.4168 -3.0838 0
M  V30 814 H 84.8456 -2.76469 -2.90458 0
M  V30 815 H 81.4356 -3.82307 -1.93751 0
M  V30 816 H 85.6196 -4.7187 -1.53794 0
M  V30 817 H 80.8756 -6.02989 -1.01068 0
M  V30 818 H 85.0496 -6.9364 -0.619448 0
M  V30 819 H 82.6766 -7.59393 -0.350083 0
M  V30 820 N 84.2517 0.741722 -1.39055 0
M  V30 821 C 85.6677 1.04638 -1.20512 0
M  V30 822 C 85.8677 2.01405 -0.0620218 0
M  V30 823 O 84.9237 2.45547 0.588457 0
M  V30 824 C 86.2367 1.6151 -2.53643 0
M  V30 825 C 87.7847 1.73623 -2.6043 0
M  V30 826 C 88.2597 2.33906 -3.93767 0
M  V30 827 N 89.7507 2.41323 -3.9537 0
M  V30 828 C 90.4857 2.88888 -4.95309 0
M  V30 829 N 89.9817 3.36401 -6.05645 0
M  V30 830 N 91.7747 2.88037 -4.82692 0
M  V30 831 H 83.9257 0.0998155 -2.12165 0
M  V30 832 H 86.1887 0.106907 -0.941953 0
M  V30 833 H 85.8947 0.978739 -3.37807 0
M  V30 834 H 85.7687 2.60411 -2.72885 0
M  V30 835 H 88.1557 2.36384 -1.76655 0
M  V30 836 H 88.2367 0.733945 -2.45045 0
M  V30 837 H 87.8807 1.71776 -4.7797 0
M  V30 838 H 87.8107 3.34799 -4.06469 0
M  V30 839 H 90.3017 2.07734 -3.15682 0
M  V30 840 H 90.6147 3.71186 -6.77821 0
M  V30 841 H 88.9597 3.34427 -6.09248 0
M  V30 842 H 92.1507 2.50237 -3.95599 0
M  V30 843 H 92.3237 3.24792 -5.60726 0
M  V30 844 N 85.7298 1.2412 0.971189 0
M  V30 845 C 87.1458 1.00584 1.23916 0
M  V30 846 C 87.3458 -0.287481 1.99439 0
M  V30 847 O 86.4018 -1.00454 2.31658 0
M  V30 848 C 87.7148 2.21864 2.0297 0
M  V30 849 C 89.2628 2.26452 2.16076 0
M  V30 850 C 89.7378 3.47343 2.98524 0
M  V30 851 N 91.2288 3.47639 3.06107 0
M  V30 852 C 91.9638 4.37837 3.70251 0
M  V30 853 N 91.4598 5.38286 4.36142 0
M  V30 854 N 93.2528 4.25558 3.67228 0
M  V30 855 H 85.4038 2.07236 0.465499 0
M  V30 856 H 87.6668 0.909236 0.268315 0
M  V30 857 H 87.3728 3.15771 1.54861 0
M  V30 858 H 87.2468 2.23698 3.03709 0
M  V30 859 H 89.6338 1.33078 2.6339 0
M  V30 860 H 89.7148 2.28645 1.14696 0
M  V30 861 H 89.3588 4.41029 2.51905 0
M  V30 862 H 89.2888 3.42393 4.00093 0
M  V30 863 H 91.7798 2.74966 2.59233 0
M  V30 864 H 92.0928 6.03352 4.82894 0
M  V30 865 H 90.4378 5.42176 4.34822 0
M  V30 866 H 93.6288 3.46322 3.14927 0
M  V30 867 H 93.8018 4.96054 4.16935 0
M  V30 868 N 87.2079 -1.17134 1.05439 0
M  V30 869 C 88.4359 -1.91372 0.786414 0
M  V30 870 C 88.8509 -1.76955 -0.658202 0
M  V30 871 O 88.2079 -1.10838 -1.44987 0
M  V30 872 C 88.2589 -3.42356 1.1608 0
M  V30 873 O 87.9799 -3.56332 2.54871 0
M  V30 874 C 89.4809 -4.33663 0.919322 0
M  V30 875 H 86.7009 -0.607118 0.285743 0
M  V30 876 H 89.2449 -1.48525 1.40572 0
M  V30 877 H 87.3999 -3.82939 0.586191 0
M  V30 878 H 87.8139 -4.49896 2.69618 0
M  V30 879 H 89.2879 -5.38099 1.231 0
M  V30 880 H 89.7649 -4.38959 -0.145359 0
M  V30 881 H 90.3709 -3.98796 1.47789 0
M  V30 882 N 88.686 -0.835752 -1.33615 0
M  V30 883 C 89.933 -0.429959 -1.97883 0
M  V30 884 C 90.261 1.01006 -1.66217 0
M  V30 885 O 89.516 1.72047 -0.93265 0
M  V30 886 C 89.815 -0.593925 -3.52431 0
M  V30 887 C 89.481 -2.00158 -4.04039 0
M  V30 888 C 88.143 -2.38662 -4.17844 0
M  V30 889 C 90.495 -2.92117 -4.31644 0
M  V30 890 C 87.823 -3.68435 -4.56588 0
M  V30 891 C 90.175 -4.21368 -4.71838 0
M  V30 892 C 88.839 -4.59833 -4.83849 0
M  V30 893 H 88.109 -0.157333 -0.724104 0
M  V30 894 H 90.756 -1.06217 -1.59343 0
M  V30 895 H 89.061 0.121619 -3.91611 0
M  V30 896 H 90.758 -0.260282 -4.00154 0
M  V30 897 H 87.348 -1.69252 -3.93766 0
M  V30 898 H 91.532 -2.63608 -4.20505 0
M  V30 899 H 86.788 -3.98046 -4.64079 0
M  V30 900 H 90.962 -4.92703 -4.92155 0
M  V30 901 H 88.589 -5.60438 -5.13627 0
M  V30 902 N 90.1641 1.46063 -0.591896 0
M  V30 903 C 91.3891 2.07226 -0.0850314 0
M  V30 904 C 91.8141 1.43625 1.21463 0
M  V30 905 O 91.1721 0.523305 1.73583 0
M  V30 906 C 91.2201 3.60554 0.0576567 0
M  V30 907 O 90.3241 3.97128 1.11188 0
M  V30 908 H 89.6651 0.660615 -0.0669568 0
M  V30 909 H 92.1951 1.8756 -0.81745 0
M  V30 910 H 92.2051 4.07165 0.2609 0
M  V30 911 H 90.8801 4.06235 -0.891416 0
M  V30 912 H 89.4571 3.62213 0.886356 0
M  V30 913 N 91.6422 0.330177 1.54103 0
M  V30 914 C 92.9192 -0.325007 1.92881 0
M  V30 915 C 93.2992 -1.6934 1.26045 0
M  V30 916 O 92.6472 -2.24855 0.406526 0
M  V30 917 C 92.8572 -0.410634 3.46576 0
M  V30 918 C 94.2052 -0.667801 4.19316 0
M  V30 919 O 95.2292 -0.49329 3.52768 0
M  V30 920 O 94.0882 -1.00491 5.37181 0
M  V30 921 H 91.1822 -0.186873 0.80561 0
M  V30 922 H 93.7282 0.380376 1.65382 0
M  V30 923 H 92.5002 0.550164 3.87413 0
M  V30 924 H 92.1232 -1.16333 3.802 0
M  V30 925 N 93.1203 -1.57491 0.0584922 0
M  V30 926 C 94.0503 -2.14988 -0.911178 0
M  V30 927 C 95.0313 -1.07343 -1.31952 0
M  V30 928 O 96.2163 -1.35318 -1.39294 0
M  V30 929 C 93.3463 -2.70078 -2.18347 0
M  V30 930 C 92.3003 -3.82771 -1.91495 0
M  V30 931 C 91.6263 -4.24408 -3.25241 0
M  V30 932 C 92.9263 -5.07592 -1.23075 0
M  V30 933 H 94.6203 -2.96263 -0.432246 0
M  V30 934 H 92.1663 -1.42512 -0.206469 0
M  V30 935 H 94.1193 -3.08943 -2.86587 0
M  V30 936 H 92.8433 -1.86005 -2.68458 0
M  V30 937 H 91.5023 -3.44389 -1.25664 0
M  V30 938 H 91.1503 -3.37275 -3.73168 0
M  V30 939 H 90.8503 -5.00366 -3.08071 0
M  V30 940 H 92.3743 -4.65879 -3.94701 0
M  V30 941 H 93.7883 -5.43857 -1.81362 0
M  V30 942 H 92.1853 -5.88741 -1.16207 0
M  V30 943 H 93.2553 -4.84454 -0.207847 0
M  V30 944 N 94.5984 0.214957 -1.56127 0
M  V30 945 C 95.5614 1.24997 -1.92116 0
M  V30 946 C 96.5614 1.39467 -0.800344 0
M  V30 947 O 97.7514 1.37619 -1.06802 0
M  V30 948 C 94.8834 2.62271 -2.17777 0
M  V30 949 H 96.0764 0.942875 -2.84693 0
M  V30 950 H 93.6294 0.455654 -1.49511 0
M  V30 951 H 94.3644 2.98068 -1.27773 0
M  V30 952 H 94.1494 2.53143 -2.99434 0
M  V30 953 H 95.6394 3.36946 -2.46693 0
M  V30 954 N 96.0765 1.50051 0.48192 0
M  V30 955 C 97.0395 1.67584 1.5636 0
M  V30 956 C 98.0395 0.546894 1.51214 0
M  V30 957 O 99.2295 0.813725 1.54026 0
M  V30 958 C 96.3615 1.691 2.96003 0
M  V30 959 H 97.5545 2.64078 1.42136 0
M  V30 960 H 95.1075 1.39369 0.707533 0
M  V30 961 H 95.8425 0.742589 3.15684 0
M  V30 962 H 95.6275 2.51105 3.01146 0
M  V30 963 H 97.1175 1.84656 3.74556 0
M  V30 964 N 97.5546 -0.734337 1.39446 0
M  V30 965 C 98.4866 -1.85861 1.34121 0
M  V30 966 C 99.4996 -1.60871 0.249864 0
M  V30 967 O 100.689 -1.71093 0.508865 0
M  V30 968 C 97.7886 -3.21899 1.05991 0
M  V30 969 C 96.9616 -3.74239 2.26415 0
M  V30 970 C 96.0206 -4.88841 1.94733 0
M  V30 971 O 95.0466 -5.02468 2.67422 0
M  V30 972 N 96.2486 -5.73261 0.913884 0
M  V30 973 H 99.0136 -1.90934 2.31007 0
M  V30 974 H 96.5746 -0.915102 1.33557 0
M  V30 975 H 98.5666 -3.96136 0.828147 0
M  V30 976 H 97.1366 -3.12091 0.178361 0
M  V30 977 H 96.3566 -2.91347 2.65539 0
M  V30 978 H 97.6446 -4.05942 3.06738 0
M  V30 979 H 97.0426 -5.64842 0.311476 0
M  V30 980 H 95.5996 -6.47563 0.742015 0
M  V30 981 N 99.0327 -1.24633 -0.964593 0
M  V30 982 C 99.9627 -1.06611 -2.07741 0
M  V30 983 C 100.944 0.0218666 -1.70086 0
M  V30 984 O 102.129 -0.145793 -1.93652 0
M  V30 985 C 99.2587 -0.673444 -3.40708 0
M  V30 986 C 98.2127 -1.71054 -3.92332 0
M  V30 987 C 97.5387 -1.17285 -5.21678 0
M  V30 988 C 98.8387 -3.10718 -4.19824 0
M  V30 989 H 100.533 -1.99693 -2.23076 0
M  V30 990 H 98.0787 -0.96152 -1.07195 0
M  V30 991 H 100.032 -0.534345 -4.17998 0
M  V30 992 H 98.7557 0.293073 -3.25282 0
M  V30 993 H 97.4147 -1.83791 -3.17201 0
M  V30 994 H 97.0627 -0.196847 -5.02615 0
M  V30 995 H 96.7627 -1.86592 -5.57187 0
M  V30 996 H 98.2867 -1.04593 -6.01575 0
M  V30 997 H 99.7007 -3.01192 -4.87808 0
M  V30 998 H 98.0977 -3.77406 -4.66567 0
M  V30 999 H 99.1677 -3.58524 -3.26479 0
M  V30 1000 N 100.511 1.16574 -1.06058 0
M  V30 1001 C 101.461 2.18854 -0.63929 0
M  V30 1002 C 102.445 1.57505 0.328798 0
M  V30 1003 O 103.637 1.76408 0.144623 0
M  V30 1004 C 100.766 3.43291 -0.0247203 0
M  V30 1005 C 99.8518 4.11722 -1.01716 0
M  V30 1006 N 100.243 4.55841 -2.19186 0
M  V30 1007 C 98.5408 4.37872 -0.847569 0
M  V30 1008 C 99.2418 5.08751 -2.82042 0
M  V30 1009 N 98.2178 5.01489 -2.09784 0
M  V30 1010 H 102.02 2.5068 -1.53417 0
M  V30 1011 H 99.5338 1.32999 -0.931935 0
M  V30 1012 H 101.531 4.15856 0.294915 0
M  V30 1013 H 100.191 3.12954 0.865448 0
M  V30 1014 H 101.202 4.49649 -2.56975 0
M  V30 1015 H 97.8788 4.17499 -0.00918848 0
M  V30 1016 H 99.2688 5.52944 -3.81709 0
M  V30 1017 N 101.989 0.842826 1.3317 0
M  V30 1018 C 103.235 0.441099 1.97945 0
M  V30 1019 C 103.568 -0.998024 1.66593 0
M  V30 1020 O 102.843 -1.69839 0.947898 0
M  V30 1021 C 103.126 0.666841 3.53872 0
M  V30 1022 C 102.979 2.15352 3.94897 0
M  V30 1023 C 104.298 0.115544 4.39948 0
M  V30 1024 H 101.417 0.161739 0.719034 0
M  V30 1025 H 104.059 1.05907 1.57746 0
M  V30 1026 H 102.209 0.140828 3.88245 0
M  V30 1027 H 103.881 2.7447 3.70761 0
M  V30 1028 H 102.124 2.63653 3.44484 0
M  V30 1029 H 102.795 2.26221 5.03516 0
M  V30 1030 H 105.271 0.565213 4.12243 0
M  V30 1031 H 104.147 0.303152 5.48062 0
M  V30 1032 H 104.408 -0.980935 4.3108 0
M  V30 1033 N 103.467 -1.45747 0.599634 0
M  V30 1034 C 104.695 -2.06668 0.0978551 0
M  V30 1035 C 105.11 -1.44562 -1.21439 0
M  V30 1036 O 104.467 -0.556923 -1.73795 0
M  V30 1037 C 104.518 -3.61456 -0.0567044 0
M  V30 1038 O 104.239 -4.21242 1.20361 0
M  V30 1039 C 105.74 -4.39345 -0.590869 0
M  V30 1040 H 102.96 -0.667825 0.0651943 0
M  V30 1041 H 105.504 -1.87115 0.82511 0
M  V30 1042 H 103.659 -3.80378 -0.734251 0
M  V30 1043 H 104.073 -5.14323 1.02821 0
M  V30 1044 H 105.547 -5.48182 -0.648131 0
M  V30 1045 H 106.024 -4.08568 -1.61147 0
M  V30 1046 H 106.63 -4.25268 0.0523679 0
M  V30 1047 N 104.945 -0.338344 -1.53925 0
M  V30 1048 C 106.356 0.146651 -1.86123 0
M  V30 1049 C 106.707 1.5042 -1.2597 0
M  V30 1050 O 105.832 2.08723 -0.571294 0
M  V30 1051 C 106.427 0.272879 -3.37699 0
M  V30 1052 C 104.986 0.702103 -3.69794 0
M  V30 1053 C 104.133 -0.167304 -2.76795 0
M  V30 1054 H 107.084 -0.558123 -1.48562 0
M  V30 1055 H 107.105 1.10128 -3.64214 0
M  V30 1056 H 106.617 -0.715307 -3.81451 0
M  V30 1057 H 104.718 1.6995 -3.31584 0
M  V30 1058 H 104.831 0.495604 -4.7653 0
M  V30 1059 H 103.195 0.359527 -2.5215 0
M  V30 1060 H 103.978 -1.15253 -3.23375 0
M  V30 1061 N 106.423 1.57458 -0.0668435 0
M  V30 1062 C 107.671 1.92919 0.602214 0
M  V30 1063 C 107.992 0.947215 1.70449 0
M  V30 1064 O 107.262 -0.00544117 1.95899 0
M  V30 1065 H 105.842 0.71217 0.22544 0
M  V30 1066 H 108.504 1.94508 -0.123535 0
M  V30 1067 H 107.6 2.94589 1.03073 0
M  V30 1068 N 107.901 -0.206675 1.56239 0
M  V30 1069 C 109.126 -0.949474 1.8439 0
M  V30 1070 C 109.551 -1.76549 0.649016 0
M  V30 1071 O 108.909 -1.76782 -0.402231 0
M  V30 1072 C 108.957 -1.83078 3.10668 0
M  V30 1073 O 108.061 -2.9281 2.90407 0
M  V30 1074 H 107.402 -0.268033 0.607499 0
M  V30 1075 H 109.932 -0.215488 2.03462 0
M  V30 1076 H 109.942 -2.2377 3.41161 0
M  V30 1077 H 108.617 -1.23112 3.97261 0
M  V30 1078 H 107.194 -2.55956 2.71184 0
M  V30 1079 N 109.379 -1.50304 -0.473955 0
M  V30 1080 C 110.342 -1.6841 -1.55469 0
M  V30 1081 C 111.342 -0.554905 -1.50922 0
M  V30 1082 O 112.532 -0.821882 -1.53593 0
M  V30 1083 C 109.664 -1.70667 -2.95102 0
M  V30 1084 H 110.857 -2.64828 -1.40733 0
M  V30 1085 H 108.41 -1.39742 -0.700132 0
M  V30 1086 H 109.145 -0.75932 -3.15285 0
M  V30 1087 H 108.93 -2.52698 -2.9981 0
M  V30 1088 H 110.42 -1.8664 -3.73571 0
M  V30 1089 N 110.857 0.726932 -1.39834 0
M  V30 1090 C 111.789 1.85147 -1.35104 0
M  V30 1091 C 112.802 1.60736 -0.258392 0
M  V30 1092 O 113.991 1.70821 -0.517931 0
M  V30 1093 C 111.091 3.21332 -1.07697 0
M  V30 1094 C 110.264 3.73033 -2.28396 0
M  V30 1095 C 109.323 4.87802 -1.97322 0
M  V30 1096 O 108.349 5.01043 -2.70083 0
M  V30 1097 N 109.551 5.72768 -0.944273 0
M  V30 1098 H 112.316 1.89706 -2.32017 0
M  V30 1099 H 109.877 0.908006 -1.3404 0
M  V30 1100 H 111.869 3.95691 -0.849144 0
M  V30 1101 H 110.439 3.11992 -0.194909 0
M  V30 1102 H 109.659 2.89934 -2.6708 0
M  V30 1103 H 110.947 4.0431 -3.08887 0
M  V30 1104 H 110.345 5.64669 -0.341427 0
M  V30 1105 H 108.902 6.4716 -0.776346 0
M  V30 1106 N 112.336 1.25143 0.95797 0
M  V30 1107 C 113.268 1.01023 2.05735 0
M  V30 1108 C 114.281 -0.0236902 1.62783 0
M  V30 1109 O 115.47 0.21448 1.77207 0
M  V30 1110 C 112.57 0.504595 3.35122 0
M  V30 1111 C 111.743 1.6039 4.06932 0
M  V30 1112 C 110.802 1.09922 5.14591 0
M  V30 1113 O 109.828 1.79293 5.40225 0
M  V30 1114 N 111.03 -0.0612545 5.80468 0
M  V30 1115 H 113.795 1.95683 2.26998 0
M  V30 1116 H 111.356 1.16303 1.12629 0
M  V30 1117 H 113.348 0.151516 4.04416 0
M  V30 1118 H 111.918 -0.347989 3.10657 0
M  V30 1119 H 111.138 2.12872 3.31782 0
M  V30 1120 H 112.426 2.34252 4.51667 0
M  V30 1121 H 111.824 -0.640985 5.62057 0
M  V30 1122 H 110.381 -0.355395 6.5083 0
M  V30 1123 N 113.814 -1.1601 1.06675 0
M  V30 1124 C 115.23 -1.38622 0.790948 0
M  V30 1125 C 115.43 -1.92109 -0.607965 0
M  V30 1126 O 114.486 -2.12239 -1.36787 0
M  V30 1127 C 115.799 -2.36347 1.85905 0
M  V30 1128 C 117.347 -2.50023 1.88301 0
M  V30 1129 C 117.822 -3.51033 2.94176 0
M  V30 1130 N 119.313 -3.58563 2.93235 0
M  V30 1131 C 120.048 -4.36521 3.71803 0
M  V30 1132 N 119.544 -5.17869 4.602 0
M  V30 1133 N 121.337 -4.31541 3.60178 0
M  V30 1134 H 113.488 -0.796294 1.96908 0
M  V30 1135 H 115.751 -0.412597 0.853503 0
M  V30 1136 H 115.457 -2.04147 2.86386 0
M  V30 1137 H 115.331 -3.36042 1.71334 0
M  V30 1138 H 117.718 -2.81524 0.884769 0
M  V30 1139 H 117.799 -1.5035 2.06951 0
M  V30 1140 H 117.443 -3.20268 3.94196 0
M  V30 1141 H 117.373 -4.50445 2.72776 0
M  V30 1142 H 119.864 -3.00496 2.29152 0
M  V30 1143 H 120.177 -5.74578 5.16797 0
M  V30 1144 H 118.522 -5.17199 4.64253 0
M  V30 1145 H 121.713 -3.67051 2.90502 0
M  V30 1146 H 121.886 -4.9205 4.21653 0
M  V30 1147 N 115.292 -0.849877 -1.32721 0
M  V30 1148 C 116.539 -0.450923 -1.97416 0
M  V30 1149 C 116.867 0.992376 -1.67279 0
M  V30 1150 O 116.122 1.71048 -0.950845 0
M  V30 1151 C 116.421 -0.631272 -3.51781 0
M  V30 1152 C 116.087 -2.04432 -4.01894 0
M  V30 1153 C 114.749 -2.4308 -4.1529 0
M  V30 1154 C 117.101 -2.96679 -4.28522 0
M  V30 1155 C 114.429 -3.73257 -4.52654 0
M  V30 1156 C 116.781 -4.26349 -4.67343 0
M  V30 1157 C 115.445 -4.64939 -4.78945 0
M  V30 1158 H 114.715 -0.165004 -0.722395 0
M  V30 1159 H 117.362 -1.07901 -1.58207 0
M  V30 1160 H 115.667 0.0800767 -3.91718 0
M  V30 1161 H 117.364 -0.302709 -3.99856 0
M  V30 1162 H 113.954 -1.73419 -3.91949 0
M  V30 1163 H 118.138 -2.68054 -4.17685 0
M  V30 1164 H 113.394 -4.02946 -4.59831 0
M  V30 1165 H 117.568 -4.97895 -4.86902 0
M  V30 1166 H 115.195 -5.65855 -5.07654 0
M  V30 1167 N 116.77 1.45427 -0.607355 0
M  V30 1168 C 117.998 2.06614 -0.108814 0
M  V30 1169 C 118.413 1.45204 1.2067 0
M  V30 1170 O 117.77 0.566132 1.73497 0
M  V30 1171 C 117.821 3.61481 0.0375347 0
M  V30 1172 O 117.542 4.20598 -1.22593 0
M  V30 1173 C 119.043 4.39652 0.567561 0
M  V30 1174 H 116.263 0.66747 -0.0687351 0
M  V30 1175 H 118.807 1.86675 -0.835022 0
M  V30 1176 H 116.962 3.80762 0.714068 0
M  V30 1177 H 117.376 5.1377 -1.05547 0
M  V30 1178 H 118.85 5.48518 0.61905 0
M  V30 1179 H 119.327 4.09417 1.58978 0
M  V30 1180 H 119.933 4.25234 -0.0749202 0
M  V30 1181 N 118.248 0.346503 1.53744 0
M  V30 1182 C 119.18 -0.543316 2.22667 0
M  V30 1183 C 120.193 -1.06159 1.23427 0
M  V30 1184 O 121.382 -0.971235 1.49764 0
M  V30 1185 C 118.482 -1.76076 2.89569 0
M  V30 1186 C 117.655 -1.37727 4.15151 0
M  V30 1187 C 116.714 -2.45471 4.65436 0
M  V30 1188 O 115.74 -2.08655 5.29577 0
M  V30 1189 N 116.942 -3.7677 4.41616 0
M  V30 1190 H 119.707 0.0469703 2.99663 0
M  V30 1191 H 117.268 0.170766 1.60997 0
M  V30 1192 H 119.26 -2.47593 3.20125 0
M  V30 1193 H 117.83 -2.25835 2.16142 0
M  V30 1194 H 117.05 -0.492746 3.91108 0
M  V30 1195 H 118.338 -1.09708 4.96832 0
M  V30 1196 H 117.736 -4.09467 3.90325 0
M  V30 1197 H 116.293 -4.44448 4.7677 0
M  V30 1198 N 119.726 -1.57421 0.075193 0
M  V30 1199 C 120.972 -1.93905 -0.594025 0
M  V30 1200 C 121.305 -0.955701 -1.69056 0
M  V30 1201 O 120.58 0.0145373 -1.94495 0
M  V30 1202 C 120.863 -3.40638 -1.1678 0
M  V30 1203 C 120.716 -4.49733 -0.0776792 0
M  V30 1204 C 122.035 -3.88259 -2.07228 0
M  V30 1205 H 119.154 -0.705105 -0.214466 0
M  V30 1206 H 121.796 -1.8947 0.141854 0
M  V30 1207 H 119.946 -3.44549 -1.79494 0
M  V30 1208 H 121.618 -4.57942 0.555573 0
M  V30 1209 H 119.861 -4.29751 0.591286 0
M  V30 1210 H 120.532 -5.49549 -0.519603 0
M  V30 1211 H 123.008 -3.86376 -1.54445 0
M  V30 1212 H 121.884 -4.91533 -2.44308 0
M  V30 1213 H 122.145 -3.26396 -2.98191 0
M  V30 1214 N 121.204 0.198386 -1.56346 0
M  V30 1215 C 122.429 0.939682 -1.84891 0
M  V30 1216 C 122.854 1.76202 -0.658369 0
M  V30 1217 O 122.212 1.76993 0.392851 0
M  V30 1218 C 122.26 1.81428 -3.11635 0
M  V30 1219 O 121.364 2.91265 -2.91956 0
M  V30 1220 H 120.705 0.264807 -0.608912 0
M  V30 1221 H 123.235 0.204695 -2.03573 0
M  V30 1222 H 123.245 2.21958 -3.42343 0
M  V30 1223 H 121.92 1.21004 -3.97908 0
M  V30 1224 H 120.497 2.54514 -2.72538 0
M  V30 1225 N 122.682 1.50554 0.465978 0
M  V30 1226 C 123.959 1.5232 1.22712 0
M  V30 1227 C 124.339 0.270807 2.09356 0
M  V30 1228 O 123.687 -0.745541 2.15995 0
M  V30 1229 C 123.897 2.82175 2.05374 0
M  V30 1230 C 125.245 3.33033 2.6339 0
M  V30 1231 O 126.269 2.83531 2.15612 0
M  V30 1232 O 125.128 4.19336 3.50456 0
M  V30 1233 H 122.222 0.611183 0.557122 0
M  V30 1234 H 124.768 1.62847 0.477381 0
M  V30 1235 H 123.54 3.64797 1.41558 0
M  V30 1236 H 123.163 2.74675 2.87471 0
M  V30 1237 N 124.16 -0.719506 1.40217 0
M  V30 1238 C 125.07 -1.86378 1.42479 0
M  V30 1239 C 126.086 -1.71073 0.317834 0
M  V30 1240 O 127.262 -1.93406 0.561794 0
M  V30 1241 C 124.327 -3.22136 1.28178 0
M  V30 1242 C 123.388 -3.49723 2.48982 0
M  V30 1243 C 122.621 -4.79004 2.35353 0
M  V30 1244 O 122.844 -5.53821 1.36524 0
M  V30 1245 O 121.778 -5.06839 3.2465 0
M  V30 1246 H 125.604 -1.87425 2.38968 0
M  V30 1247 H 123.189 -0.869405 1.21498 0
M  V30 1248 H 125.071 -4.03234 1.22395 0
M  V30 1249 H 123.746 -3.21825 0.347934 0
M  V30 1250 H 122.653 -2.6865 2.60342 0
M  V30 1251 H 123.986 -3.54828 3.41113 0
M  V30 1252 N 125.638 -1.25649 -0.95132 0
M  V30 1253 C 126.568 -1.08808 -2.06599 0
M  V30 1254 C 127.549 0.00382547 -1.701 0
M  V30 1255 O 128.734 -0.166325 -1.93486 0
M  V30 1256 C 125.864 -0.709542 -3.39975 0
M  V30 1257 C 124.818 -1.75206 -3.90496 0
M  V30 1258 C 124.144 -1.22811 -5.20405 0
M  V30 1259 C 125.444 -3.15153 -4.16504 0
M  V30 1260 H 127.138 -2.02048 -2.20946 0
M  V30 1261 H 124.684 -0.972835 -1.06169 0
M  V30 1262 H 126.637 -0.578649 -4.17408 0
M  V30 1263 H 125.361 0.258556 -3.25575 0
M  V30 1264 H 124.02 -1.87145 -3.15234 0
M  V30 1265 H 123.668 -0.250145 -5.02378 0
M  V30 1266 H 123.368 -1.92492 -5.55176 0
M  V30 1267 H 124.892 -1.10968 -6.00432 0
M  V30 1268 H 126.306 -3.06349 -4.84586 0
M  V30 1269 H 124.703 -3.82333 -4.62538 0
M  V30 1270 H 125.773 -3.61966 -3.22658 0
M  V30 1271 N 127.117 1.15442 -1.07289 0
M  V30 1272 C 128.364 1.86213 -0.795668 0
M  V30 1273 C 128.692 1.82291 0.678238 0
M  V30 1274 O 127.947 1.24057 1.51355 0
M  V30 1275 C 128.246 3.3489 -1.24834 0
M  V30 1276 C 127.912 3.59007 -2.72809 0
M  V30 1277 C 126.574 3.65298 -3.13227 0
M  V30 1278 C 128.926 3.68762 -3.68326 0
M  V30 1279 C 126.254 3.78854 -4.4798 0
M  V30 1280 C 128.606 3.83842 -5.0284 0
M  V30 1281 C 127.27 3.88378 -5.4288 0
M  V30 1282 H 126.54 0.681403 -0.291155 0
M  V30 1283 H 129.187 1.36435 -1.34379 0
M  V30 1284 H 127.492 3.8687 -0.619595 0
M  V30 1285 H 129.189 3.88052 -1.01076 0
M  V30 1286 H 125.779 3.5475 -2.40521 0
M  V30 1287 H 129.963 3.63202 -3.38227 0
M  V30 1288 H 125.219 3.80623 -4.78472 0
M  V30 1289 H 129.393 3.90332 -5.76727 0
M  V30 1290 H 127.02 3.98635 -6.47298 0
M  V30 1291 N 128.595 0.856903 1.32268 0
M  V30 1292 C 129.527 0.260412 2.27716 0
M  V30 1293 C 130.54 -0.569137 1.52528 0
M  V30 1294 O 131.729 -0.39326 1.74114 0
M  V30 1295 C 128.829 -0.650477 3.32599 0
M  V30 1296 C 128.002 0.14372 4.37164 0
M  V30 1297 C 127.061 -0.69328 5.21613 0
M  V30 1298 O 126.087 -0.12599 5.69061 0
M  V30 1299 N 127.289 -2.00761 5.44679 0
M  V30 1300 H 130.054 1.08059 2.79541 0
M  V30 1301 H 127.615 0.717103 1.45152 0
M  V30 1302 H 129.607 -1.21581 3.86005 0
M  V30 1303 H 128.177 -1.37133 2.80915 0
M  V30 1304 H 127.397 0.890486 3.8401 0
M  V30 1305 H 128.685 0.68915 5.04111 0
M  V30 1306 H 128.083 -2.49181 5.07863 0
M  V30 1307 H 126.64 -2.52103 6.01072 0
M  V30 1308 N 130.073 -1.45103 0.615059 0
M  V30 1309 C 131.321 -2.01784 0.112955 0
M  V30 1310 C 131.642 -1.48504 -1.26378 0
M  V30 1311 O 130.912 -0.682245 -1.83636 0
M  V30 1312 H 129.492 -0.745993 0.0387668 0
M  V30 1313 H 132.154 -1.77808 0.798141 0
M  V30 1314 H 131.25 -3.12025 0.0684069 0
M  V30 1315 N 131.551 -0.354651 -1.53558 0
M  V30 1316 C 132.799 0.237972 -2.00694 0
M  V30 1317 C 133.12 1.50173 -1.24391 0
M  V30 1318 O 132.39 1.92673 -0.354135 0
M  V30 1319 H 130.97 0.0909256 -0.741446 0
M  V30 1320 H 133.632 -0.478368 -1.88938 0
M  V30 1321 H 132.728 0.47264 -3.085 0
M  V30 1322 N 133.029 1.57378 -0.0835403 0
M  V30 1323 C 134.44 1.81261 0.447358 0
M  V30 1324 C 134.791 0.998331 1.68902 0
M  V30 1325 O 133.916 0.224282 2.15235 0
M  V30 1326 C 134.511 3.28767 0.818386 0
M  V30 1327 C 133.07 3.53455 1.29409 0
M  V30 1328 C 132.217 2.75831 0.285024 0
M  V30 1329 H 135.168 1.5566 -0.309115 0
M  V30 1330 H 135.189 3.41459 1.67887 0
M  V30 1331 H 134.701 3.88006 -0.0855019 0
M  V30 1332 H 132.802 2.99534 2.21608 0
M  V30 1333 H 132.915 4.62128 1.2639 0
M  V30 1334 H 131.279 2.42947 0.764767 0
M  V30 1335 H 132.062 3.37813 -0.611341 0
M  V30 1336 N 134.507 -0.190092 1.56449 0
M  V30 1337 C 135.455 -1.25501 1.95837 0
M  V30 1338 C 136.449 -1.4685 0.844485 0
M  V30 1339 O 137.655 -1.47651 1.02952 0
M  V30 1340 H 134.03 -0.421447 0.622805 0
M  V30 1341 H 136.001 -0.895821 2.84636 0
M  V30 1342 C 134.75 -2.59124 2.31841 0
M  V30 1343 H 134.073 -2.43514 3.17082 0
M  V30 1344 H 135.513 -3.32371 2.6326 0
M  V30 1345 C 133.972 -3.16488 1.15486 0
M  V30 1346 O 134.502 -3.99365 0.432535 0
M  V30 1347 N 132.708 -2.75305 0.930349 0
M  V30 1348 H 132.255 -2.08013 1.51948 0
M  V30 1349 H 132.213 -3.14024 0.153634 0
M  V30 1350 N 135.985 -1.50799 -0.457987 0
M  V30 1351 C 137.231 -1.63648 -1.20792 0
M  V30 1352 C 137.586 -0.338662 -1.89396 0
M  V30 1353 O 136.879 0.664291 -1.79716 0
M  V30 1354 C 137.073 -2.76358 -2.2663 0
M  V30 1355 C 136.902 -4.16974 -1.68411 0
M  V30 1356 C 135.672 -4.83199 -1.47807 0
M  V30 1357 C 137.87 -5.00774 -1.17176 0
M  V30 1358 N 135.852 -6.07991 -0.849692 0
M  V30 1359 C 137.223 -6.16397 -0.667403 0
M  V30 1360 C 139.278 -4.86452 -1.06155 0
M  V30 1361 C 137.981 -7.19272 -0.0636908 0
M  V30 1362 C 140.007 -5.89515 -0.471759 0
M  V30 1363 C 139.369 -7.04397 0.0221557 0
M  V30 1364 H 135.468 -0.652888 -0.43042 0
M  V30 1365 H 138.052 -1.87962 -0.507785 0
M  V30 1366 H 136.223 -2.53744 -2.94056 0
M  V30 1367 H 137.955 -2.78496 -2.93636 0
M  V30 1368 H 134.71 -4.40714 -1.73403 0
M  V30 1369 H 135.134 -6.74733 -0.553537 0
M  V30 1370 H 139.776 -3.97907 -1.42932 0
M  V30 1371 H 137.494 -8.07481 0.316253 0
M  V30 1372 H 141.08 -5.805 -0.388671 0
M  V30 1373 H 139.96 -7.82782 0.471375 0
M  V30 1374 N 137.463 0.71206 -1.40597 0
M  V30 1375 C 138.711 1.46907 -1.38791 0
M  V30 1376 C 139.032 1.94998 0.00780391 0
M  V30 1377 O 138.302 1.70587 0.963174 0
M  V30 1378 H 136.882 0.545043 -0.51082 0
M  V30 1379 H 139.544 0.843882 -1.75683 0
M  V30 1380 H 138.64 2.34021 -2.06496 0
M  V30 1381 N 138.941 1.26152 0.944643 0
M  V30 1382 C 140.357 1.03189 1.21754 0
M  V30 1383 C 140.557 -0.245112 2.00004 0
M  V30 1384 O 139.613 -0.955176 2.33736 0
M  V30 1385 C 140.926 2.26119 1.98219 0
M  V30 1386 C 142.474 2.30984 2.11224 0
M  V30 1387 C 142.949 3.53597 2.91089 0
M  V30 1388 N 144.44 3.54053 2.98664 0
M  V30 1389 C 145.175 4.45593 3.60881 0
M  V30 1390 N 144.671 5.47416 4.24626 0
M  V30 1391 N 146.464 4.33252 3.58119 0
M  V30 1392 H 138.615 2.08177 0.421437 0
M  V30 1393 H 140.878 0.914723 0.248969 0
M  V30 1394 H 140.584 3.18984 1.48128 0
M  V30 1395 H 140.458 2.3009 2.98895 0
M  V30 1396 H 142.845 1.38635 2.60508 0
M  V30 1397 H 142.926 2.31026 1.09821 0
M  V30 1398 H 142.57 4.46273 2.42493 0
M  V30 1399 H 142.5 3.50802 3.92741 0
M  V30 1400 H 144.991 2.80403 2.53343 0
M  V30 1401 H 145.304 6.13459 4.69987 0
M  V30 1402 H 143.649 5.51278 4.23223 0
M  V30 1403 H 146.84 3.52924 3.0751 0
M  V30 1404 H 147.013 5.04786 4.06319 0
M  V30 1405 N 140.419 -1.14872 1.07899 0
M  V30 1406 C 141.349 -2.2193 0.725887 0
M  V30 1407 C 142.33 -1.67622 -0.28927 0
M  V30 1408 O 143.515 -1.93533 -0.160787 0
M  V30 1409 C 140.645 -3.47061 0.128856 0
M  V30 1410 C 139.599 -4.14363 1.07178 0
M  V30 1411 C 138.925 -5.33636 0.337229 0
M  V30 1412 C 140.225 -4.63492 2.40775 0
M  V30 1413 H 141.919 -2.51724 1.62097 0
M  V30 1414 H 139.465 -1.20991 0.780838 0
M  V30 1415 H 141.418 -4.21199 -0.130147 0
M  V30 1416 H 140.142 -3.16617 -0.80134 0
M  V30 1417 H 138.801 -3.42173 1.3158 0
M  V30 1418 H 138.449 -4.99449 -0.596606 0
M  V30 1419 H 138.149 -5.79609 0.965788 0
M  V30 1420 H 139.673 -6.10539 0.0861567 0
M  V30 1421 H 141.087 -5.2913 2.20669 0
M  V30 1422 H 139.484 -5.20148 2.99276 0
M  V30 1423 H 140.554 -3.78834 3.02676 0
M  V30 1424 N 141.898 -0.863906 -1.31812 0
M  V30 1425 C 143.144 -0.472535 -1.97218 0
M  V30 1426 C 143.477 0.971394 -1.68159 0
M  V30 1427 O 142.752 1.68309 -0.974798 0
M  V30 1428 C 143.035 -0.723054 -3.52766 0
M  V30 1429 C 142.888 -2.21608 -3.91421 0
M  V30 1430 C 144.207 -0.185522 -4.39709 0
M  V30 1431 H 141.326 -0.173158 -0.71637 0
M  V30 1432 H 143.968 -1.08403 -1.56041 0
M  V30 1433 H 142.118 -0.202577 -3.87971 0
M  V30 1434 H 143.79 -2.80334 -3.66347 0
M  V30 1435 H 142.033 -2.691 -3.40246 0
M  V30 1436 H 142.704 -2.34203 -4.99853 0
M  V30 1437 H 145.18 -0.630726 -4.11292 0
M  V30 1438 H 144.056 -0.390306 -5.47511 0
M  V30 1439 H 144.317 0.912229 -4.32586 0
M  V30 1440 N 143.376 1.44774 -0.622745 0
M  V30 1441 C 144.339 2.29069 0.0774015 0
M  V30 1442 C 145.339 1.4059 0.780461 0
M  V30 1443 O 146.529 1.62551 0.626322 0
M  V30 1444 C 143.661 3.21974 1.12006 0
M  V30 1445 H 144.854 2.92459 -0.663901 0
M  V30 1446 H 142.407 1.51548 -0.382486 0
M  V30 1447 H 143.142 2.63417 1.89162 0
M  V30 1448 H 142.927 3.87168 0.619951 0
M  V30 1449 H 144.417 3.85318 1.60995 0
M  V30 1450 N 144.854 0.36279 1.53368 0
M  V30 1451 C 146.101 -0.227776 2.01215 0
M  V30 1452 C 146.429 -1.49003 1.25014 0
M  V30 1453 O 145.684 -1.92876 0.331236 0
M  V30 1454 C 145.983 -0.568417 3.52851 0
M  V30 1455 C 145.649 0.59918 4.46901 0
M  V30 1456 C 144.311 0.919559 4.72332 0
M  V30 1457 C 146.663 1.38156 5.02556 0
M  V30 1458 C 143.991 2.02434 5.5067 0
M  V30 1459 C 146.343 2.47674 5.821 0
M  V30 1460 C 145.007 2.8025 6.05819 0
M  V30 1461 H 144.277 -0.083349 0.736297 0
M  V30 1462 H 146.924 0.494677 1.85001 0
M  V30 1463 H 145.229 -1.37185 3.66998 0
M  V30 1464 H 146.926 -1.03756 3.87344 0
M  V30 1465 H 143.516 0.339437 4.27254 0
M  V30 1466 H 147.7 1.14729 4.82857 0
M  V30 1467 H 142.956 2.28075 5.67267 0
M  V30 1468 H 147.13 3.08716 6.24234 0
M  V30 1469 H 144.757 3.65979 6.66306 0
M  V30 1470 N 146.332 -1.57332 0.0918853 0
M  V30 1471 C 147.579 -1.94236 -0.572577 0
M  V30 1472 C 147.907 -0.973398 -1.6839 0
M  V30 1473 O 147.162 0.00756912 -1.95699 0
M  V30 1474 C 147.461 -3.37689 -1.17051 0
M  V30 1475 C 147.127 -4.50527 -0.183304 0
M  V30 1476 C 145.789 -4.81119 0.0882276 0
M  V30 1477 C 148.141 -5.18883 0.49095 0
M  V30 1478 C 145.469 -5.77395 1.04076 0
M  V30 1479 C 147.821 -6.1618 1.43193 0
M  V30 1480 C 146.485 -6.45179 1.71173 0
M  V30 1481 H 145.755 -0.710762 -0.209521 0
M  V30 1482 H 148.402 -1.9077 0.167036 0
M  V30 1483 H 146.707 -3.37718 -1.9863 0
M  V30 1484 H 148.404 -3.63543 -1.69227 0
M  V30 1485 H 144.994 -4.26681 -0.405124 0
M  V30 1486 H 149.178 -4.95427 0.294312 0
M  V30 1487 H 144.434 -5.98179 1.26457 0
M  V30 1488 H 148.608 -6.68243 1.96023 0
M  V30 1489 H 146.235 -7.1959 2.4514 0
M  V30 1490 N 147.81 0.181792 -1.56548 0
M  V30 1491 C 149.056 0.901431 -1.81665 0
M  V30 1492 C 149.389 1.82347 -0.668075 0
M  V30 1493 O 148.664 1.91669 0.330615 0
M  V30 1494 C 148.947 1.70618 -3.17115 0
M  V30 1495 C 148.8 0.807964 -4.42484 0
M  V30 1496 C 150.119 2.67605 -3.49393 0
M  V30 1497 H 147.238 0.32627 -0.660846 0
M  V30 1498 H 149.88 0.168134 -1.89255 0
M  V30 1499 H 148.03 2.33133 -3.10775 0
M  V30 1500 H 149.702 0.19649 -4.60881 0
M  V30 1501 H 147.945 0.115411 -4.33646 0
M  V30 1502 H 148.616 1.40632 -5.33785 0
M  V30 1503 H 151.092 2.15218 -3.56118 0
M  V30 1504 H 149.968 3.20985 -4.45264 0
M  V30 1505 H 150.229 3.47298 -2.73563 0
M  V30 1506 N 149.288 1.51039 0.449983 0
M  V30 1507 C 150.535 1.63081 1.20045 0
M  V30 1508 C 150.863 0.341024 1.91487 0
M  V30 1509 O 150.118 -0.674276 1.83717 0
M  V30 1510 C 150.417 2.77556 2.25161 0
M  V30 1511 C 150.083 4.17289 1.70823 0
M  V30 1512 C 148.745 4.55305 1.55725 0
M  V30 1513 C 151.097 5.04536 1.3074 0
M  V30 1514 C 148.425 5.78287 0.989999 0
M  V30 1515 C 150.777 6.28085 0.754482 0
M  V30 1516 C 149.441 6.64885 0.590308 0
M  V30 1517 H 148.711 0.596755 0.439277 0
M  V30 1518 H 151.358 1.85037 0.49333 0
M  V30 1519 H 149.663 2.49771 3.01863 0
M  V30 1520 H 151.36 2.84073 2.83026 0
M  V30 1521 H 147.95 3.8731 1.83546 0
M  V30 1522 H 152.134 4.75782 1.41229 0
M  V30 1523 H 147.39 6.05456 0.850451 0
M  V30 1524 H 151.564 6.95038 0.435324 0
M  V30 1525 H 149.191 7.60055 0.14862 0
M  V30 1526 N 150.766 -0.704594 1.40972 0
M  V30 1527 C 152.014 -1.46169 1.39568 0
M  V30 1528 C 152.335 -1.95 0.00253745 0
M  V30 1529 O 151.605 -1.71095 -0.954114 0
M  V30 1530 H 150.185 -0.542326 0.513704 0
M  V30 1531 H 152.847 -0.834553 1.76128 0
M  V30 1532 H 151.943 -2.32922 2.07735 0
M  V30 1533 N 152.244 -1.26651 -0.937939 0
M  V30 1534 C 153.207 -1.08546 -2.01867 0
M  V30 1535 C 154.207 -0.0327327 -1.60767 0
M  V30 1536 O 155.397 -0.276427 -1.71993 0
M  V30 1537 C 152.529 -0.651711 -3.34613 0
M  V30 1538 H 153.722 -2.04502 -2.1936 0
M  V30 1539 H 151.275 -1.09294 -1.11734 0
M  V30 1540 H 152.01 0.309696 -3.22818 0
M  V30 1541 H 151.795 -1.41189 -3.65798 0
M  V30 1542 H 153.285 -0.546973 -4.14002 0
M  V30 1543 N 153.722 1.14298 -1.08507 0
M  V30 1544 C 154.685 2.17607 -0.719711 0
M  V30 1545 C 155.685 1.58907 0.245997 0
M  V30 1546 O 156.875 1.74181 0.0254081 0
M  V30 1547 C 154.007 3.40842 -0.0627695 0
M  V30 1548 H 155.2 2.51443 -1.63452 0
M  V30 1549 H 152.753 1.28963 -0.88307 0
M  V30 1550 H 153.488 3.12587 0.863716 0
M  V30 1551 H 153.273 3.84713 -0.757504 0
M  V30 1552 H 154.763 4.17221 0.177786 0
M  V30 1553 N 155.201 0.870884 1.31352 0
M  V30 1554 C 156.131 0.343096 2.30966 0
M  V30 1555 C 157.112 -0.566507 1.60389 0
M  V30 1556 O 158.297 -0.483336 1.88089 0
M  V30 1557 C 155.427 -0.455487 3.443 0
M  V30 1558 C 154.381 0.361103 4.26474 0
M  V30 1559 C 153.707 -0.563221 5.31725 0
M  V30 1560 C 155.007 1.59566 4.97329 0
M  V30 1561 H 156.701 1.17548 2.75359 0
M  V30 1562 H 154.247 0.566686 1.32381 0
M  V30 1563 H 156.2 -0.83525 4.13039 0
M  V30 1564 H 154.924 -1.32139 2.98675 0
M  V30 1565 H 153.583 0.722825 3.59403 0
M  V30 1566 H 153.231 -1.42643 4.82351 0
M  V30 1567 H 152.931 -0.0207409 5.87596 0
M  V30 1568 H 154.455 -0.939808 6.03324 0
M  V30 1569 H 155.869 1.28728 5.58661 0
M  V30 1570 H 154.266 2.07728 5.63 0
M  V30 1571 H 155.336 2.34798 4.24262 0
M  V30 1572 N 156.679 -1.44442 0.630414 0
M  V30 1573 C 157.919 -2.03934 0.137919 0
M  V30 1574 C 158.283 -1.48509 -1.21692 0
M  V30 1575 O 159.484 -1.99499 -1.80149 0
M  V30 1576 C 157.755 -3.57187 0.123373 0
M  V30 1577 S 159.314 -4.37741 -0.304604 0
M  V30 1578 H 156.132 -0.708401 0.0607353 0
M  V30 1579 H 158.734 -1.76835 0.833643 0
M  V30 1580 H 157.438 -3.95032 1.11256 0
M  V30 1581 H 156.969 -3.88895 -0.59362 0
M  V30 1582 H 158.984 -4.71403 -1.54897 0
M  V30 1583 N 158.157 -0.370918 -1.53173 0
M  V30 1584 C 159.12 0.460778 -2.24521 0
M  V30 1585 C 160.12 1.00536 -1.25496 0
M  V30 1586 O 161.31 0.890266 -1.49733 0
M  V30 1587 C 158.442 1.64457 -2.98608 0
M  V30 1588 H 159.635 -0.163613 -2.99453 0
M  V30 1589 H 157.188 -0.122699 -1.55818 0
M  V30 1590 H 157.923 2.30691 -2.2793 0
M  V30 1591 H 157.708 1.26099 -3.7127 0
M  V30 1592 H 159.198 2.23384 -3.5283 0
M  V30 1593 N 159.635 1.57281 -0.100228 0
M  V30 1594 C 160.545 2.17833 0.870965 0
M  V30 1595 C 161.561 1.14921 1.30649 0
M  V30 1596 O 162.737 1.47313 1.37335 0
M  V30 1597 C 159.802 2.75085 2.1102 0
M  V30 1598 C 158.863 3.9297 1.72838 0
M  V30 1599 C 158.096 4.47482 2.90854 0
M  V30 1600 O 158.319 4.00922 4.05731 0
M  V30 1601 O 157.253 5.38433 2.69023 0
M  V30 1602 H 161.079 3.0124 0.38575 0
M  V30 1603 H 158.664 1.48881 0.124397 0
M  V30 1604 H 160.546 3.11656 2.83634 0
M  V30 1605 H 159.221 1.94721 2.58584 0
M  V30 1606 H 158.128 3.61201 0.973883 0
M  V30 1607 H 159.461 4.74713 1.30033 0
M  V30 1608 N 161.113 -0.173488 1.56642 0
M  V30 1609 C 162.338 -0.910149 1.86363 0
M  V30 1610 C 162.763 -1.75132 0.686318 0
M  V30 1611 O 162.121 -1.77595 -0.364643 0
M  V30 1612 C 162.169 -1.76447 3.14482 0
M  V30 1613 O 161.273 -2.86584 2.96553 0
M  V30 1614 H 160.614 -0.255086 0.613047 0
M  V30 1615 H 163.144 -0.172283 2.03873 0
M  V30 1616 H 163.154 -2.16483 3.45831 0
M  V30 1617 H 161.829 -1.14658 3.99783 0
M  V30 1618 H 160.406 -2.50146 2.76553 0
M  V30 1619 N 162.591 -1.51276 -0.441967 0
M  V30 1620 C 163.837 -1.63958 -1.19355 0
M  V30 1621 C 164.17 -0.352543 -1.90973 0
M  V30 1622 O 163.445 0.647627 -1.83401 0
M  V30 1623 C 163.728 -2.83979 -2.21422 0
M  V30 1624 C 163.581 -4.22646 -1.53918 0
M  V30 1625 C 164.9 -2.99521 -3.22451 0
M  V30 1626 H 162.019 -0.596709 -0.432559 0
M  V30 1627 H 164.661 -1.83748 -0.483398 0
M  V30 1628 H 162.811 -2.67237 -2.81987 0
M  V30 1629 H 164.483 -4.51045 -0.967256 0
M  V30 1630 H 162.726 -4.25558 -0.841615 0
M  V30 1631 H 163.397 -5.02609 -2.28229 0
M  V30 1632 H 165.873 -3.14944 -2.71937 0
M  V30 1633 H 164.749 -3.85072 -3.91166 0
M  V30 1634 H 165.01 -2.11391 -3.88287 0
M  V30 1635 N 164.069 0.697108 -1.41344 0
M  V30 1636 C 165.017 1.83237 -1.43272 0
M  V30 1637 C 166.011 1.66522 -0.310947 0
M  V30 1638 O 167.217 1.73402 -0.482899 0
M  V30 1639 H 163.592 0.603802 -0.448249 0
M  V30 1640 H 165.563 1.78727 -2.38954 0
M  V30 1641 C 164.312 3.21245 -1.33029 0
M  V30 1642 H 163.635 3.34723 -2.18633 0
M  V30 1643 H 165.075 4.00763 -1.38439 0
M  V30 1644 C 163.534 3.36873 -0.0424635 0
M  V30 1645 O 164.064 3.91177 0.913421 0
M  V30 1646 N 162.27 2.90581 0.0331145 0
M  V30 1647 H 161.817 2.46577 -0.745506 0
M  V30 1648 H 161.775 3.01416 0.894199 0
M  V30 1649 N 165.547 1.27147 0.931209 0
M  V30 1650 C 166.494 1.09568 2.03134 0
M  V30 1651 C 167.464 -0.00222433 1.661 0
M  V30 1652 O 168.649 0.159439 1.90133 0
M  V30 1653 C 165.789 0.745231 3.36957 0
M  V30 1654 C 164.902 1.92041 3.86968 0
M  V30 1655 C 164.037 1.51216 5.09222 0
M  V30 1656 C 163.076 2.65504 5.5152 0
M  V30 1657 N 162.213 2.25291 6.64972 0
M  V30 1658 H 167.053 2.03708 2.17502 0
M  V30 1659 H 164.59 1.01411 1.06556 0
M  V30 1660 H 166.548 0.522878 4.1391 0
M  V30 1661 H 165.178 -0.159202 3.22407 0
M  V30 1662 H 164.23 2.25541 3.06326 0
M  V30 1663 H 165.542 2.77787 4.1429 0
M  V30 1664 H 164.696 1.25084 5.93666 0
M  V30 1665 H 163.435 0.625749 4.83669 0
M  V30 1666 H 162.44 2.92354 4.65628 0
M  V30 1667 H 163.665 3.54761 5.7907 0
M  V30 1668 H 161.611 1.39098 6.41083 0
M  V30 1669 H 161.528 3.04577 6.91931 0
M  V30 1670 H 162.796 2.02398 7.52765 0
M  V30 1671 N 167.025 -1.13721 1.09112 0
M  V30 1672 C 167.935 -2.22638 0.73957 0
M  V30 1673 C 168.951 -1.72091 -0.257068 0
M  V30 1674 O 170.127 -2.01155 -0.0992154 0
M  V30 1675 C 167.192 -3.46322 0.16191 0
M  V30 1676 C 166.253 -4.11775 1.21408 0
M  V30 1677 C 165.486 -5.29555 0.663891 0
M  V30 1678 O 165.709 -5.68077 -0.514274 0
M  V30 1679 O 164.643 -5.84973 1.41738 0
M  V30 1680 H 168.469 -2.55074 1.64836 0
M  V30 1681 H 166.054 -1.21791 0.865289 0
M  V30 1682 H 167.936 -4.21107 -0.157073 0
M  V30 1683 H 166.611 -3.15593 -0.719932 0
M  V30 1684 H 165.518 -3.3883 1.58571 0
M  V30 1685 H 166.851 -4.46627 2.06845 0
M  V30 1686 N 168.503 -0.877838 -1.30888 0
M  V30 1687 C 169.436 -0.283995 -2.26426 0
M  V30 1688 C 170.414 0.591361 -1.51465 0
M  V30 1689 O 171.598 0.54304 -1.80509 0
M  V30 1690 C 168.725 0.597129 -3.33395 0
M  V30 1691 C 167.771 -0.207937 -4.25993 0
M  V30 1692 S 168.604 -1.59158 -5.11301 0
M  V30 1693 C 169.76 -0.716791 -6.21782 0
M  V30 1694 H 169.993 -1.09383 -2.76446 0
M  V30 1695 H 167.526 -0.676828 -1.38775 0
M  V30 1696 H 169.484 1.09978 -3.95493 0
M  V30 1697 H 168.145 1.38099 -2.82113 0
M  V30 1698 H 167.338 0.464163 -5.01858 0
M  V30 1699 H 166.94 -0.642963 -3.68432 0
M  V30 1700 H 169.232 0.0692833 -6.77465 0
M  V30 1701 H 170.175 -1.44682 -6.93161 0
M  V30 1702 H 170.583 -0.280855 -5.63801 0
M  V30 1703 N 169.982 1.44106 -0.638065 0
M  V30 1704 C 170.892 2.34513 0.0637334 0
M  V30 1705 C 171.908 1.53018 0.828346 0
M  V30 1706 O 173.084 1.85723 0.779036 0
M  V30 1707 C 170.149 3.31095 1.02844 0
M  V30 1708 C 169.21 4.28497 0.26244 0
M  V30 1709 C 168.443 5.20465 1.1812 0
M  V30 1710 O 168.666 5.16514 2.42011 0
M  V30 1711 O 167.6 5.98251 0.661774 0
M  V30 1712 H 171.426 2.95989 -0.68003 0
M  V30 1713 H 169.011 1.43994 -0.398252 0
M  V30 1714 H 170.893 3.90526 1.58327 0
M  V30 1715 H 169.568 2.72144 1.7527 0
M  V30 1716 H 168.475 3.72592 -0.335602 0
M  V30 1717 H 169.808 4.90388 -0.421936 0
M  V30 1718 N 171.46 0.379036 1.52974 0
M  V30 1719 C 172.871 -0.0972525 1.86447 0
M  V30 1720 C 173.222 -1.47027 1.29914 0
M  V30 1721 O 172.347 -2.07135 0.626433 0
M  V30 1722 C 172.942 -0.183248 3.38304 0
M  V30 1723 C 171.501 -0.603812 3.71525 0
M  V30 1724 C 170.648 0.240632 2.76254 0
M  V30 1725 H 173.599 0.597316 1.4703 0
M  V30 1726 H 173.62 -1.00432 3.67006 0
M  V30 1727 H 173.132 0.816191 3.79421 0
M  V30 1728 H 171.233 -1.61099 3.35973 0
M  V30 1729 H 171.346 -0.369086 4.77676 0
M  V30 1730 H 169.71 -0.292548 2.53014 0
M  V30 1731 H 170.493 1.23786 3.20206 0
M  V30 1732 N 172.938 -1.57226 0.108567 0
M  V30 1733 C 173.868 -2.17778 -0.84232 0
M  V30 1734 C 174.849 -1.11487 -1.2847 0
M  V30 1735 O 176.034 -1.39681 -1.34918 0
M  V30 1736 C 173.164 -2.76888 -2.09644 0
M  V30 1737 C 172.118 -3.88669 -1.79221 0
M  V30 1738 C 171.444 -4.34541 -3.11574 0
M  V30 1739 C 172.744 -5.11251 -1.06864 0
M  V30 1740 H 174.438 -2.97489 -0.337774 0
M  V30 1741 H 171.984 -1.43097 -0.161025 0
M  V30 1742 H 173.937 -3.17904 -2.76614 0
M  V30 1743 H 172.661 -1.94451 -2.62405 0
M  V30 1744 H 171.32 -3.48213 -1.14644 0
M  V30 1745 H 170.968 -3.48977 -3.62249 0
M  V30 1746 H 170.668 -5.09914 -2.91996 0
M  V30 1747 H 172.192 -4.782 -3.7968 0
M  V30 1748 H 173.606 -5.49352 -1.63968 0
M  V30 1749 H 172.003 -5.9214 -0.974178 0
M  V30 1750 H 173.073 -4.8487 -0.0536168 0
M  V30 1751 N 174.416 0.165178 -1.56732 0
M  V30 1752 C 175.662 0.882112 -1.82611 0
M  V30 1753 C 175.995 1.81628 -0.687378 0
M  V30 1754 O 175.27 1.92009 0.310267 0
M  V30 1755 C 175.553 1.67245 -3.18906 0
M  V30 1756 C 175.406 0.760987 -4.43316 0
M  V30 1757 C 176.725 2.63884 -3.52212 0
M  V30 1758 H 173.844 0.319242 -0.664269 0
M  V30 1759 H 176.486 0.148052 -1.89422 0
M  V30 1760 H 174.636 2.29824 -3.1323 0
M  V30 1761 H 176.308 0.147596 -4.61064 0
M  V30 1762 H 174.551 0.0694102 -4.33744 0
M  V30 1763 H 175.222 1.34962 -5.35247 0
M  V30 1764 H 177.698 2.11429 -3.58381 0
M  V30 1765 H 176.574 3.16245 -4.48643 0
M  V30 1766 H 176.835 3.44377 -2.77231 0
M  V30 1767 N 175.894 1.51508 0.433938 0
M  V30 1768 C 177.142 1.6402 1.18075 0
M  V30 1769 C 177.463 0.360328 1.91642 0
M  V30 1770 O 176.733 -0.623945 1.85698 0
M  V30 1771 H 175.313 0.6045 0.43885 0
M  V30 1772 H 177.975 1.88452 0.497178 0
M  V30 1773 H 177.071 2.46949 1.90847 0
M  V30 1774 N 177.372 -0.689602 1.41712 0
M  V30 1775 C 178.304 -1.815 1.39966 0
M  V30 1776 C 179.317 -1.59995 0.300917 0
M  V30 1777 O 180.506 -1.69387 0.563039 0
M  V30 1778 C 177.606 -3.18364 1.16179 0
M  V30 1779 C 176.779 -3.66847 2.38206 0
M  V30 1780 C 175.838 -4.82398 2.10186 0
M  V30 1781 O 174.864 -4.93706 2.83272 0
M  V30 1782 N 176.066 -5.70064 1.0958 0
M  V30 1783 H 178.831 -1.83488 2.36965 0
M  V30 1784 H 176.392 -0.872149 1.36401 0
M  V30 1785 H 178.384 -3.93301 0.953756 0
M  V30 1786 H 176.954 -3.11365 0.27756 0
M  V30 1787 H 176.174 -2.82751 2.74673 0
M  V30 1788 H 177.462 -3.95978 3.19498 0
M  V30 1789 H 176.86 -5.63565 0.491019 0
M  V30 1790 H 175.417 -6.44874 0.947656 0
M  V30 1791 N 178.85 -1.27639 -0.924453 0
M  V30 1792 C 180.096 -1.14336 -1.67497 0
M  V30 1793 C 180.429 0.309465 -1.91718 0
M  V30 1794 O 179.704 1.22608 -1.50989 0
M  V30 1795 C 179.987 -1.93096 -3.0395 0
M  V30 1796 C 179.84 -3.46381 -2.8695 0
M  V30 1797 C 181.159 -1.73798 -4.0433 0
M  V30 1798 H 178.278 -0.416728 -0.607871 0
M  V30 1799 H 180.92 -1.56832 -1.07256 0
M  V30 1800 H 179.07 -1.56982 -3.55372 0
M  V30 1801 H 180.742 -3.92343 -2.42621 0
M  V30 1802 H 178.985 -3.72557 -2.22225 0
M  V30 1803 H 179.656 -3.96735 -3.83804 0
M  V30 1804 H 182.132 -2.05293 -3.61931 0
M  V30 1805 H 181.008 -2.31294 -4.97789 0
M  V30 1806 H 181.269 -0.686725 -4.36734 0
M  V30 1807 N 180.328 1.1314 -1.09713 0
M  V30 1808 C 181.26 2.18343 -0.697056 0
M  V30 1809 C 182.273 1.60669 0.262551 0
M  V30 1810 O 183.462 1.78435 0.0481527 0
M  V30 1811 C 180.562 3.38899 -0.00684728 0
M  V30 1812 C 179.735 4.26078 -0.988741 0
M  V30 1813 C 178.794 5.25155 -0.331394 0
M  V30 1814 O 177.82 5.60701 -0.979926 0
M  V30 1815 N 179.022 5.73271 0.913261 0
M  V30 1816 H 181.787 2.5328 -1.60216 0
M  V30 1817 H 179.348 1.28491 -0.984971 0
M  V30 1818 H 181.34 4.02255 0.444191 0
M  V30 1819 H 179.91 3.02175 0.800551 0
M  V30 1820 H 179.13 3.59453 -1.61826 0
M  V30 1821 H 180.418 4.81178 -1.65364 0
M  V30 1822 H 179.816 5.46544 1.45966 0
M  V30 1823 H 178.373 6.3855 1.30757 0
M  V30 1824 N 181.806 0.884767 1.30421 0
M  V30 1825 C 182.716 0.355398 2.31892 0
M  V30 1826 C 183.732 -0.542261 1.65335 0
M  V30 1827 O 184.908 -0.435432 1.96637 0
M  V30 1828 C 181.973 -0.421661 3.44126 0
M  V30 1829 C 181.034 0.505727 4.26311 0
M  V30 1830 C 180.267 -0.234343 5.33185 0
M  V30 1831 O 180.49 -1.46045 5.51386 0
M  V30 1832 O 179.424 0.415443 6.00465 0
M  V30 1833 H 183.25 1.19685 2.79122 0
M  V30 1834 H 180.835 0.648596 1.34587 0
M  V30 1835 H 182.717 -0.861641 4.12497 0
M  V30 1836 H 181.392 -1.23942 2.99032 0
M  V30 1837 H 180.299 0.994513 3.60639 0
M  V30 1838 H 181.632 1.28948 4.75009 0
M  V30 1839 N 183.284 -1.43765 0.645699 0
M  V30 1840 C 184.53 -2.02731 0.164844 0
M  V30 1841 C 184.885 -1.49983 -1.2051 0
M  V30 1842 O 184.178 -0.680208 -1.79119 0
M  V30 1843 C 184.372 -3.57238 0.107679 0
M  V30 1844 C 184.201 -4.24977 1.47054 0
M  V30 1845 C 182.971 -4.61356 2.06103 0
M  V30 1846 C 185.169 -4.54476 2.40741 0
M  V30 1847 N 183.151 -5.14132 3.35473 0
M  V30 1848 C 184.522 -5.08489 3.54737 0
M  V30 1849 C 186.577 -4.36438 2.39637 0
M  V30 1850 C 185.28 -5.46364 4.67845 0
M  V30 1851 C 187.306 -4.7537 3.5182 0
M  V30 1852 C 186.668 -5.2951 4.64541 0
M  V30 1853 H 182.767 -0.774976 0.104578 0
M  V30 1854 H 185.351 -1.75051 0.852367 0
M  V30 1855 H 183.522 -3.84498 -0.549165 0
M  V30 1856 H 185.254 -4.0288 -0.383351 0
M  V30 1857 H 182.009 -4.46151 1.58892 0
M  V30 1858 H 182.433 -5.4498 4.01654 0
M  V30 1859 H 187.075 -3.93861 1.53731 0
M  V30 1860 H 184.793 -5.87888 5.54448 0
M  V30 1861 H 188.379 -4.63115 3.52159 0
M  V30 1862 H 187.259 -5.59077 5.49911 0
M  V30 1863 N 184.763 -0.387143 -1.52771 0
M  V30 1864 C 185.696 0.493123 -2.22808 0
M  V30 1865 C 186.674 1.0658 -1.22798 0
M  V30 1866 O 187.858 1.11785 -1.51777 0
M  V30 1867 C 184.985 1.68238 -2.93962 0
M  V30 1868 C 184.031 1.23515 -4.08223 0
M  V30 1869 S 184.864 0.21848 -5.35054 0
M  V30 1870 C 186.02 1.41357 -6.09729 0
M  V30 1871 H 186.253 -0.101625 -2.97126 0
M  V30 1872 H 183.786 -0.171323 -1.53447 0
M  V30 1873 H 185.744 2.36443 -3.35567 0
M  V30 1874 H 184.405 2.24842 -2.19328 0
M  V30 1875 H 183.598 2.12304 -4.57103 0
M  V30 1876 H 183.2 0.632044 -3.68621 0
M  V30 1877 H 185.492 2.34101 -6.3577 0
M  V30 1878 H 186.435 0.965736 -7.01484 0
M  V30 1879 H 186.843 1.6294 -5.40473 0
M  V30 1880 N 186.241 1.57166 -0.116904 0
M  V30 1881 C 187.487 1.95412 0.542405 0
M  V30 1882 C 187.82 1.00019 1.66463 0
M  V30 1883 O 187.095 0.0370346 1.94465 0
M  V30 1884 C 187.378 3.43615 1.07708 0
M  V30 1885 C 187.231 4.49781 -0.0415868 0
M  V30 1886 C 188.55 3.93616 1.96861 0
M  V30 1887 H 185.669 0.710543 0.195696 0
M  V30 1888 H 188.311 1.89027 -0.192038 0
M  V30 1889 H 186.461 3.49187 1.70296 0
M  V30 1890 H 188.133 4.56308 -0.676793 0
M  V30 1891 H 186.376 4.28033 -0.705019 0
M  V30 1892 H 187.047 5.50733 0.373717 0
M  V30 1893 H 189.523 3.90335 1.44146 0
M  V30 1894 H 188.399 4.97838 2.3119 0
M  V30 1895 H 188.66 3.34188 2.89432 0
M  V30 1896 N 187.719 -0.156864 1.56817 0
M  V30 1897 C 188.682 -1.17781 1.96622 0
M  V30 1898 C 189.682 -1.36401 0.851555 0
M  V30 1899 O 190.872 -1.33561 1.11836 0
M  V30 1900 C 188.004 -2.54008 2.27361 0
M  V30 1901 H 189.197 -0.836564 2.87996 0
M  V30 1902 H 186.75 -0.39985 1.51099 0
M  V30 1903 H 187.485 -2.9312 1.38748 0
M  V30 1904 H 187.27 -2.41856 3.08623 0
M  V30 1905 H 188.76 -3.27558 2.59029 0
M  V30 1906 N 189.197 -1.51736 -0.425897 0
M  V30 1907 C 190.427 -1.68549 -1.19476 0
M  V30 1908 C 190.835 -0.387288 -1.85194 0
M  V30 1909 O 190.178 0.645142 -1.71999 0
M  V30 1910 C 190.24 -2.75275 -2.31223 0
M  V30 1911 C 189.904 -4.17534 -1.8578 0
M  V30 1912 C 190.901 -5.01936 -1.35485 0
M  V30 1913 C 188.586 -4.6369 -1.93123 0
M  V30 1914 C 190.58 -6.30559 -0.931347 0
M  V30 1915 C 188.267 -5.92307 -1.50384 0
M  V30 1916 C 189.265 -6.75569 -1.00473 0
M  V30 1917 O 188.953 -8.0178 -0.583452 0
M  V30 1918 H 188.685 -0.568525 -0.365725 0
M  V30 1919 H 191.239 -1.98982 -0.509444 0
M  V30 1920 H 189.469 -2.40182 -3.03067 0
M  V30 1921 H 191.158 -2.80853 -2.93047 0
M  V30 1922 H 191.924 -4.67475 -1.29197 0
M  V30 1923 H 187.803 -3.98997 -2.30916 0
M  V30 1924 H 191.347 -6.95498 -0.541084 0
M  V30 1925 H 187.244 -6.2628 -1.56346 0
M  V30 1926 H 188.012 -8.1543 -0.708275 0
M  V30 1927 N 190.675 0.682077 -1.42076 0
M  V30 1928 C 191.605 1.80796 -1.47767 0
M  V30 1929 C 192.586 1.6677 -0.334954 0
M  V30 1930 O 193.771 1.863 -0.548264 0
M  V30 1931 C 190.901 3.19038 -1.37229 0
M  V30 1932 C 189.855 3.47789 -2.49453 0
M  V30 1933 C 189.181 4.8553 -2.23975 0
M  V30 1934 C 190.481 3.45411 -3.91776 0
M  V30 1935 H 192.175 1.7629 -2.41997 0
M  V30 1936 H 189.721 0.846721 -1.16476 0
M  V30 1937 H 191.674 3.97528 -1.39821 0
M  V30 1938 H 190.398 3.24204 -0.394907 0
M  V30 1939 H 189.057 2.71657 -2.46166 0
M  V30 1940 H 188.705 4.87337 -1.24547 0
M  V30 1941 H 188.405 5.0573 -2.99184 0
M  V30 1942 H 189.929 5.66312 -2.28304 0
M  V30 1943 H 191.343 4.13882 -3.96705 0
M  V30 1944 H 189.74 3.77145 -4.66778 0
M  V30 1945 H 190.81 2.44122 -4.18966 0
M  V30 1946 N 192.153 1.28127 0.917671 0
M  V30 1947 C 193.063 1.13556 2.05286 0
M  V30 1948 C 194.079 0.0630914 1.73886 0
M  V30 1949 O 195.255 0.271598 1.9956 0
M  V30 1950 C 192.32 0.794676 3.3747 0
M  V30 1951 C 191.381 1.94909 3.82504 0
M  V30 1952 C 190.614 1.62437 5.0838 0
M  V30 1953 O 190.837 0.536905 5.67867 0
M  V30 1954 O 189.771 2.46677 5.4903 0
M  V30 1955 H 193.597 2.08844 2.20495 0
M  V30 1956 H 191.182 1.07409 1.03845 0
M  V30 1957 H 193.064 0.618344 4.16839 0
M  V30 1958 H 191.739 -0.128581 3.23445 0
M  V30 1959 H 190.646 2.18055 3.03978 0
M  V30 1960 H 191.979 2.85291 4.01086 0
M  V30 1961 N 193.631 -1.12557 1.10312 0
M  V30 1962 C 194.859 -1.87864 0.866873 0
M  V30 1963 C 195.274 -1.79588 -0.582557 0
M  V30 1964 O 194.631 -1.16887 -1.40156 0
M  V30 1965 C 194.682 -3.37125 1.30496 0
M  V30 1966 O 194.403 -3.45201 2.69755 0
M  V30 1967 C 195.904 -4.29373 1.10243 0
M  V30 1968 H 193.124 -0.594452 0.311236 0
M  V30 1969 H 195.668 -1.42429 1.46745 0
M  V30 1970 H 193.823 -3.80109 0.748081 0
M  V30 1971 H 194.237 -4.38056 2.88457 0
M  V30 1972 H 195.711 -5.32394 1.45811 0
M  V30 1973 H 196.188 -4.39181 0.0409492 0
M  V30 1974 H 196.794 -3.92169 1.64571 0
M  V30 1975 N 195.109 -0.891671 -1.2995 0
M  V30 1976 C 196.041 -0.320695 -2.26945 0
M  V30 1977 C 197.054 0.528497 -1.53983 0
M  V30 1978 O 198.243 0.346959 -1.75096 0
M  V30 1979 C 195.343 0.562066 -3.34207 0
M  V30 1980 C 194.516 -0.259576 -4.36629 0
M  V30 1981 C 193.575 0.554739 -5.23268 0
M  V30 1982 O 192.601 -0.0249311 -5.69195 0
M  V30 1983 N 193.803 1.8625 -5.4981 0
M  V30 1984 H 196.568 -1.15432 -2.76578 0
M  V30 1985 H 194.129 -0.755336 -1.432 0
M  V30 1986 H 196.121 1.11304 -3.89093 0
M  V30 1987 H 194.691 1.29637 -2.84452 0
M  V30 1988 H 193.911 -0.991986 -3.81514 0
M  V30 1989 H 195.199 -0.822564 -5.02107 0
M  V30 1990 H 194.597 2.35628 -5.14292 0
M  V30 1991 H 193.154 2.36078 -6.07545 0
M  V30 1992 N 196.587 1.43421 -0.653314 0
M  V30 1993 C 197.517 2.33487 0.0246656 0
M  V30 1994 C 198.498 1.49475 0.811863 0
M  V30 1995 O 199.683 1.78139 0.773322 0
M  V30 1996 C 196.813 3.32841 0.99166 0
M  V30 1997 C 195.767 4.26842 0.314568 0
M  V30 1998 C 195.093 5.16236 1.39302 0
M  V30 1999 C 196.393 5.16243 -0.793095 0
M  V30 2000 H 198.087 2.90427 -0.727481 0
M  V30 2001 H 195.633 1.39649 -0.351287 0
M  V30 2002 H 197.586 3.94747 1.47487 0
M  V30 2003 H 196.31 2.74158 1.77497 0
M  V30 2004 H 194.969 3.663 -0.148199 0
M  V30 2005 H 194.617 4.53891 2.16776 0
M  V30 2006 H 194.317 5.79948 0.945223 0
M  V30 2007 H 195.841 5.81015 1.87759 0
M  V30 2008 H 197.255 5.71958 -0.392039 0
M  V30 2009 H 195.652 5.88676 -1.16536 0
M  V30 2010 H 196.722 4.55927 -1.65103 0
M  V30 2011 N 198.065 0.39524 1.52563 0
M  V30 2012 C 199.028 -0.425001 2.25225 0
M  V30 2013 C 200.028 -0.985266 1.27079 0
M  V30 2014 O 201.218 -0.866332 1.5113 0
M  V30 2015 C 198.35 -1.59686 3.01186 0
M  V30 2016 H 199.543 0.211233 2.99155 0
M  V30 2017 H 197.096 0.147472 1.55603 0
M  V30 2018 H 197.831 -2.27035 2.31572 0
M  V30 2019 H 197.616 -1.20176 3.73229 0
M  V30 2020 H 199.106 -2.17743 3.5634 0
M  V30 2021 N 199.544 -1.57102 0.125237 0
M  V30 2022 C 200.821 -1.86953 -0.575142 0
M  V30 2023 C 201.201 -1.02749 -1.84407 0
M  V30 2024 O 200.549 -0.108144 -2.28244 0
M  V30 2025 C 200.759 -3.38198 -0.861583 0
M  V30 2026 C 202.107 -4.06937 -1.21192 0
M  V30 2027 O 203.131 -3.43252 -0.951645 0
M  V30 2028 O 201.99 -5.19364 -1.70068 0
M  V30 2029 H 199.084 -0.774147 -0.290906 0
M  V30 2030 H 201.63 -1.68942 0.160211 0
M  V30 2031 H 200.402 -3.91282 0.0373647 0
M  V30 2032 H 200.025 -3.61661 -1.65188 0
M  V30 2033 N 201.022 0.148545 -1.56898 0
M  V30 2034 C 202.268 0.857877 -1.84424 0
M  V30 2035 C 202.623 1.7886 -0.709006 0
M  V30 2036 O 201.916 1.89344 0.293139 0
M  V30 2037 C 202.11 1.67064 -3.1595 0
M  V30 2038 C 201.939 0.82011 -4.42159 0
M  V30 2039 C 200.709 0.486328 -5.02954 0
M  V30 2040 C 202.907 0.151155 -5.14078 0
M  V30 2041 N 200.889 -0.377956 -6.12735 0
M  V30 2042 C 202.26 -0.573333 -6.17343 0
M  V30 2043 C 204.315 0.0716685 -4.97848 0
M  V30 2044 C 203.018 -1.3698 -7.06137 0
M  V30 2045 C 205.044 -0.711532 -5.87104 0
M  V30 2046 C 204.406 -1.42431 -6.8985 0
M  V30 2047 H 200.505 0.291798 -0.725519 0
M  V30 2048 H 203.089 0.123347 -1.94309 0
M  V30 2049 H 201.26 2.37642 -3.07215 0
M  V30 2050 H 202.992 2.32302 -3.31388 0
M  V30 2051 H 199.747 0.821753 -4.66416 0
M  V30 2052 H 200.171 -0.801077 -6.72244 0
M  V30 2053 H 204.813 0.608381 -4.184 0
M  V30 2054 H 202.531 -1.91778 -7.85014 0
M  V30 2055 H 206.117 -0.775005 -5.76615 0
M  V30 2056 H 204.997 -2.02061 -7.57721 0
M  V30 2057 N 202.5 1.5196 0.417844 0
M  V30 2058 C 203.749 1.6482 1.16264 0
M  V30 2059 C 204.062 0.379886 1.91876 0
M  V30 2060 O 205.268 0.388154 2.68711 0
M  V30 2061 C 203.724 2.91161 2.1155 0
M  V30 2062 C 203.332 4.25068 1.41495 0
M  V30 2063 C 205.076 3.13383 2.86341 0
M  V30 2064 C 202.983 5.42541 2.35379 0
M  V30 2065 H 201.913 0.613954 0.437694 0
M  V30 2066 H 204.564 1.78442 0.427871 0
M  V30 2067 H 202.946 2.71218 2.88543 0
M  V30 2068 H 204.12 4.55463 0.699263 0
M  V30 2069 H 202.435 4.0888 0.787792 0
M  V30 2070 H 205.032 3.98324 3.5671 0
M  V30 2071 H 205.375 2.27256 3.48798 0
M  V30 2072 H 205.908 3.33757 2.1645 0
M  V30 2073 H 202.647 6.30987 1.77582 0
M  V30 2074 H 202.167 5.16497 3.04945 0
M  V30 2075 H 203.846 5.75272 2.96093 0
M  V30 2076 N 203.978 -0.674533 1.42435 0
M  V30 2077 C 204.928 -1.7807 1.4239 0
M  V30 2078 C 205.912 -1.58169 0.295202 0
M  V30 2079 O 207.104 -1.68643 0.537449 0
M  V30 2080 C 204.233 -3.16532 1.32901 0
M  V30 2081 C 203.319 -3.42055 2.50717 0
M  V30 2082 N 203.71 -3.38162 3.76139 0
M  V30 2083 C 202.008 -3.72692 2.44983 0
M  V30 2084 C 202.709 -3.63177 4.54398 0
M  V30 2085 N 201.685 -3.83954 3.84812 0
M  V30 2086 H 205.487 -1.73454 2.37257 0
M  V30 2087 H 203.001 -0.875381 1.36788 0
M  V30 2088 H 204.998 -3.958 1.30951 0
M  V30 2089 H 203.658 -3.22345 0.390363 0
M  V30 2090 H 204.669 -3.18057 4.0873 0
M  V30 2091 H 201.346 -3.85749 1.59699 0
M  V30 2092 H 202.736 -3.66125 5.63384 0
M  V30 2093 N 205.456 -1.28612 -0.910864 0
M  V30 2094 C 206.681 -1.1891 -1.69927 0
M  V30 2095 C 207.106 0.248372 -1.86453 0
M  V30 2096 O 206.464 1.17961 -1.37676 0
M  V30 2097 C 206.512 -1.89578 -3.06745 0
M  V30 2098 O 205.616 -1.20521 -3.94396 0
M  V30 2099 H 204.957 -0.412632 -0.520222 0
M  V30 2100 H 207.487 -1.69985 -1.1387 0
M  V30 2101 H 207.497 -1.97597 -3.56958 0
M  V30 2102 H 206.172 -2.94136 -2.94035 0
M  V30 2103 H 204.749 -1.20684 -3.52831 0
M  V30 2104 N 206.934 1.1197 -1.10907 0
M  V30 2105 C 208.159 1.87942 -0.877064 0
M  V30 2106 C 208.584 1.79341 0.567314 0
M  V30 2107 O 207.942 1.15184 1.40009 0
M  V30 2108 C 207.99 3.34926 -1.33629 0
M  V30 2109 O 207.094 4.09303 -0.504447 0
M  V30 2110 H 206.435 0.583785 -0.316371 0
M  V30 2111 H 208.965 1.4157 -1.47712 0
M  V30 2112 H 208.975 3.8577 -1.32837 0
M  V30 2113 H 207.65 3.40504 -2.3881 0
M  V30 2114 H 206.227 3.68393 -0.577993 0
M  V30 2115 N 208.412 0.89855 1.29475 0
M  V30 2116 C 209.66 0.522847 1.9522 0
M  V30 2117 C 209.981 -0.93371 1.71192 0
M  V30 2118 O 209.251 -1.65823 1.04305 0
M  V30 2119 H 207.831 0.190366 0.722336 0
M  V30 2120 H 210.493 1.14459 1.5775 0
M  V30 2121 H 209.589 0.704476 3.04045 0
M  V30 2122 N 209.89 -1.43072 0.660911 0
M  V30 2123 C 211.138 -2.01323 0.177094 0
M  V30 2124 C 211.459 -1.5245 -1.2159 0
M  V30 2125 O 210.729 -0.740322 -1.81373 0
M  V30 2126 H 209.309 -0.744382 0.0624804 0
M  V30 2127 H 211.971 -1.75179 0.854305 0
M  V30 2128 H 211.067 -3.11649 0.167641 0
M  V30 2129 N 211.368 -0.403325 -1.52352 0
M  V30 2130 C 212.614 0.167015 -2.02713 0
M  V30 2131 C 212.969 1.43296 -1.28391 0
M  V30 2132 O 212.262 1.87796 -0.379885 0
M  V30 2133 C 212.456 0.474665 -3.54234 0
M  V30 2134 C 212.285 -0.759909 -4.43233 0
M  V30 2135 C 211.055 -1.28338 -4.88731 0
M  V30 2136 C 213.253 -1.63634 -4.87574 0
M  V30 2137 N 211.235 -2.47404 -5.6184 0
M  V30 2138 C 212.606 -2.67329 -5.59406 0
M  V30 2139 C 214.661 -1.65478 -4.69597 0
M  V30 2140 C 213.364 -3.72773 -6.15169 0
M  V30 2141 C 215.39 -2.69837 -5.26253 0
M  V30 2142 C 214.752 -3.72253 -5.98002 0
M  V30 2143 H 210.851 0.0228343 -0.781667 0
M  V30 2144 H 213.435 -0.556368 -1.86581 0
M  V30 2145 H 211.606 1.16709 -3.7045 0
M  V30 2146 H 213.338 1.03338 -3.91284 0
M  V30 2147 H 210.093 -0.842273 -4.6605 0
M  V30 2148 H 210.517 -3.07688 -6.0304 0
M  V30 2149 H 215.159 -0.876389 -4.13617 0
M  V30 2150 H 212.877 -4.51471 -6.70223 0
M  V30 2151 H 216.463 -2.72164 -5.14216 0
M  V30 2152 H 215.343 -4.51679 -6.41058 0
M  V30 2153 N 212.846 1.57033 -0.133567 0
M  V30 2154 C 213.809 2.14897 0.796995 0
M  V30 2155 C 214.809 1.0874 1.18458 0
M  V30 2156 O 215.999 1.34446 1.1077 0
M  V30 2157 C 213.131 2.70112 2.07973 0
M  V30 2158 H 214.324 2.98457 0.293873 0
M  V30 2159 H 211.877 1.55871 0.115787 0
M  V30 2160 H 212.612 1.9018 2.62682 0
M  V30 2161 H 212.397 3.47764 1.81115 0
M  V30 2162 H 213.887 3.14738 2.74462 0
M  V30 2163 N 214.325 -0.140222 1.56975 0
M  V30 2164 C 215.235 -1.19223 2.02047 0
M  V30 2165 C 216.251 -1.46612 0.937062 0
M  V30 2166 O 217.427 -1.58148 1.24704 0
M  V30 2167 C 214.492 -2.50414 2.39778 0
M  V30 2168 C 213.553 -2.30612 3.621 0
M  V30 2169 C 212.786 -3.55547 3.98023 0
M  V30 2170 O 213.009 -4.62004 3.34528 0
M  V30 2171 O 211.943 -3.47808 4.91237 0
M  V30 2172 H 215.769 -0.839559 2.91865 0
M  V30 2173 H 213.354 -0.349453 1.45256 0
M  V30 2174 H 215.236 -3.27747 2.64877 0
M  V30 2175 H 213.911 -2.85198 1.53114 0
M  V30 2176 H 212.818 -1.51207 3.4218 0
M  V30 2177 H 214.151 -2.00741 4.49404 0
M  V30 2178 N 215.803 -1.52179 -0.40978 0
M  V30 2179 C 217.05 -1.66206 -1.15679 0
M  V30 2180 C 217.378 -0.391674 -1.90516 0
M  V30 2181 O 216.633 0.62533 -1.8544 0
M  V30 2182 C 216.932 -2.83428 -2.17723 0
M  V30 2183 C 216.598 -4.21672 -1.59699 0
M  V30 2184 C 215.26 -4.59274 -1.43599 0
M  V30 2185 C 217.612 -5.07825 -1.17317 0
M  V30 2186 C 214.94 -5.80709 -0.836328 0
M  V30 2187 C 217.292 -6.29864 -0.587691 0
M  V30 2188 C 215.956 -6.66216 -0.413818 0
M  V30 2189 H 215.226 -0.608192 -0.423301 0
M  V30 2190 H 217.873 -1.86279 -0.444097 0
M  V30 2191 H 216.178 -2.57687 -2.95135 0
M  V30 2192 H 217.875 -2.91477 -2.75394 0
M  V30 2193 H 214.465 -3.9204 -1.73213 0
M  V30 2194 H 218.649 -4.79359 -1.28565 0
M  V30 2195 H 213.905 -6.07498 -0.689626 0
M  V30 2196 H 218.079 -6.95948 -0.250894 0
M  V30 2197 H 215.706 -7.60182 0.0529471 0
M  V30 2198 N 217.281 0.66697 -1.42791 0
M  V30 2199 C 218.509 1.45505 -1.47091 0
M  V30 2200 C 218.924 1.8861 -0.0845873 0
M  V30 2201 O 218.281 1.58632 0.90234 0
M  V30 2202 C 218.332 2.69906 -2.40485 0
M  V30 2203 O 218.053 2.28608 -3.73725 0
M  V30 2204 C 219.554 3.63396 -2.53886 0
M  V30 2205 H 216.774 0.447459 -0.500022 0
M  V30 2206 H 219.318 0.818866 -1.8739 0
M  V30 2207 H 217.473 3.29696 -2.03419 0
M  V30 2208 H 217.887 3.08997 -4.23817 0
M  V30 2209 H 219.361 4.47387 -3.2334 0
M  V30 2210 H 219.838 4.09824 -1.57927 0
M  V30 2211 H 220.444 3.09495 -2.91706 0
M  V30 2212 N 218.759 1.29093 0.90403 0
M  V30 2213 C 219.722 1.1386 1.98919 0
M  V30 2214 C 220.722 0.0753457 1.60623 0
M  V30 2215 O 221.912 0.321931 1.71199 0
M  V30 2216 C 219.044 0.740198 3.32767 0
M  V30 2217 H 220.237 2.10246 2.13861 0
M  V30 2218 H 217.79 1.12218 1.08797 0
M  V30 2219 H 218.525 -0.223997 3.23525 0
M  V30 2220 H 218.31 1.50838 3.61926 0
M  V30 2221 H 219.8 0.656546 4.12407 0
M  V30 2222 N 220.237 -1.11381 1.11499 0
M  V30 2223 C 221.167 -2.19509 0.796125 0
M  V30 2224 C 222.148 -1.68458 -0.235796 0
M  V30 2225 O 223.333 -1.93947 -0.0991344 0
M  V30 2226 C 220.463 -3.46475 0.239205 0
M  V30 2227 C 219.417 -4.10744 1.20307 0
M  V30 2228 C 218.743 -5.32293 0.50683 0
M  V30 2229 C 220.043 -4.55597 2.55399 0
M  V30 2230 H 221.737 -2.46439 1.70024 0
M  V30 2231 H 219.283 -1.18446 0.818935 0
M  V30 2232 H 221.236 -4.214 0.00392006 0
M  V30 2233 H 219.96 -3.19006 -0.700206 0
M  V30 2234 H 218.619 -3.37813 1.42399 0
M  V30 2235 H 218.267 -5.01095 -0.437408 0
M  V30 2236 H 217.967 -5.76243 1.1497 0
M  V30 2237 H 219.491 -6.09956 0.280351 0
M  V30 2238 H 220.905 -5.21841 2.37391 0
M  V30 2239 H 219.302 -5.10363 3.15673 0
M  V30 2240 H 220.372 -3.69013 3.14575 0
M  V30 2241 N 221.715 -0.905404 -1.28997 0
M  V30 2242 C 222.945 -0.549049 -1.99171 0
M  V30 2243 C 223.353 0.87203 -1.67906 0
M  V30 2244 O 222.696 1.58796 -0.923561 0
M  V30 2245 C 222.758 -0.668306 -3.53234 0
M  V30 2246 C 222.422 -2.0574 -4.08069 0
M  V30 2247 C 223.419 -3.0292 -4.22534 0
M  V30 2248 C 221.104 -2.36833 -4.42962 0
M  V30 2249 C 223.098 -4.29314 -4.71135 0
M  V30 2250 C 220.785 -3.63467 -4.91258 0
M  V30 2251 C 221.783 -4.59522 -5.053 0
M  V30 2252 O 221.471 -5.83907 -5.52546 0
M  V30 2253 H 221.203 -0.208784 -0.64295 0
M  V30 2254 H 223.757 -1.21836 -1.65363 0
M  V30 2255 H 221.987 0.0580547 -3.86656 0
M  V30 2256 H 223.676 -0.320273 -4.04634 0
M  V30 2257 H 224.442 -2.80216 -3.95859 0
M  V30 2258 H 220.321 -1.62824 -4.31288 0
M  V30 2259 H 223.865 -5.04293 -4.8201 0
M  V30 2260 H 219.762 -3.86 -5.17372 0
M  V30 2261 H 220.53 -5.86578 -5.70849 0
M  V30 2262 N 223.193 1.4272 -0.668489 0
M  V30 2263 C 224.441 2.01226 -0.187769 0
M  V30 2264 C 224.762 1.53092 1.2078 0
M  V30 2265 O 224.032 0.74993 1.80977 0
M  V30 2266 H 222.612 0.744041 -0.0664272 0
M  V30 2267 H 225.274 1.74723 -0.863583 0
M  V30 2268 H 224.37 3.11556 -0.184166 0
M  V30 2269 N 224.671 0.411399 1.52136 0
M  V30 2270 C 225.948 -0.222308 1.94333 0
M  V30 2271 C 226.328 -1.6242 1.34844 0
M  V30 2272 O 225.676 -2.22384 0.525145 0
M  V30 2273 C 225.886 -0.226345 3.48265 0
M  V30 2274 C 227.234 -0.444592 4.22266 0
M  V30 2275 O 228.258 -0.305602 3.54887 0
M  V30 2276 O 227.117 -0.718749 5.41753 0
M  V30 2277 H 224.211 -0.143907 0.814383 0
M  V30 2278 H 226.757 0.467506 1.63133 0
M  V30 2279 H 225.529 0.75475 3.83952 0
M  V30 2280 H 225.152 -0.960163 3.85832 0
M  V30 2281 N 226.149 -1.5696 0.141893 0
M  V30 2282 C 227.397 -1.95573 -0.509484 0
M  V30 2283 C 227.718 -1.02746 -1.65736 0
M  V30 2284 O 226.988 -0.0880311 -1.95702 0
M  V30 2285 H 225.568 -0.722115 -0.191205 0
M  V30 2286 H 228.23 -1.93697 0.216196 0
M  V30 2287 H 227.326 -2.99171 -0.889 0
M  V30 2288 N 227.627 0.131896 -1.57047 0
M  V30 2289 C 228.59 1.14638 -1.98471 0
M  V30 2290 C 229.59 1.35029 -0.873148 0
M  V30 2291 O 230.78 1.31764 -1.13946 0
M  V30 2292 C 227.912 2.50358 -2.31373 0
M  V30 2293 H 229.105 0.79064 -2.8929 0
M  V30 2294 H 226.658 0.375761 -1.51716 0
M  V30 2295 H 227.393 2.90876 -1.43393 0
M  V30 2296 H 227.178 2.36915 -3.12432 0
M  V30 2297 H 228.668 3.23395 -2.64207 0
M  V30 2298 N 229.106 1.52395 0.401703 0
M  V30 2299 C 230.036 1.79231 1.49661 0
M  V30 2300 C 231.017 0.643654 1.57452 0
M  V30 2301 O 232.202 0.889989 1.72606 0
M  V30 2302 C 229.332 1.94971 2.87409 0
M  V30 2303 C 228.286 3.10604 2.94465 0
M  V30 2304 C 227.612 3.11577 4.34538 0
M  V30 2305 C 228.912 4.49921 2.6527 0
M  V30 2306 H 230.606 2.70917 1.27454 0
M  V30 2307 H 228.152 1.30362 0.6117 0
M  V30 2308 H 230.105 2.12328 3.63999 0
M  V30 2309 H 228.829 0.999632 3.10926 0
M  V30 2310 H 227.488 2.93009 2.20321 0
M  V30 2311 H 227.136 2.14277 4.55076 0
M  V30 2312 H 226.836 3.89247 4.40183 0
M  V30 2313 H 228.36 3.31073 5.13053 0
M  V30 2314 H 229.774 4.67683 3.31581 0
M  V30 2315 H 228.171 5.29564 2.82281 0
M  V30 2316 H 229.241 4.57507 1.60671 0
M  V30 2317 N 230.584 -0.659388 1.43143 0
M  V30 2318 C 231.494 -1.80167 1.50256 0
M  V30 2319 C 232.51 -1.69571 0.390106 0
M  V30 2320 O 233.686 -1.90849 0.643319 0
M  V30 2321 C 230.751 -3.16409 1.41725 0
M  V30 2322 C 229.812 -3.38848 2.63591 0
M  V30 2323 C 229.045 -4.68591 2.55458 0
M  V30 2324 O 229.268 -5.47532 1.59891 0
M  V30 2325 O 228.202 -4.92614 3.45854 0
M  V30 2326 H 232.028 -1.77121 2.46702 0
M  V30 2327 H 229.613 -0.817092 1.25076 0
M  V30 2328 H 231.495 -3.9768 1.39387 0
M  V30 2329 H 230.17 -3.20059 0.484118 0
M  V30 2330 H 229.077 -2.57366 2.71502 0
M  V30 2331 H 230.41 -3.4004 3.55856 0
M  V30 2332 N 232.062 -1.29571 -0.897171 0
M  V30 2333 C 232.972 -1.16808 -2.03453 0
M  V30 2334 C 233.988 -0.0907471 -1.73763 0
M  V30 2335 O 235.164 -0.303312 -1.99103 0
M  V30 2336 C 232.229 -0.848264 -3.36163 0
M  V30 2337 C 231.29 -2.0097 -3.79354 0
M  V30 2338 C 230.523 -1.70505 -5.05731 0
M  V30 2339 O 230.746 -0.62718 -5.66941 0
M  V30 2340 O 229.68 -2.5538 -5.45036 0
M  V30 2341 H 233.506 -2.12325 -2.17144 0
M  V30 2342 H 231.091 -1.09047 -1.02123 0
M  V30 2343 H 232.973 -0.684581 -4.15802 0
M  V30 2344 H 231.648 0.0771071 -3.23608 0
M  V30 2345 H 230.555 -2.22863 -3.00471 0
M  V30 2346 H 231.888 -2.91636 -3.96496 0
M  V30 2347 N 233.54 1.10788 -1.12088 0
M  V30 2348 C 234.503 2.15207 -0.788577 0
M  V30 2349 C 235.503 1.59609 0.195317 0
M  V30 2350 O 236.693 1.74174 -0.0300193 0
M  V30 2351 C 233.825 3.4047 -0.171174 0
M  V30 2352 H 235.018 2.46116 -1.71368 0
M  V30 2353 H 232.571 1.26089 -0.923652 0
M  V30 2354 H 233.306 3.15176 0.763832 0
M  V30 2355 H 233.091 3.82109 -0.879514 0
M  V30 2356 H 234.581 4.17576 0.04496 0
M  V30 2357 N 235.018 0.912232 1.28515 0
M  V30 2358 C 236.434 0.610159 1.47476 0
M  V30 2359 C 236.634 -0.844955 1.82928 0
M  V30 2360 O 235.69 -1.62416 1.93332 0
M  V30 2361 C 237.003 1.54675 2.57868 0
M  V30 2362 C 238.551 1.55331 2.71738 0
M  V30 2363 C 239.026 2.47649 3.85272 0
M  V30 2364 N 240.517 2.45767 3.92623 0
M  V30 2365 C 241.252 3.13896 4.79851 0
M  V30 2366 N 240.748 3.9135 5.71679 0
M  V30 2367 N 242.541 3.02991 4.73448 0
M  V30 2368 H 234.692 1.85318 1.03783 0
M  V30 2369 H 236.955 0.794777 0.516753 0
M  V30 2370 H 236.661 2.5841 2.38574 0
M  V30 2371 H 236.535 1.27671 3.54937 0
M  V30 2372 H 238.922 0.52335 2.90422 0
M  V30 2373 H 239.003 1.86378 1.75205 0
M  V30 2374 H 238.647 3.50745 3.67342 0
M  V30 2375 H 238.577 2.13904 4.81199 0
M  V30 2376 H 241.068 1.89503 3.26951 0
M  V30 2377 H 241.381 4.40359 6.35062 0
M  V30 2378 H 239.726 3.95455 5.71524 0
M  V30 2379 H 242.917 2.41987 4.007 0
M  V30 2380 H 243.09 3.5636 5.41213 0
M  V30 2381 N 236.496 -1.42363 0.676048 0
M  V30 2382 C 237.912 -1.55811 0.345718 0
M  V30 2383 C 238.112 -1.65544 -1.14879 0
M  V30 2384 O 237.168 -1.62306 -1.93424 0
M  V30 2385 C 238.481 -2.80746 1.07713 0
M  V30 2386 C 240.029 -2.9452 1.05958 0
M  V30 2387 C 240.504 -4.22318 1.77233 0
M  V30 2388 N 241.995 -4.29233 1.74108 0
M  V30 2389 C 242.73 -5.26935 2.26113 0
M  V30 2390 N 242.226 -6.30783 2.86505 0
M  V30 2391 N 244.019 -5.18741 2.1648 0
M  V30 2392 H 236.17 -1.34289 1.6456 0
M  V30 2393 H 238.433 -0.646506 0.69335 0
M  V30 2394 H 238.139 -2.79696 2.13221 0
M  V30 2395 H 238.013 -3.71676 0.64316 0
M  V30 2396 H 240.4 -2.95097 0.0128255 0
M  V30 2397 H 240.481 -2.04817 1.53244 0
M  V30 2398 H 240.125 -4.22502 2.81877 0
M  V30 2399 H 240.055 -5.10958 1.27396 0
M  V30 2400 H 242.546 -3.54814 1.30059 0
M  V30 2401 H 242.859 -7.01691 3.23805 0
M  V30 2402 H 241.204 -6.31341 2.90575 0
M  V30 2403 H 244.395 -4.36533 1.68987 0
M  V30 2404 H 244.568 -5.94721 2.57316 0
M  V30 2405 N 237.974 -0.419461 -1.51915 0
M  V30 2406 C 238.904 0.391813 -2.30189 0
M  V30 2407 C 239.885 1.03699 -1.34836 0
M  V30 2408 O 241.07 1.04403 -1.63748 0
M  V30 2409 C 238.2 1.50312 -3.13087 0
M  V30 2410 C 237.154 0.9824 -4.16573 0
M  V30 2411 C 236.48 2.18809 -4.8788 0
M  V30 2412 C 237.78 0.0292356 -5.22292 0
M  V30 2413 H 239.474 -0.26135 -2.98257 0
M  V30 2414 H 237.02 -0.127134 -1.43438 0
M  V30 2415 H 238.973 2.07773 -3.66617 0
M  V30 2416 H 237.697 2.18431 -2.42807 0
M  V30 2417 H 236.356 0.430119 -3.64068 0
M  V30 2418 H 236.004 2.85507 -4.14119 0
M  V30 2419 H 235.704 1.84615 -5.57845 0
M  V30 2420 H 237.228 2.76858 -5.44226 0
M  V30 2421 H 238.642 0.512976 -5.71 0
M  V30 2422 H 237.039 -0.2244 -5.9968 0
M  V30 2423 H 238.109 -0.912931 -4.76228 0
M  V30 2424 N 239.452 1.56882 -0.150215 0
M  V30 2425 C 240.868 1.58263 0.20617 0
M  V30 2426 C 241.068 1.16464 1.64434 0
M  V30 2427 O 240.124 0.866422 2.3717 0
M  V30 2428 C 241.437 3.00649 -0.0555025 0
M  V30 2429 C 242.985 3.12999 0.00795388 0
M  V30 2430 C 243.46 4.5744 -0.226429 0
M  V30 2431 N 244.951 4.62875 -0.173469 0
M  V30 2432 C 245.686 5.72454 -0.329288 0
M  V30 2433 N 245.182 6.90669 -0.543005 0
M  V30 2434 N 246.975 5.61467 -0.266666 0
M  V30 2435 H 239.126 1.82345 -1.08922 0
M  V30 2436 H 241.389 0.844149 -0.431413 0
M  V30 2437 H 241.095 3.3563 -1.05096 0
M  V30 2438 H 240.969 3.71337 0.66246 0
M  V30 2439 H 243.356 2.77857 0.993966 0
M  V30 2440 H 243.437 2.4479 -0.742388 0
M  V30 2441 H 243.081 4.93287 -1.20956 0
M  V30 2442 H 243.011 5.2378 0.544274 0
M  V30 2443 H 245.502 3.77898 -0.0130709 0
M  V30 2444 H 245.815 7.70045 -0.651922 0
M  V30 2445 H 244.16 6.92581 -0.579366 0
M  V30 2446 H 247.351 4.67992 -0.100441 0
M  V30 2447 H 247.524 6.46816 -0.391535 0
M  V30 2448 N 240.93 -0.123565 1.57115 0
M  V30 2449 C 241.84 -1.17074 2.033 0
M  V30 2450 C 242.856 -1.4561 0.952559 0
M  V30 2451 O 244.032 -1.56817 1.26374 0
M  V30 2452 C 241.097 -2.47857 2.42421 0
M  V30 2453 C 240.158 -2.26758 3.64526 0
M  V30 2454 C 239.391 -3.51305 4.01771 0
M  V30 2455 O 239.614 -4.5843 3.39409 0
M  V30 2456 O 238.548 -3.42578 4.94898 0
M  V30 2457 H 242.374 -0.808555 2.92739 0
M  V30 2458 H 239.959 -0.334027 1.45618 0
M  V30 2459 H 241.841 -3.2492 2.68338 0
M  V30 2460 H 240.516 -2.83558 1.5613 0
M  V30 2461 H 239.423 -1.47569 3.43765 0
M  V30 2462 H 240.756 -1.95963 4.51508 0
M  V30 2463 N 242.408 -1.52605 -0.393616 0
M  V30 2464 C 243.656 -1.67093 -1.13685 0
M  V30 2465 C 243.977 -0.411011 -1.90619 0
M  V30 2466 O 243.247 0.574491 -1.87287 0
M  V30 2467 H 241.827 -0.615923 -0.422668 0
M  V30 2468 H 244.489 -1.89704 -0.447039 0
M  V30 2469 H 243.585 -2.51922 -1.84232 0
M  V30 2470 N 243.887 0.651787 -1.4349 0
M  V30 2471 C 244.835 1.78586 -1.49029 0
M  V30 2472 C 245.829 1.65448 -0.363767 0
M  V30 2473 O 247.035 1.71777 -0.537821 0
M  V30 2474 H 243.41 0.589236 -0.467231 0
M  V30 2475 H 245.381 1.71035 -2.44519 0
M  V30 2476 C 244.13 3.16851 -1.43181 0
M  V30 2477 H 243.453 3.27598 -2.29171 0
M  V30 2478 H 244.893 3.96156 -1.51118 0
M  V30 2479 C 243.352 3.36568 -0.149616 0
M  V30 2480 O 243.882 3.93885 0.788509 0
M  V30 2481 N 242.088 2.90539 -0.0593484 0
M  V30 2482 H 241.635 2.4408 -0.823575 0
M  V30 2483 H 241.593 3.04108 0.797853 0
M  V30 2484 N 245.365 1.30045 0.890287 0
M  V30 2485 C 246.611 1.19747 1.64415 0
M  V30 2486 C 246.966 -0.246591 1.90813 0
M  V30 2487 O 246.259 -1.174 1.51419 0
M  V30 2488 C 246.453 1.95409 2.99249 0
M  V30 2489 C 246.282 3.47025 2.86013 0
M  V30 2490 C 245.052 4.1638 2.86279 0
M  V30 2491 C 247.25 4.42353 2.62351 0
M  V30 2492 N 245.232 5.54293 2.63879 0
M  V30 2493 C 246.603 5.67792 2.49022 0
M  V30 2494 C 248.658 4.32009 2.47533 0
M  V30 2495 C 247.361 6.8406 2.22383 0
M  V30 2496 C 249.387 5.48038 2.22279 0
M  V30 2497 C 248.749 6.72455 2.09722 0
M  V30 2498 H 244.848 0.493223 0.60684 0
M  V30 2499 H 247.432 1.6399 1.04954 0
M  V30 2500 H 245.603 1.53565 3.56752 0
M  V30 2501 H 247.335 1.77298 3.63796 0
M  V30 2502 H 244.09 3.68164 2.97913 0
M  V30 2503 H 244.514 6.26852 2.55706 0
M  V30 2504 H 249.156 3.36503 2.55979 0
M  V30 2505 H 246.874 7.79612 2.12675 0
M  V30 2506 H 250.46 5.41939 2.11643 0
M  V30 2507 H 249.34 7.60722 1.90453 0
M  V30 2508 N 246.843 -1.10192 1.12674 0
M  V30 2509 C 247.806 -2.14786 0.799979 0
M  V30 2510 C 248.806 -1.59711 -0.18685 0
M  V30 2511 O 249.996 -1.74156 0.0392558 0
M  V30 2512 C 247.128 -3.40374 0.189228 0
M  V30 2513 H 248.321 -2.45203 1.72671 0
M  V30 2514 H 245.874 -1.25597 0.930326 0
M  V30 2515 H 246.609 -3.15577 -0.747107 0
M  V30 2516 H 246.394 -3.81637 0.899766 0
M  V30 2517 H 247.884 -4.17594 -0.0228143 0
M  V30 2518 N 248.321 -0.919034 -1.28029 0
M  V30 2519 C 249.546 -0.570357 -1.99403 0
M  V30 2520 C 249.971 0.842486 -1.68178 0
M  V30 2521 O 249.329 1.56391 -0.917141 0
M  V30 2522 C 249.377 -0.792541 -3.51783 0
M  V30 2523 O 248.481 0.145988 -4.12142 0
M  V30 2524 H 247.822 -0.220555 -0.6263 0
M  V30 2525 H 250.352 -1.23592 -1.63053 0
M  V30 2526 H 250.362 -0.704708 -4.01868 0
M  V30 2527 H 249.037 -1.82247 -3.73844 0
M  V30 2528 H 247.614 0.00897528 -3.72899 0
M  V30 2529 N 249.799 1.42003 -0.683588 0
M  V30 2530 C 251.045 2.01712 -0.209825 0
M  V30 2531 C 251.378 1.53968 1.18353 0
M  V30 2532 O 250.653 0.745661 1.79639 0
M  V30 2533 C 250.936 3.59202 -0.254197 0
M  V30 2534 C 250.789 4.17102 -1.68363 0
M  V30 2535 C 252.108 4.38344 0.392709 0
M  V30 2536 H 249.227 0.732891 -0.0777189 0
M  V30 2537 H 251.869 1.68909 -0.87004 0
M  V30 2538 H 250.019 3.87278 0.307954 0
M  V30 2539 H 251.691 3.99946 -2.29871 0
M  V30 2540 H 249.934 3.72597 -2.22157 0
M  V30 2541 H 250.605 5.26249 -1.6663 0
M  V30 2542 H 253.081 4.16011 -0.0859162 0
M  V30 2543 H 251.957 5.47901 0.331063 0
M  V30 2544 H 252.218 4.16887 1.47164 0
M  V30 2545 N 251.277 0.427512 1.51691 0
M  V30 2546 C 252.693 0.0792977 1.59403 0
M  V30 2547 C 252.893 -1.41035 1.43914 0
M  V30 2548 O 251.949 -2.17922 1.27539 0
M  V30 2549 C 253.262 0.590636 2.94842 0
M  V30 2550 C 254.81 0.550215 3.08126 0
M  V30 2551 C 255.285 1.03836 4.46074 0
M  V30 2552 N 256.776 0.995943 4.52366 0
M  V30 2553 C 257.511 1.34463 5.57411 0
M  V30 2554 N 257.007 1.76569 6.69922 0
M  V30 2555 N 258.8 1.26343 5.47717 0
M  V30 2556 H 250.951 1.39687 1.60004 0
M  V30 2557 H 253.214 0.575003 0.753708 0
M  V30 2558 H 252.92 1.63251 3.11516 0
M  V30 2559 H 252.794 0.0102061 3.77199 0
M  V30 2560 H 255.181 -0.482654 2.91126 0
M  V30 2561 H 255.262 1.16693 2.27632 0
M  V30 2562 H 254.906 2.06965 4.63819 0
M  V30 2563 H 254.836 0.398286 5.25092 0
M  V30 2564 H 257.327 0.68661 3.7161 0
M  V30 2565 H 257.64 2.01438 7.46085 0
M  V30 2566 H 255.985 1.80488 6.71155 0
M  V30 2567 H 259.176 0.933209 4.58703 0
M  V30 2568 H 259.349 1.53846 6.29472 0
M  V30 2569 N 252.755 -1.56801 0.158532 0
M  V30 2570 C 253.983 -2.00859 -0.496303 0
M  V30 2571 C 254.398 -1.03871 -1.57659 0
M  V30 2572 O 253.755 -0.0375165 -1.82461 0
M  V30 2573 C 253.806 -3.4479 -1.08638 0
M  V30 2574 O 253.527 -4.38072 -0.0492322 0
M  V30 2575 C 255.028 -4.04185 -1.8207 0
M  V30 2576 H 252.248 -0.65864 -0.128199 0
M  V30 2577 H 254.792 -2.02885 0.256506 0
M  V30 2578 H 252.947 -3.43579 -1.78975 0
M  V30 2579 H 253.361 -5.2227 -0.483102 0
M  V30 2580 H 254.835 -5.06857 -2.18633 0
M  V30 2581 H 255.312 -3.45549 -2.71095 0
M  V30 2582 H 255.918 -4.0906 -1.16405 0
M  V30 2583 N 254.233 0.115231 -1.57178 0
M  V30 2584 C 255.479 0.82357 -1.85325 0
M  V30 2585 C 255.812 1.79349 -0.744814 0
M  V30 2586 O 255.087 1.92899 0.249024 0
M  V30 2587 C 255.37 1.57014 -3.24066 0
M  V30 2588 C 255.223 0.619565 -4.45513 0
M  V30 2589 C 256.542 2.52545 -3.60429 0
M  V30 2590 H 253.661 0.297948 -0.674089 0
M  V30 2591 H 256.303 0.0877138 -1.89797 0
M  V30 2592 H 254.453 2.19742 -3.20383 0
M  V30 2593 H 256.125 0.000837639 -4.613 0
M  V30 2594 H 254.368 -0.0686174 -4.33746 0
M  V30 2595 H 255.039 1.17866 -5.3927 0
M  V30 2596 H 257.515 1.9992 -3.64926 0
M  V30 2597 H 256.391 3.01811 -4.58477 0
M  V30 2598 H 256.652 3.35383 -2.88047 0
M  V30 2599 N 255.711 1.52812 0.385517 0
M  V30 2600 C 256.641 1.80808 1.47752 0
M  V30 2601 C 257.622 0.660318 1.5676 0
M  V30 2602 O 258.807 0.908246 1.71652 0
M  V30 2603 C 255.937 1.98008 2.85324 0
M  V30 2604 C 254.891 3.13709 2.91154 0
M  V30 2605 C 254.217 3.16169 4.31209 0
M  V30 2606 C 255.517 4.52709 2.60483 0
M  V30 2607 H 257.211 2.72253 1.24573 0
M  V30 2608 H 254.757 1.31003 0.597839 0
M  V30 2609 H 256.71 2.16176 3.61726 0
M  V30 2610 H 255.434 1.03255 3.09848 0
M  V30 2611 H 254.093 2.95329 2.17201 0
M  V30 2612 H 253.741 2.19092 4.52778 0
M  V30 2613 H 253.441 3.93894 4.36029 0
M  V30 2614 H 254.965 3.36496 5.09512 0
M  V30 2615 H 256.379 4.71173 3.26602 0
M  V30 2616 H 254.776 5.32528 2.76648 0
M  V30 2617 H 255.846 4.59186 1.55809 0
M  V30 2618 N 257.189 -0.644168 1.43834 0
M  V30 2619 C 258.417 -1.43147 1.49387 0
M  V30 2620 C 258.832 -1.88452 0.114583 0
M  V30 2621 O 258.189 -1.60047 -0.876989 0
M  V30 2622 C 258.24 -2.66046 2.44748 0
M  V30 2623 O 257.961 -2.22633 3.77314 0
M  V30 2624 C 259.462 -3.59311 2.59635 0
M  V30 2625 H 256.682 -0.439447 0.507077 0
M  V30 2626 H 259.226 -0.78895 1.88669 0
M  V30 2627 H 257.381 -3.26418 2.08638 0
M  V30 2628 H 257.795 -3.02216 4.28679 0
M  V30 2629 H 259.269 -4.42187 3.30416 0
M  V30 2630 H 259.746 -4.07259 1.64427 0
M  V30 2631 H 260.352 -3.04816 2.96593 0
M  V30 2632 N 258.668 -1.30515 -0.883378 0
M  V30 2633 C 259.916 -1.19194 -1.63209 0
M  V30 2634 C 260.237 0.253205 -1.93349 0
M  V30 2635 O 259.507 1.17025 -1.57105 0
M  V30 2636 H 258.087 -0.438148 -0.605009 0
M  V30 2637 H 260.749 -1.63663 -1.05832 0
M  V30 2638 H 259.845 -1.75396 -2.58153 0
M  V30 2639 N 260.146 1.09593 -1.13257 0
M  V30 2640 C 261.109 2.14359 -0.811358 0
M  V30 2641 C 262.109 1.59808 0.178377 0
M  V30 2642 O 263.299 1.74132 -0.0484911 0
M  V30 2643 C 260.431 3.40269 -0.207276 0
M  V30 2644 H 261.624 2.44284 -1.73969 0
M  V30 2645 H 259.177 1.25102 -0.936973 0
M  V30 2646 H 259.912 3.15969 0.73036 0
M  V30 2647 H 259.697 3.81154 -0.919992 0
M  V30 2648 H 261.187 4.176 0.000667944 0
M  V30 2649 N 261.624 0.925811 1.2754 0
M  V30 2650 C 262.87 0.566092 1.94739 0
M  V30 2651 C 263.203 -0.890057 1.72603 0
M  V30 2652 O 262.478 -1.63467 1.05399 0
M  V30 2653 C 262.761 0.89054 3.48915 0
M  V30 2654 C 262.614 2.4003 3.80402 0
M  V30 2655 C 263.933 0.395101 4.38323 0
M  V30 2656 H 261.052 0.20714 0.707292 0
M  V30 2657 H 263.694 1.15725 1.50691 0
M  V30 2658 H 261.844 0.387452 3.86563 0
M  V30 2659 H 263.516 2.97494 3.52555 0
M  V30 2660 H 261.759 2.85028 3.2702 0
M  V30 2661 H 262.43 2.57785 4.8811 0
M  V30 2662 H 264.906 0.826241 4.07814 0
M  V30 2663 H 263.782 0.651086 5.45025 0
M  V30 2664 H 264.043 -0.704798 4.36446 0
M  V30 2665 N 263.102 -1.41638 0.69111 0
M  V30 2666 C 264.065 -2.29178 0.0319786 0
M  V30 2667 C 265.065 -1.44153 -0.712496 0
M  V30 2668 O 266.255 -1.65354 -0.548053 0
M  V30 2669 C 263.387 -3.26952 -0.965161 0
M  V30 2670 H 264.58 -2.88959 0.802681 0
M  V30 2671 H 262.133 -1.4955 0.454356 0
M  V30 2672 H 262.868 -2.72142 -1.76378 0
M  V30 2673 H 262.653 -3.89685 -0.434522 0
M  V30 2674 H 264.143 -3.92561 -1.42428 0
M  V30 2675 N 264.58 -0.43555 -1.51462 0
M  V30 2676 C 265.51 0.367376 -2.30592 0
M  V30 2677 C 266.491 1.02263 -1.35928 0
M  V30 2678 O 267.676 1.02661 -1.64847 0
M  V30 2679 C 264.806 1.46983 -3.14664 0
M  V30 2680 C 263.76 0.938161 -4.17591 0
M  V30 2681 C 263.086 2.13622 -4.90173 0
M  V30 2682 C 264.386 -0.0261621 -5.22293 0
M  V30 2683 H 266.08 -0.292969 -2.97963 0
M  V30 2684 H 263.626 -0.14234 -1.43295 0
M  V30 2685 H 265.579 2.03873 -3.688 0
M  V30 2686 H 264.303 2.15843 -2.4511 0
M  V30 2687 H 262.962 0.391481 -3.64504 0
M  V30 2688 H 262.61 2.81098 -4.17124 0
M  V30 2689 H 262.31 1.78688 -5.59772 0
M  V30 2690 H 263.834 2.7107 -5.47132 0
M  V30 2691 H 265.248 0.452384 -5.71512 0
M  V30 2692 H 263.645 -0.287992 -5.99409 0
M  V30 2693 H 264.715 -0.963391 -4.75233 0
M  V30 2694 N 266.058 1.56714 -0.166846 0
M  V30 2695 C 267.306 1.96358 0.478305 0
M  V30 2696 C 267.627 1.0537 1.6408 0
M  V30 2697 O 266.897 0.119154 1.95537 0
M  V30 2698 H 265.477 0.725065 0.179692 0
M  V30 2699 H 268.139 1.93329 -0.246985 0
M  V30 2700 H 267.235 3.00547 0.841292 0
M  V30 2701 N 267.536 -0.106894 1.57237 0
M  V30 2702 C 268.499 -1.11466 2.0027 0
M  V30 2703 C 269.499 -1.33623 0.894519 0
M  V30 2704 O 270.689 -1.29935 1.16028 0
M  V30 2705 C 267.821 -2.46646 2.35327 0
M  V30 2706 H 269.014 -0.744516 2.90512 0
M  V30 2707 H 266.567 -0.351576 1.52295 0
M  V30 2708 H 267.302 -2.88558 1.48003 0
M  V30 2709 H 267.087 -2.31915 3.16161 0
M  V30 2710 H 268.577 -3.19151 2.69318 0
M  V30 2711 N 269.014 -1.53014 -0.377408 0
M  V30 2712 C 269.944 -1.81589 -1.46791 0
M  V30 2713 C 270.925 -0.668622 -1.56408 0
M  V30 2714 O 272.11 -0.917337 -1.71168 0
M  V30 2715 C 269.24 -1.99519 -2.8427 0
M  V30 2716 C 268.194 -3.15249 -2.89486 0
M  V30 2717 C 267.52 -3.18451 -4.29527 0
M  V30 2718 C 268.82 -4.54084 -2.58079 0
M  V30 2719 H 270.514 -2.7291 -1.23127 0
M  V30 2720 H 268.06 -1.31319 -0.590883 0
M  V30 2721 H 270.013 -2.18092 -3.60575 0
M  V30 2722 H 268.737 -1.04897 -3.09296 0
M  V30 2723 H 267.396 -2.96477 -2.15631 0
M  V30 2724 H 267.044 -2.2149 -4.5161 0
M  V30 2725 H 266.744 -3.962 -4.33934 0
M  V30 2726 H 268.268 -3.39193 -5.07721 0
M  V30 2727 H 269.682 -4.72899 -3.24098 0
M  V30 2728 H 268.079 -5.33987 -2.7382 0
M  V30 2729 H 269.149 -4.60006 -1.53372 0
M  V30 2730 N 270.492 0.636531 -1.44174 0
M  V30 2731 C 271.738 1.39826 -1.4689 0
M  V30 2732 C 272.071 1.93947 -0.0990585 0
M  V30 2733 O 271.346 1.73325 0.882544 0
M  V30 2734 C 271.629 2.56751 -2.5249 0
M  V30 2735 C 271.482 2.08014 -3.98811 0
M  V30 2736 C 272.801 3.58946 -2.54649 0
M  V30 2737 H 269.92 0.507075 -0.53483 0
M  V30 2738 H 272.562 0.720188 -1.75822 0
M  V30 2739 H 270.712 3.14597 -2.2795 0
M  V30 2740 H 272.384 1.5504 -4.34466 0
M  V30 2741 H 270.627 1.39242 -4.10846 0
M  V30 2742 H 271.298 2.92169 -4.68339 0
M  V30 2743 H 273.774 3.1089 -2.76563 0
M  V30 2744 H 272.65 4.38286 -3.3045 0
M  V30 2745 H 272.911 4.12655 -1.58646 0
M  V30 2746 N 271.97 1.30982 0.876444 0
M  V30 2747 C 273.198 1.23242 1.6619 0
M  V30 2748 C 273.613 -0.203345 1.87702 0
M  V30 2749 O 272.97 -1.13317 1.43057 0
M  V30 2750 C 273.021 1.96623 3.03351 0
M  V30 2751 O 272.742 3.34594 2.82804 0
M  V30 2752 C 274.243 1.95644 3.97792 0
M  V30 2753 H 271.463 0.426126 0.518322 0
M  V30 2754 H 274.007 1.7275 1.09442 0
M  V30 2755 H 272.162 1.50892 3.56806 0
M  V30 2756 H 272.576 3.71873 3.69879 0
M  V30 2757 H 274.05 2.51511 4.91372 0
M  V30 2758 H 274.527 0.937395 4.2908 0
M  V30 2759 H 275.133 2.41225 3.50272 0
M  V30 2760 N 273.449 -1.08991 1.13837 0
M  V30 2761 C 274.695 -1.81526 0.90422 0
M  V30 2762 C 275.028 -1.85706 -0.568066 0
M  V30 2763 O 274.303 -1.32855 -1.42056 0
M  V30 2764 C 274.586 -3.27447 1.49835 0
M  V30 2765 C 274.439 -3.31512 3.04006 0
M  V30 2766 C 275.758 -4.24256 1.17025 0
M  V30 2767 H 272.877 -0.659029 0.329923 0
M  V30 2768 H 275.519 -1.27644 1.40737 0
M  V30 2769 H 273.669 -3.73462 1.07044 0
M  V30 2770 H 275.341 -2.93867 3.55584 0
M  V30 2771 H 273.584 -2.70963 3.38765 0
M  V30 2772 H 274.255 -4.34329 3.40679 0
M  V30 2773 H 276.731 -3.86549 1.54009 0
M  V30 2774 H 275.607 -5.24684 1.61237 0
M  V30 2775 H 275.868 -4.42019 0.0846274 0
M  V30 2776 N 274.927 -0.932562 -1.27047 0
M  V30 2777 C 276.175 -0.574422 -1.93765 0
M  V30 2778 C 276.496 0.887993 -1.73608 0
M  V30 2779 O 275.766 1.62999 -1.08665 0
M  V30 2780 H 274.346 -0.209451 -0.717035 0
M  V30 2781 H 277.008 -1.18601 -1.5466 0
M  V30 2782 H 276.104 -0.784841 -3.02071 0
M  V30 2783 N 276.405 1.4127 -0.698611 0
M  V30 2784 C 277.368 2.29158 -0.044132 0
M  V30 2785 C 278.368 1.44529 0.704841 0
M  V30 2786 O 279.558 1.65643 0.539276 0
M  V30 2787 C 276.69 3.27459 0.947809 0
M  V30 2788 H 277.883 2.88529 -0.817994 0
M  V30 2789 H 275.436 1.49307 -0.46228 0
M  V30 2790 H 276.171 2.73073 1.74933 0
M  V30 2791 H 275.956 3.8991 0.41385 0
M  V30 2792 H 277.446 3.93311 1.40344 0
M  V30 2793 N 277.883 0.443576 1.51229 0
M  V30 2794 C 279.13 -0.120796 2.02139 0
M  V30 2795 C 279.458 -1.42166 1.32736 0
M  V30 2796 O 278.713 -1.90849 0.43301 0
M  V30 2797 C 279.012 -0.380579 3.55368 0
M  V30 2798 C 278.678 0.83523 4.43097 0
M  V30 2799 C 277.34 1.16864 4.66794 0
M  V30 2800 C 279.692 1.64601 4.94526 0
M  V30 2801 C 277.02 2.31339 5.39165 0
M  V30 2802 C 279.372 2.78181 5.68153 0
M  V30 2803 C 278.036 3.11969 5.90112 0
M  V30 2804 H 277.306 -0.0442023 0.73968 0
M  V30 2805 H 279.953 0.592046 1.82118 0
M  V30 2806 H 278.258 -1.17538 3.73754 0
M  V30 2807 H 279.955 -0.830777 3.923 0
M  V30 2808 H 276.545 0.565437 4.24854 0
M  V30 2809 H 280.729 1.40163 4.76097 0
M  V30 2810 H 275.985 2.57823 5.5438 0
M  V30 2811 H 280.159 3.41371 6.06992 0
M  V30 2812 H 277.786 4.00784 6.45969 0
M  V30 2813 N 279.361 -1.56624 0.175154 0
M  V30 2814 C 280.608 -1.96999 -0.468811 0
M  V30 2815 C 280.936 -1.06129 -1.62994 0
M  V30 2816 O 280.191 -0.0961771 -1.95464 0
M  V30 2817 C 280.49 -3.43419 -0.989864 0
M  V30 2818 C 280.156 -4.50866 0.0557687 0
M  V30 2819 C 278.818 -4.79975 0.343134 0
M  V30 2820 C 281.17 -5.15551 0.765308 0
M  V30 2821 C 278.498 -5.71066 1.34536 0
M  V30 2822 C 280.85 -6.07724 1.75654 0
M  V30 2823 C 279.514 -6.35199 2.05132 0
M  V30 2824 H 278.784 -0.720869 -0.17155 0
M  V30 2825 H 281.431 -1.89616 0.267924 0
M  V30 2826 H 279.736 -3.47772 -1.80449 0
M  V30 2827 H 281.433 -3.72002 -1.49719 0
M  V30 2828 H 278.023 -4.28229 -0.178381 0
M  V30 2829 H 282.207 -4.9317 0.556513 0
M  V30 2830 H 277.463 -5.90635 1.57988 0
M  V30 2831 H 281.637 -6.56912 2.31169 0
M  V30 2832 H 279.264 -7.05584 2.8294 0
M  V30 2833 N 280.839 0.0985539 -1.57292 0
M  V30 2834 C 281.802 1.10402 -2.00858 0
M  V30 2835 C 282.802 1.33146 -0.901593 0
M  V30 2836 O 283.992 1.29318 -1.16716 0
M  V30 2837 C 281.124 2.45394 -2.36632 0
M  V30 2838 H 282.317 0.729099 -2.90902 0
M  V30 2839 H 279.87 0.343495 -1.52479 0
M  V30 2840 H 280.605 2.87769 -1.49531 0
M  V30 2841 H 280.39 2.30235 -3.17387 0
M  V30 2842 H 281.88 3.17718 -2.71007 0
M  V30 2843 N 282.317 1.53212 0.369288 0
M  V30 2844 C 283.542 1.73423 1.1375 0
M  V30 2845 C 283.967 0.460404 1.82378 0
M  V30 2846 O 283.325 -0.585298 1.71592 0
M  V30 2847 C 283.373 2.89769 2.1463 0
M  V30 2848 O 282.477 2.58119 3.21634 0
M  V30 2849 H 281.818 0.576061 0.330227 0
M  V30 2850 H 284.348 2.00083 0.427547 0
M  V30 2851 H 284.358 3.15829 2.58294 0
M  V30 2852 H 283.033 3.8217 1.64071 0
M  V30 2853 H 281.61 2.42864 2.82969 0
M  V30 2854 N 283.795 -0.628877 1.44509 0
M  V30 2855 C 284.742 -1.74074 1.51549 0
M  V30 2856 C 285.712 -1.62084 0.363021 0
M  V30 2857 O 286.897 -1.81975 0.573567 0
M  V30 2858 C 284.037 -3.12328 1.46784 0
M  V30 2859 C 283.15 -3.35277 2.72422 0
M  V30 2860 C 282.285 -4.63515 2.59475 0
M  V30 2861 C 281.324 -4.7965 3.80266 0
M  V30 2862 N 280.461 -5.99168 3.65981 0
M  V30 2863 H 285.301 -1.67392 2.46544 0
M  V30 2864 H 282.838 -0.816527 1.22357 0
M  V30 2865 H 284.796 -3.92286 1.42012 0
M  V30 2866 H 283.426 -3.18018 0.553544 0
M  V30 2867 H 282.478 -2.49242 2.87372 0
M  V30 2868 H 283.79 -3.43078 3.62076 0
M  V30 2869 H 282.944 -5.51638 2.52548 0
M  V30 2870 H 281.683 -4.58076 1.67384 0
M  V30 2871 H 280.688 -3.89957 3.87574 0
M  V30 2872 H 281.913 -4.86902 4.73395 0
M  V30 2873 H 279.859 -5.94814 2.76644 0
M  V30 2874 H 279.776 -6.08035 4.49254 0
M  V30 2875 H 281.044 -6.89846 3.6295 0
M  V30 2876 O 285.312 -1.41833 -0.772381 0
M  V30 2877 H 286.003 -1.31768 -1.41975 0
M  V30 END ATOM
M  V30 BEGIN BOND
M  V30 END BOND
M  V30 END CTAB
M  END
$$$$
