drugbank_target|Q92800 Histone-lysine N-methyltransferase EZH1 (DB12887)
 OpenBabel12092121213D

  0  0  0     0  0            999 V3000
M  V30 BEGIN CTAB
M  V30 COUNTS 11805 11939 0 0 0
M  V30 BEGIN ATOM
M  V30 1 H -0.908 1.98254 -0.117106 0
M  V30 2 N 0 1.576 0 0
M  V30 3 C 0.933 2.03868 1.02534 0
M  V30 4 C 1.911 0.928543 1.3348 0
M  V30 5 O 3.095 1.19667 1.45644 0
M  V30 6 C 0.222 2.43627 2.35294 0
M  V30 7 C -0.732 3.65373 2.2001 0
M  V30 8 S 0.101 5.13292 1.52614 0
M  V30 9 C 1.257 5.56322 2.86805 0
M  V30 10 H 1.49 2.90518 0.631377 0
M  V30 11 H -0.977 1.52953 0.210867 0
M  V30 12 H 0.981 2.67203 3.11629 0
M  V30 13 H -0.358 1.57376 2.7183 0
M  V30 14 H -1.165 3.90944 3.18086 0
M  V30 15 H -1.563 3.418 1.51819 0
M  V30 16 H 0.729 5.58782 3.83104 0
M  V30 17 H 1.672 6.56266 2.65933 0
M  V30 18 H 2.08 4.83886 2.90714 0
M  V30 19 N 1.4781 -0.272755 1.55222 0
M  V30 20 C 2.3881 -1.35918 1.91216 0
M  V30 21 C 3.4041 -1.54026 0.809436 0
M  V30 22 O 4.5801 -1.68148 1.10852 0
M  V30 23 C 1.6451 -2.69834 2.17693 0
M  V30 24 C 0.7061 -2.6047 3.41253 0
M  V30 25 C -0.0609 -3.88 3.66458 0
M  V30 26 O 0.1621 -4.88693 2.94169 0
M  V30 27 O -0.9039 -3.88189 4.59992 0
M  V30 28 H 2.9221 -1.0839 2.83699 0
M  V30 29 H 0.5071 -0.471301 1.41771 0
M  V30 30 H 2.3891 -3.49017 2.36147 0
M  V30 31 H 1.0641 -2.97148 1.28392 0
M  V30 32 H -0.0289 -1.79663 3.28134 0
M  V30 33 H 1.3041 -2.38106 4.30774 0
M  V30 34 N 2.9562 -1.48159 -0.537278 0
M  V30 35 C 4.2052 -1.5506 -1.28993 0
M  V30 36 C 4.5182 -0.226211 -1.94288 0
M  V30 37 O 5.7242 -0.173395 -2.70946 0
M  V30 38 C 4.1802 -2.73429 -2.34018 0
M  V30 39 C 3.7882 -4.1248 -1.74825 0
M  V30 40 C 5.5322 -2.89638 -3.10339 0
M  V30 41 C 3.4392 -5.22121 -2.77747 0
M  V30 42 H 2.3692 -0.577231 -0.485098 0
M  V30 43 H 5.0202 -1.74478 -0.568317 0
M  V30 44 H 3.4022 -2.47431 -3.09182 0
M  V30 45 H 4.5762 -4.48466 -1.05899 0
M  V30 46 H 2.8912 -4.01327 -1.11022 0
M  V30 47 H 5.4882 -3.68718 -3.87235 0
M  V30 48 H 5.8312 -1.9882 -3.65754 0
M  V30 49 H 6.3642 -3.15502 -2.42288 0
M  V30 50 H 3.1032 -6.1488 -2.27161 0
M  V30 51 H 2.6232 -4.90631 -3.45024 0
M  V30 52 H 4.3022 -5.49924 -3.4087 0
M  V30 53 N 4.4343 0.785586 -1.36625 0
M  V30 54 C 5.8453 1.36101 -1.27803 0
M  V30 55 C 6.1963 1.96035 0.0804875 0
M  V30 56 O 5.3213 1.92834 0.982042 0
M  V30 57 C 5.9163 2.47442 -2.31426 0
M  V30 58 C 4.4753 3.00789 -2.26281 0
M  V30 59 C 3.6223 1.73896 -2.15999 0
M  V30 60 H 6.5733 0.586928 -1.47448 0
M  V30 61 H 6.5943 3.2656 -1.95291 0
M  V30 62 H 6.1063 2.03791 -3.30289 0
M  V30 63 H 4.2073 3.48851 -1.30896 0
M  V30 64 H 4.3203 3.57343 -3.19128 0
M  V30 65 H 2.6843 1.9628 -1.62316 0
M  V30 66 H 3.4673 1.32368 -3.16755 0
M  V30 67 N 5.9124 1.20967 1.01018 0
M  V30 68 C 6.8604 0.961223 2.1181 0
M  V30 69 C 7.8544 -0.0897034 1.69162 0
M  V30 70 O 9.0604 0.0612271 1.79896 0
M  V30 71 H 5.4354 0.29355 0.692338 0
M  V30 72 H 7.4064 1.90178 2.29946 0
M  V30 73 C 6.1554 0.536854 3.4353 0
M  V30 74 H 5.4784 1.33713 3.76777 0
M  V30 75 H 6.9184 0.402286 4.22087 0
M  V30 76 C 5.3774 -0.751574 3.2841 0
M  V30 77 O 5.9074 -1.80841 3.58691 0
M  V30 78 N 4.1134 -0.716079 2.81639 0
M  V30 79 H 3.6604 0.144236 2.57196 0
M  V30 80 H 3.6184 -1.57847 2.71904 0
M  V30 81 N 7.3905 -1.2043 1.01659 0
M  V30 82 C 8.8015 -1.71517 0.737482 0
M  V30 83 C 9.1525 -1.81547 -0.743973 0
M  V30 84 O 8.2775 -1.47803 -1.58061 0
M  V30 85 C 8.8725 -3.11515 1.33206 0
M  V30 86 C 7.4315 -3.59912 1.10183 0
M  V30 87 C 6.5785 -2.37116 1.43776 0
M  V30 88 H 9.5295 -1.05444 1.18606 0
M  V30 89 H 9.5505 -3.73575 0.722636 0
M  V30 90 H 9.0625 -3.04182 2.41028 0
M  V30 91 H 7.1635 -3.72577 0.0412756 0
M  V30 92 H 7.2765 -4.44731 1.78188 0
M  V30 93 H 5.6405 -2.39857 0.856778 0
M  V30 94 H 6.4235 -2.32424 2.52654 0
M  V30 95 N 8.8686 -0.792821 -1.36206 0
M  V30 96 C 10.2796 -0.429513 -1.81692 0
M  V30 97 C 10.6306 1.04695 -1.65932 0
M  V30 98 O 9.7556 1.81256 -1.18218 0
M  V30 99 C 10.3506 -0.772831 -3.29868 0
M  V30 100 C 8.9096 -0.462307 -3.7355 0
M  V30 101 C 8.0566 -1.00569 -2.5842 0
M  V30 102 H 11.0076 -0.985672 -1.24379 0
M  V30 103 H 11.0286 -0.0651928 -3.80444 0
M  V30 104 H 10.5406 -1.84747 -3.41307 0
M  V30 105 H 8.6416 0.604158 -3.67669 0
M  V30 106 H 8.7546 -0.985299 -4.68859 0
M  V30 107 H 7.1186 -0.428734 -2.51066 0
M  V30 108 H 7.9016 -2.08616 -2.72643 0
M  V30 109 N 10.3467 1.47872 -0.545128 0
M  V30 110 C 11.5747 2.06889 -0.021084 0
M  V30 111 C 11.9897 1.39955 1.2672 0
M  V30 112 O 11.3467 0.492036 1.75742 0
M  V30 113 C 11.3977 3.60996 0.190817 0
M  V30 114 O 11.1187 4.25419 -1.04644 0
M  V30 115 C 12.6197 4.36849 0.753521 0
M  V30 116 H 9.8397 0.669785 -0.0403635 0
M  V30 117 H 12.3837 1.90049 -0.755095 0
M  V30 118 H 10.5387 3.77391 0.87492 0
M  V30 119 H 10.9527 5.17785 -0.836611 0
M  V30 120 H 12.4267 5.45399 0.851139 0
M  V30 121 H 12.9037 4.02306 1.762 0
M  V30 122 H 13.5097 4.25169 0.105503 0
M  V30 123 N 11.8248 0.280983 1.55075 0
M  V30 124 C 13.0498 -0.340154 2.04592 0
M  V30 125 C 13.4748 -1.48246 1.15779 0
M  V30 126 O 12.8328 -1.80614 0.15761 0
M  V30 127 C 12.8808 -0.793104 3.5177 0
M  V30 128 O 11.9848 -1.89981 3.66034 0
M  V30 129 H 11.3258 -0.0694289 0.66036 0
M  V30 130 H 13.8558 0.416993 2.00306 0
M  V30 131 H 13.8658 -1.08729 3.93245 0
M  V30 132 H 12.5408 0.0426163 4.15878 0
M  V30 133 H 11.1178 -1.60771 3.36463 0
M  V30 134 N 13.3029 -1.57598 0.00835791 0
M  V30 135 C 14.2499 -2.08945 -0.980346 0
M  V30 136 C 15.2199 -0.986738 -1.33614 0
M  V30 137 O 16.4049 -1.25968 -1.43306 0
M  V30 138 C 13.5449 -2.60425 -2.26435 0
M  V30 139 C 12.6579 -3.84628 -1.96685 0
M  V30 140 C 11.7929 -4.24579 -3.19228 0
M  V30 141 C 10.8319 -5.41596 -2.85202 0
M  V30 142 N 9.9689 -5.768 -4.00307 0
M  V30 143 H 14.8089 -2.93148 -0.535551 0
M  V30 144 H 12.3459 -1.44912 -0.252776 0
M  V30 145 H 14.3039 -2.88354 -3.01509 0
M  V30 146 H 12.9339 -1.79083 -2.68568 0
M  V30 147 H 11.9859 -3.63556 -1.11942 0
M  V30 148 H 13.2979 -4.69796 -1.67611 0
M  V30 149 H 12.4519 -4.53834 -4.02641 0
M  V30 150 H 11.1909 -3.38137 -3.51447 0
M  V30 151 H 10.1959 -5.12056 -2.00198 0
M  V30 152 H 11.4209 -6.29721 -2.54222 0
M  V30 153 H 9.3669 -4.93316 -4.32407 0
M  V30 154 H 9.2839 -6.5656 -3.74786 0
M  V30 155 H 10.5519 -6.10652 -4.84484 0
M  V30 156 N 14.781 0.264519 -1.55364 0
M  V30 157 C 16.021 1.00254 -1.78125 0
M  V30 158 C 16.385 1.83187 -0.575017 0
M  V30 159 O 17.586 2.60029 -0.681042 0
M  V30 160 C 15.857 1.85478 -3.05504 0
M  V30 161 S 17.416 2.6543 -3.49417 0
M  V30 162 H 14.234 0.337522 -0.625779 0
M  V30 163 H 16.836 0.272111 -1.93597 0
M  V30 164 H 15.54 1.23491 -3.9138 0
M  V30 165 H 15.071 2.62827 -2.92721 0
M  V30 166 H 17.086 3.87958 -3.09359 0
M  V30 167 N 16.2591 1.48442 0.529413 0
M  V30 168 C 17.5081 1.55742 1.28169 0
M  V30 169 C 17.8211 0.236511 1.94165 0
M  V30 170 O 19.0271 0.187761 2.7085 0
M  V30 171 C 17.4831 2.74667 2.32564 0
M  V30 172 C 17.0911 4.13402 1.72636 0
M  V30 173 C 18.8351 2.9128 3.08798 0
M  V30 174 C 16.7421 5.23587 2.74975 0
M  V30 175 H 15.6721 0.579796 0.48203 0
M  V30 176 H 18.3231 1.74776 0.559056 0
M  V30 177 H 16.7051 2.49067 3.07866 0
M  V30 178 H 17.8791 4.49022 1.03519 0
M  V30 179 H 16.1941 4.0191 1.08892 0
M  V30 180 H 18.7911 3.70767 3.85274 0
M  V30 181 H 19.1341 2.00757 3.64695 0
M  V30 182 H 19.6671 3.16782 2.40611 0
M  V30 183 H 16.4061 6.16076 2.23897 0
M  V30 184 H 15.9261 4.92454 3.42417 0
M  V30 185 H 17.6051 5.51724 3.37949 0
M  V30 186 N 17.7372 -0.778329 1.37039 0
M  V30 187 C 18.9652 -1.56734 1.35063 0
M  V30 188 C 19.3802 -1.88686 -0.0655597 0
M  V30 189 O 18.7372 -1.5096 -1.02554 0
M  V30 190 C 18.7882 -2.88163 2.18276 0
M  V30 191 O 18.5092 -2.57583 3.54376 0
M  V30 192 C 20.0102 -3.82422 2.24206 0
M  V30 193 H 17.2302 -0.485778 0.462883 0
M  V30 194 H 19.7742 -0.965185 1.8029 0
M  V30 195 H 17.9292 -3.44818 1.76576 0
M  V30 196 H 18.3432 -3.41699 3.97922 0
M  V30 197 H 19.8172 -4.71667 2.86765 0
M  V30 198 H 20.2942 -4.21078 1.24861 0
M  V30 199 H 20.9002 -3.31697 2.6619 0
M  V30 200 N 19.2153 -1.21501 -1.00376 0
M  V30 201 C 20.4453 -1.05746 -1.77486 0
M  V30 202 C 20.8533 0.395655 -1.85017 0
M  V30 203 O 20.1963 1.28626 -1.31152 0
M  V30 204 C 20.2583 -1.58092 -3.22873 0
M  V30 205 C 19.9223 -3.06568 -3.38917 0
M  V30 206 C 20.9193 -4.04106 -3.271 0
M  V30 207 C 18.6043 -3.45799 -3.64319 0
M  V30 208 C 20.5983 -5.38862 -3.40451 0
M  V30 209 C 18.2853 -4.80707 -3.77311 0
M  V30 210 C 19.2833 -5.77047 -3.65384 0
M  V30 211 O 18.9713 -7.09507 -3.77961 0
M  V30 212 H 18.7033 -0.371778 -0.564586 0
M  V30 213 H 21.2573 -1.61319 -1.27143 0
M  V30 214 H 19.4873 -0.969163 -3.74358 0
M  V30 215 H 21.1763 -1.38162 -3.81662 0
M  V30 216 H 21.9423 -3.75141 -3.07399 0
M  V30 217 H 17.8213 -2.71344 -3.72684 0
M  V30 218 H 21.3653 -6.14041 -3.31058 0
M  V30 219 H 17.2623 -5.09357 -3.96517 0
M  V30 220 H 18.0303 -7.16935 -3.94901 0
M  V30 221 N 20.6934 1.19889 -1.02296 0
M  V30 222 C 21.9394 1.89973 -0.726759 0
M  V30 223 C 22.2944 1.7776 0.73614 0
M  V30 224 O 21.5874 1.15523 1.52856 0
M  V30 225 C 21.7814 3.39883 -1.10518 0
M  V30 226 C 21.6104 3.66684 -2.60332 0
M  V30 227 C 20.3804 3.85045 -3.27213 0
M  V30 228 C 22.5784 3.68727 -3.58532 0
M  V30 229 N 20.5604 3.99422 -4.66192 0
M  V30 230 C 21.9314 3.88604 -4.83101 0
M  V30 231 C 23.9864 3.51722 -3.52414 0
M  V30 232 C 22.6894 3.9324 -6.02292 0
M  V30 233 C 24.7154 3.57632 -4.71013 0
M  V30 234 C 24.0774 3.77988 -5.94394 0
M  V30 235 H 20.1764 0.714551 -0.317712 0
M  V30 236 H 22.7604 1.44123 -1.30907 0
M  V30 237 H 20.9314 3.8447 -0.551142 0
M  V30 238 H 22.6634 3.97464 -0.761853 0
M  V30 239 H 19.4184 3.83689 -2.77632 0
M  V30 240 H 19.8424 4.10473 -5.38368 0
M  V30 241 H 24.4844 3.34945 -2.58015 0
M  V30 242 H 22.2024 4.08811 -6.97065 0
M  V30 243 H 25.7884 3.45773 -4.67902 0
M  V30 244 H 24.6684 3.82428 -6.8463 0
M  V30 245 N 22.1715 0.800033 1.35784 0
M  V30 246 C 23.1185 0.203848 2.29898 0
M  V30 247 C 24.0885 -0.658375 1.52495 0
M  V30 248 O 25.2735 -0.604832 1.8096 0
M  V30 249 C 22.4135 -0.64688 3.38983 0
M  V30 250 C 21.5265 0.235054 4.3136 0
M  V30 251 C 20.6615 -0.623054 5.27533 0
M  V30 252 C 19.7005 0.259682 6.11549 0
M  V30 253 N 18.8375 -0.558019 6.99879 0
M  V30 254 H 23.6775 1.01186 2.80295 0
M  V30 255 H 21.2145 0.51053 1.37957 0
M  V30 256 H 23.1725 -1.15521 4.00887 0
M  V30 257 H 21.8025 -1.42021 2.89879 0
M  V30 258 H 20.8545 0.861438 3.70518 0
M  V30 259 H 22.1665 0.914768 4.9034 0
M  V30 260 H 21.3205 -1.19678 5.94779 0
M  V30 261 H 20.0595 -1.33636 4.69034 0
M  V30 262 H 19.0645 0.845726 5.43256 0
M  V30 263 H 20.2895 0.970748 6.72126 0
M  V30 264 H 18.2355 -1.25542 6.43875 0
M  V30 265 H 18.1525 0.0637872 7.55973 0
M  V30 266 H 19.4205 -1.11523 7.71481 0
M  V30 267 N 23.6496 -1.47581 0.552962 0
M  V30 268 C 25.0656 -1.5818 0.212424 0
M  V30 269 C 25.2656 -1.55213 -1.28496 0
M  V30 270 O 24.3216 -1.45329 -2.06484 0
M  V30 271 C 25.6346 -2.88865 0.835318 0
M  V30 272 C 27.1826 -3.0244 0.806156 0
M  V30 273 C 27.6576 -4.35819 1.40804 0
M  V30 274 N 29.1486 -4.42444 1.37103 0
M  V30 275 C 29.8836 -5.44202 1.80641 0
M  V30 276 N 29.3796 -6.52795 2.32015 0
M  V30 277 N 31.1726 -5.35222 1.71738 0
M  V30 278 H 23.3236 -1.47753 1.52587 0
M  V30 279 H 25.5866 -0.702941 0.636064 0
M  V30 280 H 25.2926 -2.9676 1.88749 0
M  V30 281 H 25.1666 -3.7579 0.325848 0
M  V30 282 H 27.5536 -2.94144 -0.237317 0
M  V30 283 H 27.6346 -2.17068 1.35334 0
M  V30 284 H 27.2786 -4.44871 2.45056 0
M  V30 285 H 27.2086 -5.19916 0.836338 0
M  V30 286 H 29.6996 -3.6456 0.995202 0
M  V30 287 H 30.0126 -7.26609 2.63171 0
M  V30 288 H 28.3576 -6.53696 2.36023 0
M  V30 289 H 31.5486 -4.49284 1.31382 0
M  V30 290 H 31.7216 -6.14389 2.05987 0
M  V30 291 N 25.1277 -0.289203 -1.54924 0
M  V30 292 C 26.0747 0.592115 -2.23075 0
M  V30 293 C 27.0447 1.13881 -1.20915 0
M  V30 294 O 28.2297 1.18551 -1.495 0
M  V30 295 C 25.3697 1.76376 -2.96623 0
M  V30 296 C 24.4827 1.24959 -4.13533 0
M  V30 297 C 23.6177 2.38416 -4.74691 0
M  V30 298 C 22.6567 1.84072 -5.83767 0
M  V30 299 N 21.7937 2.91057 -6.38929 0
M  V30 300 H 26.6337 0.00432038 -2.98 0
M  V30 301 H 24.1707 -0.00963529 -1.47097 0
M  V30 302 H 26.1287 2.45268 -3.3749 0
M  V30 303 H 24.7587 2.32337 -2.24097 0
M  V30 304 H 23.8107 0.453307 -3.77689 0
M  V30 305 H 25.1227 0.811662 -4.92152 0
M  V30 306 H 24.2767 3.15276 -5.18349 0
M  V30 307 H 23.0157 2.8553 -3.95378 0
M  V30 308 H 22.0207 1.05697 -5.39545 0
M  V30 309 H 23.2457 1.37877 -6.64956 0
M  V30 310 H 21.1917 3.37526 -5.62505 0
M  V30 311 H 21.1087 2.51724 -7.12861 0
M  V30 312 H 22.3767 3.6785 -6.87246 0
M  V30 313 N 26.6058 1.57591 -0.0167156 0
M  V30 314 C 27.8518 1.91567 0.665582 0
M  V30 315 C 28.1848 0.892298 1.72487 0
M  V30 316 O 27.4598 -0.0867127 1.94307 0
M  V30 317 C 27.7428 3.36069 1.29342 0
M  V30 318 C 27.5958 4.49135 0.244541 0
M  V30 319 C 28.9148 3.803 2.21495 0
M  V30 320 H 26.0338 0.69666 0.240488 0
M  V30 321 H 28.6758 1.89866 -0.0714356 0
M  V30 322 H 26.8258 3.3765 1.92158 0
M  V30 323 H 28.4978 4.59689 -0.385228 0
M  V30 324 H 26.7408 4.3165 -0.431379 0
M  V30 325 H 27.4118 5.47242 0.723207 0
M  V30 326 H 29.8878 3.80377 1.68678 0
M  V30 327 H 28.7638 4.82127 2.62382 0
M  V30 328 H 29.0248 3.15104 3.101 0
M  V30 329 N 28.0839 -0.256276 1.55502 0
M  V30 330 C 29.0309 -1.31714 1.89526 0
M  V30 331 C 30.0009 -1.4828 0.748479 0
M  V30 332 O 31.1859 -1.62416 1.00128 0
M  V30 333 C 28.3259 -2.66933 2.18725 0
M  V30 334 C 27.4389 -2.58452 3.4616 0
M  V30 335 C 26.5739 -3.85961 3.64976 0
M  V30 336 C 25.6129 -3.72059 4.86044 0
M  V30 337 N 24.7499 -4.9144 5.01429 0
M  V30 338 H 29.5899 -1.01998 2.80001 0
M  V30 339 H 27.1269 -0.492413 1.38613 0
M  V30 340 H 29.0849 -3.4563 2.33657 0
M  V30 341 H 27.7149 -2.94816 1.31466 0
M  V30 342 H 26.7669 -1.71374 3.3961 0
M  V30 343 H 28.0789 -2.44085 4.34999 0
M  V30 344 H 27.2329 -4.73101 3.79816 0
M  V30 345 H 25.9719 -4.03215 2.74353 0
M  V30 346 H 24.9769 -2.83302 4.7119 0
M  V30 347 H 26.2019 -3.56309 5.78118 0
M  V30 348 H 24.1479 -5.09072 4.13741 0
M  V30 349 H 24.0649 -4.79668 5.84341 0
M  V30 350 H 25.3329 -5.80104 5.20672 0
M  V30 351 N 29.562 -1.4872 -0.521534 0
M  V30 352 C 30.787 -1.61101 -1.30618 0
M  V30 353 C 31.212 -0.274611 -1.86085 0
M  V30 354 O 30.57 0.754937 -1.64834 0
M  V30 355 C 30.618 -2.66709 -2.4269 0
M  V30 356 O 29.722 -2.24456 -3.45967 0
M  V30 357 H 29.063 -0.539921 -0.386499 0
M  V30 358 H 31.593 -1.94767 -0.626645 0
M  V30 359 H 31.603 -2.88245 -2.88754 0
M  V30 360 H 30.278 -3.63727 -2.01682 0
M  V30 361 H 28.855 -2.13168 -3.05964 0
M  V30 362 N 31.0401 0.771051 -1.3745 0
M  V30 363 C 31.9501 1.91538 -1.35464 0
M  V30 364 C 32.9661 1.72134 -0.254123 0
M  V30 365 O 34.1421 1.95358 -0.489626 0
M  V30 366 C 31.2071 3.26671 -1.16134 0
M  V30 367 C 30.2681 3.58723 -2.35831 0
M  V30 368 C 29.5011 4.87409 -2.17413 0
M  V30 369 O 29.7241 5.58506 -1.15876 0
M  V30 370 O 28.6581 5.18539 -3.05615 0
M  V30 371 H 32.4841 1.96165 -2.31847 0
M  V30 372 H 30.0691 0.9139 -1.18187 0
M  V30 373 H 31.9511 4.07499 -1.07345 0
M  V30 374 H 30.6261 3.22894 -0.228251 0
M  V30 375 H 29.5331 2.78127 -2.50192 0
M  V30 376 H 30.8661 3.67243 -3.27709 0
M  V30 377 N 32.5182 1.22032 0.997298 0
M  V30 378 C 33.7482 1.06686 1.76923 0
M  V30 379 C 34.1562 -0.385838 1.85224 0
M  V30 380 O 33.4992 -1.27929 1.31833 0
M  V30 381 C 33.5612 1.59802 3.22031 0
M  V30 382 C 33.2252 3.08362 3.37286 0
M  V30 383 C 34.2222 4.05835 3.24952 0
M  V30 384 C 31.9072 3.47727 3.6248 0
M  V30 385 C 33.9012 5.4066 3.37588 0
M  V30 386 C 31.5882 4.82701 3.74757 0
M  V30 387 C 32.5862 5.78977 3.62319 0
M  V30 388 O 32.2742 7.11502 3.74193 0
M  V30 389 H 32.0062 0.374767 0.562606 0
M  V30 390 H 34.5602 1.61991 1.26286 0
M  V30 391 H 32.7902 0.989003 3.73839 0
M  V30 392 H 34.4792 1.40184 3.80924 0
M  V30 393 H 35.2452 3.76766 3.05405 0
M  V30 394 H 31.1242 2.73317 3.7124 0
M  V30 395 H 34.6682 6.15788 3.27796 0
M  V30 396 H 30.5652 5.11453 3.9381 0
M  V30 397 H 31.3332 7.19019 3.91093 0
M  V30 398 N 33.9963 -1.19345 1.0293 0
M  V30 399 C 34.9293 -2.21347 0.555029 0
M  V30 400 C 35.9073 -1.57492 -0.404351 0
M  V30 401 O 37.0913 -1.85741 -0.321352 0
M  V30 402 C 34.2183 -3.38163 -0.19064 0
M  V30 403 C 33.2643 -4.20375 0.720236 0
M  V30 404 S 34.0973 -4.88371 2.19668 0
M  V30 405 C 35.2533 -6.08597 1.46153 0
M  V30 406 H 35.4863 -2.61235 1.41929 0
M  V30 407 H 33.0193 -1.29598 0.839272 0
M  V30 408 H 34.9773 -4.05871 -0.614724 0
M  V30 409 H 33.6383 -2.9671 -1.03063 0
M  V30 410 H 32.8313 -5.03793 0.14455 0
M  V30 411 H 32.4333 -3.57987 1.08266 0
M  V30 412 H 34.7253 -6.73354 0.748357 0
M  V30 413 H 35.6683 -6.7065 2.27233 0
M  V30 414 H 36.0763 -5.56297 0.958842 0
M  V30 415 N 35.4744 -0.807222 -1.35358 0
M  V30 416 C 36.8904 -0.491038 -1.51858 0
M  V30 417 C 37.0904 0.987648 -1.75635 0
M  V30 418 O 36.1464 1.77265 -1.79815 0
M  V30 419 C 37.4594 -1.33695 -2.69344 0
M  V30 420 C 39.0074 -1.33246 -2.83222 0
M  V30 421 C 39.4824 -2.1625 -4.03733 0
M  V30 422 N 40.9734 -2.1379 -4.10911 0
M  V30 423 C 41.7084 -2.74772 -5.03277 0
M  V30 424 N 41.2044 -3.44684 -6.0097 0
M  V30 425 N 42.9974 -2.6441 -4.96028 0
M  V30 426 H 35.1484 -1.76485 -1.18181 0
M  V30 427 H 37.4114 -0.751199 -0.578276 0
M  V30 428 H 37.1174 -2.38634 -2.58354 0
M  V30 429 H 36.9914 -0.990618 -3.6396 0
M  V30 430 H 39.3784 -0.290911 -2.93663 0
M  V30 431 H 39.4594 -1.71866 -1.89461 0
M  V30 432 H 39.1034 -3.20445 -3.94052 0
M  V30 433 H 39.0334 -1.74989 -4.96675 0
M  V30 434 H 41.5244 -1.62923 -3.40976 0
M  V30 435 H 41.8374 -3.88501 -6.68047 0
M  V30 436 H 40.1824 -3.48788 -6.01142 0
M  V30 437 H 43.3734 -2.0938 -4.18662 0
M  V30 438 H 43.5464 -3.12225 -5.6782 0
M  V30 439 N 36.9525 1.47285 -0.560781 0
M  V30 440 C 37.8825 2.32857 0.173105 0
M  V30 441 C 38.8635 1.44009 0.905281 0
M  V30 442 O 40.0485 1.7286 0.885046 0
M  V30 443 C 37.1785 3.25861 1.20133 0
M  V30 444 C 36.1325 4.23978 0.585388 0
M  V30 445 C 35.4585 5.06332 1.7185 0
M  V30 446 C 36.7585 5.20242 -0.463178 0
M  V30 447 H 38.4525 2.94466 -0.541307 0
M  V30 448 H 35.9985 1.41601 -0.261764 0
M  V30 449 H 37.9515 3.84569 1.72293 0
M  V30 450 H 36.6755 2.62315 1.94573 0
M  V30 451 H 35.3345 3.66501 0.085054 0
M  V30 452 H 34.9825 4.39186 2.45203 0
M  V30 453 H 34.6825 5.72762 1.31213 0
M  V30 454 H 36.2065 5.67899 2.24329 0
M  V30 455 H 37.6205 5.73293 -0.027502 0
M  V30 456 H 36.0175 5.94896 -0.788627 0
M  V30 457 H 37.0875 4.65504 -1.35773 0
M  V30 458 N 38.4306 0.297415 1.54768 0
M  V30 459 C 39.8466 -0.0560823 1.59501 0
M  V30 460 C 40.0466 -1.52725 1.31444 0
M  V30 461 O 39.1026 -2.27947 1.08611 0
M  V30 462 C 40.4156 0.338631 2.98787 0
M  V30 463 C 41.9636 0.287097 3.11681 0
M  V30 464 C 42.4386 0.656579 4.53269 0
M  V30 465 N 43.9296 0.608977 4.59179 0
M  V30 466 C 44.6646 0.867385 5.66802 0
M  V30 467 N 44.1606 1.19157 6.82476 0
M  V30 468 N 45.9536 0.794687 5.56454 0
M  V30 469 H 38.1046 1.25624 1.71267 0
M  V30 470 H 40.3676 0.509057 0.799728 0
M  V30 471 H 40.0736 1.36263 3.2423 0
M  V30 472 H 39.9476 -0.309508 3.75928 0
M  V30 473 H 42.3346 -0.727649 2.85988 0
M  V30 474 H 42.4156 0.969809 2.36703 0
M  V30 475 H 42.0596 1.66912 4.7969 0
M  V30 476 H 41.9896 -0.0481649 5.26578 0
M  V30 477 H 44.4806 0.369198 3.76092 0
M  V30 478 H 44.7936 1.37482 7.60473 0
M  V30 479 H 43.1386 1.22958 6.84037 0
M  V30 480 H 46.3296 0.541098 4.64962 0
M  V30 481 H 46.5026 0.999445 6.40246 0
M  V30 482 N 39.9087 -1.5758 0.0250728 0
M  V30 483 C 40.8407 -2.06869 -0.986796 0
M  V30 484 C 41.8537 -0.991332 -1.29137 0
M  V30 485 O 43.0427 -1.26761 -1.25674 0
M  V30 486 C 40.1427 -2.47486 -2.31525 0
M  V30 487 C 39.3157 -3.78253 -2.19643 0
M  V30 488 C 38.3747 -4.05464 -3.35388 0
M  V30 489 O 37.4007 -4.75774 -3.12454 0
M  V30 490 N 38.6027 -3.55321 -4.59051 0
M  V30 491 H 41.3677 -2.94302 -0.566276 0
M  V30 492 H 38.9287 -1.6109 -0.161776 0
M  V30 493 H 40.9207 -2.62785 -3.07776 0
M  V30 494 H 39.4907 -1.65441 -2.65232 0
M  V30 495 H 38.7107 -3.7279 -1.28144 0
M  V30 496 H 39.9987 -4.63936 -2.08903 0
M  V30 497 H 39.3967 -2.98431 -4.80578 0
M  V30 498 H 37.9537 -3.75905 -5.32483 0
M  V30 499 N 41.3868 0.248026 -1.55636 0
M  V30 500 C 42.3168 1.31079 -1.93237 0
M  V30 501 C 43.2978 1.50264 -0.797174 0
M  V30 502 O 44.4828 1.62891 -1.05737 0
M  V30 503 C 41.6128 2.66575 -2.22609 0
M  V30 504 C 40.5668 2.62087 -3.3837 0
M  V30 505 C 39.8928 4.01369 -3.53281 0
M  V30 506 C 41.1928 2.19171 -4.7409 0
M  V30 507 H 42.8868 0.998556 -2.82257 0
M  V30 508 H 40.4328 0.47891 -1.35803 0
M  V30 509 H 42.3858 3.41057 -2.47503 0
M  V30 510 H 41.1098 2.99432 -1.30414 0
M  V30 511 H 39.7688 1.90063 -3.13483 0
M  V30 512 H 39.4168 4.31489 -2.58508 0
M  V30 513 H 39.1168 3.99254 -4.31127 0
M  V30 514 H 40.6408 4.77552 -3.80495 0
M  V30 515 H 42.0548 2.83384 -4.98363 0
M  V30 516 H 40.4518 2.2817 -5.5503 0
M  V30 517 H 41.5218 1.14336 -4.71227 0
M  V30 518 N 42.8649 1.48995 0.513639 0
M  V30 519 C 43.8119 1.6473 1.61656 0
M  V30 520 C 44.7819 0.488984 1.58739 0
M  V30 521 O 45.9669 0.714478 1.76918 0
M  V30 522 C 43.1069 1.7082 2.99858 0
M  V30 523 C 42.2199 2.9787 3.12885 0
M  V30 524 C 41.3549 2.95017 4.41744 0
M  V30 525 C 40.3939 4.16702 4.48359 0
M  V30 526 N 39.5309 4.11832 5.68629 0
M  V30 527 H 44.3709 2.58909 1.47547 0
M  V30 528 H 41.9079 1.28382 0.71808 0
M  V30 529 H 43.8659 1.72331 3.79944 0
M  V30 530 H 42.4959 0.801181 3.12699 0
M  V30 531 H 41.5479 3.06029 2.25944 0
M  V30 532 H 42.8599 3.8786 3.13633 0
M  V30 533 H 42.0139 2.95021 5.30139 0
M  V30 534 H 40.7529 2.02784 4.43542 0
M  V30 535 H 39.7579 4.16955 3.58369 0
M  V30 536 H 40.9829 5.10113 4.48287 0
M  V30 537 H 38.9289 3.22428 5.71293 0
M  V30 538 H 38.8459 4.95543 5.7094 0
M  V30 539 H 40.1139 4.1592 6.59266 0
M  V30 540 N 44.343 -0.763751 1.37857 0
M  V30 541 C 45.759 -1.06542 1.18832 0
M  V30 542 C 45.959 -2.01478 0.0299722 0
M  V30 543 O 45.015 -2.4458 -0.627447 0
M  V30 544 C 46.328 -1.65525 2.51042 0
M  V30 545 C 47.876 -1.77745 2.57635 0
M  V30 546 C 48.351 -2.4014 3.89996 0
M  V30 547 N 49.842 -2.47582 3.91481 0
M  V30 548 C 50.577 -2.96732 4.9065 0
M  V30 549 N 50.073 -3.45993 6.00217 0
M  V30 550 N 51.866 -2.95679 4.78048 0
M  V30 551 H 44.017 -0.133556 2.1198 0
M  V30 552 H 46.28 -0.121879 0.940133 0
M  V30 553 H 45.986 -1.03236 3.36207 0
M  V30 554 H 45.86 -2.64719 2.68707 0
M  V30 555 H 48.247 -2.39164 1.72872 0
M  V30 556 H 48.328 -0.772836 2.43846 0
M  V30 557 H 47.972 -1.79358 4.75177 0
M  V30 558 H 47.902 -3.41223 4.01092 0
M  V30 559 H 50.393 -2.1273 3.12337 0
M  V30 560 H 50.706 -3.81922 6.7183 0
M  V30 561 H 49.051 -3.44077 6.03851 0
M  V30 562 H 52.242 -2.56499 3.91568 0
M  V30 563 H 52.415 -3.33672 5.55488 0
M  V30 564 N 45.8211 -1.22559 -0.990812 0
M  V30 565 C 46.7511 -1.0218 -2.09956 0
M  V30 566 C 47.7321 0.0579394 -1.70001 0
M  V30 567 O 48.9171 -0.104684 -1.93918 0
M  V30 568 C 46.0471 -0.601023 -3.4206 0
M  V30 569 C 45.0011 -1.62694 -3.95872 0
M  V30 570 C 44.3271 -1.06193 -5.24049 0
M  V30 571 C 45.6271 -3.01743 -4.2632 0
M  V30 572 H 47.3211 -1.94916 -2.27262 0
M  V30 573 H 44.8671 -0.938566 -1.09211 0
M  V30 574 H 46.8201 -0.445561 -4.19038 0
M  V30 575 H 45.5441 0.362005 -3.24588 0
M  V30 576 H 44.2031 -1.77021 -3.21028 0
M  V30 577 H 43.8511 -0.0901903 -5.02919 0
M  V30 578 H 43.5511 -1.74732 -5.61019 0
M  V30 579 H 45.0751 -0.918092 -6.03658 0
M  V30 580 H 46.4891 -2.90777 -4.94087 0
M  V30 581 H 44.8861 -3.67425 -4.74467 0
M  V30 582 H 45.9561 -3.51518 -3.34011 0
M  V30 583 N 47.2992 1.18797 -1.03562 0
M  V30 584 C 48.2312 2.21731 -0.580337 0
M  V30 585 C 49.2442 1.59051 0.347349 0
M  V30 586 O 50.4332 1.77929 0.142669 0
M  V30 587 C 47.5332 3.38459 0.172805 0
M  V30 588 C 46.7062 4.3072 -0.761496 0
M  V30 589 C 45.7652 5.26174 -0.0525547 0
M  V30 590 O 44.7912 5.65108 -0.681333 0
M  V30 591 N 45.9932 5.67624 1.21586 0
M  V30 592 H 48.7582 2.61417 -1.46565 0
M  V30 593 H 46.3192 1.33531 -0.915476 0
M  V30 594 H 48.3112 3.99335 0.656793 0
M  V30 595 H 46.8812 2.97507 0.959602 0
M  V30 596 H 46.1012 3.67525 -1.42544 0
M  V30 597 H 47.3892 4.89267 -1.39626 0
M  V30 598 H 46.7872 5.38038 1.74732 0
M  V30 599 H 45.3442 6.30721 1.64421 0
M  V30 600 N 48.7773 0.814389 1.34928 0
M  V30 601 C 49.7403 0.235759 2.27984 0
M  V30 602 C 50.7403 -0.581412 1.49921 0
M  V30 603 O 51.9303 -0.398758 1.69575 0
M  V30 604 C 49.0623 -0.670433 3.34242 0
M  V30 605 H 50.2553 1.05659 2.80671 0
M  V30 606 H 47.8083 0.585614 1.44915 0
M  V30 607 H 48.5433 -1.51466 2.86755 0
M  V30 608 H 48.3283 -0.0860822 3.92005 0
M  V30 609 H 49.8183 -1.06935 4.03676 0
M  V30 610 N 50.2554 -1.46986 0.568584 0
M  V30 611 C 51.2034 -2.31858 -0.185649 0
M  V30 612 C 52.1974 -1.43624 -0.898249 0
M  V30 613 O 53.4034 -1.60327 -0.818242 0
M  V30 614 H 49.7784 -0.747866 -0.0787399 0
M  V30 615 H 51.7494 -2.93303 0.549191 0
M  V30 616 C 50.4984 -3.26513 -1.19519 0
M  V30 617 H 49.8214 -3.94377 -0.656285 0
M  V30 618 H 51.2614 -3.88707 -1.6936 0
M  V30 619 C 49.7204 -2.50847 -2.24894 0
M  V30 620 O 50.2504 -2.26119 -3.32014 0
M  V30 621 N 48.4564 -2.11656 -1.99124 0
M  V30 622 H 48.0034 -2.31966 -1.12024 0
M  V30 623 H 47.9614 -1.61347 -2.69842 0
M  V30 624 N 51.7335 -0.305618 -1.54608 0
M  V30 625 C 52.6665 0.610536 -2.19881 0
M  V30 626 C 53.6445 1.1294 -1.16976 0
M  V30 627 O 54.8285 1.19673 -1.45638 0
M  V30 628 C 51.9555 1.83583 -2.84631 0
M  V30 629 C 51.0015 1.4498 -4.01102 0
M  V30 630 S 51.8345 0.501793 -5.33144 0
M  V30 631 C 52.9905 1.73478 -6.01379 0
M  V30 632 H 53.2235 0.0560177 -2.97247 0
M  V30 633 H 50.7565 -0.0897434 -1.54139 0
M  V30 634 H 52.7145 2.53898 -3.22562 0
M  V30 635 H 51.3755 2.36152 -2.07102 0
M  V30 636 H 50.5685 2.36236 -4.45206 0
M  V30 637 H 50.1705 0.826553 -3.64752 0
M  V30 638 H 52.4625 2.67473 -6.22467 0
M  V30 639 H 53.4055 1.33622 -6.95378 0
M  V30 640 H 53.8135 1.9136 -5.31076 0
M  V30 641 N 53.2116 1.57565 -0.0334293 0
M  V30 642 C 54.4596 1.91598 0.642999 0
M  V30 643 C 54.7806 0.910847 1.7242 0
M  V30 644 O 54.0506 -0.0469931 1.95844 0
M  V30 645 H 52.6306 0.707228 0.240496 0
M  V30 646 H 55.2926 1.94726 -0.0822488 0
M  V30 647 H 54.3886 2.92336 1.09298 0
M  V30 648 N 54.6897 -0.239769 1.55765 0
M  V30 649 C 55.6527 -1.28038 1.90103 0
M  V30 650 C 56.6527 -1.40723 0.778055 0
M  V30 651 O 57.8427 -1.39301 1.04599 0
M  V30 652 C 54.9747 -2.65702 2.13577 0
M  V30 653 H 56.1677 -0.988048 2.83157 0
M  V30 654 H 53.7207 -0.479382 1.48767 0
M  V30 655 H 54.4557 -3.00063 1.23015 0
M  V30 656 H 54.2407 -2.57875 2.95369 0
M  V30 657 H 55.7307 -3.40828 2.41301 0
M  V30 658 N 56.1678 -1.49265 -0.50573 0
M  V30 659 C 57.1148 -1.65585 -1.6078 0
M  V30 660 C 58.0848 -0.497396 -1.58478 0
M  V30 661 O 59.2698 -0.72385 -1.76536 0
M  V30 662 C 56.4098 -1.72408 -2.98948 0
M  V30 663 C 55.5228 -2.99525 -3.11301 0
M  V30 664 C 54.6578 -2.97356 -4.40174 0
M  V30 665 C 53.6968 -4.19074 -4.46143 0
M  V30 666 N 52.8338 -4.14841 -5.66437 0
M  V30 667 H 57.6738 -2.59688 -1.46172 0
M  V30 668 H 55.2108 -1.28761 -0.711261 0
M  V30 669 H 57.1688 -1.74344 -3.79025 0
M  V30 670 H 55.7988 -0.817753 -3.1227 0
M  V30 671 H 54.8508 -3.07222 -2.24318 0
M  V30 672 H 56.1628 -3.89518 -3.11572 0
M  V30 673 H 55.3168 -2.97829 -5.28567 0
M  V30 674 H 54.0558 -2.05133 -4.42461 0
M  V30 675 H 53.0608 -4.1885 -3.56153 0
M  V30 676 H 54.2858 -5.12483 -4.45575 0
M  V30 677 H 52.2318 -3.25453 -5.69575 0
M  V30 678 H 52.1488 -4.98564 -5.68304 0
M  V30 679 H 53.4168 -4.1941 -6.57051 0
M  V30 680 N 57.6459 0.756429 -1.3826 0
M  V30 681 C 58.6089 1.85176 -1.35065 0
M  V30 682 C 59.6089 1.58818 -0.251703 0
M  V30 683 O 60.7989 1.66615 -0.508433 0
M  V30 684 C 57.9309 3.22596 -1.10201 0
M  V30 685 H 59.1239 1.89417 -2.3251 0
M  V30 686 H 56.6769 0.95783 -1.23512 0
M  V30 687 H 57.4119 3.24025 -0.133504 0
M  V30 688 H 57.1969 3.43122 -1.89762 0
M  V30 689 H 58.6869 4.02673 -1.10654 0
M  V30 690 N 59.124 1.23083 0.984299 0
M  V30 691 C 60.054 1.03292 2.09411 0
M  V30 692 C 61.035 -0.048923 1.7003 0
M  V30 693 O 62.22 0.114967 1.93859 0
M  V30 694 C 59.35 0.619155 3.41736 0
M  V30 695 C 58.304 1.64791 3.95004 0
M  V30 696 C 57.63 1.0897 5.23478 0
M  V30 697 C 58.93 3.03999 4.24714 0
M  V30 698 H 60.624 1.96119 2.26225 0
M  V30 699 H 58.17 0.944344 1.08711 0
M  V30 700 H 60.123 0.467777 4.18796 0
M  V30 701 H 58.847 -0.344786 3.24775 0
M  V30 702 H 57.506 1.78721 3.20085 0
M  V30 703 H 57.154 0.11686 5.02864 0
M  V30 704 H 56.854 1.77704 5.60085 0
M  V30 705 H 58.378 0.950093 6.03163 0
M  V30 706 H 59.792 2.93393 4.92538 0
M  V30 707 H 58.189 3.69936 4.72512 0
M  V30 708 H 59.259 3.53285 3.32142 0
M  V30 709 N 60.6021 -1.18246 1.0419 0
M  V30 710 C 61.8321 -1.91916 0.764961 0
M  V30 711 C 62.2401 -1.76485 -0.681898 0
M  V30 712 O 61.5831 -1.09275 -1.47664 0
M  V30 713 C 61.6451 -3.4373 1.05309 0
M  V30 714 C 61.3091 -3.8294 2.4941 0
M  V30 715 C 62.3061 -3.86621 3.47592 0
M  V30 716 C 59.9911 -4.142 2.84155 0
M  V30 717 C 61.9851 -4.21013 4.78568 0
M  V30 718 C 59.6721 -4.48262 4.15337 0
M  V30 719 C 60.6701 -4.51645 5.12353 0
M  V30 720 O 60.3581 -4.84911 6.41183 0
M  V30 721 H 60.0901 -0.61606 0.278292 0
M  V30 722 H 62.6441 -1.50947 1.39299 0
M  V30 723 H 60.8741 -3.84946 0.367933 0
M  V30 724 H 62.5631 -3.9865 0.763752 0
M  V30 725 H 63.3291 -3.62607 3.22089 0
M  V30 726 H 59.2081 -4.10743 2.09311 0
M  V30 727 H 62.7521 -4.23568 5.54289 0
M  V30 728 H 58.6491 -4.71737 4.40607 0
M  V30 729 H 59.4171 -5.02809 6.45852 0
M  V30 730 N 62.0802 -0.821533 -1.34494 0
M  V30 731 C 63.3262 -0.409552 -1.98622 0
M  V30 732 C 63.6592 1.0244 -1.64984 0
M  V30 733 O 62.9342 1.71325 -0.920758 0
M  V30 734 C 63.2172 -0.610458 -3.54888 0
M  V30 735 C 63.0702 -2.09043 -3.98273 0
M  V30 736 C 64.3892 -0.0455379 -4.40076 0
M  V30 737 H 61.5082 -0.15028 -0.721516 0
M  V30 738 H 64.1502 -1.03384 -1.59411 0
M  V30 739 H 62.3002 -0.079044 -3.8842 0
M  V30 740 H 63.9722 -2.68537 -3.75081 0
M  V30 741 H 62.2152 -2.58139 -3.48635 0
M  V30 742 H 62.8862 -2.18182 -5.07051 0
M  V30 743 H 65.3622 -0.499557 -4.1309 0
M  V30 744 H 64.2382 -0.215922 -5.48475 0
M  V30 745 H 64.4992 1.04939 -4.29465 0
M  V30 746 N 63.5583 1.46682 -0.576371 0
M  V30 747 C 64.5213 2.28707 0.150239 0
M  V30 748 C 65.5213 1.38035 0.824794 0
M  V30 749 O 66.7113 1.60476 0.677719 0
M  V30 750 C 63.8433 3.18248 1.22192 0
M  V30 751 H 65.0363 2.94423 -0.570521 0
M  V30 752 H 62.5893 1.52688 -0.334078 0
M  V30 753 H 63.3243 2.57265 1.97447 0
M  V30 754 H 63.1093 3.85 0.742812 0
M  V30 755 H 64.5993 3.80001 1.73172 0
M  V30 756 N 65.0364 0.313813 1.54444 0
M  V30 757 C 65.9844 -0.572171 2.25453 0
M  V30 758 C 66.9784 -1.12657 1.2651 0
M  V30 759 O 68.1844 -1.07573 1.44319 0
M  V30 760 H 64.5594 -0.203146 0.724041 0
M  V30 761 H 66.5304 0.0491145 2.9836 0
M  V30 762 C 65.2794 -1.72626 3.0182 0
M  V30 763 H 64.6024 -1.30891 3.77767 0
M  V30 764 H 66.0424 -2.32199 3.54767 0
M  V30 765 C 64.5014 -2.63806 2.09542 0
M  V30 766 O 65.0314 -3.65256 1.67185 0
M  V30 767 N 63.2374 -2.31824 1.75232 0
M  V30 768 H 62.7844 -1.49368 2.09873 0
M  V30 769 H 62.7424 -2.93095 1.13767 0
M  V30 770 N 66.5145 -1.57545 0.0417849 0
M  V30 771 C 67.7615 -1.92317 -0.634082 0
M  V30 772 C 68.0895 -0.919334 -1.71402 0
M  V30 773 O 67.3445 0.0698253 -1.95575 0
M  V30 774 C 67.6435 -3.33794 -1.27735 0
M  V30 775 C 67.3095 -4.49716 -0.326543 0
M  V30 776 C 65.9715 -4.81156 -0.0648814 0
M  V30 777 C 68.3235 -5.20182 0.325623 0
M  V30 778 C 65.6515 -5.80414 0.856539 0
M  V30 779 C 68.0035 -6.20424 1.23518 0
M  V30 780 C 66.6675 -6.50298 1.5056 0
M  V30 781 H 65.9375 -0.703736 -0.232027 0
M  V30 782 H 68.5845 -1.91205 0.106259 0
M  V30 783 H 66.8895 -3.31228 -2.09274 0
M  V30 784 H 68.5865 -3.57975 -1.80707 0
M  V30 785 H 65.1765 -4.25176 -0.540665 0
M  V30 786 H 69.3605 -4.96112 0.136546 0
M  V30 787 H 64.6165 -6.019 1.07363 0
M  V30 788 H 68.7905 -6.74141 1.74664 0
M  V30 789 H 66.4175 -7.27025 2.22123 0
M  V30 790 N 67.9926 0.231505 -1.5589 0
M  V30 791 C 68.9556 1.27028 -1.90779 0
M  V30 792 C 69.9556 1.40308 -0.785507 0
M  V30 793 O 71.1456 1.38744 -1.05336 0
M  V30 794 C 68.2776 2.64566 -2.14983 0
M  V30 795 H 69.4706 0.973017 -2.83677 0
M  V30 796 H 67.0236 0.471486 -1.49019 0
M  V30 797 H 67.7586 2.99406 -1.24604 0
M  V30 798 H 67.5436 2.56305 -2.96732 0
M  V30 799 H 69.0336 3.39543 -2.43105 0
M  V30 800 N 69.4707 1.49531 0.497807 0
M  V30 801 C 70.4177 1.66436 1.59899 0
M  V30 802 C 71.3877 0.505793 1.58212 0
M  V30 803 O 72.5727 0.733202 1.7615 0
M  V30 804 C 69.7127 1.7399 2.98029 0
M  V30 805 C 68.8257 3.01172 3.09708 0
M  V30 806 C 67.9607 2.99686 4.38591 0
M  V30 807 C 66.9997 4.21434 4.43914 0
M  V30 808 N 66.1367 4.1784 5.64229 0
M  V30 809 H 70.9767 2.60459 1.44793 0
M  V30 810 H 68.5137 1.29137 0.704423 0
M  V30 811 H 70.4717 1.76352 3.78095 0
M  V30 812 H 69.1017 0.834301 3.11832 0
M  V30 813 H 68.1537 3.08408 2.22685 0
M  V30 814 H 69.4657 3.91165 3.09502 0
M  V30 815 H 68.6197 3.00628 5.2698 0
M  V30 816 H 67.3587 2.07477 4.41367 0
M  V30 817 H 66.3637 4.20733 3.53926 0
M  V30 818 H 67.5887 5.14839 4.42851 0
M  V30 819 H 65.5347 3.28469 5.67841 0
M  V30 820 H 65.4517 5.01571 5.65652 0
M  V30 821 H 66.7197 4.22889 6.54817 0
M  V30 822 N 70.9488 -0.749086 1.3866 0
M  V30 823 C 72.1948 -1.51056 1.35314 0
M  V30 824 C 72.5278 -1.94121 -0.0553751 0
M  V30 825 O 71.8028 -1.65763 -1.01749 0
M  V30 826 C 72.0858 -2.76003 2.31288 0
M  V30 827 C 71.9388 -2.39047 3.8102 0
M  V30 828 C 73.2578 -3.78046 2.2532 0
M  V30 829 H 70.3768 -0.547972 0.492844 0
M  V30 830 H 73.0188 -0.857628 1.69543 0
M  V30 831 H 71.1688 -3.31716 2.02229 0
M  V30 832 H 72.8408 -1.89074 4.20771 0
M  V30 833 H 71.0838 -1.71449 3.98482 0
M  V30 834 H 71.7548 -3.28462 4.4364 0
M  V30 835 H 74.2308 -3.31884 2.50983 0
M  V30 836 H 73.1068 -4.63159 2.94576 0
M  V30 837 H 73.3678 -4.23957 1.25352 0
M  V30 838 N 72.4269 -1.23603 -0.977757 0
M  V30 839 C 73.3589 -0.977369 -2.07317 0
M  V30 840 C 74.3719 0.0495845 -1.62724 0
M  V30 841 O 75.5609 -0.186261 -1.77526 0
M  V30 842 C 72.6609 -0.451216 -3.35883 0
M  V30 843 C 71.8339 -1.53896 -4.09432 0
M  V30 844 C 70.8929 -1.01721 -5.16274 0
M  V30 845 O 69.9189 -1.70676 -5.43009 0
M  V30 846 N 71.1209 0.153594 -5.80297 0
M  V30 847 H 73.8859 -1.92047 -2.30082 0
M  V30 848 H 71.4469 -1.14497 -1.14465 0
M  V30 849 H 73.4389 -0.0871574 -4.04606 0
M  V30 850 H 72.0089 0.397368 -3.10064 0
M  V30 851 H 71.2289 -2.07566 -3.35127 0
M  V30 852 H 72.5169 -2.27037 -4.55337 0
M  V30 853 H 71.9149 0.730323 -5.60966 0
M  V30 854 H 70.4719 0.458892 -6.50183 0
M  V30 855 N 73.905 1.17692 -1.04816 0
M  V30 856 C 74.815 2.25229 -0.65643 0
M  V30 857 C 75.831 1.71018 0.320761 0
M  V30 858 O 77.007 2.00649 0.173805 0
M  V30 859 C 74.072 3.46684 -0.0332629 0
M  V30 860 C 73.133 4.15997 -1.06042 0
M  V30 861 C 72.366 5.31654 -0.466893 0
M  V30 862 O 72.589 5.65777 0.724758 0
M  V30 863 O 71.523 5.89831 -1.1993 0
M  V30 864 H 75.349 2.61016 -1.55255 0
M  V30 865 H 72.934 1.24919 -0.81949 0
M  V30 866 H 74.816 4.20234 0.313256 0
M  V30 867 H 73.491 3.12703 0.836566 0
M  V30 868 H 72.398 3.44482 -1.45886 0
M  V30 869 H 73.731 4.53996 -1.90127 0
M  V30 870 N 75.3831 0.828654 1.34056 0
M  V30 871 C 76.3301 0.252567 2.29414 0
M  V30 872 C 77.3001 -0.62588 1.53857 0
M  V30 873 O 78.4851 -0.566312 1.82202 0
M  V30 874 C 75.6251 -0.574831 3.40279 0
M  V30 875 C 74.7381 0.326499 4.30764 0
M  V30 876 C 73.8731 -0.511016 5.28736 0
M  V30 877 C 72.9121 0.389342 6.1086 0
M  V30 878 N 72.0491 -0.409439 7.00905 0
M  V30 879 H 76.8891 1.07108 2.78086 0
M  V30 880 H 74.4261 0.539677 1.36843 0
M  V30 881 H 76.3841 -1.06992 4.03248 0
M  V30 882 H 75.0141 -1.35841 2.92826 0
M  V30 883 H 74.0661 0.939837 3.68607 0
M  V30 884 H 75.3781 1.01857 4.88289 0
M  V30 885 H 74.5321 -1.07035 5.97184 0
M  V30 886 H 73.2711 -1.23657 4.71763 0
M  V30 887 H 72.2761 0.960769 5.4134 0
M  V30 888 H 73.5011 1.1131 6.69916 0
M  V30 889 H 71.4471 -1.11856 6.46393 0
M  V30 890 H 71.3641 0.224126 7.55668 0
M  V30 891 H 72.6321 -0.951336 7.73673 0
M  V30 892 N 76.8612 -1.46375 0.584142 0
M  V30 893 C 78.0892 -2.06761 0.0759296 0
M  V30 894 C 78.5042 -1.43266 -1.22965 0
M  V30 895 O 77.8612 -0.538458 -1.74376 0
M  V30 896 C 77.9122 -3.61375 -0.0950384 0
M  V30 897 O 77.6332 -4.22495 1.15887 0
M  V30 898 C 79.1342 -4.38693 -0.637434 0
M  V30 899 H 76.3542 -0.668479 0.0581075 0
M  V30 900 H 78.8982 -1.8798 0.805218 0
M  V30 901 H 77.0532 -3.79578 -0.774554 0
M  V30 902 H 77.4672 -5.15385 0.973598 0
M  V30 903 H 78.9412 -5.47464 -0.706237 0
M  V30 904 H 79.4182 -4.06836 -1.65472 0
M  V30 905 H 80.0242 -4.25299 0.00725967 0
M  V30 906 N 78.3393 -0.321999 -1.54275 0
M  V30 907 C 79.2713 0.578671 -2.21775 0
M  V30 908 C 80.2843 1.08109 -1.21722 0
M  V30 909 O 81.4733 0.994938 -1.482 0
M  V30 910 C 78.5733 1.80661 -2.86731 0
M  V30 911 C 77.7463 1.44314 -4.12907 0
M  V30 912 C 76.8053 2.52845 -4.61472 0
M  V30 913 O 75.8313 2.17054 -5.2619 0
M  V30 914 N 77.0333 3.83748 -4.35566 0
M  V30 915 H 79.7983 0.000709447 -2.997 0
M  V30 916 H 77.3593 -0.145132 -1.61248 0
M  V30 917 H 79.3513 2.52655 -3.16145 0
M  V30 918 H 77.9213 2.29245 -2.12521 0
M  V30 919 H 77.1413 0.554906 -3.90275 0
M  V30 920 H 78.4293 1.17598 -4.95023 0
M  V30 921 H 77.8273 4.15625 -3.83761 0
M  V30 922 H 76.3843 4.51977 -4.69638 0
M  V30 923 N 79.8174 1.5752 -0.0501392 0
M  V30 924 C 81.0664 1.91827 0.623328 0
M  V30 925 C 81.3794 0.930222 1.72065 0
M  V30 926 O 82.5854 1.1653 2.4522 0
M  V30 927 C 81.0414 3.40692 1.16003 0
M  V30 928 C 80.6494 4.479 0.0948811 0
M  V30 929 C 82.3934 3.84034 1.80881 0
M  V30 930 C 80.3004 5.87879 0.644411 0
M  V30 931 H 79.2304 0.715918 0.236596 0
M  V30 932 H 81.8814 1.83115 -0.118861 0
M  V30 933 H 80.2634 3.44405 1.9545 0
M  V30 934 H 81.4374 4.55775 -0.678675 0
M  V30 935 H 79.7524 4.13892 -0.45637 0
M  V30 936 H 82.3494 4.85984 2.22988 0
M  V30 937 H 82.6924 3.20225 2.6601 0
M  V30 938 H 83.2254 3.82833 1.0809 0
M  V30 939 H 79.9644 6.55282 -0.169229 0
M  V30 940 H 79.4844 5.83567 1.38598 0
M  V30 941 H 81.1634 6.37098 1.12763 0
M  V30 942 N 81.2955 -0.223234 1.56011 0
M  V30 943 C 82.2255 -1.27988 1.95298 0
M  V30 944 C 83.2065 -1.48976 0.820979 0
M  V30 945 O 84.3915 -1.61188 1.08315 0
M  V30 946 C 81.5215 -2.63 2.26822 0
M  V30 947 C 80.4755 -2.56671 3.42497 0
M  V30 948 C 79.8015 -3.95697 3.59622 0
M  V30 949 C 81.1015 -2.11601 4.77517 0
M  V30 950 H 82.7955 -0.953525 2.8381 0
M  V30 951 H 80.3415 -0.457244 1.36548 0
M  V30 952 H 82.2945 -3.37077 2.52898 0
M  V30 953 H 81.0185 -2.9732 1.35161 0
M  V30 954 H 79.6775 -1.85051 3.16467 0
M  V30 955 H 79.3255 -4.27322 2.6534 0
M  V30 956 H 79.0255 -3.92345 4.37424 0
M  V30 957 H 80.5495 -4.71438 3.88044 0
M  V30 958 H 81.9635 -2.7542 5.02809 0
M  V30 959 H 80.3605 -2.19311 5.5859 0
M  V30 960 H 81.4305 -1.06824 4.72987 0
M  V30 961 N 82.7736 -1.49793 -0.48987 0
M  V30 962 C 83.7216 -1.67783 -1.61095 0
M  V30 963 C 84.7156 -0.543683 -1.60438 0
M  V30 964 O 85.9216 -0.723647 -1.64813 0
M  V30 965 H 82.2966 -0.529255 -0.534222 0
M  V30 966 H 84.2676 -2.61861 -1.43078 0
M  V30 967 C 83.0166 -1.77191 -2.99164 0
M  V30 968 H 82.3396 -2.63841 -3.0038 0
M  V30 969 H 83.7796 -1.93809 -3.77113 0
M  V30 970 C 82.2386 -0.519203 -3.32875 0
M  V30 971 O 82.7686 0.350124 -4.00171 0
M  V30 972 N 80.9746 -0.378816 -2.8812 0
M  V30 973 H 80.5216 -1.08725 -2.33531 0
M  V30 974 H 80.4796 0.458239 -3.11043 0
M  V30 975 N 84.2517 0.741722 -1.39055 0
M  V30 976 C 85.1617 1.88621 -1.39496 0
M  V30 977 C 86.1777 1.71557 -0.290578 0
M  V30 978 O 87.3537 1.94275 -0.530954 0
M  V30 979 C 84.4187 3.24134 -1.23037 0
M  V30 980 C 83.4797 3.5364 -2.43387 0
M  V30 981 C 82.7127 4.82687 -2.27703 0
M  V30 982 O 82.9357 5.55922 -1.27696 0
M  V30 983 O 81.8697 5.1194 -3.16545 0
M  V30 984 H 85.6957 1.91203 -2.35956 0
M  V30 985 H 83.2807 0.888625 -1.20099 0
M  V30 986 H 85.1627 4.0513 -1.15964 0
M  V30 987 H 83.8377 3.22337 -0.296691 0
M  V30 988 H 82.7447 2.72758 -2.56035 0
M  V30 989 H 84.0777 3.60209 -3.35425 0
M  V30 990 N 85.7298 1.2412 0.971189 0
M  V30 991 C 86.6398 1.04747 2.09917 0
M  V30 992 C 87.6558 -0.0107162 1.73997 0
M  V30 993 O 88.8318 0.186714 2.00533 0
M  V30 994 C 85.8968 0.650828 3.40537 0
M  V30 995 C 84.9578 1.7851 3.90426 0
M  V30 996 C 84.1908 1.40729 5.14812 0
M  V30 997 O 84.4138 0.29557 5.69634 0
M  V30 998 O 83.3478 2.23168 5.58999 0
M  V30 999 H 87.1738 1.99304 2.29154 0
M  V30 1000 H 84.7588 1.02908 1.08307 0
M  V30 1001 H 86.6408 0.440992 4.19086 0
M  V30 1002 H 85.3158 -0.265649 3.22608 0
M  V30 1003 H 84.2228 2.04966 3.12953 0
M  V30 1004 H 85.5558 2.68023 4.12825 0
M  V30 1005 N 87.2079 -1.17134 1.05439 0
M  V30 1006 C 88.4539 -1.87979 0.776872 0
M  V30 1007 C 88.8089 -1.7965 -0.688751 0
M  V30 1008 O 88.1019 -1.19535 -1.4974 0
M  V30 1009 C 88.2959 -3.36833 1.19491 0
M  V30 1010 C 88.1249 -3.59653 2.69963 0
M  V30 1011 C 86.8949 -3.76234 3.37307 0
M  V30 1012 C 89.0929 -3.59091 3.68182 0
M  V30 1013 N 87.0749 -3.86922 4.76618 0
M  V30 1014 C 88.4459 -3.75659 4.93235 0
M  V30 1015 C 90.5009 -3.42255 3.61616 0
M  V30 1016 C 89.2039 -3.77133 6.12506 0
M  V30 1017 C 91.2299 -3.45018 4.8033 0
M  V30 1018 C 90.5919 -3.62096 6.04207 0
M  V30 1019 H 86.6909 -0.705876 0.336546 0
M  V30 1020 H 89.2749 -1.40602 1.34682 0
M  V30 1021 H 87.4459 -3.82873 0.652884 0
M  V30 1022 H 89.1779 -3.95305 0.866966 0
M  V30 1023 H 85.9329 -3.76193 2.87708 0
M  V30 1024 H 86.3569 -3.96055 5.49062 0
M  V30 1025 H 90.9989 -3.27986 2.66805 0
M  V30 1026 H 88.7169 -3.90186 7.07659 0
M  V30 1027 H 92.3029 -3.33246 4.76905 0
M  V30 1028 H 91.1829 -3.64142 6.94529 0
M  V30 1029 N 88.686 -0.835752 -1.33615 0
M  V30 1030 C 89.633 -0.26473 -2.29277 0
M  V30 1031 C 90.603 0.617712 -1.54187 0
M  V30 1032 O 91.788 0.556641 -1.825 0
M  V30 1033 C 88.928 0.556777 -3.40579 0
M  V30 1034 C 88.041 -0.349339 -4.30585 0
M  V30 1035 C 87.176 0.482969 -5.29 0
M  V30 1036 C 86.215 -0.421732 -6.10645 0
M  V30 1037 N 85.352 0.372262 -7.01112 0
M  V30 1038 H 90.192 -1.08582 -2.77514 0
M  V30 1039 H 87.729 -0.546927 -1.36554 0
M  V30 1040 H 89.687 1.04852 -4.03809 0
M  V30 1041 H 88.317 1.34286 -2.93542 0
M  V30 1042 H 87.369 -0.959372 -3.68104 0
M  V30 1043 H 88.681 -1.04445 -4.87742 0
M  V30 1044 H 87.835 1.03866 -5.97743 0
M  V30 1045 H 86.574 1.21153 -4.72412 0
M  V30 1046 H 85.579 -0.989464 -5.40823 0
M  V30 1047 H 86.804 -1.14861 -6.69316 0
M  V30 1048 H 84.75 1.08426 -6.46977 0
M  V30 1049 H 84.667 -0.264198 -7.55538 0
M  V30 1050 H 85.935 0.910293 -7.74167 0
M  V30 1051 N 90.1641 1.46063 -0.591896 0
M  V30 1052 C 91.1111 2.30399 0.136069 0
M  V30 1053 C 92.0811 1.41169 0.875238 0
M  V30 1054 O 93.2661 1.70112 0.86409 0
M  V30 1055 C 90.4061 3.25804 1.13781 0
M  V30 1056 C 89.5191 4.30134 0.401137 0
M  V30 1057 C 88.6541 5.12659 1.39121 0
M  V30 1058 C 87.6931 6.0873 0.641462 0
M  V30 1059 N 86.8301 6.8409 1.58004 0
M  V30 1060 H 91.6701 2.92118 -0.589144 0
M  V30 1061 H 89.2071 1.43959 -0.302342 0
M  V30 1062 H 91.1651 3.79569 1.73156 0
M  V30 1063 H 89.7951 2.65872 1.83062 0
M  V30 1064 H 88.8471 3.79152 -0.307826 0
M  V30 1065 H 90.1591 4.98458 -0.184565 0
M  V30 1066 H 89.3131 5.70747 2.05749 0
M  V30 1067 H 88.0521 4.44316 2.01084 0
M  V30 1068 H 87.0571 5.49786 -0.0385419 0
M  V30 1069 H 88.2821 6.79095 0.0270945 0
M  V30 1070 H 86.2281 6.18449 2.18761 0
M  V30 1071 H 86.1451 7.48709 1.04738 0
M  V30 1072 H 87.4131 7.4673 2.23639 0
M  V30 1073 N 91.6422 0.330177 1.54103 0
M  V30 1074 C 92.5722 -0.525353 2.27513 0
M  V30 1075 C 93.5532 -1.11383 1.2856 0
M  V30 1076 O 94.7382 -1.13773 1.57383 0
M  V30 1077 C 91.8682 -1.6831 3.03791 0
M  V30 1078 C 90.8222 -1.2236 4.10137 0
M  V30 1079 C 90.1482 -2.46882 4.74293 0
M  V30 1080 C 91.4482 -0.333697 5.21233 0
M  V30 1081 H 93.1422 0.087013 2.99274 0
M  V30 1082 H 90.6882 0.0432893 1.43935 0
M  V30 1083 H 92.6412 -2.28795 3.5388 0
M  V30 1084 H 91.3652 -2.32216 2.29659 0
M  V30 1085 H 90.0242 -0.64165 3.60941 0
M  V30 1086 H 89.6722 -3.09165 3.96769 0
M  V30 1087 H 89.3722 -2.16825 5.46133 0
M  V30 1088 H 90.8962 -3.08117 5.27159 0
M  V30 1089 H 92.3102 -0.845013 5.67038 0
M  V30 1090 H 90.7072 -0.125612 5.99969 0
M  V30 1091 H 91.7772 0.633724 4.80741 0
M  V30 1092 N 93.1203 -1.57491 0.0584922 0
M  V30 1093 C 94.5363 -1.56792 -0.298091 0
M  V30 1094 C 94.7363 -1.06679 -1.70944 0
M  V30 1095 O 93.7923 -0.726672 -2.41818 0
M  V30 1096 C 95.1053 -3.00461 -0.119879 0
M  V30 1097 C 96.6533 -3.1242 -0.190428 0
M  V30 1098 C 97.1283 -4.57982 -0.0406567 0
M  V30 1099 N 98.6193 -4.63099 -0.0966958 0
M  V30 1100 C 99.3543 -5.734 -0.00502943 0
M  V30 1101 N 98.8503 -6.9266 0.139402 0
M  V30 1102 N 100.643 -5.62067 -0.0611391 0
M  V30 1103 H 92.7943 -1.88386 0.98105 0
M  V30 1104 H 95.0573 -0.867865 0.381463 0
M  V30 1105 H 94.7633 -3.41187 0.85349 0
M  V30 1106 H 94.6373 -3.66843 -0.877833 0
M  V30 1107 H 97.0243 -2.71589 -1.15427 0
M  V30 1108 H 97.1053 -2.48702 0.598405 0
M  V30 1109 H 96.7493 -4.995 0.919897 0
M  V30 1110 H 96.6793 -5.19715 -0.848727 0
M  V30 1111 H 99.1703 -3.77331 -0.207277 0
M  V30 1112 H 99.4833 -7.72536 0.201855 0
M  V30 1113 H 97.8283 -6.94781 0.174586 0
M  V30 1114 H 101.019 -4.67782 -0.172583 0
M  V30 1115 H 101.192 -6.47999 0.0137562 0
M  V30 1116 N 94.5984 0.214957 -1.56127 0
M  V30 1117 C 95.8444 0.939762 -1.79712 0
M  V30 1118 C 96.1774 1.83723 -0.629247 0
M  V30 1119 O 95.4524 1.90925 0.371197 0
M  V30 1120 C 95.7354 1.77306 -3.13424 0
M  V30 1121 C 95.5884 0.90164 -4.40671 0
M  V30 1122 C 96.9074 2.74956 -3.43638 0
M  V30 1123 H 94.0264 0.340214 -0.653776 0
M  V30 1124 H 96.6684 0.20824 -1.88855 0
M  V30 1125 H 94.8184 2.39673 -3.0576 0
M  V30 1126 H 96.4904 0.294206 -4.60361 0
M  V30 1127 H 94.7334 0.207368 -4.33304 0
M  V30 1128 H 95.4044 1.51923 -5.30682 0
M  V30 1129 H 97.8804 2.22724 -3.51473 0
M  V30 1130 H 96.7564 3.30358 -4.38355 0
M  V30 1131 H 97.0174 3.53023 -2.66134 0
M  V30 1132 N 96.0765 1.50051 0.48192 0
M  V30 1133 C 97.0085 1.64263 1.59844 0
M  V30 1134 C 98.0215 0.52451 1.54119 0
M  V30 1135 O 99.2105 0.797293 1.59704 0
M  V30 1136 C 96.3105 1.60102 2.98698 0
M  V30 1137 C 95.4835 2.87767 3.29407 0
M  V30 1138 C 94.5425 2.76397 4.47762 0
M  V30 1139 O 93.5685 3.50348 4.48603 0
M  V30 1140 N 94.7705 1.89222 5.48794 0
M  V30 1141 H 97.5355 2.60566 1.48073 0
M  V30 1142 H 95.0965 1.47379 0.670149 0
M  V30 1143 H 97.0885 1.50123 3.75826 0
M  V30 1144 H 95.6585 0.715798 3.04294 0
M  V30 1145 H 94.8785 3.11954 2.40994 0
M  V30 1146 H 96.1665 3.72365 3.4673 0
M  V30 1147 H 95.5645 1.28434 5.50928 0
M  V30 1148 H 94.1215 1.85154 6.24949 0
M  V30 1149 N 97.5546 -0.734337 1.39446 0
M  V30 1150 C 98.9656 -1.31264 1.32766 0
M  V30 1151 C 99.3166 -1.96198 -0.00767497 0
M  V30 1152 O 98.4416 -1.96346 -0.909796 0
M  V30 1153 C 99.0366 -2.38682 2.4045 0
M  V30 1154 C 97.5956 -2.92184 2.37288 0
M  V30 1155 C 96.7426 -1.6576 2.22304 0
M  V30 1156 H 99.6936 -0.531799 1.49525 0
M  V30 1157 H 99.7146 -3.19087 2.07276 0
M  V30 1158 H 99.2266 -1.91392 3.37625 0
M  V30 1159 H 97.3276 -3.43752 1.43754 0
M  V30 1160 H 97.4406 -3.45253 3.3217 0
M  V30 1161 H 95.8046 -1.9012 1.69489 0
M  V30 1162 H 96.5876 -1.20521 3.21449 0
M  V30 1163 N 99.0327 -1.24633 -0.964593 0
M  V30 1164 C 100.279 -1.08949 -1.71049 0
M  V30 1165 C 100.612 0.370302 -1.90637 0
M  V30 1166 O 99.8867 1.27349 -1.47011 0
M  V30 1167 C 100.17 -1.83329 -3.0994 0
M  V30 1168 C 100.023 -3.37077 -2.97824 0
M  V30 1169 C 101.342 -1.60846 -4.09654 0
M  V30 1170 H 98.4607 -0.397178 -0.620821 0
M  V30 1171 H 101.103 -1.5334 -1.12191 0
M  V30 1172 H 99.2527 -1.45597 -3.60186 0
M  V30 1173 H 100.925 -3.84425 -2.5498 0
M  V30 1174 H 99.1677 -3.65298 -2.33965 0
M  V30 1175 H 99.8387 -3.84324 -3.96231 0
M  V30 1176 H 102.315 -1.93674 -3.68279 0
M  V30 1177 H 101.191 -2.1534 -5.04896 0
M  V30 1178 H 101.452 -0.547434 -4.38698 0
M  V30 1179 N 100.511 1.16574 -1.06058 0
M  V30 1180 C 101.443 2.2045 -0.627239 0
M  V30 1181 C 102.456 1.59752 0.313534 0
M  V30 1182 O 103.645 1.78192 0.104896 0
M  V30 1183 C 100.745 3.3875 0.100974 0
M  V30 1184 C 99.9178 4.29008 -0.852687 0
M  V30 1185 C 98.9768 5.25944 -0.164152 0
M  V30 1186 O 98.0028 5.63535 -0.801047 0
M  V30 1187 N 99.2048 5.70075 1.09518 0
M  V30 1188 H 101.97 2.58249 -1.52077 0
M  V30 1189 H 99.5308 1.3156 -0.943594 0
M  V30 1190 H 101.523 4.00638 0.57194 0
M  V30 1191 H 100.093 2.99476 0.89628 0
M  V30 1192 H 99.3128 3.64419 -1.50308 0
M  V30 1193 H 100.601 4.86195 -1.49972 0
M  V30 1194 H 99.9988 5.41624 1.6328 0
M  V30 1195 H 98.5558 6.34067 1.51006 0
M  V30 1196 N 101.989 0.842826 1.3317 0
M  V30 1197 C 103.214 0.453129 2.02389 0
M  V30 1198 C 103.639 -0.939105 1.6298 0
M  V30 1199 O 102.997 -1.61472 0.8244 0
M  V30 1200 C 103.045 0.586094 3.55805 0
M  V30 1201 O 102.149 -0.386029 4.10589 0
M  V30 1202 H 101.49 0.183664 0.638094 0
M  V30 1203 H 104.02 1.13875 1.69981 0
M  V30 1204 H 104.03 0.469209 4.05293 0
M  V30 1205 H 102.705 1.6014 3.83833 0
M  V30 1206 H 101.282 -0.226371 3.72212 0
M  V30 1207 N 103.467 -1.45747 0.599634 0
M  V30 1208 C 104.4 -2.27547 -0.172552 0
M  V30 1209 C 105.378 -1.36657 -0.881116 0
M  V30 1210 O 106.562 -1.66081 -0.891595 0
M  V30 1211 C 103.689 -3.14829 -1.24903 0
M  V30 1212 C 102.735 -4.21603 -0.644465 0
M  V30 1213 S 103.568 -5.32754 0.541606 0
M  V30 1214 C 104.724 -6.23604 -0.535656 0
M  V30 1215 H 104.957 -2.92691 0.521468 0
M  V30 1216 H 102.49 -1.49473 0.386947 0
M  V30 1217 H 104.448 -3.65675 -1.86527 0
M  V30 1218 H 103.109 -2.48965 -1.91508 0
M  V30 1219 H 102.302 -4.82566 -1.45417 0
M  V30 1220 H 101.904 -3.73857 -0.103534 0
M  V30 1221 H 104.196 -6.62519 -1.41686 0
M  V30 1222 H 105.139 -7.0809 0.0376246 0
M  V30 1223 H 105.547 -5.58103 -0.84741 0
M  V30 1224 N 104.945 -0.338344 -1.53925 0
M  V30 1225 C 105.892 0.520845 -2.24846 0
M  V30 1226 C 106.862 1.09976 -1.24477 0
M  V30 1227 O 108.047 1.13735 -1.53196 0
M  V30 1228 C 105.187 1.6685 -3.02084 0
M  V30 1229 C 104.3 1.11739 -4.17299 0
M  V30 1230 C 103.435 2.23193 -4.82036 0
M  V30 1231 C 102.474 1.65407 -5.89328 0
M  V30 1232 N 101.611 2.70582 -6.47866 0
M  V30 1233 H 106.451 -0.0904881 -2.97863 0
M  V30 1234 H 103.988 -0.0564282 -1.46992 0
M  V30 1235 H 105.946 2.34407 -3.45122 0
M  V30 1236 H 104.576 2.2509 -2.31375 0
M  V30 1237 H 103.628 0.332919 -3.7894 0
M  V30 1238 H 104.94 0.654677 -4.94485 0
M  V30 1239 H 104.094 2.98626 -5.28117 0
M  V30 1240 H 102.833 2.72807 -4.04262 0
M  V30 1241 H 101.838 0.884779 -5.42634 0
M  V30 1242 H 103.063 1.16652 -6.69006 0
M  V30 1243 H 101.009 3.1946 -5.72959 0
M  V30 1244 H 100.926 2.28917 -7.20509 0
M  V30 1245 H 102.194 3.45799 -6.98601 0
M  V30 1246 N 106.423 1.57458 -0.0668435 0
M  V30 1247 C 107.834 1.80776 0.466558 0
M  V30 1248 C 108.185 0.980361 1.69951 0
M  V30 1249 O 107.31 0.201441 2.1546 0
M  V30 1250 C 107.905 3.27881 0.85321 0
M  V30 1251 C 106.464 3.52062 1.3315 0
M  V30 1252 C 105.611 2.75513 0.314264 0
M  V30 1253 H 108.562 1.5598 -0.292588 0
M  V30 1254 H 108.583 3.39659 1.715 0
M  V30 1255 H 108.095 3.88075 -0.0443439 0
M  V30 1256 H 106.196 2.97167 2.24772 0
M  V30 1257 H 106.309 4.60762 1.31285 0
M  V30 1258 H 104.673 2.42123 0.790492 0
M  V30 1259 H 105.456 3.38442 -0.575477 0
M  V30 1260 N 107.901 -0.206675 1.56239 0
M  V30 1261 C 109.147 -0.930218 1.80208 0
M  V30 1262 C 109.48 -1.83387 0.638981 0
M  V30 1263 O 108.755 -1.91119 -0.361066 0
M  V30 1264 C 109.038 -1.75641 3.1436 0
M  V30 1265 C 108.891 -0.878257 4.41142 0
M  V30 1266 C 110.21 -2.73129 3.45092 0
M  V30 1267 H 107.329 -0.336742 0.655571 0
M  V30 1268 H 109.971 -0.198222 1.88963 0
M  V30 1269 H 108.121 -2.38048 3.07027 0
M  V30 1270 H 109.793 -0.269787 4.6051 0
M  V30 1271 H 108.036 -0.184385 4.33408 0
M  V30 1272 H 108.707 -1.49106 5.3148 0
M  V30 1273 H 111.183 -2.20856 3.52649 0
M  V30 1274 H 110.059 -3.28028 4.40101 0
M  V30 1275 H 110.32 -3.51606 2.68003 0
M  V30 1276 N 109.379 -1.50304 -0.473955 0
M  V30 1277 C 110.604 -1.65175 -1.25427 0
M  V30 1278 C 111.029 -0.333673 -1.85117 0
M  V30 1279 O 110.387 0.702114 -1.67153 0
M  V30 1280 C 110.435 -2.74295 -2.34082 0
M  V30 1281 O 109.539 -2.35349 -3.38651 0
M  V30 1282 H 108.88 -0.551944 -0.369126 0
M  V30 1283 H 111.41 -1.96662 -0.564364 0
M  V30 1284 H 111.42 -2.97285 -2.79438 0
M  V30 1285 H 110.095 -3.69959 -1.90008 0
M  V30 1286 H 108.672 -2.22794 -2.99027 0
M  V30 1287 N 110.857 0.726932 -1.39834 0
M  V30 1288 C 112.105 1.4837 -1.37225 0
M  V30 1289 C 112.426 1.94979 0.0284857 0
M  V30 1290 O 111.696 1.69555 0.981213 0
M  V30 1291 H 110.276 0.55043 -0.505011 0
M  V30 1292 H 112.938 0.862468 -1.74778 0
M  V30 1293 H 112.034 2.36198 -2.04003 0
M  V30 1294 N 112.336 1.25143 0.95797 0
M  V30 1295 C 113.286 1.01924 2.0395 0
M  V30 1296 C 114.27 -0.0427175 1.60843 0
M  V30 1297 O 115.462 0.17221 1.7616 0
M  V30 1298 C 112.591 0.636373 3.3735 0
M  V30 1299 C 111.677 1.73492 3.8699 0
M  V30 1300 N 112.068 2.96945 4.0946 0
M  V30 1301 C 110.366 1.61467 4.15746 0
M  V30 1302 C 111.067 3.68228 4.50315 0
M  V30 1303 N 110.043 2.95833 4.56053 0
M  V30 1304 H 113.845 1.95653 2.19311 0
M  V30 1305 H 111.359 1.15413 1.14253 0
M  V30 1306 H 113.356 0.451233 4.14451 0
M  V30 1307 H 112.016 -0.293621 3.2337 0
M  V30 1308 H 113.027 3.33025 3.96629 0
M  V30 1309 H 109.704 0.753394 4.10646 0
M  V30 1310 H 111.094 4.74178 4.76031 0
M  V30 1311 N 113.814 -1.1601 1.06675 0
M  V30 1312 C 115.225 -1.68235 0.809565 0
M  V30 1313 C 115.576 -1.8454 -0.666303 0
M  V30 1314 O 114.701 -1.54374 -1.5165 0
M  V30 1315 C 115.296 -3.05585 1.46299 0
M  V30 1316 C 113.855 -3.54915 1.25349 0
M  V30 1317 C 113.002 -2.30804 1.53703 0
M  V30 1318 H 115.953 -1.00318 1.22971 0
M  V30 1319 H 115.974 -3.70174 0.880431 0
M  V30 1320 H 115.486 -2.93686 2.53713 0
M  V30 1321 H 113.587 -3.72067 0.199261 0
M  V30 1322 H 113.7 -4.36774 1.9689 0
M  V30 1323 H 112.064 -2.36007 0.957739 0
M  V30 1324 H 112.847 -2.21499 2.62284 0
M  V30 1325 N 115.292 -0.849877 -1.32721 0
M  V30 1326 C 116.539 -0.450923 -1.97416 0
M  V30 1327 C 116.867 0.992376 -1.67279 0
M  V30 1328 O 116.122 1.71048 -0.950845 0
M  V30 1329 C 116.421 -0.631272 -3.51781 0
M  V30 1330 C 116.087 -2.04432 -4.01894 0
M  V30 1331 C 114.749 -2.4308 -4.1529 0
M  V30 1332 C 117.101 -2.96679 -4.28522 0
M  V30 1333 C 114.429 -3.73257 -4.52654 0
M  V30 1334 C 116.781 -4.26349 -4.67343 0
M  V30 1335 C 115.445 -4.64939 -4.78945 0
M  V30 1336 H 114.715 -0.165004 -0.722395 0
M  V30 1337 H 117.362 -1.07901 -1.58207 0
M  V30 1338 H 115.667 0.0800767 -3.91718 0
M  V30 1339 H 117.364 -0.302709 -3.99856 0
M  V30 1340 H 113.954 -1.73419 -3.91949 0
M  V30 1341 H 118.138 -2.68054 -4.17685 0
M  V30 1342 H 113.394 -4.02946 -4.59831 0
M  V30 1343 H 117.568 -4.97895 -4.86902 0
M  V30 1344 H 115.195 -5.65855 -5.07654 0
M  V30 1345 N 116.77 1.45427 -0.607355 0
M  V30 1346 C 117.7 2.3329 0.0989352 0
M  V30 1347 C 118.681 1.46816 0.859007 0
M  V30 1348 O 119.866 1.75588 0.829604 0
M  V30 1349 C 116.996 3.29518 1.09705 0
M  V30 1350 C 115.95 4.25626 0.450206 0
M  V30 1351 C 115.276 5.11542 1.55655 0
M  V30 1352 C 116.576 5.18505 -0.628455 0
M  V30 1353 H 118.27 2.92595 -0.634716 0
M  V30 1354 H 115.816 1.40696 -0.306681 0
M  V30 1355 H 117.769 3.89855 1.59971 0
M  V30 1356 H 116.493 2.68372 1.86129 0
M  V30 1357 H 115.152 3.66586 -0.0315886 0
M  V30 1358 H 114.8 4.46765 2.31107 0
M  V30 1359 H 114.5 5.76647 1.12925 0
M  V30 1360 H 116.024 5.74748 2.06148 0
M  V30 1361 H 117.438 5.72916 -0.209877 0
M  V30 1362 H 115.835 5.92085 -0.977489 0
M  V30 1363 H 116.905 4.60948 -1.50514 0
M  V30 1364 N 118.248 0.346503 1.53744 0
M  V30 1365 C 119.195 -0.508914 2.25119 0
M  V30 1366 C 120.165 -1.09315 1.25058 0
M  V30 1367 O 121.35 -1.12921 1.53797 0
M  V30 1368 C 118.49 -1.65246 3.02965 0
M  V30 1369 C 117.603 -1.09525 4.17886 0
M  V30 1370 C 116.738 -2.20634 4.83212 0
M  V30 1371 C 115.777 -1.62279 5.90196 0
M  V30 1372 N 114.914 -2.67143 6.49291 0
M  V30 1373 H 119.754 0.106283 2.9781 0
M  V30 1374 H 117.291 0.0642227 1.4696 0
M  V30 1375 H 119.249 -2.32574 3.4636 0
M  V30 1376 H 117.879 -2.2386 2.32565 0
M  V30 1377 H 116.931 -0.312818 3.79112 0
M  V30 1378 H 118.243 -0.628444 4.94825 0
M  V30 1379 H 117.397 -2.95821 5.29693 0
M  V30 1380 H 116.136 -2.70659 4.05703 0
M  V30 1381 H 115.141 -0.855989 5.43096 0
M  V30 1382 H 116.366 -1.13102 6.69615 0
M  V30 1383 H 114.312 -3.16417 5.74645 0
M  V30 1384 H 114.229 -2.25093 7.21713 0
M  V30 1385 H 115.497 -3.4209 7.00425 0
M  V30 1386 N 119.726 -1.57421 0.075193 0
M  V30 1387 C 120.673 -2.12915 -0.890843 0
M  V30 1388 C 121.643 -1.04252 -1.29309 0
M  V30 1389 O 122.828 -1.31933 -1.37834 0
M  V30 1390 C 119.968 -2.69795 -2.15186 0
M  V30 1391 C 119.081 -3.92624 -1.80194 0
M  V30 1392 C 118.216 -4.37736 -3.00933 0
M  V30 1393 C 117.255 -5.53205 -2.61974 0
M  V30 1394 N 116.392 -5.9326 -3.75483 0
M  V30 1395 H 121.232 -2.95156 -0.410735 0
M  V30 1396 H 118.769 -1.45854 -0.191086 0
M  V30 1397 H 120.727 -3.00883 -2.89008 0
M  V30 1398 H 119.357 -1.90313 -2.60731 0
M  V30 1399 H 118.409 -3.67977 -0.964218 0
M  V30 1400 H 119.721 -4.76482 -1.47534 0
M  V30 1401 H 118.875 -4.70503 -3.8303 0
M  V30 1402 H 117.614 -3.52739 -3.36789 0
M  V30 1403 H 116.619 -5.20086 -1.783 0
M  V30 1404 H 117.844 -6.39936 -2.27284 0
M  V30 1405 H 115.79 -5.11212 -4.11094 0
M  V30 1406 H 115.707 -6.71865 -3.46602 0
M  V30 1407 H 116.975 -6.30651 -4.58148 0
M  V30 1408 N 121.204 0.198386 -1.56346 0
M  V30 1409 C 122.444 0.92609 -1.82217 0
M  V30 1410 C 122.808 1.80584 -0.652195 0
M  V30 1411 O 124.009 2.56907 -0.790716 0
M  V30 1412 C 122.28 1.72354 -3.13096 0
M  V30 1413 S 123.839 2.50371 -3.6036 0
M  V30 1414 H 120.657 0.310677 -0.639532 0
M  V30 1415 H 123.259 0.189755 -1.94577 0
M  V30 1416 H 121.963 1.0678 -3.96265 0
M  V30 1417 H 121.494 2.50175 -3.03605 0
M  V30 1418 H 123.509 3.74488 -3.25535 0
M  V30 1419 N 122.682 1.50554 0.465978 0
M  V30 1420 C 123.91 1.65563 1.24083 0
M  V30 1421 C 124.325 0.341051 1.85694 0
M  V30 1422 O 123.682 -0.677543 1.69457 0
M  V30 1423 C 123.733 2.75051 2.34583 0
M  V30 1424 O 123.454 4.01413 1.75497 0
M  V30 1425 C 124.955 3.01078 3.25372 0
M  V30 1426 H 122.175 0.55638 0.375077 0
M  V30 1427 H 124.719 1.96807 0.555624 0
M  V30 1428 H 122.874 2.46486 2.9887 0
M  V30 1429 H 123.288 4.62002 2.48303 0
M  V30 1430 H 124.762 3.81339 3.99105 0
M  V30 1431 H 125.239 2.12349 3.84453 0
M  V30 1432 H 125.845 3.31194 2.66816 0
M  V30 1433 N 124.16 -0.719506 1.40217 0
M  V30 1434 C 125.409 -1.47486 1.37589 0
M  V30 1435 C 125.722 -1.9559 -0.0201568 0
M  V30 1436 O 126.928 -2.70973 -0.169049 0
M  V30 1437 C 125.384 -2.66575 2.41796 0
M  V30 1438 C 124.992 -2.25358 3.87192 0
M  V30 1439 C 126.736 -3.4433 2.48269 0
M  V30 1440 C 124.643 -3.41262 4.83005 0
M  V30 1441 H 123.573 -0.553901 0.511576 0
M  V30 1442 H 126.224 -0.783427 1.65936 0
M  V30 1443 H 124.606 -3.3787 2.06543 0
M  V30 1444 H 125.78 -1.61509 4.31569 0
M  V30 1445 H 124.095 -1.60657 3.84159 0
M  V30 1446 H 126.692 -4.30569 3.17041 0
M  V30 1447 H 127.035 -3.87872 1.51198 0
M  V30 1448 H 127.568 -2.80076 2.82493 0
M  V30 1449 H 124.307 -3.02755 5.81394 0
M  V30 1450 H 123.827 -4.0404 4.43297 0
M  V30 1451 H 125.506 -4.07383 5.02641 0
M  V30 1452 N 125.638 -1.25649 -0.95132 0
M  V30 1453 C 126.548 -1.08073 -2.08224 0
M  V30 1454 C 127.564 -0.0169666 -1.73992 0
M  V30 1455 O 128.74 -0.218593 -2.0021 0
M  V30 1456 C 125.805 -0.704922 -3.39458 0
M  V30 1457 C 124.866 -1.84699 -3.87537 0
M  V30 1458 C 124.099 -1.48902 -5.12508 0
M  V30 1459 O 124.322 -0.386156 -5.69091 0
M  V30 1460 O 123.256 -2.32033 -5.55378 0
M  V30 1461 H 127.082 -2.02924 -2.25954 0
M  V30 1462 H 124.667 -1.04618 -1.06656 0
M  V30 1463 H 126.549 -0.507609 -4.18332 0
M  V30 1464 H 125.224 0.214291 -3.2299 0
M  V30 1465 H 124.131 -2.09919 -3.09653 0
M  V30 1466 H 125.464 -2.74557 -4.08509 0
M  V30 1467 N 127.117 1.15442 -1.07289 0
M  V30 1468 C 128.342 1.90638 -0.816828 0
M  V30 1469 C 128.767 1.77445 0.624083 0
M  V30 1470 O 128.125 1.10671 1.43602 0
M  V30 1471 C 128.173 3.39008 -1.22906 0
M  V30 1472 O 127.277 4.10701 -0.373975 0
M  V30 1473 H 126.618 0.593555 -0.297638 0
M  V30 1474 H 129.148 1.46198 -1.43134 0
M  V30 1475 H 129.158 3.89801 -1.20497 0
M  V30 1476 H 127.833 3.47929 -2.27856 0
M  V30 1477 H 126.41 3.70046 -0.460499 0
M  V30 1478 N 128.595 0.856903 1.32268 0
M  V30 1479 C 129.844 0.457599 1.96441 0
M  V30 1480 C 130.157 -0.992426 1.68553 0
M  V30 1481 O 131.363 -1.49727 2.26482 0
M  V30 1482 C 129.819 0.767358 3.51624 0
M  V30 1483 C 129.427 2.23326 3.88367 0
M  V30 1484 C 131.171 0.435887 4.22256 0
M  V30 1485 C 129.078 2.48613 5.36606 0
M  V30 1486 H 128.008 0.167387 0.735185 0
M  V30 1487 H 130.659 1.048 1.5063 0
M  V30 1488 H 129.041 0.106367 3.95857 0
M  V30 1489 H 130.215 2.93623 3.55137 0
M  V30 1490 H 128.53 2.52948 3.30766 0
M  V30 1491 H 131.127 0.602202 5.31298 0
M  V30 1492 H 131.47 -0.622672 4.11617 0
M  V30 1493 H 132.003 1.05286 3.83614 0
M  V30 1494 H 128.742 3.53101 5.52268 0
M  V30 1495 H 128.262 1.82896 5.71235 0
M  V30 1496 H 129.941 2.32676 6.03714 0
M  V30 1497 N 130.073 -1.45103 0.615059 0
M  V30 1498 C 131.32 -2.02183 0.113179 0
M  V30 1499 C 131.648 -1.48249 -1.25906 0
M  V30 1500 O 130.903 -0.650265 -1.84581 0
M  V30 1501 C 131.202 -3.57386 0.0318797 0
M  V30 1502 C 130.868 -4.30505 1.34077 0
M  V30 1503 C 129.53 -4.50197 1.69929 0
M  V30 1504 C 131.882 -4.72238 2.20546 0
M  V30 1505 C 129.21 -5.08881 2.91988 0
M  V30 1506 C 131.562 -5.32272 3.41861 0
M  V30 1507 C 130.226 -5.50187 3.77956 0
M  V30 1508 H 129.496 -0.739842 0.0414151 0
M  V30 1509 H 132.143 -1.74073 0.798168 0
M  V30 1510 H 130.448 -3.84817 -0.736409 0
M  V30 1511 H 132.145 -3.99264 -0.372712 0
M  V30 1512 H 128.735 -4.15496 1.05173 0
M  V30 1513 H 132.919 -4.56751 1.94146 0
M  V30 1514 H 128.175 -5.20939 3.2005 0
M  V30 1515 H 132.349 -5.63563 4.09109 0
M  V30 1516 H 129.976 -5.95427 4.72622 0
M  V30 1517 N 131.551 -0.354651 -1.53558 0
M  V30 1518 C 132.962 0.126902 -1.86268 0
M  V30 1519 C 133.313 1.49075 -1.27558 0
M  V30 1520 O 132.438 2.08105 -0.5934 0
M  V30 1521 C 133.033 0.237046 -3.3797 0
M  V30 1522 C 131.592 0.662842 -3.70518 0
M  V30 1523 C 130.739 -0.196652 -2.76602 0
M  V30 1524 H 133.69 -0.573849 -1.47962 0
M  V30 1525 H 133.711 1.06259 -3.65362 0
M  V30 1526 H 133.223 -0.755725 -3.80671 0
M  V30 1527 H 131.324 1.66424 -3.33367 0
M  V30 1528 H 131.437 0.445034 -4.77029 0
M  V30 1529 H 129.801 0.332763 -2.52517 0
M  V30 1530 H 130.584 -1.18676 -3.22135 0
M  V30 1531 N 133.029 1.57378 -0.0835403 0
M  V30 1532 C 134.277 1.93547 0.581718 0
M  V30 1533 C 134.598 0.96524 1.69435 0
M  V30 1534 O 133.868 0.0153369 1.95894 0
M  V30 1535 H 132.448 0.714521 0.217874 0
M  V30 1536 H 135.11 1.94366 -0.144158 0
M  V30 1537 H 134.206 2.95665 0.999423 0
M  V30 1538 N 134.507 -0.190092 1.56449 0
M  V30 1539 C 135.754 -0.909705 1.80916 0
M  V30 1540 C 136.082 -1.83047 0.657583 0
M  V30 1541 O 135.337 -1.92428 -0.356356 0
M  V30 1542 C 135.636 -1.75382 3.1141 0
M  V30 1543 C 135.302 -0.983606 4.40041 0
M  V30 1544 C 133.964 -0.770967 4.74984 0
M  V30 1545 C 136.316 -0.442024 5.19322 0
M  V30 1546 C 133.644 -0.0053448 5.867 0
M  V30 1547 C 135.996 0.310412 6.31838 0
M  V30 1548 C 134.66 0.534023 6.6536 0
M  V30 1549 H 133.93 -0.332885 0.662019 0
M  V30 1550 H 136.577 -0.175762 1.90692 0
M  V30 1551 H 134.882 -2.55659 2.96893 0
M  V30 1552 H 136.579 -2.31331 3.27547 0
M  V30 1553 H 133.169 -1.15936 4.12622 0
M  V30 1554 H 137.353 -0.593693 4.92736 0
M  V30 1555 H 132.609 0.177825 6.11141 0
M  V30 1556 H 136.783 0.737419 6.92485 0
M  V30 1557 H 134.41 1.12918 7.51767 0
M  V30 1558 N 135.985 -1.50799 -0.457987 0
M  V30 1559 C 136.948 -1.7005 -1.53674 0
M  V30 1560 C 137.948 -0.570881 -1.50325 0
M  V30 1561 O 139.138 -0.838126 -1.52712 0
M  V30 1562 C 136.27 -1.73788 -2.93276 0
M  V30 1563 H 137.463 -2.66306 -1.37917 0
M  V30 1564 H 135.016 -1.40477 -0.685271 0
M  V30 1565 H 135.751 -0.792717 -3.14462 0
M  V30 1566 H 135.536 -2.55864 -2.97113 0
M  V30 1567 H 137.026 -1.90591 -3.71571 0
M  V30 1568 N 137.463 0.71206 -1.40597 0
M  V30 1569 C 138.688 1.50617 -1.42581 0
M  V30 1570 C 139.113 1.88079 -0.0282102 0
M  V30 1571 O 138.471 1.53511 0.964579 0
M  V30 1572 C 138.519 2.7557 -2.3258 0
M  V30 1573 O 137.623 3.72414 -1.77148 0
M  V30 1574 H 136.964 0.453966 -0.484573 0
M  V30 1575 H 139.494 0.876649 -1.84868 0
M  V30 1576 H 139.504 3.2406 -2.47889 0
M  V30 1577 H 138.179 2.47639 -3.34138 0
M  V30 1578 H 136.756 3.31276 -1.71204 0
M  V30 1579 N 138.941 1.26152 0.944643 0
M  V30 1580 C 139.873 1.03199 2.04652 0
M  V30 1581 C 140.886 -0.00642356 1.62799 0
M  V30 1582 O 142.075 0.233263 1.76969 0
M  V30 1583 C 139.175 0.540111 3.34568 0
M  V30 1584 C 138.348 1.64697 4.05208 0
M  V30 1585 C 137.407 1.15374 5.13396 0
M  V30 1586 O 136.433 1.85013 5.38293 0
M  V30 1587 N 137.635 0.00031529 5.805 0
M  V30 1588 H 140.4 1.9808 2.2491 0
M  V30 1589 H 137.961 1.17491 1.11389 0
M  V30 1590 H 139.953 0.194401 4.04233 0
M  V30 1591 H 138.523 -0.315021 3.11009 0
M  V30 1592 H 137.743 2.16379 3.29506 0
M  V30 1593 H 139.031 2.3903 4.49157 0
M  V30 1594 H 138.429 -0.581336 5.62705 0
M  V30 1595 H 136.986 -0.286346 6.51171 0
M  V30 1596 N 140.419 -1.14872 1.07899 0
M  V30 1597 C 141.369 -2.17809 0.674027 0
M  V30 1598 C 142.353 -1.58008 -0.303699 0
M  V30 1599 O 143.545 -1.76616 -0.11654 0
M  V30 1600 C 140.674 -3.43208 0.0793318 0
M  V30 1601 C 139.76 -4.10051 1.08253 0
M  V30 1602 N 140.151 -4.52296 2.2641 0
M  V30 1603 C 138.449 -4.36469 0.917124 0
M  V30 1604 C 139.15 -5.04199 2.901 0
M  V30 1605 N 138.126 -4.98088 2.17736 0
M  V30 1606 H 141.928 -2.48207 1.57386 0
M  V30 1607 H 139.442 -1.315 0.952976 0
M  V30 1608 H 141.439 -4.16272 -0.228719 0
M  V30 1609 H 140.099 -3.14291 -0.815551 0
M  V30 1610 H 141.11 -4.45504 2.64096 0
M  V30 1611 H 137.787 -4.17432 0.0756078 0
M  V30 1612 H 139.177 -5.46802 3.90458 0
M  V30 1613 N 141.898 -0.863906 -1.31812 0
M  V30 1614 C 142.831 -0.259963 -2.26714 0
M  V30 1615 C 143.809 0.607392 -1.50829 0
M  V30 1616 O 144.993 0.562155 -1.79922 0
M  V30 1617 C 142.12 0.632456 -3.32743 0
M  V30 1618 C 141.166 -0.162743 -4.26189 0
M  V30 1619 S 141.999 -1.53726 -5.12961 0
M  V30 1620 C 143.155 -0.650803 -6.22507 0
M  V30 1621 H 143.388 -1.06445 -2.77591 0
M  V30 1622 H 140.921 -0.662071 -1.39485 0
M  V30 1623 H 142.879 1.14167 -3.94305 0
M  V30 1624 H 141.54 1.41083 -2.80632 0
M  V30 1625 H 140.733 0.517366 -5.01338 0
M  V30 1626 H 140.335 -0.60385 -3.69093 0
M  V30 1627 H 142.627 0.141134 -6.77353 0
M  V30 1628 H 143.57 -1.37322 -6.94657 0
M  V30 1629 H 143.978 -0.221041 -5.64067 0
M  V30 1630 N 143.376 1.44774 -0.622745 0
M  V30 1631 C 144.306 2.33382 0.0741861 0
M  V30 1632 C 145.287 1.47719 0.843387 0
M  V30 1633 O 146.472 1.76458 0.810934 0
M  V30 1634 C 143.602 3.30663 1.06204 0
M  V30 1635 C 142.556 4.26079 0.405037 0
M  V30 1636 C 141.882 5.13165 1.5022 0
M  V30 1637 C 143.182 5.1781 -0.683414 0
M  V30 1638 H 144.876 2.91905 -0.665713 0
M  V30 1639 H 142.422 1.40363 -0.321587 0
M  V30 1640 H 144.375 3.9153 1.55827 0
M  V30 1641 H 143.099 2.70331 1.83272 0
M  V30 1642 H 141.758 3.66532 -0.0704683 0
M  V30 1643 H 141.406 4.49191 2.26355 0
M  V30 1644 H 141.106 5.77812 1.06803 0
M  V30 1645 H 142.63 5.76902 2.00041 0
M  V30 1646 H 144.044 5.72661 -0.270631 0
M  V30 1647 H 142.441 5.91015 -1.04023 0
M  V30 1648 H 143.511 4.59326 -1.55395 0
M  V30 1649 N 144.854 0.36279 1.53368 0
M  V30 1650 C 145.787 -0.528507 2.21996 0
M  V30 1651 C 146.765 -1.0852 1.21087 0
M  V30 1652 O 147.949 -1.14186 1.4998 0
M  V30 1653 C 145.076 -1.72893 2.91249 0
M  V30 1654 C 144.122 -1.29994 4.06207 0
M  V30 1655 S 144.955 -0.303575 5.34639 0
M  V30 1656 C 146.111 -1.51039 6.07403 0
M  V30 1657 H 146.344 0.0543423 2.9725 0
M  V30 1658 H 143.877 0.146889 1.537 0
M  V30 1659 H 145.835 -2.41751 3.31763 0
M  V30 1660 H 144.496 -2.28303 2.15724 0
M  V30 1661 H 143.689 -2.19549 4.53667 0
M  V30 1662 H 143.291 -0.690608 3.67569 0
M  V30 1663 H 145.583 -2.44186 6.31965 0
M  V30 1664 H 146.526 -1.07721 6.99858 0
M  V30 1665 H 146.934 -1.71518 5.37812 0
M  V30 1666 N 146.332 -1.57332 0.0918853 0
M  V30 1667 C 147.748 -1.57389 -0.264766 0
M  V30 1668 C 147.948 -1.10281 -1.68643 0
M  V30 1669 O 147.004 -0.777801 -2.40222 0
M  V30 1670 C 148.317 -3.00648 -0.0561195 0
M  V30 1671 C 149.865 -3.12754 -0.124116 0
M  V30 1672 C 150.34 -4.57965 0.0564972 0
M  V30 1673 N 151.831 -4.632 0.00155611 0
M  V30 1674 C 152.566 -5.73281 0.116598 0
M  V30 1675 N 152.062 -6.92208 0.286294 0
M  V30 1676 N 153.855 -5.6207 0.0580973 0
M  V30 1677 H 146.006 -1.86262 1.02079 0
M  V30 1678 H 148.269 -0.859579 0.399786 0
M  V30 1679 H 147.975 -3.393 0.925669 0
M  V30 1680 H 147.849 -3.68623 -0.799823 0
M  V30 1681 H 150.236 -2.73976 -1.09641 0
M  V30 1682 H 150.317 -2.47377 0.651024 0
M  V30 1683 H 149.961 -4.97436 1.02564 0
M  V30 1684 H 149.891 -5.21399 -0.738297 0
M  V30 1685 H 152.382 -3.77686 -0.127192 0
M  V30 1686 H 152.695 -7.71934 0.365676 0
M  V30 1687 H 151.04 -6.94254 0.32192 0
M  V30 1688 H 154.231 -4.68043 -0.0733204 0
M  V30 1689 H 154.404 -6.47824 0.151203 0
M  V30 1690 N 147.81 0.181792 -1.56548 0
M  V30 1691 C 149.035 0.920019 -1.85877 0
M  V30 1692 C 149.46 1.75494 -0.677021 0
M  V30 1693 O 148.818 1.77399 0.374056 0
M  V30 1694 C 148.866 1.78112 -3.13542 0
M  V30 1695 O 147.97 2.88152 -2.95029 0
M  V30 1696 H 147.311 0.258334 -0.611686 0
M  V30 1697 H 149.841 0.183092 -2.03779 0
M  V30 1698 H 149.851 2.18314 -3.44678 0
M  V30 1699 H 148.526 1.16777 -3.99169 0
M  V30 1700 H 147.103 2.51609 -2.75222 0
M  V30 1701 N 149.288 1.51039 0.449983 0
M  V30 1702 C 150.218 1.74379 1.55288 0
M  V30 1703 C 151.199 0.593236 1.5942 0
M  V30 1704 O 152.384 0.834625 1.7535 0
M  V30 1705 C 149.514 1.85728 2.93466 0
M  V30 1706 C 148.468 3.01078 3.04197 0
M  V30 1707 C 147.794 2.97595 4.44231 0
M  V30 1708 C 149.094 4.41254 2.7945 0
M  V30 1709 H 150.788 2.66725 1.36008 0
M  V30 1710 H 148.334 1.2835 0.652864 0
M  V30 1711 H 150.287 2.0064 3.70569 0
M  V30 1712 H 149.011 0.900207 3.13949 0
M  V30 1713 H 147.67 2.85851 2.29531 0
M  V30 1714 H 147.318 1.99691 4.61663 0
M  V30 1715 H 147.018 3.75046 4.52343 0
M  V30 1716 H 148.542 3.14583 5.23326 0
M  V30 1717 H 149.956 4.56897 3.46292 0
M  V30 1718 H 148.353 5.20315 2.98985 0
M  V30 1719 H 149.423 4.52164 1.75144 0
M  V30 1720 N 150.766 -0.704594 1.40972 0
M  V30 1721 C 151.714 -1.83994 1.42299 0
M  V30 1722 C 152.708 -1.66684 0.302111 0
M  V30 1723 O 153.914 -1.73655 0.473697 0
M  V30 1724 H 150.289 -0.606171 0.44504 0
M  V30 1725 H 152.26 -1.79992 2.38003 0
M  V30 1726 C 151.009 -3.21946 1.31323 0
M  V30 1727 H 150.332 -3.35878 2.16855 0
M  V30 1728 H 151.772 -4.01491 1.36311 0
M  V30 1729 C 150.231 -3.36891 0.0245977 0
M  V30 1730 O 150.761 -3.90687 -0.934153 0
M  V30 1731 N 148.967 -2.90559 -0.0485243 0
M  V30 1732 H 148.514 -2.46968 0.732419 0
M  V30 1733 H 148.472 -3.00937 -0.910171 0
M  V30 1734 N 152.244 -1.26651 -0.937939 0
M  V30 1735 C 153.472 -1.15173 -1.7188 0
M  V30 1736 C 153.887 0.292668 -1.86518 0
M  V30 1737 O 153.244 1.20014 -1.37488 0
M  V30 1738 C 153.295 -1.81925 -3.12387 0
M  V30 1739 O 153.016 -3.2072 -2.98446 0
M  V30 1740 C 154.517 -1.76442 -4.06673 0
M  V30 1741 H 151.737 -0.400911 -0.538063 0
M  V30 1742 H 154.281 -1.67332 -1.1756 0
M  V30 1743 H 152.436 -1.33696 -3.63599 0
M  V30 1744 H 152.85 -3.53802 -3.872 0
M  V30 1745 H 154.324 -2.27781 -5.02812 0
M  V30 1746 H 154.801 -0.731608 -4.33064 0
M  V30 1747 H 155.407 -2.24238 -3.61382 0
M  V30 1748 N 153.722 1.14298 -1.08507 0
M  V30 1749 C 154.968 1.85633 -0.816581 0
M  V30 1750 C 155.301 1.82784 0.656021 0
M  V30 1751 O 154.576 1.25926 1.48233 0
M  V30 1752 C 154.859 3.34223 -1.34041 0
M  V30 1753 C 154.712 3.45639 -2.87843 0
M  V30 1754 C 156.031 4.29356 -0.9665 0
M  V30 1755 H 153.15 0.67402 -0.298104 0
M  V30 1756 H 155.792 1.34214 -1.34487 0
M  V30 1757 H 153.942 3.78144 -0.89104 0
M  V30 1758 H 155.614 3.10498 -3.41158 0
M  V30 1759 H 153.857 2.86817 -3.25451 0
M  V30 1760 H 154.528 4.50089 -3.19569 0
M  V30 1761 H 157.004 3.93457 -1.35391 0
M  V30 1762 H 155.88 5.3178 -1.3602 0
M  V30 1763 H 156.141 4.41919 0.126362 0
M  V30 1764 N 155.201 0.870884 1.31352 0
M  V30 1765 C 156.164 0.332243 2.26779 0
M  V30 1766 C 157.164 -0.517302 1.52252 0
M  V30 1767 O 158.354 -0.326477 1.71113 0
M  V30 1768 C 155.486 -0.528066 3.36785 0
M  V30 1769 H 156.679 1.17469 2.75937 0
M  V30 1770 H 154.232 0.64655 1.423 0
M  V30 1771 H 154.967 -1.39167 2.92922 0
M  V30 1772 H 154.752 0.0802582 3.92018 0
M  V30 1773 H 156.242 -0.897179 4.07849 0
M  V30 1774 N 156.679 -1.44442 0.630414 0
M  V30 1775 C 157.609 -2.33418 -0.0618083 0
M  V30 1776 C 158.59 -1.48165 -0.835541 0
M  V30 1777 O 159.775 -1.76886 -0.801564 0
M  V30 1778 C 156.905 -3.31222 -1.04449 0
M  V30 1779 C 155.859 -4.26288 -0.382436 0
M  V30 1780 C 155.185 -5.13954 -1.47497 0
M  V30 1781 C 156.485 -5.1744 0.710865 0
M  V30 1782 H 158.179 -2.91548 0.681184 0
M  V30 1783 H 155.725 -1.40191 0.329026 0
M  V30 1784 H 157.678 -3.92351 -1.53748 0
M  V30 1785 H 156.402 -2.71299 -1.81836 0
M  V30 1786 H 155.061 -3.6649 0.0899054 0
M  V30 1787 H 154.709 -4.50385 -2.2397 0
M  V30 1788 H 154.409 -5.7837 -1.03737 0
M  V30 1789 H 155.933 -5.77955 -1.96979 0
M  V30 1790 H 157.347 -5.72509 0.300996 0
M  V30 1791 H 155.744 -5.90455 1.07156 0
M  V30 1792 H 156.814 -4.58496 1.57829 0
M  V30 1793 N 158.157 -0.370918 -1.53173 0
M  V30 1794 C 159.403 0.217423 -2.01631 0
M  V30 1795 C 159.736 1.47983 -1.25756 0
M  V30 1796 O 159.011 1.91274 -0.352764 0
M  V30 1797 C 159.294 0.503982 -3.56556 0
M  V30 1798 C 159.147 -0.77243 -4.43118 0
M  V30 1799 C 160.466 1.30234 -4.20389 0
M  V30 1800 H 157.585 0.0775486 -0.732909 0
M  V30 1801 H 160.227 -0.496863 -1.83388 0
M  V30 1802 H 158.377 1.11248 -3.72231 0
M  V30 1803 H 160.049 -1.4098 -4.39229 0
M  V30 1804 H 158.292 -1.39167 -4.10871 0
M  V30 1805 H 158.963 -0.526815 -5.4948 0
M  V30 1806 H 161.439 0.787546 -4.08579 0
M  V30 1807 H 160.315 1.47158 -5.28806 0
M  V30 1808 H 160.576 2.31237 -3.76805 0
M  V30 1809 N 159.635 1.57281 -0.100228 0
M  V30 1810 C 161.046 1.81725 0.428107 0
M  V30 1811 C 161.397 1.01619 1.67833 0
M  V30 1812 O 160.522 0.247098 2.14985 0
M  V30 1813 C 161.117 3.29617 0.78347 0
M  V30 1814 C 159.676 3.54808 1.25653 0
M  V30 1815 C 158.823 2.76118 0.255752 0
M  V30 1816 H 161.774 1.55324 -0.325608 0
M  V30 1817 H 161.795 3.4322 1.64256 0
M  V30 1818 H 161.307 3.87893 -0.12665 0
M  V30 1819 H 159.408 3.01868 2.18418 0
M  V30 1820 H 159.521 4.63443 1.21482 0
M  V30 1821 H 157.885 2.43745 0.738956 0
M  V30 1822 H 158.668 3.37145 -0.647136 0
M  V30 1823 N 161.113 -0.173488 1.56642 0
M  V30 1824 C 162.362 -0.888758 1.81063 0
M  V30 1825 C 162.675 -1.83506 0.67712 0
M  V30 1826 O 163.881 -2.59254 0.806206 0
M  V30 1827 C 162.337 -1.63091 3.20826 0
M  V30 1828 C 161.945 -0.728357 4.4204 0
M  V30 1829 C 163.689 -2.33454 3.54541 0
M  V30 1830 C 161.596 -1.47062 5.72823 0
M  V30 1831 H 160.526 -0.335618 0.675186 0
M  V30 1832 H 163.177 -0.141712 1.82952 0
M  V30 1833 H 161.559 -2.42263 3.13248 0
M  V30 1834 H 162.733 0.0262449 4.60793 0
M  V30 1835 H 161.048 -0.134492 4.16183 0
M  V30 1836 H 163.645 -2.89578 4.49498 0
M  V30 1837 H 163.988 -3.08687 2.79317 0
M  V30 1838 H 164.521 -1.61227 3.63663 0
M  V30 1839 H 161.26 -0.760658 6.51072 0
M  V30 1840 H 160.78 -2.1986 5.58052 0
M  V30 1841 H 162.459 -2.01868 6.14702 0
M  V30 1842 N 162.591 -1.51276 -0.441967 0
M  V30 1843 C 163.524 -1.66933 -1.55591 0
M  V30 1844 C 164.502 -0.516958 -1.54163 0
M  V30 1845 O 165.686 -0.740209 -1.73358 0
M  V30 1846 C 162.813 -1.67866 -2.94174 0
M  V30 1847 C 161.859 -2.89013 -3.13646 0
M  V30 1848 S 162.692 -4.49897 -2.90436 0
M  V30 1849 C 163.848 -4.53568 -4.31308 0
M  V30 1850 H 164.081 -2.61155 -1.42076 0
M  V30 1851 H 161.614 -1.40902 -0.631341 0
M  V30 1852 H 163.572 -1.69089 -3.74058 0
M  V30 1853 H 162.233 -0.748296 -3.05056 0
M  V30 1854 H 161.426 -2.86054 -4.14957 0
M  V30 1855 H 161.028 -2.85509 -2.4158 0
M  V30 1856 H 163.32 -4.28924 -5.24434 0
M  V30 1857 H 164.263 -5.55355 -4.39303 0
M  V30 1858 H 164.671 -3.82943 -4.14747 0
M  V30 1859 N 164.069 0.697108 -1.41344 0
M  V30 1860 C 165.299 1.48377 -1.43763 0
M  V30 1861 C 165.707 1.89156 -0.0408726 0
M  V30 1862 O 165.05 1.57239 0.949812 0
M  V30 1863 C 165.112 2.7781 -2.2817 0
M  V30 1864 C 164.776 2.59244 -3.76353 0
M  V30 1865 C 165.773 2.25292 -4.68551 0
M  V30 1866 C 163.458 2.74933 -4.20378 0
M  V30 1867 C 165.452 2.07264 -6.02761 0
M  V30 1868 C 163.139 2.56521 -5.54653 0
M  V30 1869 C 164.137 2.22737 -6.4566 0
M  V30 1870 O 163.825 2.04485 -7.77458 0
M  V30 1871 H 163.557 0.463842 -0.491759 0
M  V30 1872 H 166.111 0.865934 -1.86255 0
M  V30 1873 H 164.341 3.41995 -1.8049 0
M  V30 1874 H 166.03 3.39608 -2.22309 0
M  V30 1875 H 166.796 2.12787 -4.35829 0
M  V30 1876 H 162.675 3.00213 -3.49848 0
M  V30 1877 H 166.219 1.80817 -6.73759 0
M  V30 1878 H 162.116 2.68616 -5.86955 0
M  V30 1879 H 162.884 2.1926 -7.88586 0
M  V30 1880 N 165.547 1.27147 0.931209 0
M  V30 1881 C 166.772 1.16191 1.71797 0
M  V30 1882 C 167.197 -0.278004 1.86034 0
M  V30 1883 O 166.555 -1.20137 1.35782 0
M  V30 1884 C 166.603 1.84673 3.09723 0
M  V30 1885 O 165.707 1.14231 3.96264 0
M  V30 1886 H 165.048 0.404303 0.526721 0
M  V30 1887 H 167.578 1.68152 1.1656 0
M  V30 1888 H 167.588 1.91893 3.60057 0
M  V30 1889 H 166.263 2.89421 2.98677 0
M  V30 1890 H 164.84 1.15056 3.54706 0
M  V30 1891 N 167.025 -1.13721 1.09112 0
M  V30 1892 C 168.271 -1.85413 0.836283 0
M  V30 1893 C 168.626 -1.8175 -0.631249 0
M  V30 1894 O 167.919 -1.24238 -1.45861 0
M  V30 1895 C 168.113 -3.32861 1.30146 0
M  V30 1896 C 167.942 -3.50882 2.81268 0
M  V30 1897 C 166.712 -3.65312 3.49106 0
M  V30 1898 C 168.91 -3.47196 3.7942 0
M  V30 1899 N 166.892 -3.71563 4.88686 0
M  V30 1900 C 168.263 -3.59777 5.04936 0
M  V30 1901 C 170.318 -3.30577 3.72321 0
M  V30 1902 C 169.021 -3.57455 6.24194 0
M  V30 1903 C 171.047 -3.29562 4.91063 0
M  V30 1904 C 170.409 -3.42691 6.15421 0
M  V30 1905 H 166.508 -0.694812 0.358832 0
M  V30 1906 H 169.092 -1.36246 1.39087 0
M  V30 1907 H 167.263 -3.80602 0.774361 0
M  V30 1908 H 168.995 -3.92346 0.99229 0
M  V30 1909 H 165.75 -3.6685 2.9953 0
M  V30 1910 H 166.174 -3.78387 5.61384 0
M  V30 1911 H 170.816 -3.19332 2.77105 0
M  V30 1912 H 168.534 -3.67475 7.19714 0
M  V30 1913 H 172.12 -3.17905 4.87266 0
M  V30 1914 H 171 -3.41862 7.05762 0
M  V30 1915 N 168.503 -0.877838 -1.30888 0
M  V30 1916 C 169.728 -0.506629 -2.01117 0
M  V30 1917 C 170.153 0.895564 -1.65412 0
M  V30 1918 O 169.511 1.5923 -0.866922 0
M  V30 1919 C 169.559 -0.680223 -3.54126 0
M  V30 1920 O 168.663 0.277033 -4.11468 0
M  V30 1921 H 168.004 -0.200518 -0.633 0
M  V30 1922 H 170.534 -1.18342 -1.66902 0
M  V30 1923 H 170.544 -0.5765 -4.03907 0
M  V30 1924 H 169.219 -1.70261 -3.79452 0
M  V30 1925 H 167.796 0.127606 -3.72682 0
M  V30 1926 N 169.982 1.44106 -0.638065 0
M  V30 1927 C 171.393 1.85316 -0.226894 0
M  V30 1928 C 171.744 1.53399 1.22324 0
M  V30 1929 O 170.869 0.975463 1.93167 0
M  V30 1930 C 171.464 3.3637 -0.405013 0
M  V30 1931 C 170.023 3.76369 -0.0482902 0
M  V30 1932 C 169.17 2.67921 -0.715108 0
M  V30 1933 H 172.121 1.34474 -0.842764 0
M  V30 1934 H 172.142 3.7885 0.354 0
M  V30 1935 H 171.654 3.59569 -1.46053 0
M  V30 1936 H 169.755 3.58784 1.00522 0
M  V30 1937 H 169.868 4.76856 -0.463187 0
M  V30 1938 H 168.232 2.54259 -0.149753 0
M  V30 1939 H 169.015 2.93951 -1.77335 0
M  V30 1940 N 171.46 0.379036 1.52974 0
M  V30 1941 C 172.39 -0.452706 2.29069 0
M  V30 1942 C 173.371 -1.07237 1.32039 0
M  V30 1943 O 174.556 -1.08708 1.60923 0
M  V30 1944 C 171.686 -1.5856 3.08992 0
M  V30 1945 C 170.64 -1.0925 4.13822 0
M  V30 1946 C 169.966 -2.31668 4.81907 0
M  V30 1947 C 171.266 -0.167702 5.22031 0
M  V30 1948 H 172.96 0.182181 2.98845 0
M  V30 1949 H 170.506 0.0890592 1.43724 0
M  V30 1950 H 172.459 -2.1742 3.6098 0
M  V30 1951 H 171.183 -2.24792 2.36931 0
M  V30 1952 H 169.842 -0.526494 3.628 0
M  V30 1953 H 169.49 -2.96386 4.06404 0
M  V30 1954 H 169.19 -1.9934 5.52754 0
M  V30 1955 H 170.714 -2.91189 5.36695 0
M  V30 1956 H 172.128 -0.664186 5.6944 0
M  V30 1957 H 170.525 0.0653265 6.00064 0
M  V30 1958 H 171.595 0.786347 4.78482 0
M  V30 1959 N 172.938 -1.57226 0.108567 0
M  V30 1960 C 173.87 -2.11809 -0.875752 0
M  V30 1961 C 174.883 -1.05839 -1.23701 0
M  V30 1962 O 176.072 -1.33245 -1.18778 0
M  V30 1963 C 173.172 -2.59411 -2.18081 0
M  V30 1964 C 172.345 -3.89364 -1.99284 0
M  V30 1965 C 171.404 -4.22672 -3.13424 0
M  V30 1966 O 170.43 -4.91668 -2.86795 0
M  V30 1967 N 171.632 -3.79154 -4.3957 0
M  V30 1968 H 174.397 -2.9689 -0.409477 0
M  V30 1969 H 171.958 -1.61721 -0.076158 0
M  V30 1970 H 173.95 -2.7873 -2.93414 0
M  V30 1971 H 172.52 -1.79268 -2.5609 0
M  V30 1972 H 171.74 -3.79059 -1.08203 0
M  V30 1973 H 173.028 -4.74358 -1.84017 0
M  V30 1974 H 172.426 -3.23486 -4.64083 0
M  V30 1975 H 170.983 -4.03602 -5.11809 0
M  V30 1976 N 174.416 0.165178 -1.56732 0
M  V30 1977 C 175.348 1.22911 -1.93457 0
M  V30 1978 C 176.361 1.40152 -0.828333 0
M  V30 1979 O 177.55 1.40046 -1.10677 0
M  V30 1980 C 174.65 2.59686 -2.17753 0
M  V30 1981 C 173.823 2.63663 -3.48999 0
M  V30 1982 C 172.882 3.81845 -3.62051 0
M  V30 1983 O 171.908 3.67559 -4.34613 0
M  V30 1984 N 173.11 4.98557 -2.97357 0
M  V30 1985 H 175.875 0.917118 -2.85323 0
M  V30 1986 H 173.436 0.354895 -1.57962 0
M  V30 1987 H 175.428 3.37225 -2.23743 0
M  V30 1988 H 173.998 2.83251 -1.32242 0
M  V30 1989 H 173.218 1.72173 -3.54612 0
M  V30 1990 H 174.506 2.63336 -4.35352 0
M  V30 1991 H 173.904 5.13065 -2.38287 0
M  V30 1992 H 172.461 5.73936 -3.08934 0
M  V30 1993 N 175.894 1.51508 0.433938 0
M  V30 1994 C 176.842 1.73646 1.54757 0
M  V30 1995 C 177.836 0.602854 1.5831 0
M  V30 1996 O 179.042 0.784318 1.62014 0
M  V30 1997 H 175.417 0.548718 0.51421 0
M  V30 1998 H 177.388 2.66991 1.33261 0
M  V30 1999 C 176.137 1.88172 2.92381 0
M  V30 2000 H 175.46 2.74808 2.90381 0
M  V30 2001 H 176.9 2.07672 3.6966 0
M  V30 2002 C 175.359 0.64239 3.30719 0
M  V30 2003 O 175.889 -0.201362 4.01195 0
M  V30 2004 N 174.095 0.485489 2.86516 0
M  V30 2005 H 173.642 1.17318 2.29334 0
M  V30 2006 H 173.6 -0.342482 3.12529 0
M  V30 2007 N 177.372 -0.689602 1.41712 0
M  V30 2008 C 178.619 -1.44966 1.4139 0
M  V30 2009 C 178.947 -1.94484 0.025105 0
M  V30 2010 O 178.202 -1.70307 -0.964048 0
M  V30 2011 C 178.501 -2.67298 2.37247 0
M  V30 2012 C 178.167 -2.36405 3.83958 0
M  V30 2013 C 176.829 -2.27691 4.23923 0
M  V30 2014 C 179.181 -2.11043 4.76561 0
M  V30 2015 C 176.509 -1.91719 5.54492 0
M  V30 2016 C 178.861 -1.76578 6.07456 0
M  V30 2017 C 177.525 -1.66363 6.46436 0
M  V30 2018 H 176.795 -0.53047 0.517381 0
M  V30 2019 H 179.442 -0.787655 1.74552 0
M  V30 2020 H 177.747 -3.38461 1.9736 0
M  V30 2021 H 179.444 -3.25452 2.34269 0
M  V30 2022 H 176.034 -2.44085 3.52308 0
M  V30 2023 H 180.218 -2.16717 4.46483 0
M  V30 2024 H 175.474 -1.82367 5.83568 0
M  V30 2025 H 179.648 -1.55974 6.78708 0
M  V30 2026 H 177.275 -1.38258 7.47522 0
M  V30 2027 N 178.85 -1.27639 -0.924453 0
M  V30 2028 C 179.783 -1.04966 -2.02626 0
M  V30 2029 C 180.761 0.0309505 -1.62571 0
M  V30 2030 O 181.945 -0.114846 -1.8815 0
M  V30 2031 C 179.072 -0.59292 -3.3347 0
M  V30 2032 C 178.118 -1.66858 -3.92506 0
M  V30 2033 S 178.951 -3.2619 -4.24689 0
M  V30 2034 C 180.107 -2.82325 -5.58609 0
M  V30 2035 H 180.34 -1.98252 -2.21547 0
M  V30 2036 H 177.873 -1.11506 -1.06798 0
M  V30 2037 H 179.831 -0.336086 -4.09122 0
M  V30 2038 H 178.492 0.319939 -3.12466 0
M  V30 2039 H 177.685 -1.30038 -4.86935 0
M  V30 2040 H 177.287 -1.87766 -3.2345 0
M  V30 2041 H 179.579 -2.2783 -6.38044 0
M  V30 2042 H 180.522 -3.75511 -6.00331 0
M  V30 2043 H 180.93 -2.21367 -5.19285 0
M  V30 2044 N 180.328 1.1314 -1.09713 0
M  V30 2045 C 181.574 1.84757 -0.836224 0
M  V30 2046 C 181.907 1.8347 0.636598 0
M  V30 2047 O 181.182 1.27491 1.46889 0
M  V30 2048 C 181.465 3.32782 -1.37578 0
M  V30 2049 C 181.318 3.42567 -2.91493 0
M  V30 2050 C 182.637 4.28307 -1.01198 0
M  V30 2051 H 179.756 0.67082 -0.305236 0
M  V30 2052 H 182.398 1.3278 -1.35903 0
M  V30 2053 H 180.548 3.77177 -0.931097 0
M  V30 2054 H 182.22 3.06862 -3.44432 0
M  V30 2055 H 180.463 2.83349 -3.28475 0
M  V30 2056 H 181.134 4.46674 -3.24324 0
M  V30 2057 H 183.61 3.91999 -1.39556 0
M  V30 2058 H 182.486 5.30307 -1.41653 0
M  V30 2059 H 182.747 4.42029 0.0794833 0
M  V30 2060 N 181.806 0.884767 1.30421 0
M  V30 2061 C 182.716 0.355398 2.31892 0
M  V30 2062 C 183.732 -0.542261 1.65335 0
M  V30 2063 O 184.908 -0.435432 1.96637 0
M  V30 2064 C 181.973 -0.421661 3.44126 0
M  V30 2065 C 181.034 0.505727 4.26311 0
M  V30 2066 C 180.267 -0.234343 5.33185 0
M  V30 2067 O 180.49 -1.46045 5.51386 0
M  V30 2068 O 179.424 0.415443 6.00465 0
M  V30 2069 H 183.25 1.19685 2.79122 0
M  V30 2070 H 180.835 0.648596 1.34587 0
M  V30 2071 H 182.717 -0.861641 4.12497 0
M  V30 2072 H 181.392 -1.23942 2.99032 0
M  V30 2073 H 180.299 0.994513 3.60639 0
M  V30 2074 H 181.632 1.28948 4.75009 0
M  V30 2075 N 183.284 -1.43765 0.645699 0
M  V30 2076 C 184.561 -1.9541 0.0862963 0
M  V30 2077 C 184.941 -1.58725 -1.39175 0
M  V30 2078 O 184.289 -0.868581 -2.11348 0
M  V30 2079 C 184.499 -3.47488 0.324565 0
M  V30 2080 C 185.847 -4.24001 0.225497 0
M  V30 2081 O 186.871 -3.55274 0.256715 0
M  V30 2082 O 185.73 -5.46313 0.142801 0
M  V30 2083 H 182.824 -0.826882 -0.0139483 0
M  V30 2084 H 185.37 -1.53743 0.718415 0
M  V30 2085 H 184.142 -3.67289 1.3496 0
M  V30 2086 H 183.765 -3.96135 -0.340987 0
M  V30 2087 N 184.763 -0.387143 -1.52771 0
M  V30 2088 C 185.673 0.456442 -2.30117 0
M  V30 2089 C 186.689 1.07342 -1.36944 0
M  V30 2090 O 187.865 1.07971 -1.70013 0
M  V30 2091 C 184.93 1.56957 -3.09136 0
M  V30 2092 C 183.991 0.977916 -4.18014 0
M  V30 2093 C 183.224 2.038 -4.93256 0
M  V30 2094 O 183.447 3.25271 -4.68567 0
M  V30 2095 O 182.381 1.6565 -5.78657 0
M  V30 2096 H 186.207 -0.17359 -3.03203 0
M  V30 2097 H 183.792 -0.150919 -1.48636 0
M  V30 2098 H 185.674 2.21628 -3.58412 0
M  V30 2099 H 184.349 2.18461 -2.38865 0
M  V30 2100 H 183.256 0.294525 -3.72939 0
M  V30 2101 H 184.589 0.407128 -4.90513 0
M  V30 2102 N 186.241 1.57166 -0.116904 0
M  V30 2103 C 187.469 1.99473 0.549383 0
M  V30 2104 C 187.884 0.996541 1.60357 0
M  V30 2105 O 187.241 -0.0108731 1.82497 0
M  V30 2106 C 187.292 3.41788 1.17741 0
M  V30 2107 O 187.013 4.37788 0.165362 0
M  V30 2108 C 188.514 3.99216 1.92722 0
M  V30 2109 H 185.734 0.655009 0.145616 0
M  V30 2110 H 188.278 2.03494 -0.202625 0
M  V30 2111 H 186.433 3.38713 1.88021 0
M  V30 2112 H 186.847 5.20806 0.621403 0
M  V30 2113 H 188.321 5.00882 2.31995 0
M  V30 2114 H 188.798 3.3824 2.80161 0
M  V30 2115 H 189.404 4.0583 1.27209 0
M  V30 2116 N 187.719 -0.156864 1.56817 0
M  V30 2117 C 188.965 -0.872416 1.83076 0
M  V30 2118 C 189.298 -1.81261 0.697001 0
M  V30 2119 O 188.573 -1.92171 -0.30008 0
M  V30 2120 C 188.856 -1.65551 3.19789 0
M  V30 2121 C 188.709 -0.737467 4.43713 0
M  V30 2122 C 190.028 -2.62012 3.53606 0
M  V30 2123 H 187.147 -0.315715 0.665953 0
M  V30 2124 H 189.789 -0.138004 1.89498 0
M  V30 2125 H 187.939 -2.28159 3.14445 0
M  V30 2126 H 189.611 -0.123143 4.61136 0
M  V30 2127 H 187.854 -0.0464067 4.33775 0
M  V30 2128 H 188.525 -1.32122 5.35955 0
M  V30 2129 H 191.001 -2.09525 3.59497 0
M  V30 2130 H 189.877 -3.13861 4.50314 0
M  V30 2131 H 190.138 -3.42902 2.79053 0
M  V30 2132 N 189.197 -1.51736 -0.425897 0
M  V30 2133 C 190.127 -1.76827 -1.52494 0
M  V30 2134 C 191.108 -0.618524 -1.58456 0
M  V30 2135 O 192.293 -0.862416 -1.74 0
M  V30 2136 C 189.423 -1.90374 -2.90474 0
M  V30 2137 C 188.377 -3.0588 -2.99369 0
M  V30 2138 C 187.703 -3.04625 -4.3944 0
M  V30 2139 C 189.003 -4.45644 -2.72394 0
M  V30 2140 H 190.697 -2.68855 -1.31748 0
M  V30 2141 H 188.243 -1.29372 -0.632362 0
M  V30 2142 H 190.196 -2.0651 -3.6733 0
M  V30 2143 H 188.92 -0.95004 -3.12477 0
M  V30 2144 H 187.579 -2.89467 -2.24954 0
M  V30 2145 H 187.227 -2.0701 -4.58428 0
M  V30 2146 H 186.927 -3.82195 -4.46319 0
M  V30 2147 H 188.451 -3.22869 -5.18255 0
M  V30 2148 H 189.865 -4.62348 -3.38979 0
M  V30 2149 H 188.262 -5.25006 -2.9067 0
M  V30 2150 H 189.332 -4.54893 -1.67929 0
M  V30 2151 N 190.675 0.682077 -1.42076 0
M  V30 2152 C 191.915 1.45424 -1.43636 0
M  V30 2153 C 192.279 1.91939 -0.0484001 0
M  V30 2154 O 193.48 2.6873 0.0612514 0
M  V30 2155 C 191.751 2.62427 -2.42625 0
M  V30 2156 S 193.31 3.51379 -2.62827 0
M  V30 2157 H 190.128 0.496779 -0.508657 0
M  V30 2158 H 192.73 0.794645 -1.78621 0
M  V30 2159 H 191.434 2.26481 -3.42249 0
M  V30 2160 H 190.965 3.33266 -2.09039 0
M  V30 2161 H 192.98 4.58141 -1.9058 0
M  V30 2162 N 192.153 1.28127 0.917671 0
M  V30 2163 C 193.101 1.11569 2.04096 0
M  V30 2164 C 194.095 0.0360242 1.69362 0
M  V30 2165 O 195.301 0.194501 1.78946 0
M  V30 2166 H 191.676 0.344097 0.668656 0
M  V30 2167 H 193.647 2.06711 2.15205 0
M  V30 2168 C 192.396 0.790197 3.38602 0
M  V30 2169 H 191.719 1.61293 3.6582 0
M  V30 2170 H 193.159 0.714271 4.1794 0
M  V30 2171 C 191.618 -0.505897 3.3308 0
M  V30 2172 O 192.148 -1.53736 3.71117 0
M  V30 2173 N 190.354 -0.505193 2.86175 0
M  V30 2174 H 189.901 0.334621 2.55417 0
M  V30 2175 H 189.859 -1.37243 2.82863 0
M  V30 2176 N 193.631 -1.12557 1.10312 0
M  V30 2177 C 194.88 -1.83395 0.839588 0
M  V30 2178 C 195.193 -1.84939 -0.636929 0
M  V30 2179 O 196.399 -2.51761 -1.01631 0
M  V30 2180 C 194.855 -3.29303 1.45215 0
M  V30 2181 C 194.463 -3.36122 2.96186 0
M  V30 2182 C 196.207 -4.05121 1.26796 0
M  V30 2183 C 194.114 -4.76357 3.50483 0
M  V30 2184 H 193.044 -0.687133 0.310425 0
M  V30 2185 H 195.695 -1.26746 1.32694 0
M  V30 2186 H 194.077 -3.85812 0.892469 0
M  V30 2187 H 195.251 -2.89559 3.58458 0
M  V30 2188 H 193.566 -2.73776 3.13745 0
M  V30 2189 H 196.163 -5.08668 1.64806 0
M  V30 2190 H 196.506 -4.15773 0.209409 0
M  V30 2191 H 197.039 -3.54967 1.79563 0
M  V30 2192 H 193.778 -4.70899 4.55998 0
M  V30 2193 H 193.298 -5.23377 2.92978 0
M  V30 2194 H 194.977 -5.45294 3.48228 0
M  V30 2195 N 195.109 -0.891671 -1.2995 0
M  V30 2196 C 196.52 -0.563104 -1.78006 0
M  V30 2197 C 196.871 0.920978 -1.73241 0
M  V30 2198 O 195.996 1.71987 -1.31337 0
M  V30 2199 C 196.591 -1.01539 -3.23226 0
M  V30 2200 C 195.15 -0.738124 -3.69092 0
M  V30 2201 C 194.297 -1.19461 -2.50249 0
M  V30 2202 H 197.248 -1.07522 -1.16725 0
M  V30 2203 H 197.269 -0.347217 -3.78912 0
M  V30 2204 H 196.781 -2.09555 -3.26662 0
M  V30 2205 H 194.882 0.329766 -3.71138 0
M  V30 2206 H 194.995 -1.33037 -4.60259 0
M  V30 2207 H 193.359 -0.613787 -2.47194 0
M  V30 2208 H 194.142 -2.28265 -2.56417 0
M  V30 2209 N 196.587 1.43421 -0.653314 0
M  V30 2210 C 197.817 2.05864 -0.174238 0
M  V30 2211 C 198.225 1.49052 1.16534 0
M  V30 2212 O 197.568 0.616481 1.73047 0
M  V30 2213 C 197.63 3.59499 -0.00875873 0
M  V30 2214 C 197.294 4.38893 -1.27364 0
M  V30 2215 C 198.291 4.70947 -2.20239 0
M  V30 2216 C 195.976 4.789 -1.51525 0
M  V30 2217 C 197.97 5.41916 -3.35568 0
M  V30 2218 C 195.657 5.49614 -2.67147 0
M  V30 2219 C 196.655 5.81044 -3.58994 0
M  V30 2220 O 196.343 6.50313 -4.72597 0
M  V30 2221 H 196.075 0.670345 -0.0872549 0
M  V30 2222 H 198.629 1.84913 -0.894226 0
M  V30 2223 H 196.859 3.79025 0.7666 0
M  V30 2224 H 198.548 4.0364 0.427687 0
M  V30 2225 H 199.314 4.40558 -2.02815 0
M  V30 2226 H 195.193 4.53843 -0.809158 0
M  V30 2227 H 198.737 5.66365 -4.07279 0
M  V30 2228 H 194.634 5.79419 -2.84505 0
M  V30 2229 H 195.402 6.68795 -4.71864 0
M  V30 2230 N 198.065 0.39524 1.52563 0
M  V30 2231 C 198.998 -0.4813 2.23067 0
M  V30 2232 C 199.976 -1.05927 1.23362 0
M  V30 2233 O 201.16 -1.10979 1.52368 0
M  V30 2234 C 198.287 -1.66676 2.9485 0
M  V30 2235 C 197.333 -1.21348 4.08873 0
M  V30 2236 S 198.166 -0.190102 5.35162 0
M  V30 2237 C 199.322 -1.38121 6.1047 0
M  V30 2238 H 199.555 0.117381 2.97068 0
M  V30 2239 H 197.088 0.179458 1.53354 0
M  V30 2240 H 199.046 -2.3466 3.36816 0
M  V30 2241 H 197.707 -2.23676 2.20518 0
M  V30 2242 H 196.9 -2.09877 4.58222 0
M  V30 2243 H 196.502 -0.612486 3.68951 0
M  V30 2244 H 198.794 -2.30726 6.37002 0
M  V30 2245 H 199.737 -0.928521 7.01986 0
M  V30 2246 H 200.145 -1.60071 5.41329 0
M  V30 2247 N 199.544 -1.57102 0.125237 0
M  V30 2248 C 200.792 -1.95021 -0.530198 0
M  V30 2249 C 201.113 -1.00982 -1.66816 0
M  V30 2250 O 200.383 -0.0672693 -1.95784 0
M  V30 2251 H 198.963 -0.720046 -0.198853 0
M  V30 2252 H 201.625 -1.93916 0.19564 0
M  V30 2253 H 200.721 -2.98211 -0.920681 0
M  V30 2254 N 201.022 0.148545 -1.56898 0
M  V30 2255 C 202.299 0.890019 -1.74178 0
M  V30 2256 C 202.679 1.99407 -0.692839 0
M  V30 2257 O 202.027 2.26671 0.288505 0
M  V30 2258 C 202.237 1.43389 -3.18183 0
M  V30 2259 C 203.585 1.89791 -3.79822 0
M  V30 2260 O 204.609 1.53134 -3.21603 0
M  V30 2261 O 203.468 2.57387 -4.82093 0
M  V30 2262 H 200.562 0.420496 -0.712118 0
M  V30 2263 H 203.108 0.134591 -1.69165 0
M  V30 2264 H 201.88 0.640383 -3.86024 0
M  V30 2265 H 201.503 2.25287 -3.27615 0
M  V30 2266 N 202.5 1.5196 0.417844 0
M  V30 2267 C 203.41 1.77554 1.53336 0
M  V30 2268 C 204.426 0.660655 1.6097 0
M  V30 2269 O 205.602 0.945099 1.77848 0
M  V30 2270 C 202.667 1.91291 2.89152 0
M  V30 2271 C 201.728 3.15183 2.91475 0
M  V30 2272 C 200.961 3.28256 4.20813 0
M  V30 2273 O 201.184 2.46798 5.14244 0
M  V30 2274 O 200.118 4.21356 4.29817 0
M  V30 2275 H 203.944 2.7222 1.34647 0
M  V30 2276 H 201.529 1.36698 0.602828 0
M  V30 2277 H 203.411 2.02199 3.69721 0
M  V30 2278 H 202.086 0.998129 3.07927 0
M  V30 2279 H 200.993 3.09739 2.09791 0
M  V30 2280 H 202.326 4.06414 2.77648 0
M  V30 2281 N 203.978 -0.674533 1.42435 0
M  V30 2282 C 205.224 -1.43671 1.43131 0
M  V30 2283 C 205.557 -1.94142 0.0476021 0
M  V30 2284 O 204.832 -1.70924 -0.928188 0
M  V30 2285 C 205.115 -2.63355 2.45594 0
M  V30 2286 C 204.968 -2.18514 3.93156 0
M  V30 2287 C 206.287 -3.65571 2.45043 0
M  V30 2288 H 203.406 -0.521077 0.521198 0
M  V30 2289 H 206.048 -0.766551 1.7385 0
M  V30 2290 H 204.198 -3.2053 2.19528 0
M  V30 2291 H 205.87 -1.66504 4.30202 0
M  V30 2292 H 204.113 -1.50086 4.07009 0
M  V30 2293 H 204.784 -3.04484 4.60428 0
M  V30 2294 H 207.26 -3.18113 2.68223 0
M  V30 2295 H 206.136 -4.46893 3.18713 0
M  V30 2296 H 206.397 -4.16716 1.47649 0
M  V30 2297 N 205.456 -1.28612 -0.910864 0
M  V30 2298 C 206.403 -1.12786 -2.01365 0
M  V30 2299 C 207.373 -0.024201 -1.66082 0
M  V30 2300 O 208.558 -0.189667 -1.89855 0
M  V30 2301 C 205.698 -0.798743 -3.35729 0
M  V30 2302 C 204.811 -1.98173 -3.83864 0
M  V30 2303 C 203.946 -1.59298 -5.06752 0
M  V30 2304 C 202.985 -2.74245 -5.47226 0
M  V30 2305 N 202.122 -2.35842 -6.61304 0
M  V30 2306 H 206.962 -2.07142 -2.14234 0
M  V30 2307 H 204.499 -1.03093 -1.0493 0
M  V30 2308 H 206.457 -0.588662 -4.13026 0
M  V30 2309 H 205.087 0.10789 -3.2262 0
M  V30 2310 H 204.139 -2.30386 -3.02699 0
M  V30 2311 H 205.451 -2.84343 -4.09818 0
M  V30 2312 H 204.605 -1.34513 -5.916 0
M  V30 2313 H 203.344 -0.702618 -4.82612 0
M  V30 2314 H 202.349 -2.99725 -4.60918 0
M  V30 2315 H 203.574 -3.63928 -5.73353 0
M  V30 2316 H 201.52 -1.49279 -6.38789 0
M  V30 2317 H 201.437 -3.15546 -6.86998 0
M  V30 2318 H 202.705 -2.14348 -7.4945 0
M  V30 2319 N 206.934 1.1197 -1.10907 0
M  V30 2320 C 207.844 2.21433 -0.774896 0
M  V30 2321 C 208.86 1.72478 0.229657 0
M  V30 2322 O 210.036 2.01288 0.0672008 0
M  V30 2323 C 207.101 3.4602 -0.216986 0
M  V30 2324 C 206.162 4.09791 -1.27944 0
M  V30 2325 C 205.395 5.28431 -0.748055 0
M  V30 2326 O 205.618 5.68823 0.423833 0
M  V30 2327 O 204.552 5.82644 -1.51027 0
M  V30 2328 H 208.378 2.5242 -1.68873 0
M  V30 2329 H 205.963 1.20399 -0.884555 0
M  V30 2330 H 207.845 4.21304 0.090059 0
M  V30 2331 H 206.52 3.16698 0.669633 0
M  V30 2332 H 205.427 3.36265 -1.63941 0
M  V30 2333 H 206.76 4.4328 -2.13925 0
M  V30 2334 N 208.412 0.89855 1.29475 0
M  V30 2335 C 209.322 0.379974 2.31502 0
M  V30 2336 C 210.338 -0.524695 1.659 0
M  V30 2337 O 211.514 -0.414551 1.97087 0
M  V30 2338 C 208.579 -0.385138 3.44554 0
M  V30 2339 C 207.64 0.550914 4.2575 0
M  V30 2340 C 206.873 -0.177778 5.33404 0
M  V30 2341 O 207.096 -1.40189 5.52904 0
M  V30 2342 O 206.03 0.479106 5.9999 0
M  V30 2343 H 209.856 1.22639 2.77837 0
M  V30 2344 H 207.441 0.662834 1.33891 0
M  V30 2345 H 209.323 -0.817841 4.13388 0
M  V30 2346 H 207.998 -1.20763 3.0033 0
M  V30 2347 H 206.905 1.03271 3.59564 0
M  V30 2348 H 208.238 1.33979 4.73614 0
M  V30 2349 N 209.89 -1.43072 0.660911 0
M  V30 2350 C 211.167 -1.95307 0.107017 0
M  V30 2351 C 211.547 -1.60192 -1.37484 0
M  V30 2352 O 210.895 -0.890949 -2.10415 0
M  V30 2353 C 211.105 -3.47124 0.361402 0
M  V30 2354 C 212.453 -4.23738 0.270455 0
M  V30 2355 O 213.477 -3.54981 0.294382 0
M  V30 2356 O 212.336 -5.46131 0.200737 0
M  V30 2357 H 209.43 -0.826984 -0.00517729 0
M  V30 2358 H 211.976 -1.52972 0.734681 0
M  V30 2359 H 210.748 -3.65837 1.38848 0
M  V30 2360 H 210.371 -3.96475 -0.298953 0
M  V30 2361 N 211.368 -0.403325 -1.52352 0
M  V30 2362 C 212.278 0.432009 -2.30588 0
M  V30 2363 C 213.294 1.05884 -1.38075 0
M  V30 2364 O 214.47 1.06161 -1.71148 0
M  V30 2365 C 211.535 1.53669 -3.10784 0
M  V30 2366 C 210.596 0.933525 -4.19027 0
M  V30 2367 C 209.829 1.98557 -4.9539 0
M  V30 2368 O 210.052 3.20283 -4.71991 0
M  V30 2369 O 208.986 1.59504 -5.80381 0
M  V30 2370 H 212.812 -0.205739 -3.03002 0
M  V30 2371 H 210.397 -0.166675 -1.48467 0
M  V30 2372 H 212.279 2.17814 -3.60742 0
M  V30 2373 H 210.954 2.15915 -2.41169 0
M  V30 2374 H 209.861 0.254954 -3.7323 0
M  V30 2375 H 211.194 0.35508 -4.90918 0
M  V30 2376 N 212.846 1.57033 -0.133567 0
M  V30 2377 C 214.074 2.00044 0.528195 0
M  V30 2378 C 214.489 1.01349 1.59291 0
M  V30 2379 O 213.846 0.00848369 1.82498 0
M  V30 2380 C 213.897 3.43018 1.1411 0
M  V30 2381 O 213.618 4.37939 0.11892 0
M  V30 2382 C 215.119 4.01237 1.88477 0
M  V30 2383 H 212.339 0.656517 0.138661 0
M  V30 2384 H 214.883 2.03267 -0.224196 0
M  V30 2385 H 213.038 3.40688 1.84418 0
M  V30 2386 H 213.452 5.21436 0.56613 0
M  V30 2387 H 214.926 5.03314 2.26669 0
M  V30 2388 H 215.403 3.41193 2.76558 0
M  V30 2389 H 216.009 4.07156 1.22898 0
M  V30 2390 N 214.325 -0.140222 1.56975 0
M  V30 2391 C 215.572 -0.851687 1.83719 0
M  V30 2392 C 215.9 -1.80862 0.715485 0
M  V30 2393 O 215.155 -1.93464 -0.294956 0
M  V30 2394 C 215.454 -1.65386 3.16832 0
M  V30 2395 C 215.12 -0.843112 4.42947 0
M  V30 2396 C 213.782 -0.619464 4.77196 0
M  V30 2397 C 216.134 -0.276582 5.20466 0
M  V30 2398 C 213.462 0.181312 5.8642 0
M  V30 2399 C 215.814 0.51127 6.30531 0
M  V30 2400 C 214.478 0.745432 6.63325 0
M  V30 2401 H 213.748 -0.311654 0.672274 0
M  V30 2402 H 216.395 -0.115006 1.91154 0
M  V30 2403 H 214.7 -2.46084 3.04877 0
M  V30 2404 H 216.397 -2.20793 3.34741 0
M  V30 2405 H 212.987 -1.0275 4.16101 0
M  V30 2406 H 217.171 -0.436632 4.94376 0
M  V30 2407 H 212.427 0.372165 6.10266 0
M  V30 2408 H 216.601 0.957354 6.89788 0
M  V30 2409 H 214.228 1.36778 7.47794 0
M  V30 2410 N 215.803 -1.52179 -0.40978 0
M  V30 2411 C 217.052 -1.65434 -1.15388 0
M  V30 2412 C 217.365 -0.390056 -1.91671 0
M  V30 2413 O 218.571 -0.402399 -2.68501 0
M  V30 2414 C 217.027 -2.92279 -2.10003 0
M  V30 2415 C 216.635 -4.25813 -1.39239 0
M  V30 2416 C 218.379 -3.14897 -2.84675 0
M  V30 2417 C 216.286 -5.43782 -2.32498 0
M  V30 2418 H 215.216 -0.616267 -0.434432 0
M  V30 2419 H 217.867 -1.78666 -0.418401 0
M  V30 2420 H 216.249 -2.72744 -2.871 0
M  V30 2421 H 217.423 -4.55828 -0.675099 0
M  V30 2422 H 215.738 -4.09292 -0.766097 0
M  V30 2423 H 218.335 -4.0021 -3.54593 0
M  V30 2424 H 218.678 -2.29103 -3.47588 0
M  V30 2425 H 219.211 -3.34901 -2.14677 0
M  V30 2426 H 215.95 -6.3192 -1.74233 0
M  V30 2427 H 215.47 -5.18106 -3.02201 0
M  V30 2428 H 217.149 -5.76834 -2.93038 0
M  V30 2429 N 217.281 0.66697 -1.42791 0
M  V30 2430 C 218.191 1.80962 -1.49299 0
M  V30 2431 C 219.207 1.69775 -0.381108 0
M  V30 2432 O 220.383 1.91188 -0.633188 0
M  V30 2433 C 217.448 3.17156 -1.40045 0
M  V30 2434 C 216.509 3.40242 -2.6179 0
M  V30 2435 C 215.742 4.69939 -2.52969 0
M  V30 2436 O 215.965 5.48372 -1.56985 0
M  V30 2437 O 214.899 4.94441 -3.43237 0
M  V30 2438 H 218.725 1.78427 -2.45759 0
M  V30 2439 H 216.31 0.823713 -1.24641 0
M  V30 2440 H 218.192 3.98413 -1.37276 0
M  V30 2441 H 216.867 3.20312 -0.467138 0
M  V30 2442 H 215.774 2.58802 -2.70134 0
M  V30 2443 H 217.107 3.41923 -3.54047 0
M  V30 2444 N 218.759 1.29093 0.90403 0
M  V30 2445 C 219.669 1.15727 2.0407 0
M  V30 2446 C 220.685 0.0815308 1.73809 0
M  V30 2447 O 221.861 0.292749 1.99261 0
M  V30 2448 C 218.926 0.830424 3.36608 0
M  V30 2449 C 217.987 1.98955 3.80415 0
M  V30 2450 C 217.22 1.6782 5.06628 0
M  V30 2451 O 217.443 0.597105 5.67266 0
M  V30 2452 O 216.377 2.52486 5.46383 0
M  V30 2453 H 220.203 2.11171 2.18267 0
M  V30 2454 H 217.788 1.08504 1.027 0
M  V30 2455 H 219.67 0.662521 4.16159 0
M  V30 2456 H 218.345 -0.0942678 3.23563 0
M  V30 2457 H 217.252 2.21267 3.01648 0
M  V30 2458 H 218.585 2.89529 3.98037 0
M  V30 2459 N 220.237 -1.11381 1.11499 0
M  V30 2460 C 221.167 -2.19509 0.796125 0
M  V30 2461 C 222.148 -1.68458 -0.235796 0
M  V30 2462 O 223.333 -1.93947 -0.0991344 0
M  V30 2463 C 220.463 -3.46475 0.239205 0
M  V30 2464 C 219.417 -4.10744 1.20307 0
M  V30 2465 C 218.743 -5.32293 0.50683 0
M  V30 2466 C 220.043 -4.55597 2.55399 0
M  V30 2467 H 221.737 -2.46439 1.70024 0
M  V30 2468 H 219.283 -1.18446 0.818935 0
M  V30 2469 H 221.236 -4.214 0.00392006 0
M  V30 2470 H 219.96 -3.19006 -0.700206 0
M  V30 2471 H 218.619 -3.37813 1.42399 0
M  V30 2472 H 218.267 -5.01095 -0.437408 0
M  V30 2473 H 217.967 -5.76243 1.1497 0
M  V30 2474 H 219.491 -6.09956 0.280351 0
M  V30 2475 H 220.905 -5.21841 2.37391 0
M  V30 2476 H 219.302 -5.10363 3.15673 0
M  V30 2477 H 220.372 -3.69013 3.14575 0
M  V30 2478 N 221.715 -0.905404 -1.28997 0
M  V30 2479 C 222.964 -0.530191 -1.94607 0
M  V30 2480 C 223.277 0.929185 -1.72121 0
M  V30 2481 O 224.483 1.41218 -2.31883 0
M  V30 2482 C 222.939 -0.897333 -3.48534 0
M  V30 2483 C 222.547 -2.37587 -3.79811 0
M  V30 2484 C 224.291 -0.592304 -4.20347 0
M  V30 2485 C 222.198 -2.68357 -5.27009 0
M  V30 2486 H 221.128 -0.194558 -0.728466 0
M  V30 2487 H 223.779 -1.10318 -1.46636 0
M  V30 2488 H 222.161 -0.253214 -3.9519 0
M  V30 2489 H 223.335 -3.06602 -3.43994 0
M  V30 2490 H 221.65 -2.6505 -3.2115 0
M  V30 2491 H 224.247 -0.798975 -5.28697 0
M  V30 2492 H 224.59 0.469474 -4.13644 0
M  V30 2493 H 225.123 -1.19452 -3.79442 0
M  V30 2494 H 221.862 -3.73355 -5.38782 0
M  V30 2495 H 221.382 -2.03971 -5.64053 0
M  V30 2496 H 223.061 -2.54922 -5.94663 0
M  V30 2497 N 223.193 1.4272 -0.668489 0
M  V30 2498 C 224.141 2.32586 0.0254857 0
M  V30 2499 C 225.135 1.49471 0.797176 0
M  V30 2500 O 226.341 1.65583 0.705853 0
M  V30 2501 H 222.716 0.751514 0.0270339 0
M  V30 2502 H 224.687 2.88823 -0.749936 0
M  V30 2503 C 223.436 3.3397 0.967427 0
M  V30 2504 H 222.759 3.97961 0.383048 0
M  V30 2505 H 224.199 3.9945 1.42181 0
M  V30 2506 C 222.658 2.65744 2.0708 0
M  V30 2507 O 223.188 2.48454 3.15648 0
M  V30 2508 N 221.394 2.2487 1.8407 0
M  V30 2509 H 220.941 2.39132 0.95778 0
M  V30 2510 H 220.899 1.79552 2.58086 0
M  V30 2511 N 224.671 0.411399 1.52136 0
M  V30 2512 C 225.619 -0.427633 2.28635 0
M  V30 2513 C 226.613 -1.04383 1.33419 0
M  V30 2514 O 227.819 -0.981772 1.50868 0
M  V30 2515 H 224.194 -0.156689 0.735495 0
M  V30 2516 H 226.165 0.238761 2.97443 0
M  V30 2517 C 224.914 -1.53082 3.12188 0
M  V30 2518 H 224.237 -1.06601 3.85326 0
M  V30 2519 H 225.677 -2.09167 3.68816 0
M  V30 2520 C 224.136 -2.49946 2.25895 0
M  V30 2521 O 224.666 -3.53884 1.90076 0
M  V30 2522 N 222.872 -2.2021 1.8962 0
M  V30 2523 H 222.419 -1.35719 2.18948 0
M  V30 2524 H 222.377 -2.85266 1.32176 0
M  V30 2525 N 226.149 -1.5696 0.141893 0
M  V30 2526 C 227.379 -2.00031 -0.516828 0
M  V30 2527 C 227.787 -1.02091 -1.59293 0
M  V30 2528 O 227.13 -0.00909657 -1.83698 0
M  V30 2529 C 227.192 -3.39534 -1.1814 0
M  V30 2530 C 226.856 -4.56313 -0.250513 0
M  V30 2531 C 227.853 -5.17295 0.519839 0
M  V30 2532 C 225.538 -5.02061 -0.154907 0
M  V30 2533 C 227.532 -6.2243 1.3733 0
M  V30 2534 C 225.219 -6.07053 0.702161 0
M  V30 2535 C 226.217 -6.67106 1.46487 0
M  V30 2536 O 225.905 -7.70066 2.30767 0
M  V30 2537 H 225.637 -0.661451 -0.139493 0
M  V30 2538 H 228.191 -2.04086 0.231926 0
M  V30 2539 H 226.421 -3.32302 -1.97769 0
M  V30 2540 H 228.11 -3.66745 -1.73933 0
M  V30 2541 H 228.876 -4.82852 0.45598 0
M  V30 2542 H 224.755 -4.5505 -0.7383 0
M  V30 2543 H 228.299 -6.69233 1.96909 0
M  V30 2544 H 224.196 -6.40923 0.76733 0
M  V30 2545 H 224.964 -7.87264 2.23959 0
M  V30 2546 N 227.627 0.131896 -1.57047 0
M  V30 2547 C 228.904 0.871495 -1.75112 0
M  V30 2548 C 229.284 1.9866 -0.713949 0
M  V30 2549 O 228.632 2.26965 0.264447 0
M  V30 2550 C 228.842 1.40007 -3.19686 0
M  V30 2551 C 230.19 1.85752 -3.81813 0
M  V30 2552 O 231.214 1.49715 -3.23209 0
M  V30 2553 O 230.073 2.5226 -4.84796 0
M  V30 2554 H 227.167 0.412919 -0.716538 0
M  V30 2555 H 229.713 0.116641 -1.69299 0
M  V30 2556 H 228.485 0.599404 -3.86682 0
M  V30 2557 H 228.108 2.218 -3.29986 0
M  V30 2558 N 229.106 1.52395 0.401703 0
M  V30 2559 C 230.354 1.66488 1.14569 0
M  V30 2560 C 230.675 0.400897 1.90835 0
M  V30 2561 O 229.945 -0.584415 1.8698 0
M  V30 2562 H 228.525 0.613672 0.425929 0
M  V30 2563 H 231.187 1.89464 0.457093 0
M  V30 2564 H 230.283 2.50942 1.85566 0
M  V30 2565 N 230.584 -0.659388 1.43143 0
M  V30 2566 C 231.531 -1.77249 1.47822 0
M  V30 2567 C 232.501 -1.62818 0.328558 0
M  V30 2568 O 233.686 -1.83151 0.534838 0
M  V30 2569 C 230.826 -3.15371 1.40126 0
M  V30 2570 C 229.939 -3.4098 2.65249 0
M  V30 2571 C 229.074 -4.68915 2.49584 0
M  V30 2572 C 228.113 -4.87608 3.70006 0
M  V30 2573 N 227.25 -6.06796 3.53189 0
M  V30 2574 H 232.09 -1.72584 2.42938 0
M  V30 2575 H 229.627 -0.842297 1.20598 0
M  V30 2576 H 231.585 -3.9521 1.33659 0
M  V30 2577 H 230.215 -3.19121 0.485964 0
M  V30 2578 H 229.267 -2.55282 2.8202 0
M  V30 2579 H 230.579 -3.50681 3.54717 0
M  V30 2580 H 229.733 -5.56871 2.4079 0
M  V30 2581 H 228.472 -4.61524 1.5763 0
M  V30 2582 H 227.477 -3.9809 3.79215 0
M  V30 2583 H 228.702 -4.96834 4.62961 0
M  V30 2584 H 226.648 -6.00549 2.63965 0
M  V30 2585 H 226.565 -6.17428 4.36255 0
M  V30 2586 H 227.833 -6.9739 3.48236 0
M  V30 2587 N 232.062 -1.29571 -0.897171 0
M  V30 2588 C 233.308 -1.17863 -1.65034 0
M  V30 2589 C 233.641 0.268729 -1.92332 0
M  V30 2590 O 232.916 1.19378 -1.53555 0
M  V30 2591 C 233.199 -1.995 -2.99786 0
M  V30 2592 C 233.052 -3.5239 -2.79538 0
M  V30 2593 C 234.371 -1.82335 -4.00552 0
M  V30 2594 H 231.49 -0.429528 -0.598895 0
M  V30 2595 H 234.132 -1.59072 -1.03905 0
M  V30 2596 H 232.282 -1.64485 -3.51962 0
M  V30 2597 H 233.954 -3.97401 -2.34244 0
M  V30 2598 H 232.197 -3.77187 -2.14273 0
M  V30 2599 H 232.868 -4.04787 -3.75302 0
M  V30 2600 H 235.344 -2.12924 -3.57495 0
M  V30 2601 H 234.22 -2.41801 -4.92771 0
M  V30 2602 H 234.481 -0.779209 -4.35179 0
M  V30 2603 N 233.54 1.10788 -1.12088 0
M  V30 2604 C 234.49 2.15158 -0.754401 0
M  V30 2605 C 235.474 1.59026 0.244846 0
M  V30 2606 O 236.666 1.76927 0.0509097 0
M  V30 2607 C 233.795 3.42677 -0.206657 0
M  V30 2608 C 232.881 4.05751 -1.23398 0
M  V30 2609 N 233.272 4.43582 -2.43041 0
M  V30 2610 C 231.57 4.32764 -1.07848 0
M  V30 2611 C 232.271 4.93085 -3.08613 0
M  V30 2612 N 231.247 4.89664 -2.36072 0
M  V30 2613 H 235.049 2.42195 -1.6649 0
M  V30 2614 H 232.563 1.27872 -1.00112 0
M  V30 2615 H 234.56 4.16834 0.0740646 0
M  V30 2616 H 233.22 3.17101 0.698342 0
M  V30 2617 H 234.231 4.35395 -2.80449 0
M  V30 2618 H 230.908 4.16863 -0.230483 0
M  V30 2619 H 232.298 5.31933 -4.10483 0
M  V30 2620 N 235.018 0.912232 1.28515 0
M  V30 2621 C 236.266 0.543523 1.94654 0
M  V30 2622 C 236.587 -0.9155 1.72173 0
M  V30 2623 O 235.857 -1.64708 1.06058 0
M  V30 2624 H 234.437 0.198017 0.720277 0
M  V30 2625 H 237.099 1.16126 1.56527 0
M  V30 2626 H 236.195 0.736684 3.03281 0
M  V30 2627 N 236.496 -1.42363 0.676048 0
M  V30 2628 C 237.406 -2.346 -0.00153389 0
M  V30 2629 C 238.422 -1.5516 -0.787485 0
M  V30 2630 O 239.598 -1.87723 -0.729521 0
M  V30 2631 C 236.663 -3.33705 -0.940298 0
M  V30 2632 C 235.724 -4.29042 -0.148739 0
M  V30 2633 C 234.957 -5.23413 -1.04279 0
M  V30 2634 O 235.18 -5.22749 -2.28232 0
M  V30 2635 O 234.114 -5.99795 -0.502925 0
M  V30 2636 H 237.94 -2.94082 0.758268 0
M  V30 2637 H 235.525 -1.42888 0.436289 0
M  V30 2638 H 237.407 -3.94586 -1.47917 0
M  V30 2639 H 236.082 -2.76695 -1.67993 0
M  V30 2640 H 234.989 -3.71571 0.43427 0
M  V30 2641 H 236.322 -4.89097 0.551805 0
M  V30 2642 N 237.974 -0.419461 -1.51915 0
M  V30 2643 C 238.884 0.407528 -2.31033 0
M  V30 2644 C 239.9 1.04413 -1.3919 0
M  V30 2645 O 241.076 1.0434 -1.72265 0
M  V30 2646 C 238.141 1.50365 -3.12396 0
M  V30 2647 C 237.202 0.889029 -4.19994 0
M  V30 2648 C 236.435 1.93291 -4.97468 0
M  V30 2649 O 236.658 3.15259 -4.75361 0
M  V30 2650 O 235.592 1.53339 -5.8204 0
M  V30 2651 H 239.418 -0.237865 -3.02767 0
M  V30 2652 H 237.003 -0.182413 -1.48282 0
M  V30 2653 H 238.885 2.13975 -3.63032 0
M  V30 2654 H 237.56 2.13345 -2.43445 0
M  V30 2655 H 236.467 0.215353 -3.7348 0
M  V30 2656 H 237.8 0.302991 -4.91267 0
M  V30 2657 N 239.452 1.56882 -0.150215 0
M  V30 2658 C 240.362 2.20494 0.801222 0
M  V30 2659 C 241.378 1.19019 1.26927 0
M  V30 2660 O 242.554 1.51607 1.32579 0
M  V30 2661 C 239.619 2.81659 2.02161 0
M  V30 2662 C 238.68 3.9827 1.60249 0
M  V30 2663 C 237.913 4.56508 2.7647 0
M  V30 2664 O 238.136 4.13627 3.92771 0
M  V30 2665 O 237.07 5.46719 2.51757 0
M  V30 2666 H 240.896 3.02315 0.289717 0
M  V30 2667 H 238.481 1.49202 0.0769684 0
M  V30 2668 H 240.363 3.20522 2.73576 0
M  V30 2669 H 239.038 2.02849 2.52258 0
M  V30 2670 H 237.945 3.64117 0.858477 0
M  V30 2671 H 239.278 4.78609 1.14864 0
M  V30 2672 N 240.93 -0.123565 1.57115 0
M  V30 2673 C 241.863 -1.18202 1.95201 0
M  V30 2674 C 242.841 -1.40349 0.821031 0
M  V30 2675 O 244.025 -1.54578 1.07879 0
M  V30 2676 C 241.152 -2.53671 2.24429 0
M  V30 2677 C 240.198 -2.4798 3.46999 0
M  V30 2678 S 241.031 -1.92389 4.99747 0
M  V30 2679 C 242.187 -3.2954 5.32123 0
M  V30 2680 H 242.42 -0.857212 2.84674 0
M  V30 2681 H 239.953 -0.33014 1.50829 0
M  V30 2682 H 241.911 -3.3162 2.41947 0
M  V30 2683 H 240.572 -2.83332 1.35579 0
M  V30 2684 H 239.765 -3.47758 3.64801 0
M  V30 2685 H 239.367 -1.7815 3.28844 0
M  V30 2686 H 241.659 -4.25736 5.27025 0
M  V30 2687 H 242.602 -3.16569 6.33395 0
M  V30 2688 H 243.01 -3.27758 4.59603 0
M  V30 2689 N 242.408 -1.52605 -0.393616 0
M  V30 2690 C 243.657 -1.66649 -1.13627 0
M  V30 2691 C 243.97 -0.410364 -1.91247 0
M  V30 2692 O 245.176 -0.430854 -2.68059 0
M  V30 2693 C 243.632 -2.9449 -2.06891 0
M  V30 2694 C 243.24 -4.27266 -1.34714 0
M  V30 2695 C 244.984 -3.17899 -2.81319 0
M  V30 2696 C 242.891 -5.46217 -2.26717 0
M  V30 2697 H 241.821 -0.62084 -0.427871 0
M  V30 2698 H 244.472 -1.791 -0.399428 0
M  V30 2699 H 242.854 -2.75774 -2.84191 0
M  V30 2700 H 244.028 -4.56518 -0.626714 0
M  V30 2701 H 242.343 -4.10081 -0.722643 0
M  V30 2702 H 244.94 -4.03949 -3.50328 0
M  V30 2703 H 245.283 -2.32777 -3.45139 0
M  V30 2704 H 245.816 -3.37159 -2.11113 0
M  V30 2705 H 242.555 -6.33733 -1.67521 0
M  V30 2706 H 242.075 -5.21283 -2.96689 0
M  V30 2707 H 243.754 -5.7991 -2.86903 0
M  V30 2708 N 243.887 0.651787 -1.4349 0
M  V30 2709 C 245.298 1.233 -1.40193 0
M  V30 2710 C 245.649 1.9591 -0.106727 0
M  V30 2711 O 244.774 2.01316 0.793773 0
M  V30 2712 C 245.369 2.24257 -2.53957 0
M  V30 2713 C 243.928 2.77852 -2.5392 0
M  V30 2714 C 243.075 1.52517 -2.3159 0
M  V30 2715 H 246.026 0.443717 -1.52371 0
M  V30 2716 H 246.047 3.0646 -2.25528 0
M  V30 2717 H 245.559 1.71382 -3.4821 0
M  V30 2718 H 243.66 3.34786 -1.63551 0
M  V30 2719 H 243.773 3.25299 -3.51735 0
M  V30 2720 H 242.137 1.79915 -1.80285 0
M  V30 2721 H 242.92 1.01574 -3.27929 0
M  V30 2722 N 245.365 1.30045 0.890287 0
M  V30 2723 C 246.613 1.18327 1.63839 0
M  V30 2724 C 246.934 -0.263455 1.93212 0
M  V30 2725 O 246.204 -1.17856 1.56482 0
M  V30 2726 H 244.784 0.434933 0.607324 0
M  V30 2727 H 247.446 1.631 1.06698 0
M  V30 2728 H 246.542 1.74024 2.59079 0
M  V30 2729 N 246.843 -1.10192 1.12674 0
M  V30 2730 C 248.068 -1.86523 0.906853 0
M  V30 2731 C 248.493 -1.80221 -0.538711 0
M  V30 2732 O 247.851 -1.17396 -1.38158 0
M  V30 2733 C 247.899 -3.32758 1.3894 0
M  V30 2734 O 247.003 -4.08449 0.5695 0
M  V30 2735 H 246.344 -0.578678 0.325619 0
M  V30 2736 H 248.874 -1.39203 1.49946 0
M  V30 2737 H 248.884 -3.83608 1.38958 0
M  V30 2738 H 247.559 -3.36661 2.44197 0
M  V30 2739 H 246.136 -3.67427 0.636528 0
M  V30 2740 N 248.321 -0.919034 -1.28029 0
M  V30 2741 C 249.567 -0.555757 -1.95036 0
M  V30 2742 C 249.9 0.899198 -1.72128 0
M  V30 2743 O 249.175 1.64023 -1.04531 0
M  V30 2744 C 249.458 -0.872024 -3.49382 0
M  V30 2745 C 249.311 -2.3801 -3.81669 0
M  V30 2746 C 250.63 -0.37185 -4.38526 0
M  V30 2747 H 247.749 -0.203386 -0.708381 0
M  V30 2748 H 250.391 -1.14924 -1.51303 0
M  V30 2749 H 248.541 -0.366946 -3.86763 0
M  V30 2750 H 250.213 -2.9562 -3.54128 0
M  V30 2751 H 248.456 -2.83289 -3.28526 0
M  V30 2752 H 249.127 -2.55192 -4.8947 0
M  V30 2753 H 251.603 -0.804602 -4.08247 0
M  V30 2754 H 250.479 -0.622173 -5.45362 0
M  V30 2755 H 250.74 0.727934 -4.36066 0
M  V30 2756 N 249.799 1.42003 -0.683588 0
M  V30 2757 C 250.729 2.33487 -0.024866 0
M  V30 2758 C 251.71 1.51163 0.779975 0
M  V30 2759 O 252.895 1.79739 0.735362 0
M  V30 2760 C 250.025 3.3487 0.920836 0
M  V30 2761 C 248.979 4.27414 0.223958 0
M  V30 2762 C 248.305 5.19074 1.2832 0
M  V30 2763 C 249.605 5.14445 -0.90242 0
M  V30 2764 H 251.299 2.88819 -0.788921 0
M  V30 2765 H 248.845 1.38873 -0.38083 0
M  V30 2766 H 250.798 3.97787 1.39081 0
M  V30 2767 H 249.522 2.77861 1.71642 0
M  V30 2768 H 248.181 3.65904 -0.225864 0
M  V30 2769 H 247.829 4.58387 2.071 0
M  V30 2770 H 247.529 5.81822 0.821995 0
M  V30 2771 H 249.053 5.84867 1.75392 0
M  V30 2772 H 250.467 5.70998 -0.513272 0
M  V30 2773 H 248.864 5.86072 -1.28997 0
M  V30 2774 H 249.934 4.52322 -1.74737 0
M  V30 2775 N 251.277 0.427512 1.51691 0
M  V30 2776 C 252.526 -0.143679 2.01188 0
M  V30 2777 C 252.839 -1.44642 1.31674 0
M  V30 2778 O 254.045 -2.09997 1.72086 0
M  V30 2779 C 252.501 -0.306602 3.58592 0
M  V30 2780 C 252.109 0.985125 4.37035 0
M  V30 2781 C 253.853 -0.832091 4.16265 0
M  V30 2782 C 251.76 0.788382 5.86122 0
M  V30 2783 H 250.69 -0.0574701 0.751807 0
M  V30 2784 H 253.341 0.555772 1.74881 0
M  V30 2785 H 251.723 -1.06882 3.81303 0
M  V30 2786 H 252.897 1.75492 4.26074 0
M  V30 2787 H 251.212 1.4384 3.90767 0
M  V30 2788 H 253.809 -0.995617 5.25349 0
M  V30 2789 H 254.152 -1.81186 3.74803 0
M  V30 2790 H 254.685 -0.128444 3.97593 0
M  V30 2791 H 251.424 1.74025 6.31978 0
M  V30 2792 H 250.944 0.0582143 5.99772 0
M  V30 2793 H 252.623 0.437722 6.45518 0
M  V30 2794 N 252.755 -1.56801 0.158532 0
M  V30 2795 C 253.98 -2.01295 -0.499516 0
M  V30 2796 C 254.405 -1.03799 -1.56867 0
M  V30 2797 O 253.763 -0.0155162 -1.81293 0
M  V30 2798 C 253.811 -3.44469 -1.06647 0
M  V30 2799 O 252.915 -3.50012 -2.18095 0
M  V30 2800 H 252.256 -0.652884 -0.12099 0
M  V30 2801 H 254.786 -2.02958 0.258661 0
M  V30 2802 H 254.796 -3.8351 -1.39227 0
M  V30 2803 H 253.471 -4.14932 -0.283581 0
M  V30 2804 H 252.048 -3.22822 -1.86656 0
M  V30 2805 N 254.233 0.115231 -1.57178 0
M  V30 2806 C 255.51 0.852873 -1.76027 0
M  V30 2807 C 255.89 1.97892 -0.73498 0
M  V30 2808 O 255.238 2.27232 0.24036 0
M  V30 2809 C 255.448 1.36608 -3.21153 0
M  V30 2810 C 256.796 1.81692 -3.83762 0
M  V30 2811 O 257.82 1.46278 -3.24779 0
M  V30 2812 O 256.679 2.47104 -4.87444 0
M  V30 2813 H 253.773 0.405296 -0.720877 0
M  V30 2814 H 256.319 0.0986785 -1.69413 0
M  V30 2815 H 255.091 0.558357 -3.87296 0
M  V30 2816 H 254.714 2.18287 -3.3232 0
M  V30 2817 N 255.711 1.52812 0.385517 0
M  V30 2818 C 256.674 1.77188 1.45386 0
M  V30 2819 C 257.674 0.641953 1.4743 0
M  V30 2820 O 258.864 0.910033 1.4854 0
M  V30 2821 C 255.996 1.87582 2.8465 0
M  V30 2822 H 257.189 2.72583 1.25054 0
M  V30 2823 H 254.742 1.43586 0.617467 0
M  V30 2824 H 255.477 0.941849 3.10322 0
M  V30 2825 H 255.262 2.69748 2.84567 0
M  V30 2826 H 256.752 2.08102 3.62054 0
M  V30 2827 N 257.189 -0.644168 1.43834 0
M  V30 2828 C 258.435 -1.40603 1.46146 0
M  V30 2829 C 258.768 -1.93997 0.0887717 0
M  V30 2830 O 258.043 -1.72854 -0.891724 0
M  V30 2831 C 258.326 -2.58086 2.51124 0
M  V30 2832 C 258.179 -2.10126 3.97702 0
M  V30 2833 C 259.498 -3.60291 2.52742 0
M  V30 2834 H 256.617 -0.509905 0.532134 0
M  V30 2835 H 259.259 -0.729502 1.75437 0
M  V30 2836 H 257.409 -3.15801 2.26278 0
M  V30 2837 H 259.081 -1.57342 4.33637 0
M  V30 2838 H 257.324 -1.41419 4.10101 0
M  V30 2839 H 257.995 -2.94649 4.66783 0
M  V30 2840 H 260.471 -3.12352 2.7491 0
M  V30 2841 H 259.347 -4.40032 3.28121 0
M  V30 2842 H 259.608 -4.1349 1.56455 0
M  V30 2843 N 258.668 -1.30515 -0.883378 0
M  V30 2844 C 259.915 -1.1943 -1.63532 0
M  V30 2845 C 260.243 0.250627 -1.92878 0
M  V30 2846 O 259.498 1.19556 -1.54935 0
M  V30 2847 C 259.797 -1.96994 -2.98209 0
M  V30 2848 C 259.463 -3.466 -2.88408 0
M  V30 2849 C 258.125 -3.87397 -2.85442 0
M  V30 2850 C 260.477 -4.41863 -2.76418 0
M  V30 2851 C 257.805 -5.21745 -2.68327 0
M  V30 2852 C 260.157 -5.7632 -2.60841 0
M  V30 2853 C 258.821 -6.16354 -2.56251 0
M  V30 2854 H 258.091 -0.437025 -0.598406 0
M  V30 2855 H 260.738 -1.61635 -1.02696 0
M  V30 2856 H 259.043 -1.47429 -3.63004 0
M  V30 2857 H 260.74 -1.85808 -3.55354 0
M  V30 2858 H 257.33 -3.14182 -2.91527 0
M  V30 2859 H 261.514 -4.11285 -2.77775 0
M  V30 2860 H 256.77 -5.51853 -2.63189 0
M  V30 2861 H 260.944 -6.49772 -2.50538 0
M  V30 2862 H 258.571 -7.20401 -2.42748 0
M  V30 2863 N 260.146 1.09593 -1.13257 0
M  V30 2864 C 261.076 2.18214 -0.830946 0
M  V30 2865 C 262.057 1.68812 0.208966 0
M  V30 2866 O 263.242 1.9408 0.0682666 0
M  V30 2867 C 260.372 3.46051 -0.294296 0
M  V30 2868 C 259.326 4.08778 -1.26826 0
M  V30 2869 C 258.652 5.31419 -0.591449 0
M  V30 2870 C 259.952 4.51476 -2.62615 0
M  V30 2871 H 261.646 2.43703 -1.73923 0
M  V30 2872 H 259.192 1.17128 -0.837675 0
M  V30 2873 H 261.145 4.2134 -0.0709606 0
M  V30 2874 H 259.869 3.20079 0.649366 0
M  V30 2875 H 258.528 3.35505 -1.47756 0
M  V30 2876 H 258.176 5.01727 0.357633 0
M  V30 2877 H 257.876 5.74341 -1.24123 0
M  V30 2878 H 259.4 6.09433 -0.377355 0
M  V30 2879 H 260.814 5.17999 -2.45663 0
M  V30 2880 H 259.211 5.05277 -3.23752 0
M  V30 2881 H 260.281 3.63962 -3.20406 0
M  V30 2882 N 261.624 0.925811 1.2754 0
M  V30 2883 C 262.534 0.428993 2.30644 0
M  V30 2884 C 263.55 -0.489387 1.66976 0
M  V30 2885 O 264.726 -0.372653 1.97922 0
M  V30 2886 C 261.791 -0.311967 3.45294 0
M  V30 2887 C 260.852 0.641098 4.24486 0
M  V30 2888 C 260.085 -0.0645955 5.33661 0
M  V30 2889 O 260.308 -1.28429 5.55754 0
M  V30 2890 O 259.242 0.606265 5.98839 0
M  V30 2891 H 263.068 1.28504 2.75173 0
M  V30 2892 H 260.653 0.691086 1.32455 0
M  V30 2893 H 262.535 -0.729972 4.15029 0
M  V30 2894 H 261.21 -1.14365 3.02824 0
M  V30 2895 H 260.117 1.10874 3.57292 0
M  V30 2896 H 261.45 1.43995 4.70666 0
M  V30 2897 N 263.102 -1.41638 0.69111 0
M  V30 2898 C 264.032 -2.3347 0.037248 0
M  V30 2899 C 265.013 -1.51575 -0.771947 0
M  V30 2900 O 266.198 -1.80126 -0.72582 0
M  V30 2901 C 263.328 -3.35354 -0.903064 0
M  V30 2902 C 262.282 -4.27526 -0.201288 0
M  V30 2903 C 261.608 -5.19747 -1.25565 0
M  V30 2904 C 262.908 -5.13959 0.929689 0
M  V30 2905 H 264.602 -2.88397 0.804227 0
M  V30 2906 H 262.148 -1.38669 0.388189 0
M  V30 2907 H 264.101 -3.98519 -1.36969 0
M  V30 2908 H 262.825 -2.78767 -1.70166 0
M  V30 2909 H 261.484 -3.65779 0.245265 0
M  V30 2910 H 261.132 -4.59479 -2.04666 0
M  V30 2911 H 260.832 -5.8225 -0.791128 0
M  V30 2912 H 262.356 -5.85789 -1.72288 0
M  V30 2913 H 263.77 -5.70718 0.543546 0
M  V30 2914 H 262.167 -5.85379 1.32103 0
M  V30 2915 H 263.237 -4.51389 1.77133 0
M  V30 2916 N 264.58 -0.43555 -1.51462 0
M  V30 2917 C 265.826 0.131709 -2.02372 0
M  V30 2918 C 266.159 1.42516 -1.3192 0
M  V30 2919 O 265.434 1.89606 -0.433573 0
M  V30 2920 C 265.717 0.352301 -3.58373 0
M  V30 2921 C 265.57 -0.959676 -4.39443 0
M  V30 2922 C 266.889 1.12286 -4.25535 0
M  V30 2923 H 264.008 0.0463936 -0.735538 0
M  V30 2924 H 266.65 -0.574197 -1.81116 0
M  V30 2925 H 264.8 0.9536 -3.76615 0
M  V30 2926 H 266.472 -1.59482 -4.32855 0
M  V30 2927 H 264.715 -1.56468 -4.04599 0
M  V30 2928 H 265.386 -0.759394 -5.46752 0
M  V30 2929 H 267.862 0.613545 -4.11552 0
M  V30 2930 H 266.738 1.24598 -5.34571 0
M  V30 2931 H 266.999 2.15048 -3.86273 0
M  V30 2932 N 266.058 1.56714 -0.166846 0
M  V30 2933 C 267.335 1.88412 0.525373 0
M  V30 2934 C 267.715 1.07602 1.81618 0
M  V30 2935 O 267.063 0.168621 2.27877 0
M  V30 2936 C 267.273 3.40363 0.771613 0
M  V30 2937 C 268.621 4.10007 1.1036 0
M  V30 2938 O 269.645 3.45655 0.860304 0
M  V30 2939 O 268.504 5.2369 1.56239 0
M  V30 2940 H 265.598 0.781587 0.270278 0
M  V30 2941 H 268.144 1.68458 -0.204946 0
M  V30 2942 H 266.916 3.91046 -0.141093 0
M  V30 2943 H 266.539 3.65914 1.55541 0
M  V30 2944 N 267.536 -0.106894 1.57237 0
M  V30 2945 C 268.499 -1.11466 2.0027 0
M  V30 2946 C 269.499 -1.33623 0.894519 0
M  V30 2947 O 270.689 -1.29935 1.16028 0
M  V30 2948 C 267.821 -2.46646 2.35327 0
M  V30 2949 H 269.014 -0.744516 2.90512 0
M  V30 2950 H 266.567 -0.351576 1.52295 0
M  V30 2951 H 267.302 -2.88558 1.48003 0
M  V30 2952 H 267.087 -2.31915 3.16161 0
M  V30 2953 H 268.577 -3.19151 2.69318 0
M  V30 2954 N 269.014 -1.53014 -0.377408 0
M  V30 2955 C 269.944 -1.81589 -1.46791 0
M  V30 2956 C 270.925 -0.668622 -1.56408 0
M  V30 2957 O 272.11 -0.917337 -1.71168 0
M  V30 2958 C 269.24 -1.99519 -2.8427 0
M  V30 2959 C 268.194 -3.15249 -2.89486 0
M  V30 2960 C 267.52 -3.18451 -4.29527 0
M  V30 2961 C 268.82 -4.54084 -2.58079 0
M  V30 2962 H 270.514 -2.7291 -1.23127 0
M  V30 2963 H 268.06 -1.31319 -0.590883 0
M  V30 2964 H 270.013 -2.18092 -3.60575 0
M  V30 2965 H 268.737 -1.04897 -3.09296 0
M  V30 2966 H 267.396 -2.96477 -2.15631 0
M  V30 2967 H 267.044 -2.2149 -4.5161 0
M  V30 2968 H 266.744 -3.962 -4.33934 0
M  V30 2969 H 268.268 -3.39193 -5.07721 0
M  V30 2970 H 269.682 -4.72899 -3.24098 0
M  V30 2971 H 268.079 -5.33987 -2.7382 0
M  V30 2972 H 269.149 -4.60006 -1.53372 0
M  V30 2973 N 270.492 0.636531 -1.44174 0
M  V30 2974 C 271.44 1.76995 -1.50915 0
M  V30 2975 C 272.434 1.65053 -0.381295 0
M  V30 2976 O 273.64 1.71197 -0.55601 0
M  V30 2977 H 270.015 0.584247 -0.473455 0
M  V30 2978 H 271.986 1.68432 -2.4632 0
M  V30 2979 C 270.735 3.15314 -1.46534 0
M  V30 2980 H 270.058 3.25149 -2.32633 0
M  V30 2981 H 271.498 3.9453 -1.55312 0
M  V30 2982 C 269.957 3.3639 -0.185305 0
M  V30 2983 O 270.487 3.94699 0.746688 0
M  V30 2984 N 268.693 2.9046 -0.0901606 0
M  V30 2985 H 268.24 2.43193 -0.849416 0
M  V30 2986 H 268.198 3.04937 0.765553 0
M  V30 2987 N 271.97 1.30982 0.876444 0
M  V30 2988 C 272.902 1.13902 1.98894 0
M  V30 2989 C 273.915 0.0798815 1.62604 0
M  V30 2990 O 275.104 0.326743 1.75484 0
M  V30 2991 C 272.204 0.716699 3.31235 0
M  V30 2992 C 271.377 1.85945 3.95908 0
M  V30 2993 C 270.436 1.42426 5.06558 0
M  V30 2994 O 269.462 2.13287 5.27729 0
M  V30 2995 N 270.664 0.308025 5.79682 0
M  V30 2996 H 273.429 2.09724 2.14094 0
M  V30 2997 H 270.99 1.2323 1.05004 0
M  V30 2998 H 272.982 0.408403 4.02634 0
M  V30 2999 H 271.552 -0.149719 3.12241 0
M  V30 3000 H 270.772 2.33541 3.17573 0
M  V30 3001 H 272.06 2.62503 4.35855 0
M  V30 3002 H 271.458 -0.282241 5.64995 0
M  V30 3003 H 270.015 0.0592282 6.51773 0
M  V30 3004 N 273.449 -1.08991 1.13837 0
M  V30 3005 C 274.679 -1.84743 0.924859 0
M  V30 3006 C 275.087 -1.81629 -0.529874 0
M  V30 3007 O 274.43 -1.21397 -1.37872 0
M  V30 3008 C 274.492 -3.33568 1.34061 0
M  V30 3009 C 274.156 -3.60425 2.80968 0
M  V30 3010 C 275.153 -3.55771 3.79108 0
M  V30 3011 C 272.838 -3.88627 3.18236 0
M  V30 3012 C 274.832 -3.78939 5.12527 0
M  V30 3013 C 272.519 -4.11449 4.51833 0
M  V30 3014 C 273.517 -4.06598 5.48787 0
M  V30 3015 O 273.205 -4.28826 6.79973 0
M  V30 3016 H 272.937 -0.590258 0.329502 0
M  V30 3017 H 275.491 -1.38598 1.51591 0
M  V30 3018 H 273.721 -3.80442 0.692853 0
M  V30 3019 H 275.41 -3.90743 1.09886 0
M  V30 3020 H 276.176 -3.34005 3.51661 0
M  V30 3021 H 272.055 -3.91526 2.43369 0
M  V30 3022 H 275.599 -3.75068 5.88192 0
M  V30 3023 H 271.496 -4.32698 4.79002 0
M  V30 3024 H 272.264 -4.46264 6.86142 0
M  V30 3025 N 274.927 -0.932562 -1.27047 0
M  V30 3026 C 276.152 -0.591474 -1.98787 0
M  V30 3027 C 276.577 0.824601 -1.69062 0
M  V30 3028 O 275.935 1.5541 -0.933677 0
M  V30 3029 C 275.983 -0.829808 -3.50922 0
M  V30 3030 O 275.087 0.102266 -4.12273 0
M  V30 3031 H 274.428 -0.227185 -0.623926 0
M  V30 3032 H 276.958 -1.25314 -1.61733 0
M  V30 3033 H 276.968 -0.747292 -4.01098 0
M  V30 3034 H 275.643 -1.86201 -3.7189 0
M  V30 3035 H 274.22 -0.0305761 -3.72887 0
M  V30 3036 N 276.405 1.4127 -0.698611 0
M  V30 3037 C 277.682 1.94955 -0.158762 0
M  V30 3038 C 278.062 1.63781 1.33188 0
M  V30 3039 O 277.41 0.946423 2.07979 0
M  V30 3040 C 277.62 3.46044 -0.453309 0
M  V30 3041 C 278.968 4.22872 -0.382707 0
M  V30 3042 O 279.992 3.54076 -0.388396 0
M  V30 3043 O 278.851 5.45407 -0.345463 0
M  V30 3044 H 275.945 0.82683 -0.0167505 0
M  V30 3045 H 278.491 1.50971 -0.77498 0
M  V30 3046 H 277.263 3.62028 -1.48498 0
M  V30 3047 H 276.886 3.97128 0.19373 0
M  V30 3048 N 277.883 0.443576 1.51229 0
M  V30 3049 C 278.793 -0.370721 2.31652 0
M  V30 3050 C 279.809 -1.02186 1.40833 0
M  V30 3051 O 280.985 -1.01586 1.73903 0
M  V30 3052 C 278.05 -1.45376 3.14749 0
M  V30 3053 C 277.111 -0.822099 4.21355 0
M  V30 3054 C 276.344 -1.85353 5.0048 0
M  V30 3055 O 276.567 -3.07656 4.80316 0
M  V30 3056 O 275.501 -1.4406 5.84406 0
M  V30 3057 H 279.327 0.286002 3.0235 0
M  V30 3058 H 276.912 0.20598 1.47973 0
M  V30 3059 H 278.794 -2.08173 3.66391 0
M  V30 3060 H 277.469 -2.09445 2.46809 0
M  V30 3061 H 276.376 -0.155909 3.73775 0
M  V30 3062 H 277.709 -0.224797 4.91686 0
M  V30 3063 N 279.361 -1.56624 0.175154 0
M  V30 3064 C 280.271 -2.21741 -0.766042 0
M  V30 3065 C 281.287 -1.21023 -1.25018 0
M  V30 3066 O 282.463 -1.53697 -1.3015 0
M  V30 3067 C 279.528 -2.84839 -1.97655 0
M  V30 3068 C 278.589 -4.00769 -1.53892 0
M  V30 3069 C 277.822 -4.60849 -2.69173 0
M  V30 3070 O 278.045 -4.19823 -3.86141 0
M  V30 3071 O 276.979 -5.50655 -2.43028 0
M  V30 3072 H 280.805 -3.02738 -0.241585 0
M  V30 3073 H 278.39 -1.49305 -0.053222 0
M  V30 3074 H 280.272 -3.24834 -2.68442 0
M  V30 3075 H 278.947 -2.06836 -2.48999 0
M  V30 3076 H 277.854 -3.65436 -0.80044 0
M  V30 3077 H 279.187 -4.80376 -1.07236 0
M  V30 3078 N 280.839 0.0985539 -1.57292 0
M  V30 3079 C 281.749 1.13824 -2.05137 0
M  V30 3080 C 282.765 1.44076 -0.975604 0
M  V30 3081 O 283.941 1.54786 -1.28853 0
M  V30 3082 C 281.006 2.43969 -2.46333 0
M  V30 3083 C 280.067 2.2093 -3.68087 0
M  V30 3084 C 279.3 3.44869 -4.0731 0
M  V30 3085 O 279.523 4.52972 -3.46659 0
M  V30 3086 O 278.457 3.34661 -5.00285 0
M  V30 3087 H 282.283 0.761881 -2.93988 0
M  V30 3088 H 279.868 0.310818 -1.46131 0
M  V30 3089 H 281.75 3.20609 -2.73473 0
M  V30 3090 H 280.425 2.81038 -1.60621 0
M  V30 3091 H 279.332 1.42081 -3.46069 0
M  V30 3092 H 280.665 1.88755 -4.54568 0
M  V30 3093 N 282.317 1.53212 0.369288 0
M  V30 3094 C 283.227 1.82342 1.47609 0
M  V30 3095 C 284.243 0.711532 1.58787 0
M  V30 3096 O 285.419 1.0012 1.74751 0
M  V30 3097 C 282.484 2.00393 2.8292 0
M  V30 3098 C 281.545 3.24297 2.81301 0
M  V30 3099 C 280.778 3.41478 4.10157 0
M  V30 3100 O 281.001 2.63033 5.06132 0
M  V30 3101 O 279.935 4.34817 4.16194 0
M  V30 3102 H 283.761 2.76366 1.25918 0
M  V30 3103 H 281.346 1.38547 0.559034 0
M  V30 3104 H 283.228 2.13859 3.63101 0
M  V30 3105 H 281.903 1.09559 3.04596 0
M  V30 3106 H 280.81 3.16257 1.99831 0
M  V30 3107 H 282.143 4.15041 2.64578 0
M  V30 3108 N 283.795 -0.628877 1.44509 0
M  V30 3109 C 285.043 -1.38565 1.4712 0
M  V30 3110 C 285.364 -1.94712 0.105899 0
M  V30 3111 O 284.634 -1.75912 -0.862079 0
M  V30 3112 H 283.214 -0.514333 0.541729 0
M  V30 3113 H 285.876 -0.740018 1.80305 0
M  V30 3114 H 284.972 -2.21583 2.19789 0
M  V30 3115 N 285.273 -1.31445 -0.869486 0
M  V30 3116 C 286.223 -1.15731 -1.96444 0
M  V30 3117 C 287.207 -0.0681855 -1.60755 0
M  V30 3118 O 288.399 -0.293154 -1.74555 0
M  V30 3119 C 285.528 -0.867255 -3.32165 0
M  V30 3120 C 284.614 -1.99738 -3.74119 0
M  V30 3121 N 285.005 -3.24447 -3.88031 0
M  V30 3122 C 283.303 -1.89723 -4.03635 0
M  V30 3123 C 284.004 -3.98374 -4.23879 0
M  V30 3124 N 282.98 -3.26547 -4.3459 0
M  V30 3125 H 286.782 -2.10296 -2.05312 0
M  V30 3126 H 284.296 -1.23009 -1.06031 0
M  V30 3127 H 286.293 -0.735668 -4.10358 0
M  V30 3128 H 284.953 0.0701614 -3.24624 0
M  V30 3129 H 285.964 -3.59557 -3.72746 0
M  V30 3130 H 282.641 -1.03449 -4.04481 0
M  V30 3131 H 284.031 -5.05844 -4.42235 0
M  V30 3132 N 286.751 1.08385 -1.14413 0
M  V30 3133 C 287.699 2.17406 -0.826888 0
M  V30 3134 C 288.693 1.6827 0.195312 0
M  V30 3135 O 289.899 1.79927 0.0513892 0
M  V30 3136 H 286.274 0.70934 -0.249681 0
M  V30 3137 H 288.245 2.41388 -1.75426 0
M  V30 3138 C 286.994 3.46215 -0.320979 0
M  V30 3139 H 286.317 3.84401 -1.0989 0
M  V30 3140 H 287.757 4.23777 -0.137549 0
M  V30 3141 C 286.216 3.23067 0.955472 0
M  V30 3142 O 286.746 3.4668 2.02918 0
M  V30 3143 N 284.952 2.7661 0.890798 0
M  V30 3144 H 284.499 2.57594 0.0168815 0
M  V30 3145 H 284.457 2.61501 1.74542 0
M  V30 3146 N 288.23 0.939286 1.26551 0
M  V30 3147 C 289.507 0.5038 1.89001 0
M  V30 3148 C 289.887 -1.01854 1.84903 0
M  V30 3149 O 289.235 -1.87773 1.30206 0
M  V30 3150 C 289.445 1.063 3.32417 0
M  V30 3151 C 290.793 1.13051 4.09273 0
M  V30 3152 O 291.817 1.01345 3.41479 0
M  V30 3153 O 290.676 1.31233 5.30509 0
M  V30 3154 H 287.77 0.163897 0.810597 0
M  V30 3155 H 290.316 1.03173 1.34735 0
M  V30 3156 H 289.088 2.10665 3.29752 0
M  V30 3157 H 288.711 0.517408 3.94219 0
M  V30 3158 N 289.708 -1.40897 0.706093 0
M  V30 3159 C 290.936 -2.05373 0.250887 0
M  V30 3160 C 291.351 -1.53172 -1.10381 0
M  V30 3161 O 290.708 -0.684305 -1.69185 0
M  V30 3162 C 290.759 -3.6088 0.211571 0
M  V30 3163 O 290.48 -4.11153 1.51276 0
M  V30 3164 C 291.981 -4.42517 -0.263346 0
M  V30 3165 H 289.201 -0.66115 0.114552 0
M  V30 3166 H 291.745 -1.80479 0.961635 0
M  V30 3167 H 289.9 -3.84777 -0.450073 0
M  V30 3168 H 290.314 -5.05279 1.40689 0
M  V30 3169 H 291.788 -5.51479 -0.239718 0
M  V30 3170 H 292.265 -4.19396 -1.30397 0
M  V30 3171 H 292.871 -4.23708 0.367677 0
M  V30 3172 N 291.186 -0.45159 -1.50991 0
M  V30 3173 C 292.411 0.110667 -2.07105 0
M  V30 3174 C 292.836 1.3446 -1.31538 0
M  V30 3175 O 292.194 1.77743 -0.357365 0
M  V30 3176 C 292.242 0.397238 -3.58405 0
M  V30 3177 O 291.346 1.48124 -3.84881 0
M  V30 3178 H 290.687 -0.00439271 -0.663985 0
M  V30 3179 H 293.217 -0.637026 -1.9443 0
M  V30 3180 H 293.227 0.64351 -4.02893 0
M  V30 3181 H 291.902 -0.504553 -4.12828 0
M  V30 3182 H 290.479 1.22381 -3.52246 0
M  V30 3183 N 292.664 1.56529 -0.183458 0
M  V30 3184 C 293.941 1.88959 0.50536 0
M  V30 3185 C 294.321 1.09523 1.80466 0
M  V30 3186 O 293.669 0.19278 2.27685 0
M  V30 3187 C 293.879 3.41162 0.73547 0
M  V30 3188 C 295.227 4.11155 1.06005 0
M  V30 3189 O 296.251 3.46548 0.823594 0
M  V30 3190 O 295.11 5.25318 1.50675 0
M  V30 3191 H 292.204 0.78441 0.261973 0
M  V30 3192 H 294.75 1.68231 -0.222802 0
M  V30 3193 H 293.522 3.90874 -0.182561 0
M  V30 3194 H 293.145 3.67543 1.51651 0
M  V30 3195 N 294.142 -0.090211 1.57342 0
M  V30 3196 C 295.39 -0.791241 1.85967 0
M  V30 3197 C 295.711 -1.7903 0.772859 0
M  V30 3198 O 294.981 -1.94872 -0.200398 0
M  V30 3199 H 293.561 -0.295205 0.686195 0
M  V30 3200 H 296.223 -0.0706782 1.94772 0
M  V30 3201 H 295.319 -1.31882 2.82867 0
M  V30 3202 N 295.62 -1.53406 -0.361157 0
M  V30 3203 C 296.567 -1.80156 -1.44265 0
M  V30 3204 C 297.537 -0.646183 -1.53015 0
M  V30 3205 O 298.722 -0.888818 -1.68833 0
M  V30 3206 C 295.862 -2.00116 -2.81154 0
M  V30 3207 C 294.975 -3.27833 -2.81335 0
M  V30 3208 C 294.11 -3.37957 -4.09828 0
M  V30 3209 C 293.149 -4.59689 -4.04168 0
M  V30 3210 N 292.286 -4.66942 -5.24318 0
M  V30 3211 H 297.126 -2.72438 -1.20754 0
M  V30 3212 H 294.663 -1.34954 -0.585296 0
M  V30 3213 H 296.621 -2.09677 -3.60682 0
M  V30 3214 H 295.251 -1.11167 -3.03054 0
M  V30 3215 H 294.303 -3.27204 -1.94014 0
M  V30 3216 H 295.615 -4.17442 -2.73027 0
M  V30 3217 H 294.769 -3.46853 -4.97773 0
M  V30 3218 H 293.508 -2.46372 -4.20894 0
M  V30 3219 H 292.513 -4.50889 -3.14609 0
M  V30 3220 H 293.738 -5.5262 -3.947 0
M  V30 3221 H 291.684 -3.7826 -5.35962 0
M  V30 3222 H 291.601 -5.50462 -5.18197 0
M  V30 3223 H 292.869 -4.80127 -6.14084 0
M  V30 3224 N 297.098 0.621204 -1.44841 0
M  V30 3225 C 298.03 1.74615 -1.48466 0
M  V30 3226 C 299.043 1.58377 -0.37691 0
M  V30 3227 O 300.232 1.66508 -0.643215 0
M  V30 3228 C 297.332 3.12459 -1.31236 0
M  V30 3229 C 296.505 3.55064 -2.55438 0
M  V30 3230 C 295.564 4.71821 -2.32963 0
M  V30 3231 O 294.59 4.79628 -3.06505 0
M  V30 3232 N 295.792 5.64186 -1.36654 0
M  V30 3233 H 298.557 1.71973 -2.45449 0
M  V30 3234 H 296.118 0.806077 -1.40407 0
M  V30 3235 H 298.11 3.88302 -1.14032 0
M  V30 3236 H 296.68 3.09686 -0.4258 0
M  V30 3237 H 295.9 2.69324 -2.87851 0
M  V30 3238 H 297.188 3.80284 -3.38026 0
M  V30 3239 H 296.586 5.6058 -0.759344 0
M  V30 3240 H 295.143 6.39618 -1.25425 0
M  V30 3241 N 298.576 1.31904 0.862503 0
M  V30 3242 C 299.853 1.12644 1.59908 0
M  V30 3243 C 300.233 -0.316104 2.0872 0
M  V30 3244 O 299.581 -1.31145 1.87118 0
M  V30 3245 C 299.791 2.1472 2.7513 0
M  V30 3246 C 301.139 2.47637 3.44907 0
M  V30 3247 O 302.163 2.13205 2.85346 0
M  V30 3248 O 301.022 3.06632 4.52371 0
M  V30 3249 H 298.116 0.43416 0.703871 0
M  V30 3250 H 300.662 1.43408 0.907314 0
M  V30 3251 H 299.434 3.1172 2.3653 0
M  V30 3252 H 299.057 1.84905 3.51989 0
M  V30 3253 N 300.054 -1.07777 1.14986 0
M  V30 3254 C 301.331 -1.7699 0.832695 0
M  V30 3255 C 301.711 -2.001 -0.672561 0
M  V30 3256 O 301.059 -1.61598 -1.6155 0
M  V30 3257 C 301.269 -3.08139 1.63863 0
M  V30 3258 C 302.617 -3.8256 1.84208 0
M  V30 3259 O 303.641 -3.17939 1.60603 0
M  V30 3260 O 302.5 -4.98612 2.23714 0
M  V30 3261 H 299.594 -0.768389 0.305791 0
M  V30 3262 H 302.14 -1.14182 1.25541 0
M  V30 3263 H 300.912 -2.86909 2.6608 0
M  V30 3264 H 300.535 -3.78678 1.21197 0
M  V30 3265 N 301.532 -0.945985 -1.26051 0
M  V30 3266 C 302.757 -0.612525 -1.98149 0
M  V30 3267 C 303.182 0.806623 -1.69927 0
M  V30 3268 O 302.54 1.54411 -0.950108 0
M  V30 3269 C 302.588 -0.866981 -3.50023 0
M  V30 3270 O 301.692 0.0585333 -4.12358 0
M  V30 3271 H 301.033 -0.23379 -0.621481 0
M  V30 3272 H 303.563 -1.27023 -1.60395 0
M  V30 3273 H 303.573 -0.789792 -4.00283 0
M  V30 3274 H 302.248 -1.90135 -3.69894 0
M  V30 3275 H 300.825 -0.0701241 -3.72834 0
M  V30 3276 N 303.011 1.40521 -0.713556 0
M  V30 3277 C 303.958 2.30723 -0.059684 0
M  V30 3278 C 304.928 1.48079 0.752448 0
M  V30 3279 O 306.113 1.76823 0.71681 0
M  V30 3280 C 303.253 3.34274 0.857594 0
M  V30 3281 C 302.366 4.31986 0.0351536 0
M  V30 3282 C 301.501 5.22605 0.951724 0
M  V30 3283 C 300.54 6.11976 0.123253 0
M  V30 3284 N 299.677 6.9502 0.99459 0
M  V30 3285 H 304.517 2.86074 -0.834596 0
M  V30 3286 H 302.054 1.40879 -0.42326 0
M  V30 3287 H 304.012 3.92879 1.40364 0
M  V30 3288 H 302.642 2.8043 1.59871 0
M  V30 3289 H 301.694 3.7518 -0.628052 0
M  V30 3290 H 303.006 4.95101 -0.606347 0
M  V30 3291 H 302.16 5.86131 1.56638 0
M  V30 3292 H 300.899 4.59759 1.62705 0
M  V30 3293 H 299.904 5.47482 -0.50435 0
M  V30 3294 H 301.129 6.76881 -0.548539 0
M  V30 3295 H 299.075 6.34764 1.6556 0
M  V30 3296 H 298.992 7.54892 0.40908 0
M  V30 3297 H 300.26 7.62997 1.59549 0
M  V30 3298 N 304.489 0.459591 1.5075 0
M  V30 3299 C 305.399 -0.34613 2.32033 0
M  V30 3300 C 306.415 -1.00686 1.41909 0
M  V30 3301 O 307.591 -0.997361 1.7497 0
M  V30 3302 C 304.656 -1.42029 3.16273 0
M  V30 3303 C 303.717 -0.777362 4.22203 0
M  V30 3304 C 302.95 -1.80034 5.02418 0
M  V30 3305 O 303.173 -3.02544 4.83553 0
M  V30 3306 O 302.107 -1.37853 5.85901 0
M  V30 3307 H 305.933 0.318054 3.0203 0
M  V30 3308 H 303.518 0.221663 1.47746 0
M  V30 3309 H 305.4 -2.04275 3.68578 0
M  V30 3310 H 304.075 -2.06815 2.49016 0
M  V30 3311 H 302.982 -0.116256 3.73919 0
M  V30 3312 H 304.315 -0.172634 4.91897 0
M  V30 3313 N 305.967 -1.56429 0.191757 0
M  V30 3314 C 307.244 -1.89224 -0.495332 0
M  V30 3315 C 307.624 -1.10478 -1.79883 0
M  V30 3316 O 306.972 -0.204852 -2.2758 0
M  V30 3317 C 307.182 -3.41548 -0.717367 0
M  V30 3318 C 308.53 -4.11711 -1.03823 0
M  V30 3319 O 309.554 -3.4698 -0.805204 0
M  V30 3320 O 308.413 -5.2611 -1.47887 0
M  V30 3321 H 305.507 -0.785788 -0.25781 0
M  V30 3322 H 308.053 -1.68111 0.231721 0
M  V30 3323 H 306.825 -3.90772 0.203287 0
M  V30 3324 H 306.448 -3.68342 -1.497 0
M  V30 3325 N 307.445 0.0818655 -1.57387 0
M  V30 3326 C 308.375 1.09885 -2.06028 0
M  V30 3327 C 309.356 1.4098 -0.951774 0
M  V30 3328 O 310.541 1.50781 -1.22387 0
M  V30 3329 C 307.671 2.4151 -2.4958 0
M  V30 3330 C 306.625 2.24792 -3.64215 0
M  V30 3331 C 305.951 3.61712 -3.93787 0
M  V30 3332 C 307.251 1.67749 -4.94629 0
M  V30 3333 H 308.945 0.694128 -2.91243 0
M  V30 3334 H 306.491 0.332448 -1.4011 0
M  V30 3335 H 308.444 3.12939 -2.82219 0
M  V30 3336 H 307.168 2.83943 -1.61381 0
M  V30 3337 H 305.827 1.55807 -3.31843 0
M  V30 3338 H 305.475 4.01697 -3.02735 0
M  V30 3339 H 305.175 3.51368 -4.70971 0
M  V30 3340 H 306.699 4.34587 -4.28913 0
M  V30 3341 H 308.113 2.29032 -5.25564 0
M  V30 3342 H 306.51 1.68128 -5.76067 0
M  V30 3343 H 307.58 0.638059 -4.80684 0
M  V30 3344 N 308.923 1.53595 0.353017 0
M  V30 3345 C 310.334 1.61937 0.929153 0
M  V30 3346 C 310.685 0.494686 1.89861 0
M  V30 3347 O 309.81 -0.377017 2.1309 0
M  V30 3348 C 310.405 2.93526 1.69199 0
M  V30 3349 C 308.964 3.04161 2.21727 0
M  V30 3350 C 308.111 2.57322 1.03348 0
M  V30 3351 H 311.062 1.58155 0.131431 0
M  V30 3352 H 311.083 2.82034 2.55416 0
M  V30 3353 H 310.595 3.75362 0.986144 0
M  V30 3354 H 308.696 2.26938 2.95516 0
M  V30 3355 H 308.809 4.09465 2.48748 0
M  V30 3356 H 307.173 2.12499 1.40414 0
M  V30 3357 H 307.956 3.41588 0.342428 0
M  V30 3358 N 310.401 -0.613514 1.45168 0
M  V30 3359 C 311.647 -1.37471 1.49096 0
M  V30 3360 C 311.98 -1.93765 0.129901 0
M  V30 3361 O 311.255 -1.74707 -0.854858 0
M  V30 3362 C 311.538 -2.52701 2.56542 0
M  V30 3363 C 311.391 -2.01643 4.0207 0
M  V30 3364 C 312.71 -3.54849 2.60327 0
M  V30 3365 H 309.829 -0.498502 0.54283 0
M  V30 3366 H 312.471 -0.692125 1.76945 0
M  V30 3367 H 310.621 -3.10931 2.32926 0
M  V30 3368 H 312.293 -1.48108 4.36877 0
M  V30 3369 H 310.536 -1.32688 4.13009 0
M  V30 3370 H 311.207 -2.84681 4.72928 0
M  V30 3371 H 313.683 -3.0645 2.81474 0
M  V30 3372 H 312.559 -4.32973 3.37381 0
M  V30 3373 H 312.82 -4.10079 1.6519 0
M  V30 3374 N 311.879 -1.3236 -0.855495 0
M  V30 3375 C 313.107 -1.2587 -1.64208 0
M  V30 3376 C 313.522 0.173457 -1.88002 0
M  V30 3377 O 312.879 1.11027 -1.44842 0
M  V30 3378 C 312.93 -2.01424 -3.00184 0
M  V30 3379 O 312.651 -3.39051 -2.77445 0
M  V30 3380 C 314.152 -2.01948 -3.94629 0
M  V30 3381 H 311.372 -0.434318 -0.511477 0
M  V30 3382 H 313.916 -1.74469 -1.0668 0
M  V30 3383 H 312.071 -1.56549 -3.5436 0
M  V30 3384 H 312.485 -3.77711 -3.63916 0
M  V30 3385 H 313.959 -2.59297 -4.87308 0
M  V30 3386 H 314.436 -1.00554 -4.27534 0
M  V30 3387 H 315.042 -2.46767 -3.4639 0
M  V30 3388 N 313.357 1.07166 -1.15556 0
M  V30 3389 C 314.773 1.31899 -0.898603 0
M  V30 3390 C 314.973 1.96333 0.453383 0
M  V30 3391 O 314.029 2.22438 1.19489 0
M  V30 3392 C 315.342 2.20826 -2.04099 0
M  V30 3393 C 316.89 2.34269 -2.07574 0
M  V30 3394 C 317.365 3.26546 -3.21141 0
M  V30 3395 N 318.856 3.34127 -3.20801 0
M  V30 3396 C 319.591 4.05595 -4.05315 0
M  V30 3397 N 319.087 4.79661 -4.99897 0
M  V30 3398 N 320.88 4.01555 -3.93332 0
M  V30 3399 H 313.031 0.637302 -2.02613 0
M  V30 3400 H 315.294 0.343468 -0.883591 0
M  V30 3401 H 315 1.80744 -3.01703 0
M  V30 3402 H 314.874 3.21364 -1.97496 0
M  V30 3403 H 317.261 2.73603 -1.10568 0
M  V30 3404 H 317.342 1.33429 -2.18244 0
M  V30 3405 H 316.986 2.87931 -4.184 0
M  V30 3406 H 316.916 4.27345 -3.07708 0
M  V30 3407 H 319.407 2.81336 -2.52306 0
M  V30 3408 H 319.72 5.31694 -5.60822 0
M  V30 3409 H 318.065 4.78671 -5.03884 0
M  V30 3410 H 321.256 3.42806 -3.18751 0
M  V30 3411 H 321.429 4.56987 -4.5942 0
M  V30 3412 N 314.835 0.952656 1.25548 0
M  V30 3413 C 315.782 0.47008 2.25962 0
M  V30 3414 C 316.752 -0.476384 1.59122 0
M  V30 3415 O 317.937 -0.39007 1.8677 0
M  V30 3416 C 315.077 -0.247881 3.44209 0
M  V30 3417 C 314.19 0.735591 4.25691 0
M  V30 3418 C 313.325 -0.0047306 5.312 0
M  V30 3419 C 312.364 0.969805 6.04368 0
M  V30 3420 N 311.501 0.260486 7.01617 0
M  V30 3421 H 316.341 1.33126 2.66611 0
M  V30 3422 H 313.878 0.66765 1.31076 0
M  V30 3423 H 315.836 -0.680695 4.1161 0
M  V30 3424 H 314.466 -1.07312 3.0444 0
M  V30 3425 H 313.518 1.28689 3.57971 0
M  V30 3426 H 314.83 1.47934 4.76358 0
M  V30 3427 H 313.984 -0.496275 6.04667 0
M  V30 3428 H 312.723 -0.781282 4.81401 0
M  V30 3429 H 311.728 1.47237 5.29718 0
M  V30 3430 H 312.953 1.74655 6.56256 0
M  V30 3431 H 310.899 -0.497364 6.54112 0
M  V30 3432 H 310.816 0.943362 7.50091 0
M  V30 3433 H 312.084 -0.209587 7.79218 0
M  V30 3434 N 316.313 -1.40141 0.720998 0
M  V30 3435 C 317.729 -1.54632 0.395113 0
M  V30 3436 C 317.929 -1.69115 -1.09555 0
M  V30 3437 O 316.985 -1.68377 -1.88163 0
M  V30 3438 C 318.298 -2.77177 1.1659 0
M  V30 3439 C 319.846 -2.91 1.15274 0
M  V30 3440 C 320.321 -4.16465 1.90579 0
M  V30 3441 N 321.812 -4.23476 1.87675 0
M  V30 3442 C 322.547 -5.19475 2.42762 0
M  V30 3443 N 322.043 -6.21348 3.06428 0
M  V30 3444 N 323.836 -5.11592 2.32874 0
M  V30 3445 H 315.987 -1.28986 1.68749 0
M  V30 3446 H 318.25 -0.62412 0.713567 0
M  V30 3447 H 317.956 -2.72771 2.22011 0
M  V30 3448 H 317.83 -3.69442 0.76108 0
M  V30 3449 H 320.217 -2.94907 0.106702 0
M  V30 3450 H 320.298 -1.99838 1.59682 0
M  V30 3451 H 319.942 -4.1332 2.95176 0
M  V30 3452 H 319.872 -5.06646 1.43587 0
M  V30 3453 H 322.363 -3.50497 1.41281 0
M  V30 3454 H 322.676 -6.91034 3.45965 0
M  V30 3455 H 321.021 -6.21777 3.10514 0
M  V30 3456 H 324.212 -4.30936 1.82789 0
M  V30 3457 H 324.385 -5.86233 2.76106 0
M  V30 3458 N 317.792 -0.46758 -1.50504 0
M  V30 3459 C 318.739 0.328413 -2.28452 0
M  V30 3460 C 319.709 0.990313 -1.33349 0
M  V30 3461 O 320.894 1.00343 -1.62284 0
M  V30 3462 C 318.034 1.40648 -3.15138 0
M  V30 3463 C 317.147 0.759709 -4.25267 0
M  V30 3464 C 316.282 1.81537 -4.99217 0
M  V30 3465 C 315.321 1.14866 -6.01226 0
M  V30 3466 N 314.458 2.14702 -6.68467 0
M  V30 3467 H 319.298 -0.342603 -2.96024 0
M  V30 3468 H 316.835 -0.180801 -1.45985 0
M  V30 3469 H 318.793 2.04315 -3.63746 0
M  V30 3470 H 317.423 2.04671 -2.49619 0
M  V30 3471 H 316.475 0.0105671 -3.80399 0
M  V30 3472 H 317.787 0.233243 -4.98254 0
M  V30 3473 H 316.941 2.52793 -5.51526 0
M  V30 3474 H 315.68 2.37564 -4.25928 0
M  V30 3475 H 314.685 0.42171 -5.4818 0
M  V30 3476 H 315.91 0.595334 -6.76485 0
M  V30 3477 H 313.856 2.69752 -5.97972 0
M  V30 3478 H 313.773 1.6703 -7.37317 0
M  V30 3479 H 315.041 2.85348 -7.25394 0
M  V30 3480 N 319.27 1.56325 -0.20005 0
M  V30 3481 C 320.686 1.58839 0.155716 0
M  V30 3482 C 320.886 1.21636 1.60645 0
M  V30 3483 O 319.942 0.941437 2.34293 0
M  V30 3484 C 321.255 3.0032 -0.151124 0
M  V30 3485 C 322.803 3.12866 -0.0916284 0
M  V30 3486 C 323.278 4.56488 -0.371845 0
M  V30 3487 N 324.769 4.62089 -0.320641 0
M  V30 3488 C 325.504 5.71116 -0.511243 0
M  V30 3489 N 325 6.88592 -0.762461 0
M  V30 3490 N 326.793 5.60335 -0.445157 0
M  V30 3491 H 318.944 1.78788 -1.14668 0
M  V30 3492 H 321.207 0.829996 -0.458051 0
M  V30 3493 H 320.913 3.32117 -1.15721 0
M  V30 3494 H 320.787 3.73257 0.543986 0
M  V30 3495 H 323.174 2.80878 0.905065 0
M  V30 3496 H 323.255 2.42304 -0.81989 0
M  V30 3497 H 322.899 4.89189 -1.36588 0
M  V30 3498 H 322.829 5.25246 0.377362 0
M  V30 3499 H 325.32 3.77665 -0.13329 0
M  V30 3500 H 325.633 7.67581 -0.896576 0
M  V30 3501 H 323.978 6.90387 -0.799412 0
M  V30 3502 H 327.169 4.67436 -0.249278 0
M  V30 3503 H 327.342 6.45243 -0.597116 0
M  V30 3504 N 320.748 -0.0735177 1.57428 0
M  V30 3505 C 321.698 -1.09442 2.00016 0
M  V30 3506 C 322.682 -1.34575 0.881947 0
M  V30 3507 O 323.874 -1.34905 1.14585 0
M  V30 3508 C 321.003 -2.40865 2.4462 0
M  V30 3509 C 320.089 -2.19014 3.63172 0
M  V30 3510 N 320.48 -1.67087 4.77405 0
M  V30 3511 C 318.778 -2.49494 3.69688 0
M  V30 3512 C 319.479 -1.6001 5.5926 0
M  V30 3513 N 318.455 -2.05999 5.03056 0
M  V30 3514 H 322.257 -0.686227 2.85776 0
M  V30 3515 H 319.771 -0.280617 1.59957 0
M  V30 3516 H 321.768 -3.14763 2.73368 0
M  V30 3517 H 320.428 -2.82403 1.60246 0
M  V30 3518 H 321.439 -1.35975 4.99731 0
M  V30 3519 H 318.116 -2.94409 2.96023 0
M  V30 3520 H 319.506 -1.2073 6.60964 0
M  V30 3521 N 322.226 -1.5378 -0.344866 0
M  V30 3522 C 323.189 -1.80981 -1.40637 0
M  V30 3523 C 324.189 -0.680816 -1.45676 0
M  V30 3524 O 325.379 -0.949095 -1.46075 0
M  V30 3525 C 322.511 -1.95063 -2.79577 0
M  V30 3526 H 323.704 -2.75803 -1.17783 0
M  V30 3527 H 321.257 -1.45173 -0.579181 0
M  V30 3528 H 321.992 -1.02379 -3.07716 0
M  V30 3529 H 321.777 -2.77198 -2.77315 0
M  V30 3530 H 323.267 -2.17629 -3.56409 0
M  V30 3531 N 323.704 0.605807 -1.45491 0
M  V30 3532 C 324.953 1.36086 -1.48874 0
M  V30 3533 C 325.266 1.95131 -0.135333 0
M  V30 3534 O 326.472 2.7146 -0.0468144 0
M  V30 3535 C 324.928 2.46518 -2.62215 0
M  V30 3536 C 324.536 1.93877 -4.03876 0
M  V30 3537 C 326.28 3.23512 -2.74846 0
M  V30 3538 C 324.187 3.01801 -5.08596 0
M  V30 3539 H 323.117 0.511497 -0.553974 0
M  V30 3540 H 325.768 0.649089 -1.71636 0
M  V30 3541 H 324.15 3.20388 -2.32739 0
M  V30 3542 H 325.324 1.26704 -4.43038 0
M  V30 3543 H 323.639 1.29622 -3.95711 0
M  V30 3544 H 326.236 4.04013 -3.50253 0
M  V30 3545 H 326.579 3.74631 -1.81542 0
M  V30 3546 H 327.112 2.56742 -3.03856 0
M  V30 3547 H 323.851 2.55597 -6.03614 0
M  V30 3548 H 323.371 3.67535 -4.74002 0
M  V30 3549 H 325.05 3.66152 -5.33424 0
M  V30 3550 N 325.182 1.32811 0.848464 0
M  V30 3551 C 326.092 1.24278 1.98978 0
M  V30 3552 C 327.108 0.155176 1.73307 0
M  V30 3553 O 328.284 0.376999 1.9784 0
M  V30 3554 C 325.349 0.972444 3.32783 0
M  V30 3555 C 324.41 2.14911 3.71634 0
M  V30 3556 C 323.643 1.89157 4.99054 0
M  V30 3557 O 323.866 0.837165 5.64223 0
M  V30 3558 O 322.8 2.75433 5.35183 0
M  V30 3559 H 326.626 2.20238 2.09115 0
M  V30 3560 H 324.211 1.12762 0.980052 0
M  V30 3561 H 326.093 0.838432 4.12975 0
M  V30 3562 H 324.768 0.043051 3.23671 0
M  V30 3563 H 323.675 2.33862 2.91992 0
M  V30 3564 H 325.008 3.06151 3.85399 0
M  V30 3565 N 326.66 -1.06551 1.16123 0
M  V30 3566 C 327.908 -1.78947 0.939267 0
M  V30 3567 C 328.229 -1.87532 -0.534476 0
M  V30 3568 O 327.499 -1.38211 -1.38833 0
M  V30 3569 H 326.079 -0.662807 0.344523 0
M  V30 3570 H 328.741 -1.28725 1.46342 0
M  V30 3571 H 327.837 -2.81117 1.35572 0
M  V30 3572 N 328.138 -0.959301 -1.25041 0
M  V30 3573 C 329.086 -0.474437 -2.2771 0
M  V30 3574 C 330.08 0.457697 -1.631 0
M  V30 3575 O 331.286 0.333912 -1.76876 0
M  V30 3576 H 327.661 -0.134936 -0.739795 0
M  V30 3577 H 329.632 -1.35251 -2.65988 0
M  V30 3578 C 328.381 0.227884 -3.46952 0
M  V30 3579 H 327.704 -0.480248 -3.96905 0
M  V30 3580 H 329.144 0.531091 -4.20661 0
M  V30 3581 C 327.603 1.452 -3.04004 0
M  V30 3582 O 328.133 2.54949 -3.10426 0
M  V30 3583 N 326.339 1.31502 -2.59144 0
M  V30 3584 H 325.886 0.422065 -2.54119 0
M  V30 3585 H 325.844 2.13521 -2.30773 0
M  V30 3586 N 329.616 1.39756 -0.72842 0
M  V30 3587 C 330.563 2.30647 -0.0841519 0
M  V30 3588 C 331.533 1.48869 0.7367 0
M  V30 3589 O 332.718 1.77574 0.698015 0
M  V30 3590 C 329.858 3.35165 0.822091 0
M  V30 3591 C 328.971 4.31999 -0.0106663 0
M  V30 3592 C 328.106 5.23585 0.896241 0
M  V30 3593 C 327.145 6.12072 0.0583381 0
M  V30 3594 N 326.282 6.96035 0.920818 0
M  V30 3595 H 331.122 2.85173 -0.864891 0
M  V30 3596 H 328.659 1.40422 -0.438179 0
M  V30 3597 H 330.617 3.94345 1.36189 0
M  V30 3598 H 329.247 2.8211 1.56888 0
M  V30 3599 H 328.299 3.74492 -0.66781 0
M  V30 3600 H 329.611 4.9443 -0.658825 0
M  V30 3601 H 328.765 5.87759 1.50412 0
M  V30 3602 H 327.504 4.61459 1.57819 0
M  V30 3603 H 326.509 5.46916 -0.562389 0
M  V30 3604 H 327.734 6.76261 -0.6203 0
M  V30 3605 H 325.68 6.36485 1.58818 0
M  V30 3606 H 325.597 7.55284 0.32899 0
M  V30 3607 H 326.865 7.64646 1.51447 0
M  V30 3608 N 331.094 0.475555 1.50254 0
M  V30 3609 C 332.041 -0.316293 2.28622 0
M  V30 3610 C 333.011 -0.983227 1.33873 0
M  V30 3611 O 334.196 -0.994805 1.62814 0
M  V30 3612 C 331.336 -1.38975 3.1588 0
M  V30 3613 C 330.449 -0.737146 4.25664 0
M  V30 3614 C 329.584 -1.78887 5.00173 0
M  V30 3615 C 328.623 -1.11676 6.01826 0
M  V30 3616 N 327.76 -2.11154 6.69596 0
M  V30 3617 H 332.6 0.358297 2.95838 0
M  V30 3618 H 330.137 0.188541 1.45887 0
M  V30 3619 H 332.095 -2.02383 3.64825 0
M  V30 3620 H 330.725 -2.03344 2.50701 0
M  V30 3621 H 329.777 0.0096065 3.80399 0
M  V30 3622 H 331.089 -0.206816 4.98371 0
M  V30 3623 H 330.243 -2.49865 5.52859 0
M  V30 3624 H 328.982 -2.35302 4.27182 0
M  V30 3625 H 327.987 -0.392633 5.48396 0
M  V30 3626 H 329.212 -0.55945 6.76792 0
M  V30 3627 H 327.158 -2.66577 5.99394 0
M  V30 3628 H 327.075 -1.63118 7.38193 0
M  V30 3629 H 328.343 -2.81497 7.26897 0
M  V30 3630 N 332.573 -1.56217 0.208337 0
M  V30 3631 C 333.798 -2.02782 -0.435222 0
M  V30 3632 C 334.223 -1.08738 -1.53485 0
M  V30 3633 O 333.581 -0.0731855 -1.81152 0
M  V30 3634 C 333.629 -3.47687 -0.956335 0
M  V30 3635 O 332.733 -3.56773 -2.06849 0
M  V30 3636 H 332.074 -0.656403 -0.100158 0
M  V30 3637 H 334.604 -2.02033 0.3231 0
M  V30 3638 H 334.614 -3.87745 -1.26955 0
M  V30 3639 H 333.289 -4.15624 -0.15143 0
M  V30 3640 H 331.866 -3.28597 -1.76292 0
M  V30 3641 N 334.051 0.0651679 -1.57465 0
M  V30 3642 C 335.276 0.779605 -1.9219 0
M  V30 3643 C 335.701 1.69988 -0.805333 0
M  V30 3644 O 335.059 1.79685 0.241435 0
M  V30 3645 C 335.107 1.54364 -3.2589 0
M  V30 3646 O 334.211 2.65474 -3.1559 0
M  V30 3647 H 333.552 0.212249 -0.629163 0
M  V30 3648 H 336.082 0.0314294 -2.04576 0
M  V30 3649 H 336.092 1.92146 -3.59922 0
M  V30 3650 H 334.767 0.868457 -4.06732 0
M  V30 3651 H 333.344 2.30501 -2.93128 0
M  V30 3652 N 335.529 1.53961 0.336706 0
M  V30 3653 C 336.476 1.82428 1.41381 0
M  V30 3654 C 337.446 0.670444 1.51968 0
M  V30 3655 O 338.631 0.915565 1.67398 0
M  V30 3656 C 335.771 2.04564 2.77934 0
M  V30 3657 C 334.884 3.32267 2.76084 0
M  V30 3658 C 334.019 3.44434 4.04399 0
M  V30 3659 C 333.058 4.66061 3.96804 0
M  V30 3660 N 332.195 4.75224 5.16823 0
M  V30 3661 H 337.035 2.74324 1.16405 0
M  V30 3662 H 334.572 1.35869 0.563752 0
M  V30 3663 H 336.53 2.15388 3.57301 0
M  V30 3664 H 335.16 1.15974 3.01247 0
M  V30 3665 H 334.212 3.3025 1.88784 0
M  V30 3666 H 335.524 4.21733 2.66351 0
M  V30 3667 H 334.678 3.54728 4.92192 0
M  V30 3668 H 333.417 2.53037 4.16921 0
M  V30 3669 H 332.422 4.55838 3.07396 0
M  V30 3670 H 333.647 5.58829 3.85858 0
M  V30 3671 H 331.593 3.86739 5.29876 0
M  V30 3672 H 331.51 5.58636 5.09374 0
M  V30 3673 H 332.778 4.89835 6.06367 0
M  V30 3674 N 337.007 -0.598083 1.45811 0
M  V30 3675 C 337.954 -1.7082 1.55207 0
M  V30 3676 C 338.924 -1.61278 0.39732 0
M  V30 3677 O 340.109 -1.80717 0.612038 0
M  V30 3678 C 337.249 -3.09144 1.53376 0
M  V30 3679 C 336.362 -3.29423 2.79472 0
M  V30 3680 C 335.497 -4.57907 2.69248 0
M  V30 3681 C 334.536 -4.71476 3.90354 0
M  V30 3682 N 333.673 -5.9127 3.78608 0
M  V30 3683 H 338.513 -1.62125 2.50039 0
M  V30 3684 H 336.05 -0.790389 1.24062 0
M  V30 3685 H 338.008 -3.89186 1.50301 0
M  V30 3686 H 336.638 -3.16773 0.620876 0
M  V30 3687 H 335.69 -2.43091 2.92594 0
M  V30 3688 H 337.002 -3.3532 3.69272 0
M  V30 3689 H 336.156 -5.46157 2.64192 0
M  V30 3690 H 334.895 -4.54423 1.77063 0
M  V30 3691 H 333.9 -3.81648 3.95759 0
M  V30 3692 H 335.125 -4.76751 4.83617 0
M  V30 3693 H 333.071 -5.88813 2.89199 0
M  V30 3694 H 332.988 -5.98369 4.6205 0
M  V30 3695 H 334.256 -6.81992 3.77501 0
M  V30 3696 N 338.485 -1.33259 -0.841409 0
M  V30 3697 C 339.417 -1.19136 -1.95804 0
M  V30 3698 C 340.43 -0.122965 -1.62335 0
M  V30 3699 O 341.619 -0.373154 -1.74556 0
M  V30 3700 C 338.719 -0.804268 -3.29218 0
M  V30 3701 C 337.892 -1.96376 -3.90839 0
M  V30 3702 C 336.951 -1.55806 -5.02604 0
M  V30 3703 O 335.977 -2.27203 -5.21888 0
M  V30 3704 N 337.179 -0.461609 -5.78662 0
M  V30 3705 H 339.944 -2.15326 -2.08458 0
M  V30 3706 H 337.505 -1.25971 -1.017 0
M  V30 3707 H 339.497 -0.51501 -4.0141 0
M  V30 3708 H 338.067 0.0668809 -3.12528 0
M  V30 3709 H 337.287 -2.41879 -3.11269 0
M  V30 3710 H 338.575 -2.73966 -4.28742 0
M  V30 3711 H 337.973 0.132343 -5.65545 0
M  V30 3712 H 336.53 -0.232013 -6.51387 0
M  V30 3713 N 339.963 1.05934 -1.16686 0
M  V30 3714 C 341.21 1.788 -0.950622 0
M  V30 3715 C 341.538 1.87384 0.521305 0
M  V30 3716 O 340.793 1.36438 1.40297 0
M  V30 3717 C 341.092 3.23105 -1.52767 0
M  V30 3718 C 340.758 3.34594 -3.02254 0
M  V30 3719 C 339.42 3.37437 -3.43059 0
M  V30 3720 C 341.772 3.36219 -3.98254 0
M  V30 3721 C 339.1 3.39525 -4.78477 0
M  V30 3722 C 341.452 3.39845 -5.33562 0
M  V30 3723 C 340.116 3.40971 -5.73842 0
M  V30 3724 H 339.386 0.654275 -0.347857 0
M  V30 3725 H 342.033 1.24555 -1.45459 0
M  V30 3726 H 340.338 3.80227 -0.94524 0
M  V30 3727 H 342.035 3.7809 -1.336 0
M  V30 3728 H 338.625 3.3309 -2.6972 0
M  V30 3729 H 342.809 3.33231 -3.67792 0
M  V30 3730 H 338.065 3.38703 -5.09009 0
M  V30 3731 H 342.239 3.4005 -6.07733 0
M  V30 3732 H 339.866 3.42342 -6.78753 0
M  V30 3733 N 341.441 0.965919 1.2453 0
M  V30 3734 C 342.852 0.665929 1.7442 0
M  V30 3735 C 343.203 -0.818407 1.78316 0
M  V30 3736 O 342.328 -1.64037 1.41141 0
M  V30 3737 C 342.923 1.20211 3.16757 0
M  V30 3738 C 341.482 0.952059 3.6416 0
M  V30 3739 C 340.629 1.33848 2.42858 0
M  V30 3740 H 343.58 1.14144 1.10258 0
M  V30 3741 H 343.601 0.567544 3.76244 0
M  V30 3742 H 343.113 2.28244 3.13889 0
M  V30 3743 H 341.214 -0.112821 3.72429 0
M  V30 3744 H 341.327 1.59645 4.51719 0
M  V30 3745 H 339.691 0.756864 2.43195 0
M  V30 3746 H 340.474 2.42827 2.42673 0
M  V30 3747 N 342.919 -1.39368 0.735821 0
M  V30 3748 C 343.867 -2.32443 0.0855131 0
M  V30 3749 C 344.861 -1.53104 -0.724954 0
M  V30 3750 O 346.067 -1.68762 -0.626047 0
M  V30 3751 H 342.442 -0.751948 0.00885257 0
M  V30 3752 H 344.413 -2.84916 0.886883 0
M  V30 3753 C 343.162 -3.38206 -0.806983 0
M  V30 3754 H 342.485 -3.99335 -0.19274 0
M  V30 3755 H 343.925 -4.05779 -1.2296 0
M  V30 3756 C 342.384 -2.75321 -1.94165 0
M  V30 3757 O 342.914 -2.63231 -3.03435 0
M  V30 3758 N 341.12 -2.33396 -1.73132 0
M  V30 3759 H 340.667 -2.4343 -0.842596 0
M  V30 3760 H 340.625 -1.91661 -2.49225 0
M  V30 3761 N 344.397 -0.483516 -1.5 0
M  V30 3762 C 345.674 0.129337 -1.95172 0
M  V30 3763 C 346.054 1.55802 -1.4244 0
M  V30 3764 O 345.402 2.19625 -0.630649 0
M  V30 3765 C 345.612 0.0599251 -3.48949 0
M  V30 3766 C 346.96 0.242617 -4.23906 0
M  V30 3767 O 347.984 0.135933 -3.55941 0
M  V30 3768 O 346.843 0.459454 -5.44565 0
M  V30 3769 H 343.937 0.104887 -0.820322 0
M  V30 3770 H 346.483 -0.544807 -1.60717 0
M  V30 3771 H 345.255 -0.937079 -3.79914 0
M  V30 3772 H 344.878 0.774984 -3.89974 0
M  V30 3773 N 345.875 1.56104 -0.216619 0
M  V30 3774 C 346.808 2.16026 0.735395 0
M  V30 3775 C 347.786 1.1032 1.1945 0
M  V30 3776 O 348.97 1.38549 1.27814 0
M  V30 3777 C 346.097 2.73656 1.99575 0
M  V30 3778 C 345.143 3.92146 1.67702 0
M  V30 3779 S 345.976 5.29397 0.806145 0
M  V30 3780 C 347.132 5.90463 2.07617 0
M  V30 3781 H 347.365 2.96439 0.226072 0
M  V30 3782 H 344.898 1.544 -0.00136639 0
M  V30 3783 H 346.856 3.075 2.71945 0
M  V30 3784 H 345.517 1.93245 2.47619 0
M  V30 3785 H 344.71 4.30954 2.61332 0
M  V30 3786 H 344.312 3.59423 1.03398 0
M  V30 3787 H 346.604 6.06136 3.02664 0
M  V30 3788 H 347.547 6.86589 1.73207 0
M  V30 3789 H 347.955 5.19252 2.21445 0
M  V30 3790 N 347.353 -0.0568162 1.57498 0
M  V30 3791 C 348.602 -0.752001 1.87157 0
M  V30 3792 C 348.915 -1.77978 0.811375 0
M  V30 3793 O 350.121 -2.52559 0.996293 0
M  V30 3794 C 348.577 -1.38844 3.3204 0
M  V30 3795 C 348.185 -0.398456 4.46225 0
M  V30 3796 C 349.929 -2.06512 3.70882 0
M  V30 3797 C 347.836 -1.04166 5.82154 0
M  V30 3798 H 346.766 -0.28461 0.698222 0
M  V30 3799 H 349.417 -0.00561272 1.83499 0
M  V30 3800 H 347.799 -2.1836 3.30356 0
M  V30 3801 H 348.973 0.367977 4.59328 0
M  V30 3802 H 347.288 0.174592 4.16034 0
M  V30 3803 H 349.885 -2.55437 4.6974 0
M  V30 3804 H 350.228 -2.87117 3.01445 0
M  V30 3805 H 350.761 -1.33808 3.7462 0
M  V30 3806 H 347.5 -0.275614 6.5492 0
M  V30 3807 H 347.02 -1.7786 5.72823 0
M  V30 3808 H 348.699 -1.55715 6.27982 0
M  V30 3809 N 348.832 -1.54138 -0.328536 0
M  V30 3810 C 350.079 -1.72105 -1.06706 0
M  V30 3811 C 350.407 -0.492111 -1.88171 0
M  V30 3812 O 349.662 0.526153 -1.88494 0
M  V30 3813 C 349.961 -2.9457 -2.02393 0
M  V30 3814 C 349.627 -4.29544 -1.37122 0
M  V30 3815 C 348.289 -4.6624 -1.19052 0
M  V30 3816 C 350.641 -5.1333 -0.902331 0
M  V30 3817 C 347.969 -5.84325 -0.527331 0
M  V30 3818 C 350.321 -6.32094 -0.252988 0
M  V30 3819 C 348.985 -6.67473 -0.0600901 0
M  V30 3820 H 348.255 -0.629775 -0.390466 0
M  V30 3821 H 350.902 -1.88372 -0.34473 0
M  V30 3822 H 349.207 -2.72969 -2.81061 0
M  V30 3823 H 350.904 -3.05665 -2.59557 0
M  V30 3824 H 347.494 -4.0067 -1.52188 0
M  V30 3825 H 351.678 -4.855 -1.02974 0
M  V30 3826 H 346.934 -6.103 -0.366634 0
M  V30 3827 H 351.108 -6.96299 0.118366 0
M  V30 3828 H 348.735 -7.58832 0.455828 0
M  V30 3829 N 350.31 0.590341 -1.46126 0
M  V30 3830 C 351.535 1.37991 -1.54833 0
M  V30 3831 C 351.96 1.87163 -0.187506 0
M  V30 3832 O 351.318 1.61133 0.831008 0
M  V30 3833 C 351.366 2.54867 -2.55098 0
M  V30 3834 O 350.47 3.56061 -2.08073 0
M  V30 3835 H 349.811 0.411265 -0.521303 0
M  V30 3836 H 352.341 0.716819 -1.91632 0
M  V30 3837 H 352.351 3.01886 -2.74461 0
M  V30 3838 H 351.026 2.18429 -3.53923 0
M  V30 3839 H 349.603 3.15574 -1.98664 0
M  V30 3840 N 351.788 1.33704 0.83433 0
M  V30 3841 C 352.751 1.24244 1.92603 0
M  V30 3842 C 353.751 0.160383 1.59998 0
M  V30 3843 O 354.941 0.412228 1.69252 0
M  V30 3844 C 352.073 0.91555 3.28376 0
M  V30 3845 H 353.266 2.21287 2.02416 0
M  V30 3846 H 350.819 1.17827 1.02696 0
M  V30 3847 H 351.554 -0.0521886 3.24258 0
M  V30 3848 H 351.339 1.69811 3.53422 0
M  V30 3849 H 352.829 0.874231 4.08347 0
M  V30 3850 N 353.266 -1.05314 1.17247 0
M  V30 3851 C 354.515 -1.77685 0.954521 0
M  V30 3852 C 354.828 -1.88616 -0.518025 0
M  V30 3853 O 356.034 -2.57714 -0.854144 0
M  V30 3854 C 354.49 -3.19402 1.65863 0
M  V30 3855 C 354.098 -3.16605 3.16963 0
M  V30 3856 C 355.842 -3.96237 1.52303 0
M  V30 3857 C 353.749 -4.53103 3.80068 0
M  V30 3858 H 352.679 -0.666 0.353496 0
M  V30 3859 H 355.33 -1.1805 1.40486 0
M  V30 3860 H 353.712 -3.79355 1.13602 0
M  V30 3861 H 354.886 -2.66176 3.76148 0
M  V30 3862 H 353.201 -2.53268 3.30521 0
M  V30 3863 H 355.798 -4.97157 1.96822 0
M  V30 3864 H 356.141 -4.136 0.473401 0
M  V30 3865 H 356.674 -3.42829 2.01775 0
M  V30 3866 H 353.413 -4.40946 4.85023 0
M  V30 3867 H 352.933 -5.03686 3.2567 0
M  V30 3868 H 354.612 -5.22045 3.82202 0
M  V30 3869 N 354.744 -0.972509 -1.24016 0
M  V30 3870 C 355.707 -0.511403 -2.23422 0
M  V30 3871 C 356.707 0.394679 -1.55881 0
M  V30 3872 O 357.897 0.189469 -1.73167 0
M  V30 3873 C 355.029 0.258769 -3.39916 0
M  V30 3874 H 356.222 -1.39024 -2.6573 0
M  V30 3875 H 353.775 -0.757585 -1.36713 0
M  V30 3876 H 354.51 1.1545 -3.03054 0
M  V30 3877 H 354.295 -0.391522 -3.9014 0
M  V30 3878 H 355.785 0.570244 -4.13688 0
M  V30 3879 N 356.222 1.38976 -0.743202 0
M  V30 3880 C 357.447 2.05161 -0.303936 0
M  V30 3881 C 357.872 1.55677 1.05576 0
M  V30 3882 O 357.23 0.704131 1.67068 0
M  V30 3883 C 357.278 3.59138 -0.324373 0
M  V30 3884 O 356.382 4.06668 0.685204 0
M  V30 3885 H 355.723 0.649815 -0.136518 0
M  V30 3886 H 358.253 1.77852 -1.01142 0
M  V30 3887 H 358.263 4.07639 -0.171618 0
M  V30 3888 H 356.938 3.94515 -1.31647 0
M  V30 3889 H 355.515 3.69561 0.497913 0
M  V30 3890 N 357.7 0.491464 1.49741 0
M  V30 3891 C 358.633 -0.338464 2.25676 0
M  V30 3892 C 359.611 -0.978676 1.29849 0
M  V30 3893 O 360.795 -1.01064 1.59117 0
M  V30 3894 C 357.922 -1.47588 3.04853 0
M  V30 3895 C 356.968 -0.951 4.15762 0
M  V30 3896 S 357.801 0.150626 5.35288 0
M  V30 3897 C 358.957 -0.990178 6.18018 0
M  V30 3898 H 359.19 0.306068 2.9572 0
M  V30 3899 H 356.723 0.276622 1.51902 0
M  V30 3900 H 358.681 -2.12764 3.51058 0
M  V30 3901 H 357.342 -2.09199 2.34296 0
M  V30 3902 H 356.535 -1.80311 4.70642 0
M  V30 3903 H 356.137 -0.376607 3.72099 0
M  V30 3904 H 358.429 -1.89748 6.50386 0
M  V30 3905 H 359.372 -0.480205 7.0647 0
M  V30 3906 H 359.78 -1.25321 5.50413 0
M  V30 3907 N 359.178 -1.55987 0.224894 0
M  V30 3908 C 360.425 -1.9839 -0.4059 0
M  V30 3909 C 360.753 -1.11261 -1.59535 0
M  V30 3910 O 360.008 -0.158314 -1.95059 0
M  V30 3911 C 360.307 -3.46394 -0.880106 0
M  V30 3912 C 359.973 -4.5046 0.19918 0
M  V30 3913 C 358.635 -4.7864 0.495661 0
M  V30 3914 C 360.987 -5.12855 0.928939 0
M  V30 3915 C 358.315 -5.66497 1.52636 0
M  V30 3916 C 360.667 -6.01828 1.949 0
M  V30 3917 C 359.331 -6.28351 2.25236 0
M  V30 3918 H 358.601 -0.725961 -0.148529 0
M  V30 3919 H 361.248 -1.88668 0.328113 0
M  V30 3920 H 359.553 -3.53337 -1.69294 0
M  V30 3921 H 361.25 -3.76577 -1.37808 0
M  V30 3922 H 357.84 -4.28579 -0.0420526 0
M  V30 3923 H 362.024 -4.9115 0.713129 0
M  V30 3924 H 357.28 -5.8531 1.76698 0
M  V30 3925 H 361.454 -6.49225 2.51951 0
M  V30 3926 H 359.081 -6.96226 3.05244 0
M  V30 3927 N 360.656 0.0484629 -1.57525 0
M  V30 3928 C 362.067 0.597486 -1.76881 0
M  V30 3929 C 362.418 1.76664 -0.853475 0
M  V30 3930 O 361.543 2.16357 -0.0433656 0
M  V30 3931 C 362.138 1.09066 -3.20765 0
M  V30 3932 C 360.697 1.58535 -3.41385 0
M  V30 3933 C 359.844 0.514868 -2.72478 0
M  V30 3934 H 362.795 -0.177758 -1.57701 0
M  V30 3935 H 362.816 1.95875 -3.2621 0
M  V30 3936 H 362.328 0.239521 -3.8736 0
M  V30 3937 H 360.429 2.45898 -2.79937 0
M  V30 3938 H 360.542 1.64622 -4.49929 0
M  V30 3939 H 358.906 0.965407 -2.35695 0
M  V30 3940 H 359.689 -0.32648 -3.41744 0
M  V30 3941 N 362.134 1.5431 0.320358 0
M  V30 3942 C 363.044 1.86946 1.41734 0
M  V30 3943 C 364.06 0.761689 1.56443 0
M  V30 3944 O 365.236 1.05629 1.71477 0
M  V30 3945 C 362.301 2.09293 2.76401 0
M  V30 3946 C 361.362 3.33082 2.70841 0
M  V30 3947 C 360.595 3.54353 3.99086 0
M  V30 3948 O 360.818 2.79002 4.97508 0
M  V30 3949 O 359.752 4.47838 4.0215 0
M  V30 3950 H 363.578 2.80232 1.17062 0
M  V30 3951 H 361.163 1.40255 0.514673 0
M  V30 3952 H 363.045 2.25303 3.56113 0
M  V30 3953 H 361.72 1.19194 3.00956 0
M  V30 3954 H 360.627 3.22454 1.89668 0
M  V30 3955 H 361.96 4.23249 2.5124 0
M  V30 3956 N 363.613 -0.582584 1.46437 0
M  V30 3957 C 364.561 -1.71272 1.5738 0
M  V30 3958 C 365.555 -1.63524 0.44229 0
M  V30 3959 O 366.761 -1.69016 0.619166 0
M  V30 3960 H 363.136 -0.566273 0.494813 0
M  V30 3961 H 365.107 -1.59174 2.52401 0
M  V30 3962 C 363.856 -3.09658 1.58136 0
M  V30 3963 H 363.179 -3.16291 2.44541 0
M  V30 3964 H 364.619 -3.88494 1.69847 0
M  V30 3965 C 363.078 -3.3547 0.310026 0
M  V30 3966 O 363.608 -3.97199 -0.599683 0
M  V30 3967 N 361.814 -2.89925 0.197901 0
M  V30 3968 H 361.361 -2.39873 0.93909 0
M  V30 3969 H 361.319 -3.07568 -0.65185 0
M  V30 3970 N 365.091 -1.34144 -0.827227 0
M  V30 3971 C 366.339 -1.26009 -1.58007 0
M  V30 3972 C 366.66 0.170971 -1.94249 0
M  V30 3973 O 365.93 1.10256 -1.61927 0
M  V30 3974 H 364.51 -0.463414 -0.585881 0
M  V30 3975 H 367.172 -1.68005 -0.987951 0
M  V30 3976 H 366.268 -1.86187 -2.50481 0
M  V30 3977 N 366.569 1.04691 -1.17803 0
M  V30 3978 C 367.815 1.78045 -0.970969 0
M  V30 3979 C 368.148 1.87686 0.498751 0
M  V30 3980 O 367.423 1.38035 1.37027 0
M  V30 3981 C 367.706 3.2166 -1.61884 0
M  V30 3982 C 367.559 3.20001 -3.161 0
M  V30 3983 C 368.878 4.1962 -1.3269 0
M  V30 3984 H 365.997 0.64633 -0.354155 0
M  V30 3985 H 368.639 1.22333 -1.45378 0
M  V30 3986 H 366.789 3.69232 -1.20831 0
M  V30 3987 H 368.461 2.80467 -3.66246 0
M  V30 3988 H 366.704 2.58203 -3.48588 0
M  V30 3989 H 367.375 4.21386 -3.56564 0
M  V30 3990 H 369.851 3.80567 -1.68249 0
M  V30 3991 H 368.727 5.18339 -1.80599 0
M  V30 3992 H 368.988 4.414 -0.248622 0
M  V30 3993 N 368.047 0.979072 1.23499 0
M  V30 3994 C 369.458 0.684391 1.73704 0
M  V30 3995 C 369.809 -0.799448 1.79174 0
M  V30 3996 O 368.934 -1.62531 1.42873 0
M  V30 3997 C 369.529 1.23564 3.15464 0
M  V30 3998 C 368.088 0.99063 3.6313 0
M  V30 3999 C 367.235 1.36416 2.41425 0
M  V30 4000 H 370.186 1.15307 1.09041 0
M  V30 4001 H 370.207 0.607417 3.7562 0
M  V30 4002 H 369.719 2.31561 3.1145 0
M  V30 4003 H 367.82 -0.0733136 3.72528 0
M  V30 4004 H 367.933 1.64427 4.5 0
M  V30 4005 H 366.297 0.782616 2.42378 0
M  V30 4006 H 367.08 2.45387 2.40083 0
M  V30 4007 N 369.525 -1.3858 0.750561 0
M  V30 4008 C 370.802 -1.94231 0.231009 0
M  V30 4009 C 371.182 -1.68611 -1.27018 0
M  V30 4010 O 370.53 -1.02296 -2.04323 0
M  V30 4011 C 370.74 -3.44123 0.581428 0
M  V30 4012 C 372.088 -4.2116 0.539389 0
M  V30 4013 O 373.112 -3.52391 0.519541 0
M  V30 4014 O 371.971 -5.43749 0.54765 0
M  V30 4015 H 369.065 -0.825639 0.0474263 0
M  V30 4016 H 371.611 -1.4799 0.830478 0
M  V30 4017 H 370.383 -3.56267 1.61833 0
M  V30 4018 H 370.006 -3.97573 -0.0462047 0
M  V30 4019 N 371.003 -0.499398 -1.49478 0
M  V30 4020 C 372.28 0.108629 -1.95298 0
M  V30 4021 C 372.66 1.54282 -1.44084 0
M  V30 4022 O 372.008 2.18944 -0.653908 0
M  V30 4023 C 372.218 0.0229111 -3.48992 0
M  V30 4024 C 373.566 0.197643 -4.2414 0
M  V30 4025 O 374.59 0.0981735 -3.56065 0
M  V30 4026 O 373.449 0.401669 -5.45022 0
M  V30 4027 H 370.543 0.096181 -0.821388 0
M  V30 4028 H 373.089 -0.561822 -1.6013 0
M  V30 4029 H 371.861 -0.977321 -3.78899 0
M  V30 4030 H 371.484 0.733579 -3.90774 0
M  V30 4031 N 372.481 1.55866 -0.233164 0
M  V30 4032 C 373.414 2.16794 0.712442 0
M  V30 4033 C 374.392 1.1158 1.18273 0
M  V30 4034 O 375.576 1.39897 1.26337 0
M  V30 4035 C 372.703 2.75757 1.96661 0
M  V30 4036 C 371.749 3.93902 1.63533 0
M  V30 4037 S 372.582 5.30223 0.74995 0
M  V30 4038 C 373.738 5.92631 2.01343 0
M  V30 4039 H 373.971 2.96662 0.194617 0
M  V30 4040 H 371.504 1.5439 -0.0177425 0
M  V30 4041 H 373.462 3.10367 2.68668 0
M  V30 4042 H 372.123 1.9586 2.45556 0
M  V30 4043 H 371.316 4.33702 2.56747 0
M  V30 4044 H 370.918 3.60499 0.995804 0
M  V30 4045 H 373.21 6.09312 2.96219 0
M  V30 4046 H 374.153 6.88388 1.65915 0
M  V30 4047 H 374.561 5.21571 2.15925 0
M  V30 4048 N 373.959 -0.0401083 1.57549 0
M  V30 4049 C 374.906 -1.04413 2.05831 0
M  V30 4050 C 375.876 -1.36585 0.945184 0
M  V30 4051 O 377.061 -1.47112 1.21502 0
M  V30 4052 C 374.201 -2.34336 2.53339 0
M  V30 4053 C 373.314 -2.08419 3.78398 0
M  V30 4054 C 372.449 -3.32133 4.14561 0
M  V30 4055 C 371.488 -3.01721 5.3257 0
M  V30 4056 N 370.625 -4.17855 5.64218 0
M  V30 4057 H 375.465 -0.625442 2.91363 0
M  V30 4058 H 373.002 -0.297218 1.44066 0
M  V30 4059 H 374.96 -3.10234 2.78946 0
M  V30 4060 H 373.59 -2.73948 1.7074 0
M  V30 4061 H 372.642 -1.23069 3.59942 0
M  V30 4062 H 373.954 -1.81978 4.64419 0
M  V30 4063 H 373.108 -4.16406 4.41238 0
M  V30 4064 H 371.847 -3.61678 3.2717 0
M  V30 4065 H 370.852 -2.15849 5.05657 0
M  V30 4066 H 372.077 -2.73466 6.21605 0
M  V30 4067 H 370.023 -4.47372 4.79786 0
M  V30 4068 H 369.94 -3.94798 6.44725 0
M  V30 4069 H 371.208 -5.03033 5.95465 0
M  V30 4070 N 375.437 -1.54477 -0.31217 0
M  V30 4071 C 376.347 -1.87695 -1.4074 0
M  V30 4072 C 377.363 -0.769975 -1.56036 0
M  V30 4073 O 378.539 -1.06537 -1.70915 0
M  V30 4074 C 375.604 -2.10755 -2.75287 0
M  V30 4075 C 374.665 -3.34514 -2.69071 0
M  V30 4076 C 373.898 -3.56465 -3.97201 0
M  V30 4077 O 374.121 -2.81637 -4.96021 0
M  V30 4078 O 373.055 -4.49964 -3.9977 0
M  V30 4079 H 376.881 -2.80849 -1.15574 0
M  V30 4080 H 374.466 -1.40526 -0.507228 0
M  V30 4081 H 376.348 -2.27188 -3.54913 0
M  V30 4082 H 375.023 -1.20788 -3.0032 0
M  V30 4083 H 373.93 -3.23456 -1.87955 0
M  V30 4084 H 375.263 -4.24575 -2.48992 0
M  V30 4085 N 376.915 0.57481 -1.46744 0
M  V30 4086 C 378.331 0.898981 -1.31873 0
M  V30 4087 C 378.531 1.99313 -0.29605 0
M  V30 4088 O 377.587 2.50728 0.298621 0
M  V30 4089 C 378.9 1.30886 -2.7072 0
M  V30 4090 C 380.448 1.42127 -2.78871 0
M  V30 4091 C 380.923 1.86478 -4.18318 0
M  V30 4092 N 382.414 1.93658 -4.20774 0
M  V30 4093 C 383.149 2.29267 -5.2557 0
M  V30 4094 N 382.645 2.63612 -6.40688 0
M  V30 4095 N 384.438 2.29889 -5.1294 0
M  V30 4096 H 376.589 -0.147839 -2.11885 0
M  V30 4097 H 378.852 -0.00347013 -0.947994 0
M  V30 4098 H 378.558 0.578853 -3.46904 0
M  V30 4099 H 378.432 2.26874 -3.01343 0
M  V30 4100 H 380.819 2.14213 -2.0297 0
M  V30 4101 H 380.9 0.443705 -2.51922 0
M  V30 4102 H 380.544 1.14968 -4.94717 0
M  V30 4103 H 380.474 2.85207 -4.42679 0
M  V30 4104 H 382.965 1.69574 -3.37718 0
M  V30 4105 H 383.278 2.89759 -7.16421 0
M  V30 4106 H 381.623 2.61232 -6.44036 0
M  V30 4107 H 384.814 2.02485 -4.22039 0
M  V30 4108 H 384.987 2.57312 -5.94722 0
M  V30 4109 N 378.394 1.34581 0.820102 0
M  V30 4110 C 379.624 1.29991 1.6058 0
M  V30 4111 C 380.032 -0.127588 1.88769 0
M  V30 4112 O 379.375 -1.08595 1.48165 0
M  V30 4113 C 379.437 2.02548 2.9701 0
M  V30 4114 C 379.101 3.51794 2.91701 0
M  V30 4115 C 380.098 4.46647 2.66087 0
M  V30 4116 C 377.783 3.94249 3.11245 0
M  V30 4117 C 379.777 5.81929 2.60071 0
M  V30 4118 C 377.464 5.2963 3.04853 0
M  V30 4119 C 378.462 6.23282 2.793 0
M  V30 4120 O 378.15 7.56181 2.72847 0
M  V30 4121 H 377.882 0.448539 0.505756 0
M  V30 4122 H 380.436 1.77811 1.02822 0
M  V30 4123 H 378.666 1.49345 3.56697 0
M  V30 4124 H 380.355 1.91211 3.58041 0
M  V30 4125 H 381.121 4.15168 2.5072 0
M  V30 4126 H 377 3.21749 3.30149 0
M  V30 4127 H 380.544 6.54999 2.40046 0
M  V30 4128 H 376.441 5.60727 3.19774 0
M  V30 4129 H 377.209 7.6595 2.88553 0
M  V30 4130 N 379.872 -1.04064 1.18357 0
M  V30 4131 C 381.288 -1.2947 0.933258 0
M  V30 4132 C 381.488 -1.97466 -0.401169 0
M  V30 4133 O 380.544 -2.25528 -1.13549 0
M  V30 4134 C 381.857 -2.15337 2.09882 0
M  V30 4135 C 383.405 -2.28683 2.13712 0
M  V30 4136 C 383.88 -3.17917 3.29686 0
M  V30 4137 N 385.371 -3.25504 3.29547 0
M  V30 4138 C 386.106 -3.94706 4.15926 0
M  V30 4139 N 385.602 -4.66239 5.12439 0
M  V30 4140 N 387.395 -3.90986 4.0384 0
M  V30 4141 H 379.546 -0.583359 2.04232 0
M  V30 4142 H 381.809 -0.319921 0.892387 0
M  V30 4143 H 381.515 -1.72682 3.06389 0
M  V30 4144 H 381.389 -3.16015 2.05947 0
M  V30 4145 H 383.776 -2.70575 1.17784 0
M  V30 4146 H 383.857 -1.27596 2.21705 0
M  V30 4147 H 383.501 -2.76736 4.25887 0
M  V30 4148 H 383.431 -4.19036 3.1893 0
M  V30 4149 H 385.922 -2.74547 2.59677 0
M  V30 4150 H 386.235 -5.16638 5.74722 0
M  V30 4151 H 384.58 -4.65143 5.16398 0
M  V30 4152 H 387.771 -3.34234 3.27727 0
M  V30 4153 H 387.944 -4.44646 4.71375 0
M  V30 4154 N 381.35 -0.985608 -1.22978 0
M  V30 4155 C 382.26 -0.538548 -2.28335 0
M  V30 4156 C 383.276 0.409163 -1.69121 0
M  V30 4157 O 384.452 0.277797 -1.99475 0
M  V30 4158 C 381.517 0.146867 -3.46389 0
M  V30 4159 C 380.578 -0.842896 -4.20944 0
M  V30 4160 C 379.811 -0.190095 -5.33361 0
M  V30 4161 O 380.034 1.01767 -5.61248 0
M  V30 4162 O 378.968 -0.891289 -5.95264 0
M  V30 4163 H 382.794 -1.41487 -2.68729 0
M  V30 4164 H 380.379 -0.753495 -1.29007 0
M  V30 4165 H 382.261 0.531125 -4.1804 0
M  V30 4166 H 380.936 0.997871 -3.07935 0
M  V30 4167 H 379.843 -1.27795 -3.51595 0
M  V30 4168 H 381.176 -1.66287 -4.6326 0
M  V30 4169 N 382.828 1.3818 -0.7579 0
M  V30 4170 C 383.758 2.33027 -0.148597 0
M  V30 4171 C 384.739 1.55085 0.69875 0
M  V30 4172 O 385.924 1.83384 0.639053 0
M  V30 4173 C 383.054 3.3928 0.742034 0
M  V30 4174 C 382.008 4.28 -0.00291946 0
M  V30 4175 C 381.334 5.25146 1.00625 0
M  V30 4176 C 382.634 5.08938 -1.17385 0
M  V30 4177 H 384.328 2.84231 -0.940909 0
M  V30 4178 H 381.874 1.36659 -0.453908 0
M  V30 4179 H 383.827 4.046 1.17799 0
M  V30 4180 H 382.551 2.86569 1.56671 0
M  V30 4181 H 381.21 3.64192 -0.419504 0
M  V30 4182 H 380.858 4.68721 1.8251 0
M  V30 4183 H 380.558 5.85361 0.512428 0
M  V30 4184 H 382.082 5.93342 1.44143 0
M  V30 4185 H 383.496 5.67474 -0.815224 0
M  V30 4186 H 381.893 5.7841 -1.59882 0
M  V30 4187 H 382.963 4.42424 -1.98468 0
M  V30 4188 N 384.306 0.507319 1.49211 0
M  V30 4189 C 385.534 -0.0315749 2.06876 0
M  V30 4190 C 385.949 -1.30241 1.36685 0
M  V30 4191 O 385.306 -1.76937 0.447152 0
M  V30 4192 C 385.357 -0.282627 3.60393 0
M  V30 4193 O 385.078 0.937835 4.27944 0
M  V30 4194 C 386.579 -0.864453 4.3479 0
M  V30 4195 H 383.799 0.0233048 0.670595 0
M  V30 4196 H 386.343 0.706484 1.91909 0
M  V30 4197 H 384.498 -0.97068 3.75042 0
M  V30 4198 H 384.912 0.704567 5.19746 0
M  V30 4199 H 386.386 -0.989664 5.43056 0
M  V30 4200 H 386.863 -1.86382 3.97692 0
M  V30 4201 H 387.469 -0.213672 4.24763 0
M  V30 4202 N 385.784 -1.5574 0.241426 0
M  V30 4203 C 386.694 -2.2479 -0.671305 0
M  V30 4204 C 387.71 -1.26217 -1.19772 0
M  V30 4205 O 388.886 -1.59079 -1.23514 0
M  V30 4206 C 385.951 -2.92966 -1.85396 0
M  V30 4207 C 385.012 -4.06935 -1.36756 0
M  V30 4208 C 384.245 -4.71851 -2.49384 0
M  V30 4209 O 384.468 -4.35823 -3.67987 0
M  V30 4210 O 383.402 -5.60467 -2.19454 0
M  V30 4211 H 387.228 -3.0349 -0.112966 0
M  V30 4212 H 384.813 -1.49397 0.0101513 0
M  V30 4213 H 386.695 -3.35927 -2.54423 0
M  V30 4214 H 385.37 -2.17211 -2.40002 0
M  V30 4215 H 384.277 -3.68503 -0.644726 0
M  V30 4216 H 385.61 -4.84492 -0.867647 0
M  V30 4217 N 387.262 0.0317525 -1.57568 0
M  V30 4218 C 388.195 1.06621 -2.0176 0
M  V30 4219 C 389.173 1.35323 -0.901462 0
M  V30 4220 O 390.357 1.48025 -1.16708 0
M  V30 4221 C 387.484 2.40155 -2.38837 0
M  V30 4222 C 386.53 2.27327 -3.60867 0
M  V30 4223 S 387.363 1.62925 -5.10113 0
M  V30 4224 C 388.519 2.97955 -5.5043 0
M  V30 4225 H 388.752 0.689781 -2.89187 0
M  V30 4226 H 386.285 0.24164 -1.52497 0
M  V30 4227 H 388.243 3.1695 -2.6087 0
M  V30 4228 H 386.904 2.74946 -1.51867 0
M  V30 4229 H 386.097 3.25898 -3.84456 0
M  V30 4230 H 385.699 1.58675 -3.38671 0
M  V30 4231 H 387.991 3.94285 -5.5095 0
M  V30 4232 H 388.934 2.79102 -6.50775 0
M  V30 4233 H 389.342 3.00404 -4.77931 0
M  V30 4234 N 388.74 1.54641 0.303973 0
M  V30 4235 C 389.965 1.78092 1.06292 0
M  V30 4236 C 390.39 0.537342 1.80262 0
M  V30 4237 O 389.748 -0.511993 1.7392 0
M  V30 4238 C 389.796 2.98612 2.02147 0
M  V30 4239 O 388.9 2.71528 3.10397 0
M  V30 4240 H 388.241 0.589548 0.305497 0
M  V30 4241 H 390.771 2.01716 0.3423 0
M  V30 4242 H 390.781 3.265 2.44667 0
M  V30 4243 H 389.456 3.88785 1.47714 0
M  V30 4244 H 388.033 2.54648 2.72413 0
M  V30 4245 N 390.218 -0.567019 1.47046 0
M  V30 4246 C 391.495 -1.3276 1.43646 0
M  V30 4247 C 391.875 -2.1071 0.128186 0
M  V30 4248 O 391.223 -2.10441 -0.890326 0
M  V30 4249 C 391.433 -2.2404 2.67595 0
M  V30 4250 C 392.781 -2.85372 3.14401 0
M  V30 4251 O 393.805 -2.34346 2.68254 0
M  V30 4252 O 392.664 -3.78091 3.946 0
M  V30 4253 H 389.758 -0.597293 0.571988 0
M  V30 4254 H 392.304 -0.586735 1.59234 0
M  V30 4255 H 391.076 -1.65975 3.54356 0
M  V30 4256 H 390.699 -3.05439 2.54544 0
M  V30 4257 N 391.696 -1.35014 -0.812953 0
M  V30 4258 C 393.107 -1.25035 -1.38648 0
M  V30 4259 C 393.458 0.119967 -1.95833 0
M  V30 4260 O 392.583 1.02069 -1.90816 0
M  V30 4261 C 393.178 -2.26394 -2.52054 0
M  V30 4262 C 391.737 -2.20175 -3.05287 0
M  V30 4263 C 390.884 -2.12451 -1.78213 0
M  V30 4264 H 393.835 -1.46235 -0.616516 0
M  V30 4265 H 393.856 -1.88672 -3.30429 0
M  V30 4266 H 393.368 -3.26116 -2.10404 0
M  V30 4267 H 391.469 -1.23841 -3.51417 0
M  V30 4268 H 391.582 -3.11863 -3.63701 0
M  V30 4269 H 389.946 -1.58328 -1.9951 0
M  V30 4270 H 390.729 -3.14024 -1.38723 0
M  V30 4271 N 393.175 1.03435 -1.18907 0
M  V30 4272 C 394.123 2.13703 -0.918353 0
M  V30 4273 C 395.117 1.68947 0.123767 0
M  V30 4274 O 396.323 1.79983 -0.0249701 0
M  V30 4275 H 392.698 0.698112 -0.279542 0
M  V30 4276 H 394.669 2.33731 -1.85506 0
M  V30 4277 C 393.418 3.44542 -0.467532 0
M  V30 4278 H 392.741 3.79394 -1.26095 0
M  V30 4279 H 394.181 4.22812 -0.317164 0
M  V30 4280 C 392.64 3.26829 0.817588 0
M  V30 4281 O 393.17 3.54975 1.88031 0
M  V30 4282 N 391.376 2.80139 0.772677 0
M  V30 4283 H 390.923 2.57434 -0.0923883 0
M  V30 4284 H 390.881 2.68668 1.63294 0
M  V30 4285 N 394.653 0.992116 1.22453 0
M  V30 4286 C 395.616 0.546883 2.2258 0
M  V30 4287 C 396.616 -0.369829 1.56489 0
M  V30 4288 O 397.806 -0.161896 1.73446 0
M  V30 4289 C 394.938 -0.204659 3.40285 0
M  V30 4290 H 396.131 1.43234 2.63484 0
M  V30 4291 H 393.684 0.779239 1.3549 0
M  V30 4292 H 394.419 -1.10614 3.04853 0
M  V30 4293 H 394.204 0.45354 3.89468 0
M  V30 4294 H 395.694 -0.504358 4.14543 0
M  V30 4295 N 396.131 -1.37776 0.765217 0
M  V30 4296 C 397.061 -2.32945 0.160953 0
M  V30 4297 C 398.042 -1.55454 -0.690516 0
M  V30 4298 O 399.227 -1.83721 -0.629318 0
M  V30 4299 C 396.357 -3.39669 -0.724031 0
M  V30 4300 C 395.311 -4.27992 0.0256173 0
M  V30 4301 C 394.637 -5.25673 -0.978383 0
M  V30 4302 C 395.937 -5.08309 1.20082 0
M  V30 4303 H 397.631 -2.83728 0.955969 0
M  V30 4304 H 395.177 -1.36416 0.461149 0
M  V30 4305 H 397.13 -4.05219 -1.15652 0
M  V30 4306 H 395.854 -2.87396 -1.5515 0
M  V30 4307 H 394.513 -3.63964 0.438812 0
M  V30 4308 H 394.161 -4.69682 -1.80022 0
M  V30 4309 H 393.861 -5.85625 -0.481378 0
M  V30 4310 H 395.385 -5.94098 -1.40995 0
M  V30 4311 H 396.799 -5.67034 0.845307 0
M  V30 4312 H 395.196 -5.77554 1.62947 0
M  V30 4313 H 396.266 -4.41365 2.00811 0
M  V30 4314 N 397.609 -0.515225 -1.4894 0
M  V30 4315 C 399.02 -0.0710067 -1.86565 0
M  V30 4316 C 399.371 1.34733 -1.42623 0
M  V30 4317 O 398.496 2.00653 -0.810379 0
M  V30 4318 C 399.091 -0.122083 -3.3858 0
M  V30 4319 C 397.65 0.266863 -3.75453 0
M  V30 4320 C 396.797 -0.488376 -2.72966 0
M  V30 4321 H 399.748 -0.727266 -1.41055 0
M  V30 4322 H 399.769 0.669818 -3.74558 0
M  V30 4323 H 399.281 -1.15448 -3.70531 0
M  V30 4324 H 397.382 1.30196 -3.49113 0
M  V30 4325 H 397.495 -0.0624811 -4.79059 0
M  V30 4326 H 395.859 0.0635622 -2.54621 0
M  V30 4327 H 396.642 -1.52113 -3.07761 0
M  V30 4328 N 399.087 1.5561 -0.249682 0
M  V30 4329 C 400.498 1.84979 0.252949 0
M  V30 4330 C 400.849 1.17153 1.57384 0
M  V30 4331 O 399.974 0.450884 2.11651 0
M  V30 4332 C 400.569 3.35584 0.465732 0
M  V30 4333 C 399.128 3.65169 0.912624 0
M  V30 4334 C 398.275 2.77299 -0.00859085 0
M  V30 4335 H 401.226 1.51513 -0.47217 0
M  V30 4336 H 401.247 3.57313 1.30795 0
M  V30 4337 H 400.759 3.8492 -0.49579 0
M  V30 4338 H 398.86 3.21312 1.88652 0
M  V30 4339 H 398.973 4.72912 0.767559 0
M  V30 4340 H 397.337 2.49678 0.50327 0
M  V30 4341 H 398.12 3.29442 -0.965537 0
M  V30 4342 N 400.565 -0.0233959 1.57583 0
M  V30 4343 C 401.497 -1.04994 2.03737 0
M  V30 4344 C 402.51 -1.32125 0.951152 0
M  V30 4345 O 403.699 -1.29512 1.22837 0
M  V30 4346 C 400.799 -2.39026 2.40249 0
M  V30 4347 C 399.972 -2.31171 3.7132 0
M  V30 4348 C 399.031 -3.47698 3.94959 0
M  V30 4349 O 398.057 -3.26937 4.65941 0
M  V30 4350 N 399.259 -4.6976 3.41037 0
M  V30 4351 H 402.024 -0.656507 2.92421 0
M  V30 4352 H 399.585 -0.211235 1.60516 0
M  V30 4353 H 401.577 -3.15712 2.53196 0
M  V30 4354 H 400.147 -2.70194 1.57207 0
M  V30 4355 H 399.367 -1.39547 3.68674 0
M  V30 4356 H 400.655 -2.23071 4.57293 0
M  V30 4357 H 400.053 -4.89528 2.83512 0
M  V30 4358 H 398.61 -5.43791 3.59353 0
M  V30 4359 N 402.043 -1.548 -0.295768 0
M  V30 4360 C 403.283 -1.76069 -1.03823 0
M  V30 4361 C 403.647 -0.537992 -1.84309 0
M  V30 4362 O 404.848 -0.628514 -2.61349 0
M  V30 4363 C 403.119 -3.01705 -1.91596 0
M  V30 4364 S 404.678 -3.43998 -2.72416 0
M  V30 4365 H 401.496 -0.618852 -0.350062 0
M  V30 4366 H 404.098 -1.93009 -0.31106 0
M  V30 4367 H 402.802 -3.88812 -1.31351 0
M  V30 4368 H 402.333 -2.87366 -2.68671 0
M  V30 4369 H 404.348 -3.0148 -3.94112 0
M  V30 4370 N 403.521 0.559213 -1.47345 0
M  V30 4371 C 404.749 1.34194 -1.57479 0
M  V30 4372 C 405.164 1.87463 -0.224261 0
M  V30 4373 O 404.521 1.64888 0.782185 0
M  V30 4374 C 404.572 2.51324 -2.59843 0
M  V30 4375 O 404.293 2.00256 -3.89653 0
M  V30 4376 C 405.794 3.43563 -2.80142 0
M  V30 4377 H 403.014 0.409136 -0.531835 0
M  V30 4378 H 405.558 0.677609 -1.92947 0
M  V30 4379 H 403.713 3.13699 -2.27314 0
M  V30 4380 H 404.127 2.76708 -4.4557 0
M  V30 4381 H 405.601 4.2217 -3.55635 0
M  V30 4382 H 406.078 3.9698 -1.87892 0
M  V30 4383 H 406.684 2.87005 -3.1386 0
M  V30 4384 N 404.999 1.35443 0.805782 0
M  V30 4385 C 406.41 1.25768 1.37983 0
M  V30 4386 C 406.761 -0.10958 1.95894 0
M  V30 4387 O 405.886 -1.01056 1.91355 0
M  V30 4388 C 406.481 2.27727 2.5085 0
M  V30 4389 C 405.04 2.2179 3.04115 0
M  V30 4390 C 404.187 2.13393 1.77084 0
M  V30 4391 H 407.138 1.4656 0.608752 0
M  V30 4392 H 407.159 1.90422 3.29424 0
M  V30 4393 H 406.671 3.27227 2.08671 0
M  V30 4394 H 404.772 1.25703 3.50756 0
M  V30 4395 H 404.885 3.13788 3.62042 0
M  V30 4396 H 403.249 1.59384 1.98668 0
M  V30 4397 H 404.032 3.14755 1.37056 0
M  V30 4398 N 406.477 -1.02803 1.19454 0
M  V30 4399 C 407.425 -2.13213 0.929673 0
M  V30 4400 C 408.419 -1.69011 -0.114806 0
M  V30 4401 O 409.625 -1.79967 0.0345147 0
M  V30 4402 H 406 -0.69662 0.28324 0
M  V30 4403 H 407.971 -2.32744 1.86743 0
M  V30 4404 C 406.72 -3.4429 0.485797 0
M  V30 4405 H 406.043 -3.7872 1.28105 0
M  V30 4406 H 407.483 -4.22638 0.339582 0
M  V30 4407 C 405.942 -3.27258 -0.800244 0
M  V30 4408 O 406.472 -3.55967 -1.86146 0
M  V30 4409 N 404.678 -2.80545 -0.75781 0
M  V30 4410 H 404.225 -2.57382 0.106039 0
M  V30 4411 H 404.183 -2.6953 -1.61867 0
M  V30 4412 N 407.956 -0.998596 -1.21925 0
M  V30 4413 C 409.205 -0.673085 -1.90138 0
M  V30 4414 C 409.518 0.79895 -1.78539 0
M  V30 4415 O 410.724 1.23628 -2.4172 0
M  V30 4416 C 409.18 -1.15339 -3.40918 0
M  V30 4417 C 408.788 -2.65106 -3.61141 0
M  V30 4418 C 410.532 -0.902476 -4.14796 0
M  V30 4419 C 408.439 -3.0671 -5.05651 0
M  V30 4420 H 407.369 -0.248057 -0.712028 0
M  V30 4421 H 410.02 -1.20891 -1.38049 0
M  V30 4422 H 408.402 -0.545658 -3.92223 0
M  V30 4423 H 409.576 -3.31274 -3.20304 0
M  V30 4424 H 407.891 -2.88142 -3.00605 0
M  V30 4425 H 410.488 -1.18895 -5.21314 0
M  V30 4426 H 410.831 0.161349 -4.15987 0
M  V30 4427 H 411.364 -1.47269 -3.69536 0
M  V30 4428 H 408.103 -4.12292 -5.09603 0
M  V30 4429 H 407.623 -2.45249 -5.47369 0
M  V30 4430 H 409.302 -2.9833 -5.74115 0
M  V30 4431 N 409.434 1.37368 -0.772513 0
M  V30 4432 C 410.711 1.93839 -0.26188 0
M  V30 4433 C 411.091 1.7061 1.24319 0
M  V30 4434 O 410.439 1.05534 2.02669 0
M  V30 4435 C 410.649 3.43154 -0.636102 0
M  V30 4436 C 411.997 4.20249 -0.606324 0
M  V30 4437 O 413.021 3.5152 -0.575538 0
M  V30 4438 O 411.88 5.42809 -0.634086 0
M  V30 4439 H 408.974 0.82478 -0.0605555 0
M  V30 4440 H 411.52 1.4665 -0.853917 0
M  V30 4441 H 410.292 3.53647 -1.6748 0
M  V30 4442 H 409.915 3.97596 -0.0170516 0
M  V30 4443 N 410.912 0.523116 1.48665 0
M  V30 4444 C 412.16 -0.0134497 2.02096 0
M  V30 4445 C 412.481 -1.35418 1.40311 0
M  V30 4446 O 411.751 -1.87543 0.566074 0
M  V30 4447 H 410.331 -0.00795915 0.746958 0
M  V30 4448 H 412.993 0.685388 1.82451 0
M  V30 4449 H 412.089 -0.126849 3.11842 0
M  V30 4450 N 412.39 -1.55475 0.257931 0
M  V30 4451 C 413.801 -1.8511 -0.243135 0
M  V30 4452 C 414.152 -1.17986 -1.5676 0
M  V30 4453 O 413.277 -0.462102 -2.11409 0
M  V30 4454 C 413.872 -3.35826 -0.447929 0
M  V30 4455 C 412.431 -3.65647 -0.893245 0
M  V30 4456 C 411.578 -2.7729 0.0232965 0
M  V30 4457 H 414.529 -1.51261 0.480199 0
M  V30 4458 H 414.55 -3.58002 -1.28898 0
M  V30 4459 H 414.062 -3.84652 0.516196 0
M  V30 4460 H 412.163 -3.22308 -1.86945 0
M  V30 4461 H 412.276 -4.73312 -0.742469 0
M  V30 4462 H 410.64 -2.49942 -0.490021 0
M  V30 4463 H 411.423 -3.28926 0.982994 0
M  V30 4464 N 413.868 0.0150385 -1.57593 0
M  V30 4465 C 414.816 1.02958 -2.08572 0
M  V30 4466 C 415.81 1.36554 -1.00246 0
M  V30 4467 O 417.016 1.35295 -1.18724 0
M  V30 4468 H 413.391 0.349619 -0.665786 0
M  V30 4469 H 415.362 0.573932 -2.92829 0
M  V30 4470 C 414.111 2.31752 -2.59203 0
M  V30 4471 H 413.434 2.06765 -3.42182 0
M  V30 4472 H 414.874 3.01053 -2.98568 0
M  V30 4473 C 413.333 3.01692 -1.49945 0
M  V30 4474 O 413.863 3.92083 -0.873704 0
M  V30 4475 N 412.069 2.6326 -1.23056 0
M  V30 4476 H 411.616 1.89838 -1.74125 0
M  V30 4477 H 411.574 3.10372 -0.501685 0
M  V30 4478 N 415.346 1.54954 0.287554 0
M  V30 4479 C 416.309 1.86076 1.33823 0
M  V30 4480 C 417.309 0.734414 1.43049 0
M  V30 4481 O 418.499 1.00266 1.42452 0
M  V30 4482 C 415.631 2.05305 2.72144 0
M  V30 4483 H 416.824 2.79984 1.07465 0
M  V30 4484 H 414.377 1.47223 0.524902 0
M  V30 4485 H 415.112 1.1373 3.03704 0
M  V30 4486 H 414.897 2.873 2.66836 0
M  V30 4487 H 416.387 2.30706 3.48087 0
M  V30 4488 N 416.824 -0.551391 1.4764 0
M  V30 4489 C 417.771 -1.65796 1.60563 0
M  V30 4490 C 418.741 -1.59932 0.448428 0
M  V30 4491 O 419.926 -1.78679 0.669222 0
M  V30 4492 C 417.066 -3.04108 1.63133 0
M  V30 4493 C 416.179 -3.20365 2.89811 0
M  V30 4494 C 415.314 -4.49109 2.8368 0
M  V30 4495 C 414.353 -4.58819 4.05156 0
M  V30 4496 N 413.49 -5.78926 3.97227 0
M  V30 4497 H 418.33 -1.54088 2.5507 0
M  V30 4498 H 415.867 -0.75052 1.26513 0
M  V30 4499 H 417.825 -3.84207 1.62606 0
M  V30 4500 H 416.455 -3.14637 0.721341 0
M  V30 4501 H 415.507 -2.33659 3.00179 0
M  V30 4502 H 416.819 -3.23402 3.79753 0
M  V30 4503 H 415.973 -5.37475 2.81434 0
M  V30 4504 H 414.712 -4.4856 1.91431 0
M  V30 4505 H 413.717 -3.68864 4.077 0
M  V30 4506 H 414.942 -4.61124 4.98539 0
M  V30 4507 H 412.888 -5.79314 3.07785 0
M  V30 4508 H 412.805 -5.83367 4.80853 0
M  V30 4509 H 414.073 -6.69637 3.99007 0
M  V30 4510 N 418.302 -1.35869 -0.798587 0
M  V30 4511 C 419.527 -1.32883 -1.59238 0
M  V30 4512 C 419.952 0.0894587 -1.87887 0
M  V30 4513 O 419.31 1.05869 -1.47178 0
M  V30 4514 C 419.358 -2.14892 -2.89575 0
M  V30 4515 O 418.462 -1.53512 -3.82763 0
M  V30 4516 H 417.803 -0.455236 -0.48338 0
M  V30 4517 H 420.333 -1.79024 -0.990539 0
M  V30 4518 H 420.343 -2.27139 -3.38928 0
M  V30 4519 H 419.018 -3.17998 -2.68049 0
M  V30 4520 H 417.595 -1.50153 -3.41334 0
M  V30 4521 N 419.78 1.02168 -1.19998 0
M  V30 4522 C 421.026 1.75945 -1.00852 0
M  V30 4523 C 421.359 1.88702 0.458828 0
M  V30 4524 O 420.634 1.40911 1.34069 0
M  V30 4525 C 420.917 3.18154 -1.68671 0
M  V30 4526 C 420.77 3.13224 -3.22817 0
M  V30 4527 C 422.089 4.16711 -1.41561 0
M  V30 4528 H 419.208 0.638673 -0.367785 0
M  V30 4529 H 421.85 1.19222 -1.4794 0
M  V30 4530 H 420 3.66586 -1.28636 0
M  V30 4531 H 421.672 2.72635 -3.72112 0
M  V30 4532 H 419.915 2.50751 -3.53986 0
M  V30 4533 H 420.586 4.13728 -3.65422 0
M  V30 4534 H 423.062 3.76913 -1.76284 0
M  V30 4535 H 421.938 5.14391 -1.91553 0
M  V30 4536 H 422.199 4.40774 -0.342193 0
M  V30 4537 N 421.258 1.00505 1.21394 0
M  V30 4538 C 422.19 0.52372 2.23136 0
M  V30 4539 C 423.203 -0.387714 1.58116 0
M  V30 4540 O 424.392 -0.187905 1.77508 0
M  V30 4541 C 421.492 -0.258885 3.3791 0
M  V30 4542 C 420.665 0.651634 4.32519 0
M  V30 4543 C 419.724 -0.0813705 5.26137 0
M  V30 4544 O 418.75 0.537295 5.66658 0
M  V30 4545 N 419.952 -1.35992 5.64346 0
M  V30 4546 H 422.717 1.39865 2.65062 0
M  V30 4547 H 420.278 0.881196 1.35818 0
M  V30 4548 H 422.27 -0.758208 3.97534 0
M  V30 4549 H 420.84 -1.035 2.94968 0
M  V30 4550 H 420.06 1.33145 3.71034 0
M  V30 4551 H 421.348 1.27129 4.92662 0
M  V30 4552 H 420.746 -1.88368 5.33417 0
M  V30 4553 H 419.303 -1.8042 6.26332 0
M  V30 4554 N 422.737 -1.36956 0.779787 0
M  V30 4555 C 424.153 -1.52817 0.460342 0
M  V30 4556 C 424.353 -1.7361 -1.02283 0
M  V30 4557 O 423.409 -1.76207 -1.80852 0
M  V30 4558 C 424.722 -2.71983 1.28241 0
M  V30 4559 C 426.27 -2.85849 1.27512 0
M  V30 4560 C 426.745 -4.08008 2.08072 0
M  V30 4561 N 428.236 -4.15135 2.05467 0
M  V30 4562 C 428.971 -5.08711 2.64577 0
M  V30 4563 N 428.467 -6.07792 3.32506 0
M  V30 4564 N 430.26 -5.01254 2.54363 0
M  V30 4565 H 422.411 -1.21713 1.74068 0
M  V30 4566 H 424.674 -0.593294 0.739396 0
M  V30 4567 H 424.38 -2.63109 2.33381 0
M  V30 4568 H 424.254 -3.65882 0.917088 0
M  V30 4569 H 426.641 -2.94189 0.231686 0
M  V30 4570 H 426.722 -1.92886 1.68014 0
M  V30 4571 H 426.366 -4.00429 3.12441 0
M  V30 4572 H 426.296 -5.001 1.64947 0
M  V30 4573 H 428.787 -3.44189 1.5602 0
M  V30 4574 H 429.1 -6.75739 3.74963 0
M  V30 4575 H 427.445 -6.08047 3.36606 0
M  V30 4576 H 430.636 -4.22795 2.00902 0
M  V30 4577 H 430.809 -5.73995 3.00722 0
M  V30 4578 N 424.215 -0.530993 -1.48385 0
M  V30 4579 C 425.125 0.23503 -2.3342 0
M  V30 4580 C 426.141 0.93801 -1.46552 0
M  V30 4581 O 427.317 0.912745 -1.7953 0
M  V30 4582 C 424.382 1.26778 -3.22689 0
M  V30 4583 C 423.443 0.575038 -4.25431 0
M  V30 4584 C 422.676 1.55858 -5.10435 0
M  V30 4585 O 422.899 2.79129 -4.97437 0
M  V30 4586 O 421.833 1.09742 -5.91811 0
M  V30 4587 H 425.659 -0.461794 -3.00169 0
M  V30 4588 H 423.244 -0.291903 -1.46521 0
M  V30 4589 H 425.126 1.86457 -3.77904 0
M  V30 4590 H 423.801 1.94699 -2.586 0
M  V30 4591 H 422.708 -0.0622782 -3.74048 0
M  V30 4592 H 424.041 -0.062253 -4.92161 0
M  V30 4593 N 425.693 1.55336 -0.266172 0
M  V30 4594 C 426.625 2.19544 0.658247 0
M  V30 4595 C 427.638 1.17746 1.12427 0
M  V30 4596 O 428.827 1.44517 1.04772 0
M  V30 4597 C 425.927 2.80032 1.9088 0
M  V30 4598 C 425.1 4.07436 1.59106 0
M  V30 4599 C 424.159 4.52056 2.69317 0
M  V30 4600 O 423.185 5.18023 2.35883 0
M  V30 4601 N 424.387 4.21448 3.99201 0
M  V30 4602 H 427.152 2.99503 0.108754 0
M  V30 4603 H 424.713 1.61667 -0.0869059 0
M  V30 4604 H 426.705 3.06831 2.63888 0
M  V30 4605 H 425.275 2.04119 2.36758 0
M  V30 4606 H 424.495 3.88021 0.695243 0
M  V30 4607 H 425.783 4.90462 1.35367 0
M  V30 4608 H 425.181 3.68528 4.29189 0
M  V30 4609 H 423.738 4.53039 4.68614 0
M  V30 4610 N 427.171 -0.0066808 1.57599 0
M  V30 4611 C 428.396 -0.707738 1.94951 0
M  V30 4612 C 428.821 -1.66882 0.867868 0
M  V30 4613 O 428.179 -1.80457 -0.17458 0
M  V30 4614 C 428.227 -1.42162 3.31394 0
M  V30 4615 O 427.331 -2.53578 3.25226 0
M  V30 4616 H 426.672 -0.188752 0.636607 0
M  V30 4617 H 429.202 0.0445193 2.04552 0
M  V30 4618 H 429.212 -1.78655 3.66806 0
M  V30 4619 H 427.887 -0.716903 4.09675 0
M  V30 4620 H 426.464 -2.19463 3.01481 0
M  V30 4621 N 428.649 -1.55105 -0.279332 0
M  V30 4622 C 429.579 -1.90557 -1.34945 0
M  V30 4623 C 430.56 -0.766738 -1.51839 0
M  V30 4624 O 431.745 -1.02434 -1.64988 0
M  V30 4625 C 428.875 -2.17193 -2.71006 0
M  V30 4626 C 427.829 -3.33021 -2.68851 0
M  V30 4627 C 427.155 -3.45123 -4.08405 0
M  V30 4628 C 428.455 -4.69578 -2.28678 0
M  V30 4629 H 430.149 -2.80188 -1.05522 0
M  V30 4630 H 427.695 -1.34811 -0.506173 0
M  V30 4631 H 429.648 -2.40581 -3.45975 0
M  V30 4632 H 428.372 -1.24355 -3.01999 0
M  V30 4633 H 427.031 -3.0959 -1.9634 0
M  V30 4634 H 426.679 -2.49762 -4.3661 0
M  V30 4635 H 426.379 -4.22995 -4.07859 0
M  V30 4636 H 427.903 -3.70796 -4.85121 0
M  V30 4637 H 429.317 -4.92553 -2.93368 0
M  V30 4638 H 427.714 -5.5032 -2.39306 0
M  V30 4639 H 428.784 -4.68828 -1.23807 0
M  V30 4640 N 430.127 0.543554 -1.4793 0
M  V30 4641 C 431.077 1.64527 -1.57844 0
M  V30 4642 C 432.061 1.54869 -0.436408 0
M  V30 4643 O 433.253 1.63119 -0.687101 0
M  V30 4644 C 430.382 3.03281 -1.6086 0
M  V30 4645 C 429.468 3.18093 -2.80495 0
M  V30 4646 N 429.859 3.02923 -4.05057 0
M  V30 4647 C 428.157 3.49121 -2.77543 0
M  V30 4648 C 428.858 3.20791 -4.85251 0
M  V30 4649 N 427.834 3.47749 -4.17818 0
M  V30 4650 H 431.636 1.51388 -2.5191 0
M  V30 4651 H 429.15 0.748671 -1.44113 0
M  V30 4652 H 431.147 3.82403 -1.66054 0
M  V30 4653 H 429.807 3.17521 -0.678996 0
M  V30 4654 H 430.818 2.79966 -4.35705 0
M  V30 4655 H 427.495 3.69804 -1.93781 0
M  V30 4656 H 428.885 3.13915 -5.9406 0
M  V30 4657 N 431.605 1.3629 0.791371 0
M  V30 4658 C 432.83 1.33726 1.58531 0
M  V30 4659 C 433.255 -0.0794933 1.87932 0
M  V30 4660 O 432.613 -1.05087 1.47738 0
M  V30 4661 C 432.661 2.16425 2.88431 0
M  V30 4662 O 431.765 1.5554 3.81944 0
M  V30 4663 H 431.106 0.457793 0.480959 0
M  V30 4664 H 433.636 1.79547 0.981031 0
M  V30 4665 H 433.646 2.28933 3.37718 0
M  V30 4666 H 432.321 3.19415 2.66359 0
M  V30 4667 H 430.898 1.51961 3.40532 0
M  V30 4668 N 433.083 -1.0153 1.20538 0
M  V30 4669 C 434.33 -1.75149 1.01633 0
M  V30 4670 C 434.658 -1.89189 -0.451399 0
M  V30 4671 O 433.913 -1.41551 -1.35136 0
M  V30 4672 C 434.212 -3.17213 1.64654 0
M  V30 4673 C 433.878 -3.23146 3.14464 0
M  V30 4674 C 432.54 -3.24472 3.55347 0
M  V30 4675 C 434.892 -3.21207 4.10458 0
M  V30 4676 C 432.22 -3.21532 4.90748 0
M  V30 4677 C 434.572 -3.19808 5.45807 0
M  V30 4678 C 433.236 -3.19439 5.86102 0
M  V30 4679 H 432.506 -0.640914 0.3719 0
M  V30 4680 H 435.153 -1.19071 1.49981 0
M  V30 4681 H 433.458 -3.76457 1.08571 0
M  V30 4682 H 435.155 -3.72871 1.4754 0
M  V30 4683 H 431.745 -3.2285 2.81897 0
M  V30 4684 H 435.929 -3.19351 3.79906 0
M  V30 4685 H 431.185 -3.19578 5.21229 0
M  V30 4686 H 435.359 -3.1726 6.19935 0
M  V30 4687 H 432.986 -3.16915 6.90991 0
M  V30 4688 N 434.561 -1.01147 -1.20859 0
M  V30 4689 C 435.511 -0.548247 -2.2131 0
M  V30 4690 C 436.495 0.393646 -1.5601 0
M  V30 4691 O 437.687 0.217445 -1.75659 0
M  V30 4692 C 434.816 0.117252 -3.431 0
M  V30 4693 C 433.902 -0.846043 -4.15575 0
M  V30 4694 N 434.293 -2.00149 -4.64515 0
M  V30 4695 C 432.591 -0.665783 -4.41003 0
M  V30 4696 C 433.292 -2.60764 -5.19978 0
M  V30 4697 N 432.268 -1.88868 -5.09735 0
M  V30 4698 H 436.07 -1.42921 -2.56809 0
M  V30 4699 H 433.584 -0.876142 -1.36739 0
M  V30 4700 H 435.581 0.46662 -4.1428 0
M  V30 4701 H 434.241 0.994115 -3.09107 0
M  V30 4702 H 435.252 -2.38162 -4.5989 0
M  V30 4703 H 431.929 0.163456 -4.1718 0
M  V30 4704 H 433.319 -3.58519 -5.68255 0
M  V30 4705 N 436.039 1.36541 -0.78704 0
M  V30 4706 C 437.267 2.03561 -0.370199 0
M  V30 4707 C 437.682 1.59347 1.01263 0
M  V30 4708 O 437.039 0.781781 1.64907 0
M  V30 4709 C 437.09 3.59033 -0.421614 0
M  V30 4710 O 436.811 4.01634 -1.7499 0
M  V30 4711 C 438.312 4.433 0.00489763 0
M  V30 4712 H 435.532 0.653346 -0.152904 0
M  V30 4713 H 438.076 1.74566 -1.06522 0
M  V30 4714 H 436.231 3.86746 0.224971 0
M  V30 4715 H 436.645 4.96217 -1.69909 0
M  V30 4716 H 438.119 5.51939 -0.0822184 0
M  V30 4717 H 438.596 4.26285 1.05723 0
M  V30 4718 H 439.202 4.20843 -0.614085 0
M  V30 4719 N 437.518 0.538854 1.48102 0
M  V30 4720 C 438.448 -0.207654 2.32575 0
M  V30 4721 C 439.429 -0.926559 1.4265 0
M  V30 4722 O 440.614 -0.91061 1.71527 0
M  V30 4723 C 437.744 -1.24957 3.24042 0
M  V30 4724 C 436.698 -0.648263 4.23062 0
M  V30 4725 C 436.024 -1.79348 5.03725 0
M  V30 4726 C 437.324 0.385897 5.20872 0
M  V30 4727 H 439.018 0.497534 2.95237 0
M  V30 4728 H 436.564 0.240715 1.41974 0
M  V30 4729 H 438.517 -1.77983 3.81969 0
M  V30 4730 H 437.241 -1.98446 2.59397 0
M  V30 4731 H 435.9 -0.139452 3.66335 0
M  V30 4732 H 435.548 -2.51696 4.35498 0
M  V30 4733 H 435.248 -1.39702 5.70751 0
M  V30 4734 H 436.772 -2.32735 5.64506 0
M  V30 4735 H 438.186 -0.057607 5.73271 0
M  V30 4736 H 436.583 0.700227 5.96001 0
M  V30 4737 H 437.653 1.28848 4.67468 0
M  V30 4738 N 438.996 -1.55193 0.274407 0
M  V30 4739 C 440.243 -1.99581 -0.342579 0
M  V30 4740 C 440.571 -1.1628 -1.55914 0
M  V30 4741 O 439.826 -0.22029 -1.94456 0
M  V30 4742 C 440.125 -3.49019 -0.769458 0
M  V30 4743 C 439.791 -4.49598 0.342389 0
M  V30 4744 C 438.453 -4.76821 0.647686 0
M  V30 4745 C 440.805 -5.0964 1.09163 0
M  V30 4746 C 438.133 -5.61354 1.70581 0
M  V30 4747 C 440.485 -5.95323 2.13948 0
M  V30 4748 C 439.149 -6.20867 2.45113 0
M  V30 4749 H 438.419 -0.730319 -0.125358 0
M  V30 4750 H 441.066 -1.87529 0.387971 0
M  V30 4751 H 439.371 -3.58544 -1.57967 0
M  V30 4752 H 441.068 -3.8077 -1.25757 0
M  V30 4753 H 437.658 -4.28496 0.094318 0
M  V30 4754 H 441.842 -4.88632 0.869024 0
M  V30 4755 H 437.098 -5.79392 1.9523 0
M  V30 4756 H 441.272 -6.40881 2.72478 0
M  V30 4757 H 438.899 -6.86162 3.27239 0
M  V30 4758 N 440.474 -0.00167713 -1.576 0
M  V30 4759 C 441.714 0.687302 -1.92498 0
M  V30 4760 C 442.078 1.70844 -0.876144 0
M  V30 4761 O 443.279 2.44792 -1.11043 0
M  V30 4762 C 441.55 1.31217 -3.32441 0
M  V30 4763 S 443.109 2.02604 -3.89226 0
M  V30 4764 H 439.927 0.226985 -0.673794 0
M  V30 4765 H 442.529 -0.0587666 -1.95412 0
M  V30 4766 H 441.233 0.556164 -4.06614 0
M  V30 4767 H 440.764 2.09613 -3.32905 0
M  V30 4768 H 442.779 3.30137 -3.70438 0
M  V30 4769 N 441.952 1.55251 0.271103 0
M  V30 4770 C 443.368 1.47133 0.618393 0
M  V30 4771 C 443.568 0.686994 1.89427 0
M  V30 4772 O 442.624 0.206609 2.51653 0
M  V30 4773 C 443.937 2.91361 0.743593 0
M  V30 4774 C 445.485 3.01587 0.837522 0
M  V30 4775 C 445.96 4.47073 0.994483 0
M  V30 4776 N 447.451 4.50909 1.05996 0
M  V30 4777 C 448.186 5.60698 1.20024 0
M  V30 4778 N 447.682 6.80348 1.30759 0
M  V30 4779 N 449.475 5.48444 1.23149 0
M  V30 4780 H 441.626 2.04698 -0.566784 0
M  V30 4781 H 443.889 0.928319 -0.192165 0
M  V30 4782 H 443.595 3.51483 -0.123493 0
M  V30 4783 H 443.469 3.40484 1.62328 0
M  V30 4784 H 445.856 2.4156 1.69507 0
M  V30 4785 H 445.937 2.55713 -0.0668086 0
M  V30 4786 H 445.581 5.07703 0.141582 0
M  V30 4787 H 445.511 4.90605 1.91349 0
M  V30 4788 H 448.002 3.6472 0.989316 0
M  V30 4789 H 448.315 7.59772 1.41303 0
M  V30 4790 H 446.66 6.83156 1.27761 0
M  V30 4791 H 449.851 4.53907 1.14394 0
M  V30 4792 H 450.024 6.34049 1.33738 0
M  V30 4793 N 443.43 -0.535701 1.48216 0
M  V30 4794 C 444.846 -0.863701 1.3421 0
M  V30 4795 C 445.046 -1.98458 0.34879 0
M  V30 4796 O 444.102 -2.51432 -0.23204 0
M  V30 4797 C 445.415 -1.23662 2.74095 0
M  V30 4798 C 446.963 -1.34683 2.82541 0
M  V30 4799 C 447.438 -1.75322 4.23115 0
M  V30 4800 N 448.929 -1.82434 4.2576 0
M  V30 4801 C 449.664 -2.15252 5.31464 0
M  V30 4802 N 449.16 -2.46533 6.47452 0
M  V30 4803 N 450.953 -2.16209 5.18855 0
M  V30 4804 H 443.104 0.203965 2.11418 0
M  V30 4805 H 445.367 0.0286033 0.947568 0
M  V30 4806 H 445.073 -0.486674 3.48316 0
M  V30 4807 H 444.947 -2.18805 3.07253 0
M  V30 4808 H 447.334 -2.08756 2.08579 0
M  V30 4809 H 447.415 -0.376756 2.5301 0
M  V30 4810 H 447.059 -1.01812 4.97591 0
M  V30 4811 H 446.989 -2.7337 4.50085 0
M  V30 4812 H 449.48 -1.6056 3.42095 0
M  V30 4813 H 449.793 -2.70662 7.23852 0
M  V30 4814 H 448.138 -2.44065 6.50736 0
M  V30 4815 H 451.329 -1.91224 4.2726 0
M  V30 4816 H 451.502 -2.41453 6.01335 0
M  V30 4817 N 444.908 -1.36708 -0.784132 0
M  V30 4818 C 446.148 -1.32618 -1.55537 0
M  V30 4819 C 446.512 0.0920681 -1.91779 0
M  V30 4820 O 447.713 0.257573 -2.67563 0
M  V30 4821 C 445.984 -2.22788 -2.79464 0
M  V30 4822 S 447.543 -2.36432 -3.69656 0
M  V30 4823 H 444.361 -0.470973 -0.53264 0
M  V30 4824 H 446.963 -1.72333 -0.92312 0
M  V30 4825 H 445.667 -3.24774 -2.50899 0
M  V30 4826 H 445.198 -1.84112 -3.47658 0
M  V30 4827 H 447.213 -1.56573 -4.7085 0
M  V30 4828 N 446.386 1.0089 -1.21074 0
M  V30 4829 C 447.633 1.74607 -1.0256 0
M  V30 4830 C 447.961 1.89426 0.44136 0
M  V30 4831 O 447.216 1.42266 1.34384 0
M  V30 4832 C 447.515 3.16335 -1.66334 0
M  V30 4833 C 447.181 3.21474 -3.16173 0
M  V30 4834 C 445.843 3.22583 -3.57062 0
M  V30 4835 C 448.195 3.19025 -4.12156 0
M  V30 4836 C 445.523 3.18925 -4.92446 0
M  V30 4837 C 447.875 3.16909 -5.47496 0
M  V30 4838 C 446.539 3.16326 -5.87787 0
M  V30 4839 H 445.809 0.638933 -0.375294 0
M  V30 4840 H 448.456 1.18274 -1.50611 0
M  V30 4841 H 446.761 3.75876 -1.10566 0
M  V30 4842 H 448.458 3.72083 -1.49516 0
M  V30 4843 H 445.048 3.2135 -2.83605 0
M  V30 4844 H 449.232 3.17332 -3.81595 0
M  V30 4845 H 444.488 3.16809 -5.22917 0
M  V30 4846 H 448.662 3.13968 -6.21609 0
M  V30 4847 H 446.289 3.13246 -6.92662 0
M  V30 4848 N 447.864 1.01787 1.20321 0
M  V30 4849 C 448.811 0.589197 2.23153 0
M  V30 4850 C 449.781 -0.391367 1.61423 0
M  V30 4851 O 450.966 -0.290518 1.88575 0
M  V30 4852 C 448.106 -0.0650747 3.45039 0
M  V30 4853 C 447.219 0.960207 4.21194 0
M  V30 4854 C 446.354 0.276854 5.30478 0
M  V30 4855 C 445.393 1.2888 5.98378 0
M  V30 4856 N 444.53 0.632031 6.99249 0
M  V30 4857 H 449.37 1.47071 2.59179 0
M  V30 4858 H 446.907 0.736192 1.27352 0
M  V30 4859 H 448.865 -0.461552 4.14639 0
M  V30 4860 H 447.495 -0.910233 3.09701 0
M  V30 4861 H 446.547 1.47484 3.50646 0
M  V30 4862 H 447.859 1.72977 4.67847 0
M  V30 4863 H 447.013 -0.175056 6.06447 0
M  V30 4864 H 445.752 -0.525004 4.84866 0
M  V30 4865 H 444.757 1.75109 5.21169 0
M  V30 4866 H 445.982 2.09196 6.46076 0
M  V30 4867 H 443.928 -0.149935 6.55829 0
M  V30 4868 H 443.845 1.33964 7.44036 0
M  V30 4869 H 445.113 0.203755 7.79234 0
M  V30 4870 N 449.342 -1.36122 0.79427 0
M  V30 4871 C 450.572 -2.03067 0.380437 0
M  V30 4872 C 450.98 -1.60018 -1.00949 0
M  V30 4873 O 450.323 -0.787425 -1.65968 0
M  V30 4874 C 450.385 -3.57587 0.37034 0
M  V30 4875 C 450.049 -4.23855 1.70867 0
M  V30 4876 C 451.046 -4.46404 2.66496 0
M  V30 4877 C 448.731 -4.61229 1.9893 0
M  V30 4878 C 450.725 -5.05412 3.88378 0
M  V30 4879 C 448.412 -5.19953 3.21079 0
M  V30 4880 C 449.41 -5.41985 4.15621 0
M  V30 4881 O 449.098 -5.99475 5.35616 0
M  V30 4882 H 448.83 -0.658168 0.154243 0
M  V30 4883 H 451.384 -1.7498 1.0757 0
M  V30 4884 H 449.614 -3.84814 -0.381444 0
M  V30 4885 H 451.303 -4.05895 -0.0194894 0
M  V30 4886 H 452.069 -4.17921 2.46103 0
M  V30 4887 H 447.948 -4.43402 1.26158 0
M  V30 4888 H 451.492 -5.22524 4.62185 0
M  V30 4889 H 447.389 -5.47862 3.41347 0
M  V30 4890 H 448.157 -6.17937 5.36745 0
M  V30 4891 N 450.82 -0.546701 -1.47814 0
M  V30 4892 C 452.097 0.0464413 -1.95545 0
M  V30 4893 C 452.477 1.4962 -1.48919 0
M  V30 4894 O 451.825 2.16752 -0.723232 0
M  V30 4895 C 452.035 -0.0881298 -3.48889 0
M  V30 4896 C 453.383 0.0626059 -4.24554 0
M  V30 4897 O 454.407 -0.0151555 -3.56197 0
M  V30 4898 O 453.266 0.228071 -5.46024 0
M  V30 4899 H 450.36 0.0700004 -0.824032 0
M  V30 4900 H 452.906 -0.612482 -1.58262 0
M  V30 4901 H 451.678 -1.09737 -3.75597 0
M  V30 4902 H 451.301 0.608886 -3.9291 0
M  V30 4903 N 452.299 1.55045 -0.282633 0
M  V30 4904 C 453.539 2.01668 0.333088 0
M  V30 4905 C 453.903 1.1667 1.52486 0
M  V30 4906 O 455.104 1.52907 2.21072 0
M  V30 4907 C 453.375 3.50509 0.698442 0
M  V30 4908 S 454.934 4.19112 1.29963 0
M  V30 4909 H 451.752 0.703468 0.103219 0
M  V30 4910 H 454.354 1.91233 -0.406222 0
M  V30 4911 H 453.058 4.10015 -0.177693 0
M  V30 4912 H 452.589 3.64943 1.46902 0
M  V30 4913 H 454.604 4.23362 2.58803 0
M  V30 4914 N 453.777 0.010035 1.57597 0
M  V30 4915 C 455.024 -0.6727 1.91 0
M  V30 4916 C 455.352 -1.73219 0.884614 0
M  V30 4917 O 454.607 -1.95395 -0.109215 0
M  V30 4918 C 454.906 -1.34434 3.31153 0
M  V30 4919 C 454.572 -0.417083 4.48967 0
M  V30 4920 C 453.234 -0.161809 4.80928 0
M  V30 4921 C 455.586 0.220753 5.20732 0
M  V30 4922 C 452.914 0.739426 5.82022 0
M  V30 4923 C 455.266 1.10993 6.22787 0
M  V30 4924 C 453.93 1.37428 6.532 0
M  V30 4925 H 453.2 -0.246158 0.698918 0
M  V30 4926 H 455.847 0.0677145 1.9138 0
M  V30 4927 H 454.152 -2.15905 3.26944 0
M  V30 4928 H 455.849 -1.87883 3.54261 0
M  V30 4929 H 452.439 -0.626217 4.24001 0
M  V30 4930 H 456.623 0.0365643 4.96287 0
M  V30 4931 H 451.879 0.952139 6.03941 0
M  V30 4932 H 456.053 1.61046 6.77523 0
M  V30 4933 H 453.68 2.0743 7.31353 0
M  V30 4934 N 455.255 -1.55392 -0.262866 0
M  V30 4935 C 456.185 -1.91978 -1.32917 0
M  V30 4936 C 457.166 -0.7828 -1.51017 0
M  V30 4937 O 458.351 -1.04178 -1.63892 0
M  V30 4938 C 455.481 -2.20055 -2.68687 0
M  V30 4939 C 454.435 -3.35854 -2.65304 0
M  V30 4940 C 453.761 -3.49435 -4.04721 0
M  V30 4941 C 455.061 -4.71977 -2.23685 0
M  V30 4942 H 456.755 -2.81292 -1.02544 0
M  V30 4943 H 454.301 -1.3534 -0.491846 0
M  V30 4944 H 456.254 -2.44237 -3.43404 0
M  V30 4945 H 454.978 -1.27551 -3.00663 0
M  V30 4946 H 453.637 -3.11655 -1.93045 0
M  V30 4947 H 453.285 -2.54379 -4.33936 0
M  V30 4948 H 452.985 -4.27297 -4.0335 0
M  V30 4949 H 454.509 -3.7592 -4.81161 0
M  V30 4950 H 455.923 -4.95637 -2.88127 0
M  V30 4951 H 454.32 -5.52828 -2.33456 0
M  V30 4952 H 455.39 -4.70115 -1.18827 0
M  V30 4953 N 456.733 0.527833 -1.48498 0
M  V30 4954 C 457.683 1.62844 -1.5958 0
M  V30 4955 C 458.667 1.54397 -0.452809 0
M  V30 4956 O 459.859 1.62381 -0.704364 0
M  V30 4957 C 456.988 3.01557 -1.64067 0
M  V30 4958 C 456.074 3.151 -2.83853 0
M  V30 4959 N 456.465 2.9861 -4.08247 0
M  V30 4960 C 454.763 3.46158 -2.8123 0
M  V30 4961 C 455.464 3.15626 -4.88626 0
M  V30 4962 N 454.44 3.43298 -4.21483 0
M  V30 4963 H 458.242 1.48708 -2.53502 0
M  V30 4964 H 455.756 0.733343 -1.44899 0
M  V30 4965 H 457.753 3.8062 -1.70101 0
M  V30 4966 H 456.413 3.16783 -0.712636 0
M  V30 4967 H 457.424 2.75329 -4.3865 0
M  V30 4968 H 454.101 3.67728 -1.97692 0
M  V30 4969 H 455.491 3.07596 -5.97356 0
M  V30 4970 N 458.211 1.37122 0.776871 0
M  V30 4971 C 459.622 1.28667 1.35284 0
M  V30 4972 C 459.973 -0.0680035 1.96082 0
M  V30 4973 O 459.098 -0.969743 1.93455 0
M  V30 4974 C 459.693 2.32997 2.45963 0
M  V30 4975 C 458.252 2.28191 2.99342 0
M  V30 4976 C 457.399 2.17101 1.72517 0
M  V30 4977 H 460.35 1.47819 0.577527 0
M  V30 4978 H 460.371 1.97366 3.2531 0
M  V30 4979 H 459.883 3.3158 2.01684 0
M  V30 4980 H 457.984 1.33115 3.4801 0
M  V30 4981 H 458.097 3.21397 3.55304 0
M  V30 4982 H 456.461 1.63562 1.95242 0
M  V30 4983 H 457.244 3.17591 1.30348 0
M  V30 4984 N 459.689 -1.00246 1.21608 0
M  V30 4985 C 460.936 -1.74061 1.03485 0
M  V30 4986 C 461.264 -1.89658 -0.431308 0
M  V30 4987 O 460.519 -1.42976 -1.33627 0
M  V30 4988 C 460.818 -3.15448 1.68009 0
M  V30 4989 C 460.484 -3.19792 3.17874 0
M  V30 4990 C 459.146 -3.20685 3.58768 0
M  V30 4991 C 461.498 -3.16835 4.13842 0
M  V30 4992 C 458.826 -3.16309 4.94131 0
M  V30 4993 C 461.178 -3.14001 5.49169 0
M  V30 4994 C 459.842 -3.13204 5.89457 0
M  V30 4995 H 459.112 -0.636934 0.378677 0
M  V30 4996 H 461.759 -1.17473 1.51236 0
M  V30 4997 H 460.064 -3.75284 1.12557 0
M  V30 4998 H 461.761 -3.71285 1.51487 0
M  V30 4999 H 458.351 -3.19842 2.85305 0
M  V30 5000 H 462.535 -3.15303 3.83272 0
M  V30 5001 H 457.791 -3.14032 5.24589 0
M  V30 5002 H 461.965 -3.10667 6.23265 0
M  V30 5003 H 459.592 -3.09568 6.94314 0
M  V30 5004 N 461.167 -1.02423 -1.1978 0
M  V30 5005 C 462.117 -0.571689 -2.20716 0
M  V30 5006 C 463.101 0.377077 -1.56419 0
M  V30 5007 O 464.293 0.198801 -1.7588 0
M  V30 5008 C 461.422 0.0808555 -3.43205 0
M  V30 5009 C 460.508 -0.890073 -4.14655 0
M  V30 5010 N 460.899 -2.05065 -4.62366 0
M  V30 5011 C 459.197 -0.71252 -4.40272 0
M  V30 5012 C 459.898 -2.66264 -5.17183 0
M  V30 5013 N 458.874 -1.94264 -5.07703 0
M  V30 5014 H 462.676 -1.45636 -2.55279 0
M  V30 5015 H 460.19 -0.890596 -1.35802 0
M  V30 5016 H 462.187 0.422654 -4.14752 0
M  V30 5017 H 460.847 0.961274 -3.10144 0
M  V30 5018 H 461.858 -2.43026 -4.57339 0
M  V30 5019 H 458.535 0.119199 -4.1733 0
M  V30 5020 H 459.925 -3.64526 -5.64421 0
M  V30 5021 N 462.645 1.35699 -0.801477 0
M  V30 5022 C 463.608 2.28199 -0.213994 0
M  V30 5023 C 464.608 1.49359 0.595691 0
M  V30 5024 O 465.798 1.69186 0.414921 0
M  V30 5025 C 462.93 3.33587 0.702297 0
M  V30 5026 H 464.123 2.81666 -1.02976 0
M  V30 5027 H 461.676 1.45467 -0.571759 0
M  V30 5028 H 462.411 2.85297 1.54195 0
M  V30 5029 H 462.196 3.91906 0.123484 0
M  V30 5030 H 463.686 4.02638 1.10783 0
M  V30 5031 N 464.123 0.554532 1.47522 0
M  V30 5032 C 465.351 0.034257 2.06872 0
M  V30 5033 C 465.766 -1.25826 1.40759 0
M  V30 5034 O 465.123 -1.75425 0.503217 0
M  V30 5035 C 465.174 -0.167827 3.6111 0
M  V30 5036 O 464.895 1.07351 4.24744 0
M  V30 5037 C 466.396 -0.72569 4.3732 0
M  V30 5038 H 463.616 0.0446275 0.669514 0
M  V30 5039 H 466.16 0.767181 1.89564 0
M  V30 5040 H 464.315 -0.850872 3.7794 0
M  V30 5041 H 464.729 0.869563 5.17242 0
M  V30 5042 H 466.203 -0.816394 5.45929 0
M  V30 5043 H 466.68 -1.73635 4.0342 0
M  V30 5044 H 467.286 -0.0784292 4.25228 0
M  V30 5045 N 465.601 -1.54893 0.290851 0
M  V30 5046 C 467.012 -1.85584 -0.203816 0
M  V30 5047 C 467.363 -1.21285 -1.54222 0
M  V30 5048 O 466.488 -0.506841 -2.10381 0
M  V30 5049 C 467.083 -3.367 -0.376595 0
M  V30 5050 C 465.642 -3.6746 -0.815485 0
M  V30 5051 C 464.789 -2.77178 0.0821087 0
M  V30 5052 H 467.74 -1.50208 0.512175 0
M  V30 5053 H 467.761 -3.60656 -1.21275 0
M  V30 5054 H 467.273 -3.8347 0.59767 0
M  V30 5055 H 465.374 -3.26201 -1.80066 0
M  V30 5056 H 465.487 -4.7478 -0.641905 0
M  V30 5057 H 463.851 -2.50925 -0.436895 0
M  V30 5058 H 464.634 -3.26767 1.05254 0
M  V30 5059 N 467.08 -0.0183926 -1.57589 0
M  V30 5060 C 468.028 0.985111 -2.10709 0
M  V30 5061 C 469.022 1.34397 -1.0312 0
M  V30 5062 O 470.228 1.32746 -1.21567 0
M  V30 5063 H 466.603 0.335418 -0.673052 0
M  V30 5064 H 468.574 0.511689 -2.9398 0
M  V30 5065 C 467.323 2.26202 -2.64061 0
M  V30 5066 H 466.646 1.9946 -3.4649 0
M  V30 5067 H 468.086 2.94652 -3.04887 0
M  V30 5068 C 466.545 2.98444 -1.5631 0
M  V30 5069 O 467.075 3.90142 -0.956674 0
M  V30 5070 N 465.281 2.6059 -1.28612 0
M  V30 5071 H 464.828 1.86101 -1.78112 0
M  V30 5072 H 464.786 3.09238 -0.567406 0
M  V30 5073 N 468.558 1.5553 0.254621 0
M  V30 5074 C 469.804 1.77262 0.985193 0
M  V30 5075 C 470.137 0.582286 1.85265 0
M  V30 5076 O 469.412 -0.419666 1.89919 0
M  V30 5077 C 469.695 3.0881 1.85225 0
M  V30 5078 C 469.548 4.38233 1.0135 0
M  V30 5079 C 470.867 3.3653 2.83612 0
M  V30 5080 H 467.986 0.644906 0.356742 0
M  V30 5081 H 470.628 1.88264 0.256236 0
M  V30 5082 H 468.778 2.99562 2.47376 0
M  V30 5083 H 470.45 4.59463 0.411269 0
M  V30 5084 H 468.693 4.32636 0.317574 0
M  V30 5085 H 469.364 5.26644 1.65379 0
M  V30 5086 H 471.84 3.45691 2.31596 0
M  V30 5087 H 470.716 4.29805 3.41407 0
M  V30 5088 H 470.977 2.57064 3.59681 0
M  V30 5089 N 470.036 -0.519951 1.48776 0
M  V30 5090 C 471.266 -1.29783 1.60748 0
M  V30 5091 C 471.674 -1.87253 0.27072 0
M  V30 5092 O 471.017 -1.67628 -0.751438 0
M  V30 5093 C 471.079 -2.47984 2.60277 0
M  V30 5094 C 470.743 -2.11526 4.051 0
M  V30 5095 C 471.74 -1.66608 4.92481 0
M  V30 5096 C 469.425 -2.21742 4.50706 0
M  V30 5097 C 471.419 -1.32384 6.23501 0
M  V30 5098 C 469.106 -1.87129 5.81744 0
M  V30 5099 C 470.104 -1.42523 6.67964 0
M  V30 5100 O 469.792 -1.0837 7.96562 0
M  V30 5101 H 469.524 -0.400562 0.544542 0
M  V30 5102 H 472.078 -0.632879 1.95407 0
M  V30 5103 H 470.308 -3.17493 2.2076 0
M  V30 5104 H 471.997 -3.10036 2.61978 0
M  V30 5105 H 472.763 -1.58178 4.58481 0
M  V30 5106 H 468.642 -2.55415 3.83776 0
M  V30 5107 H 472.186 -0.974949 6.90754 0
M  V30 5108 H 468.083 -1.95204 6.15277 0
M  V30 5109 H 468.851 -1.21681 8.09405 0
M  V30 5110 N 471.514 -1.37532 -0.769588 0
M  V30 5111 C 472.461 -1.3347 -1.88293 0
M  V30 5112 C 473.431 -0.199891 -1.64893 0
M  V30 5113 O 474.616 -0.389594 -1.8678 0
M  V30 5114 C 471.756 -1.14968 -3.25387 0
M  V30 5115 C 470.869 -2.37698 -3.60727 0
M  V30 5116 C 470.004 -2.12051 -4.8704 0
M  V30 5117 C 469.043 -3.30636 -5.15117 0
M  V30 5118 N 468.18 -3.04527 -6.3262 0
M  V30 5119 H 473.02 -2.28658 -1.911 0
M  V30 5120 H 470.557 -1.13622 -0.934257 0
M  V30 5121 H 472.515 -1.02261 -4.04473 0
M  V30 5122 H 471.145 -0.234263 -3.21949 0
M  V30 5123 H 470.197 -2.61137 -2.76608 0
M  V30 5124 H 471.509 -3.26131 -3.77413 0
M  V30 5125 H 470.663 -1.96388 -5.74035 0
M  V30 5126 H 469.402 -1.20959 -4.72462 0
M  V30 5127 H 468.407 -3.46836 -4.26597 0
M  V30 5128 H 469.632 -4.22582 -5.31603 0
M  V30 5129 H 467.578 -2.16067 -6.19396 0
M  V30 5130 H 467.495 -3.86503 -6.49732 0
M  V30 5131 H 468.763 -2.92485 -7.22546 0
M  V30 5132 N 472.992 0.995999 -1.22138 0
M  V30 5133 C 474.408 1.25917 -0.980667 0
M  V30 5134 C 474.608 1.98819 0.327604 0
M  V30 5135 O 473.664 2.29587 1.05101 0
M  V30 5136 C 474.977 2.07399 -2.17729 0
M  V30 5137 C 476.525 2.20594 -2.22052 0
M  V30 5138 C 477 3.05462 -3.41258 0
M  V30 5139 N 478.491 3.13049 -3.41401 0
M  V30 5140 C 479.226 3.78997 -4.30289 0
M  V30 5141 N 478.722 4.46899 -5.2939 0
M  V30 5142 N 480.515 3.75728 -4.18073 0
M  V30 5143 H 472.666 0.507158 -2.06256 0
M  V30 5144 H 474.929 0.28658 -0.903646 0
M  V30 5145 H 474.635 1.61191 -3.12586 0
M  V30 5146 H 474.509 3.08154 -2.17534 0
M  V30 5147 H 476.896 2.66017 -1.27745 0
M  V30 5148 H 476.977 1.1928 -2.26287 0
M  V30 5149 H 476.621 2.60739 -4.35864 0
M  V30 5150 H 476.551 4.06911 -3.34262 0
M  V30 5151 H 479.042 2.64721 -2.69688 0
M  V30 5152 H 479.355 4.94952 -5.935 0
M  V30 5153 H 477.7 4.45657 -5.33306 0
M  V30 5154 H 480.891 3.2184 -3.39907 0
M  V30 5155 H 481.064 4.26845 -4.87553 0
M  V30 5156 N 474.47 1.03057 1.19235 0
M  V30 5157 C 475.417 0.612832 2.22515 0
M  V30 5158 C 476.387 -0.374224 1.61829 0
M  V30 5159 O 477.572 -0.270501 1.88873 0
M  V30 5160 C 474.712 -0.028475 3.45088 0
M  V30 5161 C 473.825 1.00483 4.20151 0
M  V30 5162 C 472.96 0.333102 5.30155 0
M  V30 5163 C 471.999 1.3522 5.96977 0
M  V30 5164 N 471.136 0.70616 6.9854 0
M  V30 5165 H 475.976 1.49812 2.57605 0
M  V30 5166 H 473.513 0.749658 1.26564 0
M  V30 5167 H 475.471 -0.417548 4.15105 0
M  V30 5168 H 474.101 -0.877334 3.10649 0
M  V30 5169 H 473.153 1.51194 3.49062 0
M  V30 5170 H 474.465 1.77929 4.65986 0
M  V30 5171 H 473.619 -0.110725 6.06599 0
M  V30 5172 H 472.358 -0.473547 4.85396 0
M  V30 5173 H 471.363 1.80627 5.19282 0
M  V30 5174 H 472.588 2.16037 6.4382 0
M  V30 5175 H 470.534 -0.0803667 6.55951 0
M  V30 5176 H 470.451 1.41848 7.42573 0
M  V30 5177 H 471.719 0.286391 7.78974 0
M  V30 5178 N 475.948 -1.35272 0.808662 0
M  V30 5179 C 476.896 -2.31663 0.208606 0
M  V30 5180 C 477.89 -1.56731 -0.642778 0
M  V30 5181 O 479.096 -1.71843 -0.53571 0
M  V30 5182 H 475.471 -0.750421 0.0486993 0
M  V30 5183 H 477.442 -2.79814 1.03666 0
M  V30 5184 C 476.191 -3.42008 -0.626573 0
M  V30 5185 H 475.514 -3.99795 0.0192103 0
M  V30 5186 H 476.954 -4.11727 -1.01278 0
M  V30 5187 C 475.413 -2.85226 -1.79298 0
M  V30 5188 O 475.943 -2.78945 -2.89055 0
M  V30 5189 N 474.149 -2.42245 -1.60516 0
M  V30 5190 H 473.696 -2.47554 -0.712375 0
M  V30 5191 H 473.654 -2.04603 -2.38715 0
M  V30 5192 N 477.426 -0.562348 -1.47226 0
M  V30 5193 C 478.373 0.182461 -2.30078 0
M  V30 5194 C 479.343 0.903503 -1.39377 0
M  V30 5195 O 480.528 0.898188 -1.68337 0
M  V30 5196 C 477.668 1.20322 -3.23445 0
M  V30 5197 C 476.781 0.487717 -4.29238 0
M  V30 5198 C 475.916 1.49422 -5.09752 0
M  V30 5199 C 474.955 0.763976 -6.07314 0
M  V30 5200 N 474.092 1.71755 -6.80768 0
M  V30 5201 H 478.932 -0.530169 -2.93246 0
M  V30 5202 H 476.469 -0.273276 -1.44539 0
M  V30 5203 H 478.427 1.80768 -3.76004 0
M  V30 5204 H 477.057 1.88382 -2.6213 0
M  V30 5205 H 476.109 -0.231374 -3.79696 0
M  V30 5206 H 477.421 -0.0841003 -4.98729 0
M  V30 5207 H 476.575 2.17206 -5.66486 0
M  V30 5208 H 475.314 2.09995 -4.40174 0
M  V30 5209 H 474.319 0.0722344 -5.49753 0
M  V30 5210 H 475.544 0.16391 -6.78902 0
M  V30 5211 H 473.49 2.31177 -6.13916 0
M  V30 5212 H 473.407 1.19802 -7.46447 0
M  V30 5213 H 474.675 2.38638 -7.42073 0
M  V30 5214 N 478.904 1.54736 -0.299062 0
M  V30 5215 C 479.814 2.27127 0.587413 0
M  V30 5216 C 480.83 1.30575 1.15005 0
M  V30 5217 O 482.006 1.63554 1.17525 0
M  V30 5218 C 479.071 2.99645 1.74395 0
M  V30 5219 C 478.132 4.11731 1.21559 0
M  V30 5220 C 477.365 4.80781 2.317 0
M  V30 5221 O 477.588 4.4918 3.51558 0
M  V30 5222 O 476.522 5.68226 1.98501 0
M  V30 5223 H 480.348 3.037 0.000250109 0
M  V30 5224 H 477.933 1.49256 -0.0655919 0
M  V30 5225 H 479.815 3.45138 2.4178 0
M  V30 5226 H 478.49 2.25969 2.31775 0
M  V30 5227 H 477.397 3.70641 0.507514 0
M  V30 5228 H 478.73 4.87379 0.687233 0
M  V30 5229 N 480.382 0.0267497 1.57577 0
M  V30 5230 C 481.631 -0.651736 1.9088 0
M  V30 5231 C 481.944 -1.73427 0.904576 0
M  V30 5232 O 483.15 -2.46923 1.12877 0
M  V30 5233 C 481.606 -1.21048 3.38933 0
M  V30 5234 C 481.214 -0.161362 4.47709 0
M  V30 5235 C 482.958 -1.86562 3.81307 0
M  V30 5236 C 480.865 -0.731611 5.86857 0
M  V30 5237 H 479.795 -0.247198 0.712326 0
M  V30 5238 H 482.446 0.0916641 1.83271 0
M  V30 5239 H 480.828 -2.00542 3.41466 0
M  V30 5240 H 482.002 0.61094 4.56732 0
M  V30 5241 H 480.317 0.394877 4.14523 0
M  V30 5242 H 482.914 -2.30178 4.8262 0
M  V30 5243 H 483.257 -2.70735 3.16241 0
M  V30 5244 H 483.79 -1.13762 3.81186 0
M  V30 5245 H 480.529 0.0719329 6.55461 0
M  V30 5246 H 480.049 -1.47245 5.81445 0
M  V30 5247 H 481.728 -1.22208 6.35354 0
M  V30 5248 N 481.861 -1.55662 -0.24637 0
M  V30 5249 C 482.808 -1.90361 -1.30504 0
M  V30 5250 C 483.778 -0.757905 -1.47801 0
M  V30 5251 O 484.963 -1.01161 -1.61775 0
M  V30 5252 C 482.103 -2.2042 -2.65535 0
M  V30 5253 C 481.216 -3.47799 -2.56242 0
M  V30 5254 C 480.351 -3.67426 -3.8363 0
M  V30 5255 C 479.39 -4.88403 -3.68956 0
M  V30 5256 N 478.527 -5.04548 -4.88237 0
M  V30 5257 H 483.367 -2.80645 -1.00213 0
M  V30 5258 H 480.904 -1.38924 -0.483577 0
M  V30 5259 H 482.862 -2.35853 -3.44135 0
M  V30 5260 H 481.492 -1.3334 -2.93973 0
M  V30 5261 H 480.544 -3.40694 -1.69208 0
M  V30 5262 H 481.856 -4.36544 -2.4131 0
M  V30 5263 H 481.01 -3.82821 -4.70673 0
M  V30 5264 H 479.749 -2.76914 -4.01459 0
M  V30 5265 H 478.754 -4.72984 -2.80296 0
M  V30 5266 H 479.979 -5.80375 -3.52621 0
M  V30 5267 H 477.925 -4.16974 -5.06427 0
M  V30 5268 H 477.842 -5.87384 -4.75937 0
M  V30 5269 H 479.11 -5.24355 -5.76777 0
M  V30 5270 N 483.339 0.512053 -1.4905 0
M  V30 5271 C 484.588 1.26343 -1.57227 0
M  V30 5272 C 484.901 1.93876 -0.259155 0
M  V30 5273 O 486.107 2.70612 -0.219358 0
M  V30 5274 C 484.563 2.29343 -2.77362 0
M  V30 5275 C 484.171 1.67799 -4.15388 0
M  V30 5276 C 485.915 3.05378 -2.94864 0
M  V30 5277 C 483.822 2.68845 -5.2676 0
M  V30 5278 H 482.752 0.475231 -0.585382 0
M  V30 5279 H 485.403 0.53862 -1.75417 0
M  V30 5280 H 483.785 3.04938 -2.52643 0
M  V30 5281 H 484.959 0.982715 -4.50199 0
M  V30 5282 H 483.274 1.04194 -4.03153 0
M  V30 5283 H 485.871 3.80921 -3.75238 0
M  V30 5284 H 486.214 3.62327 -2.05 0
M  V30 5285 H 486.747 2.36898 -3.19569 0
M  V30 5286 H 483.486 2.16692 -6.18647 0
M  V30 5287 H 483.006 3.36647 -4.96416 0
M  V30 5288 H 484.685 3.31487 -5.5563 0
M  V30 5289 N 484.817 1.37938 0.762283 0
M  V30 5290 C 485.727 1.36681 1.90671 0
M  V30 5291 C 486.743 0.265078 1.71969 0
M  V30 5292 O 487.919 0.502055 1.95042 0
M  V30 5293 C 484.984 1.18211 3.25925 0
M  V30 5294 C 484.045 2.3811 3.57214 0
M  V30 5295 C 483.278 2.20512 4.86014 0
M  V30 5296 O 483.501 1.19429 5.57757 0
M  V30 5297 O 482.435 3.08911 5.16583 0
M  V30 5298 H 486.261 2.33091 1.94685 0
M  V30 5299 H 483.846 1.18767 0.906356 0
M  V30 5300 H 485.728 1.09937 4.06807 0
M  V30 5301 H 484.403 0.248807 3.22742 0
M  V30 5302 H 483.31 2.51958 2.76529 0
M  V30 5303 H 484.643 3.30041 3.65149 0
M  V30 5304 N 486.295 -0.989507 1.22664 0
M  V30 5305 C 487.706 -1.54406 1.04955 0
M  V30 5306 C 488.057 -1.92366 -0.385951 0
M  V30 5307 O 487.182 -1.75111 -1.27142 0
M  V30 5308 C 487.777 -2.80578 1.89899 0
M  V30 5309 C 486.336 -3.32464 1.76478 0
M  V30 5310 C 485.483 -2.05524 1.86159 0
M  V30 5311 H 488.434 -0.810211 1.3646 0
M  V30 5312 H 488.455 -3.53075 1.4184 0
M  V30 5313 H 487.967 -2.52918 2.94371 0
M  V30 5314 H 486.068 -3.65024 0.747528 0
M  V30 5315 H 486.181 -4.02838 2.59342 0
M  V30 5316 H 484.545 -2.19241 1.29636 0
M  V30 5317 H 485.328 -1.80258 2.92168 0
M  V30 5318 N 487.773 -1.03688 -1.18687 0
M  V30 5319 C 488.683 -0.634908 -2.25845 0
M  V30 5320 C 489.699 0.337065 -1.70704 0
M  V30 5321 O 490.875 0.192943 -2.00474 0
M  V30 5322 C 487.94 -0.000180054 -3.467 0
M  V30 5323 C 487.001 -1.02067 -4.1699 0
M  V30 5324 C 486.234 -0.41614 -5.32075 0
M  V30 5325 O 486.457 0.778712 -5.65059 0
M  V30 5326 O 485.391 -1.14296 -5.90948 0
M  V30 5327 H 489.217 -1.52757 -2.62486 0
M  V30 5328 H 486.802 -0.807533 -1.25695 0
M  V30 5329 H 488.684 0.353342 -4.19916 0
M  V30 5330 H 487.359 0.866367 -3.11891 0
M  V30 5331 H 486.266 -1.42592 -3.45859 0
M  V30 5332 H 487.599 -1.85786 -4.5579 0
M  V30 5333 N 489.251 1.34841 -0.815825 0
M  V30 5334 C 490.662 1.80937 -0.46029 0
M  V30 5335 C 491.013 1.67685 1.01863 0
M  V30 5336 O 490.138 1.21277 1.79223 0
M  V30 5337 C 490.733 3.28509 -0.828708 0
M  V30 5338 C 489.292 3.72712 -0.525644 0
M  V30 5339 C 488.439 2.56676 -1.04941 0
M  V30 5340 H 491.39 1.22688 -1.00664 0
M  V30 5341 H 491.411 3.80279 -0.129757 0
M  V30 5342 H 490.923 3.38122 -1.90513 0
M  V30 5343 H 489.024 3.68642 0.541666 0
M  V30 5344 H 489.137 4.67119 -1.06474 0
M  V30 5345 H 487.501 2.50302 -0.471286 0
M  V30 5346 H 488.284 2.69063 -2.13214 0
M  V30 5347 N 490.729 0.570148 1.46925 0
M  V30 5348 C 491.969 0.0534743 2.0433 0
M  V30 5349 C 492.333 -1.27729 1.4335 0
M  V30 5350 O 493.534 -1.88244 1.91879 0
M  V30 5351 C 491.805 -0.0244296 3.57392 0
M  V30 5352 S 493.364 -0.485351 4.36108 0
M  V30 5353 H 490.182 0.0313908 0.710307 0
M  V30 5354 H 492.784 0.759808 1.80131 0
M  V30 5355 H 491.488 0.948261 3.99295 0
M  V30 5356 H 491.019 -0.753922 3.86108 0
M  V30 5357 H 493.034 -1.74258 4.64595 0
M  V30 5358 N 492.207 -1.54576 0.307264 0
M  V30 5359 C 493.455 -1.99867 -0.299574 0
M  V30 5360 C 493.776 -1.19714 -1.53927 0
M  V30 5361 O 493.046 -0.29472 -1.9367 0
M  V30 5362 H 491.626 -0.738299 -0.113683 0
M  V30 5363 H 494.288 -1.9032 0.420042 0
M  V30 5364 H 493.384 -3.06901 -0.567283 0
M  V30 5365 N 493.685 -0.035106 -1.57561 0
M  V30 5366 C 494.913 0.652258 -1.9635 0
M  V30 5367 C 495.328 1.65317 -0.911897 0
M  V30 5368 O 494.685 1.82194 0.105657 0
M  V30 5369 C 494.736 1.35337 -3.35211 0
M  V30 5370 O 494.457 0.392548 -4.36338 0
M  V30 5371 C 495.958 2.13199 -3.88666 0
M  V30 5372 H 493.178 0.179444 -0.646561 0
M  V30 5373 H 495.722 -0.0966459 -2.04271 0
M  V30 5374 H 493.877 2.05362 -3.28489 0
M  V30 5375 H 494.291 0.891097 -5.16875 0
M  V30 5376 H 495.765 2.577 -4.88154 0
M  V30 5377 H 496.242 2.97353 -3.23231 0
M  V30 5378 H 496.848 1.48118 -3.98674 0
M  V30 5379 N 495.163 1.55791 0.238111 0
M  V30 5380 C 496.44 1.68798 0.98826 0
M  V30 5381 C 496.82 0.577562 2.03045 0
M  V30 5382 O 496.168 -0.41778 2.24648 0
M  V30 5383 C 496.378 3.09454 1.61367 0
M  V30 5384 C 497.726 3.68335 2.11221 0
M  V30 5385 O 498.75 3.1231 1.71292 0
M  V30 5386 O 497.609 4.6657 2.84561 0
M  V30 5387 H 494.703 0.686881 0.460568 0
M  V30 5388 H 497.249 1.68118 0.231202 0
M  V30 5389 H 496.021 3.81726 0.860295 0
M  V30 5390 H 495.644 3.14182 2.4367 0
M  V30 5391 N 496.642 -0.504142 1.49319 0
M  V30 5392 C 497.882 -1.26867 1.60263 0
M  V30 5393 C 498.246 -1.89924 0.281578 0
M  V30 5394 O 499.447 -2.67479 0.266176 0
M  V30 5395 C 497.718 -2.30956 2.72753 0
M  V30 5396 S 499.277 -3.1679 3.03628 0
M  V30 5397 H 496.095 -0.431198 0.565322 0
M  V30 5398 H 498.697 -0.571407 1.86963 0
M  V30 5399 H 497.401 -1.83156 3.67263 0
M  V30 5400 H 496.932 -3.05356 2.48035 0
M  V30 5401 H 498.947 -4.31549 2.44908 0
M  V30 5402 N 498.12 -1.38341 -0.754957 0
M  V30 5403 C 499.367 -1.34473 -1.51404 0
M  V30 5404 C 499.695 0.0656458 -1.94389 0
M  V30 5405 O 498.95 1.04244 -1.65625 0
M  V30 5406 C 499.249 -2.2452 -2.78075 0
M  V30 5407 C 498.915 -3.72512 -2.54059 0
M  V30 5408 C 497.577 -4.1284 -2.47218 0
M  V30 5409 C 499.929 -4.66197 -2.33044 0
M  V30 5410 C 497.257 -5.44945 -2.17376 0
M  V30 5411 C 499.609 -5.98558 -2.04723 0
M  V30 5412 C 498.273 -6.37972 -1.96337 0
M  V30 5413 H 497.543 -0.492072 -0.554027 0
M  V30 5414 H 500.19 -1.70687 -0.868223 0
M  V30 5415 H 498.495 -1.81357 -3.473 0
M  V30 5416 H 500.192 -2.18832 -3.36026 0
M  V30 5417 H 496.782 -3.40538 -2.60253 0
M  V30 5418 H 500.966 -4.35888 -2.37309 0
M  V30 5419 H 496.222 -5.74426 -2.09391 0
M  V30 5420 H 500.396 -6.70693 -1.87465 0
M  V30 5421 H 498.023 -7.40258 -1.72978 0
M  V30 5422 N 499.598 0.982988 -1.23187 0
M  V30 5423 C 500.528 2.09301 -1.03515 0
M  V30 5424 C 501.509 1.70035 0.0471136 0
M  V30 5425 O 502.694 1.93847 -0.117029 0
M  V30 5426 C 499.824 3.4167 -0.622791 0
M  V30 5427 C 498.778 3.94828 -1.65211 0
M  V30 5428 C 498.104 5.23362 -1.09527 0
M  V30 5429 C 499.404 4.2439 -3.04451 0
M  V30 5430 H 501.098 2.26016 -1.96359 0
M  V30 5431 H 498.644 1.08611 -0.945501 0
M  V30 5432 H 500.597 4.18746 -0.472233 0
M  V30 5433 H 499.321 3.24811 0.341329 0
M  V30 5434 H 497.98 3.19895 -1.79061 0
M  V30 5435 H 497.628 5.02852 -0.122211 0
M  V30 5436 H 497.328 5.59895 -1.783 0
M  V30 5437 H 498.852 6.03062 -0.956511 0
M  V30 5438 H 500.266 4.92225 -2.93917 0
M  V30 5439 H 498.663 4.72118 -3.70438 0
M  V30 5440 H 499.733 3.31765 -3.53638 0
M  V30 5441 N 501.076 1.04316 1.18135 0
M  V30 5442 C 502.006 0.657299 2.24058 0
M  V30 5443 C 502.987 -0.340678 1.66654 0
M  V30 5444 O 504.172 -0.220223 1.92947 0
M  V30 5445 C 501.302 0.0220715 3.47293 0
M  V30 5446 C 500.256 0.943857 4.17463 0
M  V30 5447 C 499.582 0.172973 5.3442 0
M  V30 5448 C 500.882 2.26409 4.70677 0
M  V30 5449 H 502.576 1.5428 2.56589 0
M  V30 5450 H 500.122 0.743263 1.23335 0
M  V30 5451 H 502.075 -0.259607 4.206 0
M  V30 5452 H 500.799 -0.898323 3.14003 0
M  V30 5453 H 499.458 1.20996 3.46057 0
M  V30 5454 H 499.106 -0.749907 4.97379 0
M  V30 5455 H 498.806 0.787098 5.82304 0
M  V30 5456 H 500.33 -0.101628 6.10515 0
M  V30 5457 H 501.744 2.04294 5.35665 0
M  V30 5458 H 500.141 2.8314 5.29105 0
M  V30 5459 H 501.211 2.90883 3.87962 0
M  V30 5460 N 502.554 -1.34406 0.822964 0
M  V30 5461 C 503.484 -2.32052 0.259608 0
M  V30 5462 C 504.465 -1.58243 -0.623961 0
M  V30 5463 O 505.65 -1.86224 -0.55083 0
M  V30 5464 C 502.78 -3.42434 -0.579314 0
M  V30 5465 C 501.734 -4.27499 0.20712 0
M  V30 5466 C 501.06 -5.29349 -0.754547 0
M  V30 5467 C 502.36 -5.02758 1.41533 0
M  V30 5468 H 504.054 -2.79418 1.07545 0
M  V30 5469 H 501.6 -1.34338 0.518593 0
M  V30 5470 H 503.553 -4.0976 -0.983612 0
M  V30 5471 H 502.277 -2.93717 -1.4282 0
M  V30 5472 H 500.936 -3.61776 0.592787 0
M  V30 5473 H 500.584 -4.76895 -1.59939 0
M  V30 5474 H 500.284 -5.8714 -0.232561 0
M  V30 5475 H 501.808 -5.99544 -1.1567 0
M  V30 5476 H 503.222 -5.62938 1.08504 0
M  V30 5477 H 501.619 -5.70123 1.87296 0
M  V30 5478 H 502.689 -4.32451 2.1935 0
M  V30 5479 N 504.032 -0.577932 -1.46621 0
M  V30 5480 C 504.942 0.160651 -2.34049 0
M  V30 5481 C 505.958 0.890911 -1.49462 0
M  V30 5482 O 507.134 0.855166 -1.82343 0
M  V30 5483 C 504.199 1.16447 -3.26559 0
M  V30 5484 C 503.26 0.4394 -4.27045 0
M  V30 5485 C 502.493 1.3954 -5.15135 0
M  V30 5486 O 502.716 2.63162 -5.06065 0
M  V30 5487 O 501.65 0.908585 -5.95003 0
M  V30 5488 H 505.476 -0.557057 -2.98547 0
M  V30 5489 H 503.061 -0.338369 -1.45518 0
M  V30 5490 H 504.943 1.7434 -3.83645 0
M  V30 5491 H 503.618 1.86373 -2.64663 0
M  V30 5492 H 502.525 -0.181247 -3.73661 0
M  V30 5493 H 503.858 -0.218799 -4.91713 0
M  V30 5494 N 505.51 1.54411 -0.315457 0
M  V30 5495 C 506.758 2.00023 0.288971 0
M  V30 5496 C 507.079 1.20529 1.5329 0
M  V30 5497 O 506.349 0.304986 1.93511 0
M  V30 5498 H 504.929 0.738891 0.109766 0
M  V30 5499 H 507.591 1.90094 -0.430129 0
M  V30 5500 H 506.687 3.07198 0.550999 0
M  V30 5501 N 506.988 0.0434614 1.5754 0
M  V30 5502 C 507.951 -0.918696 2.09982 0
M  V30 5503 C 508.951 -1.24488 1.01781 0
M  V30 5504 O 510.141 -1.18284 1.27885 0
M  V30 5505 C 507.273 -2.23093 2.57764 0
M  V30 5506 H 508.466 -0.464229 2.96285 0
M  V30 5507 H 506.019 -0.204818 1.54952 0
M  V30 5508 H 506.754 -2.73137 1.74832 0
M  V30 5509 H 506.539 -2.00724 3.36827 0
M  V30 5510 H 508.029 -2.92028 2.98512 0
M  V30 5511 N 508.466 -1.55915 -0.229846 0
M  V30 5512 C 509.413 -1.91734 -1.28478 0
M  V30 5513 C 510.383 -0.773539 -1.46988 0
M  V30 5514 O 511.568 -1.02871 -1.60693 0
M  V30 5515 C 508.708 -2.23224 -2.63182 0
M  V30 5516 C 507.821 -3.50497 -2.52539 0
M  V30 5517 C 506.956 -3.71474 -3.79711 0
M  V30 5518 C 505.995 -4.92289 -3.63755 0
M  V30 5519 N 505.132 -5.09698 -4.82858 0
M  V30 5520 H 509.972 -2.81692 -0.972308 0
M  V30 5521 H 507.509 -1.39429 -0.468815 0
M  V30 5522 H 509.467 -2.3949 -3.41614 0
M  V30 5523 H 508.097 -1.36451 -2.92542 0
M  V30 5524 H 507.149 -3.4247 -1.65585 0
M  V30 5525 H 508.461 -4.39079 -2.36666 0
M  V30 5526 H 507.615 -3.87791 -4.66586 0
M  V30 5527 H 506.354 -2.81157 -3.985 0
M  V30 5528 H 505.359 -4.7593 -2.75264 0
M  V30 5529 H 506.584 -5.84083 -3.46445 0
M  V30 5530 H 504.53 -4.22322 -5.01976 0
M  V30 5531 H 504.447 -5.92399 -4.69681 0
M  V30 5532 H 505.715 -5.30443 -5.71183 0
M  V30 5533 N 509.944 0.496216 -1.49584 0
M  V30 5534 C 510.854 1.62352 -1.69349 0
M  V30 5535 C 511.87 1.64184 -0.576147 0
M  V30 5536 O 513.046 1.82517 -0.85144 0
M  V30 5537 C 510.111 2.98698 -1.76013 0
M  V30 5538 C 509.172 3.07454 -2.99617 0
M  V30 5539 C 508.405 4.37296 -3.05953 0
M  V30 5540 O 508.628 5.2637 -2.19752 0
M  V30 5541 O 507.562 4.51124 -3.9846 0
M  V30 5542 H 511.388 1.48606 -2.64859 0
M  V30 5543 H 508.973 0.673022 -1.33382 0
M  V30 5544 H 510.855 3.79725 -1.82721 0
M  V30 5545 H 509.53 3.12696 -0.836828 0
M  V30 5546 H 508.437 2.25597 -2.98424 0
M  V30 5547 H 509.77 2.98385 -3.91443 0
M  V30 5548 N 511.423 1.38739 0.74761 0
M  V30 5549 C 512.653 1.3832 1.53464 0
M  V30 5550 C 513.061 -0.0273464 1.8918 0
M  V30 5551 O 512.404 -1.00588 1.53713 0
M  V30 5552 C 512.466 2.18007 2.85855 0
M  V30 5553 C 512.13 3.66762 2.72644 0
M  V30 5554 C 513.127 4.60124 2.42037 0
M  V30 5555 C 510.812 4.10193 2.89909 0
M  V30 5556 C 512.806 5.94897 2.28859 0
M  V30 5557 C 510.493 5.45045 2.7635 0
M  V30 5558 C 511.491 6.37211 2.45869 0
M  V30 5559 O 511.179 7.69581 2.3238 0
M  V30 5560 H 510.911 0.474718 0.481268 0
M  V30 5561 H 513.465 1.83012 0.932518 0
M  V30 5562 H 511.695 1.68043 3.48279 0
M  V30 5563 H 513.384 2.09921 3.47402 0
M  V30 5564 H 514.15 4.27874 2.28361 0
M  V30 5565 H 510.029 3.38797 3.1263 0
M  V30 5566 H 513.573 6.66802 2.04989 0
M  V30 5567 H 509.47 5.76889 2.89601 0
M  V30 5568 H 510.238 7.80169 2.47546 0
M  V30 5569 N 512.901 -0.976442 1.23707 0
M  V30 5570 C 513.864 -2.0511 1.02287 0
M  V30 5571 C 514.864 -1.60791 -0.0167195 0
M  V30 5572 O 516.054 -1.72761 0.223408 0
M  V30 5573 C 513.186 -3.36458 0.548507 0
M  V30 5574 H 514.379 -2.25545 1.9766 0
M  V30 5575 H 511.932 -1.15042 1.05806 0
M  V30 5576 H 512.667 -3.21713 -0.408818 0
M  V30 5577 H 512.452 -3.69967 1.29874 0
M  V30 5578 H 513.942 -4.15489 0.419406 0
M  V30 5579 N 514.379 -1.04941 -1.1758 0
M  V30 5580 C 515.312 -0.592518 -2.20373 0
M  V30 5581 C 516.29 0.377561 -1.58156 0
M  V30 5582 O 517.474 0.28978 -1.86259 0
M  V30 5583 C 514.601 0.133215 -3.38438 0
M  V30 5584 C 513.647 -0.791484 -4.19092 0
M  V30 5585 S 514.48 -2.27925 -4.84572 0
M  V30 5586 C 515.636 -1.56462 -6.06028 0
M  V30 5587 H 515.869 -1.46342 -2.58788 0
M  V30 5588 H 513.402 -0.861148 -1.28155 0
M  V30 5589 H 515.36 0.545746 -4.06856 0
M  V30 5590 H 514.021 0.980124 -2.98416 0
M  V30 5591 H 513.214 -0.230039 -5.03475 0
M  V30 5592 H 512.816 -1.14326 -3.56098 0
M  V30 5593 H 515.108 -0.862539 -6.71987 0
M  V30 5594 H 516.051 -2.38583 -6.66696 0
M  V30 5595 H 516.459 -1.05313 -5.5459 0
M  V30 5596 N 515.857 1.33968 -0.830081 0
M  V30 5597 C 516.787 2.31911 -0.271911 0
M  V30 5598 C 517.768 1.58571 0.61556 0
M  V30 5599 O 518.953 1.86514 0.540946 0
M  V30 5600 C 516.083 3.42737 0.561146 0
M  V30 5601 C 515.037 4.27383 -0.229789 0
M  V30 5602 C 514.363 5.29742 0.726463 0
M  V30 5603 C 515.663 5.02 -1.44197 0
M  V30 5604 H 517.357 2.78844 -1.09025 0
M  V30 5605 H 514.903 1.34061 -0.52571 0
M  V30 5606 H 516.856 4.10276 0.961867 0
M  V30 5607 H 515.58 2.94471 1.41261 0
M  V30 5608 H 514.239 3.61456 -0.611964 0
M  V30 5609 H 513.887 4.77736 1.57408 0
M  V30 5610 H 513.587 5.87255 0.20142 0
M  V30 5611 H 515.111 6.00149 1.12489 0
M  V30 5612 H 516.525 5.62355 -1.11488 0
M  V30 5613 H 514.922 5.69122 -1.90317 0
M  V30 5614 H 515.992 4.31281 -2.2164 0
M  V30 5615 N 517.335 0.585699 1.46312 0
M  V30 5616 C 518.285 -0.166813 2.27389 0
M  V30 5617 C 519.269 -0.859076 1.36047 0
M  V30 5618 O 520.461 -0.752678 1.60199 0
M  V30 5619 C 517.59 -1.17791 3.2246 0
M  V30 5620 C 516.676 -0.487605 4.21288 0
M  V30 5621 N 517.067 0.45849 5.03718 0
M  V30 5622 C 515.365 -0.737971 4.39852 0
M  V30 5623 C 516.066 0.862213 5.75275 0
M  V30 5624 N 515.042 0.210707 5.43191 0
M  V30 5625 H 518.844 0.560167 2.88512 0
M  V30 5626 H 516.358 0.407715 1.57199 0
M  V30 5627 H 518.355 -1.73122 3.79255 0
M  V30 5628 H 517.015 -1.90568 2.62896 0
M  V30 5629 H 518.026 0.834163 5.11138 0
M  V30 5630 H 514.703 -1.45209 3.91434 0
M  V30 5631 H 516.093 1.64128 6.51546 0
M  V30 5632 N 518.813 -1.54241 0.323641 0
M  V30 5633 C 519.761 -2.25813 -0.557804 0
M  V30 5634 C 520.755 -1.27225 -1.11849 0
M  V30 5635 O 521.961 -1.45001 -1.06652 0
M  V30 5636 H 518.336 -0.72532 -0.198532 0
M  V30 5637 H 520.307 -2.98322 0.0681112 0
M  V30 5638 C 519.056 -3.02913 -1.70701 0
M  V30 5639 H 518.379 -3.78593 -1.28482 0
M  V30 5640 H 519.819 -3.56238 -2.29935 0
M  V30 5641 C 518.278 -2.11217 -2.62467 0
M  V30 5642 O 518.808 -1.69508 -3.64184 0
M  V30 5643 N 517.014 -1.76704 -2.30703 0
M  V30 5644 H 516.561 -2.1082 -1.48029 0
M  V30 5645 H 516.519 -1.15631 -2.92364 0
M  V30 5646 N 520.291 -0.0518155 -1.57515 0
M  V30 5647 C 521.702 0.483787 -1.80323 0
M  V30 5648 C 522.053 1.70879 -0.964099 0
M  V30 5649 O 521.178 2.15643 -0.180872 0
M  V30 5650 C 521.773 0.884459 -3.27052 0
M  V30 5651 C 520.332 1.36504 -3.50776 0
M  V30 5652 C 519.479 0.340539 -2.75201 0
M  V30 5653 H 522.43 -0.277691 -1.56252 0
M  V30 5654 H 522.451 1.74733 -3.38007 0
M  V30 5655 H 521.963 -0.00731093 -3.88099 0
M  V30 5656 H 520.064 2.27598 -2.95009 0
M  V30 5657 H 520.177 1.35675 -4.59488 0
M  V30 5658 H 518.541 0.81356 -2.41357 0
M  V30 5659 H 519.324 -0.543156 -3.38976 0
M  V30 5660 N 521.769 1.56035 0.221574 0
M  V30 5661 C 523.185 1.49026 0.571271 0
M  V30 5662 C 523.385 0.746912 1.87146 0
M  V30 5663 O 522.441 0.286566 2.50869 0
M  V30 5664 C 523.754 2.93579 0.650522 0
M  V30 5665 C 525.302 3.04099 0.741151 0
M  V30 5666 C 525.777 4.5001 0.851747 0
M  V30 5667 N 527.268 4.54053 0.915968 0
M  V30 5668 C 528.003 5.64232 1.02125 0
M  V30 5669 N 527.499 6.84164 1.09049 0
M  V30 5670 N 529.292 5.52084 1.05639 0
M  V30 5671 H 521.443 2.02791 -0.63162 0
M  V30 5672 H 523.706 0.921736 -0.221602 0
M  V30 5673 H 523.412 3.50912 -0.235253 0
M  V30 5674 H 523.286 3.45476 1.51413 0
M  V30 5675 H 525.673 2.4683 1.61737 0
M  V30 5676 H 525.754 2.55371 -0.148128 0
M  V30 5677 H 525.398 5.07896 -0.0200117 0
M  V30 5678 H 525.328 4.96444 1.75644 0
M  V30 5679 H 527.819 3.67683 0.872782 0
M  V30 5680 H 528.132 7.63883 1.1706 0
M  V30 5681 H 526.477 6.86875 1.05962 0
M  V30 5682 H 529.668 4.57317 0.998953 0
M  V30 5683 H 529.841 6.37983 1.13498 0
M  V30 5684 N 523.247 -0.488276 1.49845 0
M  V30 5685 C 524.472 -1.26997 1.63971 0
M  V30 5686 C 524.897 -1.85427 0.315994 0
M  V30 5687 O 524.255 -1.66475 -0.718032 0
M  V30 5688 C 524.303 -2.36689 2.72049 0
M  V30 5689 O 523.407 -3.40882 2.32107 0
M  V30 5690 H 522.748 -0.374376 0.548396 0
M  V30 5691 H 525.278 -0.583104 1.96115 0
M  V30 5692 H 525.288 -2.82262 2.94605 0
M  V30 5693 H 523.963 -1.93529 3.68129 0
M  V30 5694 H 522.54 -3.01139 2.19931 0
M  V30 5695 N 524.725 -1.39134 -0.740242 0
M  V30 5696 C 525.672 -1.37434 -1.8542 0
M  V30 5697 C 526.642 -0.234822 -1.64432 0
M  V30 5698 O 527.827 -0.429125 -1.85912 0
M  V30 5699 C 524.967 -1.21844 -3.22875 0
M  V30 5700 C 524.08 -2.45296 -3.55603 0
M  V30 5701 C 523.215 -2.22334 -4.82432 0
M  V30 5702 C 522.254 -3.41488 -5.07988 0
M  V30 5703 N 521.391 -3.17877 -6.26018 0
M  V30 5704 H 526.231 -2.3266 -1.86207 0
M  V30 5705 H 523.768 -1.15578 -0.909946 0
M  V30 5706 H 525.726 -1.10818 -4.02213 0
M  V30 5707 H 524.356 -0.3025 -3.21379 0
M  V30 5708 H 523.408 -2.66945 -2.71006 0
M  V30 5709 H 524.72 -3.34063 -3.7041 0
M  V30 5710 H 523.874 -2.0852 -5.69741 0
M  V30 5711 H 522.613 -1.30954 -4.6979 0
M  V30 5712 H 521.618 -3.55807 -4.19144 0
M  V30 5713 H 522.843 -4.33763 -5.22519 0
M  V30 5714 H 520.789 -2.29156 -6.14673 0
M  V30 5715 H 520.706 -4.00198 -6.41387 0
M  V30 5716 H 521.974 -3.07746 -7.16179 0
M  V30 5717 N 526.204 0.969867 -1.24223 0
M  V30 5718 C 527.444 1.72754 -1.0925 0
M  V30 5719 C 527.808 1.88541 0.362787 0
M  V30 5720 O 529.009 2.61217 0.633969 0
M  V30 5721 C 527.28 3.08204 -1.80957 0
M  V30 5722 S 528.839 3.99418 -1.81688 0
M  V30 5723 H 525.657 0.593981 -0.390778 0
M  V30 5724 H 528.259 1.15792 -1.5752 0
M  V30 5725 H 526.963 2.94372 -2.85961 0
M  V30 5726 H 526.494 3.70232 -1.33012 0
M  V30 5727 H 528.509 4.8828 -0.883001 0
M  V30 5728 N 527.682 1.05563 1.17022 0
M  V30 5729 C 528.907 0.788437 1.91829 0
M  V30 5730 C 529.332 -0.650356 1.76499 0
M  V30 5731 O 528.69 -1.45229 1.08527 0
M  V30 5732 C 528.738 1.1786 3.40795 0
M  V30 5733 O 527.842 0.312965 4.11211 0
M  V30 5734 H 527.183 0.288794 0.597908 0
M  V30 5735 H 529.713 1.40948 1.48307 0
M  V30 5736 H 529.723 1.14697 3.91546 0
M  V30 5737 H 528.398 2.22666 3.51273 0
M  V30 5738 H 526.975 0.405515 3.70689 0
M  V30 5739 N 529.16 -1.33526 0.837174 0
M  V30 5740 C 530.408 -1.97446 0.431211 0
M  V30 5741 C 530.729 -1.6665 -1.01255 0
M  V30 5742 O 529.999 -0.964559 -1.70508 0
M  V30 5743 H 528.579 -0.73043 0.156463 0
M  V30 5744 H 531.241 -1.62918 1.06976 0
M  V30 5745 H 530.337 -3.07001 0.561877 0
M  V30 5746 N 530.638 -0.59345 -1.46 0
M  V30 5747 C 532.054 -0.255965 -1.57534 0
M  V30 5748 C 532.254 1.24167 -1.58697 0
M  V30 5749 O 531.31 2.02398 -1.50968 0
M  V30 5750 C 532.623 -0.91466 -2.86451 0
M  V30 5751 C 534.171 -0.889253 -3.00102 0
M  V30 5752 C 534.646 -1.52769 -4.3177 0
M  V30 5753 N 536.137 -1.49253 -4.38495 0
M  V30 5754 C 536.872 -1.9558 -5.39014 0
M  V30 5755 N 536.368 -2.49929 -6.46148 0
M  V30 5756 N 538.161 -1.86432 -5.30282 0
M  V30 5757 H 530.312 -1.56604 -1.43489 0
M  V30 5758 H 532.575 -0.655207 -0.685133 0
M  V30 5759 H 532.281 -1.96861 -2.91442 0
M  V30 5760 H 532.155 -0.429356 -3.74748 0
M  V30 5761 H 534.542 0.156111 -2.94687 0
M  V30 5762 H 534.623 -1.41268 -2.13253 0
M  V30 5763 H 534.267 -2.57231 -4.37944 0
M  V30 5764 H 534.197 -0.979398 -5.17412 0
M  V30 5765 H 536.688 -1.09536 -3.61677 0
M  V30 5766 H 537.001 -2.83109 -7.19075 0
M  V30 5767 H 535.346 -2.53961 -6.46938 0
M  V30 5768 H 538.537 -1.43722 -4.4549 0
M  V30 5769 H 538.71 -2.22852 -6.08474 0
M  V30 5770 N 532.116 1.54067 -0.331816 0
M  V30 5771 C 533.532 1.59587 0.0205388 0
M  V30 5772 C 533.732 1.34813 1.49759 0
M  V30 5773 O 532.788 1.13661 2.25471 0
M  V30 5774 C 534.101 2.97959 -0.405103 0
M  V30 5775 C 535.649 3.10964 -0.356454 0
M  V30 5776 C 536.124 4.51694 -0.757384 0
M  V30 5777 N 537.615 4.57709 -0.71111 0
M  V30 5778 C 538.35 5.64729 -0.993427 0
M  V30 5779 N 537.846 6.79652 -1.3433 0
M  V30 5780 N 539.639 5.54546 -0.918442 0
M  V30 5781 H 531.79 1.68426 -1.29407 0
M  V30 5782 H 534.053 0.78819 -0.526745 0
M  V30 5783 H 533.759 3.21115 -1.43451 0
M  V30 5784 H 533.633 3.76524 0.225692 0
M  V30 5785 H 536.02 2.87538 0.663763 0
M  V30 5786 H 536.101 2.34484 -1.02229 0
M  V30 5787 H 535.745 4.75853 -1.77555 0
M  V30 5788 H 535.675 5.26555 -0.0691444 0
M  V30 5789 H 538.166 3.75176 -0.452883 0
M  V30 5790 H 538.479 7.57221 -1.54388 0
M  V30 5791 H 536.824 6.81128 -1.38164 0
M  V30 5792 H 540.015 4.63641 -0.644536 0
M  V30 5793 H 540.188 6.37861 -1.14181 0
M  V30 5794 N 533.594 0.0601682 1.57485 0
M  V30 5795 C 535.01 -0.296422 1.56823 0
M  V30 5796 C 535.21 -1.70831 1.0686 0
M  V30 5797 O 534.266 -2.4174 0.729245 0
M  V30 5798 C 535.579 -0.116681 3.00474 0
M  V30 5799 C 537.127 -0.187103 3.1244 0
M  V30 5800 C 537.602 -0.035783 4.57986 0
M  V30 5801 N 539.093 -0.0917676 4.63109 0
M  V30 5802 C 539.828 0.00107251 5.734 0
M  V30 5803 N 539.324 0.146773 6.92645 0
M  V30 5804 N 541.117 -0.0551577 5.62073 0
M  V30 5805 H 533.268 0.983055 1.88281 0
M  V30 5806 H 535.531 0.382386 0.867459 0
M  V30 5807 H 535.237 0.85712 3.41096 0
M  V30 5808 H 535.111 -0.873929 3.66936 0
M  V30 5809 H 537.498 -1.15138 2.71712 0
M  V30 5810 H 537.579 0.601052 2.48638 0
M  V30 5811 H 537.223 0.925212 4.99402 0
M  V30 5812 H 537.153 -0.843196 5.19806 0
M  V30 5813 H 539.644 -0.203261 3.77353 0
M  V30 5814 H 539.957 0.210076 7.72514 0
M  V30 5815 H 538.302 0.181979 6.94762 0
M  V30 5816 H 541.493 -0.167605 4.678 0
M  V30 5817 H 541.666 0.020652 6.47997 0
M  V30 5818 N 535.072 -1.5615 -0.213296 0
M  V30 5819 C 536.488 -1.49327 -0.56336 0
M  V30 5820 C 536.688 -0.756826 -1.86747 0
M  V30 5821 O 535.744 -0.299866 -2.50713 0
M  V30 5822 C 537.057 -2.9392 -0.634944 0
M  V30 5823 C 538.605 -3.04487 -0.725013 0
M  V30 5824 C 539.08 -4.50456 -0.82787 0
M  V30 5825 N 540.571 -4.54533 -0.891876 0
M  V30 5826 C 541.306 -5.64766 -0.991315 0
M  V30 5827 N 540.802 -6.84733 -1.05419 0
M  V30 5828 N 542.595 -5.52637 -1.02709 0
M  V30 5829 H 534.746 -2.02453 0.642366 0
M  V30 5830 H 537.009 -0.920548 0.226487 0
M  V30 5831 H 536.715 -3.50783 0.253859 0
M  V30 5832 H 536.589 -3.46274 -1.49579 0
M  V30 5833 H 538.976 -2.47685 -1.60425 0
M  V30 5834 H 539.057 -2.55289 0.161669 0
M  V30 5835 H 538.701 -5.07878 0.0469464 0
M  V30 5836 H 538.631 -4.97369 -1.73009 0
M  V30 5837 H 541.122 -3.68141 -0.85327 0
M  V30 5838 H 541.435 -7.64493 -1.13007 0
M  V30 5839 H 539.78 -6.87427 -1.02318 0
M  V30 5840 H 542.971 -4.5784 -0.974687 0
M  V30 5841 H 543.144 -6.38576 -1.10113 0
M  V30 5842 N 536.55 0.480323 -1.50102 0
M  V30 5843 C 537.966 0.813295 -1.37323 0
M  V30 5844 C 538.166 1.97027 -0.422206 0
M  V30 5845 O 537.222 2.5212 0.138563 0
M  V30 5846 C 538.535 1.13404 -2.78496 0
M  V30 5847 C 540.083 1.24104 -2.87345 0
M  V30 5848 C 540.558 1.59497 -4.29331 0
M  V30 5849 N 542.049 1.66507 -4.32238 0
M  V30 5850 C 542.784 1.95378 -5.39087 0
M  V30 5851 N 542.28 2.22333 -6.56155 0
M  V30 5852 N 544.073 1.96803 -5.26522 0
M  V30 5853 H 536.224 -0.282291 -2.10516 0
M  V30 5854 H 538.487 -0.063752 -0.945854 0
M  V30 5855 H 538.193 0.357064 -3.49883 0
M  V30 5856 H 538.067 2.07251 -3.15162 0
M  V30 5857 H 540.454 2.00871 -2.16183 0
M  V30 5858 H 540.535 0.282593 -2.54234 0
M  V30 5859 H 540.179 0.832736 -5.01027 0
M  V30 5860 H 540.109 2.56477 -4.59921 0
M  V30 5861 H 542.6 1.47753 -3.47818 0
M  V30 5862 H 542.913 2.43611 -7.33399 0
M  V30 5863 H 541.258 2.19745 -6.59346 0
M  V30 5864 H 544.449 1.75235 -4.34062 0
M  V30 5865 H 544.622 2.18969 -6.09883 0
M  V30 5866 N 538.028 1.39524 0.732853 0
M  V30 5867 C 538.978 1.34905 1.83806 0
M  V30 5868 C 539.962 0.229546 1.59254 0
M  V30 5869 O 541.154 0.467255 1.70721 0
M  V30 5870 C 538.283 1.19699 3.21756 0
M  V30 5871 C 537.369 2.36359 3.5213 0
M  V30 5872 N 537.76 3.61834 3.53426 0
M  V30 5873 C 536.058 2.29363 3.82503 0
M  V30 5874 C 536.759 4.38992 3.81655 0
M  V30 5875 N 535.735 3.68606 3.99538 0
M  V30 5876 H 539.537 2.29882 1.83116 0
M  V30 5877 H 537.051 1.33051 0.931194 0
M  V30 5878 H 539.048 1.14472 4.00876 0
M  V30 5879 H 537.708 0.256739 3.23683 0
M  V30 5880 H 538.719 3.95228 3.34686 0
M  V30 5881 H 535.396 1.43612 3.92023 0
M  V30 5882 H 536.786 5.47763 3.89108 0
M  V30 5883 N 539.506 -0.963266 1.24736 0
M  V30 5884 C 540.456 -2.0438 1.01058 0
M  V30 5885 C 541.44 -1.60824 -0.0495354 0
M  V30 5886 O 542.632 -1.76232 0.164741 0
M  V30 5887 C 539.761 -3.37617 0.622067 0
M  V30 5888 C 538.847 -3.87722 1.7185 0
M  V30 5889 N 539.238 -4.10715 2.95207 0
M  V30 5890 C 537.536 -4.16426 1.59703 0
M  V30 5891 C 538.237 -4.51872 3.66315 0
M  V30 5892 N 537.213 -4.57302 2.93897 0
M  V30 5893 H 541.015 -2.20138 1.94721 0
M  V30 5894 H 538.529 -1.14741 1.14927 0
M  V30 5895 H 540.526 -4.14638 0.43366 0
M  V30 5896 H 539.186 -3.23242 -0.307327 0
M  V30 5897 H 540.197 -3.98037 3.31341 0
M  V30 5898 H 536.874 -4.10962 0.73598 0
M  V30 5899 H 538.264 -4.78037 4.72155 0
M  V30 5900 N 540.985 -1.06182 -1.16461 0
M  V30 5901 C 542.234 -0.772927 -1.86303 0
M  V30 5902 C 542.547 0.703187 -1.82523 0
M  V30 5903 O 543.753 1.10641 -2.47933 0
M  V30 5904 C 542.209 -1.33249 -3.34324 0
M  V30 5905 C 541.817 -2.83876 -3.46581 0
M  V30 5906 C 543.561 -1.12108 -4.09429 0
M  V30 5907 C 541.468 -3.33082 -4.88682 0
M  V30 5908 H 540.398 -0.285452 -0.697878 0
M  V30 5909 H 543.049 -1.28039 -1.31447 0
M  V30 5910 H 541.431 -0.7528 -3.88779 0
M  V30 5911 H 542.605 -3.47786 -3.02293 0
M  V30 5912 H 540.92 -3.03671 -2.84909 0
M  V30 5913 H 543.517 -1.46361 -5.14279 0
M  V30 5914 H 543.86 -0.0593832 -4.16258 0
M  V30 5915 H 544.393 -1.6665 -3.6121 0
M  V30 5916 H 541.132 -4.38726 -4.87032 0
M  V30 5917 H 540.652 -2.73919 -5.33599 0
M  V30 5918 H 542.331 -3.28344 -5.57494 0
M  V30 5919 N 542.463 1.3308 -0.844243 0
M  V30 5920 C 543.709 1.97898 -0.443206 0
M  V30 5921 C 544.042 1.66699 0.99625 0
M  V30 5922 O 543.317 0.949704 1.69738 0
M  V30 5923 C 543.6 3.53801 -0.670606 0
M  V30 5924 C 543.453 3.94667 -2.15772 0
M  V30 5925 C 544.772 4.39936 -0.120226 0
M  V30 5926 H 541.891 0.718861 -0.162504 0
M  V30 5927 H 544.533 1.57633 -1.06075 0
M  V30 5928 H 542.683 3.88229 -0.14496 0
M  V30 5929 H 544.355 3.70469 -2.74865 0
M  V30 5930 H 542.598 3.44203 -2.6402 0
M  V30 5931 H 543.269 5.03275 -2.26757 0
M  V30 5932 H 545.745 4.12183 -0.5696 0
M  V30 5933 H 544.621 5.4803 -0.308984 0
M  V30 5934 H 544.882 4.31184 0.976347 0
M  V30 5935 N 543.941 0.601185 1.45683 0
M  V30 5936 C 545.166 0.0982245 2.07167 0
M  V30 5937 C 545.591 -1.20546 1.44396 0
M  V30 5938 O 544.949 -1.73247 0.534347 0
M  V30 5939 C 544.997 -0.0346976 3.60583 0
M  V30 5940 O 544.101 -1.08657 3.97828 0
M  V30 5941 H 543.442 0.0711618 0.660176 0
M  V30 5942 H 545.972 0.829376 1.87036 0
M  V30 5943 H 545.982 -0.234969 4.07323 0
M  V30 5944 H 544.657 0.917265 4.05659 0
M  V30 5945 H 543.234 -0.863275 3.6277 0
M  V30 5946 N 545.419 -1.53889 0.339982 0
M  V30 5947 C 546.382 -2.23547 -0.50592 0
M  V30 5948 C 547.382 -1.23445 -1.03044 0
M  V30 5949 O 548.572 -1.47909 -0.920253 0
M  V30 5950 C 545.704 -2.95234 -1.7044 0
M  V30 5951 H 546.897 -2.99722 0.103247 0
M  V30 5952 H 544.45 -1.56033 0.0912804 0
M  V30 5953 H 545.185 -2.23236 -2.35236 0
M  V30 5954 H 544.97 -3.68654 -1.33553 0
M  V30 5955 H 546.46 -3.48258 -2.30447 0
M  V30 5956 N 546.897 -0.0685191 -1.57451 0
M  V30 5957 C 548.122 0.613919 -1.98106 0
M  V30 5958 C 548.547 1.62551 -0.946501 0
M  V30 5959 O 547.905 1.81085 0.0882824 0
M  V30 5960 C 547.953 1.26189 -3.378 0
M  V30 5961 O 547.057 2.37773 -3.36954 0
M  V30 5962 H 546.398 0.158163 -0.644888 0
M  V30 5963 H 548.928 -0.142063 -2.04106 0
M  V30 5964 H 548.938 1.60951 -3.74912 0
M  V30 5965 H 547.613 0.520625 -4.12629 0
M  V30 5966 H 546.19 2.04829 -3.11608 0
M  V30 5967 N 548.375 1.56261 0.205012 0
M  V30 5968 C 549.615 1.81823 0.933806 0
M  V30 5969 C 549.979 0.644534 1.80858 0
M  V30 5970 O 551.18 0.779819 2.5724 0
M  V30 5971 C 549.451 3.12362 1.7368 0
M  V30 5972 S 551.01 3.59296 2.51897 0
M  V30 5973 H 547.828 0.638209 0.313386 0
M  V30 5974 H 550.43 1.94495 0.198001 0
M  V30 5975 H 549.134 3.95809 1.08459 0
M  V30 5976 H 548.665 3.02542 2.5146 0
M  V30 5977 H 550.68 3.23945 3.75864 0
M  V30 5978 N 549.853 -0.472356 1.50355 0
M  V30 5979 C 551.078 -1.25251 1.65309 0
M  V30 5980 C 551.503 -1.85081 0.335643 0
M  V30 5981 O 550.861 -1.67227 -0.700335 0
M  V30 5982 C 550.909 -2.3379 2.74544 0
M  V30 5983 O 550.013 -3.38401 2.35709 0
M  V30 5984 H 549.354 -0.368539 0.552336 0
M  V30 5985 H 551.884 -0.562271 1.96722 0
M  V30 5986 H 551.894 -2.79121 2.97583 0
M  V30 5987 H 550.569 -1.89614 3.70161 0
M  V30 5988 H 549.146 -2.9879 2.23112 0
M  V30 5989 N 551.331 -1.39911 -0.725443 0
M  V30 5990 C 552.279 -1.39552 -1.86086 0
M  V30 5991 C 553.273 -0.277334 -1.67114 0
M  V30 5992 O 554.479 -0.447865 -1.74339 0
M  V30 5993 H 550.854 -0.435993 -0.612711 0
M  V30 5994 H 552.825 -2.35305 -1.83505 0
M  V30 5995 C 551.574 -1.26529 -3.2386 0
M  V30 5996 H 550.897 -2.11845 -3.3906 0
M  V30 5997 H 552.337 -1.30336 -4.03471 0
M  V30 5998 C 550.796 0.0254168 -3.3689 0
M  V30 5999 O 551.326 0.992048 -3.89257 0
M  V30 6000 N 549.532 0.0916528 -2.90455 0
M  V30 6001 H 549.079 -0.695675 -2.48028 0
M  V30 6002 H 549.037 0.954745 -2.99553 0
M  V30 6003 N 552.809 0.956637 -1.25245 0
M  V30 6004 C 553.772 2.03457 -1.05537 0
M  V30 6005 C 554.772 1.60798 -0.00886317 0
M  V30 6006 O 555.962 1.72384 -0.250865 0
M  V30 6007 C 553.094 3.35543 -0.601965 0
M  V30 6008 H 554.287 2.22372 -2.01223 0
M  V30 6009 H 551.84 1.13344 -1.07623 0
M  V30 6010 H 552.575 3.22323 0.357584 0
M  V30 6011 H 552.36 3.67854 -1.35743 0
M  V30 6012 H 553.85 4.14769 -0.485454 0
M  V30 6013 N 554.287 1.06798 1.15896 0
M  V30 6014 C 555.512 0.808739 1.90982 0
M  V30 6015 C 555.937 -0.6316 1.77179 0
M  V30 6016 O 555.295 -1.4407 1.10061 0
M  V30 6017 C 555.343 1.21468 3.39526 0
M  V30 6018 O 554.447 0.356562 4.10856 0
M  V30 6019 H 553.788 0.29512 0.594811 0
M  V30 6020 H 556.318 1.42513 1.46804 0
M  V30 6021 H 556.328 1.18844 3.90308 0
M  V30 6022 H 555.003 2.26379 3.48891 0
M  V30 6023 H 553.58 0.444808 3.70238 0
M  V30 6024 N 555.766 -1.3263 0.851289 0
M  V30 6025 C 556.729 -2.27247 0.298541 0
M  V30 6026 C 557.729 -1.51467 -0.539847 0
M  V30 6027 O 558.919 -1.7061 -0.351843 0
M  V30 6028 C 556.051 -3.35964 -0.578004 0
M  V30 6029 H 557.244 -2.7765 1.13359 0
M  V30 6030 H 554.797 -1.43245 0.625354 0
M  V30 6031 H 555.532 -2.90823 -1.435 0
M  V30 6032 H 555.317 -3.92094 0.0220539 0
M  V30 6033 H 556.807 -4.06472 -0.957626 0
M  V30 6034 N 557.244 -0.608902 -1.45362 0
M  V30 6035 C 558.469 -0.10921 -2.07112 0
M  V30 6036 C 558.894 1.19779 -1.45033 0
M  V30 6037 O 558.252 1.72961 -0.543527 0
M  V30 6038 C 558.3 0.0155745 -3.60597 0
M  V30 6039 O 557.404 1.06546 -3.98399 0
M  V30 6040 H 556.745 -0.0746619 -0.659789 0
M  V30 6041 H 559.275 -0.839283 -1.86594 0
M  V30 6042 H 559.285 0.213364 -4.07442 0
M  V30 6043 H 557.96 -0.938765 -4.05167 0
M  V30 6044 H 556.537 0.844024 -3.63223 0
M  V30 6045 N 558.722 1.53707 -0.348139 0
M  V30 6046 C 559.685 2.23812 0.494058 0
M  V30 6047 C 560.685 1.23989 1.02388 0
M  V30 6048 O 561.875 1.48395 0.912396 0
M  V30 6049 C 559.007 2.96133 1.68872 0
M  V30 6050 H 560.2 2.99663 -0.119141 0
M  V30 6051 H 557.753 1.55983 -0.0995539 0
M  V30 6052 H 558.488 2.24481 2.34049 0
M  V30 6053 H 558.273 3.69357 1.31596 0
M  V30 6054 H 559.763 3.49475 2.28597 0
M  V30 6055 N 560.2 0.0768682 1.57412 0
M  V30 6056 C 561.446 -0.591961 1.93968 0
M  V30 6057 C 561.779 -1.68954 0.9575 0
M  V30 6058 O 561.054 -1.94496 -0.0124675 0
M  V30 6059 C 561.337 -1.16418 3.40762 0
M  V30 6060 C 561.19 -0.0728933 4.49741 0
M  V30 6061 C 562.509 -2.06814 3.88479 0
M  V30 6062 H 559.628 -0.213716 0.705333 0
M  V30 6063 H 562.27 0.14387 1.89455 0
M  V30 6064 H 560.42 -1.79128 3.4474 0
M  V30 6065 H 562.092 0.560446 4.57883 0
M  V30 6066 H 560.335 0.595859 4.29688 0
M  V30 6067 H 561.006 -0.513755 5.49604 0
M  V30 6068 H 563.482 -1.54033 3.8654 0
M  V30 6069 H 562.358 -2.43785 4.91793 0
M  V30 6070 H 562.619 -2.97844 3.26713 0
M  V30 6071 N 561.678 -1.56367 -0.196722 0
M  V30 6072 C 562.641 -1.93561 -1.22746 0
M  V30 6073 C 563.641 -0.816566 -1.38524 0
M  V30 6074 O 564.831 -1.084 -1.36363 0
M  V30 6075 C 561.963 -2.20823 -2.59712 0
M  V30 6076 H 563.156 -2.85774 -0.909586 0
M  V30 6077 H 560.709 -1.50032 -0.438174 0
M  V30 6078 H 561.444 -1.31243 -2.96557 0
M  V30 6079 H 561.229 -3.02368 -2.49632 0
M  V30 6080 H 562.719 -2.50608 -3.34044 0
M  V30 6081 N 563.156 0.464375 -1.50603 0
M  V30 6082 C 564.066 1.58723 -1.72754 0
M  V30 6083 C 565.082 1.62925 -0.610844 0
M  V30 6084 O 566.258 1.8067 -0.889963 0
M  V30 6085 C 563.323 2.94897 -1.82309 0
M  V30 6086 C 562.384 3.0103 -3.06071 0
M  V30 6087 C 561.617 4.30708 -3.1516 0
M  V30 6088 O 561.84 5.2159 -2.30868 0
M  V30 6089 O 560.774 4.42571 -4.0794 0
M  V30 6090 H 564.6 1.42954 -2.67951 0
M  V30 6091 H 562.185 0.644579 -1.3478 0
M  V30 6092 H 564.067 3.75764 -1.90735 0
M  V30 6093 H 562.742 3.10851 -0.902967 0
M  V30 6094 H 561.649 2.19217 -3.03142 0
M  V30 6095 H 562.982 2.90014 -3.97684 0
M  V30 6096 N 564.634 1.40294 0.718013 0
M  V30 6097 C 565.862 1.4175 1.50714 0
M  V30 6098 C 566.277 0.0165366 1.88793 0
M  V30 6099 O 565.634 -0.958942 1.55276 0
M  V30 6100 C 565.685 2.30598 2.784 0
M  V30 6101 O 565.406 3.6524 2.41932 0
M  V30 6102 C 566.907 2.4062 3.72313 0
M  V30 6103 H 564.127 0.483565 0.465194 0
M  V30 6104 H 566.671 1.84316 0.885889 0
M  V30 6105 H 564.826 1.91401 3.36815 0
M  V30 6106 H 565.24 4.12402 3.24076 0
M  V30 6107 H 566.714 3.07001 4.58753 0
M  V30 6108 H 567.191 1.4305 4.15251 0
M  V30 6109 H 567.797 2.80359 3.19811 0
M  V30 6110 N 566.112 -0.949982 1.2575 0
M  V30 6111 C 567.059 -2.04738 1.06541 0
M  V30 6112 C 568.029 -1.66078 -0.0268818 0
M  V30 6113 O 569.214 -1.90348 0.131196 0
M  V30 6114 C 566.354 -3.38027 0.695127 0
M  V30 6115 C 565.467 -3.89776 1.86276 0
M  V30 6116 C 564.602 -5.11411 1.4364 0
M  V30 6117 C 563.641 -5.554 2.57287 0
M  V30 6118 N 562.778 -6.68244 2.15395 0
M  V30 6119 H 567.618 -2.20502 2.00457 0
M  V30 6120 H 565.155 -1.0805 0.998178 0
M  V30 6121 H 567.113 -4.14641 0.461375 0
M  V30 6122 H 565.743 -3.22135 -0.207046 0
M  V30 6123 H 564.795 -3.0964 2.20969 0
M  V30 6124 H 566.107 -4.18368 2.71606 0
M  V30 6125 H 565.261 -5.95457 1.16257 0
M  V30 6126 H 564 -4.84545 0.553879 0
M  V30 6127 H 563.005 -4.69916 2.85409 0
M  V30 6128 H 564.23 -5.84272 3.46125 0
M  V30 6129 H 562.176 -6.43078 1.29565 0
M  V30 6130 H 562.093 -6.96377 2.94272 0
M  V30 6131 H 563.361 -7.55687 1.91201 0
M  V30 6132 N 567.59 -1.07411 -1.15328 0
M  V30 6133 C 568.5 -0.706438 -2.23711 0
M  V30 6134 C 569.516 0.282586 -1.7169 0
M  V30 6135 O 570.692 0.129066 -2.00986 0
M  V30 6136 C 567.757 -0.11048 -3.46524 0
M  V30 6137 C 566.818 -1.15282 -4.13532 0
M  V30 6138 C 566.051 -0.585205 -5.30482 0
M  V30 6139 O 566.274 0.598549 -5.67251 0
M  V30 6140 O 565.208 -1.33039 -5.87013 0
M  V30 6141 H 569.034 -1.61031 -2.57493 0
M  V30 6142 H 566.619 -0.847113 -1.23062 0
M  V30 6143 H 568.501 0.21957 -4.20828 0
M  V30 6144 H 567.176 0.766703 -3.14489 0
M  V30 6145 H 566.083 -1.53523 -3.41147 0
M  V30 6146 H 567.416 -2.00192 -4.49649 0
M  V30 6147 N 569.068 1.32177 -0.85831 0
M  V30 6148 C 570.316 1.96735 -0.462568 0
M  V30 6149 C 570.637 1.6824 0.985911 0
M  V30 6150 O 569.907 0.991564 1.68952 0
M  V30 6151 H 568.487 0.727849 -0.168064 0
M  V30 6152 H 571.149 1.61195 -1.09554 0
M  V30 6153 H 570.245 3.06068 -0.610647 0
M  V30 6154 N 570.547 0.616602 1.45037 0
M  V30 6155 C 571.824 0.0469086 1.95544 0
M  V30 6156 C 572.204 -1.42345 1.55888 0
M  V30 6157 O 571.552 -2.13055 0.825824 0
M  V30 6158 C 571.762 0.254489 3.48071 0
M  V30 6159 C 573.11 0.140025 4.24369 0
M  V30 6160 O 574.134 0.185084 3.55719 0
M  V30 6161 O 572.993 0.0327034 5.4649 0
M  V30 6162 H 570.087 -0.0306051 0.826433 0
M  V30 6163 H 572.633 0.687293 1.55159 0
M  V30 6164 H 571.405 1.27532 3.69934 0
M  V30 6165 H 571.028 -0.42073 3.95368 0
M  V30 6166 N 572.025 -1.5352 0.356285 0
M  V30 6167 C 573.25 -2.06007 -0.239961 0
M  V30 6168 C 573.675 -1.22872 -1.42422 0
M  V30 6169 O 573.033 -0.245516 -1.7963 0
M  V30 6170 C 573.081 -3.5522 -0.620587 0
M  V30 6171 O 572.185 -3.74864 -1.71902 0
M  V30 6172 H 571.526 -0.662961 -0.0371377 0
M  V30 6173 H 574.056 -1.98033 0.514194 0
M  V30 6174 H 574.066 -3.98081 -0.894197 0
M  V30 6175 H 572.741 -4.15175 0.245407 0
M  V30 6176 H 571.318 -3.43904 -1.44169 0
M  V30 6177 N 573.503 -0.0852151 -1.57369 0
M  V30 6178 C 574.78 0.622534 -1.85429 0
M  V30 6179 C 575.16 1.86962 -0.980229 0
M  V30 6180 O 574.508 2.28445 -0.0500219 0
M  V30 6181 C 574.718 0.947374 -3.35896 0
M  V30 6182 C 576.066 1.31509 -4.03721 0
M  V30 6183 O 577.09 1.03869 -3.40719 0
M  V30 6184 O 575.949 1.83231 -5.14868 0
M  V30 6185 H 573.043 0.310513 -0.766492 0
M  V30 6186 H 575.589 -0.117164 -1.69295 0
M  V30 6187 H 574.361 0.0622264 -3.91251 0
M  V30 6188 H 573.984 1.74338 -3.5734 0
M  V30 6189 N 574.981 1.5647 0.188427 0
M  V30 6190 C 576.397 1.50204 0.539532 0
M  V30 6191 C 576.597 0.78644 1.85519 0
M  V30 6192 O 575.653 0.339714 2.50204 0
M  V30 6193 C 576.966 2.94893 0.588103 0
M  V30 6194 C 578.514 3.05602 0.67648 0
M  V30 6195 C 578.989 4.51716 0.756101 0
M  V30 6196 N 580.48 4.55894 0.819451 0
M  V30 6197 C 581.215 5.66272 0.90134 0
M  V30 6198 N 580.711 6.86323 0.945118 0
M  V30 6199 N 582.504 5.54201 0.939043 0
M  V30 6200 H 574.655 2.01406 -0.674493 0
M  V30 6201 H 576.918 0.916828 -0.241103 0
M  V30 6202 H 576.624 3.50334 -0.309633 0
M  V30 6203 H 576.498 3.4861 1.44051 0
M  V30 6204 H 578.885 2.50206 1.56465 0
M  V30 6205 H 578.966 2.54999 -0.202262 0
M  V30 6206 H 578.61 5.07739 -0.12774 0
M  V30 6207 H 578.54 5.00058 1.65074 0
M  V30 6208 H 581.031 3.69452 0.794594 0
M  V30 6209 H 581.344 7.66194 1.0083 0
M  V30 6210 H 579.689 6.88968 0.913683 0
M  V30 6211 H 582.88 4.59333 0.901725 0
M  V30 6212 H 583.053 6.40247 0.999402 0
M  V30 6213 N 576.459 -0.456382 1.50847 0
M  V30 6214 C 577.736 -1.21739 1.53098 0
M  V30 6215 C 578.116 -2.09179 0.284132 0
M  V30 6216 O 577.464 -2.16466 -0.731773 0
M  V30 6217 C 577.674 -2.03573 2.83477 0
M  V30 6218 C 579.022 -2.61264 3.34703 0
M  V30 6219 O 580.046 -2.13802 2.84898 0
M  V30 6220 O 578.905 -3.47779 4.21559 0
M  V30 6221 H 575.999 -0.553219 0.614718 0
M  V30 6222 H 578.545 -0.467003 1.63148 0
M  V30 6223 H 577.317 -1.39232 3.65691 0
M  V30 6224 H 576.94 -2.85716 2.76499 0
M  V30 6225 N 577.937 -1.40673 -0.710563 0
M  V30 6226 C 579.165 -1.42547 -1.4996 0
M  V30 6227 C 579.58 -0.0265485 -1.88781 0
M  V30 6228 O 578.937 0.950694 -1.55782 0
M  V30 6229 C 578.988 -2.32071 -2.77173 0
M  V30 6230 O 578.709 -3.66518 -2.39992 0
M  V30 6231 C 580.21 -2.42591 -3.71032 0
M  V30 6232 H 577.43 -0.486025 -0.462623 0
M  V30 6233 H 579.974 -1.84783 -0.876102 0
M  V30 6234 H 578.129 -1.93184 -3.35795 0
M  V30 6235 H 578.543 -4.14115 -3.21884 0
M  V30 6236 H 580.017 -3.09429 -4.57119 0
M  V30 6237 H 580.494 -1.4525 -4.14486 0
M  V30 6238 H 581.1 -2.82051 -3.18319 0
M  V30 6239 N 579.415 0.9433 -1.26252 0
M  V30 6240 C 580.663 1.68592 -1.11451 0
M  V30 6241 C 580.984 1.91957 0.343123 0
M  V30 6242 O 580.254 1.51475 1.24226 0
M  V30 6243 H 578.834 0.624789 -0.409448 0
M  V30 6244 H 581.496 1.13351 -1.58548 0
M  V30 6245 H 580.592 2.66054 -1.63162 0
M  V30 6246 N 580.893 1.08022 1.14757 0
M  V30 6247 C 581.841 0.701088 2.21783 0
M  V30 6248 C 582.835 -0.291311 1.66876 0
M  V30 6249 O 584.041 -0.154296 1.79337 0
M  V30 6250 H 580.416 0.208668 0.722469 0
M  V30 6251 H 582.387 1.61321 2.51034 0
M  V30 6252 C 581.136 0.122278 3.47485 0
M  V30 6253 H 580.459 0.877065 3.90061 0
M  V30 6254 H 581.899 -0.105248 4.23869 0
M  V30 6255 C 580.358 -1.13883 3.17068 0
M  V30 6256 O 580.888 -2.22429 3.34497 0
M  V30 6257 N 579.094 -1.04767 2.71058 0
M  V30 6258 H 578.641 -0.164302 2.57075 0
M  V30 6259 H 578.599 -1.89224 2.51081 0
M  V30 6260 N 582.371 -1.3172 0.865308 0
M  V30 6261 C 583.648 -1.91574 0.394789 0
M  V30 6262 C 584.028 -1.78769 -1.12271 0
M  V30 6263 O 583.376 -1.19245 -1.94918 0
M  V30 6264 C 583.586 -3.37957 0.870982 0
M  V30 6265 C 584.934 -4.15073 0.894384 0
M  V30 6266 O 585.958 -3.4672 0.816325 0
M  V30 6267 O 584.817 -5.37151 1.00651 0
M  V30 6268 H 581.911 -0.818649 0.117229 0
M  V30 6269 H 584.457 -1.4042 0.952913 0
M  V30 6270 H 583.229 -3.41269 1.91444 0
M  V30 6271 H 582.852 -3.96534 0.290907 0
M  V30 6272 N 583.85 -0.624285 -1.44708 0
M  V30 6273 C 585.096 -0.13473 -2.02953 0
M  V30 6274 C 585.451 1.22724 -1.48178 0
M  V30 6275 O 584.744 1.80109 -0.653542 0
M  V30 6276 C 584.938 -0.0546353 -3.57358 0
M  V30 6277 C 584.767 -1.40729 -4.27113 0
M  V30 6278 C 583.537 -1.99231 -4.64365 0
M  V30 6279 C 585.735 -2.33968 -4.58 0
M  V30 6280 N 583.716 -3.27803 -5.19055 0
M  V30 6281 C 585.088 -3.47149 -5.137 0
M  V30 6282 C 587.143 -2.33132 -4.39948 0
M  V30 6283 C 585.846 -4.59682 -5.53249 0
M  V30 6284 C 587.872 -3.44724 -4.8054 0
M  V30 6285 C 587.234 -4.56629 -5.36348 0
M  V30 6286 H 583.332 -0.0930617 -0.776443 0
M  V30 6287 H 585.917 -0.826286 -1.76297 0
M  V30 6288 H 584.088 0.606183 -3.8364 0
M  V30 6289 H 585.82 0.443116 -4.02267 0
M  V30 6290 H 582.575 -1.52251 -4.4846 0
M  V30 6291 H 582.999 -3.93519 -5.50883 0
M  V30 6292 H 587.641 -1.47868 -3.961 0
M  V30 6293 H 585.359 -5.4566 -5.96054 0
M  V30 6294 H 588.945 -3.45245 -4.68291 0
M  V30 6295 H 587.825 -5.41551 -5.67179 0
M  V30 6296 N 585.328 1.53329 -0.364422 0
M  V30 6297 C 586.291 2.24323 0.470292 0
M  V30 6298 C 587.291 1.25068 1.01067 0
M  V30 6299 O 588.481 1.49354 0.896605 0
M  V30 6300 C 585.613 2.97908 1.65722 0
M  V30 6301 H 586.806 2.9952 -0.150917 0
M  V30 6302 H 584.359 1.55868 -0.116092 0
M  V30 6303 H 585.094 2.2695 2.31655 0
M  V30 6304 H 584.879 3.70732 1.27671 0
M  V30 6305 H 586.369 3.5188 2.24878 0
M  V30 6306 N 586.806 0.0935595 1.57322 0
M  V30 6307 C 588.031 -0.582324 1.99057 0
M  V30 6308 C 588.456 -1.61025 0.972242 0
M  V30 6309 O 587.814 -1.81202 -0.0594622 0
M  V30 6310 C 587.862 -1.20799 3.39765 0
M  V30 6311 O 586.966 -2.32382 3.40694 0
M  V30 6312 H 586.307 -0.147884 0.647323 0
M  V30 6313 H 588.837 0.174516 2.03854 0
M  V30 6314 H 588.847 -1.54966 3.77425 0
M  V30 6315 H 587.522 -0.454914 4.13405 0
M  V30 6316 H 586.099 -1.99845 3.14827 0
M  V30 6317 N 588.284 -1.56567 -0.180126 0
M  V30 6318 C 589.509 -1.85975 -0.918041 0
M  V30 6319 C 589.934 -0.678888 -1.75422 0
M  V30 6320 O 589.292 0.372168 -1.77439 0
M  V30 6321 C 589.34 -3.13731 -1.77779 0
M  V30 6322 O 588.444 -2.95335 -2.87838 0
M  V30 6323 H 587.785 -0.61196 -0.257683 0
M  V30 6324 H 590.315 -2.03798 -0.180923 0
M  V30 6325 H 590.325 -3.4491 -2.17948 0
M  V30 6326 H 589 -3.99293 -1.16352 0
M  V30 6327 H 587.577 -2.7549 -2.51316 0
M  V30 6328 N 589.762 0.448376 -1.51087 0
M  V30 6329 C 590.987 1.22605 -1.6728 0
M  V30 6330 C 591.412 1.84524 -0.365045 0
M  V30 6331 O 590.77 1.6832 0.673642 0
M  V30 6332 C 590.818 2.29393 -2.78229 0
M  V30 6333 O 589.922 3.34608 -2.41063 0
M  V30 6334 H 589.263 0.359705 -0.558129 0
M  V30 6335 H 591.793 0.530903 -1.97592 0
M  V30 6336 H 591.803 2.74352 -3.01986 0
M  V30 6337 H 590.478 1.83701 -3.73131 0
M  V30 6338 H 589.055 2.95202 -2.27838 0
M  V30 6339 N 591.24 1.41047 0.703093 0
M  V30 6340 C 592.465 1.43537 1.49706 0
M  V30 6341 C 592.89 0.0401853 1.88057 0
M  V30 6342 O 592.248 -0.954785 1.54122 0
M  V30 6343 C 592.296 2.3433 2.74084 0
M  V30 6344 O 591.4 1.79515 3.71279 0
M  V30 6345 H 590.741 0.487454 0.450871 0
M  V30 6346 H 593.271 1.85422 0.86486 0
M  V30 6347 H 593.281 2.49947 3.22476 0
M  V30 6348 H 591.956 3.35708 2.45506 0
M  V30 6349 H 590.533 1.7331 3.30179 0
M  V30 6350 N 592.718 -0.936591 1.26751 0
M  V30 6351 C 593.628 -2.06949 1.10496 0
M  V30 6352 C 594.644 -1.7396 0.037271 0
M  V30 6353 O 595.82 -1.99941 0.241944 0
M  V30 6354 C 592.885 -3.38612 0.744491 0
M  V30 6355 C 591.946 -3.85355 1.89209 0
M  V30 6356 C 591.179 -5.10735 1.54873 0
M  V30 6357 O 591.402 -5.68602 0.452546 0
M  V30 6358 O 590.336 -5.52632 2.38499 0
M  V30 6359 H 594.162 -2.23571 2.05547 0
M  V30 6360 H 591.747 -1.05428 1.05855 0
M  V30 6361 H 593.629 -4.17711 0.556396 0
M  V30 6362 H 592.304 -3.23218 -0.176582 0
M  V30 6363 H 591.211 -3.07182 2.13518 0
M  V30 6364 H 592.544 -4.05277 2.79305 0
M  V30 6365 N 594.196 -1.08629 -1.14182 0
M  V30 6366 C 595.159 -0.722027 -2.1753 0
M  V30 6367 C 596.159 0.244305 -1.58933 0
M  V30 6368 O 597.349 0.0235545 -1.74184 0
M  V30 6369 C 594.481 -0.0663966 -3.40835 0
M  V30 6370 H 595.674 -1.63719 -2.51269 0
M  V30 6371 H 593.227 -0.884442 -1.28869 0
M  V30 6372 H 593.962 0.860389 -3.12678 0
M  V30 6373 H 593.747 -0.761598 -3.84632 0
M  V30 6374 H 595.237 0.173346 -4.1724 0
M  V30 6375 N 595.674 1.31259 -0.872281 0
M  V30 6376 C 596.622 2.30404 -0.318897 0
M  V30 6377 C 597.616 1.5962 0.567267 0
M  V30 6378 O 598.822 1.74204 0.453111 0
M  V30 6379 H 595.197 0.747243 -0.0844474 0
M  V30 6380 H 597.168 2.74549 -1.16899 0
M  V30 6381 C 595.917 3.44608 0.462683 0
M  V30 6382 H 595.24 3.99248 -0.209936 0
M  V30 6383 H 596.68 4.1609 0.815187 0
M  V30 6384 C 595.139 2.93456 1.65485 0
M  V30 6385 O 595.669 2.92418 2.75417 0
M  V30 6386 N 593.875 2.49628 1.48776 0
M  V30 6387 H 593.422 2.50671 0.593452 0
M  V30 6388 H 593.38 2.15759 2.28682 0
M  V30 6389 N 597.152 0.631951 1.44375 0
M  V30 6390 C 598.377 0.142146 2.06912 0
M  V30 6391 C 598.802 -1.17456 1.4692 0
M  V30 6392 O 598.16 -1.72074 0.570975 0
M  V30 6393 C 598.208 0.0417952 3.60576 0
M  V30 6394 O 597.312 -1.00194 4.00044 0
M  V30 6395 H 596.653 0.0851491 0.658518 0
M  V30 6396 H 599.183 0.868863 1.85235 0
M  V30 6397 H 599.193 -0.148517 4.0773 0
M  V30 6398 H 597.868 1.0031 4.03622 0
M  V30 6399 H 596.445 -0.786131 3.64519 0
M  V30 6400 N 598.631 -1.53133 0.372548 0
M  V30 6401 C 600.047 -1.59585 0.02178 0
M  V30 6402 C 600.247 -1.38736 -1.46132 0
M  V30 6403 O 599.303 -1.19599 -2.22379 0
M  V30 6404 C 600.616 -2.9678 0.483959 0
M  V30 6405 C 602.164 -3.09909 0.438775 0
M  V30 6406 C 602.639 -4.49527 0.876876 0
M  V30 6407 N 604.13 -4.55663 0.832214 0
M  V30 6408 C 604.865 -5.61896 1.14281 0
M  V30 6409 N 604.361 -6.75852 1.52303 0
M  V30 6410 N 606.154 -5.51916 1.06515 0
M  V30 6411 H 598.305 -1.64936 1.33827 0
M  V30 6412 H 600.568 -0.773947 0.547458 0
M  V30 6413 H 600.274 -3.17198 1.51915 0
M  V30 6414 H 600.148 -3.7699 -0.125784 0
M  V30 6415 H 602.535 -2.89197 -0.587294 0
M  V30 6416 H 602.616 -2.31691 1.0841 0
M  V30 6417 H 602.26 -4.70979 1.90109 0
M  V30 6418 H 602.19 -5.26186 0.208727 0
M  V30 6419 H 604.681 -3.73844 0.552195 0
M  V30 6420 H 604.994 -7.52862 1.7441 0
M  V30 6421 H 603.339 -6.77226 1.56175 0
M  V30 6422 H 606.53 -4.6177 0.767235 0
M  V30 6423 H 606.703 -6.34609 1.31053 0
M  V30 6424 N 600.109 -0.101901 -1.5727 0
M  V30 6425 C 601.349 0.563489 -1.96479 0
M  V30 6426 C 601.713 1.64926 -0.983021 0
M  V30 6427 O 602.914 2.37234 -1.26386 0
M  V30 6428 C 601.185 1.09809 -3.40113 0
M  V30 6429 S 602.744 1.7744 -4.01323 0
M  V30 6430 H 599.562 0.183675 -0.686866 0
M  V30 6431 H 602.164 -0.182922 -1.94642 0
M  V30 6432 H 600.868 0.296447 -4.09328 0
M  V30 6433 H 600.399 1.88018 -3.45562 0
M  V30 6434 H 602.414 3.0591 -3.90683 0
M  V30 6435 N 601.587 1.56661 0.17182 0
M  V30 6436 C 602.519 1.92934 1.2373 0
M  V30 6437 C 603.532 0.822385 1.40502 0
M  V30 6438 O 604.721 1.10083 1.40514 0
M  V30 6439 C 601.821 2.16651 2.60607 0
M  V30 6440 C 600.994 3.47878 2.6514 0
M  V30 6441 C 600.053 3.60429 3.83377 0
M  V30 6442 O 599.079 4.33051 3.69398 0
M  V30 6443 N 600.281 2.95241 4.99813 0
M  V30 6444 H 603.046 2.84931 0.929205 0
M  V30 6445 H 600.607 1.5781 0.361588 0
M  V30 6446 H 602.599 2.22312 3.38171 0
M  V30 6447 H 601.169 1.3104 2.83809 0
M  V30 6448 H 600.389 3.53879 1.73675 0
M  V30 6449 H 601.677 4.34232 2.6518 0
M  V30 6450 H 601.075 2.3611 5.14071 0
M  V30 6451 H 599.632 3.06499 5.75241 0
M  V30 6452 N 603.065 -0.440357 1.51323 0
M  V30 6453 C 604.293 -1.21255 1.67645 0
M  V30 6454 C 604.708 -1.85088 0.37252 0
M  V30 6455 O 604.065 -1.70582 -0.648683 0
M  V30 6456 C 604.116 -2.29881 2.78993 0
M  V30 6457 O 603.837 -1.68659 4.04334 0
M  V30 6458 C 605.338 -3.20214 3.06558 0
M  V30 6459 H 602.558 -0.36558 0.562666 0
M  V30 6460 H 605.102 -0.52214 1.97722 0
M  V30 6461 H 603.257 -2.94643 2.51524 0
M  V30 6462 H 603.671 -2.40426 4.6615 0
M  V30 6463 H 605.145 -3.92575 3.88058 0
M  V30 6464 H 605.622 -3.80794 2.18844 0
M  V30 6465 H 606.228 -2.61156 3.35675 0
M  V30 6466 N 604.543 -1.41418 -0.695603 0
M  V30 6467 C 605.954 -1.36335 -1.27552 0
M  V30 6468 C 606.305 -0.0464336 -1.96145 0
M  V30 6469 O 605.43 0.855304 -1.9878 0
M  V30 6470 C 606.025 -2.46941 -2.3196 0
M  V30 6471 C 604.584 -2.45256 -2.85529 0
M  V30 6472 C 603.731 -2.2679 -1.59566 0
M  V30 6473 H 606.682 -1.50934 -0.490362 0
M  V30 6474 H 606.703 -2.15997 -3.1325 0
M  V30 6475 H 606.215 -3.42775 -1.82008 0
M  V30 6476 H 604.316 -1.53179 -3.39657 0
M  V30 6477 H 604.429 -3.41565 -3.35961 0
M  V30 6478 H 602.793 -1.74667 -1.85374 0
M  V30 6479 H 603.576 -3.24651 -1.1161 0
M  V30 6480 N 606.021 0.929856 -1.27246 0
M  V30 6481 C 607.249 1.71144 -1.16265 0
M  V30 6482 C 607.664 1.867 0.280786 0
M  V30 6483 O 607.021 1.38249 1.19136 0
M  V30 6484 C 607.072 3.11222 -1.83911 0
M  V30 6485 O 606.793 2.96398 -3.22614 0
M  V30 6486 C 608.294 4.05541 -1.79028 0
M  V30 6487 H 605.514 0.535499 -0.404328 0
M  V30 6488 H 608.058 1.16492 -1.68077 0
M  V30 6489 H 606.213 3.6274 -1.36009 0
M  V30 6490 H 606.627 3.8494 -3.56261 0
M  V30 6491 H 608.101 5.01351 -2.30978 0
M  V30 6492 H 608.578 4.32589 -0.759168 0
M  V30 6493 H 609.184 3.59947 -2.26535 0
M  V30 6494 N 607.499 1.09233 1.13605 0
M  V30 6495 C 608.446 0.729921 2.18954 0
M  V30 6496 C 609.416 -0.287916 1.63586 0
M  V30 6497 O 610.601 -0.170003 1.90041 0
M  V30 6498 C 607.741 0.154489 3.44754 0
M  V30 6499 C 606.854 1.22613 4.14234 0
M  V30 6500 C 605.989 0.613657 5.27644 0
M  V30 6501 C 605.028 1.66674 5.8897 0
M  V30 6502 N 604.165 1.07545 6.93814 0
M  V30 6503 H 609.005 1.63257 2.49302 0
M  V30 6504 H 606.542 0.815693 1.22413 0
M  V30 6505 H 608.5 -0.196923 4.16735 0
M  V30 6506 H 607.13 -0.711433 3.14863 0
M  V30 6507 H 606.182 1.69485 3.40557 0
M  V30 6508 H 607.494 2.0238 4.55899 0
M  V30 6509 H 606.648 0.210976 6.06333 0
M  V30 6510 H 605.387 -0.215584 4.87223 0
M  V30 6511 H 604.392 2.07899 5.08978 0
M  V30 6512 H 605.617 2.49861 6.31464 0
M  V30 6513 H 603.563 0.267451 6.55455 0
M  V30 6514 H 603.48 1.81011 7.3401 0
M  V30 6515 H 604.748 0.698906 7.7636 0
M  V30 6516 N 608.977 -1.30795 0.87923 0
M  V30 6517 C 609.909 -2.27241 0.299025 0
M  V30 6518 C 610.922 -1.53472 -0.543166 0
M  V30 6519 O 612.111 -1.74756 -0.363651 0
M  V30 6520 C 609.211 -3.33655 -0.593931 0
M  V30 6521 C 608.384 -4.36857 0.2179 0
M  V30 6522 C 607.443 -5.22715 -0.604646 0
M  V30 6523 O 606.469 -5.69192 -0.0293838 0
M  V30 6524 N 607.671 -5.48008 -1.91488 0
M  V30 6525 H 610.436 -2.77667 1.12788 0
M  V30 6526 H 607.997 -1.43914 0.741637 0
M  V30 6527 H 609.989 -3.88013 -1.15012 0
M  V30 6528 H 608.559 -2.83202 -1.32346 0
M  V30 6529 H 607.779 -3.82444 0.955536 0
M  V30 6530 H 609.067 -5.02869 0.774614 0
M  V30 6531 H 608.465 -5.1202 -2.40525 0
M  V30 6532 H 607.022 -6.05264 -2.41864 0
M  V30 6533 N 610.455 -0.639598 -1.44038 0
M  V30 6534 C 611.402 0.0602458 -2.30721 0
M  V30 6535 C 612.372 0.828352 -1.43971 0
M  V30 6536 O 613.557 0.807693 -1.72861 0
M  V30 6537 C 610.697 1.03008 -3.29368 0
M  V30 6538 C 609.81 0.259502 -4.3122 0
M  V30 6539 C 608.945 1.22191 -5.16955 0
M  V30 6540 C 607.984 0.440978 -6.10509 0
M  V30 6541 N 607.121 1.35428 -6.88915 0
M  V30 6542 H 611.961 -0.684867 -2.90023 0
M  V30 6543 H 609.498 -0.349509 -1.42888 0
M  V30 6544 H 611.456 1.60583 -3.85057 0
M  V30 6545 H 610.086 1.74222 -2.71747 0
M  V30 6546 H 609.138 -0.432317 -3.77935 0
M  V30 6547 H 610.45 -0.348347 -4.97582 0
M  V30 6548 H 609.604 1.86873 -5.77203 0
M  V30 6549 H 608.343 1.86367 -4.50687 0
M  V30 6550 H 607.348 -0.219279 -5.49363 0
M  V30 6551 H 608.573 -0.196192 -6.78817 0
M  V30 6552 H 606.519 1.9831 -6.25307 0
M  V30 6553 H 606.436 0.800657 -7.51748 0
M  V30 6554 H 607.704 1.98967 -7.53679 0
M  V30 6555 N 611.933 1.52934 -0.380664 0
M  V30 6556 C 612.896 2.24809 0.446473 0
M  V30 6557 C 613.896 1.26133 0.997347 0
M  V30 6558 O 615.086 1.50297 0.880714 0
M  V30 6559 C 612.218 2.99649 1.62553 0
M  V30 6560 H 613.411 2.99343 -0.182677 0
M  V30 6561 H 610.964 1.55736 -0.132618 0
M  V30 6562 H 611.699 2.29395 2.29235 0
M  V30 6563 H 611.484 3.72066 1.23732 0
M  V30 6564 H 612.974 3.54246 2.21133 0
M  V30 6565 N 613.412 0.11024 1.57214 0
M  V30 6566 C 614.637 -0.561179 1.99664 0
M  V30 6567 C 615.062 -1.59985 0.989266 0
M  V30 6568 O 614.42 -1.81255 -0.0402399 0
M  V30 6569 C 614.468 -1.17189 3.41027 0
M  V30 6570 O 613.572 -2.28755 3.4314 0
M  V30 6571 H 612.913 -0.14101 0.648855 0
M  V30 6572 H 615.443 0.196128 2.03658 0
M  V30 6573 H 615.453 -1.50954 3.79047 0
M  V30 6574 H 614.128 -0.411041 4.13864 0
M  V30 6575 H 612.705 -1.96495 3.16929 0
M  V30 6576 N 614.89 -1.56749 -0.16351 0
M  V30 6577 C 616.301 -1.72039 -0.725216 0
M  V30 6578 C 616.652 -0.72202 -1.82432 0
M  V30 6579 O 615.777 0.114942 -2.16095 0
M  V30 6580 C 616.372 -3.11932 -1.32227 0
M  V30 6581 C 614.931 -3.28879 -1.83072 0
M  V30 6582 C 614.078 -2.67984 -0.712716 0
M  V30 6583 H 617.029 -1.58579 0.0619772 0
M  V30 6584 H 617.05 -3.11015 -2.19202 0
M  V30 6585 H 616.562 -3.84572 -0.522103 0
M  V30 6586 H 614.663 -2.61209 -2.65708 0
M  V30 6587 H 614.776 -4.36688 -1.97079 0
M  V30 6588 H 613.14 -2.28005 -1.13515 0
M  V30 6589 H 613.923 -3.43216 0.0757361 0
M  V30 6590 N 616.368 0.432326 -1.51554 0
M  V30 6591 C 617.331 1.50765 -1.72634 0
M  V30 6592 C 618.331 1.49334 -0.596314 0
M  V30 6593 O 619.521 1.51268 -0.863925 0
M  V30 6594 C 616.653 2.90284 -1.7874 0
M  V30 6595 H 617.846 1.33377 -2.68609 0
M  V30 6596 H 615.399 0.661329 -1.4162 0
M  V30 6597 H 616.134 3.13071 -0.845977 0
M  V30 6598 H 615.919 2.92727 -2.6087 0
M  V30 6599 H 617.409 3.68282 -1.96871 0
M  V30 6600 N 617.846 1.41785 0.688094 0
M  V30 6601 C 619.257 1.3701 1.26828 0
M  V30 6602 C 619.608 0.056835 1.96118 0
M  V30 6603 O 618.733 -0.84475 1.99231 0
M  V30 6604 C 619.328 2.48168 2.30648 0
M  V30 6605 C 617.887 2.46766 2.84224 0
M  V30 6606 C 617.034 2.27633 1.58361 0
M  V30 6607 H 619.985 1.51192 0.482351 0
M  V30 6608 H 620.006 2.17655 3.121 0
M  V30 6609 H 619.518 3.43735 1.80188 0
M  V30 6610 H 617.619 1.54978 3.3884 0
M  V30 6611 H 617.732 3.43342 3.34145 0
M  V30 6612 H 616.096 1.75648 1.84445 0
M  V30 6613 H 616.879 3.25238 1.09887 0
M  V30 6614 N 619.324 -0.923095 1.27737 0
M  V30 6615 C 620.735 -1.48626 1.12993 0
M  V30 6616 C 621.086 -1.94142 -0.283439 0
M  V30 6617 O 620.211 -1.81605 -1.17681 0
M  V30 6618 C 620.806 -2.70117 2.04505 0
M  V30 6619 C 619.365 -3.22642 1.93853 0
M  V30 6620 C 618.512 -1.95368 1.96791 0
M  V30 6621 H 621.463 -0.736737 1.40563 0
M  V30 6622 H 621.484 -3.4506 1.60356 0
M  V30 6623 H 620.996 -2.36959 3.07363 0
M  V30 6624 H 619.097 -3.60549 0.939968 0
M  V30 6625 H 619.21 -3.88525 2.80331 0
M  V30 6626 H 617.574 -2.12061 1.41076 0
M  V30 6627 H 618.357 -1.64517 3.01312 0
M  V30 6628 N 620.802 -1.09834 -1.13024 0
M  V30 6629 C 621.734 -0.699379 -2.18269 0
M  V30 6630 C 622.747 0.260841 -1.60697 0
M  V30 6631 O 623.936 0.0462538 -1.7844 0
M  V30 6632 C 621.036 -0.0104537 -3.38898 0
M  V30 6633 C 620.209 -0.993275 -4.25973 0
M  V30 6634 C 619.268 -0.336982 -5.2512 0
M  V30 6635 O 618.294 -0.985892 -5.60597 0
M  V30 6636 N 619.496 0.90716 -5.73368 0
M  V30 6637 H 622.261 -1.60486 -2.5311 0
M  V30 6638 H 619.822 -0.986337 -1.28386 0
M  V30 6639 H 621.814 0.43991 -4.02302 0
M  V30 6640 H 620.384 0.797335 -3.0226 0
M  V30 6641 H 619.604 -1.62208 -3.5928 0
M  V30 6642 H 620.892 -1.65876 -4.81002 0
M  V30 6643 H 620.29 1.45384 -5.46699 0
M  V30 6644 H 618.847 1.30077 -6.38689 0
M  V30 6645 N 622.28 1.30327 -0.886154 0
M  V30 6646 C 623.21 2.30549 -0.370028 0
M  V30 6647 C 624.191 1.61039 0.547751 0
M  V30 6648 O 625.376 1.8864 0.461353 0
M  V30 6649 C 622.506 3.44808 0.415275 0
M  V30 6650 C 621.46 4.26024 -0.41085 0
M  V30 6651 C 620.786 5.32347 0.501128 0
M  V30 6652 C 622.086 4.95433 -1.65359 0
M  V30 6653 H 623.78 2.73969 -1.20754 0
M  V30 6654 H 621.326 1.3171 -0.582097 0
M  V30 6655 H 623.279 4.13986 0.78699 0
M  V30 6656 H 622.003 3.00197 1.28644 0
M  V30 6657 H 620.662 3.58535 -0.764719 0
M  V30 6658 H 620.31 4.83982 1.37004 0
M  V30 6659 H 620.01 5.87581 -0.0478356 0
M  V30 6660 H 621.534 6.0438 0.869333 0
M  V30 6661 H 622.948 5.5712 -1.35239 0
M  V30 6662 H 621.345 5.60537 -2.14284 0
M  V30 6663 H 622.415 4.21493 -2.39733 0
M  V30 6664 N 623.758 0.647228 1.43697 0
M  V30 6665 C 624.998 0.16171 2.03759 0
M  V30 6666 C 625.362 -1.19951 1.49919 0
M  V30 6667 O 626.563 -1.77808 2.01588 0
M  V30 6668 C 624.834 0.16505 3.57019 0
M  V30 6669 S 626.393 -0.253497 4.38067 0
M  V30 6670 H 623.211 0.0689985 0.707644 0
M  V30 6671 H 625.813 0.854224 1.7585 0
M  V30 6672 H 624.517 1.15858 3.93707 0
M  V30 6673 H 624.048 -0.548194 3.89562 0
M  V30 6674 H 626.063 -1.49385 4.73179 0
M  V30 6675 N 625.236 -1.5273 0.388769 0
M  V30 6676 C 626.482 -2.01871 -0.193877 0
M  V30 6677 C 626.815 -1.27475 -1.46505 0
M  V30 6678 O 626.09 -0.375063 -1.90849 0
M  V30 6679 C 626.373 -3.5712 -0.462336 0
M  V30 6680 C 626.226 -4.42186 0.824091 0
M  V30 6681 C 627.545 -4.21881 -1.25319 0
M  V30 6682 H 624.664 -0.733764 -0.0689899 0
M  V30 6683 H 627.306 -1.82796 0.518231 0
M  V30 6684 H 625.456 -3.73504 -1.06896 0
M  V30 6685 H 627.128 -4.37554 1.46096 0
M  V30 6686 H 625.371 -4.09219 1.43952 0
M  V30 6687 H 626.042 -5.48828 0.590905 0
M  V30 6688 H 628.518 -4.0947 -0.73981 0
M  V30 6689 H 627.394 -5.30487 -1.40977 0
M  V30 6690 H 627.655 -3.79478 -2.26824 0
M  V30 6691 N 626.714 -0.118576 -1.57153 0
M  V30 6692 C 627.96 0.540326 -1.95469 0
M  V30 6693 C 628.293 1.66356 -1.00196 0
M  V30 6694 O 627.568 1.94461 -0.039104 0
M  V30 6695 C 627.851 1.07342 -3.43729 0
M  V30 6696 C 627.704 -0.0463732 -4.49776 0
M  V30 6697 C 629.023 1.96442 -3.93826 0
M  V30 6698 H 626.142 0.19494 -0.710751 0
M  V30 6699 H 628.784 -0.19405 -1.89006 0
M  V30 6700 H 626.934 1.69925 -3.49368 0
M  V30 6701 H 628.606 -0.681648 -4.56236 0
M  V30 6702 H 626.849 -0.709574 -4.27957 0
M  V30 6703 H 627.52 0.367856 -5.50773 0
M  V30 6704 H 629.996 1.43731 -3.90488 0
M  V30 6705 H 628.872 2.3066 -4.98084 0
M  V30 6706 H 629.133 2.89077 -3.34495 0
M  V30 6707 N 628.193 1.56834 0.155195 0
M  V30 6708 C 629.103 2.009 1.21146 0
M  V30 6709 C 630.119 0.923029 1.475 0
M  V30 6710 O 631.295 1.23189 1.59331 0
M  V30 6711 C 628.36 2.37378 2.52691 0
M  V30 6712 C 627.421 3.59883 2.34057 0
M  V30 6713 C 626.654 3.94612 3.59329 0
M  V30 6714 O 626.877 3.30104 4.65175 0
M  V30 6715 O 625.811 4.87895 3.52479 0
M  V30 6716 H 629.637 2.9105 0.867371 0
M  V30 6717 H 627.222 1.44916 0.363298 0
M  V30 6718 H 629.104 2.61737 3.3026 0
M  V30 6719 H 627.779 1.50385 2.86646 0
M  V30 6720 H 626.686 3.40722 1.54465 0
M  V30 6721 H 628.019 4.47468 2.0502 0
M  V30 6722 N 629.671 -0.424282 1.51781 0
M  V30 6723 C 630.634 -1.49848 1.73431 0
M  V30 6724 C 631.634 -1.49016 0.604225 0
M  V30 6725 O 632.824 -1.50808 0.871935 0
M  V30 6726 C 629.956 -2.89332 1.80277 0
M  V30 6727 H 631.149 -1.3195 2.69312 0
M  V30 6728 H 628.702 -0.653809 1.41968 0
M  V30 6729 H 629.437 -3.12618 0.862568 0
M  V30 6730 H 629.222 -2.9134 2.62419 0
M  V30 6731 H 630.712 -3.67233 1.98821 0
M  V30 6732 N 631.149 -1.42148 -0.680565 0
M  V30 6733 C 632.56 -1.3768 -1.26099 0
M  V30 6734 C 632.911 -0.0672348 -1.96085 0
M  V30 6735 O 632.036 0.834172 -1.99676 0
M  V30 6736 C 632.631 -2.49387 -2.29328 0
M  V30 6737 C 631.19 -2.4827 -2.82911 0
M  V30 6738 C 630.337 -2.2847 -1.57152 0
M  V30 6739 H 633.288 -1.51446 -0.474326 0
M  V30 6740 H 633.309 -2.19307 -3.10941 0
M  V30 6741 H 632.821 -3.44686 -1.78363 0
M  V30 6742 H 630.922 -1.56773 -3.38013 0
M  V30 6743 H 631.035 -3.45109 -3.3232 0
M  V30 6744 H 629.399 -1.76623 -1.83511 0
M  V30 6745 H 630.182 -3.25816 -1.0816 0
M  V30 6746 N 632.627 0.916307 -1.28225 0
M  V30 6747 C 633.852 1.7043 -1.18188 0
M  V30 6748 C 634.277 1.86346 0.256274 0
M  V30 6749 O 633.635 1.37175 1.18544 0
M  V30 6750 C 633.683 3.07546 -1.88275 0
M  V30 6751 O 632.787 3.94904 -1.18848 0
M  V30 6752 H 632.128 0.521967 -0.410423 0
M  V30 6753 H 634.658 1.14589 -1.69501 0
M  V30 6754 H 634.668 3.57793 -1.96082 0
M  V30 6755 H 633.343 2.95279 -2.92887 0
M  V30 6756 H 631.92 3.53339 -1.19187 0
M  V30 6757 N 634.105 1.10431 1.1244 0
M  V30 6758 C 635.015 0.765502 2.21759 0
M  V30 6759 C 636.031 -0.236966 1.72379 0
M  V30 6760 O 637.207 -0.0757329 2.01258 0
M  V30 6761 C 634.272 0.202316 3.46109 0
M  V30 6762 C 633.333 1.26205 4.1033 0
M  V30 6763 C 632.566 0.725648 5.28744 0
M  V30 6764 O 632.789 -0.447942 5.68638 0
M  V30 6765 O 631.723 1.48555 5.83279 0
M  V30 6766 H 635.549 1.67801 2.53133 0
M  V30 6767 H 633.134 0.879443 1.20773 0
M  V30 6768 H 635.016 -0.107918 4.21262 0
M  V30 6769 H 633.691 -0.683052 3.16411 0
M  V30 6770 H 632.598 1.62514 3.36957 0
M  V30 6771 H 633.931 2.12044 4.44183 0
M  V30 6772 N 635.583 -1.29855 0.893053 0
M  V30 6773 C 636.994 -1.77946 0.564998 0
M  V30 6774 C 637.345 -1.73339 -0.919134 0
M  V30 6775 O 636.47 -1.3152 -1.71847 0
M  V30 6776 C 637.065 -3.23118 1.01883 0
M  V30 6777 C 635.624 -3.69013 0.742051 0
M  V30 6778 C 634.771 -2.50121 1.19727 0
M  V30 6779 H 637.722 -1.16611 1.07646 0
M  V30 6780 H 637.743 -3.78875 0.351249 0
M  V30 6781 H 637.255 -3.26439 2.09903 0
M  V30 6782 H 635.356 -3.71173 -0.325816 0
M  V30 6783 H 635.469 -4.60117 1.33527 0
M  V30 6784 H 633.833 -2.47128 0.616418 0
M  V30 6785 H 634.616 -2.56174 2.28538 0
M  V30 6786 N 637.061 -0.65484 -1.43351 0
M  V30 6787 C 638.307 -0.169142 -2.02093 0
M  V30 6788 C 638.64 1.21431 -1.51553 0
M  V30 6789 O 637.915 1.81105 -0.709317 0
M  V30 6790 C 638.198 -0.181775 -3.59641 0
M  V30 6791 C 638.051 -1.59926 -4.20409 0
M  V30 6792 C 639.37 0.480945 -4.37464 0
M  V30 6793 H 636.489 -0.0629371 -0.734308 0
M  V30 6794 H 639.131 -0.835833 -1.70628 0
M  V30 6795 H 637.281 0.385918 -3.86578 0
M  V30 6796 H 638.953 -2.21766 -4.04497 0
M  V30 6797 H 637.196 -2.14605 -3.76998 0
M  V30 6798 H 637.867 -1.55994 -5.295 0
M  V30 6799 H 640.343 -0.00208273 -4.161 0
M  V30 6800 H 639.219 0.441384 -5.47122 0
M  V30 6801 H 639.48 1.55533 -4.13838 0
M  V30 6802 N 638.539 1.52521 -0.396863 0
M  V30 6803 C 639.449 2.30403 0.44178 0
M  V30 6804 C 640.465 1.37625 1.06468 0
M  V30 6805 O 641.641 1.70697 1.06886 0
M  V30 6806 C 638.706 3.1013 1.54986 0
M  V30 6807 C 637.767 4.18628 0.951279 0
M  V30 6808 C 637 4.94543 2.00655 0
M  V30 6809 O 637.223 4.70629 3.22281 0
M  V30 6810 O 636.157 5.797 1.61962 0
M  V30 6811 H 639.983 3.03087 -0.192892 0
M  V30 6812 H 637.568 1.48537 -0.16038 0
M  V30 6813 H 639.45 3.59816 2.19341 0
M  V30 6814 H 638.125 2.40251 2.16935 0
M  V30 6815 H 637.032 3.73119 0.270773 0
M  V30 6816 H 638.365 4.90763 0.375887 0
M  V30 6817 N 640.017 0.126909 1.57088 0
M  V30 6818 C 641.263 -0.523662 1.96543 0
M  V30 6819 C 641.618 -1.63783 1.0096 0
M  V30 6820 O 640.911 -1.91556 0.0410175 0
M  V30 6821 C 641.105 -1.095 3.40212 0
M  V30 6822 C 640.934 -0.037715 4.49684 0
M  V30 6823 C 639.704 0.396823 5.03739 0
M  V30 6824 C 641.902 0.746245 5.08857 0
M  V30 6825 N 639.884 1.43905 5.96795 0
M  V30 6826 C 641.255 1.63947 5.97931 0
M  V30 6827 C 643.31 0.796259 4.91492 0
M  V30 6828 C 642.013 2.57837 6.715 0
M  V30 6829 C 644.039 1.7229 5.65747 0
M  V30 6830 C 643.401 2.60369 6.54513 0
M  V30 6831 H 639.5 -0.161016 0.765244 0
M  V30 6832 H 642.084 0.21686 1.93489 0
M  V30 6833 H 640.255 -1.80521 3.43899 0
M  V30 6834 H 641.987 -1.71054 3.66773 0
M  V30 6835 H 638.742 0.00290406 4.736 0
M  V30 6836 H 639.166 1.95932 6.48027 0
M  V30 6837 H 643.808 0.129412 4.22602 0
M  V30 6838 H 641.526 3.25532 7.39631 0
M  V30 6839 H 645.112 1.76715 5.54313 0
M  V30 6840 H 643.992 3.30906 7.10965 0
M  V30 6841 N 641.495 -1.56914 -0.146875 0
M  V30 6842 C 642.723 -1.87515 -0.874394 0
M  V30 6843 C 643.138 -0.715116 -1.74733 0
M  V30 6844 O 642.495 0.315113 -1.79759 0
M  V30 6845 C 642.546 -3.17362 -1.731 0
M  V30 6846 O 642.267 -4.28897 -0.893245 0
M  V30 6847 C 643.768 -3.61479 -2.56609 0
M  V30 6848 H 640.988 -0.621546 -0.252827 0
M  V30 6849 H 643.532 -2.04023 -0.139627 0
M  V30 6850 H 641.687 -3.02608 -2.41883 0
M  V30 6851 H 642.101 -5.03146 -1.48137 0
M  V30 6852 H 643.575 -4.5517 -3.12289 0
M  V30 6853 H 644.052 -2.86773 -3.32653 0
M  V30 6854 H 644.658 -3.78927 -1.93117 0
M  V30 6855 N 642.974 0.416227 -1.52004 0
M  V30 6856 C 644.222 1.16153 -1.65387 0
M  V30 6857 C 644.543 1.91208 -0.382669 0
M  V30 6858 O 643.813 1.86413 0.602231 0
M  V30 6859 H 642.393 0.431765 -0.60958 0
M  V30 6860 H 645.055 0.475151 -1.89019 0
M  V30 6861 H 644.151 1.87952 -2.4916 0
M  V30 6862 N 644.452 1.42507 0.673017 0
M  V30 6863 C 645.415 1.4582 1.76831 0
M  V30 6864 C 646.415 0.345542 1.57043 0
M  V30 6865 O 647.605 0.606447 1.63303 0
M  V30 6866 C 644.737 1.29158 3.15485 0
M  V30 6867 H 645.93 2.43345 1.7528 0
M  V30 6868 H 643.483 1.28981 0.882817 0
M  V30 6869 H 644.218 0.325626 3.22661 0
M  V30 6870 H 644.003 2.09797 3.31252 0
M  V30 6871 H 645.493 1.34363 3.95394 0
M  V30 6872 N 645.93 -0.909495 1.28709 0
M  V30 6873 C 646.84 -2.04558 1.14861 0
M  V30 6874 C 647.856 -1.73842 0.0741621 0
M  V30 6875 O 649.032 -1.99383 0.2843 0
M  V30 6876 C 646.097 -3.36957 0.816148 0
M  V30 6877 C 645.158 -3.81255 1.97341 0
M  V30 6878 C 644.391 -5.07335 1.65671 0
M  V30 6879 O 644.614 -5.67514 0.573053 0
M  V30 6880 O 643.548 -5.47449 2.50167 0
M  V30 6881 H 647.374 -2.19161 2.10243 0
M  V30 6882 H 644.959 -1.03159 1.08068 0
M  V30 6883 H 646.841 -4.16436 0.644873 0
M  V30 6884 H 645.516 -3.2352 -0.107983 0
M  V30 6885 H 644.423 -3.02584 2.19986 0
M  V30 6886 H 645.756 -3.99261 2.87839 0
M  V30 6887 N 647.408 -1.11026 -1.11852 0
M  V30 6888 C 648.318 -0.777252 -2.2135 0
M  V30 6889 C 649.334 0.227821 -1.72502 0
M  V30 6890 O 650.51 0.0650587 -2.01295 0
M  V30 6891 C 647.575 -0.220668 -3.45997 0
M  V30 6892 C 646.636 -1.2838 -4.09655 0
M  V30 6893 C 645.869 -0.753678 -5.28352 0
M  V30 6894 O 646.092 0.417779 -5.68868 0
M  V30 6895 O 645.026 -1.51647 -5.82483 0
M  V30 6896 H 648.852 -1.69141 -2.5224 0
M  V30 6897 H 646.437 -0.885836 -1.20305 0
M  V30 6898 H 648.319 0.0855756 -4.21313 0
M  V30 6899 H 646.994 0.666262 -3.16769 0
M  V30 6900 H 645.901 -1.64299 -3.3609 0
M  V30 6901 H 647.234 -2.14396 -4.43052 0
M  V30 6902 N 648.886 1.2938 -0.899927 0
M  V30 6903 C 650.111 2.00228 -0.540692 0
M  V30 6904 C 650.536 1.66909 0.867359 0
M  V30 6905 O 649.894 0.893824 1.57735 0
M  V30 6906 C 649.942 3.52921 -0.740232 0
M  V30 6907 O 649.046 4.11879 0.207154 0
M  V30 6908 H 648.387 0.629505 -0.211233 0
M  V30 6909 H 650.917 1.6487 -1.21158 0
M  V30 6910 H 650.927 4.0287 -0.644973 0
M  V30 6911 H 649.602 3.76508 -1.76677 0
M  V30 6912 H 648.179 3.72845 0.0643315 0
M  V30 6913 N 650.364 0.662433 1.43002 0
M  V30 6914 C 651.294 -0.00979809 2.33498 0
M  V30 6915 C 652.275 -0.802329 1.49989 0
M  V30 6916 O 653.46 -0.761964 1.78627 0
M  V30 6917 C 650.59 -0.970446 3.33466 0
M  V30 6918 C 649.544 -0.287383 4.27034 0
M  V30 6919 C 648.87 -1.36012 5.17112 0
M  V30 6920 C 650.17 0.82595 5.15728 0
M  V30 6921 H 651.864 0.745959 2.89958 0
M  V30 6922 H 649.41 0.360172 1.39423 0
M  V30 6923 H 651.363 -1.44971 3.95679 0
M  V30 6924 H 650.087 -1.75748 2.75282 0
M  V30 6925 H 648.746 0.17152 3.66199 0
M  V30 6926 H 648.394 -2.13882 4.55262 0
M  V30 6927 H 648.094 -0.908276 5.80538 0
M  V30 6928 H 649.618 -1.84056 5.82199 0
M  V30 6929 H 651.032 0.42845 5.71697 0
M  V30 6930 H 649.429 1.20282 5.87922 0
M  V30 6931 H 650.499 1.68003 4.54866 0
M  V30 6932 N 651.842 -1.52309 0.404946 0
M  V30 6933 C 653.089 -2.01767 -0.1722 0
M  V30 6934 C 653.417 -1.29075 -1.45498 0
M  V30 6935 O 652.672 -0.3843 -1.9189 0
M  V30 6936 C 652.971 -3.54284 -0.470895 0
M  V30 6937 C 652.637 -4.45079 0.722194 0
M  V30 6938 C 651.299 -4.69617 1.04946 0
M  V30 6939 C 653.651 -4.98555 1.51962 0
M  V30 6940 C 650.979 -5.44878 2.17543 0
M  V30 6941 C 653.331 -5.75049 2.63632 0
M  V30 6942 C 651.995 -5.9786 2.9685 0
M  V30 6943 H 651.265 -0.738316 -0.0630125 0
M  V30 6944 H 653.912 -1.83566 0.545506 0
M  V30 6945 H 652.217 -3.70642 -1.27012 0
M  V30 6946 H 653.914 -3.90058 -0.930346 0
M  V30 6947 H 650.504 -4.26155 0.457131 0
M  V30 6948 H 654.688 -4.79509 1.28002 0
M  V30 6949 H 649.944 -5.60762 2.43631 0
M  V30 6950 H 654.118 -6.15483 3.25813 0
M  V30 6951 H 651.745 -6.5596 3.84215 0
M  V30 6952 N 653.32 -0.135238 -1.57019 0
M  V30 6953 C 654.736 0.221262 -1.58059 0
M  V30 6954 C 654.936 1.65538 -1.14889 0
M  V30 6955 O 653.992 2.37985 -0.843751 0
M  V30 6956 C 655.305 -0.0268114 -3.00688 0
M  V30 6957 C 656.853 0.0378206 -3.12977 0
M  V30 6958 C 657.328 -0.182769 -4.57635 0
M  V30 6959 N 658.819 -0.129292 -4.6302 0
M  V30 6960 C 659.554 -0.274648 -5.72742 0
M  V30 6961 N 659.05 -0.477075 -6.91155 0
M  V30 6962 N 660.843 -0.213077 -5.61696 0
M  V30 6963 H 652.994 -1.07177 -1.83376 0
M  V30 6964 H 655.257 -0.423338 -0.848227 0
M  V30 6965 H 654.963 -1.01889 -3.36618 0
M  V30 6966 H 654.837 0.697863 -3.70688 0
M  V30 6967 H 657.224 1.02043 -2.76896 0
M  V30 6968 H 657.305 -0.718996 -2.45487 0
M  V30 6969 H 656.949 -1.16243 -4.94419 0
M  V30 6970 H 656.879 0.59423 -5.23237 0
M  V30 6971 H 659.37 0.0229896 -3.77893 0
M  V30 6972 H 659.683 -0.578413 -7.70632 0
M  V30 6973 H 658.028 -0.513252 -6.93102 0
M  V30 6974 H 661.219 -0.0557796 -4.68067 0
M  V30 6975 H 661.392 -0.329796 -6.4716 0
M  V30 6976 N 654.798 1.5699 0.138552 0
M  V30 6977 C 656.044 1.84081 0.85099 0
M  V30 6978 C 656.377 0.718107 1.80435 0
M  V30 6979 O 655.652 -0.277633 1.92508 0
M  V30 6980 C 655.935 3.21699 1.61808 0
M  V30 6981 C 655.788 4.44544 0.685633 0
M  V30 6982 C 657.107 3.5664 2.57868 0
M  V30 6983 H 654.226 0.669592 0.307922 0
M  V30 6984 H 656.868 1.89646 0.11588 0
M  V30 6985 H 655.018 3.17086 2.24474 0
M  V30 6986 H 656.69 4.61248 0.0693179 0
M  V30 6987 H 654.933 4.338 -0.00421993 0
M  V30 6988 H 655.604 5.3746 1.25858 0
M  V30 6989 H 658.08 3.61918 2.05316 0
M  V30 6990 H 656.956 4.53946 3.08584 0
M  V30 6991 H 657.217 2.83036 3.39622 0
M  V30 6992 N 656.276 -0.40816 1.52223 0
M  V30 6993 C 657.523 -1.15502 1.66329 0
M  V30 6994 C 657.851 -1.90474 0.393701 0
M  V30 6995 O 657.106 -1.85507 -0.623356 0
M  V30 6996 C 657.405 -2.17422 2.83659 0
M  V30 6997 C 657.071 -1.5925 4.21841 0
M  V30 6998 C 655.733 -1.4311 4.59427 0
M  V30 6999 C 658.085 -1.16776 5.0795 0
M  V30 7000 C 655.413 -0.830148 5.80797 0
M  V30 7001 C 657.765 -0.580988 6.29926 0
M  V30 7002 C 656.429 -0.406729 6.6626 0
M  V30 7003 H 655.699 -0.422653 0.608642 0
M  V30 7004 H 658.346 -0.442114 1.86327 0
M  V30 7005 H 656.651 -2.94861 2.58001 0
M  V30 7006 H 658.348 -2.75084 2.9177 0
M  V30 7007 H 654.938 -1.72796 3.92224 0
M  V30 7008 H 659.122 -1.28055 4.79495 0
M  V30 7009 H 654.378 -0.68316 6.07571 0
M  V30 7010 H 658.552 -0.243488 6.95974 0
M  V30 7011 H 656.179 0.0610366 7.60175 0
M  V30 7012 N 657.755 -1.42862 -0.66545 0
M  V30 7013 C 658.705 -1.43521 -1.7716 0
M  V30 7014 C 659.689 -0.305267 -1.57978 0
M  V30 7015 O 660.881 -0.548176 -1.68297 0
M  V30 7016 C 658.01 -1.34914 -3.15679 0
M  V30 7017 C 657.096 -2.5289 -3.40452 0
M  V30 7018 N 657.487 -3.78284 -3.3576 0
M  V30 7019 C 655.785 -2.47351 -3.71124 0
M  V30 7020 C 656.486 -4.56701 -3.60276 0
M  V30 7021 N 655.462 -3.87249 -3.81496 0
M  V30 7022 H 659.264 -2.38357 -1.7194 0
M  V30 7023 H 656.778 -1.37342 -0.866653 0
M  V30 7024 H 658.775 -1.33468 -3.94958 0
M  V30 7025 H 657.435 -0.410881 -3.2209 0
M  V30 7026 H 658.446 -4.10746 -3.15448 0
M  V30 7027 H 655.123 -1.62152 -3.84725 0
M  V30 7028 H 656.513 -5.65704 -3.6253 0
M  V30 7029 N 659.233 0.902656 -1.29189 0
M  V30 7030 C 660.481 1.6496 -1.16758 0
M  V30 7031 C 660.802 1.92952 0.28188 0
M  V30 7032 O 660.072 1.55351 1.19344 0
M  V30 7033 H 658.652 0.611447 -0.429118 0
M  V30 7034 H 661.314 1.0825 -1.62074 0
M  V30 7035 H 660.41 2.60728 -1.71544 0
M  V30 7036 N 660.711 1.11618 1.11262 0
M  V30 7037 C 661.939 0.888739 1.8684 0
M  V30 7038 C 662.354 -0.561558 1.80255 0
M  V30 7039 O 661.711 -1.38782 1.18515 0
M  V30 7040 C 661.762 1.34422 3.35579 0
M  V30 7041 O 661.483 2.73766 3.42029 0
M  V30 7042 C 662.984 1.15246 4.28058 0
M  V30 7043 H 660.204 0.318152 0.590779 0
M  V30 7044 H 662.748 1.48398 1.40707 0
M  V30 7045 H 660.903 0.79239 3.7921 0
M  V30 7046 H 661.317 2.9355 4.34659 0
M  V30 7047 H 662.791 1.52015 5.30656 0
M  V30 7048 H 663.268 0.0922007 4.39103 0
M  V30 7049 H 663.874 1.69136 3.90222 0
M  V30 7050 N 662.189 -1.289 0.906776 0
M  V30 7051 C 663.419 -1.99112 0.551168 0
M  V30 7052 C 663.827 -1.67998 -0.870243 0
M  V30 7053 O 663.17 -0.92525 -1.58697 0
M  V30 7054 C 663.232 -3.53162 0.672065 0
M  V30 7055 C 662.896 -4.07849 2.06174 0
M  V30 7056 C 663.893 -4.22212 3.0337 0
M  V30 7057 C 661.578 -4.4271 2.37304 0
M  V30 7058 C 663.572 -4.70678 4.29815 0
M  V30 7059 C 661.259 -4.90871 3.6399 0
M  V30 7060 C 662.257 -5.04811 4.6006 0
M  V30 7061 O 661.945 -5.51925 5.84495 0
M  V30 7062 H 661.677 -0.642728 0.209469 0
M  V30 7063 H 664.231 -1.65234 1.22012 0
M  V30 7064 H 662.461 -3.86662 -0.05394 0
M  V30 7065 H 664.15 -4.046 0.324579 0
M  V30 7066 H 664.916 -3.9556 2.80637 0
M  V30 7067 H 660.795 -4.31114 1.63283 0
M  V30 7068 H 664.339 -4.81474 5.04806 0
M  V30 7069 H 660.236 -5.16961 3.86551 0
M  V30 7070 H 661.004 -5.70225 5.87185 0
M  V30 7071 N 663.667 -0.670007 -1.42649 0
M  V30 7072 C 664.914 -0.190286 -2.01604 0
M  V30 7073 C 665.242 1.20155 -1.52948 0
M  V30 7074 O 664.497 1.81964 -0.72026 0
M  V30 7075 C 664.796 -0.168298 -3.57004 0
M  V30 7076 C 664.462 -1.50415 -4.25072 0
M  V30 7077 C 663.124 -1.86992 -4.43382 0
M  V30 7078 C 665.476 -2.38414 -4.63474 0
M  V30 7079 C 662.804 -3.11203 -4.97363 0
M  V30 7080 C 665.156 -3.61933 -5.18833 0
M  V30 7081 C 663.82 -3.98685 -5.35356 0
M  V30 7082 H 663.09 -0.0696305 -0.737721 0
M  V30 7083 H 665.737 -0.864044 -1.70899 0
M  V30 7084 H 664.042 0.588958 -3.87348 0
M  V30 7085 H 665.739 0.22001 -4.00396 0
M  V30 7086 H 662.329 -1.20959 -4.11177 0
M  V30 7087 H 666.513 -2.11442 -4.49006 0
M  V30 7088 H 661.769 -3.39705 -5.08341 0
M  V30 7089 H 665.943 -4.30326 -5.47533 0
M  V30 7090 H 663.57 -4.95009 -5.76949 0
M  V30 7091 N 665.145 1.52092 -0.413018 0
M  V30 7092 C 666.093 2.28681 0.425199 0
M  V30 7093 C 667.087 1.3353 1.04241 0
M  V30 7094 O 668.293 1.50973 0.980166 0
M  V30 7095 H 664.668 0.735661 0.155906 0
M  V30 7096 H 666.639 2.97418 -0.241926 0
M  V30 7097 C 665.388 3.1235 1.5275 0
M  V30 7098 H 664.711 3.85439 1.06191 0
M  V30 7099 H 666.151 3.69038 2.08774 0
M  V30 7100 C 664.61 2.26161 2.49706 0
M  V30 7101 O 665.14 1.90452 3.53682 0
M  V30 7102 N 663.346 1.89854 2.20008 0
M  V30 7103 H 662.893 2.19092 1.35486 0
M  V30 7104 H 662.851 1.3248 2.85125 0
M  V30 7105 N 666.623 0.143563 1.56945 0
M  V30 7106 C 667.571 -0.814556 2.17871 0
M  V30 7107 C 668.565 -1.25778 1.13474 0
M  V30 7108 O 669.771 -1.22666 1.31731 0
M  V30 7109 H 666.146 -0.280873 0.697578 0
M  V30 7110 H 668.117 -0.276459 2.97117 0
M  V30 7111 C 666.866 -2.04503 2.81201 0
M  V30 7112 H 666.189 -1.71296 3.61245 0
M  V30 7113 H 667.629 -2.69493 3.27337 0
M  V30 7114 C 666.088 -2.85079 1.79532 0
M  V30 7115 O 666.618 -3.81306 1.26368 0
M  V30 7116 N 664.824 -2.49546 1.48913 0
M  V30 7117 H 664.371 -1.71359 1.92338 0
M  V30 7118 H 664.329 -3.03751 0.811348 0
M  V30 7119 N 668.101 -1.57061 -0.130224 0
M  V30 7120 C 669.348 -1.84257 -0.839972 0
M  V30 7121 C 669.676 -0.726986 -1.80403 0
M  V30 7122 O 668.931 0.282632 -1.93648 0
M  V30 7123 C 669.23 -3.17878 -1.63365 0
M  V30 7124 C 668.896 -4.43475 -0.814891 0
M  V30 7125 C 667.558 -4.77581 -0.589066 0
M  V30 7126 C 669.91 -5.20631 -0.243437 0
M  V30 7127 C 667.238 -5.86292 0.218648 0
M  V30 7128 C 669.59 -6.30192 0.551408 0
M  V30 7129 C 668.254 -6.62837 0.787653 0
M  V30 7130 H 667.524 -0.674245 -0.307367 0
M  V30 7131 H 670.171 -1.91224 -0.102832 0
M  V30 7132 H 668.476 -3.06437 -2.44138 0
M  V30 7133 H 670.173 -3.3614 -2.18658 0
M  V30 7134 H 666.763 -4.16747 -1.00098 0
M  V30 7135 H 670.947 -4.94644 -0.405145 0
M  V30 7136 H 666.203 -6.10017 0.411016 0
M  V30 7137 H 670.377 -6.89165 1.00126 0
M  V30 7138 H 668.004 -7.46908 1.41537 0
M  V30 7139 N 669.579 0.400081 -1.52437 0
M  V30 7140 C 670.819 1.15526 -1.68622 0
M  V30 7141 C 671.183 1.87533 -0.411744 0
M  V30 7142 O 672.384 2.6501 -0.449804 0
M  V30 7143 C 670.655 2.11618 -2.88015 0
M  V30 7144 S 672.214 2.95121 -3.24729 0
M  V30 7145 H 669.032 0.39123 -0.593683 0
M  V30 7146 H 671.634 0.441255 -1.90455 0
M  V30 7147 H 670.338 1.5742 -3.79008 0
M  V30 7148 H 669.869 2.87544 -2.68481 0
M  V30 7149 H 671.884 4.13653 -2.74055 0
M  V30 7150 N 671.057 1.43213 0.657864 0
M  V30 7151 C 672.282 1.48227 1.45064 0
M  V30 7152 C 672.707 0.0999939 1.87834 0
M  V30 7153 O 672.065 -0.905269 1.57081 0
M  V30 7154 C 672.113 2.42931 2.6649 0
M  V30 7155 O 671.217 1.91237 3.6538 0
M  V30 7156 H 670.558 0.501551 0.435135 0
M  V30 7157 H 673.088 1.8808 0.805431 0
M  V30 7158 H 673.098 2.6008 3.1436 0
M  V30 7159 H 671.773 3.43348 2.34701 0
M  V30 7160 H 670.35 1.83726 3.24498 0
M  V30 7161 N 672.536 -0.895792 1.29666 0
M  V30 7162 C 673.785 -1.64131 1.17234 0
M  V30 7163 C 674.098 -1.93665 -0.274416 0
M  V30 7164 O 675.304 -2.66472 -0.520105 0
M  V30 7165 C 673.76 -2.95764 2.05065 0
M  V30 7166 C 673.368 -2.7381 3.54587 0
M  V30 7167 C 675.112 -3.737 2.01367 0
M  V30 7168 C 673.019 -4.01194 4.34508 0
M  V30 7169 H 671.949 -0.615742 0.435175 0
M  V30 7170 H 674.6 -0.992626 1.54335 0
M  V30 7171 H 672.982 -3.61867 1.60837 0
M  V30 7172 H 674.156 -2.16277 4.06892 0
M  V30 7173 H 672.471 -2.09265 3.59996 0
M  V30 7174 H 675.068 -4.68152 2.58337 0
M  V30 7175 H 675.411 -4.04245 0.994575 0
M  V30 7176 H 675.944 -3.14444 2.43659 0
M  V30 7177 H 672.683 -3.75813 5.37071 0
M  V30 7178 H 672.203 -4.58272 3.86971 0
M  V30 7179 H 673.882 -4.69307 4.45376 0
M  V30 7180 N 674.014 -1.12206 -1.10668 0
M  V30 7181 C 674.977 -0.790867 -2.15123 0
M  V30 7182 C 675.977 0.193618 -1.5963 0
M  V30 7183 O 677.167 -0.0318728 -1.74171 0
M  V30 7184 C 674.299 -0.174797 -3.40452 0
M  V30 7185 H 675.492 -1.7163 -2.45933 0
M  V30 7186 H 673.045 -0.924993 -1.2599 0
M  V30 7187 H 673.78 0.760478 -3.15257 0
M  V30 7188 H 673.565 -0.88358 -3.82015 0
M  V30 7189 H 675.055 0.0405162 -4.1758 0
M  V30 7190 N 675.492 1.28418 -0.913599 0
M  V30 7191 C 676.908 1.47411 -0.611728 0
M  V30 7192 C 677.108 1.83018 0.843008 0
M  V30 7193 O 676.164 1.93505 1.6221 0
M  V30 7194 C 677.477 2.57703 -1.5495 0
M  V30 7195 C 679.025 2.71572 -1.5562 0
M  V30 7196 C 679.5 3.85008 -2.48058 0
M  V30 7197 N 680.991 3.92361 -2.46184 0
M  V30 7198 C 681.726 4.79516 -3.14407 0
M  V30 7199 N 681.222 5.71262 -3.91958 0
M  V30 7200 N 683.015 4.73125 -3.03495 0
M  V30 7201 H 675.166 1.03585 -1.85429 0
M  V30 7202 H 677.429 0.515907 -0.795326 0
M  V30 7203 H 677.135 2.38298 -2.58663 0
M  V30 7204 H 677.009 3.54801 -1.28048 0
M  V30 7205 H 679.396 2.90366 -0.526441 0
M  V30 7206 H 679.477 1.75006 -1.86565 0
M  V30 7207 H 679.121 3.66969 -3.51136 0
M  V30 7208 H 679.051 4.80971 -2.14416 0
M  V30 7209 H 681.542 3.26749 -1.89851 0
M  V30 7210 H 681.855 6.34593 -4.41034 0
M  V30 7211 H 680.2 5.71103 -3.96063 0
M  V30 7212 H 683.391 4.00442 -2.42413 0
M  V30 7213 H 683.564 5.40834 -3.56935 0
M  V30 7214 N 676.97 0.677563 1.42291 0
M  V30 7215 C 677.9 0.014968 2.33495 0
M  V30 7216 C 678.881 -0.786376 1.50831 0
M  V30 7217 O 680.066 -0.742975 1.79426 0
M  V30 7218 C 677.196 -0.935023 3.34477 0
M  V30 7219 C 676.15 -0.242074 4.27315 0
M  V30 7220 C 675.476 -1.30519 5.18526 0
M  V30 7221 C 676.776 0.880604 5.14823 0
M  V30 7222 H 678.47 0.776671 2.89151 0
M  V30 7223 H 676.016 0.37494 1.39033 0
M  V30 7224 H 677.969 -1.40766 3.97194 0
M  V30 7225 H 676.693 -1.72818 2.77131 0
M  V30 7226 H 675.352 0.210351 3.65996 0
M  V30 7227 H 675 -2.09041 4.57505 0
M  V30 7228 H 674.7 -0.846652 5.81468 0
M  V30 7229 H 676.224 -1.7787 5.84119 0
M  V30 7230 H 677.638 0.489062 5.7121 0
M  V30 7231 H 676.035 1.26511 5.86613 0
M  V30 7232 H 677.105 1.72818 4.53059 0
M  V30 7233 N 678.448 -1.51871 0.421078 0
M  V30 7234 C 679.378 -2.30231 -0.389363 0
M  V30 7235 C 680.359 -1.34946 -1.03555 0
M  V30 7236 O 681.544 -1.63859 -1.04229 0
M  V30 7237 C 678.674 -3.13247 -1.49979 0
M  V30 7238 C 677.628 -4.16677 -0.977966 0
M  V30 7239 C 676.954 -4.88112 -2.1829 0
M  V30 7240 C 678.254 -5.22295 -0.0236775 0
M  V30 7241 H 679.948 -2.98229 0.264524 0
M  V30 7242 H 677.494 -1.43424 0.12866 0
M  V30 7243 H 679.447 -3.66838 -2.07383 0
M  V30 7244 H 678.171 -2.4304 -2.18173 0
M  V30 7245 H 676.83 -3.64114 -0.426245 0
M  V30 7246 H 676.478 -4.14423 -2.85066 0
M  V30 7247 H 676.178 -5.58041 -1.84021 0
M  V30 7248 H 677.702 -5.44521 -2.76278 0
M  V30 7249 H 679.116 -5.71055 -0.506899 0
M  V30 7250 H 677.513 -5.99656 0.230782 0
M  V30 7251 H 678.583 -4.76131 0.917999 0
M  V30 7252 N 679.926 -0.151884 -1.56866 0
M  V30 7253 C 681.174 0.497021 -1.95893 0
M  V30 7254 C 681.495 1.65078 -1.03799 0
M  V30 7255 O 680.765 1.95642 -0.10049 0
M  V30 7256 H 679.345 0.186603 -0.723318 0
M  V30 7257 H 682.007 -0.228525 -1.93556 0
M  V30 7258 H 681.103 0.869933 -2.99731 0
M  V30 7259 N 681.404 1.57128 0.121893 0
M  V30 7260 C 682.632 1.88883 0.844451 0
M  V30 7261 C 683.047 0.742824 1.73573 0
M  V30 7262 O 682.404 -0.286475 1.80238 0
M  V30 7263 C 682.455 3.20076 1.68029 0
M  V30 7264 O 682.176 4.30264 0.824898 0
M  V30 7265 C 683.677 3.65515 2.50826 0
M  V30 7266 H 680.897 0.62549 0.242907 0
M  V30 7267 H 683.441 2.04219 0.107151 0
M  V30 7268 H 681.596 3.06418 2.37038 0
M  V30 7269 H 682.01 5.05439 1.40113 0
M  V30 7270 H 683.484 4.60081 3.05008 0
M  V30 7271 H 683.961 2.92029 3.28048 0
M  V30 7272 H 684.567 3.81952 1.87064 0
M  V30 7273 N 682.882 -0.391992 1.52647 0
M  V30 7274 C 683.829 -1.47866 1.77213 0
M  V30 7275 C 684.799 -1.54286 0.615223 0
M  V30 7276 O 685.984 -1.7059 0.854622 0
M  V30 7277 C 683.124 -2.85129 1.94411 0
M  V30 7278 C 682.237 -2.87883 3.22098 0
M  V30 7279 C 681.372 -4.16553 3.29631 0
M  V30 7280 C 680.411 -4.13348 4.51453 0
M  V30 7281 N 679.548 -5.33619 4.56284 0
M  V30 7282 H 684.388 -1.26219 2.6995 0
M  V30 7283 H 681.925 -0.612367 1.33748 0
M  V30 7284 H 683.883 -3.64833 2.02367 0
M  V30 7285 H 682.513 -3.05232 1.05038 0
M  V30 7286 H 681.565 -2.00567 3.23229 0
M  V30 7287 H 682.877 -2.81382 4.11856 0
M  V30 7288 H 682.031 -5.0466 3.36753 0
M  V30 7289 H 680.77 -4.25773 2.37842 0
M  V30 7290 H 679.775 -3.23629 4.44459 0
M  V30 7291 H 681 -4.05754 5.44555 0
M  V30 7292 H 678.946 -5.43474 3.67385 0
M  V30 7293 H 678.863 -5.29182 5.3991 0
M  V30 7294 H 680.131 -6.23632 4.67657 0
M  V30 7295 N 684.36 -1.4356 -0.65026 0
M  V30 7296 C 685.588 -1.48779 -1.43779 0
M  V30 7297 C 686.003 -0.106593 -1.88499 0
M  V30 7298 O 685.36 0.883766 -1.59674 0
M  V30 7299 C 685.411 -2.43618 -2.67081 0
M  V30 7300 O 685.132 -3.76367 -2.24231 0
M  V30 7301 C 686.633 -2.5811 -3.60409 0
M  V30 7302 H 683.853 -0.50521 -0.441593 0
M  V30 7303 H 686.397 -1.88332 -0.796941 0
M  V30 7304 H 684.552 -2.07253 -3.273 0
M  V30 7305 H 684.966 -4.27394 -3.0403 0
M  V30 7306 H 686.44 -3.28539 -4.43583 0
M  V30 7307 H 686.917 -1.627 -4.07953 0
M  V30 7308 H 687.523 -2.95298 -3.0607 0
M  V30 7309 N 685.838 0.888903 -1.30139 0
M  V30 7310 C 687.078 1.65456 -1.20015 0
M  V30 7311 C 687.442 1.90467 0.242148 0
M  V30 7312 O 688.643 2.6472 0.466561 0
M  V30 7313 C 686.914 2.96071 -2.00191 0
M  V30 7314 S 688.473 3.87055 -2.06721 0
M  V30 7315 H 685.291 0.567927 -0.427761 0
M  V30 7316 H 687.893 1.05539 -1.64565 0
M  V30 7317 H 686.597 2.7559 -3.04103 0
M  V30 7318 H 686.128 3.61023 -1.56288 0
M  V30 7319 H 688.143 4.81676 -1.19174 0
M  V30 7320 N 687.317 1.12792 1.10072 0
M  V30 7321 C 688.264 0.79921 2.16521 0
M  V30 7322 C 689.234 -0.235726 1.64419 0
M  V30 7323 O 690.419 -0.109457 1.90486 0
M  V30 7324 C 687.559 0.264091 3.44088 0
M  V30 7325 C 686.672 1.35729 4.10124 0
M  V30 7326 C 685.807 0.781212 5.25424 0
M  V30 7327 C 684.846 1.85327 5.8337 0
M  V30 7328 N 683.983 1.29564 6.90042 0
M  V30 7329 H 688.823 1.71105 2.43981 0
M  V30 7330 H 686.36 0.854225 1.19756 0
M  V30 7331 H 688.318 -0.0642423 4.17151 0
M  V30 7332 H 686.948 -0.610901 3.16967 0
M  V30 7333 H 686 1.80234 3.34993 0
M  V30 7334 H 687.312 2.16782 4.4923 0
M  V30 7335 H 686.466 0.403769 6.05355 0
M  V30 7336 H 685.205 -0.0604686 4.87663 0
M  V30 7337 H 684.21 2.23986 5.02106 0
M  V30 7338 H 685.435 2.69824 6.23195 0
M  V30 7339 H 683.381 0.475844 6.54272 0
M  V30 7340 H 683.298 2.04271 7.2788 0
M  V30 7341 H 684.566 0.945545 7.73744 0
M  V30 7342 N 688.795 -1.27931 0.920396 0
M  V30 7343 C 689.727 -2.26175 0.371169 0
M  V30 7344 C 690.74 -1.55122 -0.494065 0
M  V30 7345 O 691.929 -1.75825 -0.30787 0
M  V30 7346 C 689.029 -3.35376 -0.487481 0
M  V30 7347 C 688.202 -4.35943 0.356772 0
M  V30 7348 C 687.261 -5.24374 -0.438042 0
M  V30 7349 O 686.287 -5.68998 0.151715 0
M  V30 7350 N 687.489 -5.53823 -1.73956 0
M  V30 7351 H 690.254 -2.73938 1.21564 0
M  V30 7352 H 687.815 -1.41482 0.787047 0
M  V30 7353 H 689.807 -3.91476 -1.02609 0
M  V30 7354 H 688.377 -2.87269 -1.23269 0
M  V30 7355 H 687.597 -3.7921 1.07672 0
M  V30 7356 H 688.885 -5.0015 0.934206 0
M  V30 7357 H 688.283 -5.19413 -2.24114 0
M  V30 7358 H 686.84 -6.12653 -2.22486 0
M  V30 7359 N 690.273 -0.685099 -1.4193 0
M  V30 7360 C 691.519 -0.211971 -2.01689 0
M  V30 7361 C 691.852 1.18189 -1.54094 0
M  V30 7362 O 691.127 1.79559 -0.747572 0
M  V30 7363 C 691.41 -0.258019 -3.59174 0
M  V30 7364 C 691.263 -1.68807 -4.16922 0
M  V30 7365 C 692.582 0.388044 -4.38386 0
M  V30 7366 H 689.701 -0.0784987 -0.732808 0
M  V30 7367 H 692.343 -0.871837 -1.68816 0
M  V30 7368 H 690.493 0.303832 -3.8731 0
M  V30 7369 H 692.165 -2.30296 -3.99702 0
M  V30 7370 H 690.408 -2.22553 -3.72361 0
M  V30 7371 H 691.079 -1.6719 -5.26072 0
M  V30 7372 H 693.555 -0.0903432 -4.16002 0
M  V30 7373 H 692.431 0.325232 -5.47936 0
M  V30 7374 H 692.692 1.4672 -4.17044 0
M  V30 7375 N 691.751 1.51645 -0.429126 0
M  V30 7376 C 692.998 2.02015 0.140079 0
M  V30 7377 C 693.326 1.31374 1.43427 0
M  V30 7378 O 692.581 0.414779 1.91254 0
M  V30 7379 C 692.88 3.54989 0.414472 0
M  V30 7380 C 692.546 4.43874 -0.792911 0
M  V30 7381 C 691.208 4.67887 -1.12404 0
M  V30 7382 C 693.56 4.96074 -1.59875 0
M  V30 7383 C 690.888 5.41348 -2.26184 0
M  V30 7384 C 693.24 5.70782 -2.72747 0
M  V30 7385 C 691.904 5.93062 -3.06324 0
M  V30 7386 H 691.174 0.739225 0.0512585 0
M  V30 7387 H 693.821 1.82675 -0.574641 0
M  V30 7388 H 692.126 3.72615 1.21099 0
M  V30 7389 H 693.823 3.91489 0.868173 0
M  V30 7390 H 690.413 4.25374 -0.524871 0
M  V30 7391 H 694.597 4.77412 -1.35614 0
M  V30 7392 H 689.853 5.56815 -2.52522 0
M  V30 7393 H 694.027 6.10221 -3.35564 0
M  V30 7394 H 691.654 6.49764 -3.94602 0
M  V30 7395 N 693.229 0.160201 1.56784 0
M  V30 7396 C 694.161 -0.80564 2.14574 0
M  V30 7397 C 695.174 -1.20154 1.09849 0
M  V30 7398 O 696.363 -1.14333 1.37078 0
M  V30 7399 C 693.463 -2.09434 2.6644 0
M  V30 7400 C 692.636 -1.86375 3.95706 0
M  V30 7401 C 691.695 -2.99358 4.32749 0
M  V30 7402 O 690.721 -2.70475 5.00831 0
M  V30 7403 N 691.923 -4.26867 3.93402 0
M  V30 7404 H 694.688 -0.311644 2.98075 0
M  V30 7405 H 692.249 -0.0229465 1.61884 0
M  V30 7406 H 694.241 -2.84091 2.88226 0
M  V30 7407 H 692.811 -2.50057 1.8759 0
M  V30 7408 H 692.031 -0.956821 3.82412 0
M  V30 7409 H 693.319 -1.68322 4.80151 0
M  V30 7410 H 692.717 -4.53197 3.38569 0
M  V30 7411 H 691.274 -4.98263 4.20211 0
M  V30 7412 N 694.707 -1.5719 -0.113559 0
M  V30 7413 C 695.954 -1.85138 -0.820382 0
M  V30 7414 C 696.282 -0.74608 -1.79622 0
M  V30 7415 O 695.537 0.262077 -1.93937 0
M  V30 7416 C 695.836 -3.19593 -1.59984 0
M  V30 7417 C 695.502 -4.44315 -0.767809 0
M  V30 7418 C 694.164 -4.78179 -0.538379 0
M  V30 7419 C 696.516 -5.2086 -0.188203 0
M  V30 7420 C 693.844 -5.86028 0.28082 0
M  V30 7421 C 696.196 -6.29572 0.618217 0
M  V30 7422 C 694.86 -6.61964 0.857912 0
M  V30 7423 H 694.13 -0.677467 -0.300199 0
M  V30 7424 H 696.777 -1.91322 -0.0825443 0
M  V30 7425 H 695.082 -3.0901 -2.40874 0
M  V30 7426 H 696.779 -3.3844 -2.1508 0
M  V30 7427 H 693.369 -4.17786 -0.956724 0
M  V30 7428 H 697.553 -4.95045 -0.352658 0
M  V30 7429 H 692.809 -6.09547 0.475693 0
M  V30 7430 H 696.983 -6.88064 1.0743 0
M  V30 7431 H 694.61 -7.45365 1.49451 0
M  V30 7432 N 696.185 0.383891 -1.52853 0
M  V30 7433 C 697.148 1.45197 -1.77343 0
M  V30 7434 C 698.148 1.47362 -0.643522 0
M  V30 7435 O 699.338 1.48443 -0.911613 0
M  V30 7436 C 696.47 2.8445 -1.87885 0
M  V30 7437 H 697.663 1.24764 -2.72716 0
M  V30 7438 H 695.216 0.615939 -1.43652 0
M  V30 7439 H 695.951 3.10222 -0.94515 0
M  V30 7440 H 695.736 2.8428 -2.70051 0
M  V30 7441 H 697.226 3.61832 -2.08488 0
M  V30 7442 N 697.663 1.43903 0.642637 0
M  V30 7443 C 698.909 1.46296 1.40447 0
M  V30 7444 C 699.242 0.0908361 1.93987 0
M  V30 7445 O 698.517 -0.889884 1.72949 0
M  V30 7446 C 698.8 2.51399 2.57819 0
M  V30 7447 C 698.653 3.97926 2.09702 0
M  V30 7448 C 699.972 2.53125 3.60022 0
M  V30 7449 H 697.091 0.532676 0.509338 0
M  V30 7450 H 699.733 1.75515 0.727635 0
M  V30 7451 H 697.883 2.26614 3.1556 0
M  V30 7452 H 699.555 4.33804 1.5688 0
M  V30 7453 H 697.798 4.10252 1.40982 0
M  V30 7454 H 698.469 4.67096 2.94152 0
M  V30 7455 H 700.945 2.75242 3.12059 0
M  V30 7456 H 699.821 3.28589 4.39682 0
M  V30 7457 H 700.082 1.56895 4.13324 0
M  V30 7458 N 699.141 -0.881989 1.30609 0
M  V30 7459 C 700.088 -1.98803 1.17244 0
M  V30 7460 C 701.058 -1.65987 0.0611905 0
M  V30 7461 O 702.243 -1.89385 0.231911 0
M  V30 7462 C 699.383 -3.33867 0.87333 0
M  V30 7463 C 698.496 -3.79354 2.06675 0
M  V30 7464 C 697.631 -5.03078 1.70547 0
M  V30 7465 C 696.67 -5.40981 2.86366 0
M  V30 7466 N 695.807 -6.55886 2.50514 0
M  V30 7467 H 700.647 -2.09566 2.11863 0
M  V30 7468 H 698.184 -1.02607 1.05405 0
M  V30 7469 H 700.142 -4.11612 0.680519 0
M  V30 7470 H 698.772 -3.2278 -0.0359983 0
M  V30 7471 H 697.824 -2.97492 2.37071 0
M  V30 7472 H 699.136 -4.03382 2.93401 0
M  V30 7473 H 698.29 -5.88457 1.47658 0
M  V30 7474 H 697.029 -4.80927 0.809947 0
M  V30 7475 H 696.034 -4.54127 3.09917 0
M  V30 7476 H 697.259 -5.65104 3.76609 0
M  V30 7477 H 695.205 -6.35306 1.63471 0
M  V30 7478 H 695.122 -6.79799 3.30771 0
M  V30 7479 H 696.39 -7.44489 2.30989 0
M  V30 7480 N 700.619 -1.13374 -1.09472 0
M  V30 7481 C 701.529 -0.824029 -2.19652 0
M  V30 7482 C 702.545 0.19118 -1.72947 0
M  V30 7483 O 703.721 0.0223464 -2.01388 0
M  V30 7484 C 700.786 -0.294009 -3.45451 0
M  V30 7485 C 699.847 -1.3704 -4.0684 0
M  V30 7486 C 699.08 -0.86558 -5.26634 0
M  V30 7487 O 699.303 0.29702 -5.69626 0
M  V30 7488 O 698.237 -1.63968 -5.79136 0
M  V30 7489 H 702.063 -1.74454 -2.48595 0
M  V30 7490 H 699.648 -0.911155 -1.18399 0
M  V30 7491 H 701.53 -0.00381039 -4.214 0
M  V30 7492 H 700.205 0.598921 -3.18111 0
M  V30 7493 H 699.112 -1.71391 -3.3253 0
M  V30 7494 H 700.445 -2.23746 -4.38405 0
M  V30 7495 N 702.098 1.27442 -0.927168 0
M  V30 7496 C 703.323 1.99036 -0.583042 0
M  V30 7497 C 703.748 1.68711 0.83176 0
M  V30 7498 O 703.106 0.927081 1.55804 0
M  V30 7499 C 703.154 3.51271 -0.814925 0
M  V30 7500 O 702.258 4.12226 0.119742 0
M  V30 7501 H 701.599 0.624883 -0.224538 0
M  V30 7502 H 704.129 1.62263 -1.24628 0
M  V30 7503 H 704.139 4.01411 -0.730282 0
M  V30 7504 H 702.814 3.72676 -1.84623 0
M  V30 7505 H 701.391 3.72897 -0.0147688 0
M  V30 7506 N 703.576 0.692616 1.41565 0
M  V30 7507 C 704.506 0.0397325 2.33466 0
M  V30 7508 C 705.487 -0.770334 1.51657 0
M  V30 7509 O 706.672 -0.723903 1.80203 0
M  V30 7510 C 703.802 -0.899495 3.3545 0
M  V30 7511 C 702.756 -0.196738 4.27548 0
M  V30 7512 C 702.082 -1.25012 5.19881 0
M  V30 7513 C 703.382 0.935158 5.1386 0
M  V30 7514 H 705.076 0.807296 2.88311 0
M  V30 7515 H 702.622 0.389665 1.38628 0
M  V30 7516 H 704.575 -1.36545 3.98665 0
M  V30 7517 H 703.299 -1.69869 2.78948 0
M  V30 7518 H 701.958 0.249158 3.65752 0
M  V30 7519 H 701.606 -2.04177 4.59696 0
M  V30 7520 H 701.306 -0.784931 5.82334 0
M  V30 7521 H 702.83 -1.71665 5.85972 0
M  V30 7522 H 704.244 0.549619 5.70659 0
M  V30 7523 H 702.641 1.32726 5.85238 0
M  V30 7524 H 703.711 1.77613 4.512 0
M  V30 7525 N 705.054 -1.51416 0.437162 0
M  V30 7526 C 706.303 -2.01275 -0.130865 0
M  V30 7527 C 706.616 -1.32593 -1.438 0
M  V30 7528 O 707.822 -1.7342 -2.08897 0
M  V30 7529 C 706.278 -3.5878 -0.283763 0
M  V30 7530 C 705.886 -4.36399 1.01293 0
M  V30 7531 C 707.63 -4.16786 -0.805569 0
M  V30 7532 C 705.537 -5.85608 0.825687 0
M  V30 7533 H 704.467 -0.752157 -0.0526818 0
M  V30 7534 H 707.118 -1.74524 0.566896 0
M  V30 7535 H 705.5 -3.81976 -1.04452 0
M  V30 7536 H 706.674 -4.24948 1.78201 0
M  V30 7537 H 704.989 -3.89843 1.46326 0
M  V30 7538 H 707.586 -5.25972 -0.962146 0
M  V30 7539 H 707.929 -3.75949 -1.78796 0
M  V30 7540 H 708.462 -3.97666 -0.103125 0
M  V30 7541 H 705.201 -6.30857 1.78045 0
M  V30 7542 H 704.721 -5.99723 0.0964029 0
M  V30 7543 H 706.4 -6.45226 0.478815 0
M  V30 7544 N 706.532 -0.168513 -1.56696 0
M  V30 7545 C 707.462 0.758563 -2.20835 0
M  V30 7546 C 708.443 1.24121 -1.1631 0
M  V30 7547 O 709.628 1.29487 -1.4473 0
M  V30 7548 C 706.758 1.9892 -2.8469 0
M  V30 7549 C 705.712 1.64252 -3.95228 0
M  V30 7550 C 705.038 2.94757 -4.46119 0
M  V30 7551 C 706.338 0.872675 -5.14958 0
M  V30 7552 H 708.032 0.223953 -2.98561 0
M  V30 7553 H 705.578 0.106277 -1.43607 0
M  V30 7554 H 707.531 2.64275 -3.28233 0
M  V30 7555 H 706.255 2.5479 -2.04327 0
M  V30 7556 H 704.914 1.01266 -3.52336 0
M  V30 7557 H 704.562 3.48662 -3.62552 0
M  V30 7558 H 704.262 2.72316 -5.2069 0
M  V30 7559 H 705.786 3.61147 -4.92347 0
M  V30 7560 H 707.2 1.42875 -5.55211 0
M  V30 7561 H 705.597 0.747402 -5.95428 0
M  V30 7562 H 706.667 -0.131535 -4.84722 0
M  V30 7563 N 708.01 1.57248 0.105221 0
M  V30 7564 C 708.957 2.01338 1.12835 0
M  V30 7565 C 709.927 0.887897 1.40377 0
M  V30 7566 O 711.112 1.15315 1.5201 0
M  V30 7567 C 708.252 2.43432 2.44611 0
M  V30 7568 C 707.365 3.69457 2.23888 0
M  V30 7569 C 706.5 4.00473 3.48991 0
M  V30 7570 C 705.539 5.19638 3.23485 0
M  V30 7571 N 704.676 5.46457 4.40828 0
M  V30 7572 H 709.516 2.88527 0.745386 0
M  V30 7573 H 707.053 1.42714 0.356535 0
M  V30 7574 H 709.011 2.65879 3.21503 0
M  V30 7575 H 707.641 1.59266 2.80774 0
M  V30 7576 H 706.693 3.54545 1.37847 0
M  V30 7577 H 708.005 4.56497 2.01026 0
M  V30 7578 H 707.159 4.23642 4.34295 0
M  V30 7579 H 705.898 3.11935 3.74897 0
M  V30 7580 H 704.903 4.96299 2.36574 0
M  V30 7581 H 706.128 6.09766 2.98935 0
M  V30 7582 H 704.074 4.60876 4.66829 0
M  V30 7583 H 703.991 6.27849 4.2112 0
M  V30 7584 H 705.259 5.74155 5.27225 0
M  V30 7585 N 709.488 -0.375779 1.53054 0
M  V30 7586 C 710.418 -1.46598 1.81745 0
M  V30 7587 C 711.399 -1.56337 0.670286 0
M  V30 7588 O 712.584 -1.71071 0.919158 0
M  V30 7589 C 709.714 -2.84058 1.99821 0
M  V30 7590 C 708.668 -2.8915 3.15557 0
M  V30 7591 C 707.994 -4.29187 3.18908 0
M  V30 7592 C 709.294 -2.57595 4.54359 0
M  V30 7593 H 710.988 -1.22837 2.73041 0
M  V30 7594 H 708.534 -0.589485 1.31381 0
M  V30 7595 H 710.487 -3.60342 2.18475 0
M  V30 7596 H 709.211 -3.09184 1.05226 0
M  V30 7597 H 707.87 -2.15316 2.96706 0
M  V30 7598 H 707.518 -4.51374 2.2197 0
M  V30 7599 H 707.218 -4.33512 3.96662 0
M  V30 7600 H 708.742 -5.07359 3.39734 0
M  V30 7601 H 710.156 -3.23595 4.73243 0
M  V30 7602 H 708.553 -2.73252 5.34279 0
M  V30 7603 H 709.623 -1.52882 4.60169 0
M  V30 7604 N 710.966 -1.44241 -0.634997 0
M  V30 7605 C 712.377 -1.41622 -1.21655 0
M  V30 7606 C 712.728 -0.129584 -1.95772 0
M  V30 7607 O 711.853 0.770225 -2.02229 0
M  V30 7608 C 712.448 -2.56557 -2.21278 0
M  V30 7609 C 711.007 -2.57145 -2.7487 0
M  V30 7610 C 710.154 -2.33354 -1.49804 0
M  V30 7611 H 713.105 -1.52878 -0.425905 0
M  V30 7612 H 713.126 -2.29089 -3.03807 0
M  V30 7613 H 712.638 -3.50186 -1.67306 0
M  V30 7614 H 710.739 -1.67447 -3.32855 0
M  V30 7615 H 710.852 -3.55507 -3.21172 0
M  V30 7616 H 709.216 -1.82372 -1.77799 0
M  V30 7617 H 709.999 -3.29092 -0.977402 0
M  V30 7618 N 712.444 0.87505 -1.31075 0
M  V30 7619 C 713.672 1.66058 -1.23419 0
M  V30 7620 C 714.087 1.87723 0.201347 0
M  V30 7621 O 713.444 1.43178 1.13165 0
M  V30 7622 C 713.495 3.03142 -1.96945 0
M  V30 7623 O 713.216 2.82448 -3.34895 0
M  V30 7624 C 714.717 3.97583 -1.96067 0
M  V30 7625 H 711.937 0.517868 -0.426677 0
M  V30 7626 H 714.481 1.09258 -1.72867 0
M  V30 7627 H 712.636 3.56645 -1.51271 0
M  V30 7628 H 713.05 3.69483 -3.72267 0
M  V30 7629 H 714.524 4.91104 -2.52034 0
M  V30 7630 H 715.001 4.2898 -0.941961 0
M  V30 7631 H 715.607 3.50015 -2.41597 0
M  V30 7632 N 713.922 1.13953 1.08869 0
M  V30 7633 C 715.199 0.815768 1.77777 0
M  V30 7634 C 715.579 -0.691624 1.99449 0
M  V30 7635 O 714.927 -1.63085 1.60049 0
M  V30 7636 C 715.137 1.60916 3.09689 0
M  V30 7637 C 716.485 1.80549 3.84301 0
M  V30 7638 O 717.509 1.57562 3.19457 0
M  V30 7639 O 716.368 2.18946 5.00724 0
M  V30 7640 H 713.462 0.298445 0.771271 0
M  V30 7641 H 716.008 1.24446 1.15374 0
M  V30 7642 H 714.78 2.6333 2.89435 0
M  V30 7643 H 714.403 1.17578 3.79817 0
M  V30 7644 N 715.4 -1.26948 0.933913 0
M  V30 7645 C 716.31 -2.30366 0.443671 0
M  V30 7646 C 717.326 -1.67284 -0.478745 0
M  V30 7647 O 718.502 -1.98156 -0.360043 0
M  V30 7648 C 715.567 -3.45485 -0.289974 0
M  V30 7649 C 714.628 -4.24069 0.668114 0
M  V30 7650 C 713.861 -5.33691 -0.0306138 0
M  V30 7651 O 714.084 -5.5656 -1.24888 0
M  V30 7652 O 713.018 -5.98441 0.644384 0
M  V30 7653 H 716.844 -2.74349 1.30254 0
M  V30 7654 H 714.429 -1.32012 0.699506 0
M  V30 7655 H 716.311 -4.15486 -0.70353 0
M  V30 7656 H 714.986 -3.03546 -1.12435 0
M  V30 7657 H 713.893 -3.56579 1.13147 0
M  V30 7658 H 715.226 -4.69739 1.46989 0
M  V30 7659 N 716.879 -0.700114 -1.41195 0
M  V30 7660 C 717.809 -0.0521132 -2.33442 0
M  V30 7661 C 718.79 0.76228 -1.52063 0
M  V30 7662 O 719.975 0.714336 -1.80585 0
M  V30 7663 C 717.105 0.881693 -3.35922 0
M  V30 7664 C 716.059 0.174062 -4.27646 0
M  V30 7665 C 715.385 1.22254 -5.20536 0
M  V30 7666 C 716.685 -0.962396 -5.13357 0
M  V30 7667 H 718.379 -0.822574 -2.87879 0
M  V30 7668 H 715.925 -0.397011 -1.38419 0
M  V30 7669 H 717.878 1.34429 -3.99383 0
M  V30 7670 H 716.602 1.68387 -2.79845 0
M  V30 7671 H 715.261 -0.268551 -3.65615 0
M  V30 7672 H 714.909 2.01736 -4.60773 0
M  V30 7673 H 714.609 0.754038 -5.82742 0
M  V30 7674 H 716.133 1.68555 -5.86874 0
M  V30 7675 H 717.547 -0.579875 -5.7036 0
M  V30 7676 H 715.944 -1.35828 -5.84526 0
M  V30 7677 H 717.014 -1.80003 -4.50252 0
M  V30 7678 N 718.357 1.51182 -0.445186 0
M  V30 7679 C 719.29 2.24528 0.4077 0
M  V30 7680 C 720.268 1.26778 1.01814 0
M  V30 7681 O 721.452 1.55934 1.05909 0
M  V30 7682 C 718.579 3.00171 1.56892 0
M  V30 7683 C 717.625 4.12641 1.0784 0
M  V30 7684 S 718.458 5.35498 0.014049 0
M  V30 7685 C 719.614 6.14681 1.17975 0
M  V30 7686 H 719.847 2.96522 -0.214987 0
M  V30 7687 H 717.38 1.52681 -0.229781 0
M  V30 7688 H 719.338 3.44349 2.23459 0
M  V30 7689 H 717.999 2.27752 2.16304 0
M  V30 7690 H 717.192 4.64875 1.94698 0
M  V30 7691 H 716.794 3.70765 0.490852 0
M  V30 7692 H 719.086 6.44244 2.09658 0
M  V30 7693 H 720.029 7.04659 0.697222 0
M  V30 7694 H 720.437 5.46299 1.42187 0
M  V30 7695 N 719.835 0.176821 1.56605 0
M  V30 7696 C 720.783 -0.768159 2.1955 0
M  V30 7697 C 721.777 -1.23343 1.16116 0
M  V30 7698 O 722.983 -1.19844 1.34303 0
M  V30 7699 H 719.358 -0.266013 0.703378 0
M  V30 7700 H 721.329 -0.213374 2.97636 0
M  V30 7701 C 720.078 -1.98492 2.85475 0
M  V30 7702 H 719.401 -1.63595 3.64797 0
M  V30 7703 H 720.841 -2.62489 3.3298 0
M  V30 7704 C 719.3 -2.81207 1.85538 0
M  V30 7705 O 719.83 -3.7854 1.34427 0
M  V30 7706 N 718.036 -2.46331 1.54173 0
M  V30 7707 H 717.583 -1.67241 1.95929 0
M  V30 7708 H 717.541 -3.01961 0.875595 0
M  V30 7709 N 721.313 -1.57302 -0.09688 0
M  V30 7710 C 722.724 -1.7496 -0.651595 0
M  V30 7711 C 723.075 -0.798746 -1.79205 0
M  V30 7712 O 722.2 0.0231858 -2.16388 0
M  V30 7713 C 722.795 -3.17259 -1.18878 0
M  V30 7714 C 721.354 -3.36348 -1.68958 0
M  V30 7715 C 720.501 -2.70766 -0.598413 0
M  V30 7716 H 723.452 -1.58173 0.12918 0
M  V30 7717 H 723.473 -3.20033 -2.05814 0
M  V30 7718 H 722.985 -3.8644 -0.358523 0
M  V30 7719 H 721.086 -2.72243 -2.5439 0
M  V30 7720 H 721.199 -4.44654 -1.7838 0
M  V30 7721 H 719.563 -2.32615 -1.03743 0
M  V30 7722 H 720.346 -3.42586 0.221238 0
M  V30 7723 N 722.791 0.367657 -1.53252 0
M  V30 7724 C 724.016 1.13566 -1.73544 0
M  V30 7725 C 724.441 1.82329 -0.462344 0
M  V30 7726 O 723.799 1.71655 0.583472 0
M  V30 7727 C 723.847 2.14322 -2.89997 0
M  V30 7728 O 722.951 3.21359 -2.58461 0
M  V30 7729 H 722.292 0.329614 -0.576412 0
M  V30 7730 H 724.822 0.425417 -2.00128 0
M  V30 7731 H 724.832 2.57958 -3.16104 0
M  V30 7732 H 723.507 1.63664 -3.82344 0
M  V30 7733 H 722.084 2.8271 -2.43165 0
M  V30 7734 N 724.269 1.44576 0.627338 0
M  V30 7735 C 725.201 1.47724 1.75243 0
M  V30 7736 C 726.214 0.370193 1.58535 0
M  V30 7737 O 727.403 0.636151 1.66779 0
M  V30 7738 C 724.503 1.2991 3.13012 0
M  V30 7739 C 723.676 2.5393 3.56143 0
M  V30 7740 C 722.735 2.30961 4.72804 0
M  V30 7741 O 721.761 3.04469 4.80923 0
M  V30 7742 N 722.963 1.34261 5.6476 0
M  V30 7743 H 725.728 2.44718 1.73012 0
M  V30 7744 H 723.289 1.40064 0.812022 0
M  V30 7745 H 725.281 1.12385 3.88782 0
M  V30 7746 H 723.851 0.412668 3.09864 0
M  V30 7747 H 723.071 2.86707 2.70542 0
M  V30 7748 H 724.359 3.36411 3.81713 0
M  V30 7749 H 723.757 0.735573 5.60897 0
M  V30 7750 H 722.314 1.22713 6.40144 0
M  V30 7751 N 725.747 -0.868086 1.31537 0
M  V30 7752 C 726.694 -1.97548 1.19346 0
M  V30 7753 C 727.664 -1.65913 0.0787922 0
M  V30 7754 O 728.849 -1.89129 0.251985 0
M  V30 7755 C 725.989 -3.32922 0.908692 0
M  V30 7756 C 725.102 -3.77141 2.10687 0
M  V30 7757 C 724.237 -5.01241 1.75873 0
M  V30 7758 C 723.276 -5.37914 2.92088 0
M  V30 7759 N 722.413 -6.53192 2.57457 0
M  V30 7760 H 727.253 -2.07307 2.14074 0
M  V30 7761 H 724.79 -1.01483 1.06487 0
M  V30 7762 H 726.748 -4.10867 0.724138 0
M  V30 7763 H 725.378 -3.228 -0.0017611 0
M  V30 7764 H 724.43 -2.94961 2.40213 0
M  V30 7765 H 725.742 -4.00248 2.97663 0
M  V30 7766 H 724.896 -5.86858 1.53891 0
M  V30 7767 H 723.635 -4.80041 0.86091 0
M  V30 7768 H 722.64 -4.50814 3.14717 0
M  V30 7769 H 723.865 -5.61077 3.82582 0
M  V30 7770 H 721.811 -6.33536 1.702 0
M  V30 7771 H 721.728 -6.76252 3.37963 0
M  V30 7772 H 722.996 -7.41997 2.38873 0
M  V30 7773 N 727.225 -1.14528 -1.08264 0
M  V30 7774 C 728.172 -0.833556 -2.15222 0
M  V30 7775 C 729.142 0.209539 -1.64773 0
M  V30 7776 O 730.327 0.0791388 -1.90636 0
M  V30 7777 C 727.467 -0.318799 -3.43624 0
M  V30 7778 C 726.58 -1.42237 -4.07913 0
M  V30 7779 C 725.715 -0.864704 -5.24115 0
M  V30 7780 C 724.754 -1.94585 -5.80347 0
M  V30 7781 N 723.891 -1.40525 -6.87893 0
M  V30 7782 H 728.731 -1.74965 -2.41228 0
M  V30 7783 H 726.268 -0.873169 -1.18381 0
M  V30 7784 H 728.226 -0.00213088 -4.172 0
M  V30 7785 H 726.856 0.560397 -3.17898 0
M  V30 7786 H 725.908 -1.8554 -3.32083 0
M  V30 7787 H 727.22 -2.23901 -4.45724 0
M  V30 7788 H 726.374 -0.500025 -6.04636 0
M  V30 7789 H 725.113 -0.0171219 -4.87697 0
M  V30 7790 H 724.118 -2.31946 -4.98479 0
M  V30 7791 H 725.343 -2.79704 -6.18823 0
M  V30 7792 H 723.289 -0.579873 -6.53432 0
M  V30 7793 H 723.206 -2.15825 -7.24538 0
M  V30 7794 H 724.474 -1.06852 -7.72142 0
M  V30 7795 N 728.703 1.26451 -0.940633 0
M  V30 7796 C 729.65 2.264 -0.448497 0
M  V30 7797 C 730.62 1.5866 0.491546 0
M  V30 7798 O 731.805 1.86389 0.407874 0
M  V30 7799 C 728.945 3.43956 0.280715 0
M  V30 7800 C 728.058 4.26374 -0.694937 0
M  V30 7801 C 727.193 5.31171 0.0554186 0
M  V30 7802 C 726.232 6.05266 -0.912091 0
M  V30 7803 N 725.369 7.01833 -0.193524 0
M  V30 7804 H 730.209 2.67869 -1.30576 0
M  V30 7805 H 727.746 1.31707 -0.655112 0
M  V30 7806 H 729.704 4.10941 0.71994 0
M  V30 7807 H 728.334 3.03403 1.10212 0
M  V30 7808 H 727.386 3.59183 -1.25267 0
M  V30 7809 H 728.698 4.77748 -1.43382 0
M  V30 7810 H 727.852 6.04166 0.553951 0
M  V30 7811 H 726.591 4.80634 0.827183 0
M  V30 7812 H 725.596 5.31099 -1.42175 0
M  V30 7813 H 726.821 6.57893 -1.68385 0
M  V30 7814 H 724.767 6.53607 0.559758 0
M  V30 7815 H 724.684 7.50957 -0.871744 0
M  V30 7816 H 725.952 7.78983 0.283932 0
M  V30 7817 N 730.181 0.707592 1.40822 0
M  V30 7818 C 731.597 0.38034 1.55002 0
M  V30 7819 C 731.797 -1.11163 1.68062 0
M  V30 7820 O 730.853 -1.89761 1.66574 0
M  V30 7821 C 732.166 1.1394 2.78277 0
M  V30 7822 C 733.714 1.12492 2.92087 0
M  V30 7823 C 734.189 1.86597 4.18265 0
M  V30 7824 N 735.68 1.83626 4.25248 0
M  V30 7825 C 736.415 2.37794 5.21768 0
M  V30 7826 N 735.911 3.00485 6.24244 0
M  V30 7827 N 737.704 2.27982 5.13791 0
M  V30 7828 H 729.855 1.67511 1.3059 0
M  V30 7829 H 732.118 0.707579 0.630901 0
M  V30 7830 H 731.824 2.19398 2.74877 0
M  V30 7831 H 731.698 0.725793 3.70151 0
M  V30 7832 H 734.085 0.0785564 2.94995 0
M  V30 7833 H 734.166 1.57768 2.01353 0
M  V30 7834 H 733.81 2.91219 4.16118 0
M  V30 7835 H 733.74 1.38746 5.07993 0
M  V30 7836 H 736.231 1.3793 3.51829 0
M  V30 7837 H 736.544 3.39355 6.94304 0
M  V30 7838 H 734.889 3.04567 6.24711 0
M  V30 7839 H 738.08 1.78669 4.3266 0
M  V30 7840 H 738.253 2.70499 5.88841 0
M  V30 7841 N 731.66 -1.50943 0.453197 0
M  V30 7842 C 732.607 -2.28128 -0.350197 0
M  V30 7843 C 733.577 -1.32398 -1.00299 0
M  V30 7844 O 734.762 -1.61319 -1.01887 0
M  V30 7845 C 731.902 -3.13782 -1.43649 0
M  V30 7846 C 731.015 -4.24523 -0.800255 0
M  V30 7847 C 730.15 -4.97462 -1.86293 0
M  V30 7848 C 729.189 -6.00102 -1.20598 0
M  V30 7849 N 728.326 -6.66387 -2.21071 0
M  V30 7850 H 733.166 -2.96337 0.31434 0
M  V30 7851 H 730.703 -1.46151 0.166863 0
M  V30 7852 H 732.661 -3.6178 -2.07776 0
M  V30 7853 H 731.291 -2.47655 -2.07044 0
M  V30 7854 H 730.343 -3.80371 -0.0468651 0
M  V30 7855 H 731.655 -4.98009 -0.280777 0
M  V30 7856 H 730.809 -5.49088 -2.58044 0
M  V30 7857 H 729.548 -4.23642 -2.41617 0
M  V30 7858 H 728.553 -5.47753 -0.474 0
M  V30 7859 H 729.778 -6.75887 -0.659859 0
M  V30 7860 H 727.724 -5.9537 -2.75446 0
M  V30 7861 H 727.641 -7.3569 -1.74058 0
M  V30 7862 H 728.909 -7.22638 -2.92257 0
M  V30 7863 N 733.138 -0.185124 -1.56509 0
M  V30 7864 C 734.088 0.752315 -2.15231 0
M  V30 7865 C 735.072 1.18327 -1.0903 0
M  V30 7866 O 736.264 1.14333 -1.35119 0
M  V30 7867 C 733.393 1.97583 -2.80742 0
M  V30 7868 C 732.479 1.56623 -3.94119 0
M  V30 7869 N 732.87 0.867008 -4.98314 0
M  V30 7870 C 731.168 1.85626 -4.05535 0
M  V30 7871 C 731.869 0.663228 -5.77907 0
M  V30 7872 N 730.845 1.20891 -5.29987 0
M  V30 7873 H 734.647 0.209267 -2.93154 0
M  V30 7874 H 732.161 0.0150444 -1.62393 0
M  V30 7875 H 734.158 2.65779 -3.21197 0
M  V30 7876 H 732.818 2.52369 -2.04303 0
M  V30 7877 H 733.829 0.52355 -5.15247 0
M  V30 7878 H 730.506 2.41992 -3.40215 0
M  V30 7879 H 731.896 0.109273 -6.71811 0
M  V30 7880 N 734.616 1.57351 0.0885366 0
M  V30 7881 C 736.032 1.53331 0.442916 0
M  V30 7882 C 736.232 0.902831 1.80142 0
M  V30 7883 O 735.288 0.498147 2.47537 0
M  V30 7884 C 736.601 2.98036 0.399372 0
M  V30 7885 C 738.149 3.09286 0.480759 0
M  V30 7886 C 738.624 4.5561 0.467296 0
M  V30 7887 N 740.115 4.60182 0.52786 0
M  V30 7888 C 740.85 5.70857 0.539388 0
M  V30 7889 N 740.346 6.90944 0.506729 0
M  V30 7890 N 742.139 5.59051 0.584691 0
M  V30 7891 H 734.29 1.96709 -0.801215 0
M  V30 7892 H 736.553 0.899639 -0.298922 0
M  V30 7893 H 736.259 3.47656 -0.531806 0
M  V30 7894 H 736.133 3.57066 1.21589 0
M  V30 7895 H 738.52 2.5965 1.40236 0
M  V30 7896 H 738.601 2.53197 -0.364023 0
M  V30 7897 H 738.245 5.05899 -0.450384 0
M  V30 7898 H 738.175 5.09544 1.32938 0
M  V30 7899 H 740.666 3.73757 0.558028 0
M  V30 7900 H 740.979 7.71055 0.518989 0
M  V30 7901 H 739.324 6.93384 0.473675 0
M  V30 7902 H 742.515 4.64138 0.607781 0
M  V30 7903 H 742.688 6.45307 0.590206 0
M  V30 7904 N 736.094 -0.359525 1.53444 0
M  V30 7905 C 737.024 -1.44662 1.8329 0
M  V30 7906 C 738.005 -1.55617 0.68683 0
M  V30 7907 O 739.19 -1.70086 0.93725 0
M  V30 7908 C 736.32 -2.81923 2.02822 0
M  V30 7909 C 735.274 -2.85787 3.18606 0
M  V30 7910 C 734.6 -4.25781 3.23442 0
M  V30 7911 C 735.9 -2.52762 4.57065 0
M  V30 7912 H 737.594 -1.19934 2.74329 0
M  V30 7913 H 735.14 -0.575517 1.31999 0
M  V30 7914 H 737.093 -3.58005 2.22285 0
M  V30 7915 H 735.817 -3.08051 1.085 0
M  V30 7916 H 734.476 -2.12157 2.98973 0
M  V30 7917 H 734.124 -4.48994 2.26745 0
M  V30 7918 H 733.824 -4.29281 4.01238 0
M  V30 7919 H 735.348 -5.03727 3.45096 0
M  V30 7920 H 736.762 -3.18557 4.76649 0
M  V30 7921 H 735.159 -2.67569 5.37147 0
M  V30 7922 H 736.229 -1.47993 4.61764 0
M  V30 7923 N 737.572 -1.44907 -0.619662 0
M  V30 7924 C 738.818 -1.49504 -1.37914 0
M  V30 7925 C 739.173 -0.130158 -1.91959 0
M  V30 7926 O 738.466 0.856263 -1.71402 0
M  V30 7927 C 738.66 -2.50002 -2.55409 0
M  V30 7928 C 738.489 -3.96128 -2.12867 0
M  V30 7929 C 737.259 -4.64204 -1.99606 0
M  V30 7930 C 739.457 -4.85014 -1.71074 0
M  V30 7931 N 737.439 -5.95104 -1.50748 0
M  V30 7932 C 738.81 -6.05447 -1.33544 0
M  V30 7933 C 740.865 -4.71979 -1.58557 0
M  V30 7934 C 739.568 -7.1429 -0.847484 0
M  V30 7935 C 741.594 -5.80858 -1.11165 0
M  V30 7936 C 740.956 -7.00439 -0.745932 0
M  V30 7937 H 737.055 -0.60207 -0.499034 0
M  V30 7938 H 739.639 -1.81305 -0.70968 0
M  V30 7939 H 737.81 -2.20172 -3.19967 0
M  V30 7940 H 739.542 -2.44823 -3.22248 0
M  V30 7941 H 736.297 -4.19182 -2.20417 0
M  V30 7942 H 736.721 -6.64676 -1.28585 0
M  V30 7943 H 741.363 -3.79953 -1.85461 0
M  V30 7944 H 739.081 -8.06116 -0.565974 0
M  V30 7945 H 742.667 -5.72803 -1.01923 0
M  V30 7946 H 741.547 -7.83255 -0.384848 0
M  V30 7947 N 739.05 0.861098 -1.31996 0
M  V30 7948 C 740.013 1.95068 -1.20338 0
M  V30 7949 C 741.013 1.60289 -0.128114 0
M  V30 7950 O 742.203 1.70048 -0.378044 0
M  V30 7951 C 739.335 3.30153 -0.849205 0
M  V30 7952 H 740.528 2.06833 -2.17164 0
M  V30 7953 H 738.081 1.05049 -1.15734 0
M  V30 7954 H 738.816 3.24087 0.117508 0
M  V30 7955 H 738.601 3.56771 -1.62655 0
M  V30 7956 H 740.091 4.10025 -0.791782 0
M  V30 7957 N 740.528 1.15101 1.07655 0
M  V30 7958 C 741.491 0.847625 2.12951 0
M  V30 7959 C 742.491 -0.151227 1.60087 0
M  V30 7960 O 743.681 0.0780399 1.74025 0
M  V30 7961 C 740.813 0.265 3.39868 0
M  V30 7962 H 742.006 1.7809 2.41296 0
M  V30 7963 H 739.559 0.958072 1.23494 0
M  V30 7964 H 740.294 -0.676625 3.17163 0
M  V30 7965 H 740.079 0.984554 3.79538 0
M  V30 7966 H 741.569 0.0702121 4.17541 0
M  V30 7967 N 742.006 -1.2595 0.947325 0
M  V30 7968 C 742.956 -2.23859 0.432547 0
M  V30 7969 C 743.94 -1.53755 -0.474154 0
M  V30 7970 O 745.132 -1.74293 -0.308397 0
M  V30 7971 C 742.261 -3.42027 -0.295318 0
M  V30 7972 C 741.347 -4.19409 0.62903 0
M  V30 7973 N 741.738 -4.74284 1.7575 0
M  V30 7974 C 740.036 -4.43866 0.435805 0
M  V30 7975 C 740.737 -5.32821 2.33401 0
M  V30 7976 N 739.713 -5.18858 1.62135 0
M  V30 7977 H 743.515 -2.63886 1.29388 0
M  V30 7978 H 741.029 -1.41105 0.80393 0
M  V30 7979 H 743.026 -4.11297 -0.681188 0
M  V30 7980 H 741.686 -3.03526 -1.15334 0
M  V30 7981 H 742.697 -4.71641 2.13952 0
M  V30 7982 H 739.374 -4.15768 -0.37994 0
M  V30 7983 H 740.764 -5.86111 3.28517 0
M  V30 7984 N 743.484 -0.715051 -1.40445 0
M  V30 7985 C 744.724 -0.258742 -2.02756 0
M  V30 7986 C 745.088 1.12661 -1.55472 0
M  V30 7987 O 746.289 1.67988 -2.09842 0
M  V30 7988 C 744.56 -0.335201 -3.55825 0
M  V30 7989 S 746.119 0.044201 -4.38778 0
M  V30 7990 H 742.937 -0.102683 -0.703546 0
M  V30 7991 H 745.539 -0.937151 -1.71574 0
M  V30 7992 H 744.243 -1.34511 -3.87731 0
M  V30 7993 H 743.774 0.361705 -3.91734 0
M  V30 7994 H 745.789 1.26639 -4.79768 0
M  V30 7995 N 744.962 1.50701 -0.461195 0
M  V30 7996 C 746.378 1.59187 -0.114786 0
M  V30 7997 C 746.578 1.4702 1.37794 0
M  V30 7998 O 745.634 1.32361 2.15027 0
M  V30 7999 C 746.947 2.93453 -0.656167 0
M  V30 8000 C 748.495 3.06824 -0.618715 0
M  V30 8001 C 748.97 4.4365 -1.13747 0
M  V30 8002 N 750.461 4.50035 -1.09646 0
M  V30 8003 C 751.196 5.54278 -1.46846 0
M  V30 8004 N 750.692 6.65822 -1.91448 0
M  V30 8005 N 752.485 5.44767 -1.38512 0
M  V30 8006 H 744.636 1.56853 -1.43216 0
M  V30 8007 H 746.899 0.740712 -0.59165 0
M  V30 8008 H 746.605 3.07802 -1.7015 0
M  V30 8009 H 746.479 3.77082 -0.0942261 0
M  V30 8010 H 748.866 2.92129 0.417685 0
M  V30 8011 H 748.947 2.24976 -1.21734 0
M  V30 8012 H 748.591 4.59093 -2.17245 0
M  V30 8013 H 748.521 5.24074 -0.515153 0
M  V30 8014 H 751.012 3.69988 -0.769217 0
M  V30 8015 H 751.325 7.41413 -2.18007 0
M  V30 8016 H 749.67 6.66968 -1.95393 0
M  V30 8017 H 752.861 4.56511 -1.03516 0
M  V30 8018 H 753.034 6.25889 -1.6783 0
M  V30 8019 N 746.441 0.193421 1.56409 0
M  V30 8020 C 747.388 -0.728124 2.19014 0
M  V30 8021 C 748.358 -1.21098 1.13686 0
M  V30 8022 O 749.543 -1.27517 1.4193 0
M  V30 8023 C 746.683 -1.94277 2.8522 0
M  V30 8024 C 745.796 -1.50143 4.05069 0
M  V30 8025 C 744.931 -2.67145 4.59137 0
M  V30 8026 C 743.97 -2.19609 5.71348 0
M  V30 8027 N 743.107 -3.29782 6.19829 0
M  V30 8028 H 747.947 -0.187499 2.9741 0
M  V30 8029 H 745.484 -0.0808064 1.46878 0
M  V30 8030 H 747.442 -2.65551 3.21774 0
M  V30 8031 H 746.072 -2.45673 2.09391 0
M  V30 8032 H 745.124 -0.684624 3.74189 0
M  V30 8033 H 746.436 -1.11266 4.86232 0
M  V30 8034 H 745.59 -3.46544 4.97988 0
M  V30 8035 H 744.329 -3.09295 3.77078 0
M  V30 8036 H 743.334 -1.38664 5.32027 0
M  V30 8037 H 744.559 -1.78492 6.55223 0
M  V30 8038 H 742.505 -3.71466 5.40693 0
M  V30 8039 H 742.422 -2.95069 6.96039 0
M  V30 8040 H 743.69 -4.094 6.63334 0
M  V30 8041 N 747.919 -1.57396 -0.0801906 0
M  V30 8042 C 749.168 -1.8602 -0.779702 0
M  V30 8043 C 749.481 -0.784864 -1.79163 0
M  V30 8044 O 750.687 -0.958691 -2.54011 0
M  V30 8045 C 749.143 -3.29942 -1.43758 0
M  V30 8046 C 748.751 -4.45584 -0.464654 0
M  V30 8047 C 750.495 -3.67775 -2.11995 0
M  V30 8048 C 748.402 -5.80544 -1.12797 0
M  V30 8049 H 747.332 -0.69392 -0.294943 0
M  V30 8050 H 749.983 -1.83471 -0.0328527 0
M  V30 8051 H 748.365 -3.27078 -2.2324 0
M  V30 8052 H 749.539 -4.59824 0.299749 0
M  V30 8053 H 747.854 -4.16247 0.112813 0
M  V30 8054 H 750.451 -4.65896 -2.62383 0
M  V30 8055 H 750.794 -2.9715 -2.91561 0
M  V30 8056 H 751.327 -3.72593 -1.39354 0
M  V30 8057 H 748.066 -6.54439 -0.372807 0
M  V30 8058 H 747.586 -5.70119 -1.86344 0
M  V30 8059 H 749.265 -6.25602 -1.6502 0
M  V30 8060 N 749.397 0.351382 -1.53633 0
M  V30 8061 C 750.329 1.45159 -1.77374 0
M  V30 8062 C 751.342 1.4905 -0.654826 0
M  V30 8063 O 752.531 1.52274 -0.931396 0
M  V30 8064 C 749.631 2.83858 -1.85143 0
M  V30 8065 C 748.804 3.03498 -3.14972 0
M  V30 8066 C 747.863 4.22393 -3.138 0
M  V30 8067 O 746.889 4.16885 -3.87551 0
M  V30 8068 N 748.091 5.30533 -2.35617 0
M  V30 8069 H 750.856 1.25167 -2.72311 0
M  V30 8070 H 748.417 0.54121 -1.52586 0
M  V30 8071 H 750.409 3.61557 -1.8182 0
M  V30 8072 H 748.979 2.9703 -0.974275 0
M  V30 8073 H 748.199 2.13336 -3.31484 0
M  V30 8074 H 749.487 3.13498 -4.00745 0
M  V30 8075 H 748.885 5.37875 -1.75235 0
M  V30 8076 H 747.442 6.06756 -2.38098 0
M  V30 8077 N 750.875 1.45233 0.611969 0
M  V30 8078 C 751.805 1.5641 1.73373 0
M  V30 8079 C 752.786 0.415896 1.64937 0
M  V30 8080 O 753.971 0.638478 1.83404 0
M  V30 8081 C 751.101 1.52627 3.11965 0
M  V30 8082 C 750.055 2.66119 3.35208 0
M  V30 8083 C 749.381 2.4739 4.74028 0
M  V30 8084 C 750.681 4.08157 3.25891 0
M  V30 8085 H 752.375 2.50307 1.64277 0
M  V30 8086 H 749.921 1.20467 0.788904 0
M  V30 8087 H 751.874 1.59043 3.90235 0
M  V30 8088 H 750.598 0.552564 3.21892 0
M  V30 8089 H 749.257 2.59123 2.59327 0
M  V30 8090 H 748.905 1.48168 4.80682 0
M  V30 8091 H 748.605 3.23494 4.90536 0
M  V30 8092 H 750.129 2.55653 5.54503 0
M  V30 8093 H 751.543 4.1642 3.9404 0
M  V30 8094 H 749.94 4.84617 3.5393 0
M  V30 8095 H 751.01 4.30374 2.23397 0
M  V30 8096 N 752.353 -0.854086 1.3245 0
M  V30 8097 C 753.3 -1.96271 1.21434 0
M  V30 8098 C 754.27 -1.6582 0.0963851 0
M  V30 8099 O 755.455 -1.88851 0.27203 0
M  V30 8100 C 752.595 -3.31939 0.943952 0
M  V30 8101 C 751.708 -3.74885 2.14675 0
M  V30 8102 C 750.843 -4.99347 1.81179 0
M  V30 8103 C 749.882 -5.34785 2.97777 0
M  V30 8104 N 749.019 -6.50425 2.6437 0
M  V30 8105 H 753.859 -2.05025 2.16261 0
M  V30 8106 H 751.396 -1.00348 1.07558 0
M  V30 8107 H 753.354 -4.10076 0.767675 0
M  V30 8108 H 751.984 -3.22784 0.0324763 0
M  V30 8109 H 751.036 -2.92396 2.43328 0
M  V30 8110 H 752.348 -3.97068 3.01891 0
M  V30 8111 H 751.502 -5.85193 1.60107 0
M  V30 8112 H 750.241 -4.79101 0.911777 0
M  V30 8113 H 749.246 -4.47451 3.1948 0
M  V30 8114 H 750.471 -5.56988 3.88511 0
M  V30 8115 H 748.417 -6.31695 1.7691 0
M  V30 8116 H 748.334 -6.7263 3.45116 0
M  V30 8117 H 749.602 -7.39422 2.46729 0
M  V30 8118 N 753.831 -1.1567 -1.07043 0
M  V30 8119 C 754.778 -0.856336 -2.14326 0
M  V30 8120 C 755.748 0.192051 -1.64986 0
M  V30 8121 O 756.933 0.0589148 -1.90709 0
M  V30 8122 C 754.073 -0.355227 -3.43267 0
M  V30 8123 C 753.186 -1.46555 -4.06381 0
M  V30 8124 C 752.321 -0.920245 -5.23168 0
M  V30 8125 C 751.36 -2.00729 -5.78251 0
M  V30 8126 N 750.497 -1.47813 -6.86364 0
M  V30 8127 H 755.337 -1.77514 -2.39359 0
M  V30 8128 H 752.874 -0.885676 -1.17449 0
M  V30 8129 H 754.832 -0.0463804 -4.17174 0
M  V30 8130 H 753.462 0.526649 -3.18475 0
M  V30 8131 H 752.514 -1.89052 -3.30096 0
M  V30 8132 H 753.826 -2.28616 -4.43324 0
M  V30 8133 H 752.98 -0.564127 -6.04072 0
M  V30 8134 H 751.719 -0.0688477 -4.87651 0
M  V30 8135 H 750.724 -2.3722 -4.95991 0
M  V30 8136 H 751.949 -2.86252 -6.15822 0
M  V30 8137 H 749.895 -0.649145 -6.5278 0
M  V30 8138 H 749.812 -2.23498 -7.22208 0
M  V30 8139 H 751.08 -1.15036 -7.70965 0
M  V30 8140 N 755.309 1.25446 -0.953992 0
M  V30 8141 C 756.586 1.884 -0.525823 0
M  V30 8142 C 756.966 1.86079 0.996891 0
M  V30 8143 O 756.314 1.32389 1.8624 0
M  V30 8144 C 756.524 3.31154 -1.10172 0
M  V30 8145 C 757.872 4.07926 -1.17819 0
M  V30 8146 O 758.896 3.40273 -1.05323 0
M  V30 8147 O 757.755 5.28942 -1.37415 0
M  V30 8148 H 754.849 0.808629 -0.173345 0
M  V30 8149 H 757.395 1.33522 -1.04738 0
M  V30 8150 H 756.167 3.27271 -2.14499 0
M  V30 8151 H 755.79 3.93588 -0.56338 0
M  V30 8152 N 756.787 0.722489 1.40064 0
M  V30 8153 C 757.735 0.063329 2.32514 0
M  V30 8154 C 758.729 -0.73953 1.52405 0
M  V30 8155 O 759.935 -0.642122 1.68157 0
M  V30 8156 H 756.31 0.00167692 0.751998 0
M  V30 8157 H 758.281 0.859656 2.85749 0
M  V30 8158 C 757.03 -0.839219 3.3742 0
M  V30 8159 H 756.353 -0.230836 3.99133 0
M  V30 8160 H 757.793 -1.26827 4.04587 0
M  V30 8161 C 756.252 -1.96783 2.73456 0
M  V30 8162 O 756.782 -3.05933 2.60323 0
M  V30 8163 N 754.988 -1.75351 2.31734 0
M  V30 8164 H 754.535 -0.865787 2.42615 0
M  V30 8165 H 754.493 -2.51043 1.89275 0
M  V30 8166 N 758.265 -1.50454 0.469181 0
M  V30 8167 C 759.49 -2.0722 -0.0864892 0
M  V30 8168 C 759.915 -1.33098 -1.32916 0
M  V30 8169 O 759.273 -0.378084 -1.77314 0
M  V30 8170 C 759.321 -3.58845 -0.355384 0
M  V30 8171 O 758.425 -3.86583 -1.43622 0
M  V30 8172 H 757.766 -0.663889 0.0121414 0
M  V30 8173 H 760.296 -1.93674 0.659674 0
M  V30 8174 H 760.306 -4.03617 -0.596447 0
M  V30 8175 H 758.981 -4.12211 0.552698 0
M  V30 8176 H 757.558 -3.5365 -1.18262 0
M  V30 8177 N 759.743 -0.201713 -1.56304 0
M  V30 8178 C 760.968 0.443815 -2.02596 0
M  V30 8179 C 761.393 1.53945 -1.08086 0
M  V30 8180 O 760.751 1.81182 -0.0655056 0
M  V30 8181 C 760.799 0.971066 -3.47279 0
M  V30 8182 O 759.903 2.0836 -3.55893 0
M  V30 8183 H 759.244 0.10294 -0.655972 0
M  V30 8184 H 761.774 -0.314533 -2.02168 0
M  V30 8185 H 761.784 1.28598 -3.87204 0
M  V30 8186 H 760.459 0.169048 -4.15556 0
M  V30 8187 H 759.036 1.77683 -3.27846 0
M  V30 8188 N 761.222 1.57436 0.0718424 0
M  V30 8189 C 762.45 1.91474 0.783932 0
M  V30 8190 C 762.865 0.797669 1.71122 0
M  V30 8191 O 762.222 -0.228989 1.81058 0
M  V30 8192 C 762.273 3.25259 1.57761 0
M  V30 8193 O 761.994 4.3267 0.687596 0
M  V30 8194 C 763.495 3.7331 2.3907 0
M  V30 8195 H 760.715 0.632901 0.222885 0
M  V30 8196 H 763.259 2.04457 0.0421262 0
M  V30 8197 H 761.414 3.13804 2.27169 0
M  V30 8198 H 761.828 5.09641 1.23962 0
M  V30 8199 H 763.302 4.69551 2.90216 0
M  V30 8200 H 763.779 3.02318 3.18591 0
M  V30 8201 H 764.385 3.8771 1.74818 0
M  V30 8202 N 762.7 -0.34323 1.53817 0
M  V30 8203 C 763.632 -1.44216 1.78141 0
M  V30 8204 C 764.645 -1.48701 0.662721 0
M  V30 8205 O 765.834 -1.51778 0.939458 0
M  V30 8206 C 762.934 -2.82872 1.86646 0
M  V30 8207 C 762.107 -3.01824 3.16577 0
M  V30 8208 C 761.166 -4.20723 3.16036 0
M  V30 8209 O 760.192 -4.14824 3.89756 0
M  V30 8210 N 761.394 -5.29276 2.38427 0
M  V30 8211 H 764.159 -1.23721 2.72971 0
M  V30 8212 H 761.72 -0.53311 1.52871 0
M  V30 8213 H 763.712 -3.60588 1.83735 0
M  V30 8214 H 762.282 -2.96509 0.990014 0
M  V30 8215 H 761.502 -2.11575 3.3261 0
M  V30 8216 H 762.79 -3.11369 4.02402 0
M  V30 8217 H 762.188 -5.36938 1.78085 0
M  V30 8218 H 760.745 -6.05484 2.41313 0
M  V30 8219 N 764.178 -1.45556 -0.604258 0
M  V30 8220 C 765.424 -1.49968 -1.36519 0
M  V30 8221 C 765.757 -0.142236 -1.93678 0
M  V30 8222 O 765.032 0.843717 -1.75247 0
M  V30 8223 C 765.315 -2.58146 -2.51063 0
M  V30 8224 C 765.168 -4.03346 -1.99078 0
M  V30 8225 C 766.487 -2.62581 -3.53184 0
M  V30 8226 H 763.606 -0.545993 -0.495036 0
M  V30 8227 H 766.248 -1.77382 -0.680845 0
M  V30 8228 H 764.398 -2.34901 -3.09441 0
M  V30 8229 H 766.07 -4.37811 -1.45323 0
M  V30 8230 H 764.313 -4.13845 -1.30055 0
M  V30 8231 H 764.984 -4.74731 -2.81664 0
M  V30 8232 H 767.46 -2.83419 -3.04652 0
M  V30 8233 H 766.336 -3.40131 -4.30816 0
M  V30 8234 H 766.597 -1.67798 -4.09019 0
M  V30 8235 N 765.656 0.84705 -1.32902 0
M  V30 8236 C 766.886 1.63166 -1.26729 0
M  V30 8237 C 767.294 1.88474 0.165595 0
M  V30 8238 O 766.637 1.45947 1.11558 0
M  V30 8239 C 766.699 3.0103 -1.96522 0
M  V30 8240 C 766.363 2.9873 -3.45846 0
M  V30 8241 C 767.36 2.75032 -4.41196 0
M  V30 8242 C 765.045 3.19125 -3.87898 0
M  V30 8243 C 767.039 2.71743 -5.76571 0
M  V30 8244 C 764.726 3.15462 -5.2338 0
M  V30 8245 C 765.724 2.91801 -6.17528 0
M  V30 8246 O 765.412 2.88027 -7.5053 0
M  V30 8247 H 765.144 0.51469 -0.438258 0
M  V30 8248 H 767.698 1.06383 -1.75704 0
M  V30 8249 H 765.928 3.59634 -1.42128 0
M  V30 8250 H 767.617 3.61821 -1.83958 0
M  V30 8251 H 768.383 2.59034 -4.10032 0
M  V30 8252 H 764.262 3.36565 -3.15032 0
M  V30 8253 H 767.806 2.53194 -6.5003 0
M  V30 8254 H 763.703 3.31006 -5.54171 0
M  V30 8255 H 764.471 3.03927 -7.59981 0
M  V30 8256 N 767.134 1.16236 1.06428 0
M  V30 8257 C 768.082 0.863669 2.15971 0
M  V30 8258 C 769.076 -0.166723 1.68578 0
M  V30 8259 O 770.282 -0.0208425 1.79988 0
M  V30 8260 H 766.657 0.261684 0.705 0
M  V30 8261 H 768.628 1.79498 2.38376 0
M  V30 8262 C 767.377 0.379697 3.45621 0
M  V30 8263 H 766.7 1.16399 3.82481 0
M  V30 8264 H 768.14 0.209458 4.23482 0
M  V30 8265 C 766.599 -0.900499 3.24642 0
M  V30 8266 O 767.129 -1.97004 3.50074 0
M  V30 8267 N 765.335 -0.843721 2.78082 0
M  V30 8268 H 764.882 0.0268429 2.57586 0
M  V30 8269 H 764.84 -1.70078 2.64425 0
M  V30 8270 N 768.612 -1.24939 0.960631 0
M  V30 8271 C 769.842 -1.96595 0.635123 0
M  V30 8272 C 770.25 -1.71538 -0.798206 0
M  V30 8273 O 769.593 -0.991727 -1.5463 0
M  V30 8274 C 769.655 -3.49994 0.821248 0
M  V30 8275 C 769.319 -3.98738 2.23287 0
M  V30 8276 C 770.316 -4.08965 3.21004 0
M  V30 8277 C 768.001 -4.32247 2.55867 0
M  V30 8278 C 769.995 -4.52025 4.49391 0
M  V30 8279 C 767.682 -4.74991 3.84482 0
M  V30 8280 C 768.68 -4.84844 4.81056 0
M  V30 8281 O 768.368 -5.26638 6.07378 0
M  V30 8282 H 768.1 -0.633265 0.23654 0
M  V30 8283 H 770.654 -1.5991 1.28911 0
M  V30 8284 H 768.884 -3.86543 0.110105 0
M  V30 8285 H 770.573 -4.02859 0.495892 0
M  V30 8286 H 771.339 -3.83302 2.97161 0
M  V30 8287 H 767.218 -4.23801 1.81421 0
M  V30 8288 H 770.762 -4.5963 5.24773 0
M  V30 8289 H 766.659 -5.00101 4.08129 0
M  V30 8290 H 767.427 -5.44807 6.10842 0
M  V30 8291 N 770.09 -0.729906 -1.39679 0
M  V30 8292 C 771.022 -0.0470588 -2.29152 0
M  V30 8293 C 772.035 0.708808 -1.4656 0
M  V30 8294 O 773.224 0.553815 -1.69691 0
M  V30 8295 C 770.324 0.957612 -3.25089 0
M  V30 8296 C 769.497 0.264321 -4.36601 0
M  V30 8297 C 768.556 1.17638 -5.12882 0
M  V30 8298 O 767.582 0.655777 -5.6541 0
M  V30 8299 N 768.784 2.50649 -5.23598 0
M  V30 8300 H 771.549 -0.815364 -2.88395 0
M  V30 8301 H 769.11 -0.578707 -1.51204 0
M  V30 8302 H 771.102 1.57026 -3.72995 0
M  V30 8303 H 769.672 1.62716 -2.66912 0
M  V30 8304 H 768.892 -0.528732 -3.90638 0
M  V30 8305 H 770.18 -0.216344 -5.0834 0
M  V30 8306 H 769.578 2.95427 -4.82431 0
M  V30 8307 H 768.135 3.07022 -5.74961 0
M  V30 8308 N 771.568 1.50203 -0.477153 0
M  V30 8309 C 772.979 1.86685 -0.0235041 0
M  V30 8310 C 773.33 1.39148 1.38319 0
M  V30 8311 O 772.455 0.759051 2.02651 0
M  V30 8312 C 773.05 3.38781 -0.0358767 0
M  V30 8313 C 771.609 3.74652 0.362327 0
M  V30 8314 C 770.756 2.7412 -0.41875 0
M  V30 8315 H 773.707 1.4286 -0.691133 0
M  V30 8316 H 773.728 3.72732 0.764924 0
M  V30 8317 H 773.24 3.73349 -1.05981 0
M  V30 8318 H 771.341 3.45686 1.39039 0
M  V30 8319 H 771.454 4.79063 0.059457 0
M  V30 8320 H 769.818 2.54376 0.128341 0
M  V30 8321 H 770.601 3.11532 -1.44231 0
M  V30 8322 N 773.046 0.209999 1.56195 0
M  V30 8323 C 774.286 -0.4268 1.99894 0
M  V30 8324 C 774.65 -1.57763 1.0943 0
M  V30 8325 O 775.851 -2.27964 1.42428 0
M  V30 8326 C 774.122 -0.861188 3.46869 0
M  V30 8327 S 775.681 -1.49372 4.12593 0
M  V30 8328 H 772.499 -0.135922 0.697887 0
M  V30 8329 H 775.101 0.316573 1.9292 0
M  V30 8330 H 773.805 -0.0137653 4.10398 0
M  V30 8331 H 773.336 -1.63766 3.57693 0
M  V30 8332 H 775.351 -2.7827 4.10829 0
M  V30 8333 N 774.524 -1.57472 -0.0634922 0
M  V30 8334 C 775.801 -1.78736 -0.794538 0
M  V30 8335 C 776.181 -0.799645 -1.95369 0
M  V30 8336 O 775.529 0.165521 -2.279 0
M  V30 8337 C 775.739 -3.25471 -1.25975 0
M  V30 8338 C 777.087 -3.89528 -1.68976 0
M  V30 8339 O 778.111 -3.29412 -1.35521 0
M  V30 8340 O 776.97 -4.95305 -2.30944 0
M  V30 8341 H 774.064 -0.733813 -0.381376 0
M  V30 8342 H 776.61 -1.69646 -0.0429258 0
M  V30 8343 H 775.382 -3.88922 -0.430721 0
M  V30 8344 H 775.005 -3.39317 -2.07243 0
M  V30 8345 N 776.003 0.335068 -1.53997 0
M  V30 8346 C 776.953 1.4127 -1.7896 0
M  V30 8347 C 777.937 1.474 -0.64513 0
M  V30 8348 O 779.129 1.52127 -0.904785 0
M  V30 8349 C 776.258 2.78292 -2.01018 0
M  V30 8350 C 775.344 2.7652 -3.21555 0
M  V30 8351 N 775.735 2.44374 -4.42849 0
M  V30 8352 C 774.033 3.0766 -3.22895 0
M  V30 8353 C 774.734 2.51049 -5.24737 0
M  V30 8354 N 773.71 2.8702 -4.6165 0
M  V30 8355 H 777.512 1.15327 -2.70327 0
M  V30 8356 H 775.026 0.543483 -1.53036 0
M  V30 8357 H 777.023 3.55949 -2.17039 0
M  V30 8358 H 775.683 3.05175 -1.10898 0
M  V30 8359 H 776.694 2.17422 -4.70051 0
M  V30 8360 H 773.371 3.3966 -2.42771 0
M  V30 8361 H 774.761 2.29283 -6.31569 0
M  V30 8362 N 777.481 1.45874 0.596531 0
M  V30 8363 C 778.892 1.44798 1.17857 0
M  V30 8364 C 779.243 0.181443 1.95359 0
M  V30 8365 O 778.368 -0.716336 2.042 0
M  V30 8366 C 778.963 2.62333 2.14398 0
M  V30 8367 C 777.522 2.64342 2.67955 0
M  V30 8368 C 776.669 2.37244 1.43564 0
M  V30 8369 H 779.62 1.53954 0.385222 0
M  V30 8370 H 779.641 2.37063 2.97626 0
M  V30 8371 H 779.153 3.54499 1.57963 0
M  V30 8372 H 777.254 1.76213 3.28298 0
M  V30 8373 H 777.367 3.63897 3.11634 0
M  V30 8374 H 775.731 1.87022 1.72901 0
M  V30 8375 H 776.514 3.31568 0.889805 0
M  V30 8376 N 778.959 -0.83999 1.33349 0
M  V30 8377 C 780.236 -1.57973 1.15342 0
M  V30 8378 C 780.616 -2.09226 -0.280632 0
M  V30 8379 O 779.964 -1.89317 -1.2795 0
M  V30 8380 C 780.174 -2.71446 2.19359 0
M  V30 8381 C 781.522 -3.40654 2.53456 0
M  V30 8382 O 782.546 -2.81686 2.18017 0
M  V30 8383 O 781.405 -4.47101 3.14266 0
M  V30 8384 H 778.499 -0.6964 0.446044 0
M  V30 8385 H 781.045 -0.882843 1.44927 0
M  V30 8386 H 779.817 -2.31205 3.1569 0
M  V30 8387 H 779.44 -3.488 1.90852 0
M  V30 8388 N 780.437 -1.16799 -1.0581 0
M  V30 8389 C 781.853 -0.913935 -1.30841 0
M  V30 8390 C 782.053 0.430439 -1.96849 0
M  V30 8391 O 781.109 1.16885 -2.23817 0
M  V30 8392 C 782.422 -2.06662 -2.18429 0
M  V30 8393 C 783.97 -2.10294 -2.31831 0
M  V30 8394 C 784.445 -3.2493 -3.22776 0
M  V30 8395 N 785.936 -3.24678 -3.30361 0
M  V30 8396 C 786.671 -4.10021 -4.00837 0
M  V30 8397 N 786.167 -5.05461 -4.73795 0
M  V30 8398 N 787.96 -3.97991 -3.96937 0
M  V30 8399 H 780.111 -2.03343 -0.613613 0
M  V30 8400 H 782.374 -0.88754 -0.333133 0
M  V30 8401 H 782.08 -3.03791 -1.77211 0
M  V30 8402 H 781.954 -2.01233 -3.19038 0
M  V30 8403 H 784.341 -1.13754 -2.72294 0
M  V30 8404 H 784.422 -2.19786 -1.30873 0
M  V30 8405 H 784.066 -4.21731 -2.83028 0
M  V30 8406 H 783.996 -3.12674 -4.23725 0
M  V30 8407 H 786.487 -2.55573 -2.78372 0
M  V30 8408 H 786.8 -5.66989 -5.25113 0
M  V30 8409 H 785.145 -5.09436 -4.72758 0
M  V30 8410 H 788.336 -3.2273 -3.39062 0
M  V30 8411 H 788.509 -4.64722 -4.51594 0
M  V30 8412 N 781.915 1.24427 -0.967243 0
M  V30 8413 C 783.326 1.74349 -0.667785 0
M  V30 8414 C 783.677 1.78403 0.816509 0
M  V30 8415 O 782.802 1.41315 1.63887 0
M  V30 8416 C 783.397 3.16628 -1.20548 0
M  V30 8417 C 781.956 3.64059 -0.955934 0
M  V30 8418 C 781.103 2.42715 -1.34106 0
M  V30 8419 H 784.054 1.10136 -1.14262 0
M  V30 8420 H 784.075 3.76183 -0.571547 0
M  V30 8421 H 783.587 3.13646 -2.28578 0
M  V30 8422 H 781.688 3.72441 0.108858 0
M  V30 8423 H 781.801 4.51549 -1.60126 0
M  V30 8424 H 780.165 2.43114 -0.759452 0
M  V30 8425 H 780.948 2.42414 -2.43085 0
M  V30 8426 N 783.393 0.737304 1.3929 0
M  V30 8427 C 784.633 0.290966 2.02318 0
M  V30 8428 C 784.997 -1.10174 1.57244 0
M  V30 8429 O 786.198 -1.64628 2.12488 0
M  V30 8430 C 784.469 0.391767 3.55246 0
M  V30 8431 S 786.028 0.0256103 4.38793 0
M  V30 8432 H 782.846 0.113862 0.701824 0
M  V30 8433 H 785.448 0.964329 1.70062 0
M  V30 8434 H 784.152 1.40662 3.85542 0
M  V30 8435 H 783.683 -0.299338 3.9226 0
M  V30 8436 H 785.698 -1.18991 4.81722 0
M  V30 8437 N 784.871 -1.49948 0.485112 0
M  V30 8438 C 786.148 -1.95186 -0.12726 0
M  V30 8439 C 786.528 -1.42605 -1.5565 0
M  V30 8440 O 785.876 -0.632986 -2.19558 0
M  V30 8441 C 786.086 -3.48955 -0.0562117 0
M  V30 8442 C 787.434 -4.23932 -0.238106 0
M  V30 8443 O 788.458 -3.55955 -0.132145 0
M  V30 8444 O 787.317 -5.44614 -0.453658 0
M  V30 8445 H 784.411 -0.820433 -0.104014 0
M  V30 8446 H 786.957 -1.60659 0.546517 0
M  V30 8447 H 785.729 -3.79814 0.941122 0
M  V30 8448 H 785.352 -3.90056 -0.770834 0
M  V30 8449 N 786.349 -0.21828 -1.56081 0
M  V30 8450 C 787.574 0.422302 -2.03055 0
M  V30 8451 C 787.999 1.5279 -1.09713 0
M  V30 8452 O 787.357 1.81102 -0.0847187 0
M  V30 8453 C 787.405 0.934177 -3.48289 0
M  V30 8454 O 786.509 2.04574 -3.58083 0
M  V30 8455 H 785.85 0.0959764 -0.657027 0
M  V30 8456 H 788.38 -0.335958 -2.01823 0
M  V30 8457 H 788.39 1.24484 -3.88546 0
M  V30 8458 H 787.065 0.124963 -4.15712 0
M  V30 8459 H 785.642 1.74196 -3.29712 0
M  V30 8460 N 787.827 1.57504 0.0551401 0
M  V30 8461 C 789.055 1.92294 0.76358 0
M  V30 8462 C 789.47 0.815774 1.70266 0
M  V30 8463 O 788.827 -0.209772 1.8129 0
M  V30 8464 C 788.878 3.26914 1.54302 0
M  V30 8465 O 788.599 4.33375 0.641666 0
M  V30 8466 C 790.1 3.75825 2.35097 0
M  V30 8467 H 787.32 0.635229 0.216159 0
M  V30 8468 H 789.864 2.0449 0.0204385 0
M  V30 8469 H 788.019 3.16196 2.23828 0
M  V30 8470 H 788.433 5.10927 1.1855 0
M  V30 8471 H 789.907 4.72603 2.8522 0
M  V30 8472 H 790.384 3.0568 3.15367 0
M  V30 8473 H 790.99 3.89542 1.70696 0
M  V30 8474 N 789.305 -0.326896 1.54172 0
M  V30 8475 C 790.545 -1.07349 1.73941 0
M  V30 8476 C 790.909 -1.85355 0.50075 0
M  V30 8477 O 792.11 -2.62562 0.575731 0
M  V30 8478 C 790.381 -1.97636 2.97783 0
M  V30 8479 S 791.94 -2.79292 3.3844 0
M  V30 8480 H 788.758 -0.362459 0.611673 0
M  V30 8481 H 791.36 -0.349884 1.92344 0
M  V30 8482 H 790.064 -1.39158 3.86087 0
M  V30 8483 H 789.595 -2.74406 2.81895 0
M  V30 8484 H 791.61 -4.00106 2.93478 0
M  V30 8485 N 790.784 -1.46188 -0.588786 0
M  V30 8486 C 792.195 -1.45421 -1.17088 0
M  V30 8487 C 792.546 -0.191801 -1.9526 0
M  V30 8488 O 791.671 0.705497 -2.04577 0
M  V30 8489 C 792.266 -2.63467 -2.13004 0
M  V30 8490 C 790.825 -2.6576 -2.6655 0
M  V30 8491 C 789.972 -2.38002 -1.42304 0
M  V30 8492 H 792.923 -1.54156 -0.377052 0
M  V30 8493 H 792.944 -2.38638 -2.96365 0
M  V30 8494 H 792.456 -3.55331 -1.56081 0
M  V30 8495 H 790.557 -1.77952 -3.27359 0
M  V30 8496 H 790.67 -3.65545 -3.09699 0
M  V30 8497 H 789.034 -1.87936 -1.71907 0
M  V30 8498 H 789.817 -3.32035 -0.872209 0
M  V30 8499 N 792.262 0.832906 -1.33792 0
M  V30 8500 C 793.502 1.60217 -1.26925 0
M  V30 8501 C 793.866 1.91323 0.161146 0
M  V30 8502 O 795.067 2.66461 0.353864 0
M  V30 8503 C 793.338 2.87314 -2.12568 0
M  V30 8504 S 794.897 3.77939 -2.22952 0
M  V30 8505 H 791.715 0.549273 -0.451464 0
M  V30 8506 H 794.317 0.984648 -1.68893 0
M  V30 8507 H 793.021 2.62444 -3.15518 0
M  V30 8508 H 792.552 3.5407 -1.71459 0
M  V30 8509 H 794.567 4.76188 -1.39496 0
M  V30 8510 N 793.74 1.17359 1.05189 0
M  V30 8511 C 794.989 0.956412 1.77583 0
M  V30 8512 C 795.302 -0.516018 1.88671 0
M  V30 8513 O 796.508 -0.851401 2.57805 0
M  V30 8514 C 794.964 1.66203 3.19225 0
M  V30 8515 C 794.572 3.17299 3.16267 0
M  V30 8516 C 796.316 1.52725 3.96075 0
M  V30 8517 C 794.223 3.8055 4.52698 0
M  V30 8518 H 793.153 0.354204 0.665624 0
M  V30 8519 H 795.804 1.40612 1.17901 0
M  V30 8520 H 794.186 1.14006 3.79234 0
M  V30 8521 H 795.36 3.76431 2.65776 0
M  V30 8522 H 793.675 3.3079 2.52917 0
M  V30 8523 H 796.272 1.97351 4.96947 0
M  V30 8524 H 796.615 0.477803 4.13549 0
M  V30 8525 H 797.148 2.02139 3.42614 0
M  V30 8526 H 793.887 4.85492 4.4043 0
M  V30 8527 H 793.407 3.26206 5.03339 0
M  V30 8528 H 795.086 3.82757 5.21638 0
M  V30 8529 N 795.218 -1.23913 0.973828 0
M  V30 8530 C 796.151 -2.23647 0.45355 0
M  V30 8531 C 797.129 -1.55485 -0.475724 0
M  V30 8532 O 798.313 -1.84083 -0.405689 0
M  V30 8533 C 795.44 -3.36942 -0.344594 0
M  V30 8534 C 794.486 -4.23221 0.527859 0
M  V30 8535 S 795.319 -4.97877 1.97177 0
M  V30 8536 C 796.475 -6.14627 1.18258 0
M  V30 8537 H 796.708 -2.67433 1.29873 0
M  V30 8538 H 794.241 -1.33289 0.779322 0
M  V30 8539 H 796.199 -4.02647 -0.799103 0
M  V30 8540 H 794.86 -2.91703 -1.16482 0
M  V30 8541 H 794.053 -5.03928 -0.0852555 0
M  V30 8542 H 793.655 -3.6255 0.918344 0
M  V30 8543 H 795.947 -6.76066 0.440629 0
M  V30 8544 H 796.89 -6.80311 1.96425 0
M  V30 8545 H 797.298 -5.6009 0.704256 0
M  V30 8546 N 796.696 -0.74468 -1.38897 0
M  V30 8547 C 797.924 -0.307428 -2.04603 0
M  V30 8548 C 798.339 1.06115 -1.56157 0
M  V30 8549 O 797.696 1.67233 -0.730701 0
M  V30 8550 C 797.747 -0.31101 -3.6016 0
M  V30 8551 O 797.468 -1.62557 -4.06825 0
M  V30 8552 C 798.969 0.141213 -4.43075 0
M  V30 8553 H 796.189 -0.132741 -0.657739 0
M  V30 8554 H 798.733 -1.01104 -1.77759 0
M  V30 8555 H 796.888 0.343792 -3.85872 0
M  V30 8556 H 797.302 -1.54569 -5.01207 0
M  V30 8557 H 798.776 0.0875449 -5.51931 0
M  V30 8558 H 799.253 1.18782 -4.22833 0
M  V30 8559 H 799.859 -0.484383 -4.22533 0
M  V30 8560 N 798.174 1.49689 -0.493057 0
M  V30 8561 C 799.106 2.26867 0.326195 0
M  V30 8562 C 800.119 1.33083 0.937697 0
M  V30 8563 O 801.308 1.58427 0.822382 0
M  V30 8564 C 798.408 3.0519 1.4735 0
M  V30 8565 C 797.581 4.26491 0.970767 0
M  V30 8566 C 796.64 4.86926 1.99473 0
M  V30 8567 O 795.666 5.47221 1.56647 0
M  V30 8568 N 796.868 4.75871 3.32456 0
M  V30 8569 H 799.633 2.97816 -0.335547 0
M  V30 8570 H 797.194 1.58602 -0.325129 0
M  V30 8571 H 799.186 3.42496 2.15589 0
M  V30 8572 H 797.756 2.369 2.03954 0
M  V30 8573 H 796.976 3.94036 0.113529 0
M  V30 8574 H 798.264 5.05092 0.613156 0
M  V30 8575 H 797.662 4.2797 3.69944 0
M  V30 8576 H 796.219 5.17383 3.96431 0
M  V30 8577 N 799.652 0.226554 1.55963 0
M  V30 8578 C 800.6 -0.697922 2.21882 0
M  V30 8579 C 801.594 -1.19586 1.19981 0
M  V30 8580 O 802.8 -1.15511 1.38048 0
M  V30 8581 H 799.175 -0.243501 0.711485 0
M  V30 8582 H 801.146 -0.118576 2.98164 0
M  V30 8583 C 799.895 -1.89309 2.91646 0
M  V30 8584 H 799.218 -1.51906 3.69817 0
M  V30 8585 H 800.658 -2.51762 3.41162 0
M  V30 8586 C 799.117 -2.75162 1.94391 0
M  V30 8587 O 799.647 -3.74071 1.46402 0
M  V30 8588 N 797.853 -2.41302 1.61932 0
M  V30 8589 H 797.4 -1.60923 2.01151 0
M  V30 8590 H 797.358 -2.99023 0.971219 0
M  V30 8591 N 801.13 -1.57531 -0.0467866 0
M  V30 8592 C 802.377 -1.88451 -0.74112 0
M  V30 8593 C 802.705 -0.821592 -1.76296 0
M  V30 8594 O 801.96 0.179585 -1.94874 0
M  V30 8595 C 802.259 -3.26091 -1.46285 0
M  V30 8596 C 801.925 -4.47171 -0.578669 0
M  V30 8597 C 800.587 -4.80032 -0.335083 0
M  V30 8598 C 802.939 -5.2119 0.0328809 0
M  V30 8599 C 800.267 -5.84309 0.529121 0
M  V30 8600 C 802.619 -6.26383 0.884684 0
M  V30 8601 C 801.283 -6.57729 1.1379 0
M  V30 8602 H 800.553 -0.68959 -0.271195 0
M  V30 8603 H 803.2 -1.915 -0.00132378 0
M  V30 8604 H 801.505 -3.18948 -2.27551 0
M  V30 8605 H 803.202 -3.47258 -2.00532 0
M  V30 8606 H 799.792 -4.21467 -0.778666 0
M  V30 8607 H 803.976 -4.96096 -0.142375 0
M  V30 8608 H 799.232 -6.06981 0.733794 0
M  V30 8609 H 803.406 -6.82888 1.36516 0
M  V30 8610 H 801.033 -7.38355 1.80929 0
M  V30 8611 N 802.608 0.318715 -1.54344 0
M  V30 8612 C 803.848 1.06425 -1.74508 0
M  V30 8613 C 804.212 1.85087 -0.510572 0
M  V30 8614 O 805.413 2.62253 -0.589647 0
M  V30 8615 C 803.684 1.96054 -2.98827 0
M  V30 8616 S 805.243 2.77493 -3.39916 0
M  V30 8617 H 802.061 0.35921 -0.613587 0
M  V30 8618 H 804.663 0.339679 -1.92526 0
M  V30 8619 H 803.367 1.37109 -3.8682 0
M  V30 8620 H 802.898 2.72908 -2.83346 0
M  V30 8621 H 804.913 3.98544 -2.95596 0
M  V30 8622 N 804.086 1.46499 0.581025 0
M  V30 8623 C 804.996 1.59778 1.71779 0
M  V30 8624 C 806.012 0.481223 1.67213 0
M  V30 8625 O 807.188 0.74557 1.87091 0
M  V30 8626 C 804.253 1.58626 3.08283 0
M  V30 8627 C 803.314 2.81527 3.241 0
M  V30 8628 C 802.547 2.80421 4.54092 0
M  V30 8629 O 802.77 1.89262 5.38085 0
M  V30 8630 O 801.704 3.71984 4.73193 0
M  V30 8631 H 805.53 2.55918 1.63523 0
M  V30 8632 H 803.115 1.29311 0.748267 0
M  V30 8633 H 804.997 1.60686 3.89561 0
M  V30 8634 H 803.672 0.656467 3.16973 0
M  V30 8635 H 802.579 2.85021 2.42309 0
M  V30 8636 H 803.912 3.73721 3.20302 0
M  V30 8637 N 805.565 -0.825799 1.34232 0
M  V30 8638 C 806.512 -1.93651 1.2557 0
M  V30 8639 C 807.482 -1.65578 0.131536 0
M  V30 8640 O 808.667 -1.88231 0.312027 0
M  V30 8641 C 805.807 -3.29862 1.01415 0
M  V30 8642 C 804.92 -3.70247 2.22579 0
M  V30 8643 C 804.055 -4.95392 1.91731 0
M  V30 8644 C 803.094 -5.28349 3.09053 0
M  V30 8645 N 802.231 -6.44671 2.78107 0
M  V30 8646 H 807.071 -2.00392 2.20561 0
M  V30 8647 H 804.608 -0.980441 1.09662 0
M  V30 8648 H 806.566 -4.08356 0.854485 0
M  V30 8649 H 805.196 -3.22642 0.100936 0
M  V30 8650 H 804.248 -2.87169 2.49476 0
M  V30 8651 H 805.56 -3.90575 3.10246 0
M  V30 8652 H 804.714 -5.81665 1.72484 0
M  V30 8653 H 803.453 -4.77059 1.0132 0
M  V30 8654 H 802.458 -4.40574 3.289 0
M  V30 8655 H 803.683 -5.48622 4.00239 0
M  V30 8656 H 801.629 -6.278 1.9027 0
M  V30 8657 H 801.546 -6.65158 3.59306 0
M  V30 8658 H 802.814 -7.34022 2.62358 0
M  V30 8659 N 807.043 -1.17915 -1.04565 0
M  V30 8660 C 808.29 -0.971424 -1.77678 0
M  V30 8661 C 808.618 0.499401 -1.87979 0
M  V30 8662 O 807.873 1.38695 -1.38066 0
M  V30 8663 C 808.172 -1.56528 -3.213 0
M  V30 8664 C 807.838 -3.06138 -3.31044 0
M  V30 8665 C 806.5 -3.46974 -3.33411 0
M  V30 8666 C 808.852 -4.02151 -3.31548 0
M  V30 8667 C 806.18 -4.82406 -3.33918 0
M  V30 8668 C 808.532 -5.37492 -3.33595 0
M  V30 8669 C 807.196 -5.77782 -3.34251 0
M  V30 8670 H 806.466 -0.355469 -0.650171 0
M  V30 8671 H 809.113 -1.46902 -1.22849 0
M  V30 8672 H 807.418 -0.98955 -3.79098 0
M  V30 8673 H 809.115 -1.38003 -3.76505 0
M  V30 8674 H 805.705 -2.73589 -3.29919 0
M  V30 8675 H 809.889 -3.71656 -3.28916 0
M  V30 8676 H 805.145 -5.12927 -3.3274 0
M  V30 8677 H 809.319 -6.1166 -3.32934 0
M  V30 8678 H 806.946 -6.82702 -3.34397 0
M  V30 8679 N 808.521 1.23394 -0.980386 0
M  V30 8680 C 809.761 1.93543 -0.657288 0
M  V30 8681 C 810.125 1.74791 0.794477 0
M  V30 8682 O 811.326 2.39089 1.2284 0
M  V30 8683 C 809.597 3.42025 -1.03701 0
M  V30 8684 S 811.156 4.30871 -0.830379 0
M  V30 8685 H 807.974 0.669012 -0.240717 0
M  V30 8686 H 810.576 1.49478 -1.26002 0
M  V30 8687 H 809.28 3.53183 -2.09022 0
M  V30 8688 H 808.811 3.91091 -0.425559 0
M  V30 8689 H 810.826 4.95377 0.285719 0
M  V30 8690 N 809.999 0.752036 1.385 0
M  V30 8691 C 810.931 0.0835089 2.29048 0
M  V30 8692 C 811.944 -0.685402 1.47669 0
M  V30 8693 O 813.133 -0.526748 1.70551 0
M  V30 8694 C 810.233 -0.905772 3.26572 0
M  V30 8695 C 809.406 -0.194828 4.36966 0
M  V30 8696 C 808.465 -1.09464 5.14688 0
M  V30 8697 O 807.491 -0.565743 5.66381 0
M  V30 8698 N 808.693 -2.42287 5.2752 0
M  V30 8699 H 811.458 0.861142 2.87062 0
M  V30 8700 H 809.019 0.602689 1.50264 0
M  V30 8701 H 811.011 -1.51072 3.75446 0
M  V30 8702 H 809.581 -1.58449 2.69467 0
M  V30 8703 H 808.801 0.590812 3.89747 0
M  V30 8704 H 810.089 0.297189 5.07931 0
M  V30 8705 H 809.487 -2.87715 4.8707 0
M  V30 8706 H 808.044 -2.97836 5.79773 0
M  V30 8707 N 811.477 -1.49425 0.500989 0
M  V30 8708 C 812.717 -2.04357 -0.0419004 0
M  V30 8709 C 813.081 -1.37236 -1.34277 0
M  V30 8710 O 814.282 -1.82889 -1.9699 0
M  V30 8711 C 812.553 -3.56889 -0.19112 0
M  V30 8712 S 814.112 -4.33369 -0.688259 0
M  V30 8713 H 810.93 -0.710998 -0.00177796 0
M  V30 8714 H 813.532 -1.83479 0.674953 0
M  V30 8715 H 812.236 -4.03283 0.760964 0
M  V30 8716 H 811.767 -3.82171 -0.933214 0
M  V30 8717 H 813.782 -4.55961 -1.9574 0
M  V30 8718 N 812.955 -0.234822 -1.55841 0
M  V30 8719 C 813.903 0.686145 -2.22249 0
M  V30 8720 C 814.897 1.18948 -1.20614 0
M  V30 8721 O 816.103 1.14777 -1.38659 0
M  V30 8722 H 812.478 0.239724 -0.712767 0
M  V30 8723 H 814.449 0.102762 -2.98223 0
M  V30 8724 C 813.198 1.8776 -2.92646 0
M  V30 8725 H 812.521 1.49943 -3.70617 0
M  V30 8726 H 813.961 2.4995 -3.42493 0
M  V30 8727 C 812.42 2.74127 -1.95847 0
M  V30 8728 O 812.95 3.7329 -1.48384 0
M  V30 8729 N 811.156 2.4044 -1.63209 0
M  V30 8730 H 810.703 1.59854 -2.02001 0
M  V30 8731 H 810.661 2.98504 -0.987063 0
M  V30 8732 N 814.433 1.57553 0.0384317 0
M  V30 8733 C 815.844 1.77258 0.586211 0
M  V30 8734 C 816.195 0.864706 1.76117 0
M  V30 8735 O 815.32 0.057141 2.16325 0
M  V30 8736 C 815.915 3.21453 1.07021 0
M  V30 8737 C 814.474 3.42387 1.56358 0
M  V30 8738 C 813.621 2.72801 0.497508 0
M  V30 8739 H 816.572 1.57585 -0.187796 0
M  V30 8740 H 816.593 3.27451 1.93794 0
M  V30 8741 H 816.105 3.87505 0.214851 0
M  V30 8742 H 814.206 2.81497 2.44111 0
M  V30 8743 H 814.319 4.50968 1.61754 0
M  V30 8744 H 812.683 2.36305 0.95038 0
M  V30 8745 H 813.466 3.41529 -0.348234 0
M  V30 8746 N 815.911 -0.310526 1.54511 0
M  V30 8747 C 817.188 -1.06593 1.64004 0
M  V30 8748 C 817.568 -2.05519 0.482216 0
M  V30 8749 O 816.916 -2.22455 -0.52212 0
M  V30 8750 C 817.126 -1.75627 3.01589 0
M  V30 8751 C 818.474 -2.28173 3.58081 0
M  V30 8752 O 819.498 -1.85674 3.03979 0
M  V30 8753 O 818.357 -3.06015 4.52788 0
M  V30 8754 H 815.451 -0.492109 0.664649 0
M  V30 8755 H 817.997 -0.309374 1.66856 0
M  V30 8756 H 816.769 -1.03743 3.77297 0
M  V30 8757 H 816.392 -2.58061 3.02473 0
M  V30 8758 N 817.389 -1.46805 -0.573248 0
M  V30 8759 C 818.629 -1.5417 -1.34205 0
M  V30 8760 C 818.993 -0.192675 -1.91031 0
M  V30 8761 O 820.194 -0.141111 -2.68429 0
M  V30 8762 C 818.465 -2.61682 -2.43428 0
M  V30 8763 S 820.024 -2.88519 -3.30609 0
M  V30 8764 H 816.842 -0.544592 -0.4571 0
M  V30 8765 H 819.444 -1.84094 -0.658001 0
M  V30 8766 H 818.148 -3.58319 -2.00088 0
M  V30 8767 H 817.679 -2.33521 -3.16594 0
M  V30 8768 H 819.694 -2.2451 -4.42504 0
M  V30 8769 N 818.867 0.818669 -1.34668 0
M  V30 8770 C 819.799 1.93754 -1.22442 0
M  V30 8771 C 820.812 1.62103 -0.150501 0
M  V30 8772 O 822.001 1.73898 -0.402728 0
M  V30 8773 C 819.101 3.27806 -0.860031 0
M  V30 8774 C 818.274 3.8745 -2.02981 0
M  V30 8775 C 817.333 4.99887 -1.64314 0
M  V30 8776 O 816.359 5.17957 -2.36029 0
M  V30 8777 N 817.561 5.77795 -0.55976 0
M  V30 8778 H 820.326 2.04773 -2.18833 0
M  V30 8779 H 817.887 0.995472 -1.27679 0
M  V30 8780 H 819.879 4.00478 -0.583068 0
M  V30 8781 H 818.449 3.12597 0.0138253 0
M  V30 8782 H 817.669 3.07119 -2.47127 0
M  V30 8783 H 818.957 4.2403 -2.81204 0
M  V30 8784 H 818.355 5.65688 0.0363329 0
M  V30 8785 H 816.912 6.50899 -0.342541 0
M  V30 8786 N 820.346 1.18468 1.03938 0
M  V30 8787 C 821.294 0.909286 2.14091 0
M  V30 8788 C 822.288 -0.130928 1.68893 0
M  V30 8789 O 823.494 0.0173403 1.79992 0
M  V30 8790 H 819.869 0.27658 0.699291 0
M  V30 8791 H 821.84 1.84514 2.34515 0
M  V30 8792 C 820.589 0.452922 3.44737 0
M  V30 8793 H 819.912 1.24485 3.79926 0
M  V30 8794 H 821.352 0.299238 4.22943 0
M  V30 8795 C 819.811 -0.831435 3.26479 0
M  V30 8796 O 820.341 -1.89535 3.54174 0
M  V30 8797 N 818.547 -0.784545 2.79809 0
M  V30 8798 H 818.094 0.0814746 2.57471 0
M  V30 8799 H 818.052 -1.64431 2.67973 0
M  V30 8800 N 821.824 -1.22873 0.986916 0
M  V30 8801 C 823.24 -1.43594 0.696633 0
M  V30 8802 C 823.44 -1.87622 -0.734869 0
M  V30 8803 O 822.496 -2.02633 -1.50652 0
M  V30 8804 C 823.809 -2.48231 1.69711 0
M  V30 8805 C 825.357 -2.62037 1.71188 0
M  V30 8806 C 825.832 -3.6989 2.70084 0
M  V30 8807 N 827.323 -3.77341 2.68641 0
M  V30 8808 C 828.058 -4.6037 3.41829 0
M  V30 8809 N 827.554 -5.47438 4.24598 0
M  V30 8810 N 829.347 -4.54626 3.30563 0
M  V30 8811 H 821.498 -0.925982 1.91153 0
M  V30 8812 H 823.761 -0.46866 0.824052 0
M  V30 8813 H 823.467 -2.22812 2.72117 0
M  V30 8814 H 823.341 -3.46731 1.48516 0
M  V30 8815 H 825.728 -2.86803 0.694837 0
M  V30 8816 H 825.809 -1.63831 1.96451 0
M  V30 8817 H 825.453 -3.45872 3.71934 0
M  V30 8818 H 825.383 -4.67652 2.42093 0
M  V30 8819 H 827.874 -3.15124 2.08578 0
M  V30 8820 H 828.187 -6.078 4.77283 0
M  V30 8821 H 826.532 -5.4704 4.28687 0
M  V30 8822 H 829.723 -3.85627 2.65347 0
M  V30 8823 H 829.896 -5.19103 3.8786 0
M  V30 8824 N 823.302 -0.75937 -1.38099 0
M  V30 8825 C 824.549 -0.318113 -1.99986 0
M  V30 8826 C 824.877 1.10184 -1.6028 0
M  V30 8827 O 824.132 1.77015 -0.834524 0
M  V30 8828 C 824.431 -0.394999 -3.55211 0
M  V30 8829 C 824.097 -1.77143 -4.14646 0
M  V30 8830 C 822.759 -2.14811 -4.30592 0
M  V30 8831 C 825.111 -2.67407 -4.47373 0
M  V30 8832 C 822.439 -3.42203 -4.76565 0
M  V30 8833 C 824.791 -3.94196 -4.94765 0
M  V30 8834 C 823.455 -4.31925 -5.08918 0
M  V30 8835 H 822.725 -0.116406 -0.7318 0
M  V30 8836 H 825.372 -0.97098 -1.65058 0
M  V30 8837 H 823.677 0.341426 -3.9031 0
M  V30 8838 H 825.374 -0.0350722 -4.00985 0
M  V30 8839 H 821.964 -1.46864 -4.02652 0
M  V30 8840 H 826.148 -2.39569 -4.3465 0
M  V30 8841 H 821.404 -3.71346 -4.85708 0
M  V30 8842 H 825.578 -4.64276 -5.19057 0
M  V30 8843 H 823.205 -5.30699 -5.443 0
M  V30 8844 N 824.78 1.49157 -0.508906 0
M  V30 8845 C 826.191 1.86593 -0.0630975 0
M  V30 8846 C 826.542 1.42051 1.35337 0
M  V30 8847 O 825.667 0.801866 2.00995 0
M  V30 8848 C 826.262 3.38629 -0.107729 0
M  V30 8849 C 824.821 3.75336 0.282776 0
M  V30 8850 C 823.968 2.7317 -0.4768 0
M  V30 8851 H 826.919 1.41362 -0.72128 0
M  V30 8852 H 826.94 3.74271 0.685689 0
M  V30 8853 H 826.452 3.71017 -1.13876 0
M  V30 8854 H 824.553 3.48558 1.31675 0
M  V30 8855 H 824.666 4.79081 -0.0421728 0
M  V30 8856 H 823.03 2.54591 0.0743552 0
M  V30 8857 H 823.813 3.08403 -1.50807 0
M  V30 8858 N 826.258 0.243083 1.55714 0
M  V30 8859 C 827.506 -0.381964 1.98458 0
M  V30 8860 C 827.827 -1.58745 1.13247 0
M  V30 8861 O 827.097 -1.94723 0.214384 0
M  V30 8862 H 825.677 -0.144114 0.732967 0
M  V30 8863 H 828.339 0.340985 1.91894 0
M  V30 8864 H 827.435 -0.693702 3.04293 0
M  V30 8865 N 827.736 -1.57571 -0.0300757 0
M  V30 8866 C 828.976 -1.91074 -0.725946 0
M  V30 8867 C 829.34 -0.841545 -1.72575 0
M  V30 8868 O 830.541 -1.06088 -2.46979 0
M  V30 8869 C 828.812 -3.2973 -1.37888 0
M  V30 8870 S 830.371 -3.85065 -2.10405 0
M  V30 8871 H 827.189 -0.669084 -0.240515 0
M  V30 8872 H 829.791 -1.9549 0.019384 0
M  V30 8873 H 828.495 -4.05411 -0.637974 0
M  V30 8874 H 828.026 -3.28614 -2.16278 0
M  V30 8875 H 830.041 -3.63711 -3.37533 0
M  V30 8876 N 829.214 0.302327 -1.54673 0
M  V30 8877 C 830.63 0.647911 -1.45857 0
M  V30 8878 C 830.83 1.90773 -0.64869 0
M  V30 8879 O 829.886 2.52018 -0.155865 0
M  V30 8880 C 831.199 0.802144 -2.89804 0
M  V30 8881 C 832.747 0.898114 -2.99838 0
M  V30 8882 C 833.222 1.08436 -4.44978 0
M  V30 8883 N 834.713 1.15059 -4.48682 0
M  V30 8884 C 835.448 1.31296 -5.58166 0
M  V30 8885 N 834.944 1.4444 -6.77576 0
M  V30 8886 N 836.737 1.34174 -5.45851 0
M  V30 8887 H 828.888 -0.525428 -2.05798 0
M  V30 8888 H 831.151 -0.173423 -0.932002 0
M  V30 8889 H 830.857 -0.0526531 -3.51661 0
M  V30 8890 H 830.731 1.69155 -3.37145 0
M  V30 8891 H 833.118 1.7434 -2.38096 0
M  V30 8892 H 833.199 -0.0152752 -2.55795 0
M  V30 8893 H 832.843 0.243843 -5.07314 0
M  V30 8894 H 832.773 2.01195 -4.8665 0
M  V30 8895 H 835.264 1.0626 -3.62653 0
M  V30 8896 H 835.577 1.56582 -7.56771 0
M  V30 8897 H 833.922 1.41499 -6.80443 0
M  V30 8898 H 837.113 1.23516 -4.5151 0
M  V30 8899 H 837.286 1.46485 -6.31226 0
M  V30 8900 N 830.692 1.47107 0.565454 0
M  V30 8901 C 831.932 1.5488 1.33385 0
M  V30 8902 C 832.296 0.202804 1.90926 0
M  V30 8903 O 833.497 0.155345 2.68351 0
M  V30 8904 C 831.768 2.62969 2.42037 0
M  V30 8905 S 833.327 2.90269 3.29074 0
M  V30 8906 H 830.145 0.547008 0.454206 0
M  V30 8907 H 832.747 1.8444 0.648228 0
M  V30 8908 H 831.451 3.59376 1.98185 0
M  V30 8909 H 830.982 2.35197 3.15351 0
M  V30 8910 H 832.997 2.26854 4.41307 0
M  V30 8911 N 832.17 -0.811516 1.35101 0
M  V30 8912 C 833.117 -1.92308 1.27617 0
M  V30 8913 C 834.087 -1.6543 0.149091 0
M  V30 8914 O 835.272 -1.8789 0.331974 0
M  V30 8915 C 832.412 -3.28768 1.04908 0
M  V30 8916 C 831.525 -3.67865 2.26493 0
M  V30 8917 C 830.66 -4.9333 1.96974 0
M  V30 8918 C 829.699 -5.25041 3.1464 0
M  V30 8919 N 828.836 -6.41685 2.84929 0
M  V30 8920 H 833.676 -1.98041 2.22674 0
M  V30 8921 H 831.213 -0.968755 1.10696 0
M  V30 8922 H 833.171 -4.07426 0.897749 0
M  V30 8923 H 831.801 -3.22517 0.135151 0
M  V30 8924 H 830.853 -2.84507 2.52507 0
M  V30 8925 H 832.165 -3.87263 3.14371 0
M  V30 8926 H 831.319 -5.79803 1.78643 0
M  V30 8927 H 830.058 -4.75958 1.06374 0
M  V30 8928 H 829.063 -4.3706 3.33554 0
M  V30 8929 H 830.288 -5.44346 4.06035 0
M  V30 8930 H 828.234 -6.25747 1.96918 0
M  V30 8931 H 828.151 -6.6131 3.66341 0
M  V30 8932 H 829.419 -7.31198 2.70128 0
M  V30 8933 N 833.648 -1.19017 -1.03309 0
M  V30 8934 C 834.876 -1.01534 -1.80273 0
M  V30 8935 C 835.291 0.43605 -1.83696 0
M  V30 8936 O 834.648 1.30288 -1.27794 0
M  V30 8937 C 834.699 -1.5722 -3.25522 0
M  V30 8938 O 834.42 -2.96677 -3.22358 0
M  V30 8939 C 835.921 -1.4446 -4.19102 0
M  V30 8940 H 833.141 -0.358094 -0.567459 0
M  V30 8941 H 835.685 -1.57738 -1.3015 0
M  V30 8942 H 833.84 -1.05174 -3.7285 0
M  V30 8943 H 834.254 -3.22795 -4.13405 0
M  V30 8944 H 835.728 -1.88209 -5.18923 0
M  V30 8945 H 836.205 -0.394471 -4.37425 0
M  V30 8946 H 836.811 -1.95616 -3.77643 0
M  V30 8947 N 835.127 1.22348 -0.993418 0
M  V30 8948 C 836.059 2.23626 -0.502404 0
M  V30 8949 C 837.072 1.57739 0.402784 0
M  V30 8950 O 838.261 1.77321 0.204835 0
M  V30 8951 C 835.361 3.37647 0.291118 0
M  V30 8952 C 834.534 4.33121 -0.610332 0
M  V30 8953 C 833.593 5.26035 0.131572 0
M  V30 8954 O 832.619 5.67145 -0.483199 0
M  V30 8955 N 833.821 5.63023 1.41371 0
M  V30 8956 H 836.586 2.66385 -1.37329 0
M  V30 8957 H 834.147 1.36653 -0.868196 0
M  V30 8958 H 836.139 3.96792 0.796107 0
M  V30 8959 H 834.709 2.93967 1.0631 0
M  V30 8960 H 833.929 3.72287 -1.29598 0
M  V30 8961 H 835.217 4.93853 -1.22422 0
M  V30 8962 H 834.615 5.31596 1.93449 0
M  V30 8963 H 833.172 6.24582 1.86388 0
M  V30 8964 N 836.605 0.766683 1.37694 0
M  V30 8965 C 837.845 0.333815 2.01656 0
M  V30 8966 C 838.209 -1.06813 1.59546 0
M  V30 8967 O 839.41 -1.60084 2.15932 0
M  V30 8968 C 837.681 0.467032 3.54335 0
M  V30 8969 S 839.24 0.118679 4.38639 0
M  V30 8970 H 836.058 0.128723 0.699251 0
M  V30 8971 H 838.66 1.00018 1.67978 0
M  V30 8972 H 837.364 1.48808 3.82471 0
M  V30 8973 H 836.895 -0.216066 3.92806 0
M  V30 8974 H 838.91 -1.08746 4.84137 0
M  V30 8975 N 838.083 -1.48885 0.516809 0
M  V30 8976 C 839.031 -2.31066 -0.266656 0
M  V30 8977 C 840.025 -1.40393 -0.94795 0
M  V30 8978 O 841.231 -1.57366 -0.873836 0
M  V30 8979 H 837.606 -0.744654 -0.104858 0
M  V30 8980 H 839.577 -2.95045 0.446236 0
M  V30 8981 C 838.326 -3.22131 -1.3087 0
M  V30 8982 H 837.649 -3.91839 -0.793865 0
M  V30 8983 H 839.089 -3.82544 -1.82856 0
M  V30 8984 C 837.548 -2.42825 -2.33533 0
M  V30 8985 O 838.078 -2.14364 -3.39722 0
M  V30 8986 N 836.284 -2.04559 -2.06407 0
M  V30 8987 H 835.831 -2.27905 -1.20071 0
M  V30 8988 H 835.789 -1.51807 -2.75322 0
M  V30 8989 N 839.561 -0.251338 -1.55583 0
M  V30 8990 C 840.789 0.376187 -2.03451 0
M  V30 8991 C 841.204 1.51215 -1.13047 0
M  V30 8992 O 840.561 1.81917 -0.145769 0
M  V30 8993 C 840.612 0.879779 -3.50631 0
M  V30 8994 O 840.333 -0.210917 -4.37592 0
M  V30 8995 C 841.834 1.57754 -4.14281 0
M  V30 8996 H 839.054 0.0888722 -0.665089 0
M  V30 8997 H 841.598 -0.376497 -2.01004 0
M  V30 8998 H 839.753 1.58263 -3.53598 0
M  V30 8999 H 840.167 0.172203 -5.24217 0
M  V30 9000 H 841.641 1.88158 -5.18942 0
M  V30 9001 H 842.118 2.50103 -3.61034 0
M  V30 9002 H 842.724 0.919154 -4.15249 0
M  V30 9003 N 841.039 1.57585 0.0217189 0
M  V30 9004 C 841.986 2.07036 1.02004 0
M  V30 9005 C 842.956 0.96106 1.35473 0
M  V30 9006 O 844.141 1.23211 1.45684 0
M  V30 9007 C 841.281 2.56056 2.31364 0
M  V30 9008 C 840.394 3.80805 2.03989 0
M  V30 9009 C 839.529 4.18409 3.27272 0
M  V30 9010 C 838.568 5.36055 2.95486 0
M  V30 9011 N 837.705 5.69056 4.11242 0
M  V30 9012 H 842.545 2.92073 0.591396 0
M  V30 9013 H 840.082 1.44403 0.280384 0
M  V30 9014 H 842.04 2.82548 3.06957 0
M  V30 9015 H 840.67 1.73925 2.71937 0
M  V30 9016 H 839.722 3.61354 1.1886 0
M  V30 9017 H 841.034 4.66512 1.76546 0
M  V30 9018 H 840.188 4.46068 4.11228 0
M  V30 9019 H 838.927 3.31369 3.57835 0
M  V30 9020 H 837.932 5.08142 2.09933 0
M  V30 9021 H 839.157 6.24755 2.66193 0
M  V30 9022 H 837.103 4.84974 4.41742 0
M  V30 9023 H 837.02 6.49288 3.87247 0
M  V30 9024 H 838.288 6.01295 4.96049 0
M  V30 9025 N 842.517 -0.29412 1.54831 0
M  V30 9026 C 843.449 -1.38476 1.82639 0
M  V30 9027 C 844.462 -1.46517 0.709694 0
M  V30 9028 O 845.651 -1.48712 0.987269 0
M  V30 9029 C 842.751 -2.76791 1.95551 0
M  V30 9030 C 841.924 -2.91599 3.26019 0
M  V30 9031 C 840.983 -4.10456 3.29261 0
M  V30 9032 O 840.009 -4.02214 4.02756 0
M  V30 9033 N 841.211 -5.21422 2.55145 0
M  V30 9034 H 843.976 -1.14974 2.76769 0
M  V30 9035 H 841.537 -0.484206 1.5449 0
M  V30 9036 H 843.529 -3.5456 1.95113 0
M  V30 9037 H 842.099 -2.93209 1.08384 0
M  V30 9038 H 841.319 -2.00886 3.39173 0
M  V30 9039 H 842.607 -2.98409 4.12104 0
M  V30 9040 H 842.005 -5.31 1.95078 0
M  V30 9041 H 840.562 -5.97501 2.60454 0
M  V30 9042 N 843.995 -1.47404 -0.557645 0
M  V30 9043 C 845.235 -1.55585 -1.32562 0
M  V30 9044 C 845.599 -0.212926 -1.90816 0
M  V30 9045 O 846.8 -0.169574 -2.68265 0
M  V30 9046 C 845.071 -2.64249 -2.40639 0
M  V30 9047 S 846.63 -2.9201 -3.2753 0
M  V30 9048 H 843.448 -0.549409 -0.451298 0
M  V30 9049 H 846.05 -1.84782 -0.638438 0
M  V30 9050 H 844.754 -3.60421 -1.96277 0
M  V30 9051 H 844.285 -2.36866 -3.14099 0
M  V30 9052 H 846.3 -2.29191 -4.40098 0
M  V30 9053 N 845.473 0.80434 -1.35529 0
M  V30 9054 C 846.884 1.37849 -1.25915 0
M  V30 9055 C 847.235 1.95905 0.107495 0
M  V30 9056 O 846.36 1.91462 1.00852 0
M  V30 9057 C 846.955 2.50608 -2.27994 0
M  V30 9058 C 845.514 3.03879 -2.22114 0
M  V30 9059 C 844.661 1.76856 -2.13582 0
M  V30 9060 H 847.612 0.607192 -1.46625 0
M  V30 9061 H 847.633 3.29221 -1.90772 0
M  V30 9062 H 847.145 2.08323 -3.27449 0
M  V30 9063 H 845.246 3.50622 -1.26077 0
M  V30 9064 H 845.359 3.61707 -3.14173 0
M  V30 9065 H 843.723 1.98498 -1.59595 0
M  V30 9066 H 844.506 1.36721 -3.14901 0
M  V30 9067 N 846.951 1.19563 1.02676 0
M  V30 9068 C 848.191 1.01072 1.77662 0
M  V30 9069 C 848.555 -0.450344 1.86644 0
M  V30 9070 O 849.756 -0.755132 2.57975 0
M  V30 9071 C 848.027 1.66383 3.16309 0
M  V30 9072 S 849.586 1.62858 4.07459 0
M  V30 9073 H 846.404 0.362644 0.611564 0
M  V30 9074 H 849.006 1.51947 1.23014 0
M  V30 9075 H 847.71 2.71917 3.07391 0
M  V30 9076 H 847.241 1.15596 3.76033 0
M  V30 9077 H 849.256 0.654265 4.91868 0
M  V30 9078 N 848.429 -1.21819 0.999893 0
M  V30 9079 C 849.659 -1.94475 0.697346 0
M  V30 9080 C 850.067 -1.73991 -0.743228 0
M  V30 9081 O 849.41 -1.04042 -1.51397 0
M  V30 9082 C 849.472 -3.47204 0.932181 0
M  V30 9083 C 849.136 -3.91432 2.3586 0
M  V30 9084 C 850.133 -3.98545 3.33853 0
M  V30 9085 C 847.818 -4.23888 2.69489 0
M  V30 9086 C 849.812 -4.37499 4.63545 0
M  V30 9087 C 847.499 -4.62519 3.99399 0
M  V30 9088 C 848.497 -4.69294 4.96238 0
M  V30 9089 O 848.185 -5.07048 6.23825 0
M  V30 9090 H 847.917 -0.625419 0.256567 0
M  V30 9091 H 850.471 -1.55728 1.33933 0
M  V30 9092 H 848.701 -3.85997 0.233025 0
M  V30 9093 H 850.39 -4.01078 0.623807 0
M  V30 9094 H 851.156 -3.73654 3.09205 0
M  V30 9095 H 847.035 -4.17815 1.94812 0
M  V30 9096 H 850.579 -4.42702 5.3913 0
M  V30 9097 H 846.476 -4.86864 4.23833 0
M  V30 9098 H 847.244 -5.25098 6.27865 0
M  V30 9099 N 849.908 -0.773975 -1.37286 0
M  V30 9100 C 850.838 -0.175782 -2.32837 0
M  V30 9101 C 851.819 0.680603 -1.5589 0
M  V30 9102 O 853.004 0.617607 -1.84117 0
M  V30 9103 C 850.134 0.702388 -3.40123 0
M  V30 9104 C 849.088 -0.0528687 -4.27967 0
M  V30 9105 C 848.414 0.944891 -5.26285 0
M  V30 9106 C 849.714 -1.23316 -5.07534 0
M  V30 9107 H 851.408 -0.974016 -2.83114 0
M  V30 9108 H 848.954 -0.469826 -1.3612 0
M  V30 9109 H 850.907 1.13069 -4.05947 0
M  V30 9110 H 849.631 1.53316 -2.88378 0
M  V30 9111 H 848.29 -0.461978 -3.63678 0
M  V30 9112 H 847.938 1.77028 -4.70819 0
M  V30 9113 H 847.638 0.444079 -5.8592 0
M  V30 9114 H 849.162 1.37209 -5.94984 0
M  V30 9115 H 850.576 -0.881395 -5.66484 0
M  V30 9116 H 848.973 -1.66621 -5.76504 0
M  V30 9117 H 850.043 -2.03617 -4.40077 0
M  V30 9118 N 851.386 1.48609 -0.524698 0
M  V30 9119 C 852.349 2.28041 0.230166 0
M  V30 9120 C 853.349 1.35065 0.872584 0
M  V30 9121 O 854.539 1.58007 0.73345 0
M  V30 9122 C 851.671 3.13778 1.33252 0
M  V30 9123 H 852.864 2.96239 -0.467161 0
M  V30 9124 H 850.417 1.53763 -0.280452 0
M  V30 9125 H 851.152 2.502 2.06327 0
M  V30 9126 H 850.937 3.82165 0.877058 0
M  V30 9127 H 852.427 3.7371 1.86362 0
M  V30 9128 N 852.864 0.259585 1.55447 0
M  V30 9129 C 854.11 -0.362143 1.9954 0
M  V30 9130 C 854.443 -1.5666 1.14767 0
M  V30 9131 O 853.718 -1.93319 0.214025 0
M  V30 9132 C 854.001 -0.759588 3.51998 0
M  V30 9133 C 853.854 0.451134 4.47532 0
M  V30 9134 C 855.173 -1.60186 4.09913 0
M  V30 9135 H 852.292 -0.130157 0.725416 0
M  V30 9136 H 854.934 0.363431 1.86492 0
M  V30 9137 H 853.084 -1.3778 3.63248 0
M  V30 9138 H 854.756 1.08965 4.48246 0
M  V30 9139 H 852.999 1.092 4.19831 0
M  V30 9140 H 853.67 0.129518 5.51848 0
M  V30 9141 H 856.146 -1.0799 4.01842 0
M  V30 9142 H 855.022 -1.84879 5.16828 0
M  V30 9143 H 855.283 -2.57787 3.59163 0
M  V30 9144 N 854.342 -1.57594 -0.0133615 0
M  V30 9145 C 855.758 -1.5527 -0.369255 0
M  V30 9146 C 855.958 -0.987751 -1.7563 0
M  V30 9147 O 855.014 -0.615683 -2.44879 0
M  V30 9148 C 856.327 -2.99602 -0.25672 0
M  V30 9149 C 857.875 -3.11227 -0.332647 0
M  V30 9150 C 858.35 -4.57321 -0.249387 0
M  V30 9151 N 859.841 -4.62177 -0.3077 0
M  V30 9152 C 860.576 -5.72781 -0.26641 0
M  V30 9153 N 860.072 -6.92575 -0.176494 0
M  V30 9154 N 861.865 -5.61204 -0.317295 0
M  V30 9155 H 854.016 -1.92662 0.894154 0
M  V30 9156 H 856.279 -0.884352 0.341505 0
M  V30 9157 H 855.985 -3.44723 0.697072 0
M  V30 9158 H 855.859 -3.6246 -1.04415 0
M  V30 9159 H 858.246 -2.66045 -1.27688 0
M  V30 9160 H 858.327 -2.51171 0.484412 0
M  V30 9161 H 857.971 -5.03174 0.691242 0
M  V30 9162 H 857.901 -5.15306 -1.08476 0
M  V30 9163 H 860.392 -3.75994 -0.379069 0
M  V30 9164 H 860.705 -7.72653 -0.150518 0
M  V30 9165 H 859.05 -6.94854 -0.142314 0
M  V30 9166 H 862.241 -4.66509 -0.385643 0
M  V30 9167 H 862.414 -6.47388 -0.28165 0
M  V30 9168 N 855.82 0.285905 -1.54985 0
M  V30 9169 C 856.73 1.37534 -1.90057 0
M  V30 9170 C 857.746 1.54707 -0.796348 0
M  V30 9171 O 858.922 1.69082 -1.09423 0
M  V30 9172 C 855.987 2.7167 -2.15398 0
M  V30 9173 C 855.048 2.63354 -3.39033 0
M  V30 9174 C 854.281 3.91093 -3.63155 0
M  V30 9175 O 854.504 4.91169 -2.90015 0
M  V30 9176 O 853.438 3.92075 -4.56685 0
M  V30 9177 H 857.264 1.10791 -2.8277 0
M  V30 9178 H 854.849 0.483303 -1.41367 0
M  V30 9179 H 856.731 3.51006 -2.33179 0
M  V30 9180 H 855.406 2.98226 -1.25868 0
M  V30 9181 H 854.313 1.82438 -3.26599 0
M  V30 9182 H 855.646 2.41749 -4.2874 0
M  V30 9183 N 857.298 1.47698 0.54982 0
M  V30 9184 C 858.538 1.56286 1.31735 0
M  V30 9185 C 858.902 0.223042 1.907 0
M  V30 9186 O 860.103 0.183798 2.68171 0
M  V30 9187 C 858.374 2.65522 2.39234 0
M  V30 9188 S 859.933 2.93742 3.25977 0
M  V30 9189 H 856.751 0.551795 0.448378 0
M  V30 9190 H 859.353 1.85118 0.628629 0
M  V30 9191 H 858.057 3.61457 1.94362 0
M  V30 9192 H 857.588 2.38528 3.12838 0
M  V30 9193 H 859.603 2.31522 4.38876 0
M  V30 9194 N 858.776 -0.797141 1.35954 0
M  V30 9195 C 860.053 -1.54224 1.2031 0
M  V30 9196 C 860.433 -2.10013 -0.213926 0
M  V30 9197 O 859.781 -1.93292 -1.21862 0
M  V30 9198 C 859.991 -2.6433 2.27883 0
M  V30 9199 C 861.339 -3.32418 2.64165 0
M  V30 9200 O 862.363 -2.74607 2.26868 0
M  V30 9201 O 861.222 -4.36876 3.28331 0
M  V30 9202 H 858.316 -0.681857 0.467974 0
M  V30 9203 H 860.862 -0.836288 1.47663 0
M  V30 9204 H 859.634 -2.21044 3.22885 0
M  V30 9205 H 859.257 -3.42551 2.01853 0
M  V30 9206 N 860.254 -1.20106 -1.0204 0
M  V30 9207 C 861.665 -1.00992 -1.57027 0
M  V30 9208 C 862.016 0.434782 -1.91322 0
M  V30 9209 O 861.141 1.31557 -1.71819 0
M  V30 9210 C 861.736 -1.82697 -2.85319 0
M  V30 9211 C 860.295 -1.67959 -3.36848 0
M  V30 9212 C 859.442 -1.80868 -2.10195 0
M  V30 9213 H 862.393 -1.34354 -0.844676 0
M  V30 9214 H 862.414 -1.32809 -3.5657 0
M  V30 9215 H 861.926 -2.87839 -2.60328 0
M  V30 9216 H 860.027 -0.654389 -3.66809 0
M  V30 9217 H 860.14 -2.49006 -4.09308 0
M  V30 9218 H 858.504 -1.24015 -2.22469 0
M  V30 9219 H 859.287 -2.87486 -1.87635 0
M  V30 9220 N 861.732 1.21287 -1.00634 0
M  V30 9221 C 863.009 1.86 -0.605257 0
M  V30 9222 C 863.389 1.90139 0.917072 0
M  V30 9223 O 862.737 1.40169 1.80458 0
M  V30 9224 C 862.947 3.26183 -1.24119 0
M  V30 9225 C 864.295 4.02562 -1.35015 0
M  V30 9226 O 865.319 3.35499 -1.19661 0
M  V30 9227 O 864.178 5.22638 -1.59726 0
M  V30 9228 H 861.272 0.800549 -0.207486 0
M  V30 9229 H 863.818 1.28959 -1.10307 0
M  V30 9230 H 862.59 3.17878 -2.28186 0
M  V30 9231 H 862.213 3.90845 -0.729807 0
M  V30 9232 N 863.21 0.781244 1.36873 0
M  V30 9233 C 864.14 0.188128 2.32741 0
M  V30 9234 C 865.121 -0.672326 1.56249 0
M  V30 9235 O 866.306 -0.607835 1.84442 0
M  V30 9236 C 863.436 -0.684341 3.40491 0
M  V30 9237 C 862.39 0.0755641 4.27933 0
M  V30 9238 C 861.716 -0.916968 5.26779 0
M  V30 9239 C 863.016 1.26006 5.06873 0
M  V30 9240 H 864.71 0.989016 2.82593 0
M  V30 9241 H 862.256 0.477038 1.35869 0
M  V30 9242 H 864.209 -1.10915 4.06541 0
M  V30 9243 H 862.933 -1.51785 2.89187 0
M  V30 9244 H 861.592 0.481258 3.63427 0
M  V30 9245 H 861.24 -1.74528 4.71751 0
M  V30 9246 H 860.94 -0.413 5.86147 0
M  V30 9247 H 862.464 -1.34052 5.95703 0
M  V30 9248 H 863.878 0.911425 5.66009 0
M  V30 9249 H 862.275 1.69676 5.75613 0
M  V30 9250 H 863.345 2.05948 4.38991 0
M  V30 9251 N 864.689 -1.48329 0.532571 0
M  V30 9252 C 865.929 -2.044 0.00145618 0
M  V30 9253 C 866.293 -1.40053 -1.31336 0
M  V30 9254 O 867.494 -1.87026 -1.93066 0
M  V30 9255 C 865.765 -3.57214 -0.115376 0
M  V30 9256 S 867.324 -4.34731 -0.59618 0
M  V30 9257 H 864.142 -0.710876 0.0133038 0
M  V30 9258 H 866.744 -1.82006 0.71372 0
M  V30 9259 H 865.448 -4.01579 0.846335 0
M  V30 9260 H 864.979 -3.84065 -0.85194 0
M  V30 9261 H 866.994 -4.6001 -1.86025 0
M  V30 9262 N 866.167 -0.267825 -1.55308 0
M  V30 9263 C 867.097 0.616585 -2.25212 0
M  V30 9264 C 868.078 1.16472 -1.23969 0
M  V30 9265 O 869.263 1.20021 -1.52672 0
M  V30 9266 C 866.393 1.80412 -2.96764 0
M  V30 9267 C 865.347 1.38784 -4.04874 0
M  V30 9268 C 864.673 2.65789 -4.63961 0
M  V30 9269 C 865.973 0.543415 -5.19465 0
M  V30 9270 H 867.667 0.0336257 -2.99381 0
M  V30 9271 H 865.213 0.0147328 -1.43992 0
M  V30 9272 H 867.166 2.42866 -3.44375 0
M  V30 9273 H 865.89 2.4128 -2.20118 0
M  V30 9274 H 864.549 0.786541 -3.58063 0
M  V30 9275 H 864.197 3.24899 -3.83992 0
M  V30 9276 H 863.897 2.38651 -5.36954 0
M  V30 9277 H 865.421 3.29104 -5.14318 0
M  V30 9278 H 866.835 1.07277 -5.63174 0
M  V30 9279 H 865.232 0.367219 -5.98975 0
M  V30 9280 H 866.302 -0.439534 -4.82904 0
M  V30 9281 N 867.645 1.57599 0.00500368 0
M  V30 9282 C 868.873 1.94626 0.702016 0
M  V30 9283 C 869.288 0.86953 1.67585 0
M  V30 9284 O 868.645 -0.15199 1.81866 0
M  V30 9285 C 868.696 3.31658 1.43824 0
M  V30 9286 O 868.417 4.35197 0.503467 0
M  V30 9287 C 869.918 3.83114 2.23021 0
M  V30 9288 H 867.138 0.641785 0.195841 0
M  V30 9289 H 869.682 2.04451 -0.0446287 0
M  V30 9290 H 867.837 3.23156 2.13655 0
M  V30 9291 H 868.251 5.1444 1.02235 0
M  V30 9292 H 869.725 4.81438 2.7004 0
M  V30 9293 H 870.202 3.15559 3.05482 0
M  V30 9294 H 870.808 3.94775 1.58216 0
M  V30 9295 N 869.123 -0.277682 1.55134 0
M  V30 9296 C 870.363 -1.01761 1.77269 0
M  V30 9297 C 870.727 -1.83668 0.559465 0
M  V30 9298 O 871.928 -2.60597 0.658972 0
M  V30 9299 C 870.199 -1.88062 3.0392 0
M  V30 9300 S 871.758 -2.68383 3.47154 0
M  V30 9301 H 868.576 -0.342816 0.622895 0
M  V30 9302 H 871.178 -0.288514 1.93359 0
M  V30 9303 H 869.882 -1.26805 3.90319 0
M  V30 9304 H 869.413 -2.65299 2.90482 0
M  V30 9305 H 871.428 -3.90567 3.06059 0
M  V30 9306 N 870.601 -1.47988 -0.541979 0
M  V30 9307 C 871.849 -1.55086 -1.29587 0
M  V30 9308 C 872.17 -0.221304 -1.9374 0
M  V30 9309 O 871.44 0.756128 -1.80719 0
M  V30 9310 H 870.02 -0.571307 -0.481266 0
M  V30 9311 H 872.682 -1.8438 -0.631675 0
M  V30 9312 H 871.778 -2.32556 -2.08144 0
M  V30 9313 N 872.079 0.78992 -1.36375 0
M  V30 9314 C 873.042 1.88414 -1.30509 0
M  V30 9315 C 874.042 1.59384 -0.2129 0
M  V30 9316 O 875.232 1.67805 -0.467651 0
M  V30 9317 C 872.364 3.25188 -1.02302 0
M  V30 9318 H 873.557 1.95031 -2.27822 0
M  V30 9319 H 871.11 0.987664 -1.2114 0
M  V30 9320 H 871.845 3.24254 -0.0544486 0
M  V30 9321 H 871.63 3.47647 -1.81338 0
M  V30 9322 H 873.12 4.05252 -1.00801 0
M  V30 9323 N 873.557 1.20646 1.01402 0
M  V30 9324 C 874.782 1.04462 1.79172 0
M  V30 9325 C 875.207 -0.401588 1.83763 0
M  V30 9326 O 874.565 -1.28934 1.27459 0
M  V30 9327 C 874.613 1.63583 3.21361 0
M  V30 9328 O 873.717 0.875198 4.03006 0
M  V30 9329 H 873.058 0.368235 0.552539 0
M  V30 9330 H 875.588 1.59994 1.27526 0
M  V30 9331 H 875.598 1.67426 3.72065 0
M  V30 9332 H 874.273 2.68835 3.17334 0
M  V30 9333 H 872.85 0.911172 3.61597 0
M  V30 9334 N 875.035 -1.20752 1.01276 0
M  V30 9335 C 875.945 -2.27079 0.589277 0
M  V30 9336 C 876.961 -1.6999 -0.371389 0
M  V30 9337 O 878.137 -2.00044 -0.233294 0
M  V30 9338 C 875.202 -3.4663 -0.0696715 0
M  V30 9339 C 874.263 -4.18962 0.936454 0
M  V30 9340 C 873.496 -5.32806 0.308856 0
M  V30 9341 O 873.719 -5.63376 -0.8924 0
M  V30 9342 O 872.653 -5.93131 1.02367 0
M  V30 9343 H 876.479 -2.6551 1.47438 0
M  V30 9344 H 874.064 -1.27297 0.782045 0
M  V30 9345 H 875.946 -4.19119 -0.437873 0
M  V30 9346 H 874.621 -3.10082 -0.929029 0
M  V30 9347 H 873.528 -3.48661 1.35595 0
M  V30 9348 H 874.861 -4.59441 1.76565 0
M  V30 9349 N 876.513 -0.788492 -1.36457 0
M  V30 9350 C 877.463 -0.159377 -2.27442 0
M  V30 9351 C 878.447 0.656146 -1.46913 0
M  V30 9352 O 879.639 0.516372 -1.693 0
M  V30 9353 C 876.768 0.705703 -3.35968 0
M  V30 9354 C 875.854 -0.11856 -4.23934 0
M  V30 9355 N 876.245 -1.1726 -4.9202 0
M  V30 9356 C 874.543 0.102752 -4.45882 0
M  V30 9357 C 875.244 -1.6743 -5.57083 0
M  V30 9358 N 874.22 -0.983682 -5.34626 0
M  V30 9359 H 878.022 -0.96614 -2.77566 0
M  V30 9360 H 875.536 -0.627864 -1.49772 0
M  V30 9361 H 877.533 1.17231 -4.00078 0
M  V30 9362 H 876.193 1.51102 -2.87399 0
M  V30 9363 H 877.204 -1.55502 -4.94004 0
M  V30 9364 H 873.881 0.878651 -4.08149 0
M  V30 9365 H 875.271 -2.55423 -6.21457 0
M  V30 9366 N 877.991 1.48044 -0.54043 0
M  V30 9367 C 879.237 2.03392 -0.0183377 0
M  V30 9368 C 879.592 1.4091 1.31004 0
M  V30 9369 O 878.885 0.549375 1.83555 0
M  V30 9370 C 879.079 3.57085 0.150008 0
M  V30 9371 C 878.908 4.34468 -1.1605 0
M  V30 9372 C 877.678 4.75008 -1.72324 0
M  V30 9373 C 879.876 4.70641 -2.07368 0
M  V30 9374 N 877.858 5.36968 -2.97555 0
M  V30 9375 C 879.229 5.32728 -3.17176 0
M  V30 9376 C 881.284 4.52571 -2.07567 0
M  V30 9377 C 879.987 5.78654 -4.27261 0
M  V30 9378 C 882.013 4.99485 -3.16653 0
M  V30 9379 C 881.375 5.61606 -4.2518 0
M  V30 9380 H 877.474 0.780497 -0.0484652 0
M  V30 9381 H 880.058 1.80738 -0.724018 0
M  V30 9382 H 878.229 3.79542 0.824787 0
M  V30 9383 H 879.961 3.99071 0.672649 0
M  V30 9384 H 876.716 4.5644 -1.26331 0
M  V30 9385 H 877.14 5.72505 -3.61341 0
M  V30 9386 H 881.782 4.03914 -1.24952 0
M  V30 9387 H 879.5 6.26311 -5.10647 0
M  V30 9388 H 883.086 4.87286 -3.17874 0
M  V30 9389 H 881.966 5.97248 -5.08197 0
M  V30 9390 N 879.47 0.276058 1.55163 0
M  V30 9391 C 880.747 -0.392292 1.91626 0
M  V30 9392 C 881.127 -1.73646 1.20043 0
M  V30 9393 O 880.475 -2.26139 0.327606 0
M  V30 9394 C 880.685 -0.531641 3.44927 0
M  V30 9395 C 882.033 -0.8141 4.16722 0
M  V30 9396 O 883.057 -0.616413 3.50826 0
M  V30 9397 O 881.916 -1.19224 5.33337 0
M  V30 9398 H 879.01 -0.214945 0.798579 0
M  V30 9399 H 881.556 0.32228 1.66612 0
M  V30 9400 H 880.328 0.414282 3.89101 0
M  V30 9401 H 879.951 -1.29564 3.75897 0
M  V30 9402 N 880.948 -1.576 0.00335426 0
M  V30 9403 C 882.188 -1.92571 -0.685253 0
M  V30 9404 C 882.552 -0.877961 -1.70751 0
M  V30 9405 O 883.753 -1.11303 -2.44673 0
M  V30 9406 C 882.024 -3.3258 -1.30863 0
M  V30 9407 S 883.583 -3.89442 -2.02189 0
M  V30 9408 H 880.401 -0.674035 -0.226268 0
M  V30 9409 H 883.003 -1.95405 0.0608461 0
M  V30 9410 H 881.707 -4.06673 -0.551837 0
M  V30 9411 H 881.238 -3.33128 -2.09259 0
M  V30 9412 H 883.253 -3.70789 -3.29742 0
M  V30 9413 N 882.426 0.269451 -1.5528 0
M  V30 9414 C 883.373 1.33316 -1.88403 0
M  V30 9415 C 884.343 1.48909 -0.735881 0
M  V30 9416 O 885.528 1.63259 -0.987479 0
M  V30 9417 C 882.668 2.68778 -2.16454 0
M  V30 9418 C 881.781 2.61377 -3.43956 0
M  V30 9419 C 880.916 3.89042 -3.6169 0
M  V30 9420 C 879.955 3.76166 -4.82872 0
M  V30 9421 N 879.092 4.95673 -4.97245 0
M  V30 9422 H 883.932 1.04368 -2.79126 0
M  V30 9423 H 881.469 0.504147 -1.38191 0
M  V30 9424 H 883.427 3.47599 -2.30719 0
M  V30 9425 H 882.057 2.9592 -1.28961 0
M  V30 9426 H 881.109 1.74247 -3.38145 0
M  V30 9427 H 882.421 2.47764 -4.32914 0
M  V30 9428 H 881.575 4.76304 -3.75791 0
M  V30 9429 H 880.314 4.05526 -2.70924 0
M  V30 9430 H 879.319 2.87287 -4.68771 0
M  V30 9431 H 880.544 3.61198 -5.75077 0
M  V30 9432 H 878.49 5.12561 -4.09411 0
M  V30 9433 H 878.407 4.84605 -5.80254 0
M  V30 9434 H 879.675 5.84498 -5.15735 0
M  V30 9435 N 883.904 1.48273 0.534124 0
M  V30 9436 C 885.15 1.56311 1.29208 0
M  V30 9437 C 885.483 0.234481 1.92779 0
M  V30 9438 O 884.758 -0.759143 1.79073 0
M  V30 9439 C 885.041 2.69831 2.3846 0
M  V30 9440 C 884.894 4.12385 1.79608 0
M  V30 9441 C 886.213 2.79133 3.40254 0
M  V30 9442 H 883.332 0.56899 0.468422 0
M  V30 9443 H 885.974 1.80429 0.595438 0
M  V30 9444 H 884.124 2.49397 2.97881 0
M  V30 9445 H 885.796 4.44246 1.24269 0
M  V30 9446 H 884.039 4.19579 1.10162 0
M  V30 9447 H 884.71 4.87629 2.58693 0
M  V30 9448 H 887.186 2.97632 2.90783 0
M  V30 9449 H 886.062 3.60298 4.14097 0
M  V30 9450 H 886.323 1.87122 4.00547 0
M  V30 9451 N 885.382 -0.782676 1.36792 0
M  V30 9452 C 886.628 -1.54311 1.3159 0
M  V30 9453 C 886.961 -1.93928 -0.102696 0
M  V30 9454 O 886.236 -1.63233 -1.05761 0
M  V30 9455 C 886.519 -2.81561 2.24489 0
M  V30 9456 C 886.372 -2.48268 3.75078 0
M  V30 9457 C 887.691 -3.83428 2.16034 0
M  V30 9458 H 884.81 -0.559828 0.479335 0
M  V30 9459 H 887.452 -0.898717 1.67401 0
M  V30 9460 H 885.602 -3.36549 1.9408 0
M  V30 9461 H 887.274 -1.99279 4.16036 0
M  V30 9462 H 885.517 -1.81116 3.94182 0
M  V30 9463 H 886.188 -3.39183 4.35499 0
M  V30 9464 H 888.664 -3.37905 2.42815 0
M  V30 9465 H 887.54 -4.70204 2.83194 0
M  V30 9466 H 887.801 -4.26887 1.14976 0
M  V30 9467 N 886.86 -1.21182 -1.00761 0
M  V30 9468 C 888.085 -1.05411 -1.78615 0
M  V30 9469 C 888.51 0.391837 -1.83973 0
M  V30 9470 O 887.868 1.28256 -1.28141 0
M  V30 9471 C 887.916 -1.65285 -3.20489 0
M  V30 9472 O 887.02 -0.896558 -4.02536 0
M  V30 9473 H 886.361 -0.37116 -0.550578 0
M  V30 9474 H 888.891 -1.60669 -1.26676 0
M  V30 9475 H 888.901 -1.69397 -3.71172 0
M  V30 9476 H 887.576 -2.70514 -3.15904 0
M  V30 9477 H 886.153 -0.930335 -3.61108 0
M  V30 9478 N 888.338 1.20213 -1.01915 0
M  V30 9479 C 889.578 1.91354 -0.71853 0
M  V30 9480 C 889.942 1.77231 0.738466 0
M  V30 9481 O 891.143 2.42876 1.15172 0
M  V30 9482 C 889.414 3.38552 -1.14529 0
M  V30 9483 S 890.973 4.28011 -0.967037 0
M  V30 9484 H 887.791 0.661015 -0.261879 0
M  V30 9485 H 890.393 1.45394 -1.30694 0
M  V30 9486 H 889.097 3.46354 -2.20153 0
M  V30 9487 H 888.628 3.8954 -0.549766 0
M  V30 9488 H 890.643 4.96035 0.127974 0
M  V30 9489 N 889.816 0.795718 1.36037 0
M  V30 9490 C 890.763 0.196548 2.29962 0
M  V30 9491 C 891.733 -0.663213 1.52285 0
M  V30 9492 O 892.918 -0.610574 1.80767 0
M  V30 9493 C 890.058 -0.657639 3.38776 0
M  V30 9494 C 889.171 0.221358 4.31433 0
M  V30 9495 C 888.306 -0.6398 5.27333 0
M  V30 9496 C 887.345 0.240265 6.11628 0
M  V30 9497 N 886.482 -0.580237 6.99698 0
M  V30 9498 H 891.322 1.00295 2.80615 0
M  V30 9499 H 888.859 0.506147 1.38118 0
M  V30 9500 H 890.817 -1.16793 4.00519 0
M  V30 9501 H 889.447 -1.42941 2.89426 0
M  V30 9502 H 888.499 0.84967 3.70789 0
M  V30 9503 H 889.811 0.899195 4.90628 0
M  V30 9504 H 888.965 -1.21566 5.94396 0
M  V30 9505 H 887.704 -1.35124 4.68607 0
M  V30 9506 H 886.709 0.828474 5.43522 0
M  V30 9507 H 887.934 0.949403 6.72431 0
M  V30 9508 H 885.88 -1.27585 6.43473 0
M  V30 9509 H 885.797 0.0397853 7.5599 0
M  V30 9510 H 887.065 -1.13972 7.71123 0
M  V30 9511 N 891.294 -1.47756 0.548274 0
M  V30 9512 C 892.242 -2.3158 -0.217584 0
M  V30 9513 C 893.236 -1.42372 -0.917957 0
M  V30 9514 O 894.442 -1.59184 -0.840259 0
M  V30 9515 H 890.817 -0.74671 -0.0890388 0
M  V30 9516 H 892.788 -2.94032 0.508719 0
M  V30 9517 C 891.537 -3.24834 -1.24008 0
M  V30 9518 H 890.86 -3.93435 -0.710572 0
M  V30 9519 H 892.3 -3.86336 -1.74701 0
M  V30 9520 C 890.759 -2.47724 -2.2833 0
M  V30 9521 O 891.289 -2.21522 -3.35098 0
M  V30 9522 N 889.495 -2.08891 -2.02022 0
M  V30 9523 H 889.042 -2.30401 -1.1521 0
M  V30 9524 H 889 -1.57613 -2.7204 0
M  V30 9525 N 892.772 -0.284283 -1.55015 0
M  V30 9526 C 894.012 0.330942 -2.01703 0
M  V30 9527 C 894.376 1.52362 -1.16832 0
M  V30 9528 O 895.577 2.20909 -1.53142 0
M  V30 9529 C 893.848 0.694712 -3.50583 0
M  V30 9530 S 895.407 1.29517 -4.1925 0
M  V30 9531 H 892.225 0.10247 -0.703577 0
M  V30 9532 H 894.827 -0.408257 -1.9119 0
M  V30 9533 H 893.531 -0.182056 -4.09996 0
M  V30 9534 H 893.062 1.46513 -3.65099 0
M  V30 9535 H 895.077 2.58352 -4.23638 0
M  V30 9536 N 894.251 1.57596 -0.0117121 0
M  V30 9537 C 895.476 1.95764 0.684938 0
M  V30 9538 C 895.901 0.887285 1.65858 0
M  V30 9539 O 895.259 -0.153508 1.80649 0
M  V30 9540 C 895.307 3.33031 1.38285 0
M  V30 9541 O 894.411 3.28163 2.49765 0
M  V30 9542 H 893.752 0.638767 0.181309 0
M  V30 9543 H 896.282 2.04486 -0.0683883 0
M  V30 9544 H 896.292 3.68866 1.74362 0
M  V30 9545 H 894.967 4.10483 0.669043 0
M  V30 9546 H 893.544 3.04021 2.15929 0
M  V30 9547 N 895.729 -0.261212 1.5542 0
M  V30 9548 C 896.978 -0.989072 1.75785 0
M  V30 9549 C 897.291 -1.8702 0.572961 0
M  V30 9550 O 898.497 -2.63374 0.659289 0
M  V30 9551 C 896.953 -1.80857 3.11157 0
M  V30 9552 C 896.561 -0.975535 4.3725 0
M  V30 9553 C 898.305 -2.53003 3.40866 0
M  V30 9554 C 896.212 -1.7901 5.63657 0
M  V30 9555 H 895.142 -0.373019 0.655266 0
M  V30 9556 H 897.793 -0.244267 1.81867 0
M  V30 9557 H 896.175 -2.59479 2.99144 0
M  V30 9558 H 897.349 -0.232661 4.60212 0
M  V30 9559 H 895.664 -0.368083 4.1477 0
M  V30 9560 H 898.261 -3.14372 4.32521 0
M  V30 9561 H 898.604 -3.23891 2.61535 0
M  V30 9562 H 899.137 -1.81403 3.54031 0
M  V30 9563 H 895.876 -1.12522 6.4577 0
M  V30 9564 H 895.396 -2.50863 5.44819 0
M  V30 9565 H 897.075 -2.36082 6.0239 0
M  V30 9566 N 897.207 -1.48554 -0.526253 0
M  V30 9567 C 898.139 -1.59446 -1.6465 0
M  V30 9568 C 899.152 -0.478525 -1.55608 0
M  V30 9569 O 900.341 -0.74953 -1.62001 0
M  V30 9570 C 897.441 -1.51164 -3.03319 0
M  V30 9571 C 896.614 -2.77861 -3.37805 0
M  V30 9572 C 895.673 -2.62982 -4.5577 0
M  V30 9573 O 894.699 -3.36876 -4.58806 0
M  V30 9574 N 895.901 -1.72847 -5.5417 0
M  V30 9575 H 898.666 -2.56055 -1.55743 0
M  V30 9576 H 896.227 -1.45325 -0.713606 0
M  V30 9577 H 898.219 -1.389 -3.80117 0
M  V30 9578 H 896.789 -0.625147 -3.06285 0
M  V30 9579 H 896.009 -3.04663 -2.50149 0
M  V30 9580 H 897.297 -3.61908 -3.57632 0
M  V30 9581 H 896.695 -1.12022 -5.54498 0
M  V30 9582 H 895.252 -1.6652 -6.3017 0
M  V30 9583 N 898.685 0.775411 -1.37205 0
M  V30 9584 C 900.101 1.07546 -1.17924 0
M  V30 9585 C 900.301 2.01496 -0.0128897 0
M  V30 9586 O 899.357 2.44039 0.64816 0
M  V30 9587 C 900.67 1.67647 -2.49629 0
M  V30 9588 C 902.218 1.79923 -2.56119 0
M  V30 9589 C 902.693 2.43438 -3.87946 0
M  V30 9590 N 904.184 2.50893 -3.89368 0
M  V30 9591 C 904.919 3.00881 -4.88117 0
M  V30 9592 N 904.415 3.5107 -5.97262 0
M  V30 9593 N 906.208 2.99722 -4.75524 0
M  V30 9594 H 898.359 0.151524 -2.11859 0
M  V30 9595 H 900.622 0.129845 -0.939066 0
M  V30 9596 H 900.328 1.06082 -3.3532 0
M  V30 9597 H 900.202 2.66988 -2.66453 0
M  V30 9598 H 902.589 2.40621 -1.70838 0
M  V30 9599 H 902.67 0.793482 -2.43182 0
M  V30 9600 H 902.314 1.8338 -4.73639 0
M  V30 9601 H 902.244 3.44611 -3.98184 0
M  V30 9602 H 904.735 2.1537 -3.10522 0
M  V30 9603 H 905.048 3.87604 -6.68568 0
M  V30 9604 H 903.393 3.49184 -6.00912 0
M  V30 9605 H 906.584 2.5981 -3.8938 0
M  V30 9606 H 906.757 3.38369 -5.52639 0
M  V30 9607 N 900.163 1.21714 1.00117 0
M  V30 9608 C 901.411 1.03465 1.73607 0
M  V30 9609 C 901.732 -0.432295 1.90148 0
M  V30 9610 O 901.002 -1.31157 1.45515 0
M  V30 9611 H 899.582 0.379857 0.643209 0
M  V30 9612 H 902.244 1.53088 1.20624 0
M  V30 9613 H 901.34 1.50574 2.73375 0
M  V30 9614 N 901.641 -1.19671 1.02551 0
M  V30 9615 C 902.571 -2.25009 0.623965 0
M  V30 9616 C 903.552 -1.66129 -0.36538 0
M  V30 9617 O 904.737 -1.92599 -0.248842 0
M  V30 9618 C 901.867 -3.47287 -0.0294869 0
M  V30 9619 C 900.821 -4.18818 0.881781 0
M  V30 9620 C 900.147 -5.34618 0.0936189 0
M  V30 9621 C 901.447 -4.73986 2.19396 0
M  V30 9622 H 903.141 -2.58851 1.50454 0
M  V30 9623 H 900.687 -1.24425 0.724872 0
M  V30 9624 H 902.64 -4.20168 -0.322016 0
M  V30 9625 H 901.364 -3.12635 -0.944838 0
M  V30 9626 H 900.023 -3.47815 1.15845 0
M  V30 9627 H 899.671 -4.9621 -0.823661 0
M  V30 9628 H 899.371 -5.83409 0.700568 0
M  V30 9629 H 900.895 -6.10297 -0.192249 0
M  V30 9630 H 902.309 -5.38639 1.96319 0
M  V30 9631 H 900.706 -5.3325 2.75254 0
M  V30 9632 H 901.776 -3.92238 2.85092 0
M  V30 9633 N 903.119 -0.802921 -1.35613 0
M  V30 9634 C 904.066 -0.20874 -2.29854 0
M  V30 9635 C 905.036 0.655128 -1.52634 0
M  V30 9636 O 906.221 0.600979 -1.81088 0
M  V30 9637 C 903.361 0.639663 -3.3912 0
M  V30 9638 C 902.474 -0.244234 -4.31309 0
M  V30 9639 C 901.609 0.611825 -5.27665 0
M  V30 9640 C 900.648 -0.272698 -6.11492 0
M  V30 9641 N 899.785 0.543122 -6.99996 0
M  V30 9642 H 904.625 -1.01782 -2.80079 0
M  V30 9643 H 902.162 -0.513465 -1.37848 0
M  V30 9644 H 904.12 1.14668 -4.01132 0
M  V30 9645 H 902.75 1.41404 -2.9018 0
M  V30 9646 H 901.802 -0.869322 -3.70334 0
M  V30 9647 H 903.114 -0.925202 -4.90144 0
M  V30 9648 H 902.268 1.18412 -5.95032 0
M  V30 9649 H 901.007 1.32637 -4.69317 0
M  V30 9650 H 900.012 -0.857287 -5.43075 0
M  V30 9651 H 901.237 -0.985051 -6.71918 0
M  V30 9652 H 899.183 1.24171 -6.44141 0
M  V30 9653 H 899.1 -0.0798767 -7.55958 0
M  V30 9654 H 900.368 1.09881 -7.71717 0
M  V30 9655 N 904.597 1.47463 -0.556102 0
M  V30 9656 C 905.544 2.29998 0.192213 0
M  V30 9657 C 906.514 1.38993 0.909403 0
M  V30 9658 O 907.699 1.67954 0.905316 0
M  V30 9659 C 904.839 3.22932 1.21692 0
M  V30 9660 C 903.952 4.29027 0.505908 0
M  V30 9661 C 903.087 5.09114 1.51581 0
M  V30 9662 C 902.126 6.06984 0.789714 0
M  V30 9663 N 901.263 6.80033 1.74639 0
M  V30 9664 H 906.103 2.93468 -0.517734 0
M  V30 9665 H 903.64 1.44654 -0.267147 0
M  V30 9666 H 905.598 3.75234 1.8236 0
M  V30 9667 H 904.228 2.61329 1.89491 0
M  V30 9668 H 903.28 3.7979 -0.215276 0
M  V30 9669 H 904.592 4.9876 -0.062958 0
M  V30 9670 H 903.746 5.6556 2.19606 0
M  V30 9671 H 902.485 4.3928 2.11859 0
M  V30 9672 H 901.49 5.49717 0.0955382 0
M  V30 9673 H 902.715 6.78827 0.192688 0
M  V30 9674 H 900.661 6.12931 2.33777 0
M  V30 9675 H 900.578 7.45933 1.22965 0
M  V30 9676 H 901.846 7.41054 2.41782 0
M  V30 9677 N 906.075 0.2925 1.54862 0
M  V30 9678 C 907.025 -0.60226 2.19902 0
M  V30 9679 C 908.009 -1.10535 1.16923 0
M  V30 9680 O 909.201 -1.04753 1.42674 0
M  V30 9681 C 906.33 -1.77774 2.93686 0
M  V30 9682 C 905.416 -1.29101 4.03972 0
M  V30 9683 N 905.807 -0.521671 5.03103 0
M  V30 9684 C 904.105 -1.57248 4.17359 0
M  V30 9685 C 904.806 -0.263545 5.81103 0
M  V30 9686 N 903.782 -0.840937 5.37056 0
M  V30 9687 H 907.584 -0.00682274 2.93899 0
M  V30 9688 H 905.098 0.0968604 1.62111 0
M  V30 9689 H 907.095 -2.43021 3.38743 0
M  V30 9690 H 905.755 -2.37696 2.21203 0
M  V30 9691 H 906.766 -0.167364 5.1763 0
M  V30 9692 H 903.443 -2.1798 3.56077 0
M  V30 9693 H 904.833 0.353783 6.70968 0
M  V30 9694 N 907.553 -1.57587 0.0200696 0
M  V30 9695 C 908.483 -2.12702 -0.963333 0
M  V30 9696 C 909.464 -1.04094 -1.34531 0
M  V30 9697 O 910.649 -1.31881 -1.42552 0
M  V30 9698 C 907.779 -2.64673 -2.24868 0
M  V30 9699 C 906.733 -3.77987 -2.00772 0
M  V30 9700 C 906.059 -4.16351 -3.35494 0
M  V30 9701 C 907.359 -5.0444 -1.35416 0
M  V30 9702 H 909.053 -2.95121 -0.504363 0
M  V30 9703 H 906.599 -1.41966 -0.24116 0
M  V30 9704 H 908.552 -3.01862 -2.94036 0
M  V30 9705 H 907.276 -1.79403 -2.72914 0
M  V30 9706 H 905.935 -3.41223 -1.34025 0
M  V30 9707 H 905.583 -3.28075 -3.81282 0
M  V30 9708 H 905.283 -4.92705 -3.20181 0
M  V30 9709 H 906.807 -4.56115 -4.05945 0
M  V30 9710 H 908.221 -5.39273 -1.94571 0
M  V30 9711 H 906.618 -5.85732 -1.30529 0
M  V30 9712 H 907.688 -4.83803 -0.325923 0
M  V30 9713 N 909.032 0.252966 -1.55557 0
M  V30 9714 C 909.962 1.31691 -1.9282 0
M  V30 9715 C 910.943 1.50516 -0.7924 0
M  V30 9716 O 912.128 1.63225 -1.05219 0
M  V30 9717 C 909.258 2.67281 -2.21762 0
M  V30 9718 C 908.212 2.6316 -3.37536 0
M  V30 9719 C 907.538 4.02488 -3.52005 0
M  V30 9720 C 908.838 2.20675 -4.73392 0
M  V30 9721 H 910.532 1.00751 -2.81939 0
M  V30 9722 H 908.078 0.483219 -1.3565 0
M  V30 9723 H 910.031 3.41842 -2.46419 0
M  V30 9724 H 908.755 2.99845 -1.29463 0
M  V30 9725 H 907.414 1.91057 -3.12878 0
M  V30 9726 H 907.062 4.32307 -2.57137 0
M  V30 9727 H 906.762 4.00621 -4.29857 0
M  V30 9728 H 908.286 4.78758 -3.78977 0
M  V30 9729 H 909.7 2.84965 -4.97461 0
M  V30 9730 H 908.097 2.29931 -5.54303 0
M  V30 9731 H 909.167 1.15831 -4.70862 0
M  V30 9732 N 910.51 1.48831 0.518367 0
M  V30 9733 C 911.44 1.67119 1.63075 0
M  V30 9734 C 912.421 0.519948 1.61958 0
M  V30 9735 O 913.606 0.753824 1.78972 0
M  V30 9736 C 910.736 1.72158 3.01627 0
M  V30 9737 C 909.69 2.86898 3.17606 0
M  V30 9738 C 909.016 2.77035 4.57335 0
M  V30 9739 C 910.316 4.28057 2.99274 0
M  V30 9740 H 912.01 2.60248 1.48025 0
M  V30 9741 H 909.556 1.2524 0.710694 0
M  V30 9742 H 911.509 1.83539 3.7933 0
M  V30 9743 H 910.233 0.756157 3.17726 0
M  V30 9744 H 908.892 2.75091 2.42323 0
M  V30 9745 H 908.54 1.78438 4.70286 0
M  V30 9746 H 908.24 3.54036 4.6897 0
M  V30 9747 H 909.764 2.904 5.37122 0
M  V30 9748 H 911.178 4.40636 3.6676 0
M  V30 9749 H 909.575 5.06145 3.22393 0
M  V30 9750 H 910.645 4.4371 1.95574 0
M  V30 9751 N 911.988 -0.768124 1.37614 0
M  V30 9752 C 912.951 -1.86314 1.3349 0
M  V30 9753 C 913.951 -1.59025 0.23823 0
M  V30 9754 O 915.141 -1.6704 0.494288 0
M  V30 9755 C 912.273 -3.23519 1.07462 0
M  V30 9756 H 913.466 -1.91382 2.30896 0
M  V30 9757 H 911.019 -0.968267 1.22696 0
M  V30 9758 H 911.754 -3.24127 0.106028 0
M  V30 9759 H 911.539 -3.44719 1.86846 0
M  V30 9760 H 913.029 -4.03597 1.07236 0
M  V30 9761 N 913.466 -1.22244 -0.994698 0
M  V30 9762 C 914.877 -1.043 -1.5485 0
M  V30 9763 C 915.228 0.394102 -1.92201 0
M  V30 9764 O 914.353 1.27883 -1.74571 0
M  V30 9765 C 914.948 -1.88708 -2.8138 0
M  V30 9766 C 913.507 -1.75067 -3.3321 0
M  V30 9767 C 912.654 -1.85286 -2.06312 0
M  V30 9768 H 915.605 -1.36115 -0.815988 0
M  V30 9769 H 915.626 -1.40342 -3.53673 0
M  V30 9770 H 915.138 -2.93296 -2.54164 0
M  V30 9771 H 913.239 -0.732047 -3.65338 0
M  V30 9772 H 913.352 -2.57632 -4.03934 0
M  V30 9773 H 911.716 -1.28706 -2.19788 0
M  V30 9774 H 912.499 -2.91401 -1.81494 0
M  V30 9775 N 914.944 1.19125 -1.03184 0
M  V30 9776 C 916.169 1.93379 -0.749628 0
M  V30 9777 C 916.594 1.75153 0.685785 0
M  V30 9778 O 915.952 1.05579 1.47386 0
M  V30 9779 C 916 3.43101 -1.1097 0
M  V30 9780 O 915.104 4.11758 -0.230053 0
M  V30 9781 H 914.445 0.603605 -0.276689 0
M  V30 9782 H 916.975 1.51116 -1.37931 0
M  V30 9783 H 916.985 3.93778 -1.06785 0
M  V30 9784 H 915.66 3.55688 -2.15544 0
M  V30 9785 H 914.237 3.7143 -0.330748 0
M  V30 9786 N 916.422 0.810101 1.35185 0
M  V30 9787 C 917.699 0.315235 1.93043 0
M  V30 9788 C 918.079 -1.19567 1.73974 0
M  V30 9789 O 917.427 -1.99682 1.11083 0
M  V30 9790 C 917.637 0.730492 3.41269 0
M  V30 9791 C 918.985 0.721985 4.18417 0
M  V30 9792 O 920.009 0.672258 3.49799 0
M  V30 9793 O 918.868 0.783535 5.40854 0
M  V30 9794 H 915.962 0.0832774 0.822796 0
M  V30 9795 H 918.508 0.894034 1.4424 0
M  V30 9796 H 917.28 1.77169 3.48894 0
M  V30 9797 H 916.903 0.12669 3.97398 0
M  V30 9798 N 917.9 -1.47166 0.563914 0
M  V30 9799 C 919.146 -2.02756 0.0424338 0
M  V30 9800 C 919.479 -1.43662 -1.3067 0
M  V30 9801 O 918.754 -0.594676 -1.85186 0
M  V30 9802 C 919.037 -3.60074 -0.0434793 0
M  V30 9803 C 918.89 -4.29587 1.33323 0
M  V30 9804 C 920.209 -4.336 -0.753568 0
M  V30 9805 H 917.328 -0.736806 0.0168946 0
M  V30 9806 H 919.97 -1.75521 0.727496 0
M  V30 9807 H 918.12 -3.83409 -0.626906 0
M  V30 9808 H 919.792 -4.17573 1.96037 0
M  V30 9809 H 918.035 -3.8968 1.9061 0
M  V30 9810 H 918.706 -5.38218 1.22576 0
M  V30 9811 H 921.182 -4.15299 -0.258126 0
M  V30 9812 H 920.058 -5.43291 -0.782659 0
M  V30 9813 H 920.319 -4.03302 -1.81108 0
M  V30 9814 N 919.378 -0.300708 -1.54705 0
M  V30 9815 C 920.341 0.562648 -2.22187 0
M  V30 9816 C 921.341 1.06152 -1.20782 0
M  V30 9817 O 922.531 0.957596 -1.45519 0
M  V30 9818 C 919.663 1.77899 -2.908 0
M  V30 9819 H 920.856 -0.0269361 -2.99888 0
M  V30 9820 H 918.409 -0.0515412 -1.56215 0
M  V30 9821 H 919.144 2.40841 -2.17177 0
M  V30 9822 H 918.929 1.42892 -3.65136 0
M  V30 9823 H 920.419 2.39236 -3.42281 0
M  V30 9824 N 920.856 1.57574 -0.0284266 0
M  V30 9825 C 922.104 1.91393 0.649079 0
M  V30 9826 C 922.425 0.905368 1.72708 0
M  V30 9827 O 921.695 -0.0532107 1.95828 0
M  V30 9828 H 920.275 0.70646 0.24274 0
M  V30 9829 H 922.937 1.94752 -0.076066 0
M  V30 9830 H 922.033 2.91988 1.10226 0
M  V30 9831 N 922.334 -0.244713 1.55689 0
M  V30 9832 C 923.58 -0.969623 1.78801 0
M  V30 9833 C 923.935 -1.8288 0.597716 0
M  V30 9834 O 923.228 -1.87184 -0.408978 0
M  V30 9835 C 923.422 -1.8617 3.05083 0
M  V30 9836 C 923.251 -1.09036 4.36281 0
M  V30 9837 C 922.021 -0.794585 4.99013 0
M  V30 9838 C 924.219 -0.466883 5.12176 0
M  V30 9839 N 922.201 0.000579944 6.139 0
M  V30 9840 C 923.572 0.192755 6.197 0
M  V30 9841 C 925.627 -0.377571 4.96466 0
M  V30 9842 C 924.33 0.933132 7.13222 0
M  V30 9843 C 926.356 0.349281 5.90368 0
M  V30 9844 C 925.718 0.997549 6.97301 0
M  V30 9845 H 921.817 -0.335845 0.70621 0
M  V30 9846 H 924.401 -0.242559 1.93183 0
M  V30 9847 H 922.572 -2.56077 2.92026 0
M  V30 9848 H 924.304 -2.52234 3.16481 0
M  V30 9849 H 921.059 -1.10691 4.60483 0
M  V30 9850 H 921.483 0.38632 6.75897 0
M  V30 9851 H 926.125 -0.86443 4.13869 0
M  V30 9852 H 923.843 1.43159 7.95318 0
M  V30 9853 H 927.429 0.419082 5.80289 0
M  V30 9854 H 926.309 1.551 7.68709 0
M  V30 9855 N 923.813 -1.49104 -0.510467 0
M  V30 9856 C 925.061 -1.578 -1.26268 0
M  V30 9857 C 925.382 -0.262349 -1.93227 0
M  V30 9858 O 924.652 0.717624 -1.82283 0
M  V30 9859 H 923.232 -0.581387 -0.46904 0
M  V30 9860 H 925.894 -1.85678 -0.592423 0
M  V30 9861 H 924.99 -2.36919 -2.03165 0
M  V30 9862 N 925.291 0.760815 -1.38019 0
M  V30 9863 C 926.519 1.55001 -1.37048 0
M  V30 9864 C 926.934 1.88754 0.0415261 0
M  V30 9865 O 926.291 1.52254 1.00624 0
M  V30 9866 C 926.342 2.8536 -2.21928 0
M  V30 9867 O 926.063 2.53049 -3.57628 0
M  V30 9868 C 927.564 3.79536 -2.29057 0
M  V30 9869 H 924.784 0.479844 -0.469032 0
M  V30 9870 H 927.328 0.942148 -1.81504 0
M  V30 9871 H 925.483 3.42542 -1.80953 0
M  V30 9872 H 925.897 3.36604 -4.02241 0
M  V30 9873 H 927.371 4.67977 -2.92749 0
M  V30 9874 H 927.848 4.19453 -1.30213 0
M  V30 9875 H 928.454 3.28281 -2.70392 0
M  V30 9876 N 926.769 1.22769 0.988202 0
M  V30 9877 C 928.016 1.05509 1.72841 0
M  V30 9878 C 928.344 -0.409145 1.90148 0
M  V30 9879 O 927.599 -1.3195 1.44526 0
M  V30 9880 C 927.898 1.71679 3.13466 0
M  V30 9881 C 927.564 3.21584 3.16061 0
M  V30 9882 C 926.226 3.62486 3.16476 0
M  V30 9883 C 928.578 4.17511 3.11984 0
M  V30 9884 C 925.906 4.97789 3.10521 0
M  V30 9885 C 928.258 5.52796 3.0757 0
M  V30 9886 C 926.922 5.93072 3.06304 0
M  V30 9887 H 926.192 0.386085 0.632471 0
M  V30 9888 H 928.839 1.52596 1.157 0
M  V30 9889 H 927.144 1.1693 3.73945 0
M  V30 9890 H 928.841 1.55809 3.69492 0
M  V30 9891 H 925.431 2.89019 3.1649 0
M  V30 9892 H 929.615 3.86926 3.10809 0
M  V30 9893 H 924.871 5.28218 3.07888 0
M  V30 9894 H 929.045 6.26848 3.03372 0
M  V30 9895 H 926.672 6.97879 3.01444 0
M  V30 9896 N 928.247 -1.18576 1.03814 0
M  V30 9897 C 929.496 -1.87822 0.735235 0
M  V30 9898 C 929.809 -1.81069 -0.739819 0
M  V30 9899 O 931.015 -2.45654 -1.15614 0
M  V30 9900 C 929.471 -3.36941 1.26486 0
M  V30 9901 C 929.079 -3.5223 2.76836 0
M  V30 9902 C 930.823 -4.11604 1.03836 0
M  V30 9903 C 928.73 -4.95294 3.23169 0
M  V30 9904 H 927.66 -0.703487 0.271333 0
M  V30 9905 H 930.311 -1.34 1.25365 0
M  V30 9906 H 928.693 -3.90217 0.674318 0
M  V30 9907 H 929.867 -3.09239 3.41625 0
M  V30 9908 H 928.182 -2.90969 2.97869 0
M  V30 9909 H 930.779 -5.17123 1.3597 0
M  V30 9910 H 931.122 -4.16293 -0.0244945 0
M  V30 9911 H 931.655 -3.64494 1.59338 0
M  V30 9912 H 928.394 -4.95772 4.28824 0
M  V30 9913 H 927.914 -5.3901 2.63113 0
M  V30 9914 H 929.593 -5.63996 3.17045 0
M  V30 9915 N 929.725 -0.817259 -1.34754 0
M  V30 9916 C 930.672 -0.233108 -2.2962 0
M  V30 9917 C 931.642 0.638902 -1.53321 0
M  V30 9918 O 932.827 0.581739 -1.81715 0
M  V30 9919 C 929.967 0.603659 -3.39779 0
M  V30 9920 C 929.08 -0.289967 -4.31026 0
M  V30 9921 C 928.215 0.555825 -5.28284 0
M  V30 9922 C 927.254 -0.337539 -6.11169 0
M  V30 9923 N 926.391 0.468847 -7.00533 0
M  V30 9924 H 931.231 -1.04747 -2.78984 0
M  V30 9925 H 928.768 -0.528056 -1.37295 0
M  V30 9926 H 930.726 1.10407 -4.02326 0
M  V30 9927 H 929.356 1.38319 -2.91664 0
M  V30 9928 H 928.408 -0.908552 -3.69391 0
M  V30 9929 H 929.72 -0.977136 -4.89135 0
M  V30 9930 H 928.874 1.12094 -5.96255 0
M  V30 9931 H 927.613 1.27652 -4.70698 0
M  V30 9932 H 926.618 -0.914839 -5.42135 0
M  V30 9933 H 927.843 -1.05626 -6.70835 0
M  V30 9934 H 925.789 1.17332 -6.45422 0
M  V30 9935 H 925.706 -0.160052 -7.55831 0
M  V30 9936 H 926.974 1.01689 -7.72839 0
M  V30 9937 N 931.203 1.46865 -0.571711 0
M  V30 9938 C 932.113 2.33979 0.170571 0
M  V30 9939 C 933.129 1.49083 0.897239 0
M  V30 9940 O 934.305 1.81979 0.862888 0
M  V30 9941 C 931.37 3.26063 1.17831 0
M  V30 9942 C 930.431 4.26855 0.457499 0
M  V30 9943 C 929.664 5.14539 1.41722 0
M  V30 9944 O 929.887 5.04945 2.65305 0
M  V30 9945 O 928.821 5.94612 0.9338 0
M  V30 9946 H 932.647 2.98781 -0.544396 0
M  V30 9947 H 930.232 1.4566 -0.332198 0
M  V30 9948 H 932.114 3.82903 1.75965 0
M  V30 9949 H 930.789 2.63871 1.87493 0
M  V30 9950 H 929.696 3.73734 -0.165406 0
M  V30 9951 H 931.029 4.91802 -0.197953 0
M  V30 9952 N 932.681 0.308908 1.54543 0
M  V30 9953 C 933.906 -0.303196 2.05172 0
M  V30 9954 C 934.331 -1.46133 1.18434 0
M  V30 9955 O 933.689 -1.803 0.190162 0
M  V30 9956 C 933.737 -0.729526 3.53143 0
M  V30 9957 O 932.841 -1.83348 3.69401 0
M  V30 9958 H 932.182 -0.0575066 0.661505 0
M  V30 9959 H 934.712 0.453055 1.99521 0
M  V30 9960 H 934.722 -1.01619 3.95143 0
M  V30 9961 H 933.397 0.117622 4.15734 0
M  V30 9962 H 931.974 -1.54676 3.39308 0
M  V30 9963 N 934.159 -1.57557 0.0367827 0
M  V30 9964 C 935.405 -1.92399 -0.641133 0
M  V30 9965 C 935.738 -0.914191 -1.71336 0
M  V30 9966 O 935.013 0.0619616 -1.94401 0
M  V30 9967 C 935.296 -3.37689 -1.25052 0
M  V30 9968 C 935.149 -4.4941 -0.187326 0
M  V30 9969 C 936.468 -3.8309 -2.16634 0
M  V30 9970 H 933.587 -0.699666 -0.231597 0
M  V30 9971 H 936.229 -1.89759 0.0956083 0
M  V30 9972 H 934.379 -3.40069 -1.87843 0
M  V30 9973 H 936.051 -4.59161 0.443736 0
M  V30 9974 H 934.294 -4.31065 0.486313 0
M  V30 9975 H 934.965 -5.48119 -0.653459 0
M  V30 9976 H 937.441 -3.82494 -1.63821 0
M  V30 9977 H 936.317 -4.85429 -2.56222 0
M  V30 9978 H 936.578 -3.19028 -3.06062 0
M  V30 9979 N 935.637 0.236453 -1.55816 0
M  V30 9980 C 936.569 1.31602 -1.87653 0
M  V30 9981 C 937.582 1.43782 -0.763584 0
M  V30 9982 O 938.771 1.44945 -1.04178 0
M  V30 9983 C 935.871 2.69342 -2.05689 0
M  V30 9984 C 935.044 2.79298 -3.36617 0
M  V30 9985 C 934.103 3.97952 -3.44268 0
M  V30 9986 O 933.129 3.86989 -4.17406 0
M  V30 9987 N 934.331 5.11594 -2.74321 0
M  V30 9988 H 937.096 1.04623 -2.80845 0
M  V30 9989 H 934.657 0.426534 -1.5618 0
M  V30 9990 H 936.649 3.47074 -2.08138 0
M  V30 9991 H 935.219 2.88984 -1.19192 0
M  V30 9992 H 934.439 1.8816 -3.46395 0
M  V30 9993 H 935.727 2.82908 -4.22895 0
M  V30 9994 H 935.125 5.23394 -2.14651 0
M  V30 9995 H 933.682 5.87422 -2.8245 0
M  V30 9996 N 937.115 1.49373 0.502552 0
M  V30 9997 C 938.062 1.65927 1.60427 0
M  V30 9998 C 939.032 0.500768 1.58371 0
M  V30 9999 O 940.217 0.727606 1.76382 0
M  V30 10000 C 937.357 1.73043 2.9858 0
M  V30 10001 C 936.47 3.00187 3.10663 0
M  V30 10002 C 935.605 2.98292 4.3954 0
M  V30 10003 C 934.644 4.20022 4.4525 0
M  V30 10004 N 933.781 4.16046 5.65553 0
M  V30 10005 H 938.621 2.59998 1.45619 0
M  V30 10006 H 936.158 1.28912 0.708519 0
M  V30 10007 H 938.116 1.7515 3.78653 0
M  V30 10008 H 936.746 0.824397 3.12095 0
M  V30 10009 H 935.798 3.07699 2.23663 0
M  V30 10010 H 937.11 3.9018 3.10742 0
M  V30 10011 H 936.264 2.98953 5.27932 0
M  V30 10012 H 935.003 2.06075 4.42023 0
M  V30 10013 H 934.008 4.19607 3.5526 0
M  V30 10014 H 935.233 5.13431 4.44484 0
M  V30 10015 H 933.179 3.26665 5.68881 0
M  V30 10016 H 933.096 4.99773 5.67242 0
M  V30 10017 H 934.364 4.20807 6.56156 0
M  V30 10018 N 938.594 -0.753485 1.38421 0
M  V30 10019 C 939.542 -1.8886 1.35774 0
M  V30 10020 C 940.536 -1.67639 0.243608 0
M  V30 10021 O 941.742 -1.75206 0.412649 0
M  V30 10022 H 938.117 -0.62137 0.42356 0
M  V30 10023 H 940.088 -1.88209 2.3156 0
M  V30 10024 C 938.837 -3.26344 1.19979 0
M  V30 10025 H 938.16 -3.43259 2.04971 0
M  V30 10026 H 939.6 -4.06015 1.22181 0
M  V30 10027 C 938.059 -3.36771 -0.0932867 0
M  V30 10028 O 938.589 -3.8718 -1.07027 0
M  V30 10029 N 936.795 -2.90212 -0.150154 0
M  V30 10030 H 936.342 -2.4938 0.645562 0
M  V30 10031 H 936.3 -2.97569 -1.0149 0
M  V30 10032 N 940.072 -1.23292 -0.981677 0
M  V30 10033 C 940.982 -1.02964 -2.10798 0
M  V30 10034 C 941.998 0.0254674 -1.73981 0
M  V30 10035 O 943.174 -0.169706 -2.00684 0
M  V30 10036 C 940.239 -0.621934 -3.41076 0
M  V30 10037 C 939.3 -1.75194 -3.91926 0
M  V30 10038 C 938.533 -1.36359 -5.15986 0
M  V30 10039 O 938.756 -0.247265 -5.69864 0
M  V30 10040 O 937.69 -2.18421 -5.60871 0
M  V30 10041 H 941.516 -1.97354 -2.30836 0
M  V30 10042 H 939.101 -1.01986 -1.09175 0
M  V30 10043 H 940.983 -0.405446 -4.19445 0
M  V30 10044 H 939.658 0.29299 -3.22371 0
M  V30 10045 H 938.565 -2.02305 -3.1468 0
M  V30 10046 H 939.898 -2.64513 -4.15083 0
M  V30 10047 N 941.55 1.18024 -1.04442 0
M  V30 10048 C 942.797 1.88098 -0.750022 0
M  V30 10049 C 943.125 1.80583 0.722489 0
M  V30 10050 O 942.38 1.20329 1.54335 0
M  V30 10051 C 942.679 3.37834 -1.16631 0
M  V30 10052 C 942.345 3.65553 -2.63974 0
M  V30 10053 C 941.007 3.72827 -3.04226 0
M  V30 10054 C 943.359 3.77634 -3.59224 0
M  V30 10055 C 940.687 3.89666 -4.38608 0
M  V30 10056 C 943.039 3.9599 -4.9333 0
M  V30 10057 C 941.703 4.01501 -5.33248 0
M  V30 10058 H 940.973 0.6883 -0.274452 0
M  V30 10059 H 943.62 1.39671 -1.31012 0
M  V30 10060 H 941.925 3.88266 -0.525071 0
M  V30 10061 H 943.622 3.90402 -0.915827 0
M  V30 10062 H 940.212 3.6051 -2.31798 0
M  V30 10063 H 944.396 3.71342 -3.2927 0
M  V30 10064 H 939.652 3.92178 -4.69048 0
M  V30 10065 H 943.826 4.0428 -5.67037 0
M  V30 10066 H 941.453 4.14301 -6.37384 0
M  V30 10067 N 943.028 0.824394 1.34319 0
M  V30 10068 C 944.277 0.40956 1.97498 0
M  V30 10069 C 944.59 -1.03323 1.66083 0
M  V30 10070 O 945.796 -1.55205 2.22764 0
M  V30 10071 C 944.252 0.681384 3.53391 0
M  V30 10072 C 943.86 2.1379 3.93698 0
M  V30 10073 C 945.604 0.332788 4.23194 0
M  V30 10074 C 943.511 2.35453 5.42509 0
M  V30 10075 H 942.441 0.149409 0.739049 0
M  V30 10076 H 945.092 1.01095 1.5314 0
M  V30 10077 H 943.474 0.00980375 3.95999 0
M  V30 10078 H 944.648 2.84876 3.62191 0
M  V30 10079 H 942.963 2.44807 3.36836 0
M  V30 10080 H 945.56 0.472463 5.32609 0
M  V30 10081 H 945.903 -0.722862 4.09976 0
M  V30 10082 H 946.436 0.959005 3.86067 0
M  V30 10083 H 943.175 3.39529 5.60714 0
M  V30 10084 H 942.695 1.68912 5.75525 0
M  V30 10085 H 944.374 2.17885 6.09209 0
M  V30 10086 N 944.506 -1.46559 0.579492 0
M  V30 10087 C 945.731 -2.0729 0.0674595 0
M  V30 10088 C 946.156 -1.4259 -1.22677 0
M  V30 10089 O 945.514 -0.50857 -1.74021 0
M  V30 10090 C 945.562 -3.60492 -0.0882227 0
M  V30 10091 O 944.666 -3.96172 -1.14551 0
M  V30 10092 H 944.007 -0.661159 0.0613536 0
M  V30 10093 H 946.537 -1.88247 0.801519 0
M  V30 10094 H 946.547 -4.06929 -0.295411 0
M  V30 10095 H 945.222 -4.06976 0.856943 0
M  V30 10096 H 943.799 -3.61448 -0.917033 0
M  V30 10097 N 945.984 -0.3171 -1.54377 0
M  V30 10098 C 946.894 0.560867 -2.27797 0
M  V30 10099 C 947.91 1.13473 -1.31908 0
M  V30 10100 O 949.086 1.15608 -1.64914 0
M  V30 10101 C 946.151 1.70886 -3.0166 0
M  V30 10102 C 945.212 1.16745 -4.13121 0
M  V30 10103 C 944.445 2.26073 -4.83453 0
M  V30 10104 O 944.668 3.46292 -4.53252 0
M  V30 10105 O 943.602 1.91856 -5.70504 0
M  V30 10106 H 947.428 -0.035193 -3.0368 0
M  V30 10107 H 945.013 -0.0830062 -1.49169 0
M  V30 10108 H 946.895 2.37736 -3.47936 0
M  V30 10109 H 945.57 2.29122 -2.28658 0
M  V30 10110 H 944.477 0.464224 -3.71209 0
M  V30 10111 H 945.81 0.630307 -4.88147 0
M  V30 10112 N 947.462 1.57535 -0.0451378 0
M  V30 10113 C 948.692 1.96476 0.638814 0
M  V30 10114 C 949.1 0.921056 1.65267 0
M  V30 10115 O 948.443 -0.103843 1.83406 0
M  V30 10116 C 948.505 3.31629 1.38788 0
M  V30 10117 C 948.169 4.5391 0.530545 0
M  V30 10118 C 949.166 5.19512 -0.200864 0
M  V30 10119 C 946.851 5.00159 0.463242 0
M  V30 10120 C 948.845 6.29695 -0.988078 0
M  V30 10121 C 946.532 6.10221 -0.327665 0
M  V30 10122 C 947.53 6.74849 -1.05202 0
M  V30 10123 O 947.218 7.82795 -1.82993 0
M  V30 10124 H 946.95 0.651625 0.17989 0
M  V30 10125 H 949.504 2.05126 -0.106031 0
M  V30 10126 H 947.734 3.19516 2.17822 0
M  V30 10127 H 949.423 3.5536 1.96148 0
M  V30 10128 H 950.189 4.84742 -0.158299 0
M  V30 10129 H 946.068 4.49651 1.01663 0
M  V30 10130 H 949.612 6.80072 -1.55397 0
M  V30 10131 H 945.509 6.44428 -0.37189 0
M  V30 10132 H 946.277 7.99542 -1.7514 0
M  V30 10133 N 948.94 -0.228186 1.55939 0
M  V30 10134 C 950.18 -0.960695 1.80416 0
M  V30 10135 C 950.544 -1.81795 0.617615 0
M  V30 10136 O 951.745 -2.58369 0.741545 0
M  V30 10137 C 950.016 -1.78298 3.09749 0
M  V30 10138 S 951.575 -2.57203 3.55517 0
M  V30 10139 H 948.393 -0.322825 0.633486 0
M  V30 10140 H 950.995 -0.226852 1.94179 0
M  V30 10141 H 949.699 -1.14323 3.94155 0
M  V30 10142 H 949.23 -2.55924 2.98775 0
M  V30 10143 H 951.245 -3.80632 3.1833 0
M  V30 10144 N 950.418 -1.49637 -0.494624 0
M  V30 10145 C 951.666 -1.5913 -1.24587 0
M  V30 10146 C 951.987 -0.282828 -1.92938 0
M  V30 10147 O 951.257 0.69825 -1.83034 0
M  V30 10148 H 949.837 -0.586329 -0.462847 0
M  V30 10149 H 952.499 -1.86296 -0.572696 0
M  V30 10150 H 951.595 -2.3906 -2.00641 0
M  V30 10151 N 951.896 0.746133 -1.38819 0
M  V30 10152 C 952.806 1.89063 -1.38897 0
M  V30 10153 C 953.822 1.71648 -0.28513 0
M  V30 10154 O 954.998 1.94443 -0.524783 0
M  V30 10155 C 952.063 3.24523 -1.22007 0
M  V30 10156 C 951.124 3.54411 -2.42263 0
M  V30 10157 C 950.357 4.83408 -2.26169 0
M  V30 10158 O 950.58 5.56325 -1.25931 0
M  V30 10159 O 949.514 5.12943 -3.14918 0
M  V30 10160 H 953.34 1.91951 -2.35347 0
M  V30 10161 H 950.925 0.892433 -1.19816 0
M  V30 10162 H 952.807 4.05496 -1.14677 0
M  V30 10163 H 951.482 3.2243 -0.286455 0
M  V30 10164 H 950.389 2.73569 -2.55168 0
M  V30 10165 H 951.722 3.61273 -3.3428 0
M  V30 10166 N 953.375 1.23811 0.975125 0
M  V30 10167 C 954.305 1.04846 2.08638 0
M  V30 10168 C 955.286 -0.0362859 1.70061 0
M  V30 10169 O 956.471 0.12937 1.93769 0
M  V30 10170 C 953.601 0.644534 3.41267 0
M  V30 10171 C 952.555 1.67722 3.93768 0
M  V30 10172 C 951.881 1.12857 5.22654 0
M  V30 10173 C 953.181 3.07147 4.22443 0
M  V30 10174 H 954.875 1.97795 2.24761 0
M  V30 10175 H 952.421 0.952397 1.08006 0
M  V30 10176 H 954.374 0.498887 4.18436 0
M  V30 10177 H 953.098 -0.320641 3.25022 0
M  V30 10178 H 951.757 1.81095 3.18748 0
M  V30 10179 H 951.405 0.154227 5.02764 0
M  V30 10180 H 951.105 1.81862 5.58749 0
M  V30 10181 H 952.629 0.994891 6.0244 0
M  V30 10182 H 954.043 2.97045 4.90344 0
M  V30 10183 H 952.44 3.73437 4.6975 0
M  V30 10184 H 953.51 3.55743 3.29507 0
M  V30 10185 N 954.853 -1.17469 1.05066 0
M  V30 10186 C 956.102 -1.87032 0.755114 0
M  V30 10187 C 956.415 -1.81844 -0.720572 0
M  V30 10188 O 957.621 -2.46866 -1.13002 0
M  V30 10189 C 956.077 -3.35581 1.30052 0
M  V30 10190 C 955.685 -3.49274 2.80556 0
M  V30 10191 C 957.429 -4.1048 1.08196 0
M  V30 10192 C 955.336 -4.91838 3.28404 0
M  V30 10193 H 954.266 -0.70057 0.278779 0
M  V30 10194 H 956.917 -1.32663 1.26779 0
M  V30 10195 H 955.299 -3.89479 0.715667 0
M  V30 10196 H 956.473 -3.05598 3.44886 0
M  V30 10197 H 954.788 -2.87793 3.00939 0
M  V30 10198 H 957.385 -5.15652 1.41447 0
M  V30 10199 H 957.728 -4.16295 0.0196603 0
M  V30 10200 H 958.261 -3.62784 1.63195 0
M  V30 10201 H 955 -4.91196 4.34058 0
M  V30 10202 H 954.52 -5.36189 2.68815 0
M  V30 10203 H 956.199 -5.60602 3.23009 0
M  V30 10204 N 956.331 -0.831506 -1.3388 0
M  V30 10205 C 957.556 -0.435954 -2.02766 0
M  V30 10206 C 957.981 0.952889 -1.62178 0
M  V30 10207 O 957.339 1.62166 -0.810681 0
M  V30 10208 C 957.387 -0.555907 -3.56289 0
M  V30 10209 O 956.491 0.420826 -4.10247 0
M  V30 10210 H 955.832 -0.178248 -0.639628 0
M  V30 10211 H 958.362 -1.1243 -1.70941 0
M  V30 10212 H 958.372 -0.434831 -4.05676 0
M  V30 10213 H 957.047 -1.56881 -3.85177 0
M  V30 10214 H 955.624 0.257919 -3.72007 0
M  V30 10215 N 957.809 1.4625 -0.587256 0
M  V30 10216 C 958.741 2.28482 0.181256 0
M  V30 10217 C 959.754 1.38777 0.851163 0
M  V30 10218 O 960.943 1.63336 0.719963 0
M  V30 10219 C 958.043 3.13944 1.27643 0
M  V30 10220 C 957.216 4.31802 0.697569 0
M  V30 10221 C 956.275 4.98626 1.68102 0
M  V30 10222 O 955.301 5.56075 1.21529 0
M  V30 10223 N 956.503 4.96051 3.0152 0
M  V30 10224 H 959.268 2.95079 -0.524267 0
M  V30 10225 H 956.829 1.56213 -0.425336 0
M  V30 10226 H 958.821 3.55513 1.93371 0
M  V30 10227 H 957.391 2.49391 1.88475 0
M  V30 10228 H 956.611 3.93961 -0.137293 0
M  V30 10229 H 957.899 5.07969 0.290696 0
M  V30 10230 H 957.297 4.5063 3.41978 0
M  V30 10231 H 955.854 5.41547 3.62725 0
M  V30 10232 N 959.287 0.325282 1.54207 0
M  V30 10233 C 960.564 -0.33113 1.92777 0
M  V30 10234 C 960.944 -1.69739 1.25506 0
M  V30 10235 O 960.292 -2.24983 0.399385 0
M  V30 10236 C 960.502 -0.421636 3.46444 0
M  V30 10237 C 961.85 -0.681111 4.19101 0
M  V30 10238 O 962.874 -0.504488 3.52609 0
M  V30 10239 O 961.733 -1.02196 5.3686 0
M  V30 10240 H 958.827 -0.18943 0.805013 0
M  V30 10241 H 961.373 0.375123 1.65502 0
M  V30 10242 H 960.145 0.537862 3.87586 0
M  V30 10243 H 959.768 -1.1754 3.79829 0
M  V30 10244 N 960.765 -1.57509 0.0534917 0
M  V30 10245 C 961.675 -2.15152 -0.935249 0
M  V30 10246 C 962.691 -1.10991 -1.34003 0
M  V30 10247 O 963.867 -1.43171 -1.41648 0
M  V30 10248 C 960.932 -2.68699 -2.19093 0
M  V30 10249 C 959.993 -3.87666 -1.84428 0
M  V30 10250 C 959.226 -4.3865 -3.0401 0
M  V30 10251 O 959.449 -3.887 -4.17455 0
M  V30 10252 O 958.383 -5.30209 -2.84889 0
M  V30 10253 H 962.209 -2.99962 -0.475009 0
M  V30 10254 H 959.794 -1.48446 -0.16854 0
M  V30 10255 H 961.676 -3.03098 -2.92762 0
M  V30 10256 H 960.351 -1.86958 -2.6425 0
M  V30 10257 H 959.258 -3.58151 -1.08068 0
M  V30 10258 H 960.591 -4.70643 -1.44068 0
M  V30 10259 N 962.243 0.219913 -1.56058 0
M  V30 10260 C 963.206 1.25606 -1.91718 0
M  V30 10261 C 964.206 1.39721 -0.795912 0
M  V30 10262 O 965.396 1.37958 -1.06364 0
M  V30 10263 C 962.528 2.62961 -2.16943 0
M  V30 10264 H 963.721 0.951909 -2.84392 0
M  V30 10265 H 961.274 0.460398 -1.49365 0
M  V30 10266 H 962.009 2.98472 -1.26826 0
M  V30 10267 H 961.794 2.54093 -2.98629 0
M  V30 10268 H 963.284 3.37727 -2.45622 0
M  V30 10269 N 963.721 1.49897 0.486681 0
M  V30 10270 C 964.998 1.50614 1.24799 0
M  V30 10271 C 965.378 0.24193 2.09709 0
M  V30 10272 O 964.726 -0.775237 2.14947 0
M  V30 10273 C 964.936 2.79318 2.09243 0
M  V30 10274 C 966.284 3.29371 2.67955 0
M  V30 10275 O 967.308 2.80533 2.19499 0
M  V30 10276 O 966.167 4.14466 3.56202 0
M  V30 10277 H 963.261 0.603447 0.565491 0
M  V30 10278 H 965.807 1.62174 0.499778 0
M  V30 10279 H 964.579 3.62812 1.46572 0
M  V30 10280 H 964.202 2.70687 2.91229 0
M  V30 10281 N 965.199 -0.738761 1.39212 0
M  V30 10282 C 966.615 -1.04381 1.20734 0
M  V30 10283 C 966.815 -2.01391 0.0663082 0
M  V30 10284 O 965.871 -2.45672 -0.583229 0
M  V30 10285 C 967.184 -1.6097 2.53987 0
M  V30 10286 C 968.732 -1.73069 2.60799 0
M  V30 10287 C 969.207 -2.33067 3.94264 0
M  V30 10288 N 970.698 -2.40481 3.95883 0
M  V30 10289 C 971.433 -2.87834 4.95923 0
M  V30 10290 N 970.929 -3.35111 6.0636 0
M  V30 10291 N 972.722 -2.87009 4.83304 0
M  V30 10292 H 964.873 -0.0952996 2.12186 0
M  V30 10293 H 967.136 -0.104902 0.942178 0
M  V30 10294 H 966.842 -0.971548 3.38015 0
M  V30 10295 H 966.716 -2.59829 2.73439 0
M  V30 10296 H 969.103 -2.36007 1.77157 0
M  V30 10297 H 969.184 -0.728728 2.452 0
M  V30 10298 H 968.828 -1.70758 4.78335 0
M  V30 10299 H 968.758 -3.33933 4.07181 0
M  V30 10300 H 971.249 -2.07061 3.16123 0
M  V30 10301 H 971.562 -3.69742 6.78609 0
M  V30 10302 H 969.907 -3.33129 6.09959 0
M  V30 10303 H 973.098 -2.49395 3.96131 0
M  V30 10304 H 973.271 -3.23598 5.61416 0
M  V30 10305 N 966.677 -1.24326 -0.968545 0
M  V30 10306 C 968.093 -1.00847 -1.23701 0
M  V30 10307 C 968.293 0.283235 -1.99499 0
M  V30 10308 O 967.349 0.999607 -2.31871 0
M  V30 10309 C 968.662 -2.22295 -2.02498 0
M  V30 10310 C 970.21 -2.26911 -2.15593 0
M  V30 10311 C 970.685 -3.47978 -2.97784 0
M  V30 10312 N 972.176 -3.48289 -3.05367 0
M  V30 10313 C 972.911 -4.38625 -3.69318 0
M  V30 10314 N 972.407 -5.39213 -4.34995 0
M  V30 10315 N 974.2 -4.26339 -3.66322 0
M  V30 10316 H 966.351 -2.07335 -0.461087 0
M  V30 10317 H 968.614 -0.909805 -0.26638 0
M  V30 10318 H 968.32 -3.161 -1.54188 0
M  V30 10319 H 968.194 -2.24344 -3.03232 0
M  V30 10320 H 970.581 -1.33639 -2.63106 0
M  V30 10321 H 970.662 -2.28888 -1.14209 0
M  V30 10322 H 970.306 -4.41564 -2.50965 0
M  V30 10323 H 970.236 -3.43244 -3.99364 0
M  V30 10324 H 972.727 -2.75517 -2.58648 0
M  V30 10325 H 973.04 -6.04378 -4.81608 0
M  V30 10326 H 971.385 -5.43101 -4.33667 0
M  V30 10327 H 974.576 -3.46991 -3.14189 0
M  V30 10328 H 974.749 -4.9694 -4.15878 0
M  V30 10329 N 968.156 1.1691 -1.05688 0
M  V30 10330 C 969.404 1.86922 -0.768409 0
M  V30 10331 C 969.725 1.81735 0.706921 0
M  V30 10332 O 968.995 1.24671 1.51109 0
M  V30 10333 H 967.575 0.69203 -0.281253 0
M  V30 10334 H 970.237 1.41803 -1.33708 0
M  V30 10335 H 969.333 2.92528 -1.08783 0
M  V30 10336 N 969.634 0.838594 1.33437 0
M  V30 10337 C 970.581 0.269609 2.2922 0
M  V30 10338 C 971.551 -0.614429 1.54318 0
M  V30 10339 O 972.736 -0.552756 1.82618 0
M  V30 10340 C 969.876 -0.549527 3.40697 0
M  V30 10341 C 968.989 0.358502 4.3051 0
M  V30 10342 C 968.124 -0.471709 5.29101 0
M  V30 10343 C 967.163 0.434728 6.10554 0
M  V30 10344 N 966.3 -0.357339 7.0119 0
M  V30 10345 H 971.14 1.09172 2.77282 0
M  V30 10346 H 968.677 0.549832 1.36438 0
M  V30 10347 H 970.635 -1.03992 4.04032 0
M  V30 10348 H 969.265 -1.33661 2.93828 0
M  V30 10349 H 968.317 0.967204 3.67899 0
M  V30 10350 H 969.629 1.05483 4.87519 0
M  V30 10351 H 968.783 -1.02594 5.97963 0
M  V30 10352 H 967.522 -1.20147 4.72669 0
M  V30 10353 H 966.527 1.00097 5.40611 0
M  V30 10354 H 967.752 1.16285 6.6907 0
M  V30 10355 H 965.698 -1.07049 6.47207 0
M  V30 10356 H 965.615 0.280277 7.5548 0
M  V30 10357 H 966.883 -0.893814 7.74359 0
M  V30 10358 N 971.112 -1.45937 0.595003 0
M  V30 10359 C 972.358 -2.0262 0.0854317 0
M  V30 10360 C 972.691 -1.46402 -1.27594 0
M  V30 10361 O 971.966 -0.633823 -1.83883 0
M  V30 10362 C 972.249 -3.60085 0.0329075 0
M  V30 10363 C 972.102 -4.26663 1.42405 0
M  V30 10364 C 973.421 -4.35101 -0.661426 0
M  V30 10365 H 970.54 -0.736282 0.0325196 0
M  V30 10366 H 973.182 -1.73938 0.764563 0
M  V30 10367 H 971.332 -3.84652 -0.545439 0
M  V30 10368 H 973.004 -4.13321 2.04851 0
M  V30 10369 H 971.247 -3.85549 1.98833 0
M  V30 10370 H 971.918 -5.35497 1.33965 0
M  V30 10371 H 974.394 -4.15753 -0.169977 0
M  V30 10372 H 973.27 -5.44829 -0.667243 0
M  V30 10373 H 973.531 -4.07053 -1.72513 0
M  V30 10374 N 972.59 -0.333456 -1.54032 0
M  V30 10375 C 973.82 0.267425 -2.04862 0
M  V30 10376 C 974.228 1.45559 -1.20869 0
M  V30 10377 O 973.571 1.82197 -0.234478 0
M  V30 10378 C 973.633 0.755759 -3.51466 0
M  V30 10379 C 973.297 -0.311409 -4.55938 0
M  V30 10380 C 974.294 -1.15078 -5.07004 0
M  V30 10381 C 971.979 -0.462439 -5.00167 0
M  V30 10382 C 973.973 -2.12682 -6.0087 0
M  V30 10383 C 971.66 -1.44188 -5.93846 0
M  V30 10384 C 972.658 -2.27253 -6.44085 0
M  V30 10385 O 972.346 -3.23532 -7.35923 0
M  V30 10386 H 972.078 0.0572596 -0.673571 0
M  V30 10387 H 974.632 -0.480646 -1.99697 0
M  V30 10388 H 972.862 1.55491 -3.54062 0
M  V30 10389 H 974.551 1.27607 -3.8532 0
M  V30 10390 H 975.317 -1.04513 -4.73605 0
M  V30 10391 H 971.196 0.17424 -4.60671 0
M  V30 10392 H 974.74 -2.77555 -6.40007 0
M  V30 10393 H 970.637 -1.54813 -6.2666 0
M  V30 10394 H 971.405 -3.18886 -7.53826 0
M  V30 10395 N 974.068 1.57479 -0.061844 0
M  V30 10396 C 975.345 1.84484 0.649993 0
M  V30 10397 C 975.725 0.952366 1.88396 0
M  V30 10398 O 975.073 0.0161035 2.28494 0
M  V30 10399 C 975.283 3.34452 0.997133 0
M  V30 10400 C 976.631 4.01724 1.37488 0
M  V30 10401 O 977.655 3.3914 1.08916 0
M  V30 10402 O 976.514 5.12091 1.90854 0
M  V30 10403 H 973.608 0.761798 0.321858 0
M  V30 10404 H 976.154 1.6945 -0.0920192 0
M  V30 10405 H 974.926 3.91115 0.120301 0
M  V30 10406 H 974.549 3.54713 1.79624 0
M  V30 10407 N 975.546 -0.211634 1.56173 0
M  V30 10408 C 976.493 -1.26231 1.93221 0
M  V30 10409 C 977.463 -1.46076 0.790641 0
M  V30 10410 O 978.648 -1.59482 1.04739 0
M  V30 10411 C 975.788 -2.60559 2.26281 0
M  V30 10412 C 974.901 -2.48431 3.5342 0
M  V30 10413 C 974.036 -3.7535 3.7588 0
M  V30 10414 C 973.075 -3.57985 4.96501 0
M  V30 10415 N 972.212 -4.76877 5.15299 0
M  V30 10416 H 977.052 -0.939367 2.82807 0
M  V30 10417 H 974.589 -0.452511 1.39967 0
M  V30 10418 H 976.547 -3.38796 2.43461 0
M  V30 10419 H 975.177 -2.9093 1.39855 0
M  V30 10420 H 974.229 -1.61577 3.44379 0
M  V30 10421 H 975.541 -2.31526 4.41811 0
M  V30 10422 H 974.695 -4.62029 3.9321 0
M  V30 10423 H 973.434 -3.95191 2.85788 0
M  V30 10424 H 972.439 -2.69691 4.79111 0
M  V30 10425 H 973.664 -3.39605 5.88086 0
M  V30 10426 H 971.61 -4.97013 4.28152 0
M  V30 10427 H 971.527 -4.62735 5.9784 0
M  V30 10428 H 972.795 -5.64954 5.37073 0
M  V30 10429 N 977.024 -1.50153 -0.478725 0
M  V30 10430 C 978.254 -1.64266 -1.253 0
M  V30 10431 C 978.662 -0.322256 -1.86435 0
M  V30 10432 O 978.005 0.704925 -1.69636 0
M  V30 10433 C 978.067 -2.67017 -2.40712 0
M  V30 10434 C 977.731 -4.10779 -2.00274 0
M  V30 10435 C 978.728 -4.96889 -1.52963 0
M  V30 10436 C 976.413 -4.5665 -2.09228 0
M  V30 10437 C 978.407 -6.26914 -1.15139 0
M  V30 10438 C 976.094 -5.86683 -1.71015 0
M  V30 10439 C 977.092 -6.71641 -1.24048 0
M  V30 10440 O 976.78 -7.99248 -0.863617 0
M  V30 10441 H 976.512 -0.555382 -0.385392 0
M  V30 10442 H 979.066 -1.97078 -0.578751 0
M  V30 10443 H 977.296 -2.29432 -3.11284 0
M  V30 10444 H 978.985 -2.70428 -3.02694 0
M  V30 10445 H 979.751 -4.62669 -1.45474 0
M  V30 10446 H 975.63 -3.90674 -2.44735 0
M  V30 10447 H 979.174 -6.93179 -0.784089 0
M  V30 10448 H 975.071 -6.20426 -1.78162 0
M  V30 10449 H 975.839 -8.12452 -0.993139 0
M  V30 10450 N 978.502 0.731368 -1.39602 0
M  V30 10451 C 979.435 1.85433 -1.33004 0
M  V30 10452 C 980.413 1.61327 -0.20307 0
M  V30 10453 O 981.597 1.84545 -0.384124 0
M  V30 10454 C 978.724 3.21483 -1.06613 0
M  V30 10455 C 977.77 3.64443 -2.21549 0
M  V30 10456 S 978.603 3.73387 -3.83852 0
M  V30 10457 C 979.759 5.12222 -3.59694 0
M  V30 10458 H 979.992 1.90747 -2.28041 0
M  V30 10459 H 977.525 0.89659 -1.25701 0
M  V30 10460 H 979.483 4.00041 -0.920719 0
M  V30 10461 H 978.144 3.1382 -0.132563 0
M  V30 10462 H 977.337 4.63185 -1.98686 0
M  V30 10463 H 976.939 2.93099 -2.32312 0
M  V30 10464 H 979.231 5.98666 -3.17184 0
M  V30 10465 H 980.174 5.40115 -4.5791 0
M  V30 10466 H 980.582 4.8207 -2.93716 0
M  V30 10467 N 979.98 1.24838 0.961938 0
M  V30 10468 C 981.205 1.11967 1.7458 0
M  V30 10469 C 981.63 -0.323287 1.85301 0
M  V30 10470 O 980.988 -1.23412 1.32812 0
M  V30 10471 C 981.036 1.77066 3.14134 0
M  V30 10472 O 980.14 1.04534 3.98932 0
M  V30 10473 H 979.481 0.391338 0.536424 0
M  V30 10474 H 982.011 1.65259 1.20626 0
M  V30 10475 H 982.021 1.83056 3.64629 0
M  V30 10476 H 980.696 2.82052 3.05646 0
M  V30 10477 H 979.273 1.06372 3.57407 0
M  V30 10478 N 981.458 -1.16348 1.06306 0
M  V30 10479 C 982.683 -1.91323 0.800636 0
M  V30 10480 C 983.108 -1.7691 -0.639105 0
M  V30 10481 O 982.466 -1.0945 -1.44535 0
M  V30 10482 C 982.514 -3.40038 1.20027 0
M  V30 10483 O 981.618 -4.11003 0.339142 0
M  V30 10484 H 980.959 -0.596057 0.292595 0
M  V30 10485 H 983.489 -1.47406 1.41889 0
M  V30 10486 H 983.499 -3.90808 1.17188 0
M  V30 10487 H 982.174 -3.49848 2.24898 0
M  V30 10488 H 980.751 -3.70423 0.42911 0
M  V30 10489 N 982.937 -0.845659 -1.3299 0
M  V30 10490 C 984.184 -0.444653 -1.97558 0
M  V30 10491 C 984.512 0.997682 -1.66963 0
M  V30 10492 O 983.767 1.71349 -0.94541 0
M  V30 10493 C 984.066 -0.6201 -3.51979 0
M  V30 10494 C 983.732 -2.03155 -4.02541 0
M  V30 10495 C 982.394 -2.4176 -4.16059 0
M  V30 10496 C 984.746 -2.95317 -4.29462 0
M  V30 10497 C 982.074 -3.71818 -4.53837 0
M  V30 10498 C 984.426 -4.24863 -4.68694 0
M  V30 10499 C 983.09 -4.63416 -4.80419 0
M  V30 10500 H 982.36 -0.16271 -0.722915 0
M  V30 10501 H 985.007 -1.07399 -1.58549 0
M  V30 10502 H 983.312 0.092513 -3.91691 0
M  V30 10503 H 985.009 -0.290012 -3.9995 0
M  V30 10504 H 981.599 -1.72174 -3.92497 0
M  V30 10505 H 985.783 -2.66726 -4.18534 0
M  V30 10506 H 981.039 -4.01484 -4.61108 0
M  V30 10507 H 985.213 -4.96347 -4.8848 0
M  V30 10508 H 982.84 -5.6424 -5.09448 0
M  V30 10509 N 984.415 1.45619 -0.602734 0
M  V30 10510 C 985.345 2.33258 0.106342 0
M  V30 10511 C 986.326 1.46543 0.863664 0
M  V30 10512 O 987.511 1.75324 0.835175 0
M  V30 10513 C 984.641 3.29168 1.10751 0
M  V30 10514 C 983.595 4.25481 0.463717 0
M  V30 10515 C 982.921 5.11046 1.57278 0
M  V30 10516 C 984.221 5.18702 -0.61199 0
M  V30 10517 H 985.915 2.92795 -0.625423 0
M  V30 10518 H 983.461 1.40793 -0.302213 0
M  V30 10519 H 985.414 3.89346 1.61208 0
M  V30 10520 H 984.138 2.6778 1.8698 0
M  V30 10521 H 982.797 3.66595 -0.0199496 0
M  V30 10522 H 982.445 4.46029 2.32524 0
M  V30 10523 H 982.145 5.76286 1.14755 0
M  V30 10524 H 983.669 5.74091 2.07972 0
M  V30 10525 H 985.083 5.72979 -0.191686 0
M  V30 10526 H 983.48 5.92393 -0.958686 0
M  V30 10527 H 984.55 4.61424 -1.4905 0
M  V30 10528 N 985.893 0.34162 1.53853 0
M  V30 10529 C 987.14 -0.255484 2.00882 0
M  V30 10530 C 987.468 -1.50711 1.22949 0
M  V30 10531 O 986.723 -1.93315 0.304625 0
M  V30 10532 C 987.022 -0.616989 3.52034 0
M  V30 10533 C 986.688 0.537536 4.47684 0
M  V30 10534 C 985.35 0.854379 4.73554 0
M  V30 10535 C 987.702 1.31217 5.04412 0
M  V30 10536 C 985.03 1.94826 5.53407 0
M  V30 10537 C 987.382 2.39628 5.85458 0
M  V30 10538 C 986.046 2.71874 6.09623 0
M  V30 10539 H 985.316 -0.0934881 0.735079 0
M  V30 10540 H 987.963 0.469135 1.85665 0
M  V30 10541 H 986.268 -1.42229 3.65073 0
M  V30 10542 H 987.965 -1.09084 3.85878 0
M  V30 10543 H 984.555 0.280524 4.27681 0
M  V30 10544 H 988.739 1.08064 4.84392 0
M  V30 10545 H 983.995 2.20235 5.70356 0
M  V30 10546 H 988.169 3.00084 6.28429 0
M  V30 10547 H 985.796 3.56762 6.71286 0
M  V30 10548 N 987.371 -1.57444 0.0701946 0
M  V30 10549 C 988.319 -2.13834 -0.915302 0
M  V30 10550 C 989.313 -1.07483 -1.30934 0
M  V30 10551 O 990.519 -1.25865 -1.28678 0
M  V30 10552 H 986.894 -0.683716 -0.313108 0
M  V30 10553 H 988.865 -2.95503 -0.414758 0
M  V30 10554 C 987.614 -2.71355 -2.17398 0
M  V30 10555 H 986.937 -3.52861 -1.87961 0
M  V30 10556 H 988.377 -3.1441 -2.84469 0
M  V30 10557 C 986.836 -1.66038 -2.93143 0
M  V30 10558 O 987.366 -1.08443 -3.86786 0
M  V30 10559 N 985.572 -1.3711 -2.56221 0
M  V30 10560 H 985.119 -1.84135 -1.80145 0
M  V30 10561 H 985.077 -0.66877 -3.07205 0
M  V30 10562 N 988.849 0.203349 -1.56283 0
M  V30 10563 C 989.779 1.2549 -1.96912 0
M  V30 10564 C 990.76 1.47919 -0.839884 0
M  V30 10565 O 991.945 1.59795 -1.10359 0
M  V30 10566 C 989.075 2.6009 -2.30153 0
M  V30 10567 C 988.029 2.52289 -3.45738 0
M  V30 10568 C 987.355 3.91086 -3.64632 0
M  V30 10569 C 988.655 2.05503 -4.80173 0
M  V30 10570 H 990.349 0.917306 -2.85002 0
M  V30 10571 H 987.895 0.439818 -1.37119 0
M  V30 10572 H 989.848 3.33829 -2.5717 0
M  V30 10573 H 988.572 2.95574 -1.38937 0
M  V30 10574 H 987.231 1.81006 -3.18798 0
M  V30 10575 H 986.879 4.23908 -2.7076 0
M  V30 10576 H 986.579 3.86742 -4.42385 0
M  V30 10577 H 988.103 4.66459 -3.94016 0
M  V30 10578 H 989.517 2.68995 -5.06275 0
M  V30 10579 H 987.914 2.1218 -5.61337 0
M  V30 10580 H 988.984 1.00793 -4.74309 0
M  V30 10581 N 990.327 1.50405 0.470755 0
M  V30 10582 C 991.275 1.6982 1.58946 0
M  V30 10583 C 992.269 0.56407 1.59733 0
M  V30 10584 O 993.475 0.744576 1.63878 0
M  V30 10585 H 989.85 0.536016 0.527438 0
M  V30 10586 H 991.821 2.63662 1.39732 0
M  V30 10587 C 990.57 1.80986 2.96883 0
M  V30 10588 H 989.893 2.67645 2.96996 0
M  V30 10589 H 991.333 1.98596 3.74614 0
M  V30 10590 C 989.792 0.561551 3.32187 0
M  V30 10591 O 990.322 -0.299136 4.00585 0
M  V30 10592 N 988.528 0.415476 2.87615 0
M  V30 10593 H 988.075 1.11691 2.32127 0
M  V30 10594 H 988.033 -0.418592 3.11601 0
M  V30 10595 N 991.805 -0.723954 1.39988 0
M  V30 10596 C 992.753 -1.85938 1.39749 0
M  V30 10597 C 993.747 -1.67085 0.279112 0
M  V30 10598 O 994.953 -1.74291 0.44972 0
M  V30 10599 H 991.328 -0.612246 0.436644 0
M  V30 10600 H 993.299 -1.83255 2.355 0
M  V30 10601 C 992.048 -3.23726 1.26874 0
M  V30 10602 H 991.371 -3.38835 2.12206 0
M  V30 10603 H 992.811 -4.03332 1.30765 0
M  V30 10604 C 991.27 -3.36893 -0.0218317 0
M  V30 10605 O 991.8 -3.89363 -0.987905 0
M  V30 10606 N 990.006 -2.90465 -0.0885618 0
M  V30 10607 H 989.553 -2.47954 0.698314 0
M  V30 10608 H 989.511 -2.99654 -0.951557 0
M  V30 10609 N 993.283 -1.25346 -0.955304 0
M  V30 10610 C 994.56 -1.00829 -1.67609 0
M  V30 10611 C 994.94 0.465675 -2.059 0
M  V30 10612 O 994.288 1.44287 -1.77182 0
M  V30 10613 C 994.498 -1.94337 -2.89886 0
M  V30 10614 C 995.846 -2.22142 -3.61854 0
M  V30 10615 O 996.87 -1.9209 -2.99967 0
M  V30 10616 O 995.729 -2.73239 -4.73289 0
M  V30 10617 H 992.823 -0.382314 -0.733325 0
M  V30 10618 H 995.369 -1.36498 -1.00829 0
M  V30 10619 H 994.141 -2.93867 -2.58376 0
M  V30 10620 H 993.764 -1.59062 -3.64397 0
M  V30 10621 N 994.761 1.15782 -1.06922 0
M  V30 10622 C 996.008 1.86465 -0.789752 0
M  V30 10623 C 996.336 1.82075 0.684022 0
M  V30 10624 O 995.591 1.23576 1.51748 0
M  V30 10625 C 995.89 3.35284 -1.2377 0
M  V30 10626 C 995.556 3.59871 -2.71668 0
M  V30 10627 C 994.218 3.6629 -3.12066 0
M  V30 10628 C 996.57 3.69929 -3.67154 0
M  V30 10629 C 993.898 3.80275 -4.46775 0
M  V30 10630 C 996.25 3.85436 -5.01619 0
M  V30 10631 C 994.914 3.901 -5.41644 0
M  V30 10632 H 994.184 0.682324 -0.288991 0
M  V30 10633 H 996.831 1.36861 -1.33945 0
M  V30 10634 H 995.136 3.87065 -0.607309 0
M  V30 10635 H 996.833 3.88371 -0.998431 0
M  V30 10636 H 993.423 3.55512 -2.39393 0
M  V30 10637 H 997.607 3.64274 -3.37073 0
M  V30 10638 H 992.863 3.8214 -4.77262 0
M  V30 10639 H 997.037 3.92161 -5.75485 0
M  V30 10640 H 994.664 4.00688 -6.46029 0
M  V30 10641 N 996.239 0.8527 1.3254 0
M  V30 10642 C 997.485 0.455798 1.97612 0
M  V30 10643 C 997.818 -0.985616 1.6733 0
M  V30 10644 O 997.093 -1.69129 0.960493 0
M  V30 10645 C 997.376 0.69312 3.53366 0
M  V30 10646 C 997.229 2.18281 3.93285 0
M  V30 10647 C 998.548 0.148236 4.3985 0
M  V30 10648 H 995.667 0.167078 0.717812 0
M  V30 10649 H 998.309 1.07076 1.56954 0
M  V30 10650 H 996.459 0.169677 3.88129 0
M  V30 10651 H 998.131 2.77218 3.68711 0
M  V30 10652 H 996.374 2.66206 3.42515 0
M  V30 10653 H 997.045 2.29957 5.01821 0
M  V30 10654 H 999.521 0.595834 4.11812 0
M  V30 10655 H 998.397 0.343873 5.47822 0
M  V30 10656 H 998.658 -0.948872 4.31797 0
M  V30 10657 N 997.718 -1.45297 0.610449 0
M  V30 10658 C 998.964 -2.02518 0.106917 0
M  V30 10659 C 999.297 -1.47747 -1.26034 0
M  V30 10660 O 998.572 -0.65329 -1.832 0
M  V30 10661 C 998.855 -3.6003 0.0710975 0
M  V30 10662 C 998.708 -4.25128 1.46922 0
M  V30 10663 C 1000.03 -4.35778 -0.61524 0
M  V30 10664 H 997.146 -0.735896 0.040327 0
M  V30 10665 H 999.788 -1.73117 0.782968 0
M  V30 10666 H 997.938 -3.85209 -0.504611 0
M  V30 10667 H 999.61 -4.11125 2.09223 0
M  V30 10668 H 997.853 -3.83418 2.02911 0
M  V30 10669 H 998.524 -5.34046 1.39637 0
M  V30 10670 H 1001 -4.1591 -0.125871 0
M  V30 10671 H 999.876 -5.45506 -0.609419 0
M  V30 10672 H 1000.14 -4.08859 -1.68186 0
M  V30 10673 N 999.196 -0.349774 -1.5367 0
M  V30 10674 C 1000.47 0.300419 -1.93279 0
M  V30 10675 C 1000.85 1.67721 -1.28191 0
M  V30 10676 O 1000.2 2.24319 -0.435127 0
M  V30 10677 C 1000.41 0.366466 -3.47071 0
M  V30 10678 C 1001.76 0.614349 -4.20132 0
M  V30 10679 O 1002.78 0.448327 -3.53367 0
M  V30 10680 O 1001.64 0.936421 -5.38417 0
M  V30 10681 H 998.736 0.176599 -0.807924 0
M  V30 10682 H 1001.28 -0.401405 -1.64884 0
M  V30 10683 H 1000.05 -0.599455 -3.86681 0
M  V30 10684 H 999.677 1.11482 -3.81651 0
M  V30 10685 N 1000.67 1.57404 -0.0785433 0
M  V30 10686 C 1001.64 2.11977 0.871693 0
M  V30 10687 C 1002.64 1.04529 1.2219 0
M  V30 10688 O 1003.83 1.30488 1.15406 0
M  V30 10689 C 1000.96 2.6267 2.17296 0
M  V30 10690 H 1002.15 2.97246 0.398115 0
M  V30 10691 H 999.705 1.5537 0.170251 0
M  V30 10692 H 1000.44 1.80873 2.69175 0
M  V30 10693 H 1000.22 3.41214 1.93171 0
M  V30 10694 H 1001.71 3.04943 2.85306 0
M  V30 10695 N 1002.15 -0.195058 1.56388 0
M  V30 10696 C 1003.38 -0.931642 1.84738 0
M  V30 10697 C 1003.79 -1.76849 0.661046 0
M  V30 10698 O 1003.15 -1.78705 -0.370241 0
M  V30 10699 C 1003.2 -1.82777 3.11889 0
M  V30 10700 O 1002.92 -1.02471 4.25948 0
M  V30 10701 C 1004.42 -2.67603 3.53417 0
M  V30 10702 H 1001.64 -0.271821 0.613477 0
M  V30 10703 H 1004.19 -0.202299 2.03497 0
M  V30 10704 H 1002.34 -2.51074 2.95027 0
M  V30 10705 H 1002.76 -1.63539 4.98353 0
M  V30 10706 H 1004.23 -3.26138 4.45352 0
M  V30 10707 H 1004.71 -3.41314 2.76408 0
M  V30 10708 H 1005.31 -2.04678 3.7281 0
M  V30 10709 N 1003.63 -1.50653 -0.462772 0
M  V30 10710 C 1005.05 -1.38263 -0.797213 0
M  V30 10711 C 1005.25 -0.445172 -1.96521 0
M  V30 10712 O 1004.3 0.10913 -2.52264 0
M  V30 10713 C 1005.61 -2.798 -1.10146 0
M  V30 10714 C 1007.16 -2.88774 -1.20742 0
M  V30 10715 C 1007.64 -4.31163 -1.54476 0
M  V30 10716 N 1009.13 -4.34152 -1.61451 0
M  V30 10717 C 1009.86 -5.4133 -1.89074 0
M  V30 10718 N 1009.36 -6.58705 -2.1466 0
M  V30 10719 N 1011.15 -5.28783 -1.90645 0
M  V30 10720 H 1003.3 -2.10172 0.30684 0
M  V30 10721 H 1005.57 -0.945046 0.0747862 0
M  V30 10722 H 1005.27 -3.50276 -0.316207 0
M  V30 10723 H 1005.15 -3.17559 -2.03559 0
M  V30 10724 H 1007.53 -2.18512 -1.98334 0
M  V30 10725 H 1007.61 -2.54547 -0.252904 0
M  V30 10726 H 1007.26 -5.01965 -0.774207 0
M  V30 10727 H 1007.19 -4.62883 -2.51092 0
M  V30 10728 H 1009.68 -3.49519 -1.43684 0
M  V30 10729 H 1009.99 -7.36192 -2.35035 0
M  V30 10730 H 1008.34 -6.61866 -2.12035 0
M  V30 10731 H 1011.53 -4.36078 -1.70158 0
M  V30 10732 H 1011.7 -6.12396 -2.11836 0
M  V30 10733 N 1005.11 0.71652 -1.4037 0
M  V30 10734 C 1006.06 1.8306 -1.40562 0
M  V30 10735 C 1007.03 1.64009 -0.262697 0
M  V30 10736 O 1008.21 1.85157 -0.460619 0
M  V30 10737 C 1005.35 3.2076 -1.27307 0
M  V30 10738 C 1004.46 3.51389 -2.51296 0
M  V30 10739 C 1003.6 4.78589 -2.30491 0
M  V30 10740 C 1002.64 5.02119 -3.50061 0
M  V30 10741 N 1001.77 6.20533 -3.28457 0
M  V30 10742 H 1006.61 1.82231 -2.35788 0
M  V30 10743 H 1004.15 0.890198 -1.17106 0
M  V30 10744 H 1006.11 4.00274 -1.17628 0
M  V30 10745 H 1004.74 3.2082 -0.357005 0
M  V30 10746 H 1003.79 2.66436 -2.71507 0
M  V30 10747 H 1005.1 3.64686 -3.40302 0
M  V30 10748 H 1004.26 5.66119 -2.1816 0
M  V30 10749 H 1003 4.67499 -1.38909 0
M  V30 10750 H 1002 4.13044 -3.6287 0
M  V30 10751 H 1003.23 5.15082 -4.42569 0
M  V30 10752 H 1001.17 6.10695 -2.39556 0
M  V30 10753 H 1001.09 6.34502 -4.11027 0
M  V30 10754 H 1002.36 7.10853 -3.19857 0
M  V30 10755 N 1006.59 1.25851 0.948643 0
M  V30 10756 C 1007.83 1.10735 1.69062 0
M  V30 10757 C 1008.16 -0.351257 1.9181 0
M  V30 10758 O 1007.43 -1.24867 1.50947 0
M  V30 10759 H 1006.01 0.406796 0.626519 0
M  V30 10760 H 1008.67 1.58066 1.14022 0
M  V30 10761 H 1007.76 1.62033 2.66743 0
M  V30 10762 N 1008.06 -1.15214 1.07534 0
M  V30 10763 C 1009.01 -2.22078 0.69168 0
M  V30 10764 C 1010.01 -1.66751 -0.298382 0
M  V30 10765 O 1011.21 -1.7927 -0.161897 0
M  V30 10766 H 1007.59 -0.723347 0.205604 0
M  V30 10767 H 1009.56 -2.51716 1.60256 0
M  V30 10768 C 1008.31 -3.47534 0.107546 0
M  V30 10769 H 1007.63 -3.90429 0.860522 0
M  V30 10770 H 1009.07 -4.23821 -0.123215 0
M  V30 10771 C 1007.53 -3.16583 -1.15226 0
M  V30 10772 O 1008.06 -3.33551 -2.23845 0
M  V30 10773 N 1006.27 -2.70611 -1.05915 0
M  V30 10774 H 1005.81 -2.57004 -0.175198 0
M  V30 10775 H 1005.77 -2.50277 -1.90287 0
M  V30 10776 N 1009.54 -0.859717 -1.32086 0
M  V30 10777 C 1010.49 -0.306042 -2.28762 0
M  V30 10778 C 1011.46 0.589801 -1.55276 0
M  V30 10779 O 1012.64 0.523633 -1.83474 0
M  V30 10780 C 1009.78 0.495256 -3.41528 0
M  V30 10781 C 1008.9 -0.426947 -4.29885 0
M  V30 10782 C 1008.03 0.387474 -5.29785 0
M  V30 10783 C 1007.07 -0.531807 -6.09785 0
M  V30 10784 N 1006.21 0.245741 -7.0167 0
M  V30 10785 H 1011.05 -1.1357 -2.7551 0
M  V30 10786 H 1008.59 -0.571468 -1.35546 0
M  V30 10787 H 1010.54 0.97551 -4.05635 0
M  V30 10788 H 1009.17 1.28969 -2.95917 0
M  V30 10789 H 1008.23 -1.02561 -3.66313 0
M  V30 10790 H 1009.54 -1.13226 -4.85779 0
M  V30 10791 H 1008.69 0.930677 -5.99519 0
M  V30 10792 H 1007.43 1.12612 -4.74521 0
M  V30 10793 H 1006.44 -1.08685 -5.3895 0
M  V30 10794 H 1007.66 -1.26915 -6.67135 0
M  V30 10795 H 1005.61 0.967391 -6.48828 0
M  V30 10796 H 1005.52 -0.400432 -7.54939 0
M  V30 10797 H 1006.79 0.770507 -7.75683 0
M  V30 10798 N 1011.02 1.44971 -0.618145 0
M  V30 10799 C 1012.27 2.01372 -0.115004 0
M  V30 10800 C 1012.58 1.49104 1.26599 0
M  V30 10801 O 1013.79 1.97549 1.86244 0
M  V30 10802 C 1012.24 3.59567 -0.154883 0
M  V30 10803 C 1011.85 4.20832 -1.53639 0
M  V30 10804 C 1013.6 4.23491 0.292468 0
M  V30 10805 C 1011.5 5.7121 -1.53208 0
M  V30 10806 H 1010.43 0.752979 -0.0392267 0
M  V30 10807 H 1013.08 1.66329 -0.775032 0
M  V30 10808 H 1011.47 3.91847 0.572001 0
M  V30 10809 H 1012.64 4.00109 -2.28582 0
M  V30 10810 H 1010.96 3.69143 -1.92672 0
M  V30 10811 H 1013.55 5.33771 0.315032 0
M  V30 10812 H 1013.9 3.9491 1.31725 0
M  V30 10813 H 1014.43 3.95967 -0.381493 0
M  V30 10814 H 1011.17 6.04506 -2.53481 0
M  V30 10815 H 1010.69 5.94094 -0.825387 0
M  V30 10816 H 1012.37 6.34606 -1.26032 0
M  V30 10817 N 1012.5 0.357919 1.53482 0
M  V30 10818 C 1013.91 0.00655107 1.59599 0
M  V30 10819 C 1014.11 -1.47449 1.37336 0
M  V30 10820 O 1013.17 -2.2351 1.17472 0
M  V30 10821 C 1014.48 0.455617 2.97228 0
M  V30 10822 C 1016.03 0.409183 3.10314 0
M  V30 10823 C 1016.51 0.833941 4.50344 0
M  V30 10824 N 1018 0.788695 4.56436 0
M  V30 10825 C 1018.73 1.08914 5.62961 0
M  V30 10826 N 1018.23 1.45847 6.77274 0
M  V30 10827 N 1020.02 1.01243 5.52907 0
M  V30 10828 H 1012.17 1.32248 1.66206 0
M  V30 10829 H 1014.44 0.540047 0.779136 0
M  V30 10830 H 1014.14 1.48881 3.18634 0
M  V30 10831 H 1014.02 -0.161751 3.76853 0
M  V30 10832 H 1016.4 -0.614863 2.88623 0
M  V30 10833 H 1016.48 1.06195 2.32715 0
M  V30 10834 H 1016.13 1.85607 4.72771 0
M  V30 10835 H 1016.06 0.158507 5.26361 0
M  V30 10836 H 1018.55 0.516497 3.74354 0
M  V30 10837 H 1018.86 1.67218 7.54492 0
M  V30 10838 H 1017.21 1.49705 6.78685 0
M  V30 10839 H 1020.4 0.723137 4.62481 0
M  V30 10840 H 1020.57 1.24991 6.35831 0
M  V30 10841 N 1013.98 -1.5736 0.0868897 0
M  V30 10842 C 1015.22 -1.94054 -0.578741 0
M  V30 10843 C 1015.55 -0.968047 -1.68698 0
M  V30 10844 O 1014.81 0.0137824 -1.95695 0
M  V30 10845 C 1015.11 -3.37316 -1.18123 0
M  V30 10846 C 1014.77 -4.50467 -0.197607 0
M  V30 10847 C 1013.43 -4.81145 0.072952 0
M  V30 10848 C 1015.79 -5.19036 0.474473 0
M  V30 10849 C 1013.11 -5.77723 1.02242 0
M  V30 10850 C 1015.47 -6.16632 1.41236 0
M  V30 10851 C 1014.13 -6.45719 1.69124 0
M  V30 10852 H 1013.4 -0.710093 -0.211776 0
M  V30 10853 H 1016.05 -1.90822 0.160978 0
M  V30 10854 H 1014.35 -3.37085 -1.99701 0
M  V30 10855 H 1016.05 -3.63003 -1.7038 0
M  V30 10856 H 1012.64 -4.2655 -0.418669 0
M  V30 10857 H 1016.82 -4.95518 0.278581 0
M  V30 10858 H 1012.08 -5.98578 1.24557 0
M  V30 10859 H 1016.25 -6.68862 1.939 0
M  V30 10860 H 1013.88 -7.20365 2.42855 0
M  V30 10861 N 1015.45 0.186762 -1.56489 0
M  V30 10862 C 1016.42 1.21511 -1.94339 0
M  V30 10863 C 1017.42 1.38001 -0.82537 0
M  V30 10864 O 1018.61 1.3567 -1.09266 0
M  V30 10865 C 1015.74 2.583 -2.22472 0
M  V30 10866 H 1016.93 0.891371 -2.86347 0
M  V30 10867 H 1014.49 0.428612 -1.50308 0
M  V30 10868 H 1015.22 2.95715 -1.33129 0
M  V30 10869 H 1015.01 2.47701 -3.03951 0
M  V30 10870 H 1016.5 3.32441 -2.5273 0
M  V30 10871 N 1016.93 1.50896 0.454776 0
M  V30 10872 C 1017.88 1.71497 1.57136 0
M  V30 10873 C 1018.87 0.58098 1.59126 0
M  V30 10874 O 1020.08 0.761916 1.63079 0
M  V30 10875 H 1016.46 0.54158 0.521724 0
M  V30 10876 H 1018.43 2.65129 1.36928 0
M  V30 10877 C 1017.18 1.84125 2.94947 0
M  V30 10878 H 1016.5 2.7078 2.9414 0
M  V30 10879 H 1017.94 2.02558 3.72487 0
M  V30 10880 C 1016.4 0.596752 3.31573 0
M  V30 10881 O 1016.93 -0.256632 4.00879 0
M  V30 10882 N 1015.13 0.445958 2.87158 0
M  V30 10883 H 1014.68 1.14146 2.30929 0
M  V30 10884 H 1014.64 -0.385519 3.12027 0
M  V30 10885 N 1018.41 -0.709066 1.40748 0
M  V30 10886 C 1019.36 -1.8149 1.38005 0
M  V30 10887 C 1020.34 -1.58842 0.256544 0
M  V30 10888 O 1021.54 -1.69904 0.496164 0
M  V30 10889 C 1018.67 -3.19678 1.25143 0
M  V30 10890 C 1017.75 -3.48067 2.42301 0
M  V30 10891 N 1018.14 -3.47234 3.6778 0
M  V30 10892 C 1016.44 -3.78555 2.35822 0
M  V30 10893 C 1017.14 -3.74149 4.45407 0
M  V30 10894 N 1016.12 -3.93224 3.75335 0
M  V30 10895 H 1019.92 -1.79188 2.32957 0
M  V30 10896 H 1017.43 -0.908477 1.34612 0
M  V30 10897 H 1019.43 -3.98875 1.2126 0
M  V30 10898 H 1018.09 -3.23201 0.311642 0
M  V30 10899 H 1019.1 -3.2793 4.00852 0
M  V30 10900 H 1015.78 -3.89529 1.50245 0
M  V30 10901 H 1017.17 -3.79755 5.54289 0
M  V30 10902 N 1019.89 -1.26353 -0.941956 0
M  V30 10903 C 1021.11 -1.14731 -1.72776 0
M  V30 10904 C 1021.54 0.293766 -1.85792 0
M  V30 10905 O 1020.9 1.21284 -1.34759 0
M  V30 10906 C 1020.95 -1.82041 -3.11277 0
M  V30 10907 O 1020.05 -1.10867 -3.97218 0
M  V30 10908 H 1019.39 -0.399823 -0.53013 0
M  V30 10909 H 1021.92 -1.67157 -1.17981 0
M  V30 10910 H 1021.93 -1.88834 -3.61671 0
M  V30 10911 H 1020.61 -2.86879 -3.0112 0
M  V30 10912 H 1019.18 -1.12044 -3.55669 0
M  V30 10913 N 1021.37 1.14642 -1.08144 0
M  V30 10914 C 1022.61 1.85892 -0.810683 0
M  V30 10915 C 1022.95 1.82575 0.661821 0
M  V30 10916 O 1022.22 1.25454 1.48632 0
M  V30 10917 C 1022.5 3.34647 -1.32979 0
M  V30 10918 C 1022.36 3.46551 -2.86744 0
M  V30 10919 C 1023.68 4.29661 -0.952864 0
M  V30 10920 H 1020.8 0.674963 -0.295963 0
M  V30 10921 H 1023.44 1.3464 -1.3406 0
M  V30 10922 H 1021.59 3.78425 -0.87903 0
M  V30 10923 H 1023.26 3.11579 -3.40171 0
M  V30 10924 H 1021.5 2.87849 -3.24539 0
M  V30 10925 H 1022.17 4.51101 -3.18138 0
M  V30 10926 H 1024.65 3.93885 -1.34141 0
M  V30 10927 H 1023.53 5.32209 -1.34331 0
M  V30 10928 H 1023.79 4.41877 0.140392 0
M  V30 10929 N 1022.85 0.866709 1.31628 0
M  V30 10930 C 1023.79 0.309128 2.30537 0
M  V30 10931 C 1024.79 -0.574028 1.59378 0
M  V30 10932 O 1025.99 -0.460491 1.7401 0
M  V30 10933 H 1022.37 0.081279 0.747595 0
M  V30 10934 H 1024.34 1.15734 2.75042 0
M  V30 10935 C 1023.09 -0.477287 3.44409 0
M  V30 10936 H 1022.41 0.19301 3.99334 0
M  V30 10937 H 1023.85 -0.832818 4.1574 0
M  V30 10938 C 1022.31 -1.66727 2.92752 0
M  V30 10939 O 1022.84 -2.76654 2.91248 0
M  V30 10940 N 1021.05 -1.49833 2.48995 0
M  V30 10941 H 1020.59 -0.604073 2.50417 0
M  V30 10942 H 1020.55 -2.29594 2.14788 0
M  V30 10943 N 1024.32 -1.44642 0.625825 0
M  V30 10944 C 1025.73 -1.85502 0.211175 0
M  V30 10945 C 1026.09 -1.52356 -1.2362 0
M  V30 10946 O 1025.21 -0.959051 -1.93988 0
M  V30 10947 C 1025.81 -3.36702 0.37648 0
M  V30 10948 C 1024.36 -3.76396 0.0163795 0
M  V30 10949 C 1023.51 -2.68517 0.692368 0
M  V30 10950 H 1026.46 -1.35183 0.831333 0
M  V30 10951 H 1026.48 -3.78536 -0.386106 0
M  V30 10952 H 1026 -3.60795 1.42999 0
M  V30 10953 H 1024.1 -3.57919 -1.0356 0
M  V30 10954 H 1024.21 -4.77231 0.422742 0
M  V30 10955 H 1022.57 -2.54377 0.128191 0
M  V30 10956 H 1023.36 -2.95444 1.74837 0
M  V30 10957 N 1025.8 -0.366053 -1.5329 0
M  V30 10958 C 1026.75 0.495319 -2.27265 0
M  V30 10959 C 1027.74 1.08298 -1.30261 0
M  V30 10960 O 1028.95 1.02613 -1.47887 0
M  V30 10961 H 1025.32 0.178454 -0.730519 0
M  V30 10962 H 1027.3 -0.150354 -2.98021 0
M  V30 10963 C 1026.04 1.62283 -3.07505 0
M  V30 10964 H 1025.37 1.17993 -3.81992 0
M  V30 10965 H 1026.81 2.20024 -3.62444 0
M  V30 10966 C 1025.27 2.56542 -2.18375 0
M  V30 10967 O 1025.8 3.59371 -1.79486 0
M  V30 10968 N 1024 2.25742 -1.82999 0
M  V30 10969 H 1023.55 1.42159 -2.14822 0
M  V30 10970 H 1023.51 2.89064 -1.2365 0
M  V30 10971 N 1027.28 1.57312 -0.0952337 0
M  V30 10972 C 1028.52 1.96239 0.571813 0
M  V30 10973 C 1028.88 0.97602 1.65342 0
M  V30 10974 O 1030.08 1.25379 2.37768 0
M  V30 10975 C 1028.36 3.39644 1.1125 0
M  V30 10976 S 1029.91 4.00568 1.7914 0
M  V30 10977 H 1026.73 0.686081 0.186585 0
M  V30 10978 H 1029.33 1.94718 -0.174669 0
M  V30 10979 H 1028.04 4.09199 0.313796 0
M  V30 10980 H 1027.57 3.44762 1.89481 0
M  V30 10981 H 1029.58 3.89383 3.07563 0
M  V30 10982 N 1028.76 -0.17846 1.56586 0
M  V30 10983 C 1029.99 -0.910674 1.85446 0
M  V30 10984 C 1030.4 -1.76647 0.677675 0
M  V30 10985 O 1029.74 -1.80086 -0.362584 0
M  V30 10986 C 1029.8 -1.84363 3.08627 0
M  V30 10987 C 1029.46 -1.16814 4.41818 0
M  V30 10988 C 1030.46 -0.53703 5.17119 0
M  V30 10989 C 1028.15 -1.16703 4.88555 0
M  V30 10990 C 1030.14 0.0861778 6.37342 0
M  V30 10991 C 1027.83 -0.539992 6.0871 0
M  V30 10992 C 1028.83 0.0855135 6.82946 0
M  V30 10993 O 1028.51 0.70268 8.00823 0
M  V30 10994 H 1028.25 -0.270377 0.619574 0
M  V30 10995 H 1030.8 -0.185591 2.0456 0
M  V30 10996 H 1029.03 -2.60884 2.85441 0
M  V30 10997 H 1030.72 -2.44506 3.23993 0
M  V30 10998 H 1031.48 -0.529915 4.82096 0
M  V30 10999 H 1027.36 -1.64329 4.30717 0
M  V30 11000 H 1030.91 0.575011 6.95226 0
M  V30 11001 H 1026.8 -0.544666 6.43198 0
M  V30 11002 H 1027.57 0.601224 8.16289 0
M  V30 11003 N 1030.24 -1.51135 -0.446768 0
M  V30 11004 C 1031.2 -1.71187 -1.52406 0
M  V30 11005 C 1032.2 -0.582037 -1.49897 0
M  V30 11006 O 1033.39 -0.849452 -1.52085 0
M  V30 11007 C 1030.52 -1.75962 -2.91976 0
M  V30 11008 H 1031.71 -2.67324 -1.35934 0
M  V30 11009 H 1029.27 -1.40982 -0.674813 0
M  V30 11010 H 1030 -0.816065 -3.13864 0
M  V30 11011 H 1029.79 -2.58065 -2.95203 0
M  V30 11012 H 1031.28 -1.93347 -3.70144 0
M  V30 11013 N 1031.71 0.701592 -1.41122 0
M  V30 11014 C 1032.66 1.81559 -1.42495 0
M  V30 11015 C 1033.63 1.63722 -0.280078 0
M  V30 11016 O 1034.82 1.84658 -0.480231 0
M  V30 11017 C 1031.96 3.19392 -1.30702 0
M  V30 11018 C 1031.07 3.48704 -2.55009 0
M  V30 11019 C 1030.2 4.76118 -2.35554 0
M  V30 11020 C 1029.24 4.98378 -3.55367 0
M  V30 11021 N 1028.38 6.17014 -3.3502 0
M  V30 11022 H 1033.22 1.7972 -2.37707 0
M  V30 11023 H 1030.76 0.877727 -1.18044 0
M  V30 11024 H 1032.71 3.99004 -1.21867 0
M  V30 11025 H 1031.34 3.20423 -0.391012 0
M  V30 11026 H 1030.4 2.63542 -2.74317 0
M  V30 11027 H 1031.71 3.61057 -3.44151 0
M  V30 11028 H 1030.86 5.63774 -2.24152 0
M  V30 11029 H 1029.6 4.66 -1.43859 0
M  V30 11030 H 1028.61 4.09172 -3.6723 0
M  V30 11031 H 1029.83 5.10359 -4.48007 0
M  V30 11032 H 1027.78 6.0812 -2.4602 0
M  V30 11033 H 1027.69 6.30107 -4.17733 0
M  V30 11034 H 1028.96 7.0742 -3.27379 0
M  V30 11035 N 1033.19 1.2685 0.935242 0
M  V30 11036 C 1034.44 1.12912 1.6846 0
M  V30 11037 C 1034.77 -0.325708 1.91449 0
M  V30 11038 O 1034.05 -1.23884 1.49944 0
M  V30 11039 C 1034.33 1.90513 3.05576 0
M  V30 11040 C 1034.18 3.43936 2.89876 0
M  V30 11041 C 1035.5 1.70363 4.05789 0
M  V30 11042 H 1032.62 0.411559 0.611382 0
M  V30 11043 H 1035.26 1.55917 1.08582 0
M  V30 11044 H 1033.41 1.53963 3.5669 0
M  V30 11045 H 1035.08 3.90272 2.45939 0
M  V30 11046 H 1033.33 3.70659 2.25376 0
M  V30 11047 H 1034 3.93467 3.87153 0
M  V30 11048 H 1036.47 2.02217 3.63659 0
M  V30 11049 H 1035.35 2.27066 4.99732 0
M  V30 11050 H 1035.61 0.649674 4.373 0
M  V30 11051 N 1034.67 -1.14067 1.0875 0
M  V30 11052 C 1035.92 -1.85459 0.82053 0
M  V30 11053 C 1036.25 -1.82923 -0.65213 0
M  V30 11054 O 1035.52 -1.26241 -1.47965 0
M  V30 11055 C 1035.81 -3.33937 1.34752 0
M  V30 11056 C 1035.66 -3.45026 2.88578 0
M  V30 11057 C 1036.98 -4.2915 0.975636 0
M  V30 11058 H 1034.1 -0.673384 0.299538 0
M  V30 11059 H 1036.74 -1.33927 1.34772 0
M  V30 11060 H 1034.89 -3.77953 0.899086 0
M  V30 11061 H 1036.56 -3.09771 3.41818 0
M  V30 11062 H 1034.81 -2.86124 3.26061 0
M  V30 11063 H 1035.48 -4.49408 3.20526 0
M  V30 11064 H 1037.95 -3.93168 1.36228 0
M  V30 11065 H 1036.83 -5.31489 1.37152 0
M  V30 11066 H 1037.09 -4.41945 -0.116956 0
M  V30 11067 N 1036.15 -0.873678 -1.31166 0
M  V30 11068 C 1037.08 -0.276805 -2.26515 0
M  V30 11069 C 1038.06 0.596166 -1.51277 0
M  V30 11070 O 1039.24 0.548769 -1.80335 0
M  V30 11071 C 1036.37 0.607711 -3.33203 0
M  V30 11072 C 1035.42 -0.194411 -4.26057 0
M  V30 11073 S 1036.25 -1.57534 -5.11804 0
M  V30 11074 C 1037.41 -0.697047 -6.22006 0
M  V30 11075 H 1037.64 -1.08505 -2.76792 0
M  V30 11076 H 1035.17 -0.672419 -1.38989 0
M  V30 11077 H 1037.13 1.11234 -3.95142 0
M  V30 11078 H 1035.79 1.38994 -2.81673 0
M  V30 11079 H 1034.98 0.480094 -5.01708 0
M  V30 11080 H 1034.59 -0.631262 -3.68634 0
M  V30 11081 H 1036.88 0.0907919 -6.77439 0
M  V30 11082 H 1037.82 -1.42481 -6.93617 0
M  V30 11083 H 1038.23 -0.262954 -5.63887 0
M  V30 11084 N 1037.63 1.44308 -0.633487 0
M  V30 11085 C 1038.87 2.02322 -0.139123 0
M  V30 11086 C 1039.21 1.49733 1.23667 0
M  V30 11087 O 1038.48 0.682353 1.82138 0
M  V30 11088 C 1038.76 3.59871 -0.128366 0
M  V30 11089 C 1038.62 4.22737 -1.53667 0
M  V30 11090 C 1039.94 4.36702 0.545834 0
M  V30 11091 H 1037.05 0.735161 -0.0520293 0
M  V30 11092 H 1039.7 1.7185 -0.810411 0
M  V30 11093 H 1037.85 3.85963 0.443263 0
M  V30 11094 H 1039.52 4.07744 -2.15737 0
M  V30 11095 H 1037.76 3.80142 -2.08985 0
M  V30 11096 H 1038.43 5.31757 -1.48116 0
M  V30 11097 H 1040.91 4.16057 0.0596879 0
M  V30 11098 H 1039.78 5.46407 0.522557 0
M  V30 11099 H 1040.05 4.11483 1.6166 0
M  V30 11100 N 1039.1 0.374177 1.53094 0
M  V30 11101 C 1040.05 -0.48326 2.27524 0
M  V30 11102 C 1041.05 -1.07606 1.30833 0
M  V30 11103 O 1042.25 -1.01827 1.48429 0
M  V30 11104 H 1038.63 -0.174578 0.731455 0
M  V30 11105 H 1040.6 0.166156 2.97937 0
M  V30 11106 C 1039.35 -1.6065 3.08362 0
M  V30 11107 H 1038.67 -1.15966 3.82612 0
M  V30 11108 H 1040.11 -2.18099 3.63606 0
M  V30 11109 C 1038.57 -2.55381 2.19732 0
M  V30 11110 O 1039.1 -3.58414 1.8139 0
M  V30 11111 N 1037.31 -2.24769 1.84194 0
M  V30 11112 H 1036.85 -1.41018 2.15573 0
M  V30 11113 H 1036.81 -2.88404 1.25181 0
M  V30 11114 N 1040.58 -1.57259 0.103575 0
M  V30 11115 C 1041.83 -1.94272 -0.557024 0
M  V30 11116 C 1042.15 -0.986739 -1.68192 0
M  V30 11117 O 1041.42 -0.0402818 -1.95859 0
M  V30 11118 H 1040 -0.717237 -0.208757 0
M  V30 11119 H 1042.66 -1.94167 0.168898 0
M  V30 11120 H 1041.76 -2.96914 -0.961691 0
M  V30 11121 N 1042.06 0.170153 -1.56679 0
M  V30 11122 C 1043.34 0.913938 -1.72935 0
M  V30 11123 C 1043.72 2.00342 -0.665293 0
M  V30 11124 O 1043.07 2.26252 0.319715 0
M  V30 11125 C 1043.28 1.47761 -3.16177 0
M  V30 11126 C 1044.62 1.95007 -3.7717 0
M  V30 11127 O 1045.65 1.57552 -3.19462 0
M  V30 11128 O 1044.51 2.64007 -4.78501 0
M  V30 11129 H 1041.6 0.43027 -0.706256 0
M  V30 11130 H 1044.15 0.157891 -1.68964 0
M  V30 11131 H 1042.92 0.69352 -3.85105 0
M  V30 11132 H 1042.54 2.2978 -3.24479 0
M  V30 11133 N 1043.54 1.5137 0.438746 0
M  V30 11134 C 1044.49 1.68966 1.53083 0
M  V30 11135 C 1045.47 0.543669 1.51437 0
M  V30 11136 O 1046.66 0.799519 1.57914 0
M  V30 11137 C 1043.79 1.8168 2.91286 0
M  V30 11138 C 1042.88 3.02059 2.97693 0
M  V30 11139 N 1043.27 4.25254 2.73848 0
M  V30 11140 C 1041.57 3.01284 3.28852 0
M  V30 11141 C 1042.27 5.06501 2.86062 0
M  V30 11142 N 1041.25 4.41119 3.17671 0
M  V30 11143 H 1045.05 2.61883 1.33397 0
M  V30 11144 H 1042.56 1.48997 0.64603 0
M  V30 11145 H 1044.56 1.92396 3.6985 0
M  V30 11146 H 1043.22 0.899438 3.11994 0
M  V30 11147 H 1044.23 4.54222 2.48803 0
M  V30 11148 H 1040.91 2.19174 3.55344 0
M  V30 11149 H 1042.3 6.14563 2.71592 0
M  V30 11150 N 1045.02 -0.694098 1.41492 0
M  V30 11151 C 1046.43 -1.00487 1.23994 0
M  V30 11152 C 1046.63 -2.01078 0.130346 0
M  V30 11153 O 1045.69 -2.47403 -0.504775 0
M  V30 11154 C 1047 -1.52808 2.58979 0
M  V30 11155 C 1048.55 -1.64684 2.66173 0
M  V30 11156 C 1049.02 -2.20406 4.01479 0
M  V30 11157 N 1050.52 -2.27765 4.03333 0
M  V30 11158 C 1051.25 -2.7191 5.04829 0
M  V30 11159 N 1050.75 -3.1565 6.16714 0
M  V30 11160 N 1052.54 -2.71487 4.9219 0
M  V30 11161 H 1044.69 -0.027746 2.12382 0
M  V30 11162 H 1046.95 -0.0748741 0.945039 0
M  V30 11163 H 1046.66 -0.863519 3.40934 0
M  V30 11164 H 1046.53 -2.50998 2.81566 0
M  V30 11165 H 1048.92 -2.30251 1.84576 0
M  V30 11166 H 1049 -0.65035 2.47395 0
M  V30 11167 H 1048.65 -1.55454 4.83525 0
M  V30 11168 H 1048.58 -3.2081 4.17599 0
M  V30 11169 H 1051.07 -1.96899 3.22551 0
M  V30 11170 H 1051.38 -3.47966 6.90029 0
M  V30 11171 H 1049.72 -3.13555 6.20248 0
M  V30 11172 H 1052.92 -2.36666 4.03865 0
M  V30 11173 H 1053.09 -3.05573 5.71427 0
M  V30 11174 N 1046.49 -1.27344 -0.928501 0
M  V30 11175 C 1047.74 -1.13019 -1.67061 0
M  V30 11176 C 1048.06 0.323614 -1.92904 0
M  V30 11177 O 1049.26 0.587752 -2.65062 0
M  V30 11178 C 1047.72 -1.97471 -3.00887 0
M  V30 11179 C 1047.33 -3.47504 -2.82746 0
M  V30 11180 C 1049.07 -1.91792 -3.78703 0
M  V30 11181 C 1046.98 -4.24158 -4.12122 0
M  V30 11182 H 1045.91 -0.419364 -0.626618 0
M  V30 11183 H 1048.56 -1.51759 -1.03158 0
M  V30 11184 H 1046.94 -1.51576 -3.65843 0
M  V30 11185 H 1048.11 -4.01256 -2.26562 0
M  V30 11186 H 1046.43 -3.54554 -2.18359 0
M  V30 11187 H 1049.03 -2.46339 -4.74575 0
M  V30 11188 H 1049.37 -0.891375 -4.06645 0
M  V30 11189 H 1049.9 -2.35578 -3.20543 0
M  V30 11190 H 1046.64 -5.27333 -3.89359 0
M  V30 11191 H 1046.16 -3.75183 -4.67972 0
M  V30 11192 H 1047.84 -4.33288 -4.80489 0
M  V30 11193 N 1047.97 1.13488 -1.09353 0
M  V30 11194 C 1049.22 1.84383 -0.827488 0
M  V30 11195 C 1049.54 1.83892 0.648745 0
M  V30 11196 O 1048.81 1.29415 1.47066 0
M  V30 11197 H 1047.39 0.682732 -0.303127 0
M  V30 11198 H 1050.05 1.37477 -1.38152 0
M  V30 11199 H 1049.15 2.88919 -1.18035 0
M  V30 11200 N 1049.45 0.880621 1.30701 0
M  V30 11201 C 1050.7 0.492957 1.95583 0
M  V30 11202 C 1051.01 -0.961863 1.70316 0
M  V30 11203 O 1052.22 -1.45617 2.29146 0
M  V30 11204 C 1050.68 0.830656 3.50183 0
M  V30 11205 C 1050.28 2.30295 3.84276 0
M  V30 11206 C 1052.03 0.511979 4.21401 0
M  V30 11207 C 1049.93 2.58251 5.32034 0
M  V30 11208 H 1048.86 0.18062 0.732047 0
M  V30 11209 H 1051.52 1.075 1.48715 0
M  V30 11210 H 1049.9 0.177752 3.95601 0
M  V30 11211 H 1051.07 2.99981 3.49783 0
M  V30 11212 H 1049.39 2.58873 3.2615 0
M  V30 11213 H 1051.98 0.697935 5.30125 0
M  V30 11214 H 1052.33 -0.548327 4.12673 0
M  V30 11215 H 1052.86 1.12189 3.81652 0
M  V30 11216 H 1049.6 3.63005 5.45809 0
M  V30 11217 H 1049.12 1.9317 5.67843 0
M  V30 11218 H 1050.8 2.43527 5.99419 0
M  V30 11219 N 1050.93 -1.4397 0.641131 0
M  V30 11220 C 1052.18 -2.01946 0.149629 0
M  V30 11221 C 1052.5 -1.50496 -1.23212 0
M  V30 11222 O 1051.76 -0.683453 -1.83378 0
M  V30 11223 C 1052.06 -3.5727 0.0963368 0
M  V30 11224 C 1051.72 -4.28016 1.4182 0
M  V30 11225 C 1050.39 -4.47059 1.78021 0
M  V30 11226 C 1052.74 -4.68183 2.29028 0
M  V30 11227 C 1050.07 -5.03532 3.01119 0
M  V30 11228 C 1052.42 -5.26019 3.51406 0
M  V30 11229 C 1051.08 -5.4328 3.87818 0
M  V30 11230 H 1050.35 -0.738974 0.0547531 0
M  V30 11231 H 1053 -1.72605 0.829436 0
M  V30 11232 H 1051.3 -3.86083 -0.666879 0
M  V30 11233 H 1053 -3.99871 -0.300635 0
M  V30 11234 H 1049.59 -4.13531 1.12651 0
M  V30 11235 H 1053.78 -4.53175 2.02353 0
M  V30 11236 H 1049.03 -5.15082 3.29395 0
M  V30 11237 H 1053.21 -5.56092 4.19208 0
M  V30 11238 H 1050.83 -5.86805 4.83284 0
M  V30 11239 N 1052.41 -0.382291 -1.52893 0
M  V30 11240 C 1053.37 0.44408 -2.24857 0
M  V30 11241 C 1054.37 0.996004 -1.26239 0
M  V30 11242 O 1055.56 0.879114 -1.5039 0
M  V30 11243 C 1052.69 1.62234 -2.99822 0
M  V30 11244 H 1053.89 -0.185862 -2.99324 0
M  V30 11245 H 1051.44 -0.134275 -1.55722 0
M  V30 11246 H 1052.17 2.28991 -2.29638 0
M  V30 11247 H 1051.96 1.23336 -3.72197 0
M  V30 11248 H 1053.45 2.20756 -3.54481 0
M  V30 11249 N 1053.89 1.57202 -0.111913 0
M  V30 11250 C 1054.83 2.14936 0.840908 0
M  V30 11251 C 1055.8 1.07242 1.2684 0
M  V30 11252 O 1056.99 1.35114 1.34718 0
M  V30 11253 C 1054.13 2.74743 2.0883 0
M  V30 11254 C 1053.24 3.96723 1.70982 0
M  V30 11255 C 1052.38 4.4464 2.90634 0
M  V30 11256 C 1051.41 5.59169 2.48992 0
M  V30 11257 N 1050.55 6.01862 3.61534 0
M  V30 11258 H 1055.39 2.96034 0.341735 0
M  V30 11259 H 1052.93 1.4626 0.156993 0
M  V30 11260 H 1054.89 3.07546 2.81907 0
M  V30 11261 H 1053.52 1.96346 2.56218 0
M  V30 11262 H 1052.57 3.70127 0.878072 0
M  V30 11263 H 1053.88 4.79795 1.36373 0
M  V30 11264 H 1053.03 4.79315 3.71944 0
M  V30 11265 H 1051.77 3.60503 3.28464 0
M  V30 11266 H 1050.78 5.24106 1.66113 0
M  V30 11267 H 1052 6.45067 2.12287 0
M  V30 11268 H 1049.95 5.20667 3.99051 0
M  V30 11269 H 1049.87 6.79772 3.30827 0
M  V30 11270 H 1051.13 6.41172 4.43305 0
M  V30 11271 N 1055.36 -0.161842 1.56767 0
M  V30 11272 C 1056.78 -0.51396 1.51098 0
M  V30 11273 C 1056.98 -1.84158 0.817815 0
M  V30 11274 O 1056.04 -2.49592 0.382133 0
M  V30 11275 C 1057.35 -0.537966 2.95849 0
M  V30 11276 C 1058.9 -0.624512 3.06706 0
M  V30 11277 C 1059.37 -0.679322 4.52934 0
M  V30 11278 N 1060.86 -0.741953 4.57219 0
M  V30 11279 C 1061.6 -0.805096 5.6772 0
M  V30 11280 N 1061.09 -0.828492 6.87828 0
M  V30 11281 N 1062.89 -0.844843 5.55715 0
M  V30 11282 H 1055.04 0.708581 2.00232 0
M  V30 11283 H 1057.3 0.25663 0.912603 0
M  V30 11284 H 1057.01 0.369052 3.49758 0
M  V30 11285 H 1056.88 -1.38113 3.51005 0
M  V30 11286 H 1059.27 -1.52195 2.52825 0
M  V30 11287 H 1059.35 0.245515 2.54619 0
M  V30 11288 H 1058.99 0.213901 5.07449 0
M  V30 11289 H 1058.92 -1.56563 5.02788 0
M  V30 11290 H 1061.41 -0.731772 3.70747 0
M  V30 11291 H 1061.73 -0.878109 7.67795 0
M  V30 11292 H 1060.07 -0.796612 6.9042 0
M  V30 11293 H 1063.26 -0.823632 4.60797 0
M  V30 11294 H 1063.44 -0.890588 6.41851 0
M  V30 11295 N 1056.84 -1.516 -0.430713 0
M  V30 11296 C 1057.8 -1.72794 -1.50582 0
M  V30 11297 C 1058.8 -0.597903 -1.49271 0
M  V30 11298 O 1059.99 -0.865535 -1.51176 0
M  V30 11299 C 1057.13 -1.79049 -2.90093 0
M  V30 11300 H 1058.32 -2.68751 -1.33091 0
M  V30 11301 H 1055.87 -1.4169 -0.659822 0
M  V30 11302 H 1056.61 -0.849309 -3.12981 0
M  V30 11303 H 1056.39 -2.61181 -2.92449 0
M  V30 11304 H 1057.88 -1.97262 -3.68072 0
M  V30 11305 N 1058.32 0.686584 -1.41858 0
M  V30 11306 C 1059.57 1.44235 -1.40994 0
M  V30 11307 C 1059.88 1.95583 -0.0254979 0
M  V30 11308 O 1061.09 2.71294 0.10576 0
M  V30 11309 C 1059.54 2.6086 -2.47952 0
M  V30 11310 C 1059.15 2.16259 -3.92347 0
M  V30 11311 C 1060.9 3.38441 -2.56237 0
M  V30 11312 C 1058.8 3.29896 -4.90838 0
M  V30 11313 H 1057.73 0.54181 -0.524364 0
M  V30 11314 H 1060.38 0.744486 -1.67719 0
M  V30 11315 H 1058.77 3.32957 -2.14373 0
M  V30 11316 H 1059.94 1.51392 -4.35221 0
M  V30 11317 H 1058.25 1.51648 -3.87804 0
M  V30 11318 H 1060.85 4.23052 -3.27003 0
M  V30 11319 H 1061.19 3.84238 -1.6021 0
M  V30 11320 H 1061.73 2.73406 -2.88953 0
M  V30 11321 H 1058.47 2.89104 -5.88302 0
M  V30 11322 H 1057.99 3.93584 -4.52606 0
M  V30 11323 H 1059.67 3.95541 -5.12012 0
M  V30 11324 N 1059.8 1.27835 0.921735 0
M  V30 11325 C 1060.73 1.06874 2.02758 0
M  V30 11326 C 1061.74 0.0229418 1.62784 0
M  V30 11327 O 1062.93 0.265145 1.7652 0
M  V30 11328 C 1060.03 0.60037 3.3354 0
M  V30 11329 C 1059.2 1.71979 4.02172 0
M  V30 11330 C 1058.26 1.24615 5.11231 0
M  V30 11331 O 1057.29 1.94692 5.34868 0
M  V30 11332 N 1058.49 0.105021 5.80405 0
M  V30 11333 H 1061.26 2.02105 2.213 0
M  V30 11334 H 1058.82 1.19481 1.09251 0
M  V30 11335 H 1060.81 0.267281 4.03816 0
M  V30 11336 H 1059.38 -0.258872 3.11526 0
M  V30 11337 H 1058.6 2.22287 3.25549 0
M  V30 11338 H 1059.89 2.47092 4.44773 0
M  V30 11339 H 1059.29 -0.479745 5.63662 0
M  V30 11340 H 1057.84 -0.168846 6.51581 0
M  V30 11341 N 1061.28 -1.12907 1.09954 0
M  V30 11342 C 1062.24 -2.16673 0.747364 0
M  V30 11343 C 1063.24 -1.59208 -0.225741 0
M  V30 11344 O 1064.43 -1.742 -0.00322482 0
M  V30 11345 C 1061.56 -3.40735 0.106169 0
M  V30 11346 H 1062.75 -2.49341 1.6664 0
M  V30 11347 H 1060.31 -1.27828 0.899421 0
M  V30 11348 H 1061.04 -3.13661 -0.82384 0
M  V30 11349 H 1060.83 -3.83717 0.806434 0
M  V30 11350 H 1062.32 -4.17414 -0.12464 0
M  V30 11351 N 1062.75 -0.88754 -1.30232 0
M  V30 11352 C 1064 -0.506277 -1.95656 0
M  V30 11353 C 1064.32 0.948191 -1.70395 0
M  V30 11354 O 1063.59 1.66701 -1.02895 0
M  V30 11355 H 1062.17 -0.184235 -0.723924 0
M  V30 11356 H 1064.83 -1.13118 -1.58715 0
M  V30 11357 H 1063.93 -0.678673 -3.04632 0
M  V30 11358 N 1064.23 1.43628 -0.648757 0
M  V30 11359 C 1065.14 2.34554 0.0463037 0
M  V30 11360 C 1066.16 1.53629 0.816952 0
M  V30 11361 O 1067.33 1.86297 0.765212 0
M  V30 11362 C 1064.4 3.3185 1.00381 0
M  V30 11363 C 1063.46 4.2868 0.230589 0
M  V30 11364 C 1062.69 5.21328 1.14249 0
M  V30 11365 O 1062.92 5.18298 2.38166 0
M  V30 11366 O 1061.85 5.98726 0.617296 0
M  V30 11367 H 1065.68 2.95475 -0.702008 0
M  V30 11368 H 1063.26 1.43694 -0.408942 0
M  V30 11369 H 1065.14 3.91692 1.5542 0
M  V30 11370 H 1063.82 2.73439 1.73243 0
M  V30 11371 H 1062.73 3.72332 -0.363282 0
M  V30 11372 H 1064.06 4.90061 -0.458368 0
M  V30 11373 N 1065.71 0.390394 1.52688 0
M  V30 11374 C 1066.62 -0.451543 2.30213 0
M  V30 11375 C 1067.64 -1.07051 1.37172 0
M  V30 11376 O 1068.81 -1.07609 1.70242 0
M  V30 11377 C 1065.88 -1.56299 3.0947 0
M  V30 11378 C 1064.94 -0.969017 4.18221 0
M  V30 11379 C 1064.17 -2.0275 4.93688 0
M  V30 11380 O 1064.39 -3.24273 4.69258 0
M  V30 11381 O 1063.33 -1.64418 5.79008 0
M  V30 11382 H 1067.15 0.180042 3.03166 0
M  V30 11383 H 1064.74 0.154082 1.48603 0
M  V30 11384 H 1066.62 -2.20864 3.58883 0
M  V30 11385 H 1065.3 -2.17952 2.3933 0
M  V30 11386 H 1064.2 -0.286587 3.73001 0
M  V30 11387 H 1065.54 -0.396687 4.90599 0
M  V30 11388 N 1067.19 -1.57141 0.120249 0
M  V30 11389 C 1068.12 -2.18398 -0.826112 0
M  V30 11390 C 1069.1 -1.12439 -1.27638 0
M  V30 11391 O 1070.28 -1.40679 -1.33877 0
M  V30 11392 C 1067.41 -2.78438 -2.0758 0
M  V30 11393 C 1066.37 -3.89991 -1.76327 0
M  V30 11394 C 1065.69 -4.36844 -3.08336 0
M  V30 11395 C 1066.99 -5.12031 -1.03062 0
M  V30 11396 H 1068.69 -2.97731 -0.315656 0
M  V30 11397 H 1066.23 -1.43213 -0.150387 0
M  V30 11398 H 1068.19 -3.19951 -2.74243 0
M  V30 11399 H 1066.91 -1.96396 -2.60953 0
M  V30 11400 H 1065.57 -3.49055 -1.12053 0
M  V30 11401 H 1065.22 -3.51659 -3.59646 0
M  V30 11402 H 1064.92 -5.1207 -2.88199 0
M  V30 11403 H 1066.44 -4.81009 -3.76116 0
M  V30 11404 H 1067.86 -5.50555 -1.59881 0
M  V30 11405 H 1066.25 -5.92848 -0.930146 0
M  V30 11406 H 1067.32 -4.84897 -0.017582 0
M  V30 11407 N 1068.67 0.153526 -1.5685 0
M  V30 11408 C 1069.91 0.867232 -1.8299 0
M  V30 11409 C 1070.24 1.81462 -0.700125 0
M  V30 11410 O 1069.5 1.93207 0.311348 0
M  V30 11411 C 1069.8 1.68066 -3.15418 0
M  V30 11412 C 1069.46 0.880635 -4.42217 0
M  V30 11413 C 1068.12 0.659899 -4.76654 0
M  V30 11414 C 1070.48 0.320698 -5.20212 0
M  V30 11415 C 1067.8 -0.131588 -5.86552 0
M  V30 11416 C 1070.16 -0.457794 -6.30941 0
M  V30 11417 C 1068.82 -0.689168 -6.63933 0
M  V30 11418 H 1068.09 0.317343 -0.669608 0
M  V30 11419 H 1070.74 0.131208 -1.9105 0
M  V30 11420 H 1069.04 2.4866 -3.02779 0
M  V30 11421 H 1070.74 2.23623 -3.32857 0
M  V30 11422 H 1067.33 1.06274 -4.15215 0
M  V30 11423 H 1071.51 0.47853 -4.93988 0
M  V30 11424 H 1066.77 -0.320413 -6.1056 0
M  V30 11425 H 1070.94 -0.898839 -6.90575 0
M  V30 11426 H 1068.57 -1.30433 -7.48927 0
M  V30 11427 N 1070.14 1.51827 0.422667 0
M  V30 11428 C 1071.39 1.6522 1.17084 0
M  V30 11429 C 1071.72 0.375508 1.90841 0
M  V30 11430 O 1070.97 -0.641029 1.84903 0
M  V30 11431 C 1071.27 2.81572 2.20119 0
M  V30 11432 C 1070.94 4.20303 1.63268 0
M  V30 11433 C 1069.6 4.5804 1.47488 0
M  V30 11434 C 1071.95 5.06812 1.21618 0
M  V30 11435 C 1069.28 5.79979 0.885531 0
M  V30 11436 C 1071.63 6.29343 0.641071 0
M  V30 11437 C 1070.3 6.65841 0.470286 0
M  V30 11438 H 1069.57 0.604581 0.428442 0
M  V30 11439 H 1072.21 1.85896 0.459874 0
M  V30 11440 H 1070.52 2.55175 2.97309 0
M  V30 11441 H 1072.22 2.89132 2.77856 0
M  V30 11442 H 1068.81 3.90557 1.76531 0
M  V30 11443 H 1072.99 4.78251 1.32624 0
M  V30 11444 H 1068.25 6.06892 0.741105 0
M  V30 11445 H 1072.42 6.9571 0.309888 0
M  V30 11446 H 1070.05 7.60199 0.0115038 0
M  V30 11447 N 1071.62 -0.679052 1.4222 0
M  V30 11448 C 1072.9 -1.43473 1.32947 0
M  V30 11449 C 1073.28 -2.11071 -0.0351689 0
M  V30 11450 O 1072.63 -2.02925 -1.05042 0
M  V30 11451 C 1072.84 -2.44065 2.49466 0
M  V30 11452 C 1074.19 -3.08834 2.91387 0
M  V30 11453 O 1075.21 -2.54392 2.49325 0
M  V30 11454 O 1074.07 -4.07478 3.64175 0
M  V30 11455 H 1071.16 -0.639743 0.524078 0
M  V30 11456 H 1073.71 -0.708134 1.54219 0
M  V30 11457 H 1072.48 -1.92884 3.40457 0
M  V30 11458 H 1072.1 -3.24212 2.30158 0
M  V30 11459 N 1073.1 -1.28322 -0.914942 0
M  V30 11460 C 1074.33 -1.18083 -1.69529 0
M  V30 11461 C 1074.74 0.263274 -1.87359 0
M  V30 11462 O 1074.08 1.18988 -1.39955 0
M  V30 11463 C 1074.14 -1.8062 -3.10832 0
M  V30 11464 C 1073.81 -3.29861 -3.16292 0
M  V30 11465 C 1074.8 -4.26313 -2.97578 0
M  V30 11466 C 1072.49 -3.70797 -3.38843 0
M  V30 11467 C 1074.48 -5.61677 -3.01326 0
M  V30 11468 C 1072.17 -5.06287 -3.42223 0
M  V30 11469 C 1073.17 -6.01537 -3.23485 0
M  V30 11470 O 1072.86 -7.34556 -3.26624 0
M  V30 11471 H 1072.59 -0.410931 -0.53676 0
M  V30 11472 H 1075.14 -1.6994 -1.15367 0
M  V30 11473 H 1073.37 -1.23255 -3.66531 0
M  V30 11474 H 1075.06 -1.64915 -3.70888 0
M  V30 11475 H 1075.83 -3.96023 -2.79984 0
M  V30 11476 H 1071.71 -2.97124 -3.52475 0
M  V30 11477 H 1075.25 -6.36 -2.86618 0
M  V30 11478 H 1071.15 -5.36228 -3.59346 0
M  V30 11479 H 1071.92 -7.43167 -3.42994 0
M  V30 11480 N 1074.58 1.12322 -1.10551 0
M  V30 11481 C 1075.99 1.35858 -0.837543 0
M  V30 11482 C 1076.19 1.94062 0.54241 0
M  V30 11483 O 1075.25 2.1676 1.29505 0
M  V30 11484 C 1076.56 2.299 -1.9382 0
M  V30 11485 C 1078.11 2.43488 -1.96679 0
M  V30 11486 C 1078.59 3.40846 -3.05922 0
M  V30 11487 N 1080.08 3.48404 -3.05236 0
M  V30 11488 C 1080.81 4.2365 -3.86405 0
M  V30 11489 N 1080.31 5.01951 -4.77512 0
M  V30 11490 N 1082.1 4.19068 -3.74618 0
M  V30 11491 H 1074.25 0.729002 -1.99498 0
M  V30 11492 H 1076.52 0.38339 -0.867016 0
M  V30 11493 H 1076.22 1.94309 -2.9315 0
M  V30 11494 H 1076.1 3.30033 -1.82641 0
M  V30 11495 H 1078.48 2.78359 -0.979813 0
M  V30 11496 H 1078.56 1.43239 -2.11934 0
M  V30 11497 H 1078.21 3.06704 -4.04839 0
M  V30 11498 H 1078.14 4.40927 -2.87907 0
M  V30 11499 H 1080.63 2.92545 -2.39219 0
M  V30 11500 H 1080.94 5.56707 -5.36002 0
M  V30 11501 H 1079.29 5.01143 -4.8154 0
M  V30 11502 H 1082.48 3.5698 -3.02792 0
M  V30 11503 H 1082.65 4.77455 -4.38111 0
M  V30 11504 N 1076.06 0.894434 1.2976 0
M  V30 11505 C 1077.29 0.532143 1.99629 0
M  V30 11506 C 1077.69 -0.886234 1.6716 0
M  V30 11507 O 1077.04 -1.59573 0.910065 0
M  V30 11508 C 1077.1 0.638335 3.53787 0
M  V30 11509 C 1076.76 2.02273 4.09798 0
M  V30 11510 C 1077.76 2.99327 4.25087 0
M  V30 11511 C 1075.45 2.33069 4.44954 0
M  V30 11512 C 1077.44 4.25304 4.74758 0
M  V30 11513 C 1075.13 3.59289 4.94322 0
M  V30 11514 C 1076.12 4.55222 5.09178 0
M  V30 11515 O 1075.81 5.79202 5.57477 0
M  V30 11516 H 1075.54 0.203326 0.644697 0
M  V30 11517 H 1078.1 1.2043 1.6639 0
M  V30 11518 H 1076.33 -0.0908338 3.86593 0
M  V30 11519 H 1078.02 0.285956 4.04891 0
M  V30 11520 H 1078.78 2.76849 3.9822 0
M  V30 11521 H 1074.66 1.59162 4.32653 0
M  V30 11522 H 1078.21 5.00189 4.86269 0
M  V30 11523 H 1074.1 3.816 5.20626 0
M  V30 11524 H 1074.87 5.81717 5.75802 0
M  V30 11525 N 1077.53 -1.43282 0.656365 0
M  V30 11526 C 1078.76 -2.06641 0.177245 0
M  V30 11527 C 1079.18 -1.48893 -1.14946 0
M  V30 11528 O 1078.54 -0.600099 -1.7108 0
M  V30 11529 C 1078.59 -3.60453 0.10299 0
M  V30 11530 O 1077.69 -4.01687 -0.933895 0
M  V30 11531 H 1077.04 -0.656978 0.096314 0
M  V30 11532 H 1079.57 -1.83733 0.900178 0
M  V30 11533 H 1079.58 -4.07923 -0.079291 0
M  V30 11534 H 1078.25 -4.01861 1.07147 0
M  V30 11535 H 1076.83 -3.65801 -0.724148 0
M  V30 11536 N 1079.01 -0.398486 -1.52479 0
M  V30 11537 C 1079.95 0.467426 -2.24383 0
M  V30 11538 C 1080.96 1.01908 -1.26959 0
M  V30 11539 O 1082.15 0.919843 -1.52974 0
M  V30 11540 C 1079.25 1.66146 -2.95379 0
M  V30 11541 C 1078.42 1.23557 -4.19586 0
M  V30 11542 C 1077.48 2.29532 -4.73499 0
M  V30 11543 O 1076.51 1.90561 -5.36354 0
M  V30 11544 N 1077.71 3.61564 -4.5415 0
M  V30 11545 H 1080.47 -0.148653 -2.99331 0
M  V30 11546 H 1078.03 -0.225313 -1.60325 0
M  V30 11547 H 1080.03 2.36585 -3.28344 0
M  V30 11548 H 1078.6 2.18369 -2.23682 0
M  V30 11549 H 1077.82 0.359715 -3.92555 0
M  V30 11550 H 1079.1 0.927812 -5.00269 0
M  V30 11551 H 1078.5 3.95983 -4.03998 0
M  V30 11552 H 1077.06 4.2801 -4.9158 0
M  V30 11553 N 1080.49 1.57075 -0.12858 0
M  V30 11554 C 1081.45 2.14643 0.803813 0
M  V30 11555 C 1082.45 1.08363 1.18803 0
M  V30 11556 O 1083.64 1.34093 1.11197 0
M  V30 11557 C 1080.78 2.6945 2.08829 0
M  V30 11558 H 1081.97 2.98362 0.303347 0
M  V30 11559 H 1079.52 1.55833 0.120735 0
M  V30 11560 H 1080.26 1.89345 2.63285 0
M  V30 11561 H 1080.04 3.47187 1.82218 0
M  V30 11562 H 1081.53 3.13865 2.7546 0
M  V30 11563 N 1081.97 -0.145205 1.5693 0
M  V30 11564 C 1083.25 -0.88631 1.74367 0
M  V30 11565 C 1083.63 -1.99259 0.697081 0
M  V30 11566 O 1082.97 -2.26732 -0.28368 0
M  V30 11567 C 1083.18 -1.42712 3.18488 0
M  V30 11568 C 1084.53 -1.88982 3.80225 0
M  V30 11569 O 1085.56 -1.5245 3.21928 0
M  V30 11570 O 1084.42 -2.56361 4.8264 0
M  V30 11571 H 1081.51 -0.418979 0.713011 0
M  V30 11572 H 1084.06 -0.130991 1.69194 0
M  V30 11573 H 1082.83 -0.632165 3.8616 0
M  V30 11574 H 1082.45 -2.24589 3.28094 0
M  V30 11575 N 1083.45 -1.52049 -0.414609 0
M  V30 11576 C 1084.41 -1.74382 -1.4874 0
M  V30 11577 C 1085.41 -0.613701 -1.48628 0
M  V30 11578 O 1086.6 -0.88152 -1.50249 0
M  V30 11579 C 1083.73 -1.82116 -2.88178 0
M  V30 11580 H 1084.93 -2.70147 -1.30233 0
M  V30 11581 H 1082.48 -1.42382 -0.644756 0
M  V30 11582 H 1083.21 -0.882457 -3.12063 0
M  V30 11583 H 1083 -2.64268 -2.89663 0
M  V30 11584 H 1084.49 -2.01155 -3.65959 0
M  V30 11585 N 1084.93 0.6715 -1.42579 0
M  V30 11586 C 1085.86 1.79693 -1.49107 0
M  V30 11587 C 1086.84 1.66516 -0.347338 0
M  V30 11588 O 1088.02 1.85887 -0.562094 0
M  V30 11589 C 1085.15 3.1801 -1.39596 0
M  V30 11590 C 1084.11 3.45926 -2.5203 0
M  V30 11591 C 1083.43 4.83852 -2.27577 0
M  V30 11592 C 1084.73 3.4249 -3.94333 0
M  V30 11593 H 1086.43 1.74486 -2.433 0
M  V30 11594 H 1083.97 0.838042 -1.17102 0
M  V30 11595 H 1085.92 3.96478 -1.42771 0
M  V30 11596 H 1084.65 3.23901 -0.418989 0
M  V30 11597 H 1083.31 2.6982 -2.48178 0
M  V30 11598 H 1082.96 4.86398 -1.28165 0
M  V30 11599 H 1082.66 5.03493 -3.02934 0
M  V30 11600 H 1084.18 5.646 -2.32506 0
M  V30 11601 H 1085.59 4.10922 -3.9977 0
M  V30 11602 H 1083.99 3.73666 -4.69568 0
M  V30 11603 H 1085.06 2.41002 -4.20768 0
M  V30 11604 N 1086.4 1.28806 0.908124 0
M  V30 11605 C 1087.35 1.13215 2.01125 0
M  V30 11606 C 1088.32 0.0277357 1.66077 0
M  V30 11607 O 1089.51 0.193707 1.89814 0
M  V30 11608 C 1086.65 0.805887 3.35558 0
M  V30 11609 C 1085.76 1.9899 3.83441 0
M  V30 11610 C 1084.89 1.60376 5.06412 0
M  V30 11611 C 1083.93 2.75409 5.46641 0
M  V30 11612 N 1083.07 2.37249 6.60801 0
M  V30 11613 H 1087.91 2.07598 2.13792 0
M  V30 11614 H 1085.45 1.03316 1.0471 0
M  V30 11615 H 1087.4 0.597451 4.129 0
M  V30 11616 H 1086.03 -0.101023 3.22642 0
M  V30 11617 H 1085.09 2.31029 3.02208 0
M  V30 11618 H 1086.4 2.85214 4.09212 0
M  V30 11619 H 1085.55 1.35772 5.91313 0
M  V30 11620 H 1084.29 0.712888 4.82462 0
M  V30 11621 H 1083.3 3.00705 4.60279 0
M  V30 11622 H 1084.52 3.65148 5.72577 0
M  V30 11623 H 1082.47 1.50638 6.3847 0
M  V30 11624 H 1082.38 3.17008 6.86325 0
M  V30 11625 H 1083.65 2.15943 7.48992 0
M  V30 11626 N 1087.88 -1.11734 1.11145 0
M  V30 11627 C 1089.11 -1.86943 0.879534 0
M  V30 11628 C 1089.52 -1.80283 -0.574007 0
M  V30 11629 O 1088.86 -1.17998 -1.40791 0
M  V30 11630 C 1088.92 -3.36738 1.25887 0
M  V30 11631 C 1088.59 -3.67169 2.72095 0
M  V30 11632 C 1089.59 -3.6491 3.7032 0
M  V30 11633 C 1087.27 -3.96272 3.08665 0
M  V30 11634 C 1089.26 -3.91325 5.03134 0
M  V30 11635 C 1086.95 -4.22345 4.41665 0
M  V30 11636 C 1087.95 -4.19859 5.38709 0
M  V30 11637 O 1087.64 -4.4528 6.69314 0
M  V30 11638 H 1087.37 -0.598117 0.315011 0
M  V30 11639 H 1089.92 -1.42253 1.48166 0
M  V30 11640 H 1088.15 -3.82019 0.599873 0
M  V30 11641 H 1089.84 -3.93306 1.00325 0
M  V30 11642 H 1090.61 -3.42481 3.43412 0
M  V30 11643 H 1086.49 -3.97344 2.33749 0
M  V30 11644 H 1090.03 -3.893 5.78871 0
M  V30 11645 H 1085.93 -4.4425 4.68308 0
M  V30 11646 H 1086.7 -4.62863 6.75056 0
M  V30 11647 N 1089.36 -0.901303 -1.29284 0
M  V30 11648 C 1090.61 -0.528826 -1.95784 0
M  V30 11649 C 1090.94 0.922833 -1.70873 0
M  V30 11650 O 1090.21 1.65448 -1.0226 0
M  V30 11651 C 1090.5 -0.823793 -3.50551 0
M  V30 11652 C 1090.35 -2.32727 -3.84913 0
M  V30 11653 C 1091.67 -0.311382 -4.38997 0
M  V30 11654 H 1088.79 -0.193604 -0.711116 0
M  V30 11655 H 1091.43 -1.12828 -1.52872 0
M  V30 11656 H 1089.58 -0.313612 -3.87232 0
M  V30 11657 H 1091.25 -2.90712 -3.58168 0
M  V30 11658 H 1089.49 -2.78735 -3.32399 0
M  V30 11659 H 1090.17 -2.48423 -4.9294 0
M  V30 11660 H 1092.64 -0.748265 -4.09317 0
M  V30 11661 H 1091.52 -0.546957 -5.46168 0
M  V30 11662 H 1091.78 0.787959 -4.35021 0
M  V30 11663 N 1090.84 1.42931 -0.663954 0
M  V30 11664 C 1092.09 2.01284 -0.181379 0
M  V30 11665 C 1092.41 1.52708 1.21265 0
M  V30 11666 O 1091.68 0.744181 1.81215 0
M  V30 11667 H 1090.26 0.744248 -0.0640646 0
M  V30 11668 H 1092.92 1.74997 -0.858031 0
M  V30 11669 H 1092.01 3.11613 -0.174273 0
M  V30 11670 N 1092.32 0.406567 1.52266 0
M  V30 11671 C 1093.56 -0.171391 2.00971 0
M  V30 11672 C 1093.88 -1.46443 1.29668 0
M  V30 11673 O 1095.08 -2.12348 1.69176 0
M  V30 11674 C 1093.54 -0.35599 3.58135 0
M  V30 11675 C 1093.15 0.924803 4.38351 0
M  V30 11676 C 1094.89 -0.889378 4.15079 0
M  V30 11677 C 1092.8 0.707534 5.87152 0
M  V30 11678 H 1091.73 -0.0678253 0.750943 0
M  V30 11679 H 1094.38 0.531619 1.7563 0
M  V30 11680 H 1092.76 -1.12127 3.79794 0
M  V30 11681 H 1093.94 1.69603 4.28452 0
M  V30 11682 H 1092.25 1.38442 3.92712 0
M  V30 11683 H 1094.85 -1.06792 5.23927 0
M  V30 11684 H 1095.19 -1.86334 3.7227 0
M  V30 11685 H 1095.72 -0.183224 3.97378 0
M  V30 11686 H 1092.46 1.65299 6.34316 0
M  V30 11687 H 1091.98 -0.024446 5.99795 0
M  V30 11688 H 1093.66 0.348721 6.4606 0
M  V30 11689 N 1093.79 -1.57004 0.136909 0
M  V30 11690 C 1094.7 -2.19807 -0.819887 0
M  V30 11691 C 1095.72 -1.17939 -1.27932 0
M  V30 11692 O 1096.9 -1.50478 -1.3386 0
M  V30 11693 C 1093.96 -2.79935 -2.04542 0
M  V30 11694 C 1093.02 -3.96897 -1.6362 0
M  V30 11695 C 1092.26 -4.54148 -2.80331 0
M  V30 11696 O 1092.48 -4.10282 -3.96264 0
M  V30 11697 O 1091.41 -5.44565 -2.56384 0
M  V30 11698 H 1095.24 -3.02058 -0.315337 0
M  V30 11699 H 1092.82 -1.49131 -0.0896151 0
M  V30 11700 H 1094.71 -3.18191 -2.76283 0
M  V30 11701 H 1093.38 -2.00703 -2.53969 0
M  V30 11702 H 1092.29 -3.63376 -0.889316 0
M  V30 11703 H 1093.62 -4.77618 -1.18918 0
M  V30 11704 N 1095.27 0.136881 -1.57004 0
M  V30 11705 C 1096.69 0.489856 -1.51897 0
M  V30 11706 C 1096.89 1.82833 -0.847009 0
M  V30 11707 O 1095.94 2.48952 -0.421792 0
M  V30 11708 C 1097.26 0.490831 -2.96667 0
M  V30 11709 C 1098.81 0.575639 -3.07661 0
M  V30 11710 C 1099.28 0.607178 -4.53957 0
M  V30 11711 N 1100.77 0.66912 -4.58342 0
M  V30 11712 C 1101.51 0.714675 -5.68929 0
M  V30 11713 N 1101 0.718959 -6.89059 0
M  V30 11714 N 1102.8 0.756326 -5.56988 0
M  V30 11715 H 1094.95 -0.740347 -1.99079 0
M  V30 11716 H 1097.21 -0.271116 -0.908405 0
M  V30 11717 H 1096.92 -0.424648 -3.49127 0
M  V30 11718 H 1096.79 1.32512 -3.53158 0
M  V30 11719 H 1099.18 1.48154 -2.55215 0
M  V30 11720 H 1099.26 -0.285991 -2.54196 0
M  V30 11721 H 1098.9 -0.294604 -5.07045 0
M  V30 11722 H 1098.83 1.48544 -5.05215 0
M  V30 11723 H 1101.32 0.672697 -3.71864 0
M  V30 11724 H 1101.64 0.755848 -7.69095 0
M  V30 11725 H 1099.98 0.686671 -6.91599 0
M  V30 11726 H 1103.17 0.750219 -4.62049 0
M  V30 11727 H 1103.34 0.788363 -6.43186 0
M  V30 11728 N 1096.75 1.52266 0.40654 0
M  V30 11729 C 1097.66 1.78688 1.52012 0
M  V30 11730 C 1098.68 0.6726 1.60475 0
M  V30 11731 O 1099.85 0.95829 1.77141 0
M  V30 11732 C 1096.92 1.93434 2.87722 0
M  V30 11733 C 1095.98 3.17341 2.89125 0
M  V30 11734 C 1095.21 3.31374 4.18362 0
M  V30 11735 O 1095.43 2.50613 5.12396 0
M  V30 11736 O 1094.37 4.24539 4.26674 0
M  V30 11737 H 1098.19 2.73213 1.3262 0
M  V30 11738 H 1095.78 1.37142 0.592653 0
M  V30 11739 H 1097.66 2.04941 3.68208 0
M  V30 11740 H 1096.34 1.02099 3.07177 0
M  V30 11741 H 1095.24 3.1129 2.07483 0
M  V30 11742 H 1096.58 4.08466 2.7462 0
M  V30 11743 N 1098.23 -0.663929 1.42933 0
M  V30 11744 C 1099.46 -1.45192 1.474 0
M  V30 11745 C 1099.87 -1.88592 0.0886014 0
M  V30 11746 O 1099.23 -1.58824 -0.898962 0
M  V30 11747 C 1099.28 -2.69394 2.41059 0
M  V30 11748 O 1099 -2.27812 3.7421 0
M  V30 11749 C 1100.5 -3.62855 2.54659 0
M  V30 11750 H 1097.72 -0.446394 0.500973 0
M  V30 11751 H 1100.27 -0.814875 1.87563 0
M  V30 11752 H 1098.42 -3.29262 2.0412 0
M  V30 11753 H 1098.83 -3.08095 4.24474 0
M  V30 11754 H 1100.31 -4.46698 3.24291 0
M  V30 11755 H 1100.79 -4.09487 1.58799 0
M  V30 11756 H 1101.39 -3.08874 2.92364 0
M  V30 11757 N 1099.71 -1.29285 -0.901281 0
M  V30 11758 C 1100.98 -1.07847 -1.63182 0
M  V30 11759 C 1101.36 0.377927 -2.07689 0
M  V30 11760 O 1100.71 1.36642 -1.83143 0
M  V30 11761 C 1100.92 -2.06457 -2.81383 0
M  V30 11762 C 1102.27 -2.37289 -3.52107 0
M  V30 11763 O 1103.29 -2.0464 -2.91549 0
M  V30 11764 O 1102.15 -2.93067 -4.61274 0
M  V30 11765 H 1099.25 -0.413073 -0.71645 0
M  V30 11766 H 1101.79 -1.40651 -0.949488 0
M  V30 11767 H 1100.56 -3.04561 -2.4568 0
M  V30 11768 H 1100.19 -1.74374 -3.57323 0
M  V30 11769 N 1101.18 1.11143 -1.11736 0
M  V30 11770 C 1102.43 1.83219 -0.869413 0
M  V30 11771 C 1102.76 1.84588 0.603402 0
M  V30 11772 O 1102.04 1.30119 1.44566 0
M  V30 11773 C 1102.32 3.30247 -1.43559 0
M  V30 11774 C 1102.17 3.37253 -2.97624 0
M  V30 11775 C 1103.49 4.26412 -1.08907 0
M  V30 11776 H 1100.61 0.665205 -0.317286 0
M  V30 11777 H 1103.25 1.30307 -1.38275 0
M  V30 11778 H 1101.4 3.75437 -0.998978 0
M  V30 11779 H 1103.08 3.00599 -3.49911 0
M  V30 11780 H 1101.32 2.77378 -3.33532 0
M  V30 11781 H 1101.99 4.40752 -3.32328 0
M  V30 11782 H 1104.47 3.89418 -1.46604 0
M  V30 11783 H 1103.34 5.27666 -1.51195 0
M  V30 11784 H 1103.6 4.421 -0.000259009 0
M  V30 11785 N 1102.66 0.908147 1.28804 0
M  V30 11786 C 1103.59 0.409106 2.29888 0
M  V30 11787 C 1104.57 -0.520338 1.61946 0
M  V30 11788 O 1105.76 -0.429268 1.89396 0
M  V30 11789 C 1102.89 -0.35669 3.45463 0
M  V30 11790 C 1101.84 0.4831 4.25265 0
M  V30 11791 C 1101.17 -0.4107 5.3312 0
M  V30 11792 C 1102.47 1.73744 4.92555 0
M  V30 11793 H 1104.16 1.25386 2.7188 0
M  V30 11794 H 1101.71 0.604368 1.30703 0
M  V30 11795 H 1103.66 -0.71661 4.15262 0
M  V30 11796 H 1102.39 -1.2353 3.02337 0
M  V30 11797 H 1101.04 0.825464 3.57186 0
M  V30 11798 H 1100.69 -1.28769 4.86238 0
M  V30 11799 H 1100.39 0.14756 5.87415 0
M  V30 11800 H 1101.92 -0.766626 6.05768 0
M  V30 11801 H 1103.33 1.44676 5.54745 0
M  V30 11802 H 1101.73 2.23767 5.5682 0
M  V30 11803 H 1102.8 2.46853 4.17363 0
M  V30 11804 O 1104.18 -1.39676 0.810732 0
M  V30 11805 H 1104.87 -1.89765 0.38845 0
M  V30 END ATOM
M  V30 BEGIN BOND
M  V30 END BOND
M  V30 END CTAB
M  END
$$$$
