drugbank_target|Q92830 Histone acetyltransferase KAT2A (DB01992)
 OpenBabel12092120553D

  0  0  0     0  0            999 V3000
M  V30 BEGIN CTAB
M  V30 COUNTS 13296 13464 0 0 0
M  V30 BEGIN ATOM
M  V30 1 H -0.908 1.98254 -0.117106 0
M  V30 2 N 0 1.576 0 0
M  V30 3 C 0.933 2.03868 1.02534 0
M  V30 4 C 1.911 0.928543 1.3348 0
M  V30 5 O 3.095 1.19667 1.45644 0
M  V30 6 C 0.222 2.43627 2.35294 0
M  V30 7 C -0.732 3.65373 2.2001 0
M  V30 8 S 0.101 5.13292 1.52614 0
M  V30 9 C 1.257 5.56322 2.86805 0
M  V30 10 H 1.49 2.90518 0.631377 0
M  V30 11 H -0.977 1.52953 0.210867 0
M  V30 12 H 0.981 2.67203 3.11629 0
M  V30 13 H -0.358 1.57376 2.7183 0
M  V30 14 H -1.165 3.90944 3.18086 0
M  V30 15 H -1.563 3.418 1.51819 0
M  V30 16 H 0.729 5.58782 3.83104 0
M  V30 17 H 1.672 6.56266 2.65933 0
M  V30 18 H 2.08 4.83886 2.90714 0
M  V30 19 N 1.4781 -0.272755 1.55222 0
M  V30 20 C 2.4411 -1.32041 1.87344 0
M  V30 21 C 3.4411 -1.42342 0.74803 0
M  V30 22 O 4.6311 -1.41488 1.0162 0
M  V30 23 C 1.7631 -2.70173 2.07893 0
M  V30 24 H 2.9561 -1.04789 2.80997 0
M  V30 25 H 0.5091 -0.51083 1.47717 0
M  V30 26 H 1.2441 -3.02605 1.16622 0
M  V30 27 H 1.0291 -2.64082 2.89833 0
M  V30 28 H 2.5191 -3.45869 2.34017 0
M  V30 29 N 2.9562 -1.48159 -0.537278 0
M  V30 30 C 3.8662 -1.64807 -1.6696 0
M  V30 31 C 4.8822 -0.530651 -1.65711 0
M  V30 32 O 6.0582 -0.800784 -1.84796 0
M  V30 33 C 3.1232 -1.67708 -3.03438 0
M  V30 34 C 2.1842 -2.91025 -3.156 0
M  V30 35 C 1.4172 -2.93778 -4.45567 0
M  V30 36 O 1.6402 -2.05153 -5.3223 0
M  V30 37 O 0.5742 -3.85868 -4.61941 0
M  V30 38 H 4.4002 -2.6066 -1.55853 0
M  V30 39 H 1.9852 -1.31475 -0.709549 0
M  V30 40 H 3.8672 -1.7218 -3.84619 0
M  V30 41 H 2.5422 -0.750278 -3.14885 0
M  V30 42 H 1.4492 -2.92089 -2.33741 0
M  V30 43 H 2.7822 -3.83065 -3.09066 0
M  V30 44 N 4.4343 0.785586 -1.36625 0
M  V30 45 C 5.8453 1.36101 -1.27803 0
M  V30 46 C 6.1963 1.96035 0.0804875 0
M  V30 47 O 5.3213 1.92834 0.982042 0
M  V30 48 C 5.9163 2.47442 -2.31426 0
M  V30 49 C 4.4753 3.00789 -2.26281 0
M  V30 50 C 3.6223 1.73896 -2.15999 0
M  V30 51 H 6.5733 0.586928 -1.47448 0
M  V30 52 H 6.5943 3.2656 -1.95291 0
M  V30 53 H 6.1063 2.03791 -3.30289 0
M  V30 54 H 4.2073 3.48851 -1.30896 0
M  V30 55 H 4.3203 3.57343 -3.19128 0
M  V30 56 H 2.6843 1.9628 -1.62316 0
M  V30 57 H 3.4673 1.32368 -3.16755 0
M  V30 58 N 5.9124 1.20967 1.01018 0
M  V30 59 C 7.1374 1.0503 1.78839 0
M  V30 60 C 7.5624 -0.395752 1.8389 0
M  V30 61 O 6.9204 -1.28529 1.27867 0
M  V30 62 C 6.9684 1.64602 3.2084 0
M  V30 63 O 6.0724 0.887988 4.02726 0
M  V30 64 H 5.4134 0.369987 0.551367 0
M  V30 65 H 7.9434 1.60399 1.27018 0
M  V30 66 H 7.9534 1.68607 3.71532 0
M  V30 67 H 6.6284 2.69841 3.16479 0
M  V30 68 H 5.2054 0.922648 3.61305 0
M  V30 69 N 7.3905 -1.2043 1.01659 0
M  V30 70 C 8.3225 -2.22626 0.544988 0
M  V30 71 C 9.3355 -1.58479 -0.372609 0
M  V30 72 O 10.5245 -1.77679 -0.170958 0
M  V30 73 C 7.6245 -3.38141 -0.22663 0
M  V30 74 C 6.7975 -4.31877 0.692876 0
M  V30 75 C 5.8565 -5.26191 -0.0311616 0
M  V30 76 O 4.8825 -5.6612 0.591343 0
M  V30 77 N 6.0845 -5.65618 -1.30601 0
M  V30 78 H 8.8495 -2.63716 1.42388 0
M  V30 79 H 6.4105 -1.34971 0.894116 0
M  V30 80 H 8.4025 -3.98239 -0.72024 0
M  V30 81 H 6.9725 -2.95943 -1.00681 0
M  V30 82 H 6.1925 -3.69746 1.36679 0
M  V30 83 H 7.4805 -4.91426 1.31824 0
M  V30 84 H 6.8785 -5.3519 -1.83269 0
M  V30 85 H 5.4355 -6.28025 -1.74435 0
M  V30 86 N 8.8686 -0.792821 -1.36206 0
M  V30 87 C 9.8316 -0.199459 -2.2833 0
M  V30 88 C 10.8316 0.605189 -1.48977 0
M  V30 89 O 12.0216 0.425685 -1.68919 0
M  V30 90 C 9.1536 0.723523 -3.33134 0
M  V30 91 H 10.3466 -1.01181 -2.82316 0
M  V30 92 H 7.8996 -0.562485 -1.45828 0
M  V30 93 H 8.6346 1.56008 -2.84309 0
M  V30 94 H 8.4196 0.148436 -3.91819 0
M  V30 95 H 9.9096 1.13344 -4.01924 0
M  V30 96 N 10.3467 1.47872 -0.545128 0
M  V30 97 C 11.7577 1.86384 -0.108581 0
M  V30 98 C 12.1087 1.45309 1.31832 0
M  V30 99 O 11.2337 0.850641 1.9898 0
M  V30 100 C 11.8287 3.38265 -0.190274 0
M  V30 101 C 10.3877 3.75914 0.191164 0
M  V30 102 C 9.5347 2.71926 -0.543273 0
M  V30 103 H 12.4857 1.39561 -0.755537 0
M  V30 104 H 12.5067 3.75831 0.594217 0
M  V30 105 H 12.0187 3.6813 -1.2289 0
M  V30 106 H 10.1197 3.51665 1.23136 0
M  V30 107 H 10.2327 4.78836 -0.158987 0
M  V30 108 H 8.5967 2.54697 0.0122495 0
M  V30 109 H 9.3797 3.04634 -1.58282 0
M  V30 110 N 11.8248 0.280983 1.55075 0
M  V30 111 C 13.0528 -0.337293 2.04132 0
M  V30 112 C 13.4678 -1.4903 1.15912 0
M  V30 113 O 12.8248 -1.81606 0.180459 0
M  V30 114 C 12.8758 -0.812706 3.52246 0
M  V30 115 O 12.5968 0.294387 4.3711 0
M  V30 116 C 14.0978 -1.4982 4.17216 0
M  V30 117 H 11.3178 -0.0761638 0.666663 0
M  V30 118 H 13.8618 0.414787 2.00249 0
M  V30 119 H 12.0168 -1.51486 3.56554 0
M  V30 120 H 12.4308 -0.0721325 5.2445 0
M  V30 121 H 13.9048 -1.7822 5.22438 0
M  V30 122 H 14.3818 -2.43168 3.65741 0
M  V30 123 H 14.9878 -0.839742 4.16927 0
M  V30 124 N 13.3029 -1.57598 0.00835791 0
M  V30 125 C 14.7139 -1.7892 -0.53333 0
M  V30 126 C 15.0649 -0.916609 -1.73473 0
M  V30 127 O 14.1899 -0.121336 -2.1606 0
M  V30 128 C 14.7849 -3.24488 -0.974313 0
M  V30 129 C 13.3439 -3.46878 -1.46125 0
M  V30 130 C 12.4909 -2.74157 -0.416302 0
M  V30 131 H 15.4419 -1.56958 0.234495 0
M  V30 132 H 15.4629 -3.3306 -1.83988 0
M  V30 133 H 14.9749 -3.87972 -0.099718 0
M  V30 134 H 13.0759 -2.8862 -2.35646 0
M  V30 135 H 13.1889 -4.55572 -1.48295 0
M  V30 136 H 11.5529 -2.39022 -0.87981 0
M  V30 137 H 12.3359 -3.40345 0.44947 0
M  V30 138 N 14.781 0.264519 -1.55364 0
M  V30 139 C 15.744 1.31046 -1.88042 0
M  V30 140 C 16.744 1.41943 -0.755569 0
M  V30 141 O 17.934 1.40947 -1.02369 0
M  V30 142 C 15.066 2.69067 -2.09323 0
M  V30 143 H 16.259 1.03297 -2.81549 0
M  V30 144 H 13.812 0.502989 -1.47986 0
M  V30 145 H 14.547 3.01982 -1.18226 0
M  V30 146 H 14.332 2.62542 -2.91229 0
M  V30 147 H 15.822 3.44623 -2.35848 0
M  V30 148 N 16.2591 1.48442 0.529413 0
M  V30 149 C 17.6701 1.5002 1.11134 0
M  V30 150 C 18.0211 0.27031 1.94329 0
M  V30 151 O 17.1461 -0.622507 2.07253 0
M  V30 152 C 17.7411 2.71834 2.02217 0
M  V30 153 C 16.3001 2.76283 2.55627 0
M  V30 154 C 15.4471 2.43542 1.326 0
M  V30 155 H 18.3981 1.5555 0.314641 0
M  V30 156 H 18.4191 2.50384 2.8651 0
M  V30 157 H 17.9311 3.61331 1.41639 0
M  V30 158 H 16.0321 1.90995 3.19924 0
M  V30 159 H 16.1451 3.77725 2.94721 0
M  V30 160 H 14.5091 1.94709 1.64196 0
M  V30 161 H 15.2921 3.3528 0.737734 0
M  V30 162 N 17.7372 -0.778329 1.37039 0
M  V30 163 C 18.7002 -1.87301 1.32102 0
M  V30 164 C 19.7002 -1.59198 0.226405 0
M  V30 165 O 20.8902 -1.67403 0.481861 0
M  V30 166 C 18.0222 -3.24309 1.05055 0
M  V30 167 H 19.2152 -1.93093 2.29467 0
M  V30 168 H 16.7682 -0.977358 1.21973 0
M  V30 169 H 17.5032 -3.24196 0.0819373 0
M  V30 170 H 17.2882 -3.46098 1.84279 0
M  V30 171 H 18.7782 -4.04382 1.04234 0
M  V30 172 N 19.2153 -1.21501 -1.00376 0
M  V30 173 C 20.1783 -0.976927 -2.07337 0
M  V30 174 C 21.1783 0.0525322 -1.60714 0
M  V30 175 O 22.3683 -0.184869 -1.73216 0
M  V30 176 C 19.5003 -0.473423 -3.37597 0
M  V30 177 H 20.6933 -1.92587 -2.29892 0
M  V30 178 H 18.2463 -1.03217 -1.17371 0
M  V30 179 H 18.9813 0.480379 -3.20722 0
M  V30 180 H 18.7663 -1.216 -3.72768 0
M  V30 181 H 20.2563 -0.32675 -4.1632 0
M  V30 182 N 20.6934 1.19889 -1.02296 0
M  V30 183 C 21.6254 2.22334 -0.556787 0
M  V30 184 C 22.6384 1.58674 0.364199 0
M  V30 185 O 23.8274 1.77768 0.161533 0
M  V30 186 C 20.9274 3.38257 0.208694 0
M  V30 187 C 20.1004 4.31504 -0.71577 0
M  V30 188 C 19.1594 5.262 0.00325597 0
M  V30 189 O 18.1854 5.65798 -0.621357 0
M  V30 190 N 19.3874 5.66303 1.27599 0
M  V30 191 H 22.1524 2.62957 -1.43784 0
M  V30 192 H 19.7134 1.34495 -0.901261 0
M  V30 193 H 21.7054 3.98616 0.699111 0
M  V30 194 H 20.2754 2.96472 0.991102 0
M  V30 195 H 19.4954 3.69016 -1.38638 0
M  V30 196 H 20.7834 4.9072 -1.34428 0
M  V30 197 H 20.1814 5.36155 1.80429 0
M  V30 198 H 18.7384 6.28942 1.71102 0
M  V30 199 N 22.1715 0.800033 1.35784 0
M  V30 200 C 23.5825 0.439142 1.81462 0
M  V30 201 C 23.9335 -1.03813 1.66485 0
M  V30 202 O 23.0585 -1.80626 1.19177 0
M  V30 203 C 23.6535 0.790314 3.29453 0
M  V30 204 C 22.2125 0.482111 3.733 0
M  V30 205 C 21.3595 1.01938 2.57883 0
M  V30 206 H 24.3105 0.992254 1.23855 0
M  V30 207 H 24.3315 0.0853677 3.80404 0
M  V30 208 H 23.8435 1.86554 3.40322 0
M  V30 209 H 21.9445 -0.584652 3.67984 0
M  V30 210 H 22.0575 1.01015 4.6833 0
M  V30 211 H 20.4215 0.442043 2.50835 0
M  V30 212 H 21.2045 2.10059 2.71533 0
M  V30 213 N 23.6496 -1.47581 0.552962 0
M  V30 214 C 25.0656 -1.5818 0.212424 0
M  V30 215 C 25.2656 -1.55213 -1.28496 0
M  V30 216 O 24.3216 -1.45329 -2.06484 0
M  V30 217 C 25.6346 -2.88865 0.835318 0
M  V30 218 C 27.1826 -3.0244 0.806156 0
M  V30 219 C 27.6576 -4.35819 1.40804 0
M  V30 220 N 29.1486 -4.42444 1.37103 0
M  V30 221 C 29.8836 -5.44202 1.80641 0
M  V30 222 N 29.3796 -6.52795 2.32015 0
M  V30 223 N 31.1726 -5.35222 1.71738 0
M  V30 224 H 23.3236 -1.47753 1.52587 0
M  V30 225 H 25.5866 -0.702941 0.636064 0
M  V30 226 H 25.2926 -2.9676 1.88749 0
M  V30 227 H 25.1666 -3.7579 0.325848 0
M  V30 228 H 27.5536 -2.94144 -0.237317 0
M  V30 229 H 27.6346 -2.17068 1.35334 0
M  V30 230 H 27.2786 -4.44871 2.45056 0
M  V30 231 H 27.2086 -5.19916 0.836338 0
M  V30 232 H 29.6996 -3.6456 0.995202 0
M  V30 233 H 30.0126 -7.26609 2.63171 0
M  V30 234 H 28.3576 -6.53696 2.36023 0
M  V30 235 H 31.5486 -4.49284 1.31382 0
M  V30 236 H 31.7216 -6.14389 2.05987 0
M  V30 237 N 25.1277 -0.289203 -1.54924 0
M  V30 238 C 26.5387 0.205791 -1.85562 0
M  V30 239 C 26.8897 1.54351 -1.2112 0
M  V30 240 O 26.0147 2.10435 -0.504601 0
M  V30 241 C 26.6097 0.380177 -3.3666 0
M  V30 242 C 25.1687 0.819395 -3.67373 0
M  V30 243 C 24.3157 -0.079159 -2.77187 0
M  V30 244 H 27.2667 -0.510577 -1.50262 0
M  V30 245 H 27.2877 1.21659 -3.60526 0
M  V30 246 H 26.7997 -0.593589 -3.83534 0
M  V30 247 H 24.9007 1.80413 -3.26009 0
M  V30 248 H 25.0137 0.646957 -4.74712 0
M  V30 249 H 23.3777 0.439565 -2.50878 0
M  V30 250 H 24.1607 -1.04906 -3.26878 0
M  V30 251 N 26.6058 1.57591 -0.0167156 0
M  V30 252 C 27.5358 2.12496 0.967858 0
M  V30 253 C 28.5168 1.03807 1.34752 0
M  V30 254 O 29.7018 1.31577 1.42833 0
M  V30 255 C 26.8318 2.64194 2.25431 0
M  V30 256 C 25.7858 3.77559 2.01576 0
M  V30 257 C 25.1118 4.15636 3.36379 0
M  V30 258 C 26.4118 5.04151 1.36489 0
M  V30 259 H 28.1058 2.95013 0.510643 0
M  V30 260 H 25.6518 1.41915 0.244181 0
M  V30 261 H 27.6048 3.01236 2.94678 0
M  V30 262 H 26.3288 1.78821 2.73296 0
M  V30 263 H 24.9878 3.40937 1.34751 0
M  V30 264 H 24.6358 3.27263 3.81979 0
M  V30 265 H 24.3358 4.92022 3.21229 0
M  V30 266 H 25.8598 4.5525 4.06915 0
M  V30 267 H 27.2738 5.38857 1.95718 0
M  V30 268 H 25.6708 5.85453 1.31776 0
M  V30 269 H 26.7408 4.83733 0.336219 0
M  V30 270 N 28.0839 -0.256276 1.55502 0
M  V30 271 C 29.0159 -1.33981 1.85962 0
M  V30 272 C 30.0289 -1.44743 0.745212 0
M  V30 273 O 31.2179 -1.4626 1.02324 0
M  V30 274 C 28.3179 -2.7194 2.02242 0
M  V30 275 C 27.4909 -2.83562 3.33033 0
M  V30 276 C 26.5499 -4.02304 3.39172 0
M  V30 277 O 25.5759 -3.92273 4.12444 0
M  V30 278 N 26.7779 -5.15045 2.67784 0
M  V30 279 H 29.5429 -1.08191 2.7949 0
M  V30 280 H 27.1039 -0.446388 1.55624 0
M  V30 281 H 29.0959 -3.49697 2.03701 0
M  V30 282 H 27.6659 -2.90479 1.15502 0
M  V30 283 H 26.8859 -1.92555 3.43971 0
M  V30 284 H 28.1739 -2.88271 4.19258 0
M  V30 285 H 27.5719 -5.26085 2.07968 0
M  V30 286 H 26.1289 -5.90972 2.74947 0
M  V30 287 N 29.562 -1.4872 -0.521534 0
M  V30 288 C 30.787 -1.61101 -1.30618 0
M  V30 289 C 31.212 -0.274611 -1.86085 0
M  V30 290 O 30.57 0.754937 -1.64834 0
M  V30 291 C 30.618 -2.66709 -2.4269 0
M  V30 292 O 29.722 -2.24456 -3.45967 0
M  V30 293 H 29.063 -0.539921 -0.386499 0
M  V30 294 H 31.593 -1.94767 -0.626645 0
M  V30 295 H 31.603 -2.88245 -2.88754 0
M  V30 296 H 30.278 -3.63727 -2.01682 0
M  V30 297 H 28.855 -2.13168 -3.05964 0
M  V30 298 N 31.0401 0.771051 -1.3745 0
M  V30 299 C 32.4511 1.34737 -1.29239 0
M  V30 300 C 32.8021 1.96109 0.0596908 0
M  V30 301 O 31.9271 1.93865 0.961534 0
M  V30 302 C 32.5221 2.44973 -2.34037 0
M  V30 303 C 31.0811 2.98372 -2.29458 0
M  V30 304 C 30.2281 1.71595 -2.17831 0
M  V30 305 H 33.1791 0.571256 -1.48062 0
M  V30 306 H 33.2001 3.24471 -1.98744 0
M  V30 307 H 32.7121 2.00276 -3.32432 0
M  V30 308 H 30.8131 3.47443 -1.34589 0
M  V30 309 H 30.9261 3.53939 -3.229 0
M  V30 310 H 29.2901 1.94547 -1.64388 0
M  V30 311 H 30.0731 1.29001 -3.18141 0
M  V30 312 N 32.5182 1.22032 0.997298 0
M  V30 313 C 33.4812 0.987909 2.06816 0
M  V30 314 C 34.4812 -0.0440084 1.6074 0
M  V30 315 O 35.6712 0.194053 1.73116 0
M  V30 316 C 32.8032 0.49132 3.37341 0
M  V30 317 H 33.9962 1.93803 2.28868 0
M  V30 318 H 31.5492 1.03838 1.16822 0
M  V30 319 H 32.2842 -0.463364 3.20973 0
M  V30 320 H 32.0692 1.23575 3.72118 0
M  V30 321 H 33.5592 0.348824 4.16141 0
M  V30 322 N 33.9963 -1.19345 1.0293 0
M  V30 323 C 35.4073 -1.70725 0.755633 0
M  V30 324 C 35.7583 -1.82326 -0.724676 0
M  V30 325 O 34.8833 -1.49471 -1.56484 0
M  V30 326 C 35.4783 -3.10084 1.36503 0
M  V30 327 C 34.0373 -3.58723 1.13994 0
M  V30 328 C 33.1843 -2.35577 1.46283 0
M  V30 329 H 36.1353 -1.0418 1.19718 0
M  V30 330 H 36.1563 -3.72787 0.762217 0
M  V30 331 H 35.6683 -3.01609 2.44241 0
M  V30 332 H 33.7693 -3.72512 0.0807901 0
M  V30 333 H 33.8823 -4.42816 1.82894 0
M  V30 334 H 32.2463 -2.38935 0.88217 0
M  V30 335 H 33.0293 -2.29731 2.55105 0
M  V30 336 N 35.4744 -0.807222 -1.35358 0
M  V30 337 C 36.4374 -0.223665 -2.28106 0
M  V30 338 C 37.4374 0.589354 -1.4961 0
M  V30 339 O 38.6274 0.407745 -1.69361 0
M  V30 340 C 35.7594 0.688149 -3.33882 0
M  V30 341 H 36.9524 -1.04169 -2.81227 0
M  V30 342 H 34.5054 -0.577921 -1.45223 0
M  V30 343 H 35.2404 1.52984 -2.85948 0
M  V30 344 H 35.0254 0.10687 -3.91954 0
M  V30 345 H 36.5154 1.09075 -4.03104 0
M  V30 346 N 36.9525 1.47285 -0.560781 0
M  V30 347 C 38.3635 1.86258 -0.128343 0
M  V30 348 C 38.7145 1.46699 1.30284 0
M  V30 349 O 37.8395 0.871698 1.98067 0
M  V30 350 C 38.4345 3.38044 -0.22614 0
M  V30 351 C 36.9935 3.76096 0.151283 0
M  V30 352 C 36.1405 2.71335 -0.572084 0
M  V30 353 H 39.0915 1.38752 -0.770297 0
M  V30 354 H 39.1125 3.76441 0.554322 0
M  V30 355 H 38.6245 3.66806 -1.26788 0
M  V30 356 H 36.7255 3.52951 1.19399 0
M  V30 357 H 36.8385 4.78641 -0.209765 0
M  V30 358 H 35.2025 2.54696 -0.0147653 0
M  V30 359 H 35.9855 3.02938 -1.61504 0
M  V30 360 N 38.4306 0.297415 1.54768 0
M  V30 361 C 39.6586 -0.315623 2.04478 0
M  V30 362 C 40.0736 -1.47792 1.17486 0
M  V30 363 O 39.4306 -1.81404 0.19971 0
M  V30 364 C 39.4816 -0.7753 3.53088 0
M  V30 365 O 39.2026 0.340732 4.36773 0
M  V30 366 C 40.7036 -1.45386 4.18781 0
M  V30 367 H 37.9236 -0.0690887 0.667434 0
M  V30 368 H 40.4676 0.436003 1.99798 0
M  V30 369 H 38.6226 -1.47696 3.58141 0
M  V30 370 H 39.0366 -0.0165035 5.24497 0
M  V30 371 H 40.5106 -1.72669 5.24299 0
M  V30 372 H 40.9876 -2.39275 3.68299 0
M  V30 373 H 41.5936 -0.795475 4.17795 0
M  V30 374 N 39.9087 -1.5758 0.0250728 0
M  V30 375 C 41.3197 -1.79476 -0.514323 0
M  V30 376 C 41.6707 -0.934956 -1.72491 0
M  V30 377 O 40.7957 -0.144245 -2.15919 0
M  V30 378 C 41.3907 -3.25503 -0.939842 0
M  V30 379 C 39.9497 -3.48408 -1.42438 0
M  V30 380 C 39.0967 -2.74583 -0.387201 0
M  V30 381 H 42.0477 -1.567 0.25113 0
M  V30 382 H 42.0687 -3.34992 -1.80445 0
M  V30 383 H 41.5807 -3.88056 -0.0585628 0
M  V30 384 H 39.6817 -2.91103 -2.32572 0
M  V30 385 H 39.7947 -4.57119 -1.43455 0
M  V30 386 H 38.1587 -2.39942 -0.854409 0
M  V30 387 H 38.9417 -3.39849 0.485543 0
M  V30 388 N 41.3868 0.248026 -1.55636 0
M  V30 389 C 42.6148 0.993808 -1.81469 0
M  V30 390 C 43.0298 1.78991 -0.60064 0
M  V30 391 O 42.3868 1.77345 0.430682 0
M  V30 392 C 42.4378 1.93258 -3.05506 0
M  V30 393 O 42.1588 1.16869 -4.22224 0
M  V30 394 C 43.6598 2.79444 -3.4413 0
M  V30 395 H 40.8798 0.292486 -0.603898 0
M  V30 396 H 43.4238 0.271253 -2.02693 0
M  V30 397 H 41.5788 2.60943 -2.86335 0
M  V30 398 H 41.9928 1.80359 -4.92515 0
M  V30 399 H 43.4668 3.41066 -4.34026 0
M  V30 400 H 43.9438 3.50499 -2.64665 0
M  V30 401 H 44.5498 2.17214 -3.65648 0
M  V30 402 N 42.8649 1.48995 0.513639 0
M  V30 403 C 44.2759 1.5119 1.09537 0
M  V30 404 C 44.6269 0.290906 1.94031 0
M  V30 405 O 43.7519 -0.60049 2.07902 0
M  V30 406 C 44.3469 2.73964 1.99322 0
M  V30 407 C 42.9059 2.78978 2.52682 0
M  V30 408 C 42.0529 2.44934 1.30009 0
M  V30 409 H 45.0039 1.55875 0.298125 0
M  V30 410 H 45.0249 2.53409 2.83838 0
M  V30 411 H 44.5369 3.62813 1.37799 0
M  V30 412 H 42.6379 1.94378 3.1788 0
M  V30 413 H 42.7509 3.8083 2.90698 0
M  V30 414 H 41.1149 1.9644 1.62122 0
M  V30 415 H 41.8979 3.36043 0.702131 0
M  V30 416 N 44.343 -0.763751 1.37857 0
M  V30 417 C 45.306 -1.85889 1.34081 0
M  V30 418 C 46.306 -1.58949 0.243277 0
M  V30 419 O 47.496 -1.66882 0.499589 0
M  V30 420 C 44.628 -3.23176 1.08489 0
M  V30 421 H 45.821 -1.90648 2.31502 0
M  V30 422 H 43.374 -0.964367 1.23003 0
M  V30 423 H 44.109 -3.24091 0.116318 0
M  V30 424 H 43.894 -3.44124 1.8794 0
M  V30 425 H 45.384 -4.03254 1.08517 0
M  V30 426 N 45.8211 -1.22559 -0.990812 0
M  V30 427 C 47.2321 -1.04791 -1.54518 0
M  V30 428 C 47.5831 0.387998 -1.92325 0
M  V30 429 O 46.7081 1.27328 -1.74976 0
M  V30 430 C 47.3031 -1.896 -2.80779 0
M  V30 431 C 45.8621 -1.76124 -3.32652 0
M  V30 432 C 45.0091 -1.8594 -2.05722 0
M  V30 433 H 47.9601 -1.36374 -0.811662 0
M  V30 434 H 47.9811 -1.41464 -3.53225 0
M  V30 435 H 47.4931 -2.94101 -2.53231 0
M  V30 436 H 45.5941 -0.743643 -3.65104 0
M  V30 437 H 45.7071 -2.58913 -4.03114 0
M  V30 438 H 44.0711 -1.29403 -2.19379 0
M  V30 439 H 44.8541 -2.91976 -1.80568 0
M  V30 440 N 47.2992 1.18797 -1.03562 0
M  V30 441 C 48.5242 1.9314 -0.755764 0
M  V30 442 C 48.9492 1.7537 0.68022 0
M  V30 443 O 48.3072 1.06046 1.47051 0
M  V30 444 C 48.3552 3.42747 -1.12058 0
M  V30 445 O 47.4592 4.11683 -0.243124 0
M  V30 446 H 46.8002 0.602724 -0.278604 0
M  V30 447 H 49.3302 1.50678 -1.3841 0
M  V30 448 H 49.3402 3.93437 -1.08035 0
M  V30 449 H 48.0152 3.55002 -2.16672 0
M  V30 450 H 46.5922 3.71323 -0.342539 0
M  V30 451 N 48.7773 0.814389 1.34928 0
M  V30 452 C 50.1883 0.458364 1.80986 0
M  V30 453 C 50.5393 -1.02042 1.67577 0
M  V30 454 O 49.6643 -1.79352 1.21086 0
M  V30 455 C 50.2593 0.825212 3.28597 0
M  V30 456 C 48.8183 0.521677 3.72767 0
M  V30 457 C 47.9653 1.04668 2.56788 0
M  V30 458 H 50.9163 1.00533 1.22795 0
M  V30 459 H 50.9373 0.12571 3.80292 0
M  V30 460 H 50.4493 1.90154 3.38324 0
M  V30 461 H 48.5503 -0.545589 3.68584 0
M  V30 462 H 48.6633 1.05977 4.67232 0
M  V30 463 H 47.0273 0.468622 2.50352 0
M  V30 464 H 47.8103 2.12927 2.6929 0
M  V30 465 N 50.2554 -1.46986 0.568584 0
M  V30 466 C 51.2184 -2.28624 -0.162366 0
M  V30 467 C 52.2184 -1.37596 -0.832103 0
M  V30 468 O 53.4084 -1.60115 -0.68622 0
M  V30 469 C 50.5404 -3.17596 -1.23878 0
M  V30 470 H 51.7334 -2.94722 0.554899 0
M  V30 471 H 49.2864 -1.52863 0.325976 0
M  V30 472 H 50.0214 -2.56214 -1.98808 0
M  V30 473 H 49.8064 -3.846 -0.763219 0
M  V30 474 H 51.2964 -3.79078 -1.75185 0
M  V30 475 N 51.7335 -0.305618 -1.54608 0
M  V30 476 C 52.9585 0.307562 -2.05107 0
M  V30 477 C 53.3835 1.46385 -1.18123 0
M  V30 478 O 52.7415 1.8034 -0.186324 0
M  V30 479 C 52.7895 0.73704 -3.52987 0
M  V30 480 O 51.8935 1.84134 -3.6901 0
M  V30 481 H 51.2345 0.0589143 -0.661381 0
M  V30 482 H 53.7645 -0.448807 -1.99617 0
M  V30 483 H 53.7745 1.02459 -3.94925 0
M  V30 484 H 52.4495 -0.108773 -4.15758 0
M  V30 485 H 51.0265 1.55398 -3.38978 0
M  V30 486 N 53.2116 1.57565 -0.0334293 0
M  V30 487 C 54.1746 2.09393 0.932048 0
M  V30 488 C 55.1746 1.00986 1.25134 0
M  V30 489 O 56.3646 1.27129 1.19096 0
M  V30 490 C 53.4966 2.56338 2.2473 0
M  V30 491 H 54.6896 2.95984 0.483085 0
M  V30 492 H 52.2426 1.54819 0.21468 0
M  V30 493 H 52.9776 1.7309 2.74245 0
M  V30 494 H 52.7626 3.35542 2.02865 0
M  V30 495 H 54.2526 2.96646 2.93923 0
M  V30 496 N 54.6897 -0.239769 1.55765 0
M  V30 497 C 56.1007 -0.808263 1.68297 0
M  V30 498 C 56.4517 -1.85736 0.632181 0
M  V30 499 O 55.5767 -2.15277 -0.220204 0
M  V30 500 C 56.1717 -1.47284 3.05111 0
M  V30 501 C 54.7307 -1.98895 3.19559 0
M  V30 502 C 53.8777 -0.842575 2.64189 0
M  V30 503 H 56.8287 -0.0154422 1.58692 0
M  V30 504 H 56.8497 -2.34111 2.99954 0
M  V30 505 H 56.3617 -0.709053 3.81568 0
M  V30 506 H 54.4627 -2.78132 2.47938 0
M  V30 507 H 54.5757 -2.18143 4.26556 0
M  V30 508 H 52.9397 -1.24501 2.22197 0
M  V30 509 H 53.7227 -0.0917552 3.43177 0
M  V30 510 N 56.1678 -1.49265 -0.50573 0
M  V30 511 C 57.4168 -1.57761 -1.25675 0
M  V30 512 C 57.7298 -0.267371 -1.93764 0
M  V30 513 O 58.9358 -0.230827 -2.70517 0
M  V30 514 C 57.3918 -2.78332 -2.28165 0
M  V30 515 C 56.9998 -4.16096 -1.66037 0
M  V30 516 C 58.7438 -2.96155 -3.04125 0
M  V30 517 C 56.6508 -5.27895 -2.6661 0
M  V30 518 H 55.5808 -0.587391 -0.472745 0
M  V30 519 H 58.2318 -1.75644 -0.53118 0
M  V30 520 H 56.6138 -2.53934 -3.03865 0
M  V30 521 H 57.7878 -4.50612 -0.963622 0
M  V30 522 H 56.1028 -4.03591 -1.02484 0
M  V30 523 H 58.6998 -3.76849 -3.79327 0
M  V30 524 H 59.0428 -2.06534 -3.61455 0
M  V30 525 H 59.5758 -3.2057 -2.35541 0
M  V30 526 H 56.3148 -6.1956 -2.14068 0
M  V30 527 H 55.8348 -4.97839 -3.34539 0
M  V30 528 H 57.5138 -5.57031 -3.29129 0
M  V30 529 N 57.6459 0.756429 -1.3826 0
M  V30 530 C 59.0569 1.33359 -1.30661 0
M  V30 531 C 59.4079 1.96161 0.0388875 0
M  V30 532 O 58.5329 1.94874 0.940918 0
M  V30 533 C 59.1279 2.42477 -2.36622 0
M  V30 534 C 57.6869 2.95922 -2.3261 0
M  V30 535 C 56.8339 1.69275 -2.19639 0
M  V30 536 H 59.7849 0.55552 -1.4866 0
M  V30 537 H 59.8059 3.22345 -2.02174 0
M  V30 538 H 59.3179 1.96739 -3.34538 0
M  V30 539 H 57.4189 3.45996 -1.38267 0
M  V30 540 H 57.5319 3.50494 -3.26636 0
M  V30 541 H 55.8959 1.92793 -1.66442 0
M  V30 542 H 56.6789 1.25619 -3.19491 0
M  V30 543 N 59.124 1.23083 0.984299 0
M  V30 544 C 60.352 1.08714 1.76037 0
M  V30 545 C 60.767 -0.361691 1.85303 0
M  V30 546 O 60.124 -1.25034 1.32939 0
M  V30 547 C 60.175 1.70206 3.18923 0
M  V30 548 O 59.896 3.09423 3.10144 0
M  V30 549 C 61.397 1.61227 4.12941 0
M  V30 550 H 58.617 0.380664 0.552572 0
M  V30 551 H 61.161 1.62853 1.23689 0
M  V30 552 H 59.316 1.20109 3.6831 0
M  V30 553 H 59.73 3.39188 4.00065 0
M  V30 554 H 61.204 2.08962 5.10919 0
M  V30 555 H 61.681 0.570375 4.35481 0
M  V30 556 H 62.287 2.10671 3.69456 0
M  V30 557 N 60.6021 -1.18246 1.0419 0
M  V30 558 C 62.0131 -1.69914 0.773698 0
M  V30 559 C 62.3641 -1.83085 -0.705297 0
M  V30 560 O 61.4891 -1.51123 -1.5489 0
M  V30 561 C 62.0841 -3.08619 1.39784 0
M  V30 562 C 60.6431 -3.57494 1.17792 0
M  V30 563 C 59.7901 -2.34013 1.48773 0
M  V30 564 H 62.7411 -1.02904 1.20816 0
M  V30 565 H 62.7621 -3.71958 0.801714 0
M  V30 566 H 62.2741 -2.99001 2.47426 0
M  V30 567 H 60.3751 -3.72406 0.120295 0
M  V30 568 H 60.4881 -4.40852 1.87581 0
M  V30 569 H 58.8521 -2.37986 0.907463 0
M  V30 570 H 59.6351 -2.27013 2.57527 0
M  V30 571 N 62.0802 -0.821533 -1.34494 0
M  V30 572 C 63.3082 -0.421884 -2.02553 0
M  V30 573 C 63.7232 0.971745 -1.61872 0
M  V30 574 O 63.0802 1.62864 -0.823496 0
M  V30 575 C 63.1312 -0.51285 -3.57844 0
M  V30 576 O 62.8522 -1.85155 -3.97051 0
M  V30 577 C 64.3532 -0.107921 -4.43169 0
M  V30 578 H 61.5732 -0.169482 -0.649243 0
M  V30 579 H 64.1172 -1.1093 -1.71798 0
M  V30 580 H 62.2722 0.126474 -3.87193 0
M  V30 581 H 62.6862 -1.82482 -4.91732 0
M  V30 582 H 64.1602 -0.222657 -5.51551 0
M  V30 583 H 64.6372 0.948401 -4.28838 0
M  V30 584 H 65.2432 -0.720989 -4.19144 0
M  V30 585 N 63.5583 1.46682 -0.576371 0
M  V30 586 C 64.9693 1.86112 -0.148091 0
M  V30 587 C 65.3203 1.48073 1.2872 0
M  V30 588 O 64.4453 0.892656 1.97131 0
M  V30 589 C 65.0403 3.37786 -0.261982 0
M  V30 590 C 63.5993 3.76235 0.111384 0
M  V30 591 C 62.7463 2.70713 -0.60083 0
M  V30 592 H 65.6973 1.37927 -0.78497 0
M  V30 593 H 65.7183 3.77007 0.514364 0
M  V30 594 H 65.2303 3.6544 -1.30671 0
M  V30 595 H 63.3313 3.54198 1.15649 0
M  V30 596 H 63.4443 4.78391 -0.26052 0
M  V30 597 H 61.8083 2.54666 -0.0417783 0
M  V30 598 H 62.5913 3.01208 -1.64708 0
M  V30 599 N 65.0364 0.313813 1.54444 0
M  V30 600 C 65.9994 -0.54379 2.22656 0
M  V30 601 C 66.9994 -1.05124 1.21678 0
M  V30 602 O 68.1894 -0.945225 1.46325 0
M  V30 603 C 65.3214 -1.75427 2.92298 0
M  V30 604 H 66.5144 0.0523599 2.99854 0
M  V30 605 H 64.0674 0.0647834 1.56166 0
M  V30 606 H 64.8024 -2.38991 2.19211 0
M  V30 607 H 64.5874 -1.39791 3.66334 0
M  V30 608 H 66.0774 -2.36325 3.44297 0
M  V30 609 N 66.5145 -1.57545 0.0417849 0
M  V30 610 C 67.9255 -1.80011 -0.495259 0
M  V30 611 C 68.2765 -0.953199 -1.71489 0
M  V30 612 O 67.4015 -0.167138 -2.15754 0
M  V30 613 C 67.9965 -3.26482 -0.905265 0
M  V30 614 C 66.5555 -3.499 -1.38734 0
M  V30 615 C 65.7025 -2.74979 -0.358056 0
M  V30 616 H 68.6535 -1.56425 0.267736 0
M  V30 617 H 68.6745 -3.36887 -1.76882 0
M  V30 618 H 68.1865 -3.88096 -0.017401 0
M  V30 619 H 66.2875 -2.93553 -2.29471 0
M  V30 620 H 66.4005 -4.58615 -1.38598 0
M  V30 621 H 64.7645 -2.40834 -0.828912 0
M  V30 622 H 65.5475 -3.39315 0.521561 0
M  V30 623 N 67.9926 0.231505 -1.5589 0
M  V30 624 C 68.9556 1.27028 -1.90779 0
M  V30 625 C 69.9556 1.40308 -0.785507 0
M  V30 626 O 71.1456 1.38744 -1.05336 0
M  V30 627 C 68.2776 2.64566 -2.14983 0
M  V30 628 H 69.4706 0.973017 -2.83677 0
M  V30 629 H 67.0236 0.471486 -1.49019 0
M  V30 630 H 67.7586 2.99406 -1.24604 0
M  V30 631 H 67.5436 2.56305 -2.96732 0
M  V30 632 H 69.0336 3.39543 -2.43105 0
M  V30 633 N 69.4707 1.49531 0.497807 0
M  V30 634 C 70.8817 1.52344 1.07927 0
M  V30 635 C 71.2327 0.311469 1.93712 0
M  V30 636 O 70.3577 -0.578405 2.08527 0
M  V30 637 C 70.9527 2.76062 1.96405 0
M  V30 638 C 69.5117 2.81643 2.49709 0
M  V30 639 C 68.6587 2.46299 1.27404 0
M  V30 640 H 71.6097 1.56182 0.281576 0
M  V30 641 H 71.6307 2.56405 2.81135 0
M  V30 642 H 71.1427 3.64254 1.33943 0
M  V30 643 H 69.2437 1.97739 3.15801 0
M  V30 644 H 69.3567 3.83891 2.86643 0
M  V30 645 H 67.7207 1.98148 1.60029 0
M  V30 646 H 68.5037 3.36769 0.66645 0
M  V30 647 N 70.9488 -0.749086 1.3866 0
M  V30 648 C 71.9118 -1.84457 1.36045 0
M  V30 649 C 72.9118 -1.58682 0.260122 0
M  V30 650 O 74.1018 -1.66343 0.517261 0
M  V30 651 C 71.2338 -3.22008 1.11911 0
M  V30 652 H 72.4268 -1.88182 2.33512 0
M  V30 653 H 69.9798 -0.951266 1.24019 0
M  V30 654 H 70.7148 -3.2395 0.150686 0
M  V30 655 H 70.4998 -3.42111 1.91579 0
M  V30 656 H 71.9898 -4.0208 1.12788 0
M  V30 657 N 72.4269 -1.23603 -0.977757 0
M  V30 658 C 73.8379 -1.06424 -1.53398 0
M  V30 659 C 74.1889 0.367578 -1.92726 0
M  V30 660 O 73.3139 1.25465 -1.76316 0
M  V30 661 C 73.9089 -1.92568 -2.78753 0
M  V30 662 C 72.4679 -1.79642 -3.30765 0
M  V30 663 C 71.6149 -1.88111 -2.03739 0
M  V30 664 H 74.5659 -1.37227 -0.797152 0
M  V30 665 H 74.5869 -1.45203 -3.51705 0
M  V30 666 H 74.0989 -2.96771 -2.50098 0
M  V30 667 H 72.1999 -0.782325 -3.64294 0
M  V30 668 H 72.3129 -2.63174 -4.00345 0
M  V30 669 H 70.6769 -1.31723 -2.17994 0
M  V30 670 H 71.4599 -2.93875 -1.77461 0
M  V30 671 N 73.905 1.17692 -1.04816 0
M  V30 672 C 74.868 2.19787 -0.650117 0
M  V30 673 C 75.868 1.58044 0.296427 0
M  V30 674 O 77.058 1.74012 0.0808097 0
M  V30 675 C 74.19 3.40869 0.0456987 0
M  V30 676 H 75.383 2.56516 -1.5537 0
M  V30 677 H 72.936 1.31708 -0.841594 0
M  V30 678 H 73.671 3.09681 0.962726 0
M  V30 679 H 73.456 3.86928 -0.634727 0
M  V30 680 H 74.946 4.16445 0.310432 0
M  V30 681 N 75.3831 0.828654 1.34056 0
M  V30 682 C 76.3461 0.259927 2.27721 0
M  V30 683 C 77.3461 -0.565478 1.50529 0
M  V30 684 O 78.5361 -0.38075 1.69988 0
M  V30 685 C 75.6681 -0.634944 3.34935 0
M  V30 686 H 76.8611 1.0863 2.79534 0
M  V30 687 H 74.4141 0.600951 1.44285 0
M  V30 688 H 75.1491 -1.48416 2.88346 0
M  V30 689 H 74.9341 -0.0444999 3.92075 0
M  V30 690 H 76.4241 -1.02648 4.04788 0
M  V30 691 N 76.8612 -1.46375 0.584142 0
M  V30 692 C 77.8242 -2.28784 -0.138108 0
M  V30 693 C 78.8242 -1.38471 -0.817462 0
M  V30 694 O 80.0142 -1.60833 -0.669199 0
M  V30 695 C 77.1462 -3.18892 -1.20503 0
M  V30 696 H 78.3392 -2.94117 0.586127 0
M  V30 697 H 75.8922 -1.52509 0.342171 0
M  V30 698 H 76.6272 -2.58309 -1.96079 0
M  V30 699 H 76.4122 -3.85388 -0.722384 0
M  V30 700 H 77.9022 -3.80914 -1.71155 0
M  V30 701 N 78.3393 -0.321999 -1.54275 0
M  V30 702 C 79.7503 0.166384 -1.85957 0
M  V30 703 C 80.1013 1.51747 -1.24367 0
M  V30 704 O 79.2263 2.09317 -0.549124 0
M  V30 705 C 79.8213 0.308681 -3.37391 0
M  V30 706 C 78.3803 0.741286 -3.69028 0
M  V30 707 C 77.5273 -0.137937 -2.76957 0
M  V30 708 H 80.4783 -0.542335 -1.49146 0
M  V30 709 H 80.4993 1.13984 -3.63026 0
M  V30 710 H 80.0113 -0.674809 -3.82188 0
M  V30 711 H 78.1123 1.73458 -3.29762 0
M  V30 712 H 78.2253 0.546118 -4.75977 0
M  V30 713 H 76.5893 0.386251 -2.51754 0
M  V30 714 H 77.3723 -1.11816 -3.2458 0
M  V30 715 N 79.8174 1.5752 -0.0501392 0
M  V30 716 C 80.7804 2.1037 0.909786 0
M  V30 717 C 81.7804 1.02308 1.24056 0
M  V30 718 O 82.9704 1.28385 1.17741 0
M  V30 719 C 80.1024 2.58708 2.21998 0
M  V30 720 H 81.2954 2.96479 0.451665 0
M  V30 721 H 78.8484 1.55038 0.198248 0
M  V30 722 H 79.5834 1.75989 2.72394 0
M  V30 723 H 79.3684 3.37675 1.99295 0
M  V30 724 H 80.8584 2.99747 2.9076 0
M  V30 725 N 81.2955 -0.223234 1.56011 0
M  V30 726 C 82.5435 -0.946003 1.78592 0
M  V30 727 C 82.8645 -1.84936 0.618349 0
M  V30 728 O 82.1345 -1.92473 -0.364833 0
M  V30 729 H 80.7145 -0.352298 0.658707 0
M  V30 730 H 83.3765 -0.235494 1.93472 0
M  V30 731 H 82.4725 -1.55381 2.70672 0
M  V30 732 N 82.7736 -1.49793 -0.48987 0
M  V30 733 C 83.9986 -1.63836 -1.27172 0
M  V30 734 C 84.4236 -0.31402 -1.8546 0
M  V30 735 O 83.7816 0.719803 -1.66399 0
M  V30 736 C 83.8296 -2.71797 -2.36978 0
M  V30 737 O 82.9336 -2.31744 -3.41128 0
M  V30 738 H 82.2746 -0.547997 -0.37496 0
M  V30 739 H 84.8046 -1.96053 -0.585191 0
M  V30 740 H 84.8146 -2.94305 -2.82575 0
M  V30 741 H 83.4896 -3.67923 -1.93921 0
M  V30 742 H 82.0666 -2.1961 -3.01373 0
M  V30 743 N 84.2517 0.741722 -1.39055 0
M  V30 744 C 85.4797 1.53098 -1.39171 0
M  V30 745 C 85.8947 1.88794 0.0155099 0
M  V30 746 O 85.2517 1.53626 0.985159 0
M  V30 747 C 85.3027 2.82274 -2.2584 0
M  V30 748 O 85.0237 2.48097 -3.61081 0
M  V30 749 C 86.5247 3.76343 -2.34266 0
M  V30 750 H 83.7447 0.473335 -0.4756 0
M  V30 751 H 86.2887 0.917045 -1.82785 0
M  V30 752 H 84.4437 3.40015 -1.85656 0
M  V30 753 H 84.8577 3.31029 -4.06842 0
M  V30 754 H 86.3317 4.63898 -2.9917 0
M  V30 755 H 86.8087 4.17619 -1.35982 0
M  V30 756 H 87.4147 3.24523 -2.74891 0
M  V30 757 N 85.7298 1.2412 0.971189 0
M  V30 758 C 86.9778 1.07668 1.71032 0
M  V30 759 C 87.2988 -0.385797 1.91146 0
M  V30 760 O 86.5688 -1.27569 1.4867 0
M  V30 761 H 85.1488 0.395429 0.633755 0
M  V30 762 H 87.8108 1.55984 1.16855 0
M  V30 763 H 86.9068 1.57195 2.69622 0
M  V30 764 N 87.2079 -1.17134 1.05439 0
M  V30 765 C 88.4359 -1.91372 0.786414 0
M  V30 766 C 88.8509 -1.76955 -0.658202 0
M  V30 767 O 88.2079 -1.10838 -1.44987 0
M  V30 768 C 88.2589 -3.42356 1.1608 0
M  V30 769 O 87.9799 -3.56332 2.54871 0
M  V30 770 C 89.4809 -4.33663 0.919322 0
M  V30 771 H 86.7009 -0.607118 0.285743 0
M  V30 772 H 89.2449 -1.48525 1.40572 0
M  V30 773 H 87.3999 -3.82939 0.586191 0
M  V30 774 H 87.8139 -4.49896 2.69618 0
M  V30 775 H 89.2879 -5.38099 1.231 0
M  V30 776 H 89.7649 -4.38959 -0.145359 0
M  V30 777 H 90.3709 -3.98796 1.47789 0
M  V30 778 N 88.686 -0.835752 -1.33615 0
M  V30 779 C 89.934 -0.429109 -1.97492 0
M  V30 780 C 90.255 1.01433 -1.66543 0
M  V30 781 O 89.525 1.70611 -0.962744 0
M  V30 782 H 88.105 -0.155686 -0.730596 0
M  V30 783 H 90.767 -1.06802 -1.63031 0
M  V30 784 H 89.863 -0.55861 -3.0706 0
M  V30 785 N 90.1641 1.46063 -0.591896 0
M  V30 786 C 91.4121 2.01938 -0.0808391 0
M  V30 787 C 91.7331 1.46475 1.28725 0
M  V30 788 O 91.0031 0.652944 1.84698 0
M  V30 789 H 89.5831 0.746516 -0.0268938 0
M  V30 790 H 92.2451 1.79055 -0.769752 0
M  V30 791 H 91.3411 3.12094 -0.0187578 0
M  V30 792 N 91.6422 0.330177 1.54103 0
M  V30 793 C 93.0532 -0.15652 1.86043 0
M  V30 794 C 93.4042 -1.51086 1.2517 0
M  V30 795 O 92.5292 -2.09023 0.560217 0
M  V30 796 C 93.1242 -0.290784 3.3755 0
M  V30 797 C 91.6832 -0.721705 3.69416 0
M  V30 798 C 90.8302 0.152622 2.7688 0
M  V30 799 H 93.7812 0.550237 1.48856 0
M  V30 800 H 93.8022 -1.12058 3.63625 0
M  V30 801 H 93.3142 0.695068 3.81825 0
M  V30 802 H 91.4152 -1.71706 3.30678 0
M  V30 803 H 91.5282 -0.520869 4.7626 0
M  V30 804 H 89.8922 -0.372894 2.51956 0
M  V30 805 H 90.6752 1.13536 3.23982 0
M  V30 806 N 93.1203 -1.57491 0.0584922 0
M  V30 807 C 94.3683 -1.92597 -0.612436 0
M  V30 808 C 94.6893 -0.938162 -1.70949 0
M  V30 809 O 93.9593 0.0158301 -1.95894 0
M  V30 810 H 92.5393 -0.710964 -0.229214 0
M  V30 811 H 95.2013 -1.94571 0.113218 0
M  V30 812 H 94.2973 -2.94038 -1.04633 0
M  V30 813 N 94.5984 0.214957 -1.56127 0
M  V30 814 C 95.8444 0.939762 -1.79712 0
M  V30 815 C 96.1774 1.83723 -0.629247 0
M  V30 816 O 95.4524 1.90925 0.371197 0
M  V30 817 C 95.7354 1.77306 -3.13424 0
M  V30 818 C 95.5884 0.90164 -4.40671 0
M  V30 819 C 96.9074 2.74956 -3.43638 0
M  V30 820 H 94.0264 0.340214 -0.653776 0
M  V30 821 H 96.6684 0.20824 -1.88855 0
M  V30 822 H 94.8184 2.39673 -3.0576 0
M  V30 823 H 96.4904 0.294206 -4.60361 0
M  V30 824 H 94.7334 0.207368 -4.33304 0
M  V30 825 H 95.4044 1.51923 -5.30682 0
M  V30 826 H 97.8804 2.22724 -3.51473 0
M  V30 827 H 96.7564 3.30358 -4.38355 0
M  V30 828 H 97.0174 3.53023 -2.66134 0
M  V30 829 N 96.0765 1.50051 0.48192 0
M  V30 830 C 97.3245 1.60181 1.23234 0
M  V30 831 C 97.6455 0.299176 1.92691 0
M  V30 832 O 96.9155 -0.682708 1.83619 0
M  V30 833 H 95.4955 0.590232 0.457859 0
M  V30 834 H 98.1575 1.86775 0.556881 0
M  V30 835 H 97.2535 2.40753 1.98607 0
M  V30 836 N 97.5546 -0.734337 1.39446 0
M  V30 837 C 98.7796 -1.52866 1.40167 0
M  V30 838 C 99.2046 -1.881 -0.00171513 0
M  V30 839 O 98.5626 -1.51957 -0.988879 0
M  V30 840 C 98.6106 -2.79235 2.28167 0
M  V30 841 O 97.7146 -3.75185 1.71201 0
M  V30 842 H 97.0556 -0.461618 0.477289 0
M  V30 843 H 99.5856 -0.905949 1.8345 0
M  V30 844 H 99.5956 -3.27963 2.42702 0
M  V30 845 H 98.2706 -2.52923 3.30156 0
M  V30 846 H 96.8476 -3.33958 1.65912 0
M  V30 847 N 99.0327 -1.24633 -0.964593 0
M  V30 848 C 100.281 -1.08573 -1.70459 0
M  V30 849 C 100.602 0.375655 -1.91347 0
M  V30 850 O 99.8717 1.26779 -1.49345 0
M  V30 851 H 98.4517 -0.398784 -0.631649 0
M  V30 852 H 101.114 -1.56601 -1.16026 0
M  V30 853 H 100.21 -1.58623 -2.68785 0
M  V30 854 N 100.511 1.16574 -1.06058 0
M  V30 855 C 101.759 1.86677 -0.77434 0
M  V30 856 C 102.08 1.81959 0.701147 0
M  V30 857 O 101.35 1.2515 1.50713 0
M  V30 858 H 99.9298 0.691134 -0.283449 0
M  V30 859 H 102.592 1.41378 -1.34158 0
M  V30 860 H 101.688 2.92181 -1.09711 0
M  V30 861 N 101.989 0.842826 1.3317 0
M  V30 862 C 102.952 0.284065 2.27433 0
M  V30 863 C 103.952 -0.54948 1.5112 0
M  V30 864 O 105.142 -0.362699 1.70382 0
M  V30 865 C 102.274 -0.599384 3.35589 0
M  V30 866 H 103.467 1.11589 2.78366 0
M  V30 867 H 101.02 0.616221 1.4364 0
M  V30 868 H 101.755 -1.45349 2.89904 0
M  V30 869 H 101.54 -0.00291266 3.921 0
M  V30 870 H 103.03 -0.983488 4.05854 0
M  V30 871 N 103.467 -1.45747 0.599634 0
M  V30 872 C 104.715 -2.01893 0.0915472 0
M  V30 873 C 105.036 -1.47155 -1.27946 0
M  V30 874 O 104.306 -0.66273 -1.84349 0
M  V30 875 H 102.886 -0.746363 0.0308524 0
M  V30 876 H 105.548 -1.78645 0.779237 0
M  V30 877 H 104.644 -3.1208 0.0353086 0
M  V30 878 N 104.945 -0.338344 -1.53925 0
M  V30 879 C 106.17 0.263987 -2.05713 0
M  V30 880 C 106.595 1.43847 -1.21201 0
M  V30 881 O 105.953 1.79904 -0.224535 0
M  V30 882 C 106.001 0.662 -3.54471 0
M  V30 883 O 105.105 1.76265 -3.72833 0
M  V30 884 H 104.446 0.0448722 -0.662482 0
M  V30 885 H 106.976 -0.491048 -1.9862 0
M  V30 886 H 106.986 0.940594 -3.9701 0
M  V30 887 H 105.661 -0.196937 -4.15433 0
M  V30 888 H 104.238 1.48173 -3.42198 0
M  V30 889 N 106.423 1.57458 -0.0668435 0
M  V30 890 C 107.671 1.92919 0.602214 0
M  V30 891 C 107.992 0.947215 1.70449 0
M  V30 892 O 107.262 -0.00544117 1.95899 0
M  V30 893 H 105.842 0.71217 0.22544 0
M  V30 894 H 108.504 1.94508 -0.123535 0
M  V30 895 H 107.6 2.94589 1.03073 0
M  V30 896 N 107.901 -0.206675 1.56239 0
M  V30 897 C 109.149 -0.927007 1.79586 0
M  V30 898 C 109.47 -1.8427 0.637929 0
M  V30 899 O 108.74 -1.92849 -0.344398 0
M  V30 900 H 107.32 -0.345292 0.662407 0
M  V30 901 H 109.982 -0.21496 1.93711 0
M  V30 902 H 109.078 -1.52501 2.72305 0
M  V30 903 N 109.379 -1.50304 -0.473955 0
M  V30 904 C 110.656 -1.51667 -1.23518 0
M  V30 905 C 111.036 -0.259701 -2.09496 0
M  V30 906 O 110.384 0.756986 -2.15597 0
M  V30 907 C 110.594 -2.81082 -2.06868 0
M  V30 908 C 111.942 -3.31631 -2.65153 0
M  V30 909 O 112.966 -2.82384 -2.17113 0
M  V30 910 O 111.825 -4.17471 -3.52675 0
M  V30 911 H 108.919 -0.60822 -0.560355 0
M  V30 912 H 111.465 -1.62592 -0.486011 0
M  V30 913 H 110.237 -3.64041 -1.4349 0
M  V30 914 H 109.86 -2.73146 -2.88924 0
M  V30 915 N 110.857 0.726932 -1.39834 0
M  V30 916 C 112.268 1.30558 -1.3346 0
M  V30 917 C 112.619 1.962 -0.00273003 0
M  V30 918 O 111.744 1.96826 0.899371 0
M  V30 919 C 112.339 2.37404 -2.41713 0
M  V30 920 C 110.898 2.90921 -2.38835 0
M  V30 921 C 110.045 1.64578 -2.2318 0
M  V30 922 H 112.996 0.523862 -1.49804 0
M  V30 923 H 113.017 3.17984 -2.08966 0
M  V30 924 H 112.529 1.89599 -3.38635 0
M  V30 925 H 110.63 3.42985 -1.45575 0
M  V30 926 H 110.743 3.43487 -3.33997 0
M  V30 927 H 109.107 1.89219 -1.70494 0
M  V30 928 H 109.89 1.18814 -3.22084 0
M  V30 929 N 112.336 1.25143 0.95797 0
M  V30 930 C 113.299 1.05321 2.03569 0
M  V30 931 C 114.299 0.007152 1.60798 0
M  V30 932 O 115.489 0.24903 1.72411 0
M  V30 933 C 112.621 0.598394 3.35607 0
M  V30 934 H 113.814 2.00986 2.22586 0
M  V30 935 H 111.367 1.07502 1.13459 0
M  V30 936 H 112.102 -0.361014 3.22284 0
M  V30 937 H 111.887 1.35351 3.67998 0
M  V30 938 H 113.377 0.48104 4.1482 0
M  V30 939 N 113.814 -1.1601 1.06675 0
M  V30 940 C 115.23 -1.38622 0.790948 0
M  V30 941 C 115.43 -1.92109 -0.607965 0
M  V30 942 O 114.486 -2.12239 -1.36787 0
M  V30 943 C 115.799 -2.36347 1.85905 0
M  V30 944 C 117.347 -2.50023 1.88301 0
M  V30 945 C 117.822 -3.51033 2.94176 0
M  V30 946 N 119.313 -3.58563 2.93235 0
M  V30 947 C 120.048 -4.36521 3.71803 0
M  V30 948 N 119.544 -5.17869 4.602 0
M  V30 949 N 121.337 -4.31541 3.60178 0
M  V30 950 H 113.488 -0.796294 1.96908 0
M  V30 951 H 115.751 -0.412597 0.853503 0
M  V30 952 H 115.457 -2.04147 2.86386 0
M  V30 953 H 115.331 -3.36042 1.71334 0
M  V30 954 H 117.718 -2.81524 0.884769 0
M  V30 955 H 117.799 -1.5035 2.06951 0
M  V30 956 H 117.443 -3.20268 3.94196 0
M  V30 957 H 117.373 -4.50445 2.72776 0
M  V30 958 H 119.864 -3.00496 2.29152 0
M  V30 959 H 120.177 -5.74578 5.16797 0
M  V30 960 H 118.522 -5.17199 4.64253 0
M  V30 961 H 121.713 -3.67051 2.90502 0
M  V30 962 H 121.886 -4.9205 4.21653 0
M  V30 963 N 115.292 -0.849877 -1.32721 0
M  V30 964 C 116.703 -0.506188 -1.79707 0
M  V30 965 C 117.054 0.975627 -1.70223 0
M  V30 966 O 116.179 1.76078 -1.25799 0
M  V30 967 C 116.774 -0.912044 -3.26293 0
M  V30 968 C 115.333 -0.620326 -3.71253 0
M  V30 969 C 114.48 -1.11439 -2.53922 0
M  V30 970 H 117.431 -1.03754 -1.20087 0
M  V30 971 H 117.452 -0.226493 -3.79825 0
M  V30 972 H 116.964 -1.99057 -3.33164 0
M  V30 973 H 115.065 0.447674 -3.69901 0
M  V30 974 H 115.178 -1.18327 -4.64258 0
M  V30 975 H 113.542 -0.534834 -2.49021 0
M  V30 976 H 114.325 -2.19992 -2.6355 0
M  V30 977 N 116.77 1.45427 -0.607355 0
M  V30 978 C 118.018 2.01841 -0.102253 0
M  V30 979 C 118.339 1.47832 1.27164 0
M  V30 980 O 117.609 0.672497 1.83995 0
M  V30 981 H 116.189 0.746188 -0.0348101 0
M  V30 982 H 118.851 1.78229 -0.7887 0
M  V30 983 H 117.947 3.12057 -0.0518585 0
M  V30 984 N 118.248 0.346503 1.53744 0
M  V30 985 C 119.178 -0.501193 2.28058 0
M  V30 986 C 120.159 -1.10014 1.29734 0
M  V30 987 O 121.344 -1.12097 1.58581 0
M  V30 988 C 118.474 -1.65078 3.05559 0
M  V30 989 C 117.428 -1.18003 4.11411 0
M  V30 990 C 116.754 -2.41837 4.76884 0
M  V30 991 C 118.054 -0.278394 5.21558 0
M  V30 992 H 119.748 0.11875 2.99164 0
M  V30 993 H 117.294 0.0585531 1.43881 0
M  V30 994 H 119.247 -2.25028 3.56287 0
M  V30 995 H 117.971 -2.29767 2.32109 0
M  V30 996 H 116.63 -0.603331 3.61601 0
M  V30 997 H 116.278 -3.0494 4.00026 0
M  V30 998 H 115.978 -2.1102 5.48402 0
M  V30 999 H 117.502 -3.02508 5.30397 0
M  V30 1000 H 118.916 -0.784823 5.67903 0
M  V30 1001 H 117.313 -0.0619707 6.00068 0
M  V30 1002 H 118.383 0.684677 4.80042 0
M  V30 1003 N 119.726 -1.57421 0.075193 0
M  V30 1004 C 120.951 -1.98364 -0.605515 0
M  V30 1005 C 121.376 -0.953383 -1.62149 0
M  V30 1006 O 120.734 0.0806053 -1.81121 0
M  V30 1007 C 120.782 -3.38332 -1.24756 0
M  V30 1008 O 119.886 -3.37959 -2.36342 0
M  V30 1009 H 119.227 -0.645553 -0.155428 0
M  V30 1010 H 121.757 -2.04044 0.150714 0
M  V30 1011 H 121.767 -3.75591 -1.5936 0
M  V30 1012 H 120.442 -4.12846 -0.503129 0
M  V30 1013 H 119.019 -3.12474 -2.03506 0
M  V30 1014 N 121.204 0.198386 -1.56346 0
M  V30 1015 C 122.136 1.26987 -1.90806 0
M  V30 1016 C 123.149 1.41877 -0.798419 0
M  V30 1017 O 124.338 1.42362 -1.07682 0
M  V30 1018 C 121.438 2.64246 -2.12196 0
M  V30 1019 C 120.611 2.71007 -3.43328 0
M  V30 1020 C 119.67 3.89439 -3.5387 0
M  V30 1021 O 118.696 3.76695 -4.26719 0
M  V30 1022 N 119.898 5.04752 -2.86715 0
M  V30 1023 H 122.663 0.977433 -2.83313 0
M  V30 1024 H 120.224 0.388322 -1.57174 0
M  V30 1025 H 122.216 3.41896 -2.1654 0
M  V30 1026 H 120.786 2.85992 -1.26204 0
M  V30 1027 H 120.006 1.79657 -3.50881 0
M  V30 1028 H 121.294 2.72512 -4.29668 0
M  V30 1029 H 120.692 5.18004 -2.2735 0
M  V30 1030 H 119.249 5.8036 -2.96691 0
M  V30 1031 N 122.682 1.50554 0.465978 0
M  V30 1032 C 123.614 1.65949 1.58093 0
M  V30 1033 C 124.627 0.540827 1.53554 0
M  V30 1034 O 125.816 0.814187 1.5885 0
M  V30 1035 C 122.916 1.63261 2.96983 0
M  V30 1036 C 122.089 2.91245 3.26336 0
M  V30 1037 C 121.148 2.8113 4.44806 0
M  V30 1038 O 120.174 3.55086 4.44862 0
M  V30 1039 N 121.376 1.95032 5.46756 0
M  V30 1040 H 124.141 2.62122 1.45301 0
M  V30 1041 H 121.702 1.48082 0.65448 0
M  V30 1042 H 123.694 1.54101 3.74212 0
M  V30 1043 H 122.264 0.748032 3.03518 0
M  V30 1044 H 121.484 3.14493 2.37672 0
M  V30 1045 H 122.772 3.76022 3.42761 0
M  V30 1046 H 122.17 1.3427 5.49534 0
M  V30 1047 H 120.727 1.91772 6.2295 0
M  V30 1048 N 124.16 -0.719506 1.40217 0
M  V30 1049 C 125.092 -1.84428 1.36084 0
M  V30 1050 C 126.105 -1.60597 0.266913 0
M  V30 1051 O 127.294 -1.70544 0.526983 0
M  V30 1052 C 124.394 -3.20757 1.094 0
M  V30 1053 C 123.567 -3.71817 2.30372 0
M  V30 1054 C 122.626 -4.86748 1.99907 0
M  V30 1055 O 121.652 -4.99603 2.72737 0
M  V30 1056 N 122.854 -5.7226 0.974635 0
M  V30 1057 H 125.619 -1.88473 2.33019 0
M  V30 1058 H 123.18 -0.900885 1.3452 0
M  V30 1059 H 125.172 -3.95235 0.870116 0
M  V30 1060 H 123.742 -3.11884 0.211452 0
M  V30 1061 H 122.962 -2.88514 2.68614 0
M  V30 1062 H 124.25 -4.02666 3.11026 0
M  V30 1063 H 123.648 -5.6448 0.371368 0
M  V30 1064 H 122.205 -6.46739 0.810656 0
M  V30 1065 N 125.638 -1.25649 -0.95132 0
M  V30 1066 C 127.054 -1.02542 -1.223 0
M  V30 1067 C 127.254 0.255715 -1.99871 0
M  V30 1068 O 126.31 0.967558 -2.33226 0
M  V30 1069 C 127.623 -2.25065 -1.99415 0
M  V30 1070 C 129.171 -2.29861 -2.12446 0
M  V30 1071 C 129.646 -3.52048 -2.92961 0
M  V30 1072 N 131.137 -3.52465 -3.00538 0
M  V30 1073 C 131.872 -4.43672 -3.63239 0
M  V30 1074 N 131.368 -5.45157 -4.27523 0
M  V30 1075 N 133.161 -4.31346 -3.60412 0
M  V30 1076 H 125.312 -2.07951 -0.432471 0
M  V30 1077 H 127.575 -0.91339 -0.253816 0
M  V30 1078 H 127.281 -3.18194 -1.49817 0
M  V30 1079 H 127.155 -2.28502 -3.00111 0
M  V30 1080 H 129.542 -1.37252 -2.61239 0
M  V30 1081 H 129.623 -2.3044 -1.11044 0
M  V30 1082 H 129.267 -4.44981 -2.44856 0
M  V30 1083 H 129.197 -3.48715 -3.94596 0
M  V30 1084 H 131.688 -2.79056 -2.54826 0
M  V30 1085 H 132.001 -6.10958 -4.73234 0
M  V30 1086 H 130.346 -5.49025 -4.26141 0
M  V30 1087 H 133.537 -3.51288 -3.09377 0
M  V30 1088 H 133.71 -5.02624 -4.0899 0
M  V30 1089 N 127.117 1.15442 -1.07289 0
M  V30 1090 C 128.08 2.18358 -0.696591 0
M  V30 1091 C 129.08 1.58637 0.262837 0
M  V30 1092 O 130.27 1.74145 0.0438809 0
M  V30 1093 C 127.402 3.4089 -0.0266151 0
M  V30 1094 H 128.595 2.53162 -1.60776 0
M  V30 1095 H 126.148 1.29893 -0.869342 0
M  V30 1096 H 126.883 3.11653 0.896822 0
M  V30 1097 H 126.668 3.85495 -0.716657 0
M  V30 1098 H 128.158 4.17009 0.222028 0
M  V30 1099 N 128.595 0.856903 1.32268 0
M  V30 1100 C 129.82 0.474569 2.01897 0
M  V30 1101 C 130.245 -0.921766 1.63967 0
M  V30 1102 O 129.603 -1.60589 0.84148 0
M  V30 1103 C 129.651 0.623799 3.55164 0
M  V30 1104 O 128.755 -0.342459 4.10976 0
M  V30 1105 H 128.096 0.190422 0.63611 0
M  V30 1106 H 130.626 1.15672 1.68764 0
M  V30 1107 H 130.636 0.512169 4.04773 0
M  V30 1108 H 129.311 1.64202 3.82113 0
M  V30 1109 H 127.888 -0.18688 3.72431 0
M  V30 1110 N 130.073 -1.45103 0.615059 0
M  V30 1111 C 131.005 -2.28786 -0.13762 0
M  V30 1112 C 132.018 -1.40376 -0.824525 0
M  V30 1113 O 133.207 -1.64681 -0.688662 0
M  V30 1114 C 130.307 -3.16322 -1.21628 0
M  V30 1115 C 129.48 -4.33054 -0.615039 0
M  V30 1116 C 128.539 -5.01743 -1.58556 0
M  V30 1117 O 127.565 -5.58293 -1.10895 0
M  V30 1118 N 128.767 -5.01714 -2.91998 0
M  V30 1119 H 131.532 -2.94025 0.580483 0
M  V30 1120 H 129.093 -1.55373 0.45507 0
M  V30 1121 H 131.085 -3.59139 -1.86552 0
M  V30 1122 H 129.655 -2.52943 -1.83681 0
M  V30 1123 H 128.875 -3.93627 0.21245 0
M  V30 1124 H 130.163 -5.08431 -0.193704 0
M  V30 1125 H 129.561 -4.57075 -3.33316 0
M  V30 1126 H 128.118 -5.48371 -3.52325 0
M  V30 1127 N 131.551 -0.354651 -1.53558 0
M  V30 1128 C 132.967 -0.00315426 -1.596 0
M  V30 1129 C 133.167 1.47741 -1.37021 0
M  V30 1130 O 132.223 2.23759 -1.16996 0
M  V30 1131 C 133.536 -0.44929 -2.97325 0
M  V30 1132 C 135.084 -0.402578 -3.104 0
M  V30 1133 C 135.559 -0.824355 -4.5052 0
M  V30 1134 N 137.05 -0.778979 -4.56603 0
M  V30 1135 C 137.785 -1.07715 -5.63192 0
M  V30 1136 N 137.281 -1.44405 -6.77583 0
M  V30 1137 N 139.074 -1.00066 -5.53121 0
M  V30 1138 H 131.225 -1.31893 -1.66487 0
M  V30 1139 H 133.488 -0.538388 -0.780284 0
M  V30 1140 H 133.194 -1.48202 -3.1895 0
M  V30 1141 H 133.068 0.169772 -3.76818 0
M  V30 1142 H 135.455 0.621004 -2.88492 0
M  V30 1143 H 135.536 -1.05699 -2.32941 0
M  V30 1144 H 135.18 -1.846 -4.73165 0
M  V30 1145 H 135.11 -0.147304 -5.26394 0
M  V30 1146 H 137.601 -0.508528 -3.74463 0
M  V30 1147 H 137.914 -1.65612 -7.54846 0
M  V30 1148 H 136.259 -1.4826 -6.79002 0
M  V30 1149 H 139.45 -0.713293 -4.62633 0
M  V30 1150 H 139.623 -1.23638 -6.36096 0
M  V30 1151 N 133.029 1.57378 -0.0835403 0
M  V30 1152 C 133.976 2.13384 0.879539 0
M  V30 1153 C 134.946 1.04936 1.28754 0
M  V30 1154 O 136.131 1.32662 1.37133 0
M  V30 1155 C 133.271 2.70932 2.13752 0
M  V30 1156 C 132.384 3.93575 1.7811 0
M  V30 1157 C 131.519 4.39326 2.98607 0
M  V30 1158 C 130.558 5.54587 2.59037 0
M  V30 1159 N 129.695 5.95243 3.72331 0
M  V30 1160 H 134.535 2.9537 0.395076 0
M  V30 1161 H 132.072 1.45953 0.183349 0
M  V30 1162 H 134.03 3.02411 2.87408 0
M  V30 1163 H 132.66 1.91693 2.59718 0
M  V30 1164 H 131.712 3.68483 0.94469 0
M  V30 1165 H 133.024 4.77258 1.45005 0
M  V30 1166 H 132.178 4.72528 3.80529 0
M  V30 1167 H 130.917 3.5452 3.34913 0
M  V30 1168 H 129.922 5.21024 1.75539 0
M  V30 1169 H 131.147 6.41133 2.23887 0
M  V30 1170 H 129.093 5.13385 4.08378 0
M  V30 1171 H 129.01 6.73694 3.43034 0
M  V30 1172 H 130.278 6.33072 4.54797 0
M  V30 1173 N 134.507 -0.190092 1.56449 0
M  V30 1174 C 135.47 -1.21925 1.9408 0
M  V30 1175 C 136.47 -1.38176 0.822431 0
M  V30 1176 O 137.66 -1.35903 1.08977 0
M  V30 1177 C 134.792 -2.58773 2.21922 0
M  V30 1178 H 135.985 -0.897464 2.86157 0
M  V30 1179 H 133.538 -0.43181 1.50217 0
M  V30 1180 H 134.273 -2.95998 1.32499 0
M  V30 1181 H 134.058 -2.48348 3.03424 0
M  V30 1182 H 135.548 -3.32978 2.52022 0
M  V30 1183 N 135.985 -1.50799 -0.457987 0
M  V30 1184 C 136.917 -1.66786 -1.57211 0
M  V30 1185 C 137.93 -0.548962 -1.53265 0
M  V30 1186 O 139.119 -0.8226 -1.58416 0
M  V30 1187 C 136.219 -1.64834 -2.96113 0
M  V30 1188 C 135.392 -2.92971 -3.24787 0
M  V30 1189 C 134.451 -2.83485 -4.43309 0
M  V30 1190 O 133.477 -3.5744 -4.42973 0
M  V30 1191 N 134.679 -1.97929 -5.45714 0
M  V30 1192 H 137.444 -2.62889 -1.43909 0
M  V30 1193 H 135.005 -1.48427 -0.646617 0
M  V30 1194 H 136.997 -1.56084 -3.7339 0
M  V30 1195 H 135.567 -0.764118 -3.03117 0
M  V30 1196 H 134.787 -3.15749 -2.36 0
M  V30 1197 H 136.075 -3.77834 -3.40762 0
M  V30 1198 H 135.473 -1.37182 -5.48815 0
M  V30 1199 H 134.03 -1.95073 -6.21924 0
M  V30 1200 N 137.463 0.71206 -1.40597 0
M  V30 1201 C 138.709 1.47416 -1.39271 0
M  V30 1202 C 139.042 1.942 0.00388791 0
M  V30 1203 O 138.317 1.68403 0.973179 0
M  V30 1204 C 138.6 2.69774 -2.38525 0
M  V30 1205 C 138.453 2.28861 -3.87224 0
M  V30 1206 C 139.772 3.71939 -2.35264 0
M  V30 1207 H 136.891 0.534713 -0.5072 0
M  V30 1208 H 139.533 0.812375 -1.71757 0
M  V30 1209 H 137.683 3.26238 -2.10953 0
M  V30 1210 H 139.355 1.77852 -4.25636 0
M  V30 1211 H 137.598 1.60824 -4.02887 0
M  V30 1212 H 138.269 3.16584 -4.52193 0
M  V30 1213 H 140.745 3.25113 -2.59694 0
M  V30 1214 H 139.621 4.55186 -3.06753 0
M  V30 1215 H 139.882 4.20484 -1.36549 0
M  V30 1216 N 138.941 1.26152 0.944643 0
M  V30 1217 C 140.357 1.03189 1.21754 0
M  V30 1218 C 140.557 -0.245112 2.00004 0
M  V30 1219 O 139.613 -0.955176 2.33736 0
M  V30 1220 C 140.926 2.26119 1.98219 0
M  V30 1221 C 142.474 2.30984 2.11224 0
M  V30 1222 C 142.949 3.53597 2.91089 0
M  V30 1223 N 144.44 3.54053 2.98664 0
M  V30 1224 C 145.175 4.45593 3.60881 0
M  V30 1225 N 144.671 5.47416 4.24626 0
M  V30 1226 N 146.464 4.33252 3.58119 0
M  V30 1227 H 138.615 2.08177 0.421437 0
M  V30 1228 H 140.878 0.914723 0.248969 0
M  V30 1229 H 140.584 3.18984 1.48128 0
M  V30 1230 H 140.458 2.3009 2.98895 0
M  V30 1231 H 142.845 1.38635 2.60508 0
M  V30 1232 H 142.926 2.31026 1.09821 0
M  V30 1233 H 142.57 4.46273 2.42493 0
M  V30 1234 H 142.5 3.50802 3.92741 0
M  V30 1235 H 144.991 2.80403 2.53343 0
M  V30 1236 H 145.304 6.13459 4.69987 0
M  V30 1237 H 143.649 5.51278 4.23223 0
M  V30 1238 H 146.84 3.52924 3.0751 0
M  V30 1239 H 147.013 5.04786 4.06319 0
M  V30 1240 N 140.419 -1.14872 1.07899 0
M  V30 1241 C 141.667 -1.85422 0.803941 0
M  V30 1242 C 141.988 -1.83051 -0.67211 0
M  V30 1243 O 141.258 -1.27532 -1.48703 0
M  V30 1244 H 139.838 -0.686537 0.294408 0
M  V30 1245 H 142.5 -1.39226 1.3639 0
M  V30 1246 H 141.596 -2.90399 1.14346 0
M  V30 1247 N 141.898 -0.863906 -1.31812 0
M  V30 1248 C 142.828 -0.330843 -2.31144 0
M  V30 1249 C 143.809 0.575005 -1.60087 0
M  V30 1250 O 144.994 0.493304 -1.8783 0
M  V30 1251 C 142.124 0.47374 -3.44054 0
M  V30 1252 C 141.078 -0.338481 -4.26659 0
M  V30 1253 C 140.404 0.591412 -5.31419 0
M  V30 1254 C 141.704 -1.56926 -4.98168 0
M  V30 1255 H 143.398 -1.16086 -2.75979 0
M  V30 1256 H 140.944 -0.559657 -1.32679 0
M  V30 1257 H 142.897 0.857143 -4.12591 0
M  V30 1258 H 141.621 1.33721 -2.9797 0
M  V30 1259 H 140.28 -0.703754 -3.59782 0
M  V30 1260 H 139.928 1.45199 -4.81587 0
M  V30 1261 H 139.628 0.0519022 -5.87577 0
M  V30 1262 H 141.152 0.97179 -6.02817 0
M  V30 1263 H 142.566 -1.25764 -5.59336 0
M  V30 1264 H 140.963 -2.04739 -5.64094 0
M  V30 1265 H 142.033 -2.32544 -4.25501 0
M  V30 1266 N 143.376 1.44774 -0.622745 0
M  V30 1267 C 144.787 1.85546 -0.207226 0
M  V30 1268 C 145.138 1.52093 1.23944 0
M  V30 1269 O 144.263 0.95492 1.94191 0
M  V30 1270 C 144.858 3.36781 -0.369313 0
M  V30 1271 C 143.417 3.76399 -0.00836847 0
M  V30 1272 C 142.564 2.68664 -0.686651 0
M  V30 1273 H 145.515 1.3536 -0.828454 0
M  V30 1274 H 145.536 3.78453 0.394162 0
M  V30 1275 H 145.048 3.61098 -1.42231 0
M  V30 1276 H 143.149 3.57698 1.04322 0
M  V30 1277 H 143.262 4.7732 -0.412584 0
M  V30 1278 H 141.626 2.54404 -0.122777 0
M  V30 1279 H 142.409 2.95815 -1.74208 0
M  V30 1280 N 144.854 0.36279 1.53368 0
M  V30 1281 C 146.27 0.0116182 1.59596 0
M  V30 1282 C 146.47 -1.47012 1.37803 0
M  V30 1283 O 145.526 -2.23136 1.18181 0
M  V30 1284 C 146.839 0.465052 2.97082 0
M  V30 1285 C 148.387 0.419033 3.10182 0
M  V30 1286 C 148.862 0.848235 4.50077 0
M  V30 1287 N 150.353 0.803183 4.56183 0
M  V30 1288 C 151.088 1.107 5.62613 0
M  V30 1289 N 150.584 1.47996 6.76808 0
M  V30 1290 N 152.377 1.02998 5.52583 0
M  V30 1291 H 144.528 1.32775 1.65785 0
M  V30 1292 H 146.791 0.542518 0.777417 0
M  V30 1293 H 146.497 1.49892 3.18159 0
M  V30 1294 H 146.371 -0.149786 3.76902 0
M  V30 1295 H 148.758 -0.605696 2.88817 0
M  V30 1296 H 148.839 1.06933 2.32377 0
M  V30 1297 H 148.483 1.87107 4.7218 0
M  V30 1298 H 148.413 0.175218 5.26308 0
M  V30 1299 H 150.904 0.52838 3.74188 0
M  V30 1300 H 151.217 1.69613 7.53957 0
M  V30 1301 H 149.562 1.51859 6.78206 0
M  V30 1302 H 152.753 0.737817 4.62249 0
M  V30 1303 H 152.926 1.2701 6.35431 0
M  V30 1304 N 146.332 -1.57332 0.0918853 0
M  V30 1305 C 147.295 -2.12708 -0.85369 0
M  V30 1306 C 148.295 -1.05561 -1.213 0
M  V30 1307 O 149.485 -1.31461 -1.14296 0
M  V30 1308 C 146.617 -2.64503 -2.15061 0
M  V30 1309 H 147.81 -2.97573 -0.3729 0
M  V30 1310 H 145.363 -1.55509 -0.157072 0
M  V30 1311 H 146.098 -1.83149 -2.67632 0
M  V30 1312 H 145.883 -3.4284 -1.90272 0
M  V30 1313 H 147.373 -3.07351 -2.82711 0
M  V30 1314 N 147.81 0.181792 -1.56548 0
M  V30 1315 C 148.757 1.22521 -1.95595 0
M  V30 1316 C 149.727 1.4454 -0.818373 0
M  V30 1317 O 150.912 1.57454 -1.07763 0
M  V30 1318 C 148.052 2.56193 -2.31212 0
M  V30 1319 C 147.165 2.41641 -3.58097 0
M  V30 1320 C 146.3 3.68108 -3.82975 0
M  V30 1321 C 145.339 3.48445 -5.03242 0
M  V30 1322 N 144.476 4.66956 -5.24306 0
M  V30 1323 H 149.316 0.885226 -2.84548 0
M  V30 1324 H 146.853 0.425718 -1.40805 0
M  V30 1325 H 148.811 3.34088 -2.49882 0
M  V30 1326 H 147.441 2.88208 -1.45382 0
M  V30 1327 H 146.493 1.54976 -3.474 0
M  V30 1328 H 147.805 2.23052 -4.46149 0
M  V30 1329 H 146.959 4.54441 -4.01956 0
M  V30 1330 H 145.698 3.89666 -2.93278 0
M  V30 1331 H 144.703 2.60499 -4.8417 0
M  V30 1332 H 145.928 3.2832 -5.9446 0
M  V30 1333 H 143.874 4.88752 -4.37559 0
M  V30 1334 H 143.791 4.51242 -6.06561 0
M  V30 1335 H 145.059 5.54602 -5.47756 0
M  V30 1336 N 149.288 1.51039 0.449983 0
M  V30 1337 C 150.235 1.71439 1.54523 0
M  V30 1338 C 151.205 0.555871 1.56522 0
M  V30 1339 O 152.39 0.788871 1.73728 0
M  V30 1340 C 149.53 1.83384 2.92343 0
M  V30 1341 C 148.643 3.10873 2.9997 0
M  V30 1342 C 147.778 3.13488 4.28834 0
M  V30 1343 C 146.817 4.35343 4.30282 0
M  V30 1344 N 145.954 4.35579 5.5065 0
M  V30 1345 H 150.794 2.64934 1.36433 0
M  V30 1346 H 148.331 1.31312 0.662982 0
M  V30 1347 H 150.289 1.88291 3.72293 0
M  V30 1348 H 148.919 0.933086 3.0902 0
M  V30 1349 H 147.971 3.15336 2.12761 0
M  V30 1350 H 149.283 4.00814 2.96901 0
M  V30 1351 H 148.437 3.17241 5.17149 0
M  V30 1352 H 147.176 2.21414 4.34543 0
M  V30 1353 H 146.181 4.3178 3.40362 0
M  V30 1354 H 147.406 5.28668 4.26248 0
M  V30 1355 H 145.352 3.46369 5.57104 0
M  V30 1356 H 145.269 5.19313 5.49409 0
M  V30 1357 H 146.537 4.43507 6.41032 0
M  V30 1358 N 150.766 -0.704594 1.40972 0
M  V30 1359 C 151.696 -1.83124 1.44872 0
M  V30 1360 C 152.677 -1.67281 0.30838 0
M  V30 1361 O 153.862 -1.87149 0.518556 0
M  V30 1362 C 150.992 -3.21181 1.32136 0
M  V30 1363 C 149.946 -3.51714 2.43888 0
M  V30 1364 C 149.272 -4.89032 2.16222 0
M  V30 1365 C 150.572 -3.516 3.86232 0
M  V30 1366 H 152.266 -1.80117 2.39161 0
M  V30 1367 H 149.812 -0.865145 1.15114 0
M  V30 1368 H 151.765 -3.99702 1.33479 0
M  V30 1369 H 150.489 -3.24791 0.343279 0
M  V30 1370 H 149.148 -2.75539 2.41813 0
M  V30 1371 H 148.796 -4.89256 1.16778 0
M  V30 1372 H 148.496 -5.10426 2.911 0
M  V30 1373 H 150.02 -5.69873 2.19265 0
M  V30 1374 H 151.434 -4.2014 3.9007 0
M  V30 1375 H 149.831 -3.84523 4.60719 0
M  V30 1376 H 150.901 -2.50757 4.15029 0
M  V30 1377 N 152.244 -1.26651 -0.937939 0
M  V30 1378 C 153.154 -1.10276 -2.07066 0
M  V30 1379 C 154.17 -0.0354197 -1.73964 0
M  V30 1380 O 155.346 -0.239816 -1.99967 0
M  V30 1381 C 152.411 -0.740887 -3.38691 0
M  V30 1382 C 151.472 -1.88799 -3.85556 0
M  V30 1383 C 150.705 -1.54329 -5.10899 0
M  V30 1384 O 150.928 -0.446494 -5.6865 0
M  V30 1385 O 149.862 -2.37911 -5.52885 0
M  V30 1386 H 153.688 -2.05309 -2.23789 0
M  V30 1387 H 151.273 -1.05743 -1.0554 0
M  V30 1388 H 153.155 -0.55195 -4.1777 0
M  V30 1389 H 151.83 0.180022 -3.23199 0
M  V30 1390 H 150.737 -2.13191 -3.07409 0
M  V30 1391 H 152.07 -2.78874 -4.05574 0
M  V30 1392 N 153.722 1.14298 -1.08507 0
M  V30 1393 C 154.669 2.19414 -0.715965 0
M  V30 1394 C 155.639 1.63399 0.298326 0
M  V30 1395 O 156.824 1.89929 0.182101 0
M  V30 1396 C 153.964 3.44845 -0.132534 0
M  V30 1397 C 153.077 4.15007 -1.19973 0
M  V30 1398 C 152.212 5.28024 -0.580048 0
M  V30 1399 C 151.251 5.9002 -1.62921 0
M  V30 1400 N 150.388 6.94485 -1.03125 0
M  V30 1401 H 155.228 2.50336 -1.61666 0
M  V30 1402 H 152.765 1.2293 -0.807882 0
M  V30 1403 H 154.723 4.16601 0.223454 0
M  V30 1404 H 153.353 3.14403 0.731467 0
M  V30 1405 H 152.405 3.41629 -1.67313 0
M  V30 1406 H 153.717 4.57178 -1.99473 0
M  V30 1407 H 152.871 6.06455 -0.172364 0
M  V30 1408 H 151.61 4.87076 0.246603 0
M  V30 1409 H 150.615 5.10291 -2.04654 0
M  V30 1410 H 151.84 6.33042 -2.45835 0
M  V30 1411 H 149.786 6.55612 -0.225711 0
M  V30 1412 H 149.703 7.35148 -1.76334 0
M  V30 1413 H 150.971 7.7679 -0.649458 0
M  V30 1414 N 155.201 0.870884 1.31352 0
M  V30 1415 C 156.131 0.343096 2.30966 0
M  V30 1416 C 157.112 -0.566507 1.60389 0
M  V30 1417 O 158.297 -0.483336 1.88089 0
M  V30 1418 C 155.427 -0.455487 3.443 0
M  V30 1419 C 154.381 0.361103 4.26474 0
M  V30 1420 C 153.707 -0.563221 5.31725 0
M  V30 1421 C 155.007 1.59566 4.97329 0
M  V30 1422 H 156.701 1.17548 2.75359 0
M  V30 1423 H 154.247 0.566686 1.32381 0
M  V30 1424 H 156.2 -0.83525 4.13039 0
M  V30 1425 H 154.924 -1.32139 2.98675 0
M  V30 1426 H 153.583 0.722825 3.59403 0
M  V30 1427 H 153.231 -1.42643 4.82351 0
M  V30 1428 H 152.931 -0.0207409 5.87596 0
M  V30 1429 H 154.455 -0.939808 6.03324 0
M  V30 1430 H 155.869 1.28728 5.58661 0
M  V30 1431 H 154.266 2.07728 5.63 0
M  V30 1432 H 155.336 2.34798 4.24262 0
M  V30 1433 N 156.679 -1.44442 0.630414 0
M  V30 1434 C 157.927 -2.01653 0.134351 0
M  V30 1435 C 158.248 -1.49836 -1.24796 0
M  V30 1436 O 157.518 -0.701684 -1.82902 0
M  V30 1437 H 156.098 -0.74554 0.0466769 0
M  V30 1438 H 158.76 -1.76952 0.816955 0
M  V30 1439 H 157.856 -3.11935 0.101498 0
M  V30 1440 N 158.157 -0.370918 -1.53173 0
M  V30 1441 C 159.403 0.217423 -2.01631 0
M  V30 1442 C 159.736 1.47983 -1.25756 0
M  V30 1443 O 159.011 1.91274 -0.352764 0
M  V30 1444 C 159.294 0.503982 -3.56556 0
M  V30 1445 C 159.147 -0.77243 -4.43118 0
M  V30 1446 C 160.466 1.30234 -4.20389 0
M  V30 1447 H 157.585 0.0775486 -0.732909 0
M  V30 1448 H 160.227 -0.496863 -1.83388 0
M  V30 1449 H 158.377 1.11248 -3.72231 0
M  V30 1450 H 160.049 -1.4098 -4.39229 0
M  V30 1451 H 158.292 -1.39167 -4.10871 0
M  V30 1452 H 158.963 -0.526815 -5.4948 0
M  V30 1453 H 161.439 0.787546 -4.08579 0
M  V30 1454 H 160.315 1.47158 -5.28806 0
M  V30 1455 H 160.576 2.31237 -3.76805 0
M  V30 1456 N 159.635 1.57281 -0.100228 0
M  V30 1457 C 160.882 1.94537 0.562268 0
M  V30 1458 C 161.21 0.982315 1.67871 0
M  V30 1459 O 160.465 0.00280936 1.957 0
M  V30 1460 C 160.764 3.38305 1.15259 0
M  V30 1461 C 160.43 4.50618 0.159409 0
M  V30 1462 C 159.092 4.81066 -0.113741 0
M  V30 1463 C 161.444 5.18615 -0.518461 0
M  V30 1464 C 158.772 5.76835 -1.07137 0
M  V30 1465 C 161.124 6.15412 -1.46459 0
M  V30 1466 C 159.788 6.44262 -1.74592 0
M  V30 1467 H 159.058 0.711863 0.205748 0
M  V30 1468 H 161.705 1.90679 -0.17715 0
M  V30 1469 H 160.01 3.38766 1.96836 0
M  V30 1470 H 161.707 3.64435 1.67297 0
M  V30 1471 H 158.297 4.2689 0.382491 0
M  V30 1472 H 162.481 4.95264 -0.320581 0
M  V30 1473 H 157.737 5.975 -1.29628 0
M  V30 1474 H 161.911 6.67194 -1.99564 0
M  V30 1475 H 159.538 7.1828 -2.48953 0
M  V30 1476 N 161.113 -0.173488 1.56642 0
M  V30 1477 C 162.338 -0.910149 1.86363 0
M  V30 1478 C 162.763 -1.75132 0.686318 0
M  V30 1479 O 162.121 -1.77595 -0.364643 0
M  V30 1480 C 162.169 -1.76447 3.14482 0
M  V30 1481 O 161.273 -2.86584 2.96553 0
M  V30 1482 H 160.614 -0.255086 0.613047 0
M  V30 1483 H 163.144 -0.172283 2.03873 0
M  V30 1484 H 163.154 -2.16483 3.45831 0
M  V30 1485 H 161.829 -1.14658 3.99783 0
M  V30 1486 H 160.406 -2.50146 2.76553 0
M  V30 1487 N 162.591 -1.51276 -0.441967 0
M  V30 1488 C 163.554 -1.7167 -1.51862 0
M  V30 1489 C 164.554 -0.586793 -1.49711 0
M  V30 1490 O 165.744 -0.854276 -1.51815 0
M  V30 1491 C 162.876 -1.76889 -2.91416 0
M  V30 1492 H 164.069 -2.67754 -1.35084 0
M  V30 1493 H 161.622 -1.41196 -0.670333 0
M  V30 1494 H 162.357 -0.826026 -3.13604 0
M  V30 1495 H 162.142 -2.59001 -2.94382 0
M  V30 1496 H 163.632 -1.94522 -3.69528 0
M  V30 1497 N 164.069 0.697108 -1.41344 0
M  V30 1498 C 165.309 1.46939 -1.42085 0
M  V30 1499 C 165.673 1.9198 -0.0280397 0
M  V30 1500 O 166.874 2.6865 0.0897504 0
M  V30 1501 C 165.145 2.64985 -2.39828 0
M  V30 1502 S 166.704 3.54147 -2.59085 0
M  V30 1503 H 163.522 0.502146 -0.503359 0
M  V30 1504 H 166.124 0.813546 -1.77769 0
M  V30 1505 H 164.828 2.30098 -3.39828 0
M  V30 1506 H 164.359 3.35464 -2.05493 0
M  V30 1507 H 166.374 4.60137 -1.85711 0
M  V30 1508 N 165.547 1.27147 0.931209 0
M  V30 1509 C 166.494 1.09568 2.03134 0
M  V30 1510 C 167.464 -0.00222433 1.661 0
M  V30 1511 O 168.649 0.159439 1.90133 0
M  V30 1512 C 165.789 0.745231 3.36957 0
M  V30 1513 C 164.902 1.92041 3.86968 0
M  V30 1514 C 164.037 1.51216 5.09222 0
M  V30 1515 C 163.076 2.65504 5.5152 0
M  V30 1516 N 162.213 2.25291 6.64972 0
M  V30 1517 H 167.053 2.03708 2.17502 0
M  V30 1518 H 164.59 1.01411 1.06556 0
M  V30 1519 H 166.548 0.522878 4.1391 0
M  V30 1520 H 165.178 -0.159202 3.22407 0
M  V30 1521 H 164.23 2.25541 3.06326 0
M  V30 1522 H 165.542 2.77787 4.1429 0
M  V30 1523 H 164.696 1.25084 5.93666 0
M  V30 1524 H 163.435 0.625749 4.83669 0
M  V30 1525 H 162.44 2.92354 4.65628 0
M  V30 1526 H 163.665 3.54761 5.7907 0
M  V30 1527 H 161.611 1.39098 6.41083 0
M  V30 1528 H 161.528 3.04577 6.91931 0
M  V30 1529 H 162.796 2.02398 7.52765 0
M  V30 1530 N 167.025 -1.13721 1.09112 0
M  V30 1531 C 167.988 -2.17222 0.731241 0
M  V30 1532 C 168.988 -1.59035 -0.237566 0
M  V30 1533 O 170.178 -1.74192 -0.0161704 0
M  V30 1534 C 167.31 -3.40804 0.0808443 0
M  V30 1535 H 168.503 -2.50573 1.64783 0
M  V30 1536 H 166.056 -1.28493 0.889897 0
M  V30 1537 H 166.791 -3.1304 -0.847127 0
M  V30 1538 H 166.576 -3.84306 0.777896 0
M  V30 1539 H 168.066 -4.1731 -0.155657 0
M  V30 1540 N 168.503 -0.877838 -1.30888 0
M  V30 1541 C 169.451 -0.328662 -2.30266 0
M  V30 1542 C 170.445 0.560496 -1.59859 0
M  V30 1543 O 171.651 0.445722 -1.74394 0
M  V30 1544 H 168.026 -0.0876142 -0.746879 0
M  V30 1545 H 169.997 -1.18061 -2.74051 0
M  V30 1546 C 168.746 0.448071 -3.44801 0
M  V30 1547 H 168.069 -0.226859 -3.99156 0
M  V30 1548 H 169.509 0.797541 -4.16432 0
M  V30 1549 C 167.968 1.64239 -2.94155 0
M  V30 1550 O 168.498 2.74175 -2.93583 0
M  V30 1551 N 166.704 1.47716 -2.50256 0
M  V30 1552 H 166.251 0.582821 -2.5092 0
M  V30 1553 H 166.209 2.27765 -2.16727 0
M  V30 1554 N 169.982 1.44106 -0.638065 0
M  V30 1555 C 170.892 2.34513 0.0637334 0
M  V30 1556 C 171.908 1.53018 0.828346 0
M  V30 1557 O 173.084 1.85723 0.779036 0
M  V30 1558 C 170.149 3.31095 1.02844 0
M  V30 1559 C 169.21 4.28497 0.26244 0
M  V30 1560 C 168.443 5.20465 1.1812 0
M  V30 1561 O 168.666 5.16514 2.42011 0
M  V30 1562 O 167.6 5.98251 0.661774 0
M  V30 1563 H 171.426 2.95989 -0.68003 0
M  V30 1564 H 169.011 1.43994 -0.398252 0
M  V30 1565 H 170.893 3.90526 1.58327 0
M  V30 1566 H 169.568 2.72144 1.7527 0
M  V30 1567 H 168.475 3.72592 -0.335602 0
M  V30 1568 H 169.808 4.90388 -0.421936 0
M  V30 1569 N 171.46 0.379036 1.52974 0
M  V30 1570 C 172.688 -0.20679 2.05864 0
M  V30 1571 C 173.103 -1.41356 1.25155 0
M  V30 1572 O 172.46 -1.8009 0.295588 0
M  V30 1573 C 172.511 -0.587045 3.56702 0
M  V30 1574 O 172.232 0.571776 4.34353 0
M  V30 1575 C 173.733 -1.22983 4.25899 0
M  V30 1576 H 170.953 -0.0336123 0.670158 0
M  V30 1577 H 173.497 0.541298 1.97206 0
M  V30 1578 H 171.652 -1.28504 3.65466 0
M  V30 1579 H 172.066 0.261544 5.23847 0
M  V30 1580 H 173.54 -1.44635 5.32715 0
M  V30 1581 H 174.017 -2.19416 3.80465 0
M  V30 1582 H 174.623 -0.572892 4.21424 0
M  V30 1583 N 172.938 -1.57226 0.108567 0
M  V30 1584 C 174.178 -1.96717 -0.555155 0
M  V30 1585 C 174.542 -0.990003 -1.64508 0
M  V30 1586 O 175.743 -1.2739 -2.36696 0
M  V30 1587 C 174.014 -3.40575 -1.08367 0
M  V30 1588 S 175.573 -4.02072 -1.75737 0
M  V30 1589 H 172.391 -0.687638 -0.180762 0
M  V30 1590 H 174.993 -1.94563 0.191172 0
M  V30 1591 H 173.697 -4.0945 -0.279092 0
M  V30 1592 H 173.228 -3.46356 -1.86551 0
M  V30 1593 H 175.243 -3.91977 -3.04251 0
M  V30 1594 N 174.416 0.165178 -1.56732 0
M  V30 1595 C 175.363 1.2044 -1.96883 0
M  V30 1596 C 176.333 1.43664 -0.833657 0
M  V30 1597 O 177.518 1.56302 -1.09427 0
M  V30 1598 C 174.658 2.53727 -2.33916 0
M  V30 1599 C 173.771 2.3783 -3.6064 0
M  V30 1600 C 172.906 3.64026 -3.86857 0
M  V30 1601 C 171.945 3.43088 -5.06909 0
M  V30 1602 N 171.082 4.61369 -5.29229 0
M  V30 1603 H 175.922 0.854996 -2.85471 0
M  V30 1604 H 173.459 0.41076 -1.41249 0
M  V30 1605 H 175.417 3.31419 -2.53411 0
M  V30 1606 H 174.047 2.8665 -1.48431 0
M  V30 1607 H 173.099 1.51282 -3.49024 0
M  V30 1608 H 174.411 2.18308 -4.4849 0
M  V30 1609 H 173.565 4.50152 -4.06753 0
M  V30 1610 H 172.304 3.86533 -2.97394 0
M  V30 1611 H 171.309 2.55349 -4.86906 0
M  V30 1612 H 172.534 3.21997 -5.97909 0
M  V30 1613 H 170.48 4.84084 -4.42718 0
M  V30 1614 H 170.397 4.44783 -6.11313 0
M  V30 1615 H 171.665 5.48761 -5.53608 0
M  V30 1616 N 175.894 1.51508 0.433938 0
M  V30 1617 C 177.134 1.66006 1.19253 0
M  V30 1618 C 177.498 0.369868 1.88404 0
M  V30 1619 O 178.699 0.39066 2.65946 0
M  V30 1620 C 176.97 2.83229 2.17981 0
M  V30 1621 S 178.529 3.18075 3.02281 0
M  V30 1622 H 175.347 0.584821 0.404358 0
M  V30 1623 H 177.949 1.89425 0.48357 0
M  V30 1624 H 176.653 3.75407 1.65824 0
M  V30 1625 H 176.184 2.6201 2.93453 0
M  V30 1626 H 178.199 2.64772 4.19655 0
M  V30 1627 N 177.372 -0.689602 1.41712 0
M  V30 1628 C 178.32 -1.82475 1.44242 0
M  V30 1629 C 179.314 -1.66354 0.319774 0
M  V30 1630 O 180.52 -1.73143 0.492089 0
M  V30 1631 H 176.895 -0.601416 0.451445 0
M  V30 1632 H 178.866 -1.77458 2.39899 0
M  V30 1633 C 177.615 -3.20535 1.3473 0
M  V30 1634 H 176.938 -3.33559 2.20405 0
M  V30 1635 H 178.378 -4.00023 1.40562 0
M  V30 1636 C 176.837 -3.36846 0.0603281 0
M  V30 1637 O 177.367 -3.91656 -0.892663 0
M  V30 1638 N 175.573 -2.90595 -0.0177039 0
M  V30 1639 H 175.12 -2.46178 0.758572 0
M  V30 1640 H 175.078 -3.01886 -0.878201 0
M  V30 1641 N 178.85 -1.27639 -0.924453 0
M  V30 1642 C 180.098 -1.13941 -1.66918 0
M  V30 1643 C 180.419 0.314589 -1.92446 0
M  V30 1644 O 179.689 1.21964 -1.53303 0
M  V30 1645 H 178.269 -0.418678 -0.618642 0
M  V30 1646 H 180.931 -1.60213 -1.10985 0
M  V30 1647 H 180.027 -1.67094 -2.63602 0
M  V30 1648 N 180.328 1.1314 -1.09713 0
M  V30 1649 C 181.574 1.84967 -0.846104 0
M  V30 1650 C 181.929 1.82082 0.621601 0
M  V30 1651 O 181.222 1.2501 1.452 0
M  V30 1652 C 181.416 3.32167 -1.3191 0
M  V30 1653 C 181.245 3.49386 -2.83125 0
M  V30 1654 C 180.015 3.63456 -3.51038 0
M  V30 1655 C 182.213 3.45179 -3.81256 0
M  V30 1656 N 180.195 3.68966 -4.9065 0
M  V30 1657 C 181.566 3.57094 -5.06837 0
M  V30 1658 C 183.621 3.28598 -3.74069 0
M  V30 1659 C 182.324 3.5414 -6.26081 0
M  V30 1660 C 184.35 3.26953 -4.92804 0
M  V30 1661 C 183.712 3.39422 -6.17229 0
M  V30 1662 H 179.811 0.692899 -0.362512 0
M  V30 1663 H 182.395 1.35506 -1.39808 0
M  V30 1664 H 180.566 3.80186 -0.794535 0
M  V30 1665 H 182.298 3.91815 -1.01308 0
M  V30 1666 H 179.053 3.65256 -3.01471 0
M  V30 1667 H 179.477 3.75404 -5.63383 0
M  V30 1668 H 184.119 3.17858 -2.78794 0
M  V30 1669 H 181.837 3.63653 -7.21653 0
M  V30 1670 H 185.423 3.15316 -4.88945 0
M  V30 1671 H 184.303 3.38114 -7.07565 0
M  V30 1672 N 181.806 0.884767 1.30421 0
M  V30 1673 C 182.753 0.349642 2.28136 0
M  V30 1674 C 183.723 -0.560061 1.56373 0
M  V30 1675 O 184.908 -0.488524 1.8444 0
M  V30 1676 C 182.048 -0.42999 3.42411 0
M  V30 1677 C 181.161 0.508907 4.28992 0
M  V30 1678 C 180.296 -0.286301 5.30428 0
M  V30 1679 C 179.335 0.648079 6.08659 0
M  V30 1680 N 178.472 -0.111792 7.02011 0
M  V30 1681 H 183.312 1.18807 2.73293 0
M  V30 1682 H 180.849 0.597231 1.3443 0
M  V30 1683 H 182.807 -0.897923 4.07423 0
M  V30 1684 H 181.437 -1.23299 2.98324 0
M  V30 1685 H 180.489 1.09533 3.64289 0
M  V30 1686 H 181.801 1.22475 4.8353 0
M  V30 1687 H 180.955 -0.816098 6.01186 0
M  V30 1688 H 179.694 -1.03536 4.76583 0
M  V30 1689 H 178.699 1.18951 5.36778 0
M  V30 1690 H 179.924 1.39623 6.64592 0
M  V30 1691 H 177.87 -0.843395 6.50556 0
M  V30 1692 H 177.787 0.544429 7.54037 0
M  V30 1693 H 179.055 -0.622339 7.77012 0
M  V30 1694 N 183.284 -1.43765 0.645699 0
M  V30 1695 C 184.232 -2.32516 -0.0624849 0
M  V30 1696 C 185.226 -1.48183 -0.820855 0
M  V30 1697 O 186.432 -1.64439 -0.732106 0
M  V30 1698 H 182.807 -0.750989 -0.0389864 0
M  V30 1699 H 184.778 -2.89979 0.703892 0
M  V30 1700 C 183.527 -3.32389 -1.02044 0
M  V30 1701 H 182.85 -3.97301 -0.446312 0
M  V30 1702 H 184.29 -3.97138 -1.48517 0
M  V30 1703 C 182.749 -2.62416 -2.11281 0
M  V30 1704 O 183.279 -2.434 -3.19561 0
M  V30 1705 N 181.485 -2.21913 -1.87624 0
M  V30 1706 H 181.032 -2.37578 -0.995703 0
M  V30 1707 H 180.99 -1.75424 -2.6091 0
M  V30 1708 N 184.763 -0.387143 -1.52771 0
M  V30 1709 C 186.174 0.0873634 -1.86495 0
M  V30 1710 C 186.525 1.46336 -1.30691 0
M  V30 1711 O 185.65 2.068 -0.637409 0
M  V30 1712 C 186.245 0.165305 -3.38396 0
M  V30 1713 C 184.804 0.584101 -3.7184 0
M  V30 1714 C 183.951 -0.255279 -2.76122 0
M  V30 1715 H 186.902 -0.605104 -1.46711 0
M  V30 1716 H 186.923 0.984848 -3.67534 0
M  V30 1717 H 186.435 -0.836301 -3.78982 0
M  V30 1718 H 184.536 1.59315 -3.36823 0
M  V30 1719 H 184.649 0.343749 -4.77865 0
M  V30 1720 H 183.013 0.279126 -2.53166 0
M  V30 1721 H 183.796 -1.25482 -3.19545 0
M  V30 1722 N 186.241 1.57166 -0.116904 0
M  V30 1723 C 187.188 2.15202 0.83408 0
M  V30 1724 C 188.158 1.07644 1.26499 0
M  V30 1725 O 189.343 1.35541 1.34288 0
M  V30 1726 C 186.483 2.75405 2.07957 0
M  V30 1727 C 185.596 3.97264 1.69721 0
M  V30 1728 C 184.731 4.45561 2.89221 0
M  V30 1729 C 183.77 5.59956 2.47215 0
M  V30 1730 N 182.907 6.03006 3.59622 0
M  V30 1731 H 187.747 2.96141 0.332335 0
M  V30 1732 H 185.284 1.46309 0.152349 0
M  V30 1733 H 187.242 3.08439 2.80929 0
M  V30 1734 H 185.872 1.97159 2.55594 0
M  V30 1735 H 184.924 3.70404 0.866316 0
M  V30 1736 H 186.236 4.80226 1.34849 0
M  V30 1737 H 185.39 4.80493 3.7042 0
M  V30 1738 H 184.129 3.61544 3.27318 0
M  V30 1739 H 183.134 5.2463 1.64448 0
M  V30 1740 H 184.359 6.45738 2.10238 0
M  V30 1741 H 182.305 5.21931 3.97396 0
M  V30 1742 H 182.222 6.80819 3.28667 0
M  V30 1743 H 183.49 6.42576 4.41267 0
M  V30 1744 N 187.719 -0.156864 1.56817 0
M  V30 1745 C 189.13 -0.717916 1.72345 0
M  V30 1746 C 189.481 -1.82124 0.729747 0
M  V30 1747 O 188.606 -2.16141 -0.105781 0
M  V30 1748 C 189.201 -1.30904 3.12489 0
M  V30 1749 C 187.76 -1.81676 3.29653 0
M  V30 1750 C 186.907 -0.701349 2.68284 0
M  V30 1751 H 189.858 0.0686989 1.58551 0
M  V30 1752 H 189.879 -2.17882 3.11942 0
M  V30 1753 H 189.391 -0.505796 3.8479 0
M  V30 1754 H 187.492 -2.64598 2.62333 0
M  V30 1755 H 187.605 -1.95226 4.3752 0
M  V30 1756 H 185.969 -1.12548 2.28484 0
M  V30 1757 H 186.752 0.0902846 3.43181 0
M  V30 1758 N 189.197 -1.51736 -0.425897 0
M  V30 1759 C 190.608 -1.5732 -1.00536 0
M  V30 1760 C 190.959 -0.403537 -1.92005 0
M  V30 1761 O 190.084 0.478256 -2.11049 0
M  V30 1762 C 190.679 -2.85119 -1.8301 0
M  V30 1763 C 189.238 -2.93236 -2.35987 0
M  V30 1764 C 188.385 -2.52098 -1.15508 0
M  V30 1765 H 191.336 -1.57348 -0.206739 0
M  V30 1766 H 191.357 -2.69526 -2.68581 0
M  V30 1767 H 190.869 -3.7023 -1.16411 0
M  V30 1768 H 188.97 -2.12581 -3.06007 0
M  V30 1769 H 189.083 -3.9713 -2.68001 0
M  V30 1770 H 187.447 -2.05558 -1.50393 0
M  V30 1771 H 188.23 -3.39565 -0.505014 0
M  V30 1772 N 190.675 0.682077 -1.42076 0
M  V30 1773 C 191.903 1.47057 -1.4554 0
M  V30 1774 C 192.318 1.8869 -0.0645779 0
M  V30 1775 O 191.675 1.57666 0.919115 0
M  V30 1776 C 191.726 2.72442 -2.37609 0
M  V30 1777 O 191.447 2.32559 -3.71279 0
M  V30 1778 C 192.948 3.66069 -2.50017 0
M  V30 1779 H 190.168 0.452737 -0.495248 0
M  V30 1780 H 192.712 0.838695 -1.8651 0
M  V30 1781 H 190.867 3.31835 -1.9991 0
M  V30 1782 H 191.281 3.13475 -4.20516 0
M  V30 1783 H 192.755 4.50792 -3.18576 0
M  V30 1784 H 193.232 4.11476 -1.53572 0
M  V30 1785 H 193.838 3.12572 -2.88407 0
M  V30 1786 N 192.153 1.28127 0.917671 0
M  V30 1787 C 193.116 1.11744 2.00115 0
M  V30 1788 C 194.116 0.0583052 1.60694 0
M  V30 1789 O 195.306 0.303755 1.71531 0
M  V30 1790 C 192.438 0.704862 3.33533 0
M  V30 1791 H 193.631 2.07966 2.16079 0
M  V30 1792 H 191.184 1.11058 1.09981 0
M  V30 1793 H 191.919 -0.258299 3.2327 0
M  V30 1794 H 191.704 1.4699 3.63505 0
M  V30 1795 H 193.194 0.612768 4.1308 0
M  V30 1796 N 193.631 -1.12557 1.10312 0
M  V30 1797 C 195.042 -1.65574 0.862678 0
M  V30 1798 C 195.393 -1.86566 -0.607256 0
M  V30 1799 O 194.518 -1.59121 -1.46662 0
M  V30 1800 C 195.113 -3.00776 1.55947 0
M  V30 1801 C 193.672 -3.50748 1.36576 0
M  V30 1802 C 192.819 -2.25797 1.60968 0
M  V30 1803 H 195.77 -0.963552 1.26101 0
M  V30 1804 H 195.791 -3.67185 0.997753 0
M  V30 1805 H 195.303 -2.85465 2.62928 0
M  V30 1806 H 193.404 -3.71245 0.317531 0
M  V30 1807 H 193.517 -4.30289 2.10686 0
M  V30 1808 H 191.881 -2.32841 1.03234 0
M  V30 1809 H 192.664 -2.13043 2.69198 0
M  V30 1810 N 195.109 -0.891671 -1.2995 0
M  V30 1811 C 196.525 -0.58662 -1.48428 0
M  V30 1812 C 196.725 0.873951 -1.81561 0
M  V30 1813 O 195.781 1.65471 -1.90724 0
M  V30 1814 C 197.094 -1.50553 -2.60296 0
M  V30 1815 C 198.642 -1.50988 -2.74175 0
M  V30 1816 C 199.117 -2.41488 -3.89163 0
M  V30 1817 N 200.608 -2.39489 -3.96483 0
M  V30 1818 C 201.343 -3.06223 -4.84784 0
M  V30 1819 N 200.839 -3.82206 -5.77833 0
M  V30 1820 N 202.632 -2.95421 -4.78208 0
M  V30 1821 H 194.783 -1.83644 -1.06718 0
M  V30 1822 H 197.046 -0.786455 -0.529332 0
M  V30 1823 H 196.752 -2.54581 -2.42654 0
M  V30 1824 H 196.626 -1.22008 -3.56923 0
M  V30 1825 H 199.013 -0.47708 -2.91218 0
M  V30 1826 H 199.094 -1.83567 -1.78148 0
M  V30 1827 H 198.738 -3.44857 -3.72876 0
M  V30 1828 H 198.668 -2.06222 -4.84541 0
M  V30 1829 H 201.159 -1.84278 -3.29924 0
M  V30 1830 H 201.472 -4.302 -6.41988 0
M  V30 1831 H 199.817 -3.86313 -5.77743 0
M  V30 1832 H 203.008 -2.35581 -4.04499 0
M  V30 1833 H 203.181 -3.47704 -5.46814 0
M  V30 1834 N 196.587 1.43421 -0.653314 0
M  V30 1835 C 197.52 2.2803 0.0879804 0
M  V30 1836 C 198.498 1.39833 0.82979 0
M  V30 1837 O 199.682 1.69275 0.829341 0
M  V30 1838 C 196.809 3.19247 1.13132 0
M  V30 1839 C 195.855 4.23704 0.487546 0
M  V30 1840 S 196.688 5.30377 -0.738961 0
M  V30 1841 C 197.844 6.25162 0.30384 0
M  V30 1842 H 198.077 2.90554 -0.629739 0
M  V30 1843 H 195.61 1.47934 -0.442156 0
M  V30 1844 H 197.568 3.72346 1.72827 0
M  V30 1845 H 196.229 2.55901 1.82136 0
M  V30 1846 H 195.422 4.87631 1.27407 0
M  V30 1847 H 195.024 3.73983 -0.0352915 0
M  V30 1848 H 197.316 6.67321 1.17 0
M  V30 1849 H 198.259 7.07463 -0.300402 0
M  V30 1850 H 198.667 5.60864 0.63969 0
M  V30 1851 N 198.065 0.39524 1.52563 0
M  V30 1852 C 199.342 -0.242908 1.94086 0
M  V30 1853 C 199.722 -1.63841 1.33114 0
M  V30 1854 O 199.07 -2.22928 0.501529 0
M  V30 1855 C 199.28 -0.26327 3.48006 0
M  V30 1856 C 200.628 -0.489354 4.21771 0
M  V30 1857 O 201.652 -0.343226 3.54543 0
M  V30 1858 O 200.511 -0.776169 5.4096 0
M  V30 1859 H 197.605 -0.152536 0.812811 0
M  V30 1860 H 200.151 0.450178 1.6362 0
M  V30 1861 H 198.923 0.713985 3.84731 0
M  V30 1862 H 198.546 -1.00103 3.84792 0
M  V30 1863 N 199.544 -1.57102 0.125237 0
M  V30 1864 C 200.474 -2.18659 -0.819174 0
M  V30 1865 C 201.455 -1.12843 -1.27281 0
M  V30 1866 O 202.64 -1.41104 -1.33429 0
M  V30 1867 C 199.77 -2.79096 -2.06695 0
M  V30 1868 C 198.724 -3.90548 -1.75088 0
M  V30 1869 C 198.05 -4.37821 -3.06948 0
M  V30 1870 C 199.35 -5.12356 -1.01435 0
M  V30 1871 H 201.044 -2.9783 -0.306202 0
M  V30 1872 H 198.59 -1.4326 -0.145839 0
M  V30 1873 H 200.543 -3.2082 -2.73226 0
M  V30 1874 H 199.267 -1.97223 -2.60328 0
M  V30 1875 H 197.926 -3.49409 -1.10944 0
M  V30 1876 H 197.574 -3.52799 -3.58527 0
M  V30 1877 H 197.274 -5.12982 -2.86571 0
M  V30 1878 H 198.798 -4.822 -3.74587 0
M  V30 1879 H 200.212 -5.5106 -1.58132 0
M  V30 1880 H 198.609 -5.9314 -0.911319 0
M  V30 1881 H 199.679 -4.849 -0.00218681 0
M  V30 1882 N 201.022 0.148545 -1.56898 0
M  V30 1883 C 201.954 1.20852 -1.9475 0
M  V30 1884 C 202.967 1.39265 -0.843152 0
M  V30 1885 O 204.156 1.38864 -1.12156 0
M  V30 1886 C 201.256 2.57362 -2.20495 0
M  V30 1887 C 200.429 2.59947 -3.51776 0
M  V30 1888 C 199.488 3.77984 -3.6608 0
M  V30 1889 O 198.514 3.62929 -4.38487 0
M  V30 1890 N 199.716 4.95375 -3.02629 0
M  V30 1891 H 202.481 0.886804 -2.86279 0
M  V30 1892 H 200.042 0.338121 -1.5833 0
M  V30 1893 H 202.034 3.34833 -2.27307 0
M  V30 1894 H 200.604 2.81832 -1.35238 0
M  V30 1895 H 199.824 1.68403 -3.56419 0
M  V30 1896 H 201.112 2.58704 -4.38121 0
M  V30 1897 H 200.51 5.10509 -2.43715 0
M  V30 1898 H 199.067 5.70627 -3.15004 0
M  V30 1899 N 202.5 1.5196 0.417844 0
M  V30 1900 C 203.432 1.70895 1.52733 0
M  V30 1901 C 204.445 0.589405 1.51756 0
M  V30 1902 O 205.634 0.864312 1.56179 0
M  V30 1903 C 202.734 1.72627 2.91639 0
M  V30 1904 C 201.907 3.01479 3.16905 0
M  V30 1905 C 200.966 2.95139 4.35637 0
M  V30 1906 O 199.992 3.69059 4.3334 0
M  V30 1907 N 201.194 2.12328 5.40275 0
M  V30 1908 H 203.959 2.66612 1.36888 0
M  V30 1909 H 201.52 1.50089 0.607037 0
M  V30 1910 H 203.512 1.65928 3.6912 0
M  V30 1911 H 202.082 0.844216 3.00985 0
M  V30 1912 H 201.302 3.21895 2.27546 0
M  V30 1913 H 202.59 3.86736 3.30625 0
M  V30 1914 H 201.988 1.51685 5.44985 0
M  V30 1915 H 200.545 2.11494 6.16534 0
M  V30 1916 N 203.978 -0.674533 1.42435 0
M  V30 1917 C 205.389 -1.25514 1.38214 0
M  V30 1918 C 205.74 -1.96055 0.0755464 0
M  V30 1919 O 204.865 -2.00028 -0.8257 0
M  V30 1920 C 205.46 -2.28269 2.50357 0
M  V30 1921 C 204.019 -2.81856 2.49467 0
M  V30 1922 C 203.166 -1.56182 2.29134 0
M  V30 1923 H 206.117 -0.467902 1.51646 0
M  V30 1924 H 206.138 -3.10009 2.20624 0
M  V30 1925 H 205.65 -1.769 3.45439 0
M  V30 1926 H 203.751 -3.37346 1.58204 0
M  V30 1927 H 203.864 -3.30854 3.46515 0
M  V30 1928 H 202.228 -1.82761 1.774 0
M  V30 1929 H 203.011 -1.06778 3.26272 0
M  V30 1930 N 205.456 -1.28612 -0.910864 0
M  V30 1931 C 206.419 -1.12803 -1.9952 0
M  V30 1932 C 207.419 -0.0668264 -1.60661 0
M  V30 1933 O 208.609 -0.312847 -1.71368 0
M  V30 1934 C 205.741 -0.72254 -3.33155 0
M  V30 1935 H 206.934 -2.09109 -2.14973 0
M  V30 1936 H 204.487 -1.11639 -1.09391 0
M  V30 1937 H 205.222 0.241152 -3.23402 0
M  V30 1938 H 205.007 -1.48916 -3.62721 0
M  V30 1939 H 206.497 -0.634666 -4.12749 0
M  V30 1940 N 206.934 1.1197 -1.10907 0
M  V30 1941 C 207.897 2.16031 -0.765707 0
M  V30 1942 C 208.897 1.59393 0.212235 0
M  V30 1943 O 210.087 1.74196 -0.0115441 0
M  V30 1944 C 207.219 3.40632 -0.135053 0
M  V30 1945 H 208.412 2.47919 -1.68748 0
M  V30 1946 H 205.965 1.27061 -0.910226 0
M  V30 1947 H 206.7 3.14348 0.797218 0
M  V30 1948 H 206.485 3.8302 -0.838937 0
M  V30 1949 H 207.975 4.17505 0.0892469 0
M  V30 1950 N 208.412 0.89855 1.29475 0
M  V30 1951 C 209.36 0.365253 2.29714 0
M  V30 1952 C 210.354 -0.534993 1.6073 0
M  V30 1953 O 211.56 -0.417921 1.75081 0
M  V30 1954 H 207.935 0.0994853 0.74539 0
M  V30 1955 H 209.906 1.22406 2.72138 0
M  V30 1956 C 208.655 -0.393159 3.4547 0
M  V30 1957 H 207.978 0.290332 3.98744 0
M  V30 1958 H 209.418 -0.731189 4.17648 0
M  V30 1959 C 207.877 -1.59539 2.9673 0
M  V30 1960 O 208.407 -2.69469 2.97908 0
M  V30 1961 N 206.613 -1.43716 2.52575 0
M  V30 1962 H 206.16 -0.542828 2.51816 0
M  V30 1963 H 206.118 -2.24288 2.20323 0
M  V30 1964 N 209.89 -1.43072 0.660911 0
M  V30 1965 C 210.82 -2.33497 -0.0122829 0
M  V30 1966 C 211.801 -1.49903 -0.803925 0
M  V30 1967 O 212.986 -1.78546 -0.763864 0
M  V30 1968 C 210.116 -3.33363 -0.973994 0
M  V30 1969 C 209.07 -4.27003 -0.291928 0
M  V30 1970 C 208.396 -5.16967 -1.36562 0
M  V30 1971 C 209.696 -5.15816 0.820462 0
M  V30 1972 H 211.39 -2.90038 0.742873 0
M  V30 1973 H 208.936 -1.39461 0.358688 0
M  V30 1974 H 210.889 -3.95524 -1.45392 0
M  V30 1975 H 209.613 -2.75095 -1.7604 0
M  V30 1976 H 208.272 -3.66217 0.167623 0
M  V30 1977 H 207.92 -4.55034 -2.14366 0
M  V30 1978 H 207.62 -5.80441 -0.914454 0
M  V30 1979 H 209.144 -5.82003 -1.84675 0
M  V30 1980 H 210.558 -5.71742 0.422366 0
M  V30 1981 H 208.955 -5.8805 1.19656 0
M  V30 1982 H 210.025 -4.55045 1.67518 0
M  V30 1983 N 211.368 -0.403325 -1.52352 0
M  V30 1984 C 212.593 0.176499 -2.06648 0
M  V30 1985 C 213.018 1.38577 -1.27193 0
M  V30 1986 O 212.376 1.7879 -0.300637 0
M  V30 1987 C 212.424 0.511061 -3.5696 0
M  V30 1988 O 211.528 1.60294 -3.79973 0
M  V30 1989 H 210.869 0.0167337 -0.663789 0
M  V30 1990 H 213.399 -0.574848 -1.96359 0
M  V30 1991 H 213.409 0.771362 -4.00642 0
M  V30 1992 H 212.084 -0.37296 -4.14224 0
M  V30 1993 H 210.661 1.33526 -3.48174 0
M  V30 1994 N 212.846 1.57033 -0.133567 0
M  V30 1995 C 213.756 2.19632 0.824564 0
M  V30 1996 C 214.772 1.17666 1.28182 0
M  V30 1997 O 215.948 1.50193 1.3418 0
M  V30 1998 C 213.013 2.79499 2.05137 0
M  V30 1999 C 212.074 3.96548 1.64464 0
M  V30 2000 C 211.307 4.5355 2.81297 0
M  V30 2001 O 211.53 4.09438 3.97136 0
M  V30 2002 O 210.464 5.44018 2.57542 0
M  V30 2003 H 214.29 3.01991 0.321766 0
M  V30 2004 H 211.875 1.49112 0.0927889 0
M  V30 2005 H 213.757 3.17602 2.7696 0
M  V30 2006 H 212.432 2.00162 2.54395 0
M  V30 2007 H 211.339 3.63186 0.897048 0
M  V30 2008 H 212.672 4.77364 1.19934 0
M  V30 2009 N 214.325 -0.140222 1.56975 0
M  V30 2010 C 215.255 -1.17456 2.01808 0
M  V30 2011 C 216.236 -1.44415 0.898794 0
M  V30 2012 O 217.421 -1.5522 1.16707 0
M  V30 2013 C 214.551 -2.50607 2.40444 0
M  V30 2014 C 213.505 -2.38155 3.55621 0
M  V30 2015 C 212.831 -3.76078 3.80091 0
M  V30 2016 C 214.131 -1.85991 4.88062 0
M  V30 2017 H 215.825 -0.801743 2.88466 0
M  V30 2018 H 213.371 -0.38422 1.38779 0
M  V30 2019 H 215.324 -3.23197 2.7041 0
M  V30 2020 H 214.048 -2.89737 1.50732 0
M  V30 2021 H 212.707 -1.68016 3.25832 0
M  V30 2022 H 212.355 -4.12656 2.87618 0
M  V30 2023 H 212.055 -3.68606 4.57606 0
M  V30 2024 H 213.579 -4.50206 4.12488 0
M  V30 2025 H 214.993 -2.4838 5.16701 0
M  V30 2026 H 213.39 -1.89393 5.6943 0
M  V30 2027 H 214.46 -0.816023 4.77984 0
M  V30 2028 N 215.803 -1.52179 -0.40978 0
M  V30 2029 C 217.043 -1.67882 -1.16597 0
M  V30 2030 C 217.407 -0.399795 -1.87791 0
M  V30 2031 O 218.608 -0.43292 -2.65291 0
M  V30 2032 C 216.879 -2.86662 -2.13448 0
M  V30 2033 S 218.438 -3.22843 -2.97183 0
M  V30 2034 H 215.256 -0.59118 -0.395002 0
M  V30 2035 H 217.858 -1.9017 -0.453373 0
M  V30 2036 H 216.562 -3.77998 -1.59831 0
M  V30 2037 H 216.093 -2.66645 -2.89247 0
M  V30 2038 H 218.108 -2.71415 -4.15389 0
M  V30 2039 N 217.281 0.66697 -1.42791 0
M  V30 2040 C 218.697 0.981027 -1.25889 0
M  V30 2041 C 218.897 2.00793 -0.168695 0
M  V30 2042 O 217.953 2.48321 0.45747 0
M  V30 2043 C 219.266 1.47838 -2.61848 0
M  V30 2044 C 220.814 1.59575 -2.69267 0
M  V30 2045 C 221.289 2.12704 -4.05612 0
M  V30 2046 N 222.78 2.20026 -4.07606 0
M  V30 2047 C 223.515 2.62227 -5.09926 0
M  V30 2048 N 223.011 3.03824 -6.22626 0
M  V30 2049 N 224.804 2.62045 -4.97281 0
M  V30 2050 H 216.955 -0.0127891 -2.12396 0
M  V30 2051 H 219.218 0.0568258 -0.946295 0
M  V30 2052 H 218.924 0.798299 -3.4252 0
M  V30 2053 H 218.798 2.45579 -2.86305 0
M  V30 2054 H 221.185 2.26687 -1.88936 0
M  V30 2055 H 221.266 0.60302 -2.48591 0
M  V30 2056 H 220.91 1.46198 -4.86404 0
M  V30 2057 H 220.84 3.12782 -4.23645 0
M  V30 2058 H 223.331 1.90708 -3.2625 0
M  V30 2059 H 223.644 3.34734 -6.96544 0
M  V30 2060 H 221.989 3.01662 -6.26119 0
M  V30 2061 H 225.18 2.28916 -4.08308 0
M  V30 2062 H 225.353 2.94613 -5.77154 0
M  V30 2063 N 218.759 1.29093 0.90403 0
M  V30 2064 C 219.984 1.19809 1.69294 0
M  V30 2065 C 220.409 -0.238481 1.86582 0
M  V30 2066 O 219.767 -1.1723 1.383 0
M  V30 2067 C 219.815 1.91202 3.05736 0
M  V30 2068 O 218.919 1.22611 3.93752 0
M  V30 2069 H 218.26 0.415385 0.518027 0
M  V30 2070 H 220.79 1.70586 1.12967 0
M  V30 2071 H 220.8 1.99487 3.55906 0
M  V30 2072 H 219.475 2.95692 2.92471 0
M  V30 2073 H 218.052 1.22554 3.52186 0
M  V30 2074 N 220.237 -1.11381 1.11499 0
M  V30 2075 C 221.477 -1.84763 0.874188 0
M  V30 2076 C 221.841 -1.82726 -0.589496 0
M  V30 2077 O 223.042 -2.51562 -0.947089 0
M  V30 2078 C 221.313 -3.27931 1.42112 0
M  V30 2079 S 222.872 -4.18557 1.31739 0
M  V30 2080 H 219.69 -0.637115 0.315603 0
M  V30 2081 H 222.292 -1.34097 1.42261 0
M  V30 2082 H 220.996 -3.26978 2.48019 0
M  V30 2083 H 220.527 -3.83665 0.869761 0
M  V30 2084 H 222.542 -4.95396 0.282335 0
M  V30 2085 N 221.715 -0.905404 -1.28997 0
M  V30 2086 C 222.625 -0.392246 -2.31298 0
M  V30 2087 C 223.641 0.515889 -1.66176 0
M  V30 2088 O 224.817 0.404093 -1.97304 0
M  V30 2089 C 221.882 0.36686 -3.44754 0
M  V30 2090 C 220.943 -0.573485 -4.25452 0
M  V30 2091 C 220.176 0.149488 -5.33491 0
M  V30 2092 O 220.399 1.37255 -5.5364 0
M  V30 2093 O 219.333 -0.510919 -5.99728 0
M  V30 2094 H 223.159 -1.2411 -2.77183 0
M  V30 2095 H 220.744 -0.669926 -1.33538 0
M  V30 2096 H 222.626 0.795907 -4.13816 0
M  V30 2097 H 221.301 1.19169 -3.00966 0
M  V30 2098 H 220.208 -1.05176 -3.59011 0
M  V30 2099 H 221.541 -1.36489 -4.72897 0
M  V30 2100 N 223.193 1.4272 -0.668489 0
M  V30 2101 C 224.143 2.27971 0.0363806 0
M  V30 2102 C 225.127 1.40741 0.779794 0
M  V30 2103 O 226.319 1.64245 0.659745 0
M  V30 2104 C 223.448 3.28673 0.991398 0
M  V30 2105 C 222.534 4.23388 0.245658 0
M  V30 2106 N 222.925 5.00267 -0.746069 0
M  V30 2107 C 221.223 4.43355 0.484988 0
M  V30 2108 C 221.924 5.69396 -1.19009 0
M  V30 2109 N 220.9 5.41095 -0.521287 0
M  V30 2110 H 224.702 2.84833 -0.724394 0
M  V30 2111 H 222.216 1.54607 -0.497028 0
M  V30 2112 H 224.213 3.88543 1.51129 0
M  V30 2113 H 222.873 2.73373 1.75207 0
M  V30 2114 H 223.884 5.05525 -1.12537 0
M  V30 2115 H 220.561 3.99104 1.22565 0
M  V30 2116 H 221.951 6.41083 -2.01153 0
M  V30 2117 N 224.671 0.411399 1.52136 0
M  V30 2118 C 226.082 -0.0576826 1.86611 0
M  V30 2119 C 226.433 -1.44238 1.33003 0
M  V30 2120 O 225.558 -2.05759 0.670228 0
M  V30 2121 C 226.153 -0.111448 3.38617 0
M  V30 2122 C 224.712 -0.52487 3.72723 0
M  V30 2123 C 223.859 0.299176 2.75681 0
M  V30 2124 H 226.81 0.628368 1.4573 0
M  V30 2125 H 226.831 -0.926252 3.69054 0
M  V30 2126 H 226.343 0.896488 3.77604 0
M  V30 2127 H 224.444 -1.53936 3.39315 0
M  V30 2128 H 224.557 -0.267681 4.78352 0
M  V30 2129 H 222.921 -0.238814 2.53578 0
M  V30 2130 H 223.704 1.3055 3.17508 0
M  V30 2131 N 226.149 -1.5696 0.141893 0
M  V30 2132 C 227.079 -2.19516 -0.795936 0
M  V30 2133 C 228.06 -1.14187 -1.26077 0
M  V30 2134 O 229.245 -1.42511 -1.31925 0
M  V30 2135 C 226.375 -2.81272 -2.03723 0
M  V30 2136 C 225.329 -3.92384 -1.70936 0
M  V30 2137 C 224.655 -4.41052 -3.02287 0
M  V30 2138 C 225.955 -5.13403 -0.959954 0
M  V30 2139 H 227.649 -2.98138 -0.274596 0
M  V30 2140 H 225.195 -1.43406 -0.130636 0
M  V30 2141 H 227.148 -3.237 -2.69808 0
M  V30 2142 H 225.872 -1.99973 -2.58221 0
M  V30 2143 H 224.531 -3.50566 -1.07232 0
M  V30 2144 H 224.179 -3.56582 -3.54765 0
M  V30 2145 H 223.879 -5.15993 -2.81114 0
M  V30 2146 H 225.403 -4.86146 -3.69451 0
M  V30 2147 H 226.817 -5.52706 -1.52279 0
M  V30 2148 H 225.214 -5.94073 -0.848357 0
M  V30 2149 H 226.284 -4.84875 0.0492434 0
M  V30 2150 N 227.627 0.131896 -1.57047 0
M  V30 2151 C 228.59 1.14638 -1.98471 0
M  V30 2152 C 229.59 1.35029 -0.873148 0
M  V30 2153 O 230.78 1.31764 -1.13946 0
M  V30 2154 C 227.912 2.50358 -2.31373 0
M  V30 2155 H 229.105 0.79064 -2.8929 0
M  V30 2156 H 226.658 0.375761 -1.51716 0
M  V30 2157 H 227.393 2.90876 -1.43393 0
M  V30 2158 H 227.178 2.36915 -3.12432 0
M  V30 2159 H 228.668 3.23395 -2.64207 0
M  V30 2160 N 229.106 1.52395 0.401703 0
M  V30 2161 C 230.383 1.57387 1.16141 0
M  V30 2162 C 230.763 0.359359 2.08019 0
M  V30 2163 O 230.111 -0.65326 2.18963 0
M  V30 2164 C 230.321 2.90631 1.93221 0
M  V30 2165 C 231.669 3.43904 2.49028 0
M  V30 2166 O 232.693 2.92421 2.03393 0
M  V30 2167 O 231.552 4.33823 3.32356 0
M  V30 2168 H 228.646 0.634262 0.530698 0
M  V30 2169 H 231.192 1.64725 0.407883 0
M  V30 2170 H 229.964 3.70473 1.25958 0
M  V30 2171 H 229.587 2.8662 2.75563 0
M  V30 2172 N 230.584 -0.659388 1.43143 0
M  V30 2173 C 231.534 -1.7655 1.44271 0
M  V30 2174 C 232.518 -1.57847 0.311961 0
M  V30 2175 O 233.71 -1.68064 0.555306 0
M  V30 2176 C 230.839 -3.15104 1.36251 0
M  V30 2177 C 229.925 -3.39377 2.54331 0
M  V30 2178 N 230.316 -3.34153 3.79704 0
M  V30 2179 C 228.614 -3.70072 2.48922 0
M  V30 2180 C 229.315 -3.58337 4.58225 0
M  V30 2181 N 228.291 -3.79851 3.88863 0
M  V30 2182 H 232.093 -1.70928 2.39083 0
M  V30 2183 H 229.607 -0.860823 1.37708 0
M  V30 2184 H 231.604 -3.94389 1.35141 0
M  V30 2185 H 230.264 -3.21913 0.424531 0
M  V30 2186 H 231.275 -3.13704 4.1208 0
M  V30 2187 H 227.952 -3.84034 1.63781 0
M  V30 2188 H 229.342 -3.60129 5.67236 0
M  V30 2189 N 232.062 -1.29571 -0.897171 0
M  V30 2190 C 233.308 -1.17863 -1.65034 0
M  V30 2191 C 233.641 0.268729 -1.92332 0
M  V30 2192 O 232.916 1.19378 -1.53555 0
M  V30 2193 C 233.199 -1.995 -2.99786 0
M  V30 2194 C 233.052 -3.5239 -2.79538 0
M  V30 2195 C 234.371 -1.82335 -4.00552 0
M  V30 2196 H 231.49 -0.429528 -0.598895 0
M  V30 2197 H 234.132 -1.59072 -1.03905 0
M  V30 2198 H 232.282 -1.64485 -3.51962 0
M  V30 2199 H 233.954 -3.97401 -2.34244 0
M  V30 2200 H 232.197 -3.77187 -2.14273 0
M  V30 2201 H 232.868 -4.04787 -3.75302 0
M  V30 2202 H 235.344 -2.12924 -3.57495 0
M  V30 2203 H 234.22 -2.41801 -4.92771 0
M  V30 2204 H 234.481 -0.779209 -4.35179 0
M  V30 2205 N 233.54 1.10788 -1.12088 0
M  V30 2206 C 234.765 1.87002 -0.896949 0
M  V30 2207 C 235.19 1.79933 0.548261 0
M  V30 2208 O 234.548 1.16662 1.38779 0
M  V30 2209 C 234.596 3.3349 -1.37174 0
M  V30 2210 O 233.7 4.08745 -0.547831 0
M  V30 2211 H 233.041 0.580397 -0.322545 0
M  V30 2212 H 235.571 1.39996 -1.49206 0
M  V30 2213 H 235.581 3.84339 -1.36922 0
M  V30 2214 H 234.256 3.37951 -2.42408 0
M  V30 2215 H 232.833 3.6776 -0.617034 0
M  V30 2216 N 235.018 0.912232 1.28515 0
M  V30 2217 C 235.968 0.370649 2.24967 0
M  V30 2218 C 236.952 -0.516375 1.52389 0
M  V30 2219 O 238.144 -0.356345 1.73376 0
M  V30 2220 C 235.273 -0.389526 3.41083 0
M  V30 2221 C 234.359 0.51313 4.20984 0
M  V30 2222 N 234.75 1.62604 4.78951 0
M  V30 2223 C 233.048 0.313235 4.44899 0
M  V30 2224 C 233.749 2.18619 5.39055 0
M  V30 2225 N 232.725 1.47765 5.23132 0
M  V30 2226 H 236.527 1.22061 2.67354 0
M  V30 2227 H 234.041 0.764712 1.43269 0
M  V30 2228 H 236.038 -0.794353 4.09262 0
M  V30 2229 H 234.698 -1.2366 3.0023 0
M  V30 2230 H 235.709 2.00864 4.77362 0
M  V30 2231 H 232.386 -0.494452 4.14562 0
M  V30 2232 H 233.776 3.12228 5.94948 0
M  V30 2233 N 236.496 -1.42363 0.676048 0
M  V30 2234 C 237.426 -2.33497 0.0124832 0
M  V30 2235 C 238.407 -1.50748 -0.787981 0
M  V30 2236 O 239.592 -1.79346 -0.744884 0
M  V30 2237 C 236.722 -3.34377 -0.938582 0
M  V30 2238 C 235.676 -4.27289 -0.246622 0
M  V30 2239 C 235.002 -5.18386 -1.31071 0
M  V30 2240 C 236.302 -5.14916 0.875125 0
M  V30 2241 H 237.996 -2.89233 0.773593 0
M  V30 2242 H 235.542 -1.39073 0.37346 0
M  V30 2243 H 237.495 -3.97044 -1.41188 0
M  V30 2244 H 236.219 -2.76947 -1.73113 0
M  V30 2245 H 234.878 -3.66018 0.206456 0
M  V30 2246 H 234.526 -4.57282 -2.09528 0
M  V30 2247 H 234.226 -5.81378 -0.852839 0
M  V30 2248 H 235.75 -5.83929 -1.78492 0
M  V30 2249 H 237.164 -5.71262 0.482983 0
M  V30 2250 H 235.561 -5.86747 1.25887 0
M  V30 2251 H 236.631 -4.53242 1.72335 0
M  V30 2252 N 237.974 -0.419461 -1.51915 0
M  V30 2253 C 238.884 0.407528 -2.31033 0
M  V30 2254 C 239.9 1.04413 -1.3919 0
M  V30 2255 O 241.076 1.0434 -1.72265 0
M  V30 2256 C 238.141 1.50365 -3.12396 0
M  V30 2257 C 237.202 0.889029 -4.19994 0
M  V30 2258 C 236.435 1.93291 -4.97468 0
M  V30 2259 O 236.658 3.15259 -4.75361 0
M  V30 2260 O 235.592 1.53339 -5.8204 0
M  V30 2261 H 239.418 -0.237865 -3.02767 0
M  V30 2262 H 237.003 -0.182413 -1.48282 0
M  V30 2263 H 238.885 2.13975 -3.63032 0
M  V30 2264 H 237.56 2.13345 -2.43445 0
M  V30 2265 H 236.467 0.215353 -3.7348 0
M  V30 2266 H 237.8 0.302991 -4.91267 0
M  V30 2267 N 239.452 1.56882 -0.150215 0
M  V30 2268 C 240.4 2.18214 0.805313 0
M  V30 2269 C 241.394 1.14006 1.25296 0
M  V30 2270 O 242.6 1.3225 1.22107 0
M  V30 2271 H 238.975 0.698762 0.277913 0
M  V30 2272 H 240.946 2.97231 0.263862 0
M  V30 2273 C 239.695 2.82065 2.03309 0
M  V30 2274 H 239.018 3.61968 1.69763 0
M  V30 2275 H 240.458 3.28477 2.68103 0
M  V30 2276 C 238.917 1.80739 2.84315 0
M  V30 2277 O 239.447 1.27983 3.80767 0
M  V30 2278 N 237.653 1.4997 2.48913 0
M  V30 2279 H 237.2 1.93062 1.70542 0
M  V30 2280 H 237.158 0.824217 3.03404 0
M  V30 2281 N 240.93 -0.123565 1.57115 0
M  V30 2282 C 242.176 -0.833386 1.84885 0
M  V30 2283 C 242.509 -1.79742 0.735292 0
M  V30 2284 O 241.784 -1.92764 -0.25925 0
M  V30 2285 C 242.067 -1.5873 3.23228 0
M  V30 2286 C 241.92 -0.643183 4.45178 0
M  V30 2287 C 243.239 -2.54453 3.59085 0
M  V30 2288 H 240.358 -0.301518 0.6725 0
M  V30 2289 H 243 -0.097778 1.89748 0
M  V30 2290 H 241.15 -2.21438 3.19214 0
M  V30 2291 H 242.822 -0.0253015 4.61293 0
M  V30 2292 H 241.065 0.0456139 4.33776 0
M  V30 2293 H 241.736 -1.20724 5.38637 0
M  V30 2294 H 244.212 -2.01853 3.63861 0
M  V30 2295 H 243.088 -3.04238 4.5687 0
M  V30 2296 H 243.349 -3.36906 2.86264 0
M  V30 2297 N 242.408 -1.52605 -0.393616 0
M  V30 2298 C 243.633 -1.71592 -1.16495 0
M  V30 2299 C 244.058 -0.43133 -1.83088 0
M  V30 2300 O 243.416 0.612523 -1.7064 0
M  V30 2301 C 243.464 -2.86318 -2.19213 0
M  V30 2302 O 242.568 -2.52969 -3.257 0
M  V30 2303 H 241.909 -0.570734 -0.33935 0
M  V30 2304 H 244.439 -1.99377 -0.459324 0
M  V30 2305 H 244.449 -3.1168 -2.63286 0
M  V30 2306 H 243.124 -3.79511 -1.7013 0
M  V30 2307 H 241.701 -2.38332 -2.86797 0
M  V30 2308 N 243.887 0.651787 -1.4349 0
M  V30 2309 C 244.797 1.79368 -1.5121 0
M  V30 2310 C 245.813 1.69361 -0.399093 0
M  V30 2311 O 246.989 1.90505 -0.653431 0
M  V30 2312 C 244.054 3.15653 -1.43401 0
M  V30 2313 C 243.115 3.37446 -2.65384 0
M  V30 2314 C 242.348 4.67229 -2.57939 0
M  V30 2315 O 242.571 5.46676 -1.62792 0
M  V30 2316 O 241.505 4.90773 -3.48462 0
M  V30 2317 H 245.331 1.7581 -2.47638 0
M  V30 2318 H 242.916 0.810447 -1.25507 0
M  V30 2319 H 244.798 3.96935 -1.41494 0
M  V30 2320 H 243.473 3.19798 -0.501085 0
M  V30 2321 H 242.38 2.55923 -2.72863 0
M  V30 2322 H 243.713 3.38148 -3.57654 0
M  V30 2323 N 245.365 1.30045 0.890287 0
M  V30 2324 C 246.642 1.09227 1.62262 0
M  V30 2325 C 247.022 -0.360305 2.08002 0
M  V30 2326 O 246.37 -1.35084 1.84295 0
M  V30 2327 C 246.58 2.08835 2.79623 0
M  V30 2328 C 247.928 2.40266 3.50082 0
M  V30 2329 O 248.952 2.07104 2.89804 0
M  V30 2330 O 247.811 2.96967 4.58773 0
M  V30 2331 H 244.905 0.419132 0.712922 0
M  V30 2332 H 247.451 1.41451 0.937529 0
M  V30 2333 H 246.223 3.06633 2.43089 0
M  V30 2334 H 245.846 1.77397 3.55832 0
M  V30 2335 N 246.843 -1.10192 1.12674 0
M  V30 2336 C 247.753 -2.20172 0.810026 0
M  V30 2337 C 248.769 -1.72821 -0.202188 0
M  V30 2338 O 249.945 -2.01369 -0.0351691 0
M  V30 2339 C 247.01 -3.45631 0.272007 0
M  V30 2340 C 246.071 -4.07704 1.34447 0
M  V30 2341 C 245.304 -5.27175 0.832029 0
M  V30 2342 O 245.527 -5.69425 -0.333284 0
M  V30 2343 O 244.461 -5.80168 1.60277 0
M  V30 2344 H 248.287 -2.49701 1.72867 0
M  V30 2345 H 245.872 -1.18977 0.903597 0
M  V30 2346 H 247.754 -4.21394 -0.0230219 0
M  V30 2347 H 246.429 -3.17723 -0.619164 0
M  V30 2348 H 245.336 -3.33614 1.6927 0
M  V30 2349 H 246.669 -4.3982 2.2095 0
M  V30 2350 N 248.321 -0.919034 -1.28029 0
M  V30 2351 C 249.57 -0.550802 -1.94034 0
M  V30 2352 C 249.883 0.910877 -1.73096 0
M  V30 2353 O 251.089 1.3875 -2.33368 0
M  V30 2354 C 249.545 -0.934249 -3.47563 0
M  V30 2355 C 249.153 -2.41602 -3.7727 0
M  V30 2356 C 250.897 -0.636854 -4.19696 0
M  V30 2357 C 248.804 -2.73932 -5.24133 0
M  V30 2358 H 247.734 -0.202273 -0.726362 0
M  V30 2359 H 250.385 -1.11867 -1.45458 0
M  V30 2360 H 248.767 -0.295115 -3.94899 0
M  V30 2361 H 249.941 -3.10233 -3.40723 0
M  V30 2362 H 248.256 -2.68441 -3.18321 0
M  V30 2363 H 250.853 -0.855005 -5.2782 0
M  V30 2364 H 251.196 0.425575 -4.14119 0
M  V30 2365 H 251.729 -1.23469 -3.78154 0
M  V30 2366 H 248.468 -3.79049 -5.34792 0
M  V30 2367 H 247.988 -2.09942 -5.61858 0
M  V30 2368 H 249.667 -2.61215 -5.91925 0
M  V30 2369 N 249.799 1.42003 -0.683588 0
M  V30 2370 C 250.747 2.326 0.000815408 0
M  V30 2371 C 251.741 1.50308 0.781278 0
M  V30 2372 O 252.947 1.66322 0.688251 0
M  V30 2373 H 249.322 0.751758 0.0190616 0
M  V30 2374 H 251.293 2.88011 -0.780528 0
M  V30 2375 C 250.042 3.34978 0.93195 0
M  V30 2376 H 249.365 3.98345 0.340817 0
M  V30 2377 H 250.805 4.00936 1.37936 0
M  V30 2378 C 249.264 2.67925 2.04249 0
M  V30 2379 O 249.794 2.51788 3.12995 0
M  V30 2380 N 248 2.2681 1.81675 0
M  V30 2381 H 247.547 2.40135 0.932363 0
M  V30 2382 H 247.505 1.8228 2.56167 0
M  V30 2383 N 251.277 0.427512 1.51691 0
M  V30 2384 C 252.693 0.0792977 1.59403 0
M  V30 2385 C 252.893 -1.41035 1.43914 0
M  V30 2386 O 251.949 -2.17922 1.27539 0
M  V30 2387 C 253.262 0.590636 2.94842 0
M  V30 2388 C 254.81 0.550215 3.08126 0
M  V30 2389 C 255.285 1.03836 4.46074 0
M  V30 2390 N 256.776 0.995943 4.52366 0
M  V30 2391 C 257.511 1.34463 5.57411 0
M  V30 2392 N 257.007 1.76569 6.69922 0
M  V30 2393 N 258.8 1.26343 5.47717 0
M  V30 2394 H 250.951 1.39687 1.60004 0
M  V30 2395 H 253.214 0.575003 0.753708 0
M  V30 2396 H 252.92 1.63251 3.11516 0
M  V30 2397 H 252.794 0.0102061 3.77199 0
M  V30 2398 H 255.181 -0.482654 2.91126 0
M  V30 2399 H 255.262 1.16693 2.27632 0
M  V30 2400 H 254.906 2.06965 4.63819 0
M  V30 2401 H 254.836 0.398286 5.25092 0
M  V30 2402 H 257.327 0.68661 3.7161 0
M  V30 2403 H 257.64 2.01438 7.46085 0
M  V30 2404 H 255.985 1.80488 6.71155 0
M  V30 2405 H 259.176 0.933209 4.58703 0
M  V30 2406 H 259.349 1.53846 6.29472 0
M  V30 2407 N 252.755 -1.56801 0.158532 0
M  V30 2408 C 253.685 -2.20347 -0.772609 0
M  V30 2409 C 254.666 -1.15518 -1.24859 0
M  V30 2410 O 255.851 -1.43902 -1.30406 0
M  V30 2411 C 252.981 -2.83417 -2.00729 0
M  V30 2412 C 251.935 -3.94174 -1.66765 0
M  V30 2413 C 251.261 -4.44233 -2.97592 0
M  V30 2414 C 252.561 -5.14392 -0.905447 0
M  V30 2415 H 254.255 -2.98413 -0.242959 0
M  V30 2416 H 251.801 -1.43537 -0.115419 0
M  V30 2417 H 253.754 -3.26543 -2.6636 0
M  V30 2418 H 252.478 -2.02701 -2.56086 0
M  V30 2419 H 251.137 -3.51684 -1.03508 0
M  V30 2420 H 250.785 -3.60325 -3.50963 0
M  V30 2421 H 250.485 -5.18945 -2.75626 0
M  V30 2422 H 252.009 -4.90037 -3.64274 0
M  V30 2423 H 253.423 -5.5429 -1.46408 0
M  V30 2424 H 251.82 -5.9494 -0.7853 0
M  V30 2425 H 252.89 -4.84795 0.100668 0
M  V30 2426 N 254.233 0.115231 -1.57178 0
M  V30 2427 C 255.163 1.1423 -2.03651 0
M  V30 2428 C 256.144 1.42967 -0.921655 0
M  V30 2429 O 257.329 1.53343 -1.19162 0
M  V30 2430 C 254.459 2.4675 -2.44401 0
M  V30 2431 C 253.413 2.32467 -3.59365 0
M  V30 2432 C 252.739 3.69984 -3.86026 0
M  V30 2433 C 254.039 1.78203 -4.90959 0
M  V30 2434 H 255.733 0.755749 -2.89705 0
M  V30 2435 H 253.279 0.362093 -1.39373 0
M  V30 2436 H 255.232 3.18854 -2.75517 0
M  V30 2437 H 253.956 2.87302 -1.55322 0
M  V30 2438 H 252.615 1.62811 -3.28463 0
M  V30 2439 H 252.263 4.08028 -2.94147 0
M  V30 2440 H 251.963 3.61279 -4.63412 0
M  V30 2441 H 253.487 4.43587 -4.19599 0
M  V30 2442 H 254.901 2.40128 -5.20587 0
M  V30 2443 H 253.298 1.8031 -5.72371 0
M  V30 2444 H 254.368 0.739876 -4.79222 0
M  V30 2445 N 255.711 1.52812 0.385517 0
M  V30 2446 C 256.959 1.67694 1.12797 0
M  V30 2447 C 257.28 0.421115 1.90399 0
M  V30 2448 O 256.55 -0.564551 1.87589 0
M  V30 2449 H 255.13 0.618155 0.419396 0
M  V30 2450 H 257.792 1.89938 0.436972 0
M  V30 2451 H 256.888 2.52896 1.82894 0
M  V30 2452 N 257.189 -0.644168 1.43834 0
M  V30 2453 C 258.122 -1.76906 1.44151 0
M  V30 2454 C 259.1 -1.59774 0.301857 0
M  V30 2455 O 260.284 -1.81834 0.496841 0
M  V30 2456 C 257.411 -3.14321 1.26174 0
M  V30 2457 C 256.457 -3.50134 2.43533 0
M  V30 2458 S 257.29 -3.49085 4.06079 0
M  V30 2459 C 258.446 -4.89142 3.90501 0
M  V30 2460 H 258.679 -1.76368 2.39336 0
M  V30 2461 H 256.212 -0.817624 1.30974 0
M  V30 2462 H 258.17 -3.93625 1.16489 0
M  V30 2463 H 256.831 -3.12412 0.325224 0
M  V30 2464 H 256.024 -4.50095 2.26783 0
M  V30 2465 H 255.626 -2.78264 2.4989 0
M  V30 2466 H 257.918 -5.78036 3.53385 0
M  V30 2467 H 258.861 -5.10945 4.90246 0
M  V30 2468 H 259.269 -4.63102 3.22795 0
M  V30 2469 N 258.668 -1.30515 -0.883378 0
M  V30 2470 C 259.914 -1.19607 -1.63774 0
M  V30 2471 C 260.247 0.248314 -1.92606 0
M  V30 2472 O 259.522 1.17742 -1.54813 0
M  V30 2473 C 259.805 -2.02669 -2.97653 0
M  V30 2474 C 259.658 -3.55335 -2.75784 0
M  V30 2475 C 260.977 -1.86573 -3.98596 0
M  V30 2476 H 258.096 -0.435856 -0.594305 0
M  V30 2477 H 260.738 -1.60165 -1.02212 0
M  V30 2478 H 258.888 -1.68208 -3.50197 0
M  V30 2479 H 260.56 -3.99863 -2.30016 0
M  V30 2480 H 258.803 -3.79438 -2.1026 0
M  V30 2481 H 259.474 -4.08745 -3.70988 0
M  V30 2482 H 261.95 -2.16703 -3.55217 0
M  V30 2483 H 260.826 -2.47014 -4.90179 0
M  V30 2484 H 261.087 -0.825321 -4.34328 0
M  V30 2485 N 260.146 1.09593 -1.13257 0
M  V30 2486 C 261.392 1.82003 -0.89458 0
M  V30 2487 C 261.725 1.85402 0.577906 0
M  V30 2488 O 261 1.32099 1.42759 0
M  V30 2489 C 261.283 3.28237 -1.48096 0
M  V30 2490 C 261.136 3.3312 -3.02244 0
M  V30 2491 C 262.455 4.24871 -1.14774 0
M  V30 2492 H 259.574 0.66077 -0.326424 0
M  V30 2493 H 262.216 1.28389 -1.40058 0
M  V30 2494 H 260.366 3.74024 -1.05062 0
M  V30 2495 H 262.038 2.95748 -3.54021 0
M  V30 2496 H 260.281 2.72756 -3.37323 0
M  V30 2497 H 260.952 4.3613 -3.38371 0
M  V30 2498 H 263.428 3.87361 -1.51957 0
M  V30 2499 H 262.304 5.25532 -1.58452 0
M  V30 2500 H 262.565 4.42058 -0.0611849 0
M  V30 2501 N 261.624 0.925811 1.2754 0
M  V30 2502 C 262.901 0.483726 1.89524 0
M  V30 2503 C 263.281 -1.03809 1.83812 0
M  V30 2504 O 262.629 -1.89143 1.28207 0
M  V30 2505 C 262.839 1.02769 3.33526 0
M  V30 2506 C 264.187 1.08703 4.10449 0
M  V30 2507 O 265.211 0.977175 3.42534 0
M  V30 2508 O 264.07 1.25599 5.31871 0
M  V30 2509 H 261.164 0.15529 0.812289 0
M  V30 2510 H 263.71 1.01738 1.35822 0
M  V30 2511 H 262.482 2.07155 3.31967 0
M  V30 2512 H 262.105 0.475567 3.94746 0
M  V30 2513 N 263.102 -1.41638 0.69111 0
M  V30 2514 C 264.348 -2.01598 0.220519 0
M  V30 2515 C 264.681 -1.54594 -1.17535 0
M  V30 2516 O 263.956 -0.755177 -1.79241 0
M  V30 2517 C 264.239 -3.59062 0.273243 0
M  V30 2518 C 264.092 -4.16203 1.70573 0
M  V30 2519 C 265.411 -4.38546 -0.369457 0
M  V30 2520 H 262.53 -0.732468 0.0816045 0
M  V30 2521 H 265.172 -1.68445 0.878986 0
M  V30 2522 H 263.322 -3.87435 -0.287411 0
M  V30 2523 H 264.994 -3.98722 2.31989 0
M  V30 2524 H 263.237 -3.71414 2.2413 0
M  V30 2525 H 263.908 -5.25358 1.69419 0
M  V30 2526 H 266.384 -4.1596 0.107977 0
M  V30 2527 H 265.26 -5.48069 -0.302002 0
M  V30 2528 H 265.521 -4.17662 -1.44951 0
M  V30 2529 N 264.58 -0.43555 -1.51462 0
M  V30 2530 C 265.49 0.383001 -2.31453 0
M  V30 2531 C 266.506 1.02931 -1.4029 0
M  V30 2532 O 267.682 1.02507 -1.73362 0
M  V30 2533 C 264.747 1.47043 -3.13973 0
M  V30 2534 C 263.808 0.844433 -4.20913 0
M  V30 2535 C 263.041 1.88004 -4.9949 0
M  V30 2536 O 263.264 3.10199 -4.78678 0
M  V30 2537 O 262.198 1.47157 -5.83634 0
M  V30 2538 H 266.024 -0.269964 -3.02498 0
M  V30 2539 H 263.609 -0.19813 -1.4808 0
M  V30 2540 H 265.491 2.10113 -3.65281 0
M  V30 2541 H 264.166 2.10751 -2.45695 0
M  V30 2542 H 263.073 0.175729 -3.73687 0
M  V30 2543 H 264.406 0.250869 -4.9156 0
M  V30 2544 N 266.058 1.56714 -0.166846 0
M  V30 2545 C 267.006 2.19056 0.782123 0
M  V30 2546 C 268 1.15328 1.24079 0
M  V30 2547 O 269.206 1.33537 1.20697 0
M  V30 2548 H 265.581 0.70167 0.270486 0
M  V30 2549 H 267.552 2.97494 0.232322 0
M  V30 2550 C 266.301 2.84206 2.00306 0
M  V30 2551 H 265.624 3.63748 1.65914 0
M  V30 2552 H 267.064 3.31302 2.64604 0
M  V30 2553 C 265.523 1.83744 2.82382 0
M  V30 2554 O 266.053 1.32014 3.79388 0
M  V30 2555 N 264.259 1.52601 2.47308 0
M  V30 2556 H 263.806 1.9486 1.68485 0
M  V30 2557 H 263.764 0.856351 3.02513 0
M  V30 2558 N 267.536 -0.106894 1.57237 0
M  V30 2559 C 268.466 -1.13148 2.04254 0
M  V30 2560 C 269.447 -1.42476 0.929224 0
M  V30 2561 O 270.632 -1.52709 1.19973 0
M  V30 2562 C 267.762 -2.4545 2.45706 0
M  V30 2563 C 266.716 -2.30558 3.60592 0
M  V30 2564 C 266.042 -3.67931 3.87983 0
M  V30 2565 C 267.342 -1.75597 4.91897 0
M  V30 2566 H 269.036 -0.740374 2.90101 0
M  V30 2567 H 266.582 -0.354696 1.39563 0
M  V30 2568 H 268.535 -3.17389 2.77205 0
M  V30 2569 H 267.259 -2.86475 1.56843 0
M  V30 2570 H 265.918 -1.61067 3.29322 0
M  V30 2571 H 265.566 -4.06462 2.96306 0
M  V30 2572 H 265.266 -3.58817 4.65322 0
M  V30 2573 H 266.79 -4.41356 4.21945 0
M  V30 2574 H 268.204 -2.37364 5.21854 0
M  V30 2575 H 266.601 -1.77272 5.73319 0
M  V30 2576 H 267.671 -0.714451 4.79608 0
M  V30 2577 N 269.014 -1.53014 -0.377408 0
M  V30 2578 C 270.261 -1.68623 -1.12128 0
M  V30 2579 C 270.589 -0.431997 -1.89642 0
M  V30 2580 O 269.844 0.585855 -1.86725 0
M  V30 2581 C 270.143 -2.87982 -2.11663 0
M  V30 2582 C 269.809 -4.24964 -1.50719 0
M  V30 2583 C 268.471 -4.62217 -1.33825 0
M  V30 2584 C 270.823 -5.10199 -1.06519 0
M  V30 2585 C 268.151 -5.82352 -0.712963 0
M  V30 2586 C 270.503 -6.30969 -0.453955 0
M  V30 2587 C 269.167 -6.66944 -0.272411 0
M  V30 2588 H 268.437 -0.617034 -0.410305 0
M  V30 2589 H 271.084 -1.8718 -0.404484 0
M  V30 2590 H 269.389 -2.63889 -2.89603 0
M  V30 2591 H 271.086 -2.97253 -2.6915 0
M  V30 2592 H 267.676 -3.95626 -1.64858 0
M  V30 2593 H 271.86 -4.81978 -1.18368 0
M  V30 2594 H 267.116 -6.08824 -0.560611 0
M  V30 2595 H 271.29 -6.96324 -0.103217 0
M  V30 2596 H 268.917 -7.59898 0.214181 0
M  V30 2597 N 270.492 0.636531 -1.44174 0
M  V30 2598 C 271.425 1.76139 -1.45087 0
M  V30 2599 C 272.403 1.59611 -0.310326 0
M  V30 2600 O 273.587 1.81568 -0.506477 0
M  V30 2601 C 270.714 3.13648 -1.27839 0
M  V30 2602 C 269.76 3.48838 -2.45386 0
M  V30 2603 S 270.593 3.46927 -4.07924 0
M  V30 2604 C 271.749 4.87064 -3.9309 0
M  V30 2605 H 271.982 1.75096 -2.40268 0
M  V30 2606 H 269.515 0.810666 -1.31406 0
M  V30 2607 H 271.473 3.93002 -1.18575 0
M  V30 2608 H 270.134 3.12235 -0.341787 0
M  V30 2609 H 269.327 4.48886 -2.29167 0
M  V30 2610 H 268.929 2.76935 -2.51362 0
M  V30 2611 H 271.221 5.76153 -3.56446 0
M  V30 2612 H 272.164 5.08337 -4.92949 0
M  V30 2613 H 272.572 4.61384 -3.25246 0
M  V30 2614 N 271.97 1.30982 0.876444 0
M  V30 2615 C 273.195 1.23373 1.66715 0
M  V30 2616 C 273.62 -0.19885 1.87046 0
M  V30 2617 O 272.978 -1.1427 1.40756 0
M  V30 2618 C 273.026 1.97644 3.01611 0
M  V30 2619 O 272.13 1.30935 3.91062 0
M  V30 2620 H 271.471 0.426279 0.509099 0
M  V30 2621 H 274.001 1.72944 1.09323 0
M  V30 2622 H 274.011 2.06992 3.51594 0
M  V30 2623 H 272.686 3.01829 2.86133 0
M  V30 2624 H 271.263 1.29996 3.49507 0
M  V30 2625 N 273.449 -1.08991 1.13837 0
M  V30 2626 C 274.695 -1.81526 0.90422 0
M  V30 2627 C 275.028 -1.85706 -0.568066 0
M  V30 2628 O 274.303 -1.32855 -1.42056 0
M  V30 2629 C 274.586 -3.27447 1.49835 0
M  V30 2630 C 274.439 -3.31512 3.04006 0
M  V30 2631 C 275.758 -4.24256 1.17025 0
M  V30 2632 H 272.877 -0.659029 0.329923 0
M  V30 2633 H 275.519 -1.27644 1.40737 0
M  V30 2634 H 273.669 -3.73462 1.07044 0
M  V30 2635 H 275.341 -2.93867 3.55584 0
M  V30 2636 H 273.584 -2.70963 3.38765 0
M  V30 2637 H 274.255 -4.34329 3.40679 0
M  V30 2638 H 276.731 -3.86549 1.54009 0
M  V30 2639 H 275.607 -5.24684 1.61237 0
M  V30 2640 H 275.868 -4.42019 0.0846274 0
M  V30 2641 N 274.927 -0.932562 -1.27047 0
M  V30 2642 C 275.877 -0.406392 -2.24349 0
M  V30 2643 C 276.861 0.492066 -1.53191 0
M  V30 2644 O 278.053 0.328717 -1.73921 0
M  V30 2645 C 275.182 0.335214 -3.41659 0
M  V30 2646 C 274.268 -0.58004 -4.20115 0
M  V30 2647 N 274.659 -1.70203 -4.76303 0
M  V30 2648 C 272.957 -0.383974 -4.44344 0
M  V30 2649 C 273.658 -2.27167 -5.35509 0
M  V30 2650 N 272.634 -1.56068 -5.20715 0
M  V30 2651 H 276.436 -1.26299 -2.65378 0
M  V30 2652 H 273.95 -0.787408 -1.42034 0
M  V30 2653 H 275.947 0.729142 -4.10474 0
M  V30 2654 H 274.607 1.18868 -3.0216 0
M  V30 2655 H 275.618 -2.08433 -4.74106 0
M  V30 2656 H 272.295 0.428436 -4.15296 0
M  V30 2657 H 273.685 -3.21654 -5.89905 0
M  V30 2658 N 276.405 1.4127 -0.698611 0
M  V30 2659 C 277.352 2.30773 -0.0352094 0
M  V30 2660 C 278.322 1.47273 0.768111 0
M  V30 2661 O 279.507 1.76053 0.735524 0
M  V30 2662 C 276.647 3.33346 0.893 0
M  V30 2663 C 275.76 4.31924 0.0809695 0
M  V30 2664 C 274.895 5.21566 1.0071 0
M  V30 2665 C 273.934 6.11811 0.188155 0
M  V30 2666 N 273.071 6.93926 1.06825 0
M  V30 2667 H 277.911 2.86943 -0.804207 0
M  V30 2668 H 275.448 1.4132 -0.408294 0
M  V30 2669 H 277.406 3.91368 1.44523 0
M  V30 2670 H 276.036 2.78719 1.62836 0
M  V30 2671 H 275.088 3.75825 -0.588224 0
M  V30 2672 H 276.4 4.95716 -0.553801 0
M  V30 2673 H 275.554 5.84437 1.62845 0
M  V30 2674 H 274.293 4.58008 1.67572 0
M  V30 2675 H 273.298 5.47986 -0.446254 0
M  V30 2676 H 274.523 6.77425 -0.476716 0
M  V30 2677 H 272.469 6.32973 1.72283 0
M  V30 2678 H 272.386 7.54416 0.489123 0
M  V30 2679 H 273.654 7.61262 1.67632 0
M  V30 2680 N 277.883 0.443576 1.51229 0
M  V30 2681 C 278.793 -0.370721 2.31652 0
M  V30 2682 C 279.809 -1.02186 1.40833 0
M  V30 2683 O 280.985 -1.01586 1.73903 0
M  V30 2684 C 278.05 -1.45376 3.14749 0
M  V30 2685 C 277.111 -0.822099 4.21355 0
M  V30 2686 C 276.344 -1.85353 5.0048 0
M  V30 2687 O 276.567 -3.07656 4.80316 0
M  V30 2688 O 275.501 -1.4406 5.84406 0
M  V30 2689 H 279.327 0.286002 3.0235 0
M  V30 2690 H 276.912 0.20598 1.47973 0
M  V30 2691 H 278.794 -2.08173 3.66391 0
M  V30 2692 H 277.469 -2.09445 2.46809 0
M  V30 2693 H 276.376 -0.155909 3.73775 0
M  V30 2694 H 277.709 -0.224797 4.91686 0
M  V30 2695 N 279.361 -1.56624 0.175154 0
M  V30 2696 C 280.271 -2.21741 -0.766042 0
M  V30 2697 C 281.287 -1.21023 -1.25018 0
M  V30 2698 O 282.463 -1.53697 -1.3015 0
M  V30 2699 C 279.528 -2.84839 -1.97655 0
M  V30 2700 C 278.589 -4.00769 -1.53892 0
M  V30 2701 C 277.822 -4.60849 -2.69173 0
M  V30 2702 O 278.045 -4.19823 -3.86141 0
M  V30 2703 O 276.979 -5.50655 -2.43028 0
M  V30 2704 H 280.805 -3.02738 -0.241585 0
M  V30 2705 H 278.39 -1.49305 -0.053222 0
M  V30 2706 H 280.272 -3.24834 -2.68442 0
M  V30 2707 H 278.947 -2.06836 -2.48999 0
M  V30 2708 H 277.854 -3.65436 -0.80044 0
M  V30 2709 H 279.187 -4.80376 -1.07236 0
M  V30 2710 N 280.839 0.0985539 -1.57292 0
M  V30 2711 C 282.116 0.834155 -1.76921 0
M  V30 2712 C 282.496 1.97101 -0.755928 0
M  V30 2713 O 281.844 2.27474 0.216245 0
M  V30 2714 C 282.054 1.33194 -3.22584 0
M  V30 2715 C 283.402 1.77611 -3.85668 0
M  V30 2716 O 284.426 1.42825 -3.26312 0
M  V30 2717 O 283.285 2.4192 -4.90038 0
M  V30 2718 H 280.379 0.397628 -0.725135 0
M  V30 2719 H 282.925 0.0807044 -1.69508 0
M  V30 2720 H 281.697 0.517248 -3.87866 0
M  V30 2721 H 281.32 2.1475 -3.34616 0
M  V30 2722 N 282.317 1.53212 0.369288 0
M  V30 2723 C 283.545 1.73119 1.13303 0
M  V30 2724 C 283.96 0.458455 1.83149 0
M  V30 2725 O 283.317 -0.568403 1.73423 0
M  V30 2726 C 283.368 2.89413 2.16616 0
M  V30 2727 O 283.089 4.11761 1.49614 0
M  V30 2728 C 284.59 3.21161 3.05566 0
M  V30 2729 H 281.81 0.579107 0.338934 0
M  V30 2730 H 284.354 1.99942 0.429338 0
M  V30 2731 H 282.509 2.64994 2.82589 0
M  V30 2732 H 282.923 4.76858 2.18419 0
M  V30 2733 H 284.397 4.05949 3.74045 0
M  V30 2734 H 284.874 2.36369 3.70171 0
M  V30 2735 H 285.48 3.47492 2.45213 0
M  V30 2736 N 283.795 -0.628877 1.44509 0
M  V30 2737 C 285.072 -1.38733 1.37886 0
M  V30 2738 C 285.452 -2.11065 0.0387008 0
M  V30 2739 O 284.8 -2.06476 -0.97878 0
M  V30 2740 C 285.01 -2.35188 2.57852 0
M  V30 2741 C 286.358 -2.9845 3.02014 0
M  V30 2742 O 287.382 -2.45513 2.58073 0
M  V30 2743 O 286.241 -3.94487 3.78209 0
M  V30 2744 H 283.335 -0.621015 0.54614 0
M  V30 2745 H 285.881 -0.653744 1.56602 0
M  V30 2746 H 284.653 -1.80855 3.46998 0
M  V30 2747 H 284.276 -3.1596 2.4136 0
M  V30 2748 N 285.273 -1.31445 -0.869486 0
M  V30 2749 C 286.501 -1.24122 -1.65534 0
M  V30 2750 C 286.916 0.193387 -1.87807 0
M  V30 2751 O 286.273 1.12557 -1.43656 0
M  V30 2752 C 286.324 -1.98229 -3.02304 0
M  V30 2753 O 286.045 -3.3609 -2.81026 0
M  V30 2754 C 287.546 -1.97751 -3.96749 0
M  V30 2755 H 284.766 -0.428868 -0.516055 0
M  V30 2756 H 287.31 -1.73328 -1.08525 0
M  V30 2757 H 285.465 -1.52782 -3.56001 0
M  V30 2758 H 285.879 -3.7383 -3.67902 0
M  V30 2759 H 287.353 -2.54114 -4.90031 0
M  V30 2760 H 287.83 -0.960137 -4.28577 0
M  V30 2761 H 288.436 -2.43079 -3.48988 0
M  V30 2762 N 286.751 1.08385 -1.14413 0
M  V30 2763 C 287.698 2.15311 -0.831265 0
M  V30 2764 C 288.668 1.64751 0.211292 0
M  V30 2765 O 289.853 1.90627 0.0811674 0
M  V30 2766 C 286.993 3.43658 -0.315143 0
M  V30 2767 C 286.106 4.08064 -1.41802 0
M  V30 2768 C 285.241 5.24207 -0.859126 0
M  V30 2769 C 284.28 5.80554 -1.93967 0
M  V30 2770 N 283.417 6.88042 -1.39793 0
M  V30 2771 H 288.257 2.41415 -1.74708 0
M  V30 2772 H 285.794 1.18474 -0.871909 0
M  V30 2773 H 287.752 4.172 0.00230884 0
M  V30 2774 H 286.382 3.17839 0.56378 0
M  V30 2775 H 285.434 3.3228 -1.85187 0
M  V30 2776 H 286.746 4.45962 -2.23427 0
M  V30 2777 H 285.9 6.04689 -0.49359 0
M  V30 2778 H 284.639 4.87699 -0.011932 0
M  V30 2779 H 283.644 4.98725 -2.31415 0
M  V30 2780 H 284.869 6.19121 -2.79046 0
M  V30 2781 H 282.815 6.53493 -0.572919 0
M  V30 2782 H 282.732 7.24767 -2.15054 0
M  V30 2783 H 284 7.72255 -1.0603 0
M  V30 2784 N 288.23 0.939286 1.26551 0
M  V30 2785 C 289.162 0.404704 2.25599 0
M  V30 2786 C 290.175 -0.470983 1.55838 0
M  V30 2787 O 291.364 -0.281734 1.76263 0
M  V30 2788 C 288.464 -0.43764 3.36062 0
M  V30 2789 C 287.637 0.421449 4.35365 0
M  V30 2790 C 286.696 -0.36015 5.24966 0
M  V30 2791 O 285.722 0.236167 5.6871 0
M  V30 2792 N 286.924 -1.65715 5.56344 0
M  V30 2793 H 289.689 1.25618 2.72103 0
M  V30 2794 H 287.25 0.807963 1.40298 0
M  V30 2795 H 289.242 -0.967866 3.92956 0
M  V30 2796 H 287.812 -1.18991 2.89067 0
M  V30 2797 H 287.032 1.1329 3.7757 0
M  V30 2798 H 288.32 1.00835 4.98708 0
M  V30 2799 H 287.718 -2.16378 5.22682 0
M  V30 2800 H 286.275 -2.13366 6.15888 0
M  V30 2801 N 289.708 -1.40897 0.706093 0
M  V30 2802 C 290.954 -2.01352 0.241889 0
M  V30 2803 C 291.287 -1.55832 -1.15888 0
M  V30 2804 O 290.562 -0.774145 -1.7843 0
M  V30 2805 C 290.845 -3.58752 0.311311 0
M  V30 2806 C 290.698 -4.1437 1.74978 0
M  V30 2807 C 292.017 -4.38914 -0.322922 0
M  V30 2808 H 289.136 -0.731562 0.0893687 0
M  V30 2809 H 291.778 -1.67504 0.896802 0
M  V30 2810 H 289.928 -3.87718 -0.246302 0
M  V30 2811 H 291.6 -3.96239 2.36205 0
M  V30 2812 H 289.843 -3.69016 2.28057 0
M  V30 2813 H 290.514 -5.23532 1.74981 0
M  V30 2814 H 292.99 -4.15822 0.152089 0
M  V30 2815 H 291.866 -5.48358 -0.243855 0
M  V30 2816 H 292.127 -4.19176 -1.40513 0
M  V30 2817 N 291.186 -0.45159 -1.50991 0
M  V30 2818 C 292.416 0.108177 -2.06317 0
M  V30 2819 C 292.824 1.35774 -1.31765 0
M  V30 2820 O 292.167 1.79838 -0.374694 0
M  V30 2821 C 292.229 0.481659 -3.56259 0
M  V30 2822 C 291.893 -0.663114 -4.52163 0
M  V30 2823 C 292.89 -1.53947 -4.96585 0
M  V30 2824 C 290.575 -0.8479 -4.95092 0
M  V30 2825 C 292.569 -2.58518 -5.82621 0
M  V30 2826 C 290.256 -1.89686 -5.80915 0
M  V30 2827 C 291.254 -2.76388 -6.24579 0
M  V30 2828 O 290.942 -3.79482 -7.08695 0
M  V30 2829 H 290.674 0.00499183 -0.675982 0
M  V30 2830 H 293.228 -0.633659 -1.95381 0
M  V30 2831 H 291.458 1.27641 -3.65027 0
M  V30 2832 H 293.147 0.974233 -3.94035 0
M  V30 2833 H 293.913 -1.4083 -4.64103 0
M  V30 2834 H 289.792 -0.18258 -4.60638 0
M  V30 2835 H 293.336 -3.26224 -6.16623 0
M  V30 2836 H 289.233 -2.02817 -6.12809 0
M  V30 2837 H 290.001 -3.76234 -7.26905 0
M  V30 2838 N 292.664 1.56529 -0.183458 0
M  V30 2839 C 293.911 1.97244 0.458357 0
M  V30 2840 C 294.239 1.06992 1.62428 0
M  V30 2841 O 293.494 0.106542 1.9541 0
M  V30 2842 C 293.793 3.43939 0.971637 0
M  V30 2843 C 293.459 4.5083 -0.0796784 0
M  V30 2844 C 292.121 4.79786 -0.368584 0
M  V30 2845 C 294.473 5.15138 -0.792638 0
M  V30 2846 C 291.801 5.70345 -1.37563 0
M  V30 2847 C 294.153 6.06784 -1.78875 0
M  V30 2848 C 292.817 6.34102 -2.08497 0
M  V30 2849 H 292.087 0.721768 0.167725 0
M  V30 2850 H 294.734 1.89472 -0.277976 0
M  V30 2851 H 293.039 3.48724 1.78602 0
M  V30 2852 H 294.736 3.72791 1.47744 0
M  V30 2853 H 291.326 4.28317 0.155668 0
M  V30 2854 H 295.51 4.92868 -0.582659 0
M  V30 2855 H 290.766 5.89789 -1.61118 0
M  V30 2856 H 294.94 6.55677 -2.3465 0
M  V30 2857 H 292.567 7.04074 -2.86678 0
M  V30 2858 N 294.142 -0.090211 1.57342 0
M  V30 2859 C 295.372 -0.805055 1.90269 0
M  V30 2860 C 295.78 -1.72561 0.775842 0
M  V30 2861 O 295.123 -1.81839 -0.260843 0
M  V30 2862 C 295.185 -1.66734 3.18497 0
M  V30 2863 C 294.849 -0.918092 4.47683 0
M  V30 2864 C 295.846 -0.245674 5.19319 0
M  V30 2865 C 293.531 -0.890724 4.94339 0
M  V30 2866 C 295.525 0.444088 6.35851 0
M  V30 2867 C 293.212 -0.197179 6.10782 0
M  V30 2868 C 294.21 0.469044 6.81388 0
M  V30 2869 O 293.898 1.15146 7.95611 0
M  V30 2870 H 293.63 -0.235143 0.633785 0
M  V30 2871 H 296.184 -0.0703805 2.05279 0
M  V30 2872 H 294.414 -2.44437 2.99646 0
M  V30 2873 H 296.103 -2.25919 3.37217 0
M  V30 2874 H 296.869 -0.258246 4.84312 0
M  V30 2875 H 292.748 -1.39873 4.39268 0
M  V30 2876 H 296.292 0.964667 6.90898 0
M  V30 2877 H 292.189 -0.18247 6.45242 0
M  V30 2878 H 292.957 1.05885 8.11622 0
M  V30 2879 N 295.62 -1.53406 -0.361157 0
M  V30 2880 C 296.55 -1.83136 -1.44857 0
M  V30 2881 C 297.531 -0.685174 -1.5569 0
M  V30 2882 O 298.716 -0.93544 -1.70186 0
M  V30 2883 C 295.846 -2.02522 -2.82138 0
M  V30 2884 C 294.8 -3.18302 -2.86126 0
M  V30 2885 C 294.126 -3.22989 -4.26125 0
M  V30 2886 C 295.426 -4.56796 -2.53248 0
M  V30 2887 H 297.12 -2.74201 -1.20226 0
M  V30 2888 H 294.666 -1.31938 -0.576922 0
M  V30 2889 H 296.619 -2.21904 -3.58241 0
M  V30 2890 H 295.343 -1.08172 -3.08166 0
M  V30 2891 H 294.002 -2.98747 -2.12475 0
M  V30 2892 H 293.65 -2.26267 -4.49235 0
M  V30 2893 H 293.35 -4.00781 -4.29708 0
M  V30 2894 H 294.874 -3.44559 -5.04094 0
M  V30 2895 H 296.288 -4.7631 -3.19064 0
M  V30 2896 H 294.685 -5.36862 -2.68141 0
M  V30 2897 H 295.755 -4.61606 -1.48484 0
M  V30 2898 N 297.098 0.621204 -1.44841 0
M  V30 2899 C 298.345 1.38055 -1.48145 0
M  V30 2900 C 298.673 1.94143 -0.117867 0
M  V30 2901 O 297.928 1.74713 0.881694 0
M  V30 2902 C 298.227 2.55675 -2.4973 0
M  V30 2903 C 297.893 2.17817 -3.94799 0
M  V30 2904 C 296.555 2.07205 -4.34303 0
M  V30 2905 C 298.907 1.88065 -4.86087 0
M  V30 2906 C 296.235 1.65045 -5.63007 0
M  V30 2907 C 298.587 1.47394 -6.15189 0
M  V30 2908 C 297.251 1.35331 -6.53637 0
M  V30 2909 H 296.521 0.505181 -0.542101 0
M  V30 2910 H 299.168 0.703477 -1.78111 0
M  V30 2911 H 297.473 3.2866 -2.13284 0
M  V30 2912 H 299.17 3.13904 -2.4953 0
M  V30 2913 H 295.76 2.26998 -3.63552 0
M  V30 2914 H 299.944 1.95168 -4.56315 0
M  V30 2915 H 295.2 1.54317 -5.91605 0
M  V30 2916 H 299.374 1.23415 -6.85377 0
M  V30 2917 H 297.001 1.02435 -7.53267 0
M  V30 2918 N 298.576 1.31904 0.862503 0
M  V30 2919 C 299.523 1.20182 1.9704 0
M  V30 2920 C 300.493 0.0858247 1.65878 0
M  V30 2921 O 301.678 0.26 1.8902 0
M  V30 2922 C 298.818 0.922797 3.32533 0
M  V30 2923 C 297.931 2.12284 3.76244 0
M  V30 2924 C 297.066 1.77996 5.00491 0
M  V30 2925 C 296.105 2.94366 5.36671 0
M  V30 2926 N 295.242 2.60223 6.52095 0
M  V30 2927 H 300.082 2.14951 2.06398 0
M  V30 2928 H 297.619 1.06917 1.01031 0
M  V30 2929 H 299.577 0.741548 4.10557 0
M  V30 2930 H 298.207 0.0119227 3.22798 0
M  V30 2931 H 297.259 2.41461 2.9394 0
M  V30 2932 H 298.571 2.99357 3.98982 0
M  V30 2933 H 297.725 1.56377 5.862 0
M  V30 2934 H 296.464 0.881252 4.79672 0
M  V30 2935 H 295.469 3.16625 4.49476 0
M  V30 2936 H 296.694 3.84957 5.59451 0
M  V30 2937 H 294.64 1.72884 6.32809 0
M  V30 2938 H 294.557 3.40827 6.74814 0
M  V30 2939 H 295.825 2.42016 7.40978 0
M  V30 2940 N 300.054 -1.07777 1.14986 0
M  V30 2941 C 300.984 -2.16865 0.865557 0
M  V30 2942 C 301.965 -1.69123 -0.182083 0
M  V30 2943 O 303.15 -1.94164 -0.0373815 0
M  V30 2944 C 300.28 -3.45539 0.349313 0
M  V30 2945 C 299.234 -4.06708 1.33313 0
M  V30 2946 C 298.56 -5.30411 0.675918 0
M  V30 2947 C 299.86 -4.47241 2.69764 0
M  V30 2948 H 301.554 -2.40905 1.77778 0
M  V30 2949 H 299.1 -1.15781 0.856203 0
M  V30 2950 H 301.053 -4.21174 0.137983 0
M  V30 2951 H 299.777 -3.21072 -0.598362 0
M  V30 2952 H 298.436 -3.33112 1.53075 0
M  V30 2953 H 298.084 -5.02232 -0.277767 0
M  V30 2954 H 297.784 -5.72293 1.33244 0
M  V30 2955 H 299.308 -6.08755 0.474262 0
M  V30 2956 H 300.722 -5.14025 2.53873 0
M  V30 2957 H 299.119 -5.00062 3.3175 0
M  V30 2958 H 300.189 -3.58818 3.26156 0
M  V30 2959 N 301.532 -0.945985 -1.26051 0
M  V30 2960 C 302.462 -0.477172 -2.28572 0
M  V30 2961 C 303.443 0.472032 -1.63419 0
M  V30 2962 O 304.628 0.372853 -1.90587 0
M  V30 2963 C 301.758 0.253975 -3.4637 0
M  V30 2964 C 300.712 -0.609135 -4.23643 0
M  V30 2965 C 300.038 0.252252 -5.34105 0
M  V30 2966 C 301.338 -1.8829 -4.8718 0
M  V30 2967 H 303.032 -1.33402 -2.68038 0
M  V30 2968 H 300.578 -0.642904 -1.28852 0
M  V30 2969 H 302.531 0.593016 -4.17207 0
M  V30 2970 H 301.255 1.145 -3.05871 0
M  V30 2971 H 299.914 -0.931138 -3.54578 0
M  V30 2972 H 299.562 1.14278 -4.89846 0
M  V30 2973 H 299.262 -0.32188 -5.86718 0
M  V30 2974 H 300.786 0.586454 -6.07777 0
M  V30 2975 H 302.2 -1.61081 -5.50205 0
M  V30 2976 H 300.597 -2.40199 -5.49931 0
M  V30 2977 H 301.667 -2.59134 -4.09851 0
M  V30 2978 N 303.011 1.40521 -0.713556 0
M  V30 2979 C 304.427 1.54839 -0.386907 0
M  V30 2980 C 304.627 1.68532 1.1045 0
M  V30 2981 O 303.683 1.67377 1.89053 0
M  V30 2982 C 304.996 2.77792 -1.15118 0
M  V30 2983 C 306.544 2.91607 -1.13729 0
M  V30 2984 C 307.019 4.1747 -1.88368 0
M  V30 2985 N 308.51 4.24466 -1.85427 0
M  V30 2986 C 309.245 5.20755 -2.40004 0
M  V30 2987 N 308.741 6.22965 -3.03129 0
M  V30 2988 N 310.534 5.1282 -2.30158 0
M  V30 2989 H 302.685 1.29879 -1.68063 0
M  V30 2990 H 304.948 0.627896 -0.710247 0
M  V30 2991 H 304.654 2.73944 -2.20561 0
M  V30 2992 H 304.528 3.6984 -0.741477 0
M  V30 2993 H 306.915 2.94959 -0.0910608 0
M  V30 2994 H 306.996 2.00682 -1.5862 0
M  V30 2995 H 306.64 4.1488 -2.9298 0
M  V30 2996 H 306.57 5.074 -1.40898 0
M  V30 2997 H 309.061 3.51241 -1.3942 0
M  V30 2998 H 309.374 6.92859 -3.42295 0
M  V30 2999 H 307.719 6.23415 -3.07212 0
M  V30 3000 H 310.91 4.31899 -1.80501 0
M  V30 3001 H 311.083 5.87689 -2.72993 0
M  V30 3002 N 304.489 0.459591 1.5075 0
M  V30 3003 C 305.436 -0.340524 2.28274 0
M  V30 3004 C 306.406 -0.997371 1.32822 0
M  V30 3005 O 307.591 -1.01202 1.61749 0
M  V30 3006 C 304.731 -1.42317 3.14388 0
M  V30 3007 C 303.844 -0.782251 4.24859 0
M  V30 3008 C 302.979 -1.84182 4.98247 0
M  V30 3009 C 302.018 -1.18053 6.00608 0
M  V30 3010 N 301.155 -2.18244 6.67319 0
M  V30 3011 H 305.995 0.326899 2.96202 0
M  V30 3012 H 303.532 0.173057 1.46078 0
M  V30 3013 H 305.49 -2.06241 3.62658 0
M  V30 3014 H 304.12 -2.05992 2.4853 0
M  V30 3015 H 303.172 -0.0307404 3.80388 0
M  V30 3016 H 304.484 -0.259663 4.98124 0
M  V30 3017 H 303.638 -2.55714 5.50177 0
M  V30 3018 H 302.377 -2.39819 4.24662 0
M  V30 3019 H 301.382 -0.450776 5.47949 0
M  V30 3020 H 302.607 -0.631202 6.7616 0
M  V30 3021 H 300.553 -2.72919 5.96533 0
M  V30 3022 H 300.47 -1.70938 7.36421 0
M  V30 3023 H 301.738 -2.89191 7.23871 0
M  V30 3024 N 305.967 -1.56429 0.191757 0
M  V30 3025 C 307.207 -1.99383 -0.450099 0
M  V30 3026 C 307.571 -1.07581 -1.59029 0
M  V30 3027 O 308.772 -1.39758 -2.29611 0
M  V30 3028 C 307.043 -3.45841 -0.901611 0
M  V30 3029 S 308.602 -4.10822 -1.54177 0
M  V30 3030 H 305.42 -0.696253 -0.144057 0
M  V30 3031 H 308.022 -1.93276 0.294036 0
M  V30 3032 H 306.726 -4.10354 -0.0616596 0
M  V30 3033 H 306.257 -3.55757 -1.67929 0
M  V30 3034 H 308.272 -4.07553 -2.83046 0
M  V30 3035 N 307.445 0.0818655 -1.57387 0
M  V30 3036 C 308.694 0.781681 -1.85937 0
M  V30 3037 C 309.007 1.79246 -0.782957 0
M  V30 3038 O 310.213 2.54112 -0.955987 0
M  V30 3039 C 308.669 1.44109 -3.29789 0
M  V30 3040 C 308.277 0.469396 -4.45534 0
M  V30 3041 C 310.021 2.12386 -3.67549 0
M  V30 3042 C 307.928 1.13415 -5.80423 0
M  V30 3043 H 306.858 0.295682 -0.693605 0
M  V30 3044 H 309.509 0.0348051 -1.83467 0
M  V30 3045 H 307.891 2.23588 -3.2684 0
M  V30 3046 H 309.065 -0.294856 -4.59856 0
M  V30 3047 H 307.38 -0.108383 -4.16259 0
M  V30 3048 H 309.977 2.62878 -4.65617 0
M  V30 3049 H 310.32 2.91877 -2.96839 0
M  V30 3050 H 310.853 1.39751 -3.72444 0
M  V30 3051 H 307.592 0.379771 -6.54399 0
M  V30 3052 H 307.112 1.8695 -5.69921 0
M  V30 3053 H 308.791 1.65686 -6.25426 0
M  V30 3054 N 308.923 1.53595 0.353017 0
M  V30 3055 C 309.853 1.83902 1.43883 0
M  V30 3056 C 310.834 0.693421 1.55324 0
M  V30 3057 O 312.019 0.944452 1.69687 0
M  V30 3058 C 309.149 2.04016 2.8106 0
M  V30 3059 C 308.103 3.19814 2.84434 0
M  V30 3060 C 307.429 3.25244 4.24406 0
M  V30 3061 C 308.729 4.58133 2.50822 0
M  V30 3062 H 310.423 2.74835 1.1877 0
M  V30 3063 H 307.969 1.32242 0.569917 0
M  V30 3064 H 309.922 2.238 3.57059 0
M  V30 3065 H 308.646 1.09804 3.07588 0
M  V30 3066 H 307.305 2.9987 2.10887 0
M  V30 3067 H 306.953 2.28646 4.48029 0
M  V30 3068 H 306.653 4.03054 4.27576 0
M  V30 3069 H 308.177 3.47228 5.0226 0
M  V30 3070 H 309.591 4.77995 3.16534 0
M  V30 3071 H 307.988 5.38276 2.6529 0
M  V30 3072 H 309.058 4.62387 1.46034 0
M  V30 3073 N 310.401 -0.613514 1.45168 0
M  V30 3074 C 311.333 -1.73825 1.4939 0
M  V30 3075 C 312.346 -1.58175 0.385304 0
M  V30 3076 O 313.535 -1.66165 0.652036 0
M  V30 3077 C 310.635 -3.11758 1.32891 0
M  V30 3078 C 309.808 -3.53704 2.57317 0
M  V30 3079 C 308.867 -4.70579 2.35462 0
M  V30 3080 O 307.893 -4.77996 3.09044 0
M  V30 3081 N 309.095 -5.63454 1.39644 0
M  V30 3082 H 311.86 -1.70669 2.46358 0
M  V30 3083 H 309.421 -0.79862 1.40832 0
M  V30 3084 H 311.413 -3.87692 1.1609 0
M  V30 3085 H 309.983 -3.09456 0.442218 0
M  V30 3086 H 309.203 -2.67794 2.89275 0
M  V30 3087 H 310.491 -3.78486 3.40038 0
M  V30 3088 H 309.889 -5.6017 0.789062 0
M  V30 3089 H 308.446 -6.38944 1.28816 0
M  V30 3090 N 311.879 -1.3236 -0.855495 0
M  V30 3091 C 312.812 -1.15559 -1.96777 0
M  V30 3092 C 313.79 -0.0552681 -1.62506 0
M  V30 3093 O 314.974 -0.214419 -1.87277 0
M  V30 3094 C 312.101 -0.768851 -3.29858 0
M  V30 3095 C 311.147 -1.87429 -3.83109 0
M  V30 3096 S 311.98 -3.48243 -4.06801 0
M  V30 3097 C 313.136 -3.11539 -5.42858 0
M  V30 3098 H 313.369 -2.09717 -2.10727 0
M  V30 3099 H 310.902 -1.17011 -1.00737 0
M  V30 3100 H 312.86 -0.55248 -4.06765 0
M  V30 3101 H 311.521 0.153857 -3.13723 0
M  V30 3102 H 310.714 -1.55667 -4.79358 0
M  V30 3103 H 310.316 -2.04647 -3.13042 0
M  V30 3104 H 312.608 -2.61331 -6.2507 0
M  V30 3105 H 313.551 -4.06806 -5.79582 0
M  V30 3106 H 313.959 -2.48582 -5.06821 0
M  V30 3107 N 313.357 1.07166 -1.15556 0
M  V30 3108 C 314.585 1.83514 -0.955519 0
M  V30 3109 C 315 1.82163 0.49621 0
M  V30 3110 O 314.357 1.23441 1.34419 0
M  V30 3111 C 314.408 3.30515 -1.46432 0
M  V30 3112 O 314.129 3.31937 -2.85918 0
M  V30 3113 C 315.63 4.23625 -1.30603 0
M  V30 3114 H 312.85 0.578926 -0.339244 0
M  V30 3115 H 315.394 1.35265 -1.53374 0
M  V30 3116 H 313.549 3.76106 -0.928584 0
M  V30 3117 H 313.963 4.23794 -3.09029 0
M  V30 3118 H 315.437 5.24831 -1.71047 0
M  V30 3119 H 315.914 4.38485 -0.250441 0
M  V30 3120 H 316.52 3.83871 -1.83094 0
M  V30 3121 N 314.835 0.952656 1.25548 0
M  V30 3122 C 316.251 0.656769 1.4546 0
M  V30 3123 C 316.451 -0.78633 1.85524 0
M  V30 3124 O 315.507 -1.56183 1.98402 0
M  V30 3125 C 316.82 1.62801 2.52817 0
M  V30 3126 C 318.368 1.63897 2.66659 0
M  V30 3127 C 318.843 2.5978 3.77198 0
M  V30 3128 N 320.334 2.58133 3.84606 0
M  V30 3129 C 321.069 3.29003 4.69621 0
M  V30 3130 N 320.565 4.09339 5.58939 0
M  V30 3131 N 322.358 3.179 4.63569 0
M  V30 3132 H 314.509 1.88526 0.978344 0
M  V30 3133 H 316.772 0.810815 0.491206 0
M  V30 3134 H 316.478 2.65869 2.30232 0
M  V30 3135 H 316.352 1.38898 3.50695 0
M  V30 3136 H 318.739 0.615481 2.8861 0
M  V30 3137 H 318.82 1.91858 1.69187 0
M  V30 3138 H 318.464 3.62254 3.55997 0
M  V30 3139 H 318.394 2.29105 4.7415 0
M  V30 3140 H 320.885 1.99809 3.20757 0
M  V30 3141 H 321.198 4.6034 6.20731 0
M  V30 3142 H 319.543 4.13438 5.58654 0
M  V30 3143 H 322.734 2.54612 3.92798 0
M  V30 3144 H 322.907 3.73398 5.29602 0
M  V30 3145 N 316.313 -1.40141 0.720998 0
M  V30 3146 C 317.724 -1.83678 0.334553 0
M  V30 3147 C 318.075 -1.6027 -1.13173 0
M  V30 3148 O 317.2 -1.08643 -1.87152 0
M  V30 3149 C 317.795 -3.33437 0.600437 0
M  V30 3150 C 316.354 -3.75447 0.267642 0
M  V30 3151 C 315.501 -2.63296 0.870097 0
M  V30 3152 H 318.452 -1.29331 0.919732 0
M  V30 3153 H 318.473 -3.80269 -0.132517 0
M  V30 3154 H 317.985 -3.50442 1.66768 0
M  V30 3155 H 316.086 -3.64035 -0.794329 0
M  V30 3156 H 316.199 -4.73344 0.74042 0
M  V30 3157 H 314.563 -2.52954 0.297739 0
M  V30 3158 H 315.346 -2.83112 1.94172 0
M  V30 3159 N 317.792 -0.46758 -1.50504 0
M  V30 3160 C 319.038 0.0887532 -2.02606 0
M  V30 3161 C 319.371 1.39686 -1.34913 0
M  V30 3162 O 318.646 1.88644 -0.473694 0
M  V30 3163 C 318.929 0.276206 -3.59039 0
M  V30 3164 C 318.782 -1.05267 -4.37309 0
M  V30 3165 C 320.101 1.03235 -4.27821 0
M  V30 3166 H 317.22 0.0307814 -0.736357 0
M  V30 3167 H 319.862 -0.612485 -1.79857 0
M  V30 3168 H 318.012 0.8735 -3.78553 0
M  V30 3169 H 319.684 -1.68628 -4.29374 0
M  V30 3170 H 317.927 -1.65015 -4.01189 0
M  V30 3171 H 318.598 -0.875197 -5.45018 0
M  V30 3172 H 321.074 0.526111 -4.12761 0
M  V30 3173 H 319.95 1.1323 -5.37094 0
M  V30 3174 H 320.211 2.06806 -3.90748 0
M  V30 3175 N 319.27 1.56325 -0.20005 0
M  V30 3176 C 320.516 1.98012 0.438059 0
M  V30 3177 C 320.849 1.08702 1.60927 0
M  V30 3178 O 320.124 0.140064 1.93995 0
M  V30 3179 C 320.407 3.48841 0.893419 0
M  V30 3180 C 320.26 4.48928 -0.279947 0
M  V30 3181 C 321.579 4.03498 1.75719 0
M  V30 3182 H 318.698 0.719918 0.157757 0
M  V30 3183 H 321.34 1.87743 -0.291968 0
M  V30 3184 H 319.49 3.57723 1.51547 0
M  V30 3185 H 321.162 4.52079 -0.91772 0
M  V30 3186 H 319.405 4.23694 -0.930919 0
M  V30 3187 H 320.076 5.5194 0.0812601 0
M  V30 3188 H 322.552 3.97427 1.23253 0
M  V30 3189 H 321.428 5.09393 2.04476 0
M  V30 3190 H 321.689 3.4906 2.71311 0
M  V30 3191 N 320.748 -0.0735177 1.57428 0
M  V30 3192 C 321.658 -1.10547 2.06922 0
M  V30 3193 C 322.674 -1.42506 0.998402 0
M  V30 3194 O 323.85 -1.52717 1.31299 0
M  V30 3195 C 320.915 -2.40019 2.50184 0
M  V30 3196 C 319.976 -2.15046 3.71556 0
M  V30 3197 C 319.209 -3.38345 4.12745 0
M  V30 3198 O 319.432 -4.47399 3.53822 0
M  V30 3199 O 318.366 -3.2666 5.05546 0
M  V30 3200 H 322.192 -0.715013 2.95163 0
M  V30 3201 H 319.777 -0.287531 1.46607 0
M  V30 3202 H 321.659 -3.16218 2.78539 0
M  V30 3203 H 320.334 -2.78447 1.65072 0
M  V30 3204 H 319.241 -1.36558 3.48285 0
M  V30 3205 H 320.574 -1.81499 4.57514 0
M  V30 3206 N 322.226 -1.5378 -0.344866 0
M  V30 3207 C 323.474 -1.70625 -1.08311 0
M  V30 3208 C 323.795 -0.471447 -1.89215 0
M  V30 3209 O 323.065 0.514616 -1.8902 0
M  V30 3210 H 321.645 -0.629058 -0.402859 0
M  V30 3211 H 324.307 -1.9103 -0.386459 0
M  V30 3212 H 323.403 -2.57656 -1.76124 0
M  V30 3213 N 323.704 0.605807 -1.45491 0
M  V30 3214 C 324.929 1.39625 -1.53361 0
M  V30 3215 C 325.354 1.87351 -0.167645 0
M  V30 3216 O 324.712 1.60243 0.848051 0
M  V30 3217 C 324.76 2.57559 -2.5238 0
M  V30 3218 O 323.864 3.58248 -2.04285 0
M  V30 3219 H 323.205 0.416771 -0.516912 0
M  V30 3220 H 325.735 0.737103 -1.90861 0
M  V30 3221 H 325.745 3.0478 -2.71244 0
M  V30 3222 H 324.42 2.22171 -3.51586 0
M  V30 3223 H 322.997 3.17664 -1.95305 0
M  V30 3224 N 325.182 1.32811 0.848464 0
M  V30 3225 C 326.112 1.24882 1.97299 0
M  V30 3226 C 327.093 0.131357 1.69592 0
M  V30 3227 O 328.278 0.319553 1.91553 0
M  V30 3228 C 325.408 0.97746 3.33261 0
M  V30 3229 C 324.362 2.05682 3.75338 0
M  V30 3230 C 323.688 1.63777 5.09 0
M  V30 3231 C 324.988 3.47254 3.90144 0
M  V30 3232 H 326.682 2.18966 2.04191 0
M  V30 3233 H 324.228 1.05413 0.981029 0
M  V30 3234 H 326.181 0.908513 4.1149 0
M  V30 3235 H 324.905 0.000980011 3.266 0
M  V30 3236 H 323.564 2.11603 2.99366 0
M  V30 3237 H 323.212 0.648569 4.98801 0
M  V30 3238 H 322.912 2.36 5.38124 0
M  V30 3239 H 324.436 1.5833 5.89715 0
M  V30 3240 H 325.85 3.43888 4.58709 0
M  V30 3241 H 324.247 4.1788 4.30693 0
M  V30 3242 H 325.317 3.86462 2.92874 0
M  V30 3243 N 326.66 -1.06551 1.16123 0
M  V30 3244 C 327.908 -1.78947 0.939267 0
M  V30 3245 C 328.229 -1.87532 -0.534476 0
M  V30 3246 O 327.499 -1.38211 -1.38833 0
M  V30 3247 H 326.079 -0.662807 0.344523 0
M  V30 3248 H 328.741 -1.28725 1.46342 0
M  V30 3249 H 327.837 -2.81117 1.35572 0
M  V30 3250 N 328.138 -0.959301 -1.25041 0
M  V30 3251 C 329.363 -0.633507 -1.97488 0
M  V30 3252 C 329.788 0.788555 -1.70773 0
M  V30 3253 O 329.146 1.53394 -0.966431 0
M  V30 3254 C 329.194 -0.904057 -3.49083 0
M  V30 3255 O 328.298 0.0147939 -4.12397 0
M  V30 3256 H 327.639 -0.240368 -0.618966 0
M  V30 3257 H 330.169 -1.28717 -1.59038 0
M  V30 3258 H 330.179 -0.832203 -3.99423 0
M  V30 3259 H 328.854 -1.94048 -3.67856 0
M  V30 3260 H 327.431 -0.109664 -3.72739 0
M  V30 3261 N 329.616 1.39756 -0.72842 0
M  V30 3262 C 331.027 1.83498 -0.344289 0
M  V30 3263 C 331.378 1.60868 1.12321 0
M  V30 3264 O 330.503 1.09634 1.86573 0
M  V30 3265 C 331.098 3.33114 -0.618112 0
M  V30 3266 C 329.657 3.753 -0.287549 0
M  V30 3267 C 328.804 2.62831 -0.884048 0
M  V30 3268 H 331.755 1.28842 -0.926578 0
M  V30 3269 H 331.776 3.80334 0.112349 0
M  V30 3270 H 331.288 3.49553 -1.68625 0
M  V30 3271 H 329.389 3.64451 0.775012 0
M  V30 3272 H 329.502 4.72945 -0.765512 0
M  V30 3273 H 327.866 2.52792 -0.311149 0
M  V30 3274 H 328.649 2.82078 -1.95671 0
M  V30 3275 N 331.094 0.475555 1.50254 0
M  V30 3276 C 332.505 0.0215174 1.86688 0
M  V30 3277 C 332.856 -1.38467 1.39001 0
M  V30 3278 O 331.981 -2.02732 0.756894 0
M  V30 3279 C 332.576 0.0322715 3.38785 0
M  V30 3280 C 331.135 -0.366314 3.74613 0
M  V30 3281 C 330.282 0.415832 2.74164 0
M  V30 3282 H 333.233 0.689612 1.42934 0
M  V30 3283 H 333.254 -0.76889 3.7265 0
M  V30 3284 H 332.766 1.05584 3.73462 0
M  V30 3285 H 330.867 -1.39406 3.45538 0
M  V30 3286 H 330.98 -0.064555 4.79057 0
M  V30 3287 H 329.344 -0.131048 2.54363 0
M  V30 3288 H 330.127 1.43899 3.11686 0
M  V30 3289 N 332.573 -1.56217 0.208337 0
M  V30 3290 C 333.82 -1.97949 -0.42692 0
M  V30 3291 C 334.148 -1.09562 -1.60706 0
M  V30 3292 O 333.403 -0.137616 -1.95216 0
M  V30 3293 C 333.702 -3.45441 -0.916797 0
M  V30 3294 C 333.368 -4.50646 0.151391 0
M  V30 3295 C 332.03 -4.79139 0.444867 0
M  V30 3296 C 334.382 -5.13811 0.874492 0
M  V30 3297 C 331.71 -5.68084 1.46619 0
M  V30 3298 C 334.062 -6.03861 1.88506 0
M  V30 3299 C 332.726 -6.30704 2.18559 0
M  V30 3300 H 331.996 -0.724345 -0.156221 0
M  V30 3301 H 334.643 -1.89006 0.308084 0
M  V30 3302 H 332.948 -3.51521 -1.73032 0
M  V30 3303 H 334.645 -3.75094 -1.41794 0
M  V30 3304 H 331.235 -4.28511 -0.0875068 0
M  V30 3305 H 335.419 -4.91879 0.660996 0
M  V30 3306 H 330.675 -5.87151 1.7048 0
M  V30 3307 H 334.849 -6.51861 2.45051 0
M  V30 3308 H 332.476 -6.99424 2.97843 0
M  V30 3309 N 334.051 0.0651679 -1.57465 0
M  V30 3310 C 334.961 1.09448 -2.07505 0
M  V30 3311 C 335.977 1.41974 -1.00595 0
M  V30 3312 O 337.153 1.52018 -1.32107 0
M  V30 3313 C 334.218 2.38689 -2.51453 0
M  V30 3314 C 333.279 2.13073 -3.72691 0
M  V30 3315 C 332.512 3.36152 -4.14533 0
M  V30 3316 O 332.735 4.45517 -3.56189 0
M  V30 3317 O 331.669 3.23974 -5.07272 0
M  V30 3318 H 335.495 0.69935 -2.95538 0
M  V30 3319 H 333.08 0.279752 -1.46757 0
M  V30 3320 H 334.962 3.14736 -2.80212 0
M  V30 3321 H 333.637 2.77568 -1.66546 0
M  V30 3322 H 332.544 1.34709 -3.49005 0
M  V30 3323 H 333.877 1.79071 -4.5847 0
M  V30 3324 N 335.529 1.53961 0.336706 0
M  V30 3325 C 336.476 1.82428 1.41381 0
M  V30 3326 C 337.446 0.670444 1.51968 0
M  V30 3327 O 338.631 0.915565 1.67398 0
M  V30 3328 C 335.771 2.04564 2.77934 0
M  V30 3329 C 334.884 3.32267 2.76084 0
M  V30 3330 C 334.019 3.44434 4.04399 0
M  V30 3331 C 333.058 4.66061 3.96804 0
M  V30 3332 N 332.195 4.75224 5.16823 0
M  V30 3333 H 337.035 2.74324 1.16405 0
M  V30 3334 H 334.572 1.35869 0.563752 0
M  V30 3335 H 336.53 2.15388 3.57301 0
M  V30 3336 H 335.16 1.15974 3.01247 0
M  V30 3337 H 334.212 3.3025 1.88784 0
M  V30 3338 H 335.524 4.21733 2.66351 0
M  V30 3339 H 334.678 3.54728 4.92192 0
M  V30 3340 H 333.417 2.53037 4.16921 0
M  V30 3341 H 332.422 4.55838 3.07396 0
M  V30 3342 H 333.647 5.58829 3.85858 0
M  V30 3343 H 331.593 3.86739 5.29876 0
M  V30 3344 H 331.51 5.58636 5.09374 0
M  V30 3345 H 332.778 4.89835 6.06367 0
M  V30 3346 N 337.007 -0.598083 1.45811 0
M  V30 3347 C 338.418 -1.18011 1.44673 0
M  V30 3348 C 338.769 -1.95378 0.179364 0
M  V30 3349 O 337.894 -2.04124 -0.718509 0
M  V30 3350 C 338.489 -2.14677 2.62105 0
M  V30 3351 C 337.048 -2.68236 2.64057 0
M  V30 3352 C 336.195 -1.43816 2.37091 0
M  V30 3353 H 339.146 -0.38686 1.53913 0
M  V30 3354 H 339.167 -2.97878 2.36746 0
M  V30 3355 H 338.679 -1.5834 3.5433 0
M  V30 3356 H 336.78 -3.28486 1.75864 0
M  V30 3357 H 336.893 -3.12021 3.63566 0
M  V30 3358 H 335.257 -1.731 1.86838 0
M  V30 3359 H 336.04 -0.893333 3.31473 0
M  V30 3360 N 338.485 -1.33259 -0.841409 0
M  V30 3361 C 339.433 -1.23279 -1.97244 0
M  V30 3362 C 340.427 -0.134706 -1.68864 0
M  V30 3363 O 341.633 -0.298501 -1.77508 0
M  V30 3364 H 338.008 -0.382497 -0.647457 0
M  V30 3365 H 339.979 -2.18906 -2.02787 0
M  V30 3366 C 338.728 -0.986268 -3.33419 0
M  V30 3367 H 338.051 -1.82347 -3.55794 0
M  V30 3368 H 339.491 -0.956728 -4.13065 0
M  V30 3369 C 337.95 0.310842 -3.35463 0
M  V30 3370 O 338.48 1.31838 -3.79449 0
M  V30 3371 N 336.686 0.337485 -2.88634 0
M  V30 3372 H 336.233 -0.482967 -2.53032 0
M  V30 3373 H 336.191 1.20518 -2.90384 0
M  V30 3374 N 339.963 1.05934 -1.16686 0
M  V30 3375 C 341.212 1.78188 -0.945085 0
M  V30 3376 C 341.525 1.88338 0.528021 0
M  V30 3377 O 342.731 2.57258 0.867799 0
M  V30 3378 C 341.187 3.20277 -1.64167 0
M  V30 3379 C 340.795 3.18281 -3.15279 0
M  V30 3380 C 342.539 3.97039 -1.502 0
M  V30 3381 C 340.446 4.55112 -3.7766 0
M  V30 3382 H 339.376 0.667866 -0.349959 0
M  V30 3383 H 342.027 1.18794 -1.39858 0
M  V30 3384 H 340.409 3.79952 -1.11589 0
M  V30 3385 H 341.583 2.68167 -3.74731 0
M  V30 3386 H 339.898 2.55018 -3.29173 0
M  V30 3387 H 342.495 4.98194 -1.94183 0
M  V30 3388 H 342.838 4.13845 -0.451461 0
M  V30 3389 H 343.371 3.43894 -1.99954 0
M  V30 3390 H 340.11 4.43512 -4.82677 0
M  V30 3391 H 339.63 5.05406 -3.22994 0
M  V30 3392 H 341.309 5.24064 -3.79428 0
M  V30 3393 N 341.441 0.965919 1.2453 0
M  V30 3394 C 342.351 0.502154 2.29163 0
M  V30 3395 C 343.367 -0.436017 1.68448 0
M  V30 3396 O 344.543 -0.309497 1.99008 0
M  V30 3397 C 341.608 -0.201956 3.46111 0
M  V30 3398 C 340.669 0.775821 4.22232 0
M  V30 3399 C 339.902 0.105217 5.33596 0
M  V30 3400 O 340.125 -1.10683 5.59558 0
M  V30 3401 O 339.059 0.796475 5.96607 0
M  V30 3402 H 342.885 1.37194 2.70946 0
M  V30 3403 H 340.47 0.732875 1.30189 0
M  V30 3404 H 342.352 -0.597564 4.17142 0
M  V30 3405 H 341.027 -1.04673 3.06309 0
M  V30 3406 H 339.934 1.22185 3.53584 0
M  V30 3407 H 341.267 1.58896 4.65846 0
M  V30 3408 N 342.919 -1.39368 0.735821 0
M  V30 3409 C 343.851 -2.2913 0.0567723 0
M  V30 3410 C 344.864 -1.46859 -0.702589 0
M  V30 3411 O 346.053 -1.69925 -0.546616 0
M  V30 3412 C 343.153 -3.25492 -0.943823 0
M  V30 3413 C 342.326 -4.36709 -0.24581 0
M  V30 3414 C 341.385 -5.13376 -1.15463 0
M  V30 3415 O 340.411 -5.65683 -0.631803 0
M  V30 3416 N 341.613 -5.24656 -2.48427 0
M  V30 3417 H 344.378 -2.88047 0.827582 0
M  V30 3418 H 341.939 -1.50957 0.585112 0
M  V30 3419 H 343.931 -3.73657 -1.55443 0
M  V30 3420 H 342.501 -2.676 -1.61583 0
M  V30 3421 H 341.721 -3.9041 0.545286 0
M  V30 3422 H 343.009 -5.08244 0.237891 0
M  V30 3423 H 342.407 -4.83679 -2.93379 0
M  V30 3424 H 340.964 -5.76258 -3.04582 0
M  V30 3425 N 344.397 -0.483516 -1.5 0
M  V30 3426 C 345.645 0.067027 -2.01989 0
M  V30 3427 C 345.966 1.3909 -1.36671 0
M  V30 3428 O 345.236 1.88978 -0.516152 0
M  V30 3429 H 343.816 0.0277606 -0.746484 0
M  V30 3430 H 346.478 -0.636773 -1.84204 0
M  V30 3431 H 345.574 0.209484 -3.11396 0
M  V30 3432 N 345.875 1.56104 -0.216619 0
M  V30 3433 C 347.121 1.98466 0.417033 0
M  V30 3434 C 347.454 1.10403 1.59765 0
M  V30 3435 O 346.729 0.160632 1.93836 0
M  V30 3436 C 347.012 3.49769 0.85637 0
M  V30 3437 C 346.865 4.48606 -0.327546 0
M  V30 3438 C 348.184 4.05339 1.7143 0
M  V30 3439 H 345.303 0.721551 0.150112 0
M  V30 3440 H 347.945 1.87423 -0.311864 0
M  V30 3441 H 346.095 3.5931 1.47745 0
M  V30 3442 H 347.767 4.5108 -0.965618 0
M  V30 3443 H 346.01 4.22682 -0.975805 0
M  V30 3444 H 346.681 5.51995 0.0227149 0
M  V30 3445 H 349.157 3.98712 1.19031 0
M  V30 3446 H 348.033 5.11533 1.99061 0
M  V30 3447 H 348.294 3.51918 2.67593 0
M  V30 3448 N 347.353 -0.0568162 1.57498 0
M  V30 3449 C 348.283 -1.06593 2.0775 0
M  V30 3450 C 349.264 -1.39448 0.974082 0
M  V30 3451 O 350.449 -1.48815 1.24771 0
M  V30 3452 C 347.579 -2.37509 2.5339 0
M  V30 3453 C 346.533 -2.1897 3.67745 0
M  V30 3454 C 345.859 -3.55402 3.99492 0
M  V30 3455 C 347.159 -1.59859 4.97235 0
M  V30 3456 H 348.853 -0.647706 2.9231 0
M  V30 3457 H 346.399 -0.310116 1.40621 0
M  V30 3458 H 348.352 -3.08409 2.87162 0
M  V30 3459 H 347.076 -2.8134 1.65878 0
M  V30 3460 H 345.735 -1.50508 3.3428 0
M  V30 3461 H 345.383 -3.9683 3.09088 0
M  V30 3462 H 345.083 -3.43831 4.76502 0
M  V30 3463 H 346.607 -4.27708 4.35773 0
M  V30 3464 H 348.021 -2.20642 5.29141 0
M  V30 3465 H 346.418 -1.58942 5.78669 0
M  V30 3466 H 347.488 -0.561506 4.81638 0
M  V30 3467 N 348.832 -1.54138 -0.328536 0
M  V30 3468 C 349.78 -1.83894 -1.42428 0
M  V30 3469 C 350.774 -0.710478 -1.53781 0
M  V30 3470 O 351.98 -0.894062 -1.56226 0
M  V30 3471 H 348.355 -0.582837 -0.475189 0
M  V30 3472 H 350.326 -2.75537 -1.14552 0
M  V30 3473 C 349.075 -2.07866 -2.78724 0
M  V30 3474 H 348.398 -2.94158 -2.7076 0
M  V30 3475 H 349.838 -2.32644 -3.54476 0
M  V30 3476 C 348.297 -0.868689 -3.25508 0
M  V30 3477 O 348.827 -0.0754908 -4.01629 0
M  V30 3478 N 347.033 -0.681711 -2.82491 0
M  V30 3479 H 346.58 -1.32838 -2.20708 0
M  V30 3480 H 346.538 0.126374 -3.14146 0
M  V30 3481 N 350.31 0.590341 -1.46126 0
M  V30 3482 C 351.557 1.34882 -1.5104 0
M  V30 3483 C 351.885 1.93849 -0.159021 0
M  V30 3484 O 351.14 1.76544 0.844436 0
M  V30 3485 C 351.439 2.5032 -2.55097 0
M  V30 3486 C 351.105 2.09394 -3.99331 0
M  V30 3487 C 349.767 1.97947 -4.38601 0
M  V30 3488 C 352.119 1.77712 -4.89967 0
M  V30 3489 C 349.447 1.53065 -5.66381 0
M  V30 3490 C 351.799 1.34312 -6.18177 0
M  V30 3491 C 350.463 1.21436 -6.56361 0
M  V30 3492 H 349.733 0.493568 -0.552695 0
M  V30 3493 H 352.38 0.665539 -1.79563 0
M  V30 3494 H 350.685 3.24062 -2.20207 0
M  V30 3495 H 352.382 3.08541 -2.56132 0
M  V30 3496 H 348.972 2.19235 -3.68285 0
M  V30 3497 H 353.156 1.85445 -4.60352 0
M  V30 3498 H 348.412 1.41733 -5.94745 0
M  V30 3499 H 352.586 1.08849 -6.87841 0
M  V30 3500 H 350.213 0.864345 -7.5527 0
M  V30 3501 N 351.788 1.33704 0.83433 0
M  V30 3502 C 353.034 1.25603 1.59222 0
M  V30 3503 C 353.367 -0.176659 1.93395 0
M  V30 3504 O 352.642 -1.11915 1.59076 0
M  V30 3505 C 352.925 2.13576 2.89926 0
M  V30 3506 C 352.778 3.65326 2.62406 0
M  V30 3507 C 354.097 2.01238 3.91397 0
M  V30 3508 H 351.216 0.457613 0.577719 0
M  V30 3509 H 353.858 1.63848 0.961972 0
M  V30 3510 H 352.008 1.8109 3.43713 0
M  V30 3511 H 353.68 4.08124 2.15017 0
M  V30 3512 H 351.923 3.8698 1.96033 0
M  V30 3513 H 352.594 4.22232 3.55562 0
M  V30 3514 H 355.07 2.29738 3.46929 0
M  V30 3515 H 353.946 2.65036 4.80673 0
M  V30 3516 H 354.207 0.985951 4.30966 0
M  V30 3517 N 353.266 -1.05314 1.17247 0
M  V30 3518 C 354.198 -2.13023 0.845812 0
M  V30 3519 C 355.211 -1.62096 -0.151246 0
M  V30 3520 O 356.4 -1.78343 0.0748818 0
M  V30 3521 C 353.5 -3.38047 0.240292 0
M  V30 3522 C 352.673 -4.18255 1.27991 0
M  V30 3523 C 351.732 -5.21625 0.692375 0
M  V30 3524 O 350.758 -5.52619 1.36385 0
M  V30 3525 N 351.96 -5.78201 -0.516178 0
M  V30 3526 H 354.725 -2.41642 1.77283 0
M  V30 3527 H 352.286 -1.21401 1.07115 0
M  V30 3528 H 354.278 -4.04359 -0.16603 0
M  V30 3529 H 352.848 -3.06972 -0.590487 0
M  V30 3530 H 352.068 -3.47451 1.86203 0
M  V30 3531 H 353.356 -4.68643 1.98119 0
M  V30 3532 H 352.754 -5.55301 -1.07969 0
M  V30 3533 H 351.311 -6.4604 -0.86458 0
M  V30 3534 N 354.744 -0.972509 -1.24016 0
M  V30 3535 C 355.974 -0.653853 -1.9598 0
M  V30 3536 C 356.382 0.781801 -1.72292 0
M  V30 3537 O 355.725 1.53677 -1.00644 0
M  V30 3538 C 355.787 -0.854608 -3.49194 0
M  V30 3539 C 355.451 -2.27082 -3.96589 0
M  V30 3540 C 356.448 -3.24892 -4.05883 0
M  V30 3541 C 354.133 -2.5998 -4.29786 0
M  V30 3542 C 356.127 -4.53684 -4.47716 0
M  V30 3543 C 353.814 -3.88997 -4.71301 0
M  V30 3544 C 354.812 -4.85661 -4.80232 0
M  V30 3545 O 354.5 -6.12376 -5.20818 0
M  V30 3546 H 354.232 -0.242572 -0.630979 0
M  V30 3547 H 356.786 -1.30431 -1.58673 0
M  V30 3548 H 355.016 -0.146985 -3.86421 0
M  V30 3549 H 356.705 -0.534311 -4.02368 0
M  V30 3550 H 357.471 -3.00805 -3.80449 0
M  V30 3551 H 353.35 -1.85457 -4.22051 0
M  V30 3552 H 356.894 -5.29135 -4.54601 0
M  V30 3553 H 352.791 -4.12882 -4.96184 0
M  V30 3554 H 353.559 -6.16013 -5.38953 0
M  V30 3555 N 356.222 1.38976 -0.743202 0
M  V30 3556 C 357.169 2.30544 -0.10861 0
M  V30 3557 C 358.139 1.49642 0.720869 0
M  V30 3558 O 359.324 1.78304 0.679142 0
M  V30 3559 C 356.464 3.36018 0.786496 0
M  V30 3560 C 355.577 4.31963 -0.0564849 0
M  V30 3561 C 354.712 5.24506 0.840657 0
M  V30 3562 C 353.751 6.121 -0.00658363 0
M  V30 3563 N 352.888 6.96973 0.846943 0
M  V30 3564 H 357.728 2.8424 -0.895088 0
M  V30 3565 H 355.265 1.3995 -0.453048 0
M  V30 3566 H 357.223 3.95768 1.31999 0
M  V30 3567 H 355.853 2.83758 1.53887 0
M  V30 3568 H 354.905 3.73763 -0.707492 0
M  V30 3569 H 356.217 4.93703 -0.711229 0
M  V30 3570 H 355.371 5.89322 1.4417 0
M  V30 3571 H 354.11 4.63107 1.52916 0
M  V30 3572 H 353.115 5.46289 -0.620366 0
M  V30 3573 H 354.34 6.75565 -0.691992 0
M  V30 3574 H 352.286 6.38133 1.52059 0
M  V30 3575 H 352.203 7.5559 0.248864 0
M  V30 3576 H 353.471 7.6621 1.43328 0
M  V30 3577 N 357.7 0.491464 1.49741 0
M  V30 3578 C 358.947 -0.0564256 2.02421 0
M  V30 3579 C 359.275 -1.37872 1.37192 0
M  V30 3580 O 358.53 -1.89375 0.493508 0
M  V30 3581 C 358.829 -0.267329 3.56399 0
M  V30 3582 C 358.495 0.975775 4.40215 0
M  V30 3583 C 357.157 1.31655 4.62839 0
M  V30 3584 C 359.509 1.80251 4.89039 0
M  V30 3585 C 356.837 2.48375 5.31532 0
M  V30 3586 C 359.189 2.96116 5.59015 0
M  V30 3587 C 357.853 3.30585 5.79888 0
M  V30 3588 H 357.123 -0.0206476 0.740712 0
M  V30 3589 H 359.77 0.649686 1.80143 0
M  V30 3590 H 358.075 -1.05588 3.77304 0
M  V30 3591 H 359.772 -0.705549 3.94744 0
M  V30 3592 H 356.362 0.700315 4.2284 0
M  V30 3593 H 360.546 1.55239 4.71396 0
M  V30 3594 H 355.802 2.7533 5.45897 0
M  V30 3595 H 359.976 3.60509 5.95824 0
M  V30 3596 H 357.603 4.21132 6.32892 0
M  V30 3597 N 359.178 -1.55987 0.224894 0
M  V30 3598 C 360.403 -2.03232 -0.41369 0
M  V30 3599 C 360.828 -1.10359 -1.52323 0
M  V30 3600 O 360.186 -0.092395 -1.81064 0
M  V30 3601 C 360.234 -3.48682 -0.919405 0
M  V30 3602 O 359.338 -3.58947 -2.03054 0
M  V30 3603 H 358.679 -0.657428 -0.0931903 0
M  V30 3604 H 361.209 -2.01679 0.34451 0
M  V30 3605 H 361.219 -3.8907 -1.22835 0
M  V30 3606 H 359.894 -4.15761 -0.107339 0
M  V30 3607 H 358.471 -3.30448 -1.72796 0
M  V30 3608 N 360.656 0.0484629 -1.57525 0
M  V30 3609 C 361.606 1.06246 -2.01732 0
M  V30 3610 C 362.59 1.33155 -0.903245 0
M  V30 3611 O 363.782 1.33065 -1.16717 0
M  V30 3612 C 360.911 2.36943 -2.48421 0
M  V30 3613 C 359.997 2.13208 -3.6661 0
M  V30 3614 N 360.388 1.5947 -4.80003 0
M  V30 3615 C 358.686 2.43581 -3.7361 0
M  V30 3616 C 359.387 1.51092 -5.61735 0
M  V30 3617 N 358.363 1.9797 -5.0627 0
M  V30 3618 H 362.165 0.640675 -2.86832 0
M  V30 3619 H 359.679 0.255134 -1.60383 0
M  V30 3620 H 361.676 3.10374 -2.78341 0
M  V30 3621 H 360.336 2.79818 -1.64718 0
M  V30 3622 H 361.347 1.28008 -5.01831 0
M  V30 3623 H 358.024 2.89662 -3.00669 0
M  V30 3624 H 359.414 1.10199 -6.62801 0
M  V30 3625 N 362.134 1.5431 0.320358 0
M  V30 3626 C 363.064 1.86912 1.3995 0
M  V30 3627 C 364.045 0.726211 1.53819 0
M  V30 3628 O 365.23 0.980233 1.67646 0
M  V30 3629 C 362.36 2.09932 2.7667 0
M  V30 3630 C 361.314 3.25776 2.77586 0
M  V30 3631 C 360.64 3.34173 4.17412 0
M  V30 3632 C 361.94 4.6335 2.41048 0
M  V30 3633 H 363.634 2.77292 1.12914 0
M  V30 3634 H 361.18 1.33421 0.541738 0
M  V30 3635 H 363.133 2.31324 3.52232 0
M  V30 3636 H 361.857 1.16304 3.0519 0
M  V30 3637 H 360.516 3.04276 2.04479 0
M  V30 3638 H 360.164 2.38098 4.43078 0
M  V30 3639 H 359.864 4.12033 4.18931 0
M  V30 3640 H 361.388 3.57803 4.94782 0
M  V30 3641 H 362.802 4.84602 3.06324 0
M  V30 3642 H 361.199 5.43782 2.53813 0
M  V30 3643 H 362.269 4.65381 1.36193 0
M  V30 3644 N 363.613 -0.582584 1.46437 0
M  V30 3645 C 364.576 -1.67366 1.56592 0
M  V30 3646 C 365.576 -1.54575 0.443072 0
M  V30 3647 O 366.766 -1.59191 0.707381 0
M  V30 3648 C 363.898 -3.06791 1.48634 0
M  V30 3649 H 365.091 -1.5972 2.5383 0
M  V30 3650 H 362.644 -0.800432 1.34249 0
M  V30 3651 H 363.379 -3.19993 0.526763 0
M  V30 3652 H 363.164 -3.17484 2.30101 0
M  V30 3653 H 364.654 -3.86218 1.58826 0
M  V30 3654 N 365.091 -1.34144 -0.827227 0
M  V30 3655 C 366.502 -1.23557 -1.39966 0
M  V30 3656 C 366.853 0.140731 -1.95695 0
M  V30 3657 O 365.978 1.04087 -1.89723 0
M  V30 3658 C 366.573 -2.23708 -2.54441 0
M  V30 3659 C 365.132 -2.16924 -3.07605 0
M  V30 3660 C 364.279 -2.10549 -1.80456 0
M  V30 3661 H 367.23 -1.45573 -0.631991 0
M  V30 3662 H 367.251 -1.85157 -3.32411 0
M  V30 3663 H 366.763 -3.23866 -2.13851 0
M  V30 3664 H 364.864 -1.20107 -3.52711 0
M  V30 3665 H 364.977 -3.07988 -3.66988 0
M  V30 3666 H 363.341 -1.56203 -2.01178 0
M  V30 3667 H 364.124 -3.12535 -1.42046 0
M  V30 3668 N 366.569 1.04691 -1.17803 0
M  V30 3669 C 367.985 1.29963 -0.926379 0
M  V30 3670 C 368.185 1.97251 0.411635 0
M  V30 3671 O 367.241 2.24922 1.14744 0
M  V30 3672 C 368.554 2.16447 -2.08737 0
M  V30 3673 C 370.102 2.29814 -2.12496 0
M  V30 3674 C 370.577 3.19661 -3.27995 0
M  V30 3675 N 372.068 3.27247 -3.27816 0
M  V30 3676 C 372.803 3.96906 -4.13827 0
M  V30 3677 N 372.299 4.6895 -5.09959 0
M  V30 3678 N 374.092 3.93122 -4.01761 0
M  V30 3679 H 366.243 0.594182 -2.0392 0
M  V30 3680 H 368.506 0.324649 -0.890678 0
M  V30 3681 H 368.212 1.74304 -3.05469 0
M  V30 3682 H 368.086 3.17103 -2.04268 0
M  V30 3683 H 370.473 2.71196 -1.16347 0
M  V30 3684 H 370.554 1.2877 -2.21025 0
M  V30 3685 H 370.198 2.78991 -4.24413 0
M  V30 3686 H 370.128 4.20722 -3.16703 0
M  V30 3687 H 372.619 2.75921 -2.58217 0
M  V30 3688 H 372.932 5.19679 -5.71974 0
M  V30 3689 H 371.277 4.67875 -5.13924 0
M  V30 3690 H 374.468 3.35967 -3.2595 0
M  V30 3691 H 374.641 4.47139 -4.6901 0
M  V30 3692 N 368.047 0.979072 1.23499 0
M  V30 3693 C 368.957 0.526431 2.28617 0
M  V30 3694 C 369.973 -0.418126 1.68901 0
M  V30 3695 O 371.149 -0.288372 1.99325 0
M  V30 3696 C 368.214 -0.165235 3.46306 0
M  V30 3697 C 367.275 0.82056 4.21385 0
M  V30 3698 C 366.508 0.161807 5.33455 0
M  V30 3699 O 366.731 -1.04742 5.60701 0
M  V30 3700 O 365.665 0.859708 5.95729 0
M  V30 3701 H 369.491 1.4006 2.69475 0
M  V30 3702 H 367.076 0.746643 1.29405 0
M  V30 3703 H 368.958 -0.553287 4.17752 0
M  V30 3704 H 367.633 -1.01419 3.07402 0
M  V30 3705 H 366.54 1.25929 3.52268 0
M  V30 3706 H 367.873 1.63828 4.64135 0
M  V30 3707 N 369.525 -1.3858 0.750561 0
M  V30 3708 C 370.941 -1.53759 0.427824 0
M  V30 3709 C 371.141 -1.71401 -1.05943 0
M  V30 3710 O 370.197 -1.72331 -1.84549 0
M  V30 3711 C 371.51 -2.74642 1.22443 0
M  V30 3712 C 373.058 -2.88489 1.2142 0
M  V30 3713 C 373.533 -4.12329 1.9937 0
M  V30 3714 N 375.024 -4.194 1.96616 0
M  V30 3715 C 375.759 -5.14209 2.53727 0
M  V30 3716 N 375.255 -6.14709 3.19539 0
M  V30 3717 N 377.048 -5.06537 2.43673 0
M  V30 3718 H 369.199 -1.25377 1.71447 0
M  V30 3719 H 371.462 -0.608844 0.726645 0
M  V30 3720 H 371.168 -2.68 2.27747 0
M  V30 3721 H 371.042 -3.67745 0.839273 0
M  V30 3722 H 373.429 -2.94614 0.169232 0
M  V30 3723 H 373.51 -1.96406 1.63885 0
M  V30 3724 H 373.154 -4.06966 3.03877 0
M  V30 3725 H 373.084 -5.03486 1.54302 0
M  V30 3726 H 375.575 -3.47421 1.48684 0
M  V30 3727 H 375.888 -6.8354 3.60545 0
M  V30 3728 H 374.233 -6.1505 3.23633 0
M  V30 3729 H 377.424 -4.26962 1.91889 0
M  V30 3730 H 377.597 -5.80245 2.88479 0
M  V30 3731 N 371.003 -0.499398 -1.49478 0
M  V30 3732 C 371.935 0.316575 -2.27003 0
M  V30 3733 C 372.948 0.932047 -1.33479 0
M  V30 3734 O 374.137 0.815658 -1.58774 0
M  V30 3735 C 371.237 1.46055 -3.05812 0
M  V30 3736 C 370.41 0.952679 -4.26899 0
M  V30 3737 C 369.469 1.97407 -4.87767 0
M  V30 3738 O 368.495 1.54326 -5.4788 0
M  V30 3739 N 369.697 3.30436 -4.77276 0
M  V30 3740 H 372.462 -0.348168 -2.97671 0
M  V30 3741 H 370.023 -0.33185 -1.58463 0
M  V30 3742 H 372.015 2.14135 -3.43407 0
M  V30 3743 H 370.585 2.02948 -2.37762 0
M  V30 3744 H 369.805 0.0968248 -3.94081 0
M  V30 3745 H 371.093 0.59174 -5.05347 0
M  V30 3746 H 370.491 3.68126 -4.29534 0
M  V30 3747 H 369.048 3.94235 -5.19059 0
M  V30 3748 N 372.481 1.55866 -0.233164 0
M  V30 3749 C 373.709 2.02998 0.399905 0
M  V30 3750 C 374.124 1.11274 1.52524 0
M  V30 3751 O 373.481 0.124528 1.82075 0
M  V30 3752 C 373.532 3.4958 0.920639 0
M  V30 3753 O 373.253 4.37808 -0.159834 0
M  V30 3754 C 374.754 4.12411 1.62578 0
M  V30 3755 H 371.974 0.664006 0.0966281 0
M  V30 3756 H 374.518 2.0143 -0.353013 0
M  V30 3757 H 372.673 3.51727 1.62379 0
M  V30 3758 H 373.087 5.23981 0.23337 0
M  V30 3759 H 374.561 5.16711 1.94201 0
M  V30 3760 H 375.038 3.5809 2.54299 0
M  V30 3761 H 375.644 4.14148 0.967553 0
M  V30 3762 N 373.959 -0.0401083 1.57549 0
M  V30 3763 C 374.892 -1.07689 2.01192 0
M  V30 3764 C 375.87 -1.358 0.894273 0
M  V30 3765 O 377.054 -1.48642 1.15921 0
M  V30 3766 C 374.181 -2.41418 2.3756 0
M  V30 3767 C 373.227 -2.29237 3.59656 0
M  V30 3768 S 374.06 -1.65628 5.09242 0
M  V30 3769 C 375.216 -3.0087 5.48843 0
M  V30 3770 H 375.449 -0.705108 2.88817 0
M  V30 3771 H 372.982 -0.249724 1.52367 0
M  V30 3772 H 374.94 -3.18329 2.59186 0
M  V30 3773 H 373.601 -2.75747 1.50407 0
M  V30 3774 H 372.794 -3.27932 3.82722 0
M  V30 3775 H 372.396 -1.60469 3.37825 0
M  V30 3776 H 374.688 -3.97201 5.48851 0
M  V30 3777 H 375.631 -2.82549 6.49286 0
M  V30 3778 H 376.039 -3.02934 4.76331 0
M  V30 3779 N 375.437 -1.54477 -0.31217 0
M  V30 3780 C 376.684 -1.73227 -1.04875 0
M  V30 3781 C 377.012 -0.512042 -1.87639 0
M  V30 3782 O 376.267 0.506131 -1.89042 0
M  V30 3783 C 376.566 -2.967 -1.99258 0
M  V30 3784 C 376.232 -4.30974 -1.32559 0
M  V30 3785 C 374.894 -4.67477 -1.141 0
M  V30 3786 C 377.246 -5.14258 -0.847835 0
M  V30 3787 C 374.574 -5.84852 -0.465326 0
M  V30 3788 C 376.926 -6.32327 -0.185931 0
M  V30 3789 C 375.59 -6.67499 0.0107077 0
M  V30 3790 H 374.86 -0.633881 -0.383765 0
M  V30 3791 H 377.507 -1.88727 -0.324731 0
M  V30 3792 H 375.812 -2.75935 -2.7815 0
M  V30 3793 H 377.509 -3.08401 -2.563 0
M  V30 3794 H 374.099 -4.02262 -1.4793 0
M  V30 3795 H 378.283 -4.86565 -0.978192 0
M  V30 3796 H 373.539 -6.10654 -0.301883 0
M  V30 3797 H 377.713 -6.96135 0.192211 0
M  V30 3798 H 375.34 -7.58306 0.536287 0
M  V30 3799 N 376.915 0.57481 -1.46744 0
M  V30 3800 C 377.825 1.711 -1.60505 0
M  V30 3801 C 378.841 1.67008 -0.488307 0
M  V30 3802 O 380.017 1.86774 -0.753495 0
M  V30 3803 C 377.082 3.07608 -1.59932 0
M  V30 3804 C 376.143 3.22904 -2.82898 0
M  V30 3805 C 375.376 4.529 -2.82343 0
M  V30 3806 O 375.599 5.37278 -1.91542 0
M  V30 3807 O 374.533 4.71611 -3.73987 0
M  V30 3808 H 378.359 1.62436 -2.56609 0
M  V30 3809 H 375.944 0.742779 -1.29627 0
M  V30 3810 H 377.826 3.88877 -1.62336 0
M  V30 3811 H 376.501 3.16692 -0.669898 0
M  V30 3812 H 375.408 2.41099 -2.86046 0
M  V30 3813 H 376.741 3.18715 -3.75076 0
M  V30 3814 N 378.394 1.34581 0.820102 0
M  V30 3815 C 379.324 1.29038 1.94606 0
M  V30 3816 C 380.305 0.1673 1.69275 0
M  V30 3817 O 381.49 0.360112 1.90832 0
M  V30 3818 C 378.62 1.04793 3.31113 0
M  V30 3819 C 377.574 2.13597 3.70891 0
M  V30 3820 C 376.9 1.74537 5.05412 0
M  V30 3821 C 378.2 3.55451 3.8269 0
M  V30 3822 H 379.894 2.23248 1.99501 0
M  V30 3823 H 377.44 1.0747 0.958449 0
M  V30 3824 H 379.393 0.995592 4.0947 0
M  V30 3825 H 378.117 0.0702565 3.26524 0
M  V30 3826 H 376.776 2.17905 2.9481 0
M  V30 3827 H 376.424 0.754226 4.97313 0
M  V30 3828 H 376.124 2.47361 5.32997 0
M  V30 3829 H 377.648 1.70803 5.86224 0
M  V30 3830 H 379.062 3.5354 4.51312 0
M  V30 3831 H 377.459 4.26922 4.21732 0
M  V30 3832 H 378.529 3.92587 2.84611 0
M  V30 3833 N 379.872 -1.04064 1.18357 0
M  V30 3834 C 381.097 -1.81454 1.00445 0
M  V30 3835 C 381.522 -1.82823 -0.442423 0
M  V30 3836 O 380.88 -1.24555 -1.31741 0
M  V30 3837 C 380.928 -3.24925 1.56384 0
M  V30 3838 O 380.032 -4.04856 0.785209 0
M  V30 3839 H 379.373 -0.560604 0.355835 0
M  V30 3840 H 381.903 -1.31059 1.57114 0
M  V30 3841 H 381.913 -3.75702 1.59097 0
M  V30 3842 H 380.588 -3.23244 2.61699 0
M  V30 3843 H 379.165 -3.63537 0.830399 0
M  V30 3844 N 381.35 -0.985608 -1.22978 0
M  V30 3845 C 382.297 -0.529825 -2.24636 0
M  V30 3846 C 383.267 0.434028 -1.60329 0
M  V30 3847 O 384.452 0.340414 -1.87739 0
M  V30 3848 C 381.592 0.156533 -3.44745 0
M  V30 3849 C 380.705 -0.848197 -4.23591 0
M  V30 3850 C 379.84 -0.136109 -5.31026 0
M  V30 3851 C 378.879 -1.1297 -6.01585 0
M  V30 3852 N 378.016 -0.446415 -7.00679 0
M  V30 3853 H 382.856 -1.40148 -2.62988 0
M  V30 3854 H 380.393 -0.702168 -1.29259 0
M  V30 3855 H 382.351 0.571324 -4.1327 0
M  V30 3856 H 380.981 0.992025 -3.07179 0
M  V30 3857 H 380.033 -1.38135 -3.54433 0
M  V30 3858 H 381.345 -1.60512 -4.72268 0
M  V30 3859 H 380.499 0.335784 -6.0577 0
M  V30 3860 H 379.238 0.653373 -4.83304 0
M  V30 3861 H 378.243 -1.6123 -5.25628 0
M  V30 3862 H 379.468 -1.91993 -6.51395 0
M  V30 3863 H 377.414 0.323763 -6.55201 0
M  V30 3864 H 377.331 -1.1419 -7.47326 0
M  V30 3865 H 378.599 0.00291697 -7.795 0
M  V30 3866 N 382.828 1.3818 -0.7579 0
M  V30 3867 C 383.761 2.28055 -0.0814093 0
M  V30 3868 C 384.739 1.45603 0.723779 0
M  V30 3869 O 385.923 1.74961 0.701491 0
M  V30 3870 C 383.05 3.2676 0.891394 0
M  V30 3871 C 382.096 4.26153 0.171909 0
M  V30 3872 S 382.929 5.23434 -1.13035 0
M  V30 3873 C 384.085 6.25694 -0.160727 0
M  V30 3874 H 384.318 2.85082 -0.84353 0
M  V30 3875 H 381.851 1.44246 -0.550671 0
M  V30 3876 H 383.809 3.8414 1.44731 0
M  V30 3877 H 382.47 2.68706 1.62652 0
M  V30 3878 H 381.663 4.95738 0.908843 0
M  V30 3879 H 381.265 3.72691 -0.312606 0
M  V30 3880 H 383.557 6.74161 0.671773 0
M  V30 3881 H 384.5 7.03285 -0.824353 0
M  V30 3882 H 384.908 5.64064 0.221892 0
M  V30 3883 N 384.306 0.507319 1.49211 0
M  V30 3884 C 385.553 -0.0349529 2.0247 0
M  V30 3885 C 385.881 -1.36409 1.38647 0
M  V30 3886 O 385.136 -1.88841 0.513566 0
M  V30 3887 C 385.435 -0.229513 3.56662 0
M  V30 3888 C 385.101 1.02241 4.39156 0
M  V30 3889 C 383.763 1.36557 4.61417 0
M  V30 3890 C 386.115 1.85428 4.871 0
M  V30 3891 C 383.443 2.53999 5.28868 0
M  V30 3892 C 385.795 3.02028 5.55843 0
M  V30 3893 C 384.459 3.36717 5.76349 0
M  V30 3894 H 383.729 -0.0127902 0.74089 0
M  V30 3895 H 386.376 0.668756 1.79443 0
M  V30 3896 H 384.681 -1.0158 3.78403 0
M  V30 3897 H 386.378 -0.663641 3.9547 0
M  V30 3898 H 382.968 0.745124 4.22073 0
M  V30 3899 H 387.152 1.6023 4.69723 0
M  V30 3900 H 382.408 2.81105 5.42946 0
M  V30 3901 H 386.582 3.66808 5.91967 0
M  V30 3902 H 384.209 4.27821 6.28389 0
M  V30 3903 N 385.784 -1.5574 0.241426 0
M  V30 3904 C 386.714 -2.24133 -0.654722 0
M  V30 3905 C 387.695 -1.21974 -1.1856 0
M  V30 3906 O 388.88 -1.50612 -1.22595 0
M  V30 3907 C 386.01 -2.93659 -1.85423 0
M  V30 3908 C 384.964 -4.0246 -1.45636 0
M  V30 3909 C 384.29 -4.59383 -2.73626 0
M  V30 3910 C 385.59 -5.18468 -0.631506 0
M  V30 3911 H 387.284 -2.99281 -0.0844353 0
M  V30 3912 H 384.83 -1.43947 -0.0391707 0
M  V30 3913 H 386.783 -3.40203 -2.48676 0
M  V30 3914 H 385.507 -2.15991 -2.44981 0
M  V30 3915 H 384.166 -3.56676 -0.847202 0
M  V30 3916 H 383.814 -3.78422 -3.3137 0
M  V30 3917 H 383.514 -5.32826 -2.4773 0
M  V30 3918 H 385.038 -5.08658 -3.37786 0
M  V30 3919 H 386.452 -5.61272 -1.1682 0
M  V30 3920 H 384.849 -5.98266 -0.468831 0
M  V30 3921 H 385.919 -4.8358 0.357506 0
M  V30 3922 N 387.262 0.0317525 -1.57568 0
M  V30 3923 C 388.192 1.03274 -2.0942 0
M  V30 3924 C 389.173 1.3788 -0.996143 0
M  V30 3925 O 390.358 1.46811 -1.27122 0
M  V30 3926 C 387.488 2.33448 -2.57137 0
M  V30 3927 C 386.442 2.13091 -3.71182 0
M  V30 3928 C 385.768 3.49001 -4.05095 0
M  V30 3929 C 387.068 1.51928 -4.99715 0
M  V30 3930 H 388.762 0.60112 -2.93303 0
M  V30 3931 H 386.308 0.287705 -1.41097 0
M  V30 3932 H 388.261 3.03802 -2.92032 0
M  V30 3933 H 386.985 2.78665 -1.70333 0
M  V30 3934 H 385.644 1.45171 -3.36632 0
M  V30 3935 H 385.292 3.91862 -3.15362 0
M  V30 3936 H 384.992 3.36207 -4.81911 0
M  V30 3937 H 386.516 4.20721 -4.42522 0
M  V30 3938 H 387.93 2.12196 -5.32584 0
M  V30 3939 H 386.327 1.49716 -5.81124 0
M  V30 3940 H 387.397 0.484811 -4.8247 0
M  V30 3941 N 388.74 1.54641 0.303973 0
M  V30 3942 C 389.98 1.75516 1.04755 0
M  V30 3943 C 390.344 0.528211 1.84591 0
M  V30 3944 O 391.545 0.614645 2.61678 0
M  V30 3945 C 389.816 3.00685 1.93193 0
M  V30 3946 S 391.375 3.42549 2.74237 0
M  V30 3947 H 388.193 0.616987 0.353339 0
M  V30 3948 H 390.795 1.92842 0.321292 0
M  V30 3949 H 389.499 3.8811 1.33411 0
M  V30 3950 H 389.03 2.85937 2.70191 0
M  V30 3951 H 391.045 2.99386 3.95705 0
M  V30 3952 N 390.218 -0.567019 1.47046 0
M  V30 3953 C 391.148 -1.68482 1.61667 0
M  V30 3954 C 392.129 -1.6358 0.466418 0
M  V30 3955 O 393.314 -1.81354 0.694574 0
M  V30 3956 C 390.444 -3.07124 1.62148 0
M  V30 3957 C 389.398 -3.26867 2.76301 0
M  V30 3958 C 388.724 -4.66196 2.61849 0
M  V30 3959 C 390.024 -3.13186 4.17986 0
M  V30 3960 H 391.718 -1.56502 2.5524 0
M  V30 3961 H 389.264 -0.751486 1.22836 0
M  V30 3962 H 391.217 -3.8516 1.70968 0
M  V30 3963 H 389.941 -3.2004 0.651287 0
M  V30 3964 H 388.6 -2.51237 2.66975 0
M  V30 3965 H 388.248 -4.75898 1.62879 0
M  V30 3966 H 387.948 -4.80356 3.38425 0
M  V30 3967 H 389.472 -5.46379 2.72584 0
M  V30 3968 H 390.886 -3.81049 4.2834 0
M  V30 3969 H 389.283 -3.3886 4.95272 0
M  V30 3970 H 390.353 -2.10057 4.3704 0
M  V30 3971 N 391.696 -1.35014 -0.812953 0
M  V30 3972 C 392.644 -1.27435 -1.94585 0
M  V30 3973 C 393.638 -0.170494 -1.6854 0
M  V30 3974 O 394.844 -0.336085 -1.76835 0
M  V30 3975 H 391.219 -0.396144 -0.639198 0
M  V30 3976 H 393.19 -2.23158 -1.98098 0
M  V30 3977 C 391.939 -1.05677 -3.31252 0
M  V30 3978 H 391.262 -1.89853 -3.51846 0
M  V30 3979 H 392.702 -1.04413 -4.10943 0
M  V30 3980 C 391.161 0.239615 -3.36047 0
M  V30 3981 O 391.691 1.23759 -3.8216 0
M  V30 3982 N 389.897 0.276186 -2.89285 0
M  V30 3983 H 389.444 -0.53653 -2.51951 0
M  V30 3984 H 389.402 1.14332 -2.92875 0
M  V30 3985 N 393.175 1.03435 -1.18907 0
M  V30 3986 C 394.405 1.8012 -1.01195 0
M  V30 3987 C 394.813 1.8395 0.442613 0
M  V30 3988 O 394.156 1.27836 1.31923 0
M  V30 3989 C 394.218 3.26792 -1.49823 0
M  V30 3990 C 393.882 3.46609 -2.97844 0
M  V30 3991 C 394.879 3.37278 -3.95651 0
M  V30 3992 C 392.564 3.73001 -3.36416 0
M  V30 3993 C 394.558 3.54054 -5.30023 0
M  V30 3994 C 392.245 3.89423 -4.70949 0
M  V30 3995 C 393.243 3.79951 -5.67562 0
M  V30 3996 O 392.931 3.95895 -6.99659 0
M  V30 3997 H 392.663 0.573865 -0.357289 0
M  V30 3998 H 395.217 1.31207 -1.58031 0
M  V30 3999 H 393.447 3.76703 -0.873578 0
M  V30 4000 H 395.136 3.85055 -1.28404 0
M  V30 4001 H 395.902 3.16846 -3.67197 0
M  V30 4002 H 391.781 3.79469 -2.61772 0
M  V30 4003 H 395.325 3.46577 -6.05417 0
M  V30 4004 H 391.222 4.09351 -4.99101 0
M  V30 4005 H 391.99 4.13019 -7.06653 0
M  V30 4006 N 394.653 0.992116 1.22453 0
M  V30 4007 C 395.899 0.678177 1.91761 0
M  V30 4008 C 396.254 -0.781141 1.75829 0
M  V30 4009 O 395.547 -1.55747 1.11595 0
M  V30 4010 C 395.741 1.01832 3.42586 0
M  V30 4011 C 395.57 2.50916 3.73191 0
M  V30 4012 C 394.34 3.17308 3.93248 0
M  V30 4013 C 396.538 3.49032 3.77732 0
M  V30 4014 N 394.52 4.55876 4.11157 0
M  V30 4015 C 395.891 4.73055 4.00773 0
M  V30 4016 C 397.946 3.43349 3.60577 0
M  V30 4017 C 396.649 5.92089 4.0844 0
M  V30 4018 C 398.675 4.61759 3.69503 0
M  V30 4019 C 398.037 5.84582 3.92993 0
M  V30 4020 H 394.136 0.299425 0.722405 0
M  V30 4021 H 396.72 1.27197 1.47408 0
M  V30 4022 H 394.891 0.453118 3.85748 0
M  V30 4023 H 396.623 0.660454 3.99274 0
M  V30 4024 H 393.378 2.67778 3.9063 0
M  V30 4025 H 393.802 5.27748 4.24042 0
M  V30 4026 H 398.444 2.49408 3.41402 0
M  V30 4027 H 396.162 6.86435 4.26418 0
M  V30 4028 H 399.748 4.58951 3.57569 0
M  V30 4029 H 398.628 6.74676 3.99728 0
M  V30 4030 N 396.131 -1.37776 0.765217 0
M  V30 4031 C 397.078 -2.30342 0.145274 0
M  V30 4032 C 398.048 -1.5077 -0.696971 0
M  V30 4033 O 399.233 -1.79362 -0.650689 0
M  V30 4034 C 396.373 -3.37227 -0.732939 0
M  V30 4035 C 395.486 -4.31819 0.125199 0
M  V30 4036 C 394.621 -5.25777 -0.757107 0
M  V30 4037 C 393.66 -6.12012 0.103963 0
M  V30 4038 N 392.797 -6.98232 -0.735953 0
M  V30 4039 H 397.637 -2.8278 0.940195 0
M  V30 4040 H 395.174 -1.39211 0.475255 0
M  V30 4041 H 397.132 -3.97818 -1.25686 0
M  V30 4042 H 395.762 -2.86171 -1.49353 0
M  V30 4043 H 394.814 -3.7259 0.766865 0
M  V30 4044 H 396.126 -4.92509 0.789683 0
M  V30 4045 H 395.28 -5.91541 -1.34776 0
M  V30 4046 H 394.019 -4.65481 -1.45529 0
M  V30 4047 H 393.024 -5.45233 0.707197 0
M  V30 4048 H 394.249 -6.74379 0.799381 0
M  V30 4049 H 392.195 -6.40472 -1.41887 0
M  V30 4050 H 392.112 -7.55891 -0.128624 0
M  V30 4051 H 393.38 -7.68393 -1.31121 0
M  V30 4052 N 397.609 -0.515225 -1.4894 0
M  V30 4053 C 398.539 0.244628 -2.32215 0
M  V30 4054 C 399.52 0.949136 -1.41157 0
M  V30 4055 O 400.705 0.937783 -1.70057 0
M  V30 4056 C 397.835 1.30096 -3.22013 0
M  V30 4057 C 396.789 0.715486 -4.21977 0
M  V30 4058 C 396.115 1.87339 -5.00808 0
M  V30 4059 C 397.415 -0.302982 -5.2142 0
M  V30 4060 H 399.109 -0.450501 -2.95991 0
M  V30 4061 H 396.655 -0.218098 -1.42339 0
M  V30 4062 H 398.608 1.84037 -3.79089 0
M  V30 4063 H 397.332 2.02547 -2.56207 0
M  V30 4064 H 395.991 0.197715 -3.66066 0
M  V30 4065 H 395.639 2.58592 -4.31438 0
M  V30 4066 H 395.339 1.48764 -5.68457 0
M  V30 4067 H 396.863 2.41686 -5.60732 0
M  V30 4068 H 398.277 0.148802 -5.73107 0
M  V30 4069 H 396.674 -0.60532 -5.97039 0
M  V30 4070 H 397.744 -1.21395 -4.69459 0
M  V30 4071 N 399.087 1.5561 -0.249682 0
M  V30 4072 C 399.997 2.25143 0.659375 0
M  V30 4073 C 401.013 1.2685 1.19101 0
M  V30 4074 O 402.189 1.59732 1.22669 0
M  V30 4075 C 399.254 2.93945 1.8384 0
M  V30 4076 C 398.315 4.07655 1.34596 0
M  V30 4077 C 397.548 4.73167 2.46878 0
M  V30 4078 O 397.771 4.37768 3.65671 0
M  V30 4079 O 396.705 5.61623 2.16478 0
M  V30 4080 H 400.531 3.03545 0.0968698 0
M  V30 4081 H 398.116 1.49389 -0.018074 0
M  V30 4082 H 399.998 3.37271 2.52638 0
M  V30 4083 H 398.673 2.18481 2.38847 0
M  V30 4084 H 397.58 3.68839 0.625174 0
M  V30 4085 H 398.913 4.84946 0.841941 0
M  V30 4086 N 400.565 -0.0233959 1.57583 0
M  V30 4087 C 401.793 -0.724682 1.93794 0
M  V30 4088 C 402.208 -1.68588 0.849912 0
M  V30 4089 O 401.565 -1.81676 -0.173204 0
M  V30 4090 C 401.616 -1.47684 3.29957 0
M  V30 4091 O 401.337 -0.554222 4.3458 0
M  V30 4092 C 402.838 -2.27477 3.80485 0
M  V30 4093 H 400.058 -0.203317 0.639455 0
M  V30 4094 H 402.602 0.0207653 2.04489 0
M  V30 4095 H 400.757 -2.17412 3.20641 0
M  V30 4096 H 401.171 -1.08232 5.13212 0
M  V30 4097 H 402.645 -2.7564 4.78254 0
M  V30 4098 H 403.122 -3.09144 3.11972 0
M  V30 4099 H 403.728 -1.62813 3.92902 0
M  V30 4100 N 402.043 -1.548 -0.295768 0
M  V30 4101 C 403.454 -1.65274 -0.868411 0
M  V30 4102 C 403.805 -0.56481 -1.87894 0
M  V30 4103 O 402.93 0.29767 -2.14343 0
M  V30 4104 C 403.525 -2.99603 -1.58188 0
M  V30 4105 C 402.084 -3.12181 -2.10286 0
M  V30 4106 C 401.231 -2.6098 -0.93727 0
M  V30 4107 H 404.182 -1.58534 -0.0726422 0
M  V30 4108 H 404.203 -2.91319 -2.44772 0
M  V30 4109 H 403.715 -3.78764 -0.846151 0
M  V30 4110 H 401.816 -2.3775 -2.8689 0
M  V30 4111 H 401.929 -4.18415 -2.33379 0
M  V30 4112 H 400.293 -2.17564 -1.32431 0
M  V30 4113 H 401.076 -3.42623 -0.215414 0
M  V30 4114 N 403.521 0.559213 -1.47345 0
M  V30 4115 C 404.484 1.64854 -1.59235 0
M  V30 4116 C 405.484 1.53851 -0.467607 0
M  V30 4117 O 406.674 1.58045 -0.732617 0
M  V30 4118 C 403.806 3.04388 -1.53496 0
M  V30 4119 H 404.999 1.55662 -2.56339 0
M  V30 4120 H 402.552 0.778973 -1.35505 0
M  V30 4121 H 403.287 3.19115 -0.577604 0
M  V30 4122 H 403.072 3.13783 -2.35123 0
M  V30 4123 H 404.562 3.83642 -1.6495 0
M  V30 4124 N 404.999 1.35443 0.805782 0
M  V30 4125 C 405.931 1.24285 1.92577 0
M  V30 4126 C 406.944 0.165962 1.61952 0
M  V30 4127 O 408.133 0.419303 1.73505 0
M  V30 4128 C 405.233 0.891272 3.2697 0
M  V30 4129 C 404.406 2.06669 3.85495 0
M  V30 4130 C 403.465 1.69077 4.98297 0
M  V30 4131 O 402.491 2.4096 5.15681 0
M  V30 4132 N 403.693 0.614869 5.77234 0
M  V30 4133 H 406.458 2.20777 2.02676 0
M  V30 4134 H 404.019 1.28623 0.983243 0
M  V30 4135 H 406.011 0.621256 3.99903 0
M  V30 4136 H 404.581 0.016004 3.12596 0
M  V30 4137 H 403.801 2.50046 3.04747 0
M  V30 4138 H 405.089 2.85237 4.21328 0
M  V30 4139 H 404.487 0.017648 5.65697 0
M  V30 4140 H 403.044 0.404636 6.50543 0
M  V30 4141 N 406.477 -1.02803 1.19454 0
M  V30 4142 C 407.724 -1.76217 0.997693 0
M  V30 4143 C 408.052 -1.887 -0.47144 0
M  V30 4144 O 407.307 -1.4011 -1.3663 0
M  V30 4145 C 407.606 -3.18941 1.6128 0
M  V30 4146 C 407.272 -3.26463 3.11019 0
M  V30 4147 C 405.934 -3.28223 3.51885 0
M  V30 4148 C 408.286 -3.25542 4.07028 0
M  V30 4149 C 405.614 -3.26719 4.8731 0
M  V30 4150 C 407.966 -3.25579 5.42385 0
M  V30 4151 C 406.63 -3.25637 5.82681 0
M  V30 4152 H 405.9 -0.644823 0.365082 0
M  V30 4153 H 408.547 -1.20655 1.4871 0
M  V30 4154 H 406.852 -3.77587 1.04572 0
M  V30 4155 H 408.549 -3.74415 1.43577 0
M  V30 4156 H 405.139 -3.25822 2.78457 0
M  V30 4157 H 409.323 -3.23362 3.76498 0
M  V30 4158 H 404.579 -3.25089 5.1781 0
M  V30 4159 H 408.753 -3.23817 6.16535 0
M  V30 4160 H 406.38 -3.24226 6.87591 0
M  V30 4161 N 407.956 -0.998596 -1.21925 0
M  V30 4162 C 409.372 -0.710303 -1.42923 0
M  V30 4163 C 409.572 0.716933 -1.88314 0
M  V30 4164 O 408.628 1.48712 -2.04062 0
M  V30 4165 C 409.941 -1.72072 -2.466 0
M  V30 4166 C 411.489 -1.73681 -2.60392 0
M  V30 4167 C 411.964 -2.73601 -3.67296 0
M  V30 4168 N 413.455 -2.7223 -3.7476 0
M  V30 4169 C 414.19 -3.46206 -4.57087 0
M  V30 4170 N 413.686 -4.29802 -5.43362 0
M  V30 4171 N 415.479 -3.34886 -4.51451 0
M  V30 4172 H 407.63 -1.92028 -0.9077 0
M  V30 4173 H 409.893 -0.828487 -0.460775 0
M  V30 4174 H 409.599 -2.74231 -2.20206 0
M  V30 4175 H 409.473 -1.51818 -3.45299 0
M  V30 4176 H 411.86 -0.722173 -2.86127 0
M  V30 4177 H 411.941 -1.98005 -1.61949 0
M  V30 4178 H 411.585 -3.75217 -3.42307 0
M  V30 4179 H 411.515 -2.46545 -4.65321 0
M  V30 4180 H 414.006 -2.11576 -3.1312 0
M  V30 4181 H 414.319 -4.83061 -6.03218 0
M  V30 4182 H 412.664 -4.33887 -5.42925 0
M  V30 4183 H 415.855 -2.69015 -3.83078 0
M  V30 4184 H 416.028 -3.92796 -5.15379 0
M  V30 4185 N 409.434 1.37368 -0.772513 0
M  V30 4186 C 410.366 2.28899 -0.117502 0
M  V30 4187 C 411.379 1.4867 0.663405 0
M  V30 4188 O 412.568 1.71314 0.501372 0
M  V30 4189 C 409.668 3.2788 0.857192 0
M  V30 4190 C 408.841 4.37207 0.129938 0
M  V30 4191 C 407.9 5.16257 1.01811 0
M  V30 4192 O 406.926 5.67159 0.481601 0
M  V30 4193 N 408.128 5.31058 2.3443 0
M  V30 4194 H 410.893 2.85752 -0.903662 0
M  V30 4195 H 408.454 1.49353 -0.62493 0
M  V30 4196 H 410.446 3.77647 1.45482 0
M  V30 4197 H 409.016 2.7179 1.54432 0
M  V30 4198 H 408.236 3.88827 -0.648605 0
M  V30 4199 H 409.524 5.07434 -0.372559 0
M  V30 4200 H 408.922 4.91287 2.80452 0
M  V30 4201 H 407.479 5.84131 2.89197 0
M  V30 4202 N 410.912 0.523116 1.48665 0
M  V30 4203 C 412.328 0.180511 1.58576 0
M  V30 4204 C 412.528 -1.31597 1.52592 0
M  V30 4205 O 411.584 -2.0937 1.4114 0
M  V30 4206 C 412.897 0.776949 2.90489 0
M  V30 4207 C 414.445 0.745058 3.04003 0
M  V30 4208 C 414.92 1.31995 4.38567 0
M  V30 4209 N 416.411 1.28162 4.45117 0
M  V30 4210 C 417.146 1.6964 5.47731 0
M  V30 4211 N 416.642 2.18816 6.57337 0
M  V30 4212 N 418.435 1.6092 5.38573 0
M  V30 4213 H 410.586 1.4958 1.50797 0
M  V30 4214 H 412.849 0.621772 0.715614 0
M  V30 4215 H 412.555 1.82732 3.00503 0
M  V30 4216 H 412.429 0.25007 3.7637 0
M  V30 4217 H 414.816 -0.296532 2.93606 0
M  V30 4218 H 414.897 1.30933 2.1975 0
M  V30 4219 H 414.541 2.36043 4.49718 0
M  V30 4220 H 414.471 0.731418 5.21496 0
M  V30 4221 H 416.962 0.92155 3.66491 0
M  V30 4222 H 417.275 2.48478 7.31764 0
M  V30 4223 H 415.62 2.22805 6.58318 0
M  V30 4224 H 418.811 1.22304 4.5184 0
M  V30 4225 H 418.984 1.93567 6.18414 0
M  V30 4226 N 412.39 -1.55475 0.257931 0
M  V30 4227 C 413.615 -2.04064 -0.370488 0
M  V30 4228 C 414.04 -1.13565 -1.49948 0
M  V30 4229 O 413.398 -0.130781 -1.80828 0
M  V30 4230 C 413.446 -3.50554 -0.845237 0
M  V30 4231 O 412.55 -3.63173 -1.95394 0
M  V30 4232 H 411.891 -0.659257 -0.0792243 0
M  V30 4233 H 414.421 -2.00903 0.387212 0
M  V30 4234 H 414.431 -3.91588 -1.14555 0
M  V30 4235 H 413.106 -4.15896 -0.0191259 0
M  V30 4236 H 411.683 -3.34039 -1.65748 0
M  V30 4237 N 413.868 0.0150385 -1.57593 0
M  V30 4238 C 414.8 1.03912 -2.04291 0
M  V30 4239 C 415.813 1.31618 -0.958146 0
M  V30 4240 O 417.002 1.28859 -1.23522 0
M  V30 4241 C 414.102 2.37749 -2.41514 0
M  V30 4242 C 413.275 2.29198 -3.72541 0
M  V30 4243 C 412.334 3.45598 -3.96797 0
M  V30 4244 O 411.36 3.24461 -4.67668 0
M  V30 4245 N 412.562 4.67945 -3.43523 0
M  V30 4246 H 415.327 0.64099 -2.92765 0
M  V30 4247 H 412.888 0.20272 -1.60626 0
M  V30 4248 H 414.88 3.14364 -2.54867 0
M  V30 4249 H 413.45 2.69357 -1.58637 0
M  V30 4250 H 412.67 1.3759 -3.69408 0
M  V30 4251 H 413.958 2.20642 -4.5847 0
M  V30 4252 H 413.356 4.88017 -2.86104 0
M  V30 4253 H 411.913 5.41878 -3.62232 0
M  V30 4254 N 415.346 1.54954 0.287554 0
M  V30 4255 C 416.309 1.86076 1.33823 0
M  V30 4256 C 417.309 0.734414 1.43049 0
M  V30 4257 O 418.499 1.00266 1.42452 0
M  V30 4258 C 415.631 2.05305 2.72144 0
M  V30 4259 H 416.824 2.79984 1.07465 0
M  V30 4260 H 414.377 1.47223 0.524902 0
M  V30 4261 H 415.112 1.1373 3.03704 0
M  V30 4262 H 414.897 2.873 2.66836 0
M  V30 4263 H 416.387 2.30706 3.48087 0
M  V30 4264 N 416.824 -0.551391 1.4764 0
M  V30 4265 C 417.734 -1.68525 1.63207 0
M  V30 4266 C 418.75 -1.6621 0.514815 0
M  V30 4267 O 419.926 -1.85551 0.783113 0
M  V30 4268 C 416.991 -3.05025 1.64805 0
M  V30 4269 C 416.052 -3.18362 2.88 0
M  V30 4270 C 415.285 -4.4835 2.89513 0
M  V30 4271 O 415.508 -5.34163 2.00065 0
M  V30 4272 O 414.442 -4.65602 3.81443 0
M  V30 4273 H 418.268 -1.58333 2.59161 0
M  V30 4274 H 415.853 -0.722063 1.30792 0
M  V30 4275 H 417.735 -3.86245 1.68502 0
M  V30 4276 H 416.41 -3.15587 0.720197 0
M  V30 4277 H 415.317 -2.36518 2.89845 0
M  V30 4278 H 416.65 -3.12707 3.80099 0
M  V30 4279 N 418.302 -1.35869 -0.798587 0
M  V30 4280 C 419.579 -1.20145 -1.54352 0
M  V30 4281 C 419.959 0.216161 -2.0999 0
M  V30 4282 O 419.307 1.22068 -1.93162 0
M  V30 4283 C 419.517 -2.27602 -2.64572 0
M  V30 4284 C 420.865 -2.63811 -3.32699 0
M  V30 4285 O 421.889 -2.26576 -2.74849 0
M  V30 4286 O 420.748 -3.27866 -4.37226 0
M  V30 4287 H 417.842 -0.467248 -0.682355 0
M  V30 4288 H 420.388 -1.47574 -0.837859 0
M  V30 4289 H 419.16 -3.2265 -2.21388 0
M  V30 4290 H 418.783 -2.01488 -3.42766 0
M  V30 4291 N 419.78 1.02168 -1.19998 0
M  V30 4292 C 421.026 1.75945 -1.00852 0
M  V30 4293 C 421.359 1.88702 0.458828 0
M  V30 4294 O 420.634 1.40911 1.34069 0
M  V30 4295 C 420.917 3.18154 -1.68671 0
M  V30 4296 C 420.77 3.13224 -3.22817 0
M  V30 4297 C 422.089 4.16711 -1.41561 0
M  V30 4298 H 419.208 0.638673 -0.367785 0
M  V30 4299 H 421.85 1.19222 -1.4794 0
M  V30 4300 H 420 3.66586 -1.28636 0
M  V30 4301 H 421.672 2.72635 -3.72112 0
M  V30 4302 H 419.915 2.50751 -3.53986 0
M  V30 4303 H 420.586 4.13728 -3.65422 0
M  V30 4304 H 423.062 3.76913 -1.76284 0
M  V30 4305 H 421.938 5.14391 -1.91553 0
M  V30 4306 H 422.199 4.40774 -0.342193 0
M  V30 4307 N 421.258 1.00505 1.21394 0
M  V30 4308 C 422.221 0.570459 2.21987 0
M  V30 4309 C 423.221 -0.353211 1.56873 0
M  V30 4310 O 424.411 -0.14349 1.73608 0
M  V30 4311 C 421.543 -0.168555 3.40483 0
M  V30 4312 H 422.736 1.46021 2.6195 0
M  V30 4313 H 420.289 0.793565 1.34656 0
M  V30 4314 H 421.024 -1.07374 3.06009 0
M  V30 4315 H 420.809 0.494823 3.88965 0
M  V30 4316 H 422.299 -0.460362 4.15055 0
M  V30 4317 N 422.737 -1.36956 0.779787 0
M  V30 4318 C 423.965 -2.03755 0.359398 0
M  V30 4319 C 424.38 -1.58807 -1.02106 0
M  V30 4320 O 423.737 -0.773024 -1.6532 0
M  V30 4321 C 423.788 -3.59251 0.402568 0
M  V30 4322 O 423.509 -4.02557 1.72858 0
M  V30 4323 C 425.01 -4.43291 -0.0284068 0
M  V30 4324 H 422.23 -0.654148 0.149437 0
M  V30 4325 H 424.774 -1.75128 1.05595 0
M  V30 4326 H 422.929 -3.86621 -0.245478 0
M  V30 4327 H 423.343 -4.97111 1.67275 0
M  V30 4328 H 424.817 -5.51975 0.0529466 0
M  V30 4329 H 425.294 -4.25719 -1.07982 0
M  V30 4330 H 425.9 -4.21163 0.591758 0
M  V30 4331 N 424.215 -0.530993 -1.48385 0
M  V30 4332 C 425.445 -0.00133928 -2.066 0
M  V30 4333 C 425.853 1.28599 -1.38777 0
M  V30 4334 O 425.196 1.77599 -0.469495 0
M  V30 4335 C 425.258 0.292137 -3.58311 0
M  V30 4336 C 424.922 -0.901864 -4.48013 0
M  V30 4337 C 425.919 -1.80053 -4.87726 0
M  V30 4338 C 423.604 -1.10915 -4.89901 0
M  V30 4339 C 425.598 -2.89038 -5.68098 0
M  V30 4340 C 423.285 -2.20213 -5.70043 0
M  V30 4341 C 424.283 -3.09107 -6.0905 0
M  V30 4342 O 423.971 -4.16514 -6.87583 0
M  V30 4343 H 423.703 -0.0308475 -0.675296 0
M  V30 4344 H 426.257 -0.736335 -1.91748 0
M  V30 4345 H 424.487 1.08112 -3.7128 0
M  V30 4346 H 426.176 0.763994 -3.98645 0
M  V30 4347 H 426.942 -1.65234 -4.55986 0
M  V30 4348 H 422.821 -0.426498 -4.59023 0
M  V30 4349 H 426.365 -3.58451 -5.98464 0
M  V30 4350 H 422.262 -2.35016 -6.01197 0
M  V30 4351 H 423.03 -4.14237 -7.05939 0
M  V30 4352 N 425.693 1.55336 -0.266172 0
M  V30 4353 C 426.64 2.22172 0.625165 0
M  V30 4354 C 427.61 1.19211 1.15663 0
M  V30 4355 O 428.795 1.47723 1.20758 0
M  V30 4356 C 425.935 2.93972 1.8076 0
M  V30 4357 C 425.048 4.11632 1.31084 0
M  V30 4358 C 424.183 4.71099 2.45436 0
M  V30 4359 C 423.222 5.8097 1.92718 0
M  V30 4360 N 422.359 6.34538 3.00509 0
M  V30 4361 H 427.199 2.9796 0.0485582 0
M  V30 4362 H 424.736 1.47095 0.0122024 0
M  V30 4363 H 426.694 3.33811 2.50251 0
M  V30 4364 H 425.324 2.20623 2.35638 0
M  V30 4365 H 424.376 3.76975 0.509326 0
M  V30 4366 H 425.688 4.90893 0.884633 0
M  V30 4367 H 424.842 5.13612 3.22936 0
M  V30 4368 H 423.581 3.91096 2.91368 0
M  V30 4369 H 422.586 5.37916 1.13695 0
M  V30 4370 H 423.811 6.62836 1.47733 0
M  V30 4371 H 421.757 5.57433 3.45839 0
M  V30 4372 H 421.674 7.09046 2.62279 0
M  V30 4373 H 422.942 6.81709 3.78011 0
M  V30 4374 N 427.171 -0.0066808 1.57599 0
M  V30 4375 C 428.417 -0.693947 1.90558 0
M  V30 4376 C 428.75 -1.73792 0.866594 0
M  V30 4377 O 428.025 -1.94156 -0.115548 0
M  V30 4378 C 428.308 -1.34317 3.34112 0
M  V30 4379 C 428.161 -0.311189 4.48722 0
M  V30 4380 C 429.48 -2.27116 3.7697 0
M  V30 4381 H 426.599 -0.250803 0.693013 0
M  V30 4382 H 429.241 0.043242 1.89951 0
M  V30 4383 H 427.391 -1.9715 3.3476 0
M  V30 4384 H 429.063 0.316944 4.6021 0
M  V30 4385 H 427.306 0.367253 4.32243 0
M  V30 4386 H 427.977 -0.804366 5.46108 0
M  V30 4387 H 430.453 -1.74306 3.77831 0
M  V30 4388 H 429.329 -2.69511 4.78179 0
M  V30 4389 H 429.59 -3.14743 3.10466 0
M  V30 4390 N 428.649 -1.55105 -0.279332 0
M  V30 4391 C 429.597 -1.88333 -1.36505 0
M  V30 4392 C 430.591 -0.759043 -1.51443 0
M  V30 4393 O 431.797 -0.943312 -1.53302 0
M  V30 4394 H 428.172 -0.59766 -0.456406 0
M  V30 4395 H 430.143 -2.79041 -1.05728 0
M  V30 4396 C 428.892 -2.16628 -2.7197 0
M  V30 4397 H 428.215 -3.02624 -2.61264 0
M  V30 4398 H 429.655 -2.43803 -3.46895 0
M  V30 4399 C 428.114 -0.971807 -3.22579 0
M  V30 4400 O 428.644 -0.203228 -4.01186 0
M  V30 4401 N 426.85 -0.771238 -2.80179 0
M  V30 4402 H 426.397 -1.39792 -2.1637 0
M  V30 4403 H 426.355 0.0263667 -3.14389 0
M  V30 4404 N 430.127 0.543554 -1.4793 0
M  V30 4405 C 431.357 1.32324 -1.58663 0
M  V30 4406 C 431.765 1.8766 -0.240896 0
M  V30 4407 O 431.108 1.66411 0.778011 0
M  V30 4408 C 431.17 2.52094 -2.56299 0
M  V30 4409 C 430.834 2.17944 -4.01683 0
M  V30 4410 C 431.831 1.74422 -4.89768 0
M  V30 4411 C 429.516 2.28884 -4.47121 0
M  V30 4412 C 431.51 1.42287 -6.21316 0
M  V30 4413 C 429.197 1.96361 -5.78693 0
M  V30 4414 C 430.195 1.53132 -6.65612 0
M  V30 4415 O 429.883 1.21029 -7.94737 0
M  V30 4416 H 429.615 0.409174 -0.538101 0
M  V30 4417 H 432.169 0.663887 -1.94375 0
M  V30 4418 H 430.399 3.20965 -2.15681 0
M  V30 4419 H 432.088 3.14165 -2.57012 0
M  V30 4420 H 432.854 1.65452 -4.55907 0
M  V30 4421 H 428.733 2.61488 -3.79664 0
M  V30 4422 H 432.277 1.08472 -6.89115 0
M  V30 4423 H 428.174 2.04967 -6.12094 0
M  V30 4424 H 428.942 1.34543 -8.07366 0
M  V30 4425 N 431.605 1.3629 0.791371 0
M  V30 4426 C 432.833 1.33562 1.58016 0
M  V30 4427 C 433.248 -0.0835616 1.88615 0
M  V30 4428 O 432.605 -1.0399 1.49974 0
M  V30 4429 C 432.656 2.15517 2.90232 0
M  V30 4430 O 432.377 3.51902 2.60953 0
M  V30 4431 C 433.878 2.20546 3.84544 0
M  V30 4432 H 431.098 0.458226 0.490173 0
M  V30 4433 H 433.642 1.79361 0.982345 0
M  V30 4434 H 431.797 1.73278 3.46487 0
M  V30 4435 H 432.211 3.94644 3.4548 0
M  V30 4436 H 433.685 2.82252 4.74382 0
M  V30 4437 H 434.162 1.20838 4.2225 0
M  V30 4438 H 434.768 2.63013 3.34222 0
M  V30 4439 N 433.083 -1.0153 1.20538 0
M  V30 4440 C 434.499 -1.27461 0.96051 0
M  V30 4441 C 434.699 -1.98273 -0.359193 0
M  V30 4442 O 433.755 -2.27886 -1.0874 0
M  V30 4443 C 435.068 -2.10837 2.14402 0
M  V30 4444 C 436.616 -2.24099 2.18515 0
M  V30 4445 C 437.091 -3.10852 3.36355 0
M  V30 4446 N 438.582 -3.18441 3.36377 0
M  V30 4447 C 439.317 -3.85795 4.24205 0
M  V30 4448 N 438.813 -4.55264 5.22213 0
M  V30 4449 N 440.606 -3.82331 4.12043 0
M  V30 4450 H 432.757 -0.539907 2.05423 0
M  V30 4451 H 435.02 -0.30092 0.898972 0
M  V30 4452 H 434.726 -1.66144 3.09983 0
M  V30 4453 H 434.6 -3.11576 2.12604 0
M  V30 4454 H 436.987 -2.68016 1.23497 0
M  V30 4455 H 437.068 -1.22865 2.24361 0
M  V30 4456 H 436.712 -2.6764 4.31661 0
M  V30 4457 H 436.642 -4.12177 3.27746 0
M  V30 4458 H 439.133 -2.68978 2.65442 0
M  V30 4459 H 439.446 -5.04331 5.85551 0
M  V30 4460 H 437.791 -4.54085 5.26148 0
M  V30 4461 H 440.982 -3.27207 3.34743 0
M  V30 4462 H 441.155 -4.34547 4.807 0
M  V30 4463 N 434.561 -1.01147 -1.20859 0
M  V30 4464 C 435.807 -0.708598 -1.90658 0
M  V30 4465 C 436.162 0.753069 -1.7705 0
M  V30 4466 O 435.455 1.53952 -1.14059 0
M  V30 4467 C 435.649 -1.0727 -3.40922 0
M  V30 4468 C 435.478 -2.56821 -3.69152 0
M  V30 4469 C 434.248 -3.23524 -3.8815 0
M  V30 4470 C 436.446 -3.54997 -3.72131 0
M  V30 4471 N 434.428 -4.62359 -4.03853 0
M  V30 4472 C 435.799 -4.79371 -3.93196 0
M  V30 4473 C 437.854 -3.49042 -3.55069 0
M  V30 4474 C 436.557 -5.98512 -3.98969 0
M  V30 4475 C 438.583 -4.67579 -3.6211 0
M  V30 4476 C 437.945 -5.9076 -3.83643 0
M  V30 4477 H 434.044 -0.31088 -0.71755 0
M  V30 4478 H 436.628 -1.29526 -1.45366 0
M  V30 4479 H 434.799 -0.51443 -3.84978 0
M  V30 4480 H 436.531 -0.723891 -3.98173 0
M  V30 4481 H 433.286 -2.73958 -3.86321 0
M  V30 4482 H 433.71 -5.34427 -4.15592 0
M  V30 4483 H 438.352 -2.54808 -3.37391 0
M  V30 4484 H 436.07 -6.93132 -4.15444 0
M  V30 4485 H 439.656 -4.64581 -3.50222 0
M  V30 4486 H 438.536 -6.8095 -3.88944 0
M  V30 4487 N 436.039 1.36541 -0.78704 0
M  V30 4488 C 436.969 2.32659 -0.197992 0
M  V30 4489 C 437.95 1.56533 0.665697 0
M  V30 4490 O 439.135 1.84698 0.60001 0
M  V30 4491 C 436.265 3.40778 0.669901 0
M  V30 4492 C 435.219 4.27897 -0.0937039 0
M  V30 4493 C 434.545 5.27163 0.894629 0
M  V30 4494 C 435.845 5.06334 -1.28154 0
M  V30 4495 H 437.539 2.82171 -1.00099 0
M  V30 4496 H 435.085 1.35665 -0.482793 0
M  V30 4497 H 437.038 4.07008 1.09191 0
M  V30 4498 H 435.762 2.89827 1.50558 0
M  V30 4499 H 434.421 3.6322 -0.49666 0
M  V30 4500 H 434.069 4.72486 1.72527 0
M  V30 4501 H 433.769 5.86317 0.388149 0
M  V30 4502 H 435.293 5.96266 1.31525 0
M  V30 4503 H 436.707 5.65617 -0.93541 0
M  V30 4504 H 435.104 5.74888 -1.72115 0
M  V30 4505 H 436.174 4.38114 -2.07807 0
M  V30 4506 N 437.518 0.538854 1.48102 0
M  V30 4507 C 438.758 0.0101209 2.04397 0
M  V30 4508 C 439.122 -1.30741 1.40609 0
M  V30 4509 O 440.323 -1.92272 1.87843 0
M  V30 4510 C 438.594 -0.100232 3.57259 0
M  V30 4511 S 440.153 -0.577746 4.3498 0
M  V30 4512 H 436.971 0.0163171 0.710813 0
M  V30 4513 H 439.573 0.721429 1.81702 0
M  V30 4514 H 438.277 0.863351 4.01216 0
M  V30 4515 H 437.808 -0.835651 3.84422 0
M  V30 4516 H 439.823 -1.84073 4.60794 0
M  V30 4517 N 438.996 -1.55193 0.274407 0
M  V30 4518 C 440.226 -2.03692 -0.345442 0
M  V30 4519 C 440.634 -1.15224 -1.50067 0
M  V30 4520 O 439.977 -0.164749 -1.8296 0
M  V30 4521 C 440.039 -3.48325 -0.88939 0
M  V30 4522 C 439.703 -4.56794 0.137115 0
M  V30 4523 C 440.7 -5.11028 0.956378 0
M  V30 4524 C 438.385 -5.01568 0.27115 0
M  V30 4525 C 440.379 -6.08552 1.89587 0
M  V30 4526 C 438.066 -5.98918 1.21412 0
M  V30 4527 C 439.064 -6.52291 2.02498 0
M  V30 4528 O 438.752 -7.47738 2.952 0
M  V30 4529 H 438.484 -0.670893 -0.0829332 0
M  V30 4530 H 441.038 -2.01387 0.404056 0
M  V30 4531 H 439.268 -3.47867 -1.68895 0
M  V30 4532 H 440.957 -3.80167 -1.42225 0
M  V30 4533 H 441.723 -4.7725 0.863559 0
M  V30 4534 H 437.602 -4.5967 -0.349987 0
M  V30 4535 H 441.146 -6.50137 2.52918 0
M  V30 4536 H 437.043 -6.32114 1.30776 0
M  V30 4537 H 437.811 -7.65451 2.89874 0
M  V30 4538 N 440.474 -0.00167713 -1.576 0
M  V30 4539 C 441.714 0.687302 -1.92498 0
M  V30 4540 C 442.078 1.70844 -0.876144 0
M  V30 4541 O 443.279 2.44792 -1.11043 0
M  V30 4542 C 441.55 1.31217 -3.32441 0
M  V30 4543 S 443.109 2.02604 -3.89226 0
M  V30 4544 H 439.927 0.226985 -0.673794 0
M  V30 4545 H 442.529 -0.0587666 -1.95412 0
M  V30 4546 H 441.233 0.556164 -4.06614 0
M  V30 4547 H 440.764 2.09613 -3.32905 0
M  V30 4548 H 442.779 3.30137 -3.70438 0
M  V30 4549 N 441.952 1.55251 0.271103 0
M  V30 4550 C 442.902 1.84649 1.33749 0
M  V30 4551 C 443.886 0.705529 1.44607 0
M  V30 4552 O 445.078 0.966916 1.48256 0
M  V30 4553 C 442.207 2.12354 2.69742 0
M  V30 4554 C 441.293 3.32714 2.62988 0
M  V30 4555 N 441.684 4.52575 2.25853 0
M  V30 4556 C 439.982 3.35341 2.94045 0
M  V30 4557 C 440.683 5.34669 2.29136 0
M  V30 4558 N 439.659 4.73123 2.67685 0
M  V30 4559 H 443.461 2.74865 1.0405 0
M  V30 4560 H 440.975 1.55152 0.479738 0
M  V30 4561 H 442.972 2.31572 3.4667 0
M  V30 4562 H 441.632 1.23422 3.00328 0
M  V30 4563 H 442.643 4.78639 1.978 0
M  V30 4564 H 439.32 2.56608 3.2933 0
M  V30 4565 H 440.71 6.40509 2.02971 0
M  V30 4566 N 443.43 -0.535701 1.48216 0
M  V30 4567 C 444.676 -1.29375 1.56173 0
M  V30 4568 C 445.009 -1.92804 0.232429 0
M  V30 4569 O 444.284 -1.78992 -0.761048 0
M  V30 4570 C 444.567 -2.38747 2.69577 0
M  V30 4571 C 444.42 -1.80046 4.12193 0
M  V30 4572 C 445.739 -3.40551 2.78771 0
M  V30 4573 H 442.858 -0.469027 0.568491 0
M  V30 4574 H 445.5 -0.597358 1.80365 0
M  V30 4575 H 443.65 -2.98147 2.4908 0
M  V30 4576 H 445.322 -1.24742 4.44114 0
M  V30 4577 H 443.565 -1.10609 4.19462 0
M  V30 4578 H 444.236 -2.59212 4.87353 0
M  V30 4579 H 446.712 -2.91099 2.97322 0
M  V30 4580 H 445.588 -4.1448 3.59857 0
M  V30 4581 H 445.849 -4.00746 1.86696 0
M  V30 4582 N 444.908 -1.36708 -0.784132 0
M  V30 4583 C 446.319 -1.27947 -1.35965 0
M  V30 4584 C 446.67 0.0784013 -1.96043 0
M  V30 4585 O 445.795 0.979989 -1.92938 0
M  V30 4586 C 446.39 -2.31689 -2.47195 0
M  V30 4587 C 444.949 -2.26601 -3.00548 0
M  V30 4588 C 444.096 -2.16184 -1.73666 0
M  V30 4589 H 447.047 -1.4751 -0.585358 0
M  V30 4590 H 447.068 -1.95638 -3.26352 0
M  V30 4591 H 446.58 -3.30506 -2.03439 0
M  V30 4592 H 444.681 -1.31268 -3.48711 0
M  V30 4593 H 444.794 -3.19508 -3.57004 0
M  V30 4594 H 443.158 -1.62524 -1.96107 0
M  V30 4595 H 443.941 -3.16896 -1.32031 0
M  V30 4596 N 446.386 1.0089 -1.21074 0
M  V30 4597 C 447.318 2.09737 -0.924291 0
M  V30 4598 C 448.331 1.62546 0.0909809 0
M  V30 4599 O 449.52 1.77942 -0.141021 0
M  V30 4600 C 446.62 3.36922 -0.36559 0
M  V30 4601 C 445.793 4.13216 -1.43426 0
M  V30 4602 C 444.852 5.18696 -0.885496 0
M  V30 4603 O 443.878 5.47176 -1.56801 0
M  V30 4604 N 445.08 5.79718 0.301227 0
M  V30 4605 H 447.845 2.34895 -1.8613 0
M  V30 4606 H 445.406 1.17341 -1.11546 0
M  V30 4607 H 447.398 4.04697 0.0158407 0
M  V30 4608 H 445.968 3.08952 0.476149 0
M  V30 4609 H 445.188 3.40301 -1.9897 0
M  V30 4610 H 446.476 4.60967 -2.15376 0
M  V30 4611 H 445.874 5.58926 0.872849 0
M  V30 4612 H 444.431 6.48804 0.624211 0
M  V30 4613 N 447.864 1.01787 1.20321 0
M  V30 4614 C 449.089 0.727009 1.9424 0
M  V30 4615 C 449.514 -0.706179 1.74341 0
M  V30 4616 O 448.872 -1.48609 1.03852 0
M  V30 4617 C 448.92 1.06958 3.44372 0
M  V30 4618 O 448.024 0.181983 4.11998 0
M  V30 4619 H 447.365 0.269626 0.606793 0
M  V30 4620 H 449.895 1.36158 1.52716 0
M  V30 4621 H 449.905 1.02182 3.94997 0
M  V30 4622 H 448.58 2.11378 3.58179 0
M  V30 4623 H 447.157 0.287378 3.71791 0
M  V30 4624 N 449.342 -1.36122 0.79427 0
M  V30 4625 C 450.582 -2.00942 0.374376 0
M  V30 4626 C 450.946 -1.61666 -1.03577 0
M  V30 4627 O 452.147 -2.19113 -1.55701 0
M  V30 4628 C 450.418 -3.53323 0.538327 0
M  V30 4629 S 451.977 -4.38311 0.20703 0
M  V30 4630 H 448.795 -0.696515 0.142785 0
M  V30 4631 H 451.397 -1.65929 1.03382 0
M  V30 4632 H 450.101 -3.79395 1.56484 0
M  V30 4633 H 449.632 -3.93162 -0.136882 0
M  V30 4634 H 451.647 -4.8623 -0.989695 0
M  V30 4635 N 450.82 -0.546701 -1.47814 0
M  V30 4636 C 452.097 0.0464413 -1.95545 0
M  V30 4637 C 452.477 1.4962 -1.48919 0
M  V30 4638 O 451.825 2.16752 -0.723232 0
M  V30 4639 C 452.035 -0.0881298 -3.48889 0
M  V30 4640 C 453.383 0.0626059 -4.24554 0
M  V30 4641 O 454.407 -0.0151555 -3.56197 0
M  V30 4642 O 453.266 0.228071 -5.46024 0
M  V30 4643 H 450.36 0.0700004 -0.824032 0
M  V30 4644 H 452.906 -0.612482 -1.58262 0
M  V30 4645 H 451.678 -1.09737 -3.75597 0
M  V30 4646 H 451.301 0.608886 -3.9291 0
M  V30 4647 N 452.299 1.55045 -0.282633 0
M  V30 4648 C 453.524 2.04628 0.337977 0
M  V30 4649 C 453.949 1.15937 1.48123 0
M  V30 4650 O 453.307 0.159532 1.80597 0
M  V30 4651 C 453.355 3.51854 0.78936 0
M  V30 4652 O 452.459 3.66236 1.89592 0
M  V30 4653 H 451.8 0.660434 0.0687261 0
M  V30 4654 H 454.33 2.00261 -0.419124 0
M  V30 4655 H 454.34 3.93361 1.08311 0
M  V30 4656 H 453.015 4.15873 -0.0470419 0
M  V30 4657 H 451.592 3.36633 1.60413 0
M  V30 4658 N 453.777 0.010035 1.57597 0
M  V30 4659 C 454.707 -0.976857 2.12084 0
M  V30 4660 C 455.688 -1.35191 1.03235 0
M  V30 4661 O 456.873 -1.43389 1.3097 0
M  V30 4662 C 454.003 -2.26548 2.63236 0
M  V30 4663 C 452.957 -2.03175 3.76701 0
M  V30 4664 C 452.283 -3.38138 4.14206 0
M  V30 4665 C 453.583 -1.38625 5.03568 0
M  V30 4666 H 455.277 -0.523145 2.94794 0
M  V30 4667 H 452.823 -0.250195 1.4181 0
M  V30 4668 H 454.776 -2.95952 2.99984 0
M  V30 4669 H 453.5 -2.74051 1.77661 0
M  V30 4670 H 452.159 -1.36195 3.40362 0
M  V30 4671 H 451.807 -3.83363 3.25641 0
M  V30 4672 H 451.507 -3.23312 4.90656 0
M  V30 4673 H 453.031 -4.08841 4.53521 0
M  V30 4674 H 454.445 -1.98 5.38023 0
M  V30 4675 H 452.842 -1.34256 5.84889 0
M  V30 4676 H 453.912 -0.356722 4.83586 0
M  V30 4677 N 455.255 -1.55392 -0.262866 0
M  V30 4678 C 456.666 -1.67079 -0.833158 0
M  V30 4679 C 457.017 -0.604539 -1.86654 0
M  V30 4680 O 456.142 0.252138 -2.14926 0
M  V30 4681 C 456.737 -3.02891 -1.51797 0
M  V30 4682 C 455.296 -3.16571 -2.03617 0
M  V30 4683 C 454.443 -2.62909 -0.881701 0
M  V30 4684 H 457.394 -1.58652 -0.0389986 0
M  V30 4685 H 457.415 -2.96445 -2.38538 0
M  V30 4686 H 456.927 -3.80473 -0.765619 0
M  V30 4687 H 455.028 -2.43782 -2.81782 0
M  V30 4688 H 455.141 -4.23271 -2.24452 0
M  V30 4689 H 453.505 -2.20324 -1.27786 0
M  V30 4690 H 454.288 -3.43003 -0.14269 0
M  V30 4691 N 456.733 0.527833 -1.48498 0
M  V30 4692 C 458.149 0.856571 -1.34666 0
M  V30 4693 C 458.349 1.98271 -0.35931 0
M  V30 4694 O 457.405 2.51551 0.218703 0
M  V30 4695 C 458.718 1.22207 -2.74747 0
M  V30 4696 C 460.266 1.33183 -2.83251 0
M  V30 4697 C 460.741 1.73075 -4.24039 0
M  V30 4698 N 462.232 1.80174 -4.26722 0
M  V30 4699 C 462.967 2.1243 -5.32598 0
M  V30 4700 N 462.463 2.43096 -6.4875 0
M  V30 4701 N 464.256 2.13454 -5.19994 0
M  V30 4702 H 456.407 -0.215174 -2.11307 0
M  V30 4703 H 458.67 -0.0336281 -0.947403 0
M  V30 4704 H 458.376 0.468195 -3.4857 0
M  V30 4705 H 458.25 2.17173 -3.08409 0
M  V30 4706 H 460.637 2.07647 -2.09683 0
M  V30 4707 H 460.718 0.363333 -2.53206 0
M  V30 4708 H 460.362 0.991712 -4.98124 0
M  V30 4709 H 460.292 2.70979 -4.51529 0
M  V30 4710 H 462.783 1.58744 -3.42942 0
M  V30 4711 H 463.096 2.6682 -7.25277 0
M  V30 4712 H 461.441 2.40611 -6.52021 0
M  V30 4713 H 464.632 1.88956 -4.28268 0
M  V30 4714 H 464.805 2.38261 -6.02608 0
M  V30 4715 N 458.211 1.37122 0.776871 0
M  V30 4716 C 459.441 1.35034 1.56363 0
M  V30 4717 C 459.849 -0.0674681 1.8908 0
M  V30 4718 O 459.192 -1.03826 1.51545 0
M  V30 4719 C 459.254 2.11894 2.90415 0
M  V30 4720 C 458.918 3.60897 2.80362 0
M  V30 4721 C 459.915 4.54887 2.51742 0
M  V30 4722 C 457.6 4.03951 2.98545 0
M  V30 4723 C 459.594 5.89909 2.41426 0
M  V30 4724 C 457.281 5.3906 2.87849 0
M  V30 4725 C 458.279 6.31852 2.5933 0
M  V30 4726 O 457.967 7.64479 2.48651 0
M  V30 4727 H 457.699 0.464402 0.49123 0
M  V30 4728 H 460.253 1.80992 0.971127 0
M  V30 4729 H 458.483 1.60618 3.51765 0
M  V30 4730 H 460.172 2.02505 3.51776 0
M  V30 4731 H 460.938 4.22934 2.37385 0
M  V30 4732 H 456.817 3.3209 3.19746 0
M  V30 4733 H 460.361 6.62304 2.19086 0
M  V30 4734 H 456.258 5.70617 3.01773 0
M  V30 4735 H 457.026 7.74742 2.64039 0
M  V30 4736 N 459.689 -1.00246 1.21608 0
M  V30 4737 C 460.599 -2.12515 0.993709 0
M  V30 4738 C 461.615 -1.73913 -0.0549939 0
M  V30 4739 O 462.791 -2.00943 0.135619 0
M  V30 4740 C 459.856 -3.42083 0.563953 0
M  V30 4741 C 458.917 -3.94843 1.68516 0
M  V30 4742 C 458.15 -5.18226 1.27582 0
M  V30 4743 O 458.373 -5.70201 0.150506 0
M  V30 4744 O 457.307 -5.64497 2.0887 0
M  V30 4745 H 461.133 -2.34152 1.93407 0
M  V30 4746 H 458.718 -1.10891 1.00118 0
M  V30 4747 H 460.6 -4.20073 0.334194 0
M  V30 4748 H 459.275 -3.21828 -0.347665 0
M  V30 4749 H 458.182 -3.18068 1.96935 0
M  V30 4750 H 459.515 -4.19512 2.5743 0
M  V30 4751 N 461.167 -1.02423 -1.1978 0
M  V30 4752 C 462.395 -0.737456 -1.93311 0
M  V30 4753 C 462.81 0.703023 -1.75223 0
M  V30 4754 O 462.167 1.47761 -1.07112 0
M  V30 4755 C 462.218 -1.0733 -3.45199 0
M  V30 4756 O 461.939 -2.4572 -3.62702 0
M  V30 4757 C 463.44 -0.80866 -4.35862 0
M  V30 4758 H 460.66 -0.2702 -0.614193 0
M  V30 4759 H 463.204 -1.36747 -1.52054 0
M  V30 4760 H 461.359 -0.488545 -3.84307 0
M  V30 4761 H 461.773 -2.58081 -4.56612 0
M  V30 4762 H 463.247 -1.09365 -5.41057 0
M  V30 4763 H 463.724 0.257025 -4.38447 0
M  V30 4764 H 464.33 -1.37592 -4.02428 0
M  V30 4765 N 462.645 1.35699 -0.801477 0
M  V30 4766 C 463.873 2.03157 -0.391768 0
M  V30 4767 C 464.288 1.60412 0.995668 0
M  V30 4768 O 463.645 0.799228 1.64069 0
M  V30 4769 C 463.696 3.58566 -0.459671 0
M  V30 4770 O 463.417 3.99756 -1.7924 0
M  V30 4771 C 464.918 4.4328 -0.0421205 0
M  V30 4772 H 462.138 0.651688 -0.159825 0
M  V30 4773 H 464.682 1.73426 -1.08368 0
M  V30 4774 H 462.837 3.86963 0.183939 0
M  V30 4775 H 463.251 4.94387 -1.75162 0
M  V30 4776 H 464.725 5.51821 -0.140754 0
M  V30 4777 H 465.202 4.27383 1.01196 0
M  V30 4778 H 465.808 4.20168 -0.658687 0
M  V30 4779 N 464.123 0.554532 1.47522 0
M  V30 4780 C 465.073 -0.215008 2.26984 0
M  V30 4781 C 466.057 -0.88774 1.34194 0
M  V30 4782 O 467.249 -0.786489 1.58567 0
M  V30 4783 C 464.378 -1.24604 3.19889 0
M  V30 4784 C 463.464 -0.576857 4.20159 0
M  V30 4785 N 463.855 0.351541 5.04577 0
M  V30 4786 C 462.153 -0.831104 4.38188 0
M  V30 4787 C 462.854 0.739995 5.76974 0
M  V30 4788 N 461.83 0.0954407 5.43516 0
M  V30 4789 H 465.632 0.498843 2.89636 0
M  V30 4790 H 463.146 0.374279 1.58028 0
M  V30 4791 H 465.143 -1.81128 3.75498 0
M  V30 4792 H 463.803 -1.96101 2.58794 0
M  V30 4793 H 464.814 0.725556 5.12792 0
M  V30 4794 H 461.491 -1.53479 3.88266 0
M  V30 4795 H 462.881 1.50271 6.5488 0
M  V30 4796 N 465.601 -1.54893 0.290851 0
M  V30 4797 C 466.847 -2.0023 -0.321867 0
M  V30 4798 C 467.18 -1.179 -1.54316 0
M  V30 4799 O 466.455 -0.25293 -1.92848 0
M  V30 4800 C 466.738 -3.53456 -0.688515 0
M  V30 4801 C 466.591 -4.46532 0.541209 0
M  V30 4802 C 467.91 -4.13057 -1.51895 0
M  V30 4803 H 465.029 -0.727891 -0.115515 0
M  V30 4804 H 467.671 -1.85722 0.400931 0
M  V30 4805 H 465.821 -3.6595 -1.30433 0
M  V30 4806 H 467.493 -4.4596 1.17973 0
M  V30 4807 H 465.736 -4.17545 1.17636 0
M  V30 4808 H 466.407 -5.51475 0.240675 0
M  V30 4809 H 468.883 -4.03937 -0.99872 0
M  V30 4810 H 467.759 -5.20448 -1.74429 0
M  V30 4811 H 468.02 -3.64284 -2.50498 0
M  V30 4812 N 467.08 -0.0183926 -1.57589 0
M  V30 4813 C 468.327 0.662562 -1.91354 0
M  V30 4814 C 468.655 1.72747 -0.893788 0
M  V30 4815 O 467.91 1.9545 0.0988509 0
M  V30 4816 C 468.209 1.32676 -3.31861 0
M  V30 4817 C 467.875 0.393267 -4.49182 0
M  V30 4818 C 466.537 0.136302 -4.81007 0
M  V30 4819 C 468.889 -0.248366 -5.20608 0
M  V30 4820 C 466.217 -0.770282 -5.81621 0
M  V30 4821 C 468.569 -1.14294 -6.22189 0
M  V30 4822 C 467.233 -1.4089 -6.52462 0
M  V30 4823 H 466.503 0.242448 -0.700214 0
M  V30 4824 H 469.15 -0.0778629 -1.91342 0
M  V30 4825 H 467.455 2.14168 -3.28084 0
M  V30 4826 H 469.152 1.86001 -3.55253 0
M  V30 4827 H 465.742 0.603723 -4.24327 0
M  V30 4828 H 469.926 -0.062883 -4.9626 0
M  V30 4829 H 465.182 -0.984154 -6.03427 0
M  V30 4830 H 469.356 -1.64637 -6.76659 0
M  V30 4831 H 466.983 -2.11306 -7.30242 0
M  V30 4832 N 468.558 1.5553 0.254621 0
M  V30 4833 C 469.806 1.7665 0.981793 0
M  V30 4834 C 470.127 0.580963 1.86145 0
M  V30 4835 O 469.397 -0.403537 1.91699 0
M  V30 4836 H 467.977 0.651475 0.365498 0
M  V30 4837 H 470.639 1.92958 0.274426 0
M  V30 4838 H 469.735 2.67486 1.60802 0
M  V30 4839 N 470.036 -0.519951 1.48776 0
M  V30 4840 C 471.452 -0.849418 1.35119 0
M  V30 4841 C 471.652 -1.98077 0.36982 0
M  V30 4842 O 470.708 -2.51664 -0.205359 0
M  V30 4843 C 472.021 -1.20748 2.75391 0
M  V30 4844 C 473.569 -1.31679 2.83954 0
M  V30 4845 C 474.044 -1.70824 4.24951 0
M  V30 4846 N 475.535 -1.77908 4.27672 0
M  V30 4847 C 476.27 -2.09603 5.33717 0
M  V30 4848 N 475.766 -2.39652 6.5003 0
M  V30 4849 N 477.559 -2.10694 5.21119 0
M  V30 4850 H 469.71 0.226377 2.1119 0
M  V30 4851 H 471.973 0.0386519 0.947212 0
M  V30 4852 H 471.679 -0.449703 3.48813 0
M  V30 4853 H 471.553 -2.15534 3.09556 0
M  V30 4854 H 473.94 -2.06532 2.10781 0
M  V30 4855 H 474.021 -0.3499 2.53396 0
M  V30 4856 H 473.665 -0.965282 4.98643 0
M  V30 4857 H 473.595 -2.6858 4.52959 0
M  V30 4858 H 476.086 -1.56923 3.43779 0
M  V30 4859 H 476.399 -2.6297 7.26682 0
M  V30 4860 H 474.744 -2.37149 6.53288 0
M  V30 4861 H 477.935 -1.86682 4.29264 0
M  V30 4862 H 478.108 -2.35062 6.03863 0
M  V30 4863 N 471.514 -1.37532 -0.769588 0
M  V30 4864 C 472.739 -1.36231 -1.56384 0
M  V30 4865 C 473.164 0.0495849 -1.88035 0
M  V30 4866 O 472.522 1.02723 -1.49391 0
M  V30 4867 C 472.57 -2.20986 -2.84952 0
M  V30 4868 O 471.674 -1.61597 -3.79421 0
M  V30 4869 H 471.015 -0.465387 -0.473615 0
M  V30 4870 H 473.545 -1.81085 -0.952342 0
M  V30 4871 H 473.555 -2.34277 -3.34034 0
M  V30 4872 H 472.23 -3.23612 -2.61243 0
M  V30 4873 H 470.807 -1.57359 -3.38072 0
M  V30 4874 N 472.992 0.995999 -1.22138 0
M  V30 4875 C 473.922 2.10387 -1.01289 0
M  V30 4876 C 474.903 1.69975 0.0651454 0
M  V30 4877 O 476.088 1.9396 -0.0964628 0
M  V30 4878 C 473.218 3.42312 -0.586517 0
M  V30 4879 C 472.172 3.96558 -1.61014 0
M  V30 4880 C 471.498 5.24494 -1.0397 0
M  V30 4881 C 472.798 4.27595 -2.99933 0
M  V30 4882 H 474.492 2.28086 -1.93951 0
M  V30 4883 H 472.038 1.09607 -0.933928 0
M  V30 4884 H 473.991 4.19223 -0.427793 0
M  V30 4885 H 472.715 3.24431 0.375761 0
M  V30 4886 H 471.374 3.21776 -1.75658 0
M  V30 4887 H 471.022 5.02953 -0.0688703 0
M  V30 4888 H 470.722 5.61755 -1.72352 0
M  V30 4889 H 472.246 6.04042 -0.892494 0
M  V30 4890 H 473.66 4.95315 -2.8868 0
M  V30 4891 H 472.057 4.76021 -3.6541 0
M  V30 4892 H 473.127 3.35498 -3.50099 0
M  V30 4893 N 474.47 1.03057 1.19235 0
M  V30 4894 C 475.4 0.633497 2.24742 0
M  V30 4895 C 476.381 -0.358335 1.66283 0
M  V30 4896 O 477.566 -0.240676 1.92703 0
M  V30 4897 C 474.696 -0.0147648 3.47297 0
M  V30 4898 C 473.65 0.899527 4.18441 0
M  V30 4899 C 472.976 0.116281 5.34574 0
M  V30 4900 C 474.276 2.21404 4.73051 0
M  V30 4901 H 475.97 1.5155 2.58211 0
M  V30 4902 H 473.516 0.73014 1.24117 0
M  V30 4903 H 475.469 -0.304202 4.20301 0
M  V30 4904 H 474.193 -0.931577 3.13032 0
M  V30 4905 H 472.852 1.17319 3.47321 0
M  V30 4906 H 472.5 -0.802619 4.96555 0
M  V30 4907 H 472.2 0.725293 5.83107 0
M  V30 4908 H 473.724 -0.166376 6.10373 0
M  V30 4909 H 475.138 1.98601 5.37802 0
M  V30 4910 H 473.535 2.77512 5.32078 0
M  V30 4911 H 474.605 2.86752 3.91026 0
M  V30 4912 N 475.948 -1.35272 0.808662 0
M  V30 4913 C 477.364 -1.51806 0.492653 0
M  V30 4914 C 477.564 -1.7574 -0.985778 0
M  V30 4915 O 476.62 -1.80003 -1.77074 0
M  V30 4916 C 477.933 -2.69202 1.33981 0
M  V30 4917 C 479.481 -2.8308 1.33547 0
M  V30 4918 C 479.956 -4.03502 2.16679 0
M  V30 4919 N 481.447 -4.10684 2.14227 0
M  V30 4920 C 482.182 -5.02984 2.75308 0
M  V30 4921 N 481.678 -6.00603 3.45323 0
M  V30 4922 N 483.471 -4.95746 2.64938 0
M  V30 4923 H 475.622 -1.17993 1.76611 0
M  V30 4924 H 477.885 -0.577476 0.751814 0
M  V30 4925 H 477.591 -2.581 2.38909 0
M  V30 4926 H 477.465 -3.63854 0.994491 0
M  V30 4927 H 479.852 -2.93631 0.294036 0
M  V30 4928 H 479.933 -1.89278 1.72068 0
M  V30 4929 H 479.577 -3.93711 3.20864 0
M  V30 4930 H 479.507 -4.96489 1.75517 0
M  V30 4931 H 481.998 -3.40802 1.63285 0
M  V30 4932 H 482.311 -6.67633 3.89212 0
M  V30 4933 H 480.656 -6.0077 3.49428 0
M  V30 4934 H 483.847 -4.18439 2.09825 0
M  V30 4935 H 484.02 -5.67487 3.12829 0
M  V30 4936 N 477.426 -0.562348 -1.47226 0
M  V30 4937 C 478.651 -0.0432632 -2.07355 0
M  V30 4938 C 479.076 1.24332 -1.41149 0
M  V30 4939 O 478.434 1.74603 -0.488226 0
M  V30 4940 C 478.482 0.130288 -3.60365 0
M  V30 4941 O 477.586 1.19166 -3.94808 0
M  V30 4942 H 476.927 -0.0536334 -0.66183 0
M  V30 4943 H 479.457 -0.779495 -1.89169 0
M  V30 4944 H 479.467 0.342881 -4.06557 0
M  V30 4945 H 478.142 -0.809389 -4.07948 0
M  V30 4946 H 476.719 0.959153 -3.60354 0
M  V30 4947 N 478.904 1.54736 -0.299062 0
M  V30 4948 C 480.153 1.99279 0.311549 0
M  V30 4949 C 480.466 1.19107 1.55154 0
M  V30 4950 O 481.672 1.53908 2.23662 0
M  V30 4951 C 480.128 3.54768 0.605632 0
M  V30 4952 C 479.736 4.43746 -0.615914 0
M  V30 4953 C 481.48 4.07841 1.17754 0
M  V30 4954 C 479.387 5.90663 -0.29509 0
M  V30 4955 H 478.317 0.744359 0.120187 0
M  V30 4956 H 480.968 1.78919 -0.407464 0
M  V30 4957 H 479.35 3.71021 1.38419 0
M  V30 4958 H 480.524 4.39267 -1.39218 0
M  V30 4959 H 478.839 4.01434 -1.10633 0
M  V30 4960 H 481.436 5.15174 1.43179 0
M  V30 4961 H 481.779 3.58324 2.11918 0
M  V30 4962 H 482.312 3.95123 0.460739 0
M  V30 4963 H 479.051 6.44325 -1.20524 0
M  V30 4964 H 478.571 5.98155 0.44394 0
M  V30 4965 H 480.25 6.46916 0.104048 0
M  V30 4966 N 480.382 0.0267497 1.57577 0
M  V30 4967 C 481.629 -0.652404 1.91703 0
M  V30 4968 C 481.957 -1.72271 0.902936 0
M  V30 4969 O 481.212 -1.955 -0.0884843 0
M  V30 4970 C 481.511 -1.30914 3.3256 0
M  V30 4971 C 481.177 -0.369441 4.49384 0
M  V30 4972 C 479.839 -0.110791 4.81072 0
M  V30 4973 C 482.191 0.275971 5.20469 0
M  V30 4974 C 479.519 0.801116 5.81205 0
M  V30 4975 C 481.871 1.17592 6.21575 0
M  V30 4976 C 480.535 1.44348 6.51705 0
M  V30 4977 H 479.805 -0.238732 0.70149 0
M  V30 4978 H 482.452 0.0880091 1.91298 0
M  V30 4979 H 480.757 -2.12425 3.29216 0
M  V30 4980 H 482.454 -1.84115 3.56234 0
M  V30 4981 H 479.044 -0.581211 4.24641 0
M  V30 4982 H 483.228 0.0892 4.9622 0
M  V30 4983 H 478.484 1.01614 6.02897 0
M  V30 4984 H 482.658 1.68223 6.75777 0
M  V30 4985 H 480.285 2.15176 7.29111 0
M  V30 4986 N 481.861 -1.55662 -0.24637 0
M  V30 4987 C 483.089 -1.81575 -0.991876 0
M  V30 4988 C 483.504 -0.602545 -1.78927 0
M  V30 4989 O 482.861 0.428795 -1.77391 0
M  V30 4990 C 482.912 -3.05711 -1.92933 0
M  V30 4991 O 482.633 -4.22348 -1.1642 0
M  V30 4992 C 484.134 -3.44428 -2.79078 0
M  V30 4993 H 481.354 -0.604209 -0.291844 0
M  V30 4994 H 483.898 -2.02722 -0.269095 0
M  V30 4995 H 482.053 -2.86612 -2.60638 0
M  V30 4996 H 482.467 -4.92706 -1.79835 0
M  V30 4997 H 483.941 -4.34388 -3.40603 0
M  V30 4998 H 484.418 -2.65037 -3.50217 0
M  V30 4999 H 485.024 -3.65879 -2.16824 0
M  V30 5000 N 483.339 0.512053 -1.4905 0
M  V30 5001 C 484.585 1.26874 -1.58212 0
M  V30 5002 C 484.918 1.9241 -0.263073 0
M  V30 5003 O 484.193 1.80181 0.732476 0
M  V30 5004 C 484.476 2.34428 -2.73341 0
M  V30 5005 C 484.329 1.73466 -4.15006 0
M  V30 5006 C 485.648 3.36073 -2.84154 0
M  V30 5007 H 482.767 0.459924 -0.575881 0
M  V30 5008 H 485.409 0.568587 -1.81293 0
M  V30 5009 H 483.559 2.94146 -2.53792 0
M  V30 5010 H 485.231 1.17661 -4.46042 0
M  V30 5011 H 483.474 1.03921 -4.21168 0
M  V30 5012 H 484.145 2.51426 -4.91415 0
M  V30 5013 H 486.621 2.86332 -3.01916 0
M  V30 5014 H 485.497 4.08703 -3.66406 0
M  V30 5015 H 485.758 3.97725 -1.93048 0
M  V30 5016 N 484.817 1.37938 0.762283 0
M  V30 5017 C 486.045 1.36883 1.55147 0
M  V30 5018 C 486.46 -0.0435348 1.8875 0
M  V30 5019 O 485.817 -1.00786 1.52146 0
M  V30 5020 C 485.868 2.21624 2.85596 0
M  V30 5021 O 485.589 3.57358 2.5343 0
M  V30 5022 C 487.09 2.28653 3.7978 0
M  V30 5023 H 484.31 0.468521 0.480343 0
M  V30 5024 H 486.854 1.81404 0.944079 0
M  V30 5025 H 485.009 1.80588 3.42734 0
M  V30 5026 H 485.423 4.01883 3.37032 0
M  V30 5027 H 486.897 2.9225 4.68288 0
M  V30 5028 H 487.374 1.29767 4.19592 0
M  V30 5029 H 487.98 2.70043 3.28568 0
M  V30 5030 N 486.295 -0.989507 1.22664 0
M  V30 5031 C 487.711 -1.25395 0.987331 0
M  V30 5032 C 487.911 -1.9899 -0.317056 0
M  V30 5033 O 486.967 -2.30141 -1.03882 0
M  V30 5034 C 488.28 -2.06242 2.18826 0
M  V30 5035 C 489.828 -2.19413 2.23219 0
M  V30 5036 C 490.303 -3.03648 3.42873 0
M  V30 5037 N 491.794 -3.11234 3.43056 0
M  V30 5038 C 492.529 -3.7671 4.32293 0
M  V30 5039 N 492.025 -4.44085 5.31752 0
M  V30 5040 N 493.818 -3.73505 4.2006 0
M  V30 5041 H 485.969 -0.496212 2.06522 0
M  V30 5042 H 488.232 -0.281784 0.905153 0
M  V30 5043 H 487.938 -1.59531 3.13437 0
M  V30 5044 H 487.812 -3.06996 2.19165 0
M  V30 5045 H 490.199 -2.65336 1.29154 0
M  V30 5046 H 490.28 -1.18078 2.26917 0
M  V30 5047 H 489.924 -2.58424 4.37241 0
M  V30 5048 H 489.854 -4.05132 3.36416 0
M  V30 5049 H 492.345 -2.63287 2.71088 0
M  V30 5050 H 492.658 -4.91797 5.96117 0
M  V30 5051 H 491.003 -4.42822 5.35662 0
M  V30 5052 H 494.194 -3.20033 3.41609 0
M  V30 5053 H 494.367 -4.24253 4.8981 0
M  V30 5054 N 487.773 -1.03688 -1.18687 0
M  V30 5055 C 489.189 -0.755413 -1.4059 0
M  V30 5056 C 489.389 0.656659 -1.905 0
M  V30 5057 O 488.445 1.42144 -2.08689 0
M  V30 5058 C 489.758 -1.7983 -2.41001 0
M  V30 5059 C 491.306 -1.81877 -2.54735 0
M  V30 5060 C 491.781 -2.85148 -3.58406 0
M  V30 5061 N 493.272 -2.84015 -3.6591 0
M  V30 5062 C 494.007 -3.60573 -4.45841 0
M  V30 5063 N 493.503 -4.46871 -5.29413 0
M  V30 5064 N 495.296 -3.49079 -4.40568 0
M  V30 5065 H 487.447 -1.94818 -0.846148 0
M  V30 5066 H 489.71 -0.842727 -0.434184 0
M  V30 5067 H 489.416 -2.81097 -2.1137 0
M  V30 5068 H 489.29 -1.62727 -3.40294 0
M  V30 5069 H 491.677 -0.812836 -2.83685 0
M  V30 5070 H 491.758 -2.03057 -1.55568 0
M  V30 5071 H 491.402 -3.85918 -3.30197 0
M  V30 5072 H 491.332 -2.61224 -4.57241 0
M  V30 5073 H 493.823 -2.21431 -3.0623 0
M  V30 5074 H 494.136 -5.02007 -5.87545 0
M  V30 5075 H 492.481 -4.5094 -5.28846 0
M  V30 5076 H 495.672 -2.81066 -3.74325 0
M  V30 5077 H 495.845 -4.08994 -5.02621 0
M  V30 5078 N 489.251 1.34841 -0.815825 0
M  V30 5079 C 490.183 2.28409 -0.190265 0
M  V30 5080 C 491.196 1.50705 0.615771 0
M  V30 5081 O 492.385 1.72822 0.446616 0
M  V30 5082 C 489.485 3.30441 0.752446 0
M  V30 5083 C 488.658 4.37399 -0.00922152 0
M  V30 5084 C 487.717 5.19234 0.853351 0
M  V30 5085 O 486.743 5.68404 0.300919 0
M  V30 5086 N 487.945 5.38248 2.17416 0
M  V30 5087 H 490.71 2.82732 -0.994114 0
M  V30 5088 H 488.271 1.47289 -0.672129 0
M  V30 5089 H 490.263 3.82084 1.33394 0
M  V30 5090 H 488.833 2.76565 1.45707 0
M  V30 5091 H 488.053 3.86567 -0.771979 0
M  V30 5092 H 489.341 5.05992 -0.533807 0
M  V30 5093 H 488.739 4.99961 2.6468 0
M  V30 5094 H 487.296 5.93035 2.70467 0
M  V30 5095 N 490.729 0.570148 1.46925 0
M  V30 5096 C 491.659 -0.158274 2.32963 0
M  V30 5097 C 492.64 -0.896093 1.44583 0
M  V30 5098 O 493.825 -0.874022 1.7342 0
M  V30 5099 C 490.955 -1.18055 3.26619 0
M  V30 5100 C 489.909 -0.558379 4.24342 0
M  V30 5101 C 489.235 -1.68623 5.07415 0
M  V30 5102 C 490.535 0.496295 5.19937 0
M  V30 5103 H 492.229 0.560046 2.94115 0
M  V30 5104 H 489.775 0.270775 1.41431 0
M  V30 5105 H 491.728 -1.69841 3.85658 0
M  V30 5106 H 490.452 -1.92899 2.63548 0
M  V30 5107 H 489.111 -0.0617157 3.66548 0
M  V30 5108 H 488.759 -2.42402 4.40738 0
M  V30 5109 H 488.459 -1.27564 5.73586 0
M  V30 5110 H 489.983 -2.20709 5.69315 0
M  V30 5111 H 491.397 0.0640052 5.73264 0
M  V30 5112 H 489.794 0.82649 5.94381 0
M  V30 5113 H 490.864 1.38735 4.6463 0
M  V30 5114 N 492.207 -1.54576 0.307264 0
M  V30 5115 C 493.137 -2.26708 -0.55907 0
M  V30 5116 C 494.118 -1.26893 -1.1328 0
M  V30 5117 O 495.303 -1.55677 -1.16097 0
M  V30 5118 C 492.433 -3.01259 -1.72801 0
M  V30 5119 C 491.387 -4.08275 -1.28435 0
M  V30 5120 C 490.713 -4.70575 -2.53895 0
M  V30 5121 C 492.013 -5.2068 -0.411038 0
M  V30 5122 H 493.707 -2.9937 0.042576 0
M  V30 5123 H 491.253 -1.43983 0.0219173 0
M  V30 5124 H 493.206 -3.50444 -2.34023 0
M  V30 5125 H 491.93 -2.26187 -2.356 0
M  V30 5126 H 490.589 -3.59949 -0.695161 0
M  V30 5127 H 490.237 -3.92136 -3.15021 0
M  V30 5128 H 489.937 -5.42854 -2.24908 0
M  V30 5129 H 491.461 -5.22527 -3.15908 0
M  V30 5130 H 492.875 -5.65721 -0.929097 0
M  V30 5131 H 491.272 -5.99716 -0.214664 0
M  V30 5132 H 492.342 -4.81629 0.562287 0
M  V30 5133 N 493.685 -0.035106 -1.57561 0
M  V30 5134 C 494.595 0.960295 -2.14046 0
M  V30 5135 C 495.611 1.3529 -1.0942 0
M  V30 5136 O 496.787 1.43309 -1.41508 0
M  V30 5137 C 493.852 2.22214 -2.66124 0
M  V30 5138 C 492.913 1.8894 -3.85487 0
M  V30 5139 C 492.146 3.09109 -4.35072 0
M  V30 5140 O 492.369 4.21963 -3.83802 0
M  V30 5141 O 491.303 2.91058 -5.26848 0
M  V30 5142 H 495.129 0.509983 -2.99387 0
M  V30 5143 H 492.714 0.185853 -1.48239 0
M  V30 5144 H 494.596 2.96279 -2.99661 0
M  V30 5145 H 493.271 2.66414 -1.83862 0
M  V30 5146 H 492.178 1.12241 -3.56865 0
M  V30 5147 H 493.511 1.49551 -4.6893 0
M  V30 5148 N 495.163 1.55791 0.238111 0
M  V30 5149 C 496.11 1.9105 1.29493 0
M  V30 5150 C 497.08 0.765733 1.47397 0
M  V30 5151 O 498.265 1.02017 1.61236 0
M  V30 5152 C 495.405 2.21826 2.64362 0
M  V30 5153 C 494.518 3.49153 2.54394 0
M  V30 5154 C 493.653 3.69455 3.81676 0
M  V30 5155 C 492.692 4.90353 3.66361 0
M  V30 5156 N 491.829 5.07131 4.85554 0
M  V30 5157 H 496.669 2.81172 0.987233 0
M  V30 5158 H 494.206 1.39179 0.476203 0
M  V30 5159 H 496.164 2.37675 3.4288 0
M  V30 5160 H 494.794 1.34897 2.93262 0
M  V30 5161 H 493.846 3.41587 1.67399 0
M  V30 5162 H 495.158 4.37818 2.38991 0
M  V30 5163 H 494.312 3.85311 4.68636 0
M  V30 5164 H 493.051 2.7904 3.99985 0
M  V30 5165 H 492.056 4.74464 2.77784 0
M  V30 5166 H 493.281 5.82237 3.49538 0
M  V30 5167 H 491.227 4.19654 5.04209 0
M  V30 5168 H 491.144 5.89899 4.72816 0
M  V30 5169 H 492.412 5.27407 5.73988 0
M  V30 5170 N 496.642 -0.504142 1.49319 0
M  V30 5171 C 497.889 -1.25846 1.58647 0
M  V30 5172 C 498.217 -1.92592 0.27177 0
M  V30 5173 O 497.472 -1.81167 -0.74007 0
M  V30 5174 C 497.771 -2.35021 2.69258 0
M  V30 5175 C 497.437 -1.85755 4.1086 0
M  V30 5176 C 496.099 -1.72038 4.49395 0
M  V30 5177 C 498.451 -1.48844 4.99495 0
M  V30 5178 C 495.779 -1.19783 5.74342 0
M  V30 5179 C 498.131 -0.980422 6.24956 0
M  V30 5180 C 496.795 -0.829622 6.62324 0
M  V30 5181 H 496.065 -0.460505 0.580531 0
M  V30 5182 H 498.712 -0.559716 1.83138 0
M  V30 5183 H 497.017 -3.10672 2.38726 0
M  V30 5184 H 498.714 -2.93083 2.73685 0
M  V30 5185 H 495.304 -1.9739 3.80441 0
M  V30 5186 H 499.488 -1.5829 4.70381 0
M  V30 5187 H 494.744 -1.06817 6.01997 0
M  V30 5188 H 498.918 -0.685608 6.93017 0
M  V30 5189 H 496.545 -0.42253 7.59025 0
M  V30 5190 N 498.12 -1.38341 -0.754957 0
M  V30 5191 C 499.536 -1.19508 -1.05783 0
M  V30 5192 C 499.736 -0.0428005 -2.01455 0
M  V30 5193 O 498.792 0.611861 -2.44975 0
M  V30 5194 C 500.105 -2.52091 -1.63923 0
M  V30 5195 C 501.653 -2.58762 -1.76101 0
M  V30 5196 C 502.128 -3.91517 -2.37652 0
M  V30 5197 N 503.619 -3.93049 -2.45085 0
M  V30 5198 C 504.354 -4.9253 -2.93602 0
M  V30 5199 N 503.85 -6.02408 -3.42165 0
M  V30 5200 N 505.643 -4.79921 -2.92629 0
M  V30 5201 H 497.794 -2.1206 -0.120056 0
M  V30 5202 H 500.057 -0.94089 -0.11589 0
M  V30 5203 H 499.763 -3.36858 -1.01093 0
M  V30 5204 H 499.637 -2.70388 -2.63003 0
M  V30 5205 H 502.024 -1.74391 -2.38058 0
M  V30 5206 H 502.105 -2.44333 -0.757294 0
M  V30 5207 H 501.749 -4.76309 -1.76329 0
M  V30 5208 H 501.679 -4.03256 -3.38662 0
M  V30 5209 H 504.17 -3.13685 -2.10736 0
M  V30 5210 H 504.483 -6.74248 -3.77637 0
M  V30 5211 H 502.828 -6.0603 -3.40225 0
M  V30 5212 H 506.019 -3.93194 -2.54001 0
M  V30 5213 H 506.192 -5.57601 -3.30128 0
M  V30 5214 N 499.598 0.982988 -1.23187 0
M  V30 5215 C 500.844 1.72648 -1.06398 0
M  V30 5216 C 501.177 1.90066 0.398561 0
M  V30 5217 O 500.452 1.45105 1.29518 0
M  V30 5218 C 500.735 3.12627 -1.78707 0
M  V30 5219 C 500.588 3.02795 -3.32618 0
M  V30 5220 C 501.907 4.11997 -1.54747 0
M  V30 5221 H 499.026 0.626649 -0.387918 0
M  V30 5222 H 501.668 1.14455 -1.51658 0
M  V30 5223 H 499.818 3.62308 -1.40234 0
M  V30 5224 H 501.49 2.60659 -3.80598 0
M  V30 5225 H 499.733 2.39362 -3.61785 0
M  V30 5226 H 500.404 4.01893 -3.78399 0
M  V30 5227 H 502.88 3.71114 -1.88186 0
M  V30 5228 H 501.756 5.08037 -2.07821 0
M  V30 5229 H 502.017 4.39462 -0.482249 0
M  V30 5230 N 501.076 1.04316 1.18135 0
M  V30 5231 C 501.986 0.646876 2.25505 0
M  V30 5232 C 503.002 -0.328008 1.7088 0
M  V30 5233 O 504.178 -0.182309 2.00573 0
M  V30 5234 C 501.243 0.0185664 3.46695 0
M  V30 5235 C 500.304 1.04277 4.16443 0
M  V30 5236 C 499.537 0.444352 5.31847 0
M  V30 5237 O 499.76 -0.748735 5.65465 0
M  V30 5238 O 498.694 1.17428 5.90334 0
M  V30 5239 H 502.52 1.54147 2.61672 0
M  V30 5240 H 500.105 0.814188 1.25265 0
M  V30 5241 H 501.987 -0.331068 4.20097 0
M  V30 5242 H 500.662 -0.849814 3.12346 0
M  V30 5243 H 499.569 1.44425 3.45098 0
M  V30 5244 H 500.902 1.882 4.54798 0
M  V30 5245 N 502.554 -1.34406 0.822964 0
M  V30 5246 C 503.501 -2.29519 0.24284 0
M  V30 5247 C 504.471 -1.5359 -0.632397 0
M  V30 5248 O 505.656 -1.8196 -0.57403 0
M  V30 5249 C 502.796 -3.40032 -0.58925 0
M  V30 5250 C 501.909 -4.30899 0.308236 0
M  V30 5251 C 501.044 -5.28515 -0.533425 0
M  V30 5252 C 500.083 -6.1102 0.363444 0
M  V30 5253 N 499.22 -7.00725 -0.439147 0
M  V30 5254 H 504.06 -2.78537 1.05929 0
M  V30 5255 H 501.597 -1.3707 0.533872 0
M  V30 5256 H 503.555 -4.0279 -1.087 0
M  V30 5257 H 502.185 -2.92248 -1.37081 0
M  V30 5258 H 501.237 -3.69002 0.924203 0
M  V30 5259 H 502.549 -4.88717 0.997862 0
M  V30 5260 H 501.703 -5.96725 -1.09565 0
M  V30 5261 H 500.442 -4.71235 -1.25656 0
M  V30 5262 H 499.447 -5.41743 0.937812 0
M  V30 5263 H 500.672 -6.70381 1.08469 0
M  V30 5264 H 498.618 -6.45913 -1.14595 0
M  V30 5265 H 498.535 -7.55756 0.19209 0
M  V30 5266 H 499.803 -7.73263 -0.984124 0
M  V30 5267 N 504.032 -0.577932 -1.46621 0
M  V30 5268 C 505.309 0.00495287 -1.95599 0
M  V30 5269 C 505.689 1.46428 -1.5206 0
M  V30 5270 O 505.037 2.1517 -0.769046 0
M  V30 5271 C 505.247 -0.162114 -3.48623 0
M  V30 5272 C 506.595 -0.0274623 -4.24591 0
M  V30 5273 O 507.619 -0.0907067 -3.56084 0
M  V30 5274 O 506.478 0.1122 -5.46385 0
M  V30 5275 H 503.572 0.0525057 -0.825332 0
M  V30 5276 H 506.118 -0.645914 -1.56927 0
M  V30 5277 H 504.89 -1.17679 -3.73185 0
M  V30 5278 H 504.513 0.525407 -3.94113 0
M  V30 5279 N 505.51 1.54411 -0.315457 0
M  V30 5280 C 506.457 2.24048 0.554166 0
M  V30 5281 C 507.427 1.2283 1.11812 0
M  V30 5282 O 508.612 1.51491 1.15997 0
M  V30 5283 C 505.752 2.99574 1.71316 0
M  V30 5284 C 504.865 4.15594 1.17922 0
M  V30 5285 C 504 4.78669 2.30324 0
M  V30 5286 C 503.039 5.86807 1.74137 0
M  V30 5287 N 502.176 6.43777 2.8017 0
M  V30 5288 H 507.016 2.97964 -0.0462602 0
M  V30 5289 H 504.553 1.47059 -0.0346009 0
M  V30 5290 H 506.511 3.41604 2.39505 0
M  V30 5291 H 505.141 2.28008 2.285 0
M  V30 5292 H 504.193 3.78404 0.389136 0
M  V30 5293 H 505.505 4.93459 0.728012 0
M  V30 5294 H 504.659 5.23626 3.06433 0
M  V30 5295 H 503.398 4.00168 2.78778 0
M  V30 5296 H 502.403 5.41261 0.965236 0
M  V30 5297 H 503.628 6.67201 1.2657 0
M  V30 5298 H 501.574 5.68153 3.2793 0
M  V30 5299 H 501.491 7.17031 2.39588 0
M  V30 5300 H 502.759 6.9339 3.56132 0
M  V30 5301 N 506.988 0.0434614 1.5754 0
M  V30 5302 C 507.918 -0.931651 2.14109 0
M  V30 5303 C 508.899 -1.32971 1.06079 0
M  V30 5304 O 510.084 -1.40579 1.33982 0
M  V30 5305 C 507.214 -2.20914 2.67982 0
M  V30 5306 C 506.168 -1.95139 3.80926 0
M  V30 5307 C 505.494 -3.29276 4.21285 0
M  V30 5308 C 506.794 -1.27913 5.06395 0
M  V30 5309 H 508.488 -0.460497 2.95837 0
M  V30 5310 H 506.034 -0.220058 1.42309 0
M  V30 5311 H 507.987 -2.89522 3.06194 0
M  V30 5312 H 506.711 -2.70221 1.83434 0
M  V30 5313 H 505.37 -1.28945 3.43175 0
M  V30 5314 H 505.018 -3.76369 3.33699 0
M  V30 5315 H 504.718 -3.12831 4.97404 0
M  V30 5316 H 506.242 -3.99129 4.62091 0
M  V30 5317 H 507.656 -1.86544 5.42102 0
M  V30 5318 H 506.053 -1.2182 5.87605 0
M  V30 5319 H 507.123 -0.254066 4.84234 0
M  V30 5320 N 508.466 -1.55915 -0.229846 0
M  V30 5321 C 509.712 -1.78807 -0.956868 0
M  V30 5322 C 510.045 -0.611687 -1.84315 0
M  V30 5323 O 509.32 0.389398 -1.90562 0
M  V30 5324 C 509.603 -3.11718 -1.80288 0
M  V30 5325 C 509.456 -4.3979 -0.943649 0
M  V30 5326 C 510.775 -3.40999 -2.78222 0
M  V30 5327 H 507.894 -0.6505 -0.346437 0
M  V30 5328 H 510.536 -1.88648 -0.226252 0
M  V30 5329 H 508.686 -3.03459 -2.42579 0
M  V30 5330 H 510.358 -4.60059 -0.338121 0
M  V30 5331 H 508.601 -4.33086 -0.248705 0
M  V30 5332 H 509.272 -5.29208 -1.5698 0
M  V30 5333 H 511.748 -3.49332 -2.26067 0
M  V30 5334 H 510.624 -4.35183 -3.34526 0
M  V30 5335 H 510.885 -2.62754 -3.55546 0
M  V30 5336 N 509.944 0.496216 -1.49584 0
M  V30 5337 C 511.355 1.07765 -1.52459 0
M  V30 5338 C 511.706 1.93679 -0.31353 0
M  V30 5339 O 510.831 2.08588 0.576186 0
M  V30 5340 C 511.426 1.96111 -2.76271 0
M  V30 5341 C 509.985 2.49409 -2.81908 0
M  V30 5342 C 509.132 1.27142 -2.46435 0
M  V30 5343 H 512.083 0.279914 -1.56212 0
M  V30 5344 H 512.104 2.80862 -2.56704 0
M  V30 5345 H 511.616 1.33555 -3.64396 0
M  V30 5346 H 509.717 3.1559 -1.98074 0
M  V30 5347 H 509.83 2.86234 -3.84196 0
M  V30 5348 H 508.194 1.59818 -1.98319 0
M  V30 5349 H 508.977 0.662866 -3.3684 0
M  V30 5350 N 511.423 1.38739 0.74761 0
M  V30 5351 C 512.333 1.38696 1.89211 0
M  V30 5352 C 513.349 0.283303 1.71678 0
M  V30 5353 O 514.525 0.522713 1.94498 0
M  V30 5354 C 511.59 1.21662 3.24653 0
M  V30 5355 C 510.651 2.41886 3.54669 0
M  V30 5356 C 509.884 2.25655 4.83648 0
M  V30 5357 O 510.107 1.25339 5.56459 0
M  V30 5358 O 509.041 3.14372 5.13277 0
M  V30 5359 H 512.867 2.35143 1.92202 0
M  V30 5360 H 510.452 1.19721 0.893708 0
M  V30 5361 H 512.334 1.14246 4.05618 0
M  V30 5362 H 511.009 0.283024 3.2246 0
M  V30 5363 H 509.916 2.54877 2.73841 0
M  V30 5364 H 511.249 3.33895 3.61628 0
M  V30 5365 N 512.901 -0.976442 1.23707 0
M  V30 5366 C 513.848 -2.06952 1.02174 0
M  V30 5367 C 514.818 -1.65984 -0.0621034 0
M  V30 5368 O 516.003 -1.90584 0.0907906 0
M  V30 5369 C 513.143 -3.39425 0.62327 0
M  V30 5370 C 512.256 -3.9364 1.77966 0
M  V30 5371 C 511.391 -5.14343 1.3276 0
M  V30 5372 C 510.43 -5.60733 2.45449 0
M  V30 5373 N 509.567 -6.72662 2.01172 0
M  V30 5374 H 514.407 -2.24704 1.95734 0
M  V30 5375 H 511.944 -1.10143 0.975034 0
M  V30 5376 H 513.902 -4.15526 0.37332 0
M  V30 5377 H 512.532 -3.21624 -0.275329 0
M  V30 5378 H 511.584 -3.14258 2.14351 0
M  V30 5379 H 512.896 -4.24035 2.62671 0
M  V30 5380 H 512.05 -5.97789 1.03601 0
M  V30 5381 H 510.789 -4.8561 0.450975 0
M  V30 5382 H 509.794 -4.75865 2.75378 0
M  V30 5383 H 511.019 -5.91483 3.33654 0
M  V30 5384 H 508.965 -6.45681 1.15895 0
M  V30 5385 H 508.882 -7.02462 2.79434 0
M  V30 5386 H 510.15 -7.59572 1.75129 0
M  V30 5387 N 514.379 -1.04941 -1.1758 0
M  V30 5388 C 515.795 -0.770282 -1.39781 0
M  V30 5389 C 515.995 0.636417 -1.91186 0
M  V30 5390 O 515.051 1.39923 -2.10185 0
M  V30 5391 C 516.364 -1.82376 -2.3908 0
M  V30 5392 C 517.912 -1.84569 -2.52791 0
M  V30 5393 C 518.387 -2.88933 -3.55361 0
M  V30 5394 N 519.878 -2.8788 -3.62877 0
M  V30 5395 C 520.613 -3.65282 -4.41992 0
M  V30 5396 N 520.109 -4.52461 -5.24643 0
M  V30 5397 N 521.902 -3.53732 -4.36841 0
M  V30 5398 H 514.053 -1.95705 -0.825438 0
M  V30 5399 H 516.316 -0.847284 -0.425222 0
M  V30 5400 H 516.022 -2.83323 -2.08376 0
M  V30 5401 H 515.896 -1.66327 -3.38549 0
M  V30 5402 H 518.283 -0.842879 -2.82807 0
M  V30 5403 H 518.364 -2.04696 -1.53406 0
M  V30 5404 H 518.008 -3.89398 -3.26085 0
M  V30 5405 H 517.938 -2.66059 -4.54445 0
M  V30 5406 H 520.429 -2.24666 -3.03864 0
M  V30 5407 H 520.742 -5.08211 -5.82187 0
M  V30 5408 H 519.087 -4.56524 -5.24033 0
M  V30 5409 H 522.278 -2.85021 -3.71323 0
M  V30 5410 H 522.451 -4.14302 -4.98255 0
M  V30 5411 N 515.857 1.33968 -0.830081 0
M  V30 5412 C 517.085 2.0228 -0.434773 0
M  V30 5413 C 517.5 1.62487 0.961419 0
M  V30 5414 O 516.857 0.833849 1.62337 0
M  V30 5415 C 516.908 3.5751 -0.535625 0
M  V30 5416 O 516.629 3.95864 -1.87679 0
M  V30 5417 C 518.13 4.43091 -0.136137 0
M  V30 5418 H 515.35 0.648151 -0.173613 0
M  V30 5419 H 517.894 1.71089 -1.12022 0
M  V30 5420 H 516.049 3.87266 0.101817 0
M  V30 5421 H 516.463 4.9056 -1.85609 0
M  V30 5422 H 517.937 5.51398 -0.257772 0
M  V30 5423 H 518.414 4.29433 0.921076 0
M  V30 5424 H 519.02 4.18677 -0.747662 0
M  V30 5425 N 517.335 0.585699 1.46312 0
M  V30 5426 C 518.265 -0.133556 2.33118 0
M  V30 5427 C 519.246 -0.880707 1.45525 0
M  V30 5428 O 520.431 -0.855579 1.74337 0
M  V30 5429 C 517.561 -1.14585 3.27853 0
M  V30 5430 C 516.515 -0.513341 4.2491 0
M  V30 5431 C 515.841 -1.63231 5.09175 0
M  V30 5432 C 517.141 0.551413 5.19381 0
M  V30 5433 H 518.835 0.59121 2.93505 0
M  V30 5434 H 516.381 0.285761 1.41136 0
M  V30 5435 H 518.334 -1.65741 3.87438 0
M  V30 5436 H 517.058 -1.90093 2.65579 0
M  V30 5437 H 515.717 -0.0228349 3.66593 0
M  V30 5438 H 515.365 -2.37713 4.43285 0
M  V30 5439 H 515.065 -1.21473 5.74907 0
M  V30 5440 H 516.589 -2.14658 5.71624 0
M  V30 5441 H 518.003 0.124804 5.73164 0
M  V30 5442 H 516.4 0.889486 5.93471 0
M  V30 5443 H 517.47 1.43655 4.63132 0
M  V30 5444 N 518.813 -1.54241 0.323641 0
M  V30 5445 C 520.062 -1.9975 -0.279806 0
M  V30 5446 C 520.375 -1.2156 -1.5324 0
M  V30 5447 O 521.581 -1.57447 -2.21185 0
M  V30 5448 C 520.037 -3.55686 -0.549115 0
M  V30 5449 C 519.645 -4.4271 0.686432 0
M  V30 5450 C 521.389 -4.09663 -1.11251 0
M  V30 5451 C 519.296 -5.90119 0.389022 0
M  V30 5452 H 518.226 -0.746177 -0.10833 0
M  V30 5453 H 520.877 -1.78248 0.435877 0
M  V30 5454 H 519.259 -3.73176 -1.32499 0
M  V30 5455 H 520.433 -4.36996 1.46188 0
M  V30 5456 H 518.748 -3.99623 1.17005 0
M  V30 5457 H 521.345 -5.17386 -1.34965 0
M  V30 5458 H 521.688 -3.61651 -2.06191 0
M  V30 5459 H 522.221 -3.95806 -0.39782 0
M  V30 5460 H 518.96 -6.42326 1.30759 0
M  V30 5461 H 518.48 -5.98785 -0.348722 0
M  V30 5462 H 520.159 -6.47 -0.0011164 0
M  V30 5463 N 520.291 -0.0518155 -1.57515 0
M  V30 5464 C 521.221 0.920283 -2.146 0
M  V30 5465 C 522.202 1.32406 -1.06783 0
M  V30 5466 O 523.387 1.39866 -1.34726 0
M  V30 5467 C 520.517 2.1949 -2.6915 0
M  V30 5468 C 519.471 1.93116 -3.81956 0
M  V30 5469 C 518.797 3.27037 -4.23026 0
M  V30 5470 C 520.097 1.25225 -5.07066 0
M  V30 5471 H 521.791 0.444801 -2.96077 0
M  V30 5472 H 519.337 0.212508 -1.42423 0
M  V30 5473 H 521.29 2.87894 -3.07725 0
M  V30 5474 H 520.014 2.69244 -1.84865 0
M  V30 5475 H 518.673 1.27123 -3.43854 0
M  V30 5476 H 518.321 3.74595 -3.3569 0
M  V30 5477 H 518.021 3.10189 -4.99056 0
M  V30 5478 H 519.545 3.96673 -4.64202 0
M  V30 5479 H 520.959 1.83666 -5.43083 0
M  V30 5480 H 519.356 1.18702 -5.88243 0
M  V30 5481 H 520.426 0.228382 -4.84362 0
M  V30 5482 N 521.769 1.56035 0.221574 0
M  V30 5483 C 522.997 1.8313 0.962864 0
M  V30 5484 C 523.412 0.630934 1.77946 0
M  V30 5485 O 522.769 -0.400519 1.78051 0
M  V30 5486 C 522.82 3.08742 1.88045 0
M  V30 5487 O 522.541 4.24147 1.09686 0
M  V30 5488 C 524.042 3.48824 2.73563 0
M  V30 5489 H 521.262 0.608775 0.282194 0
M  V30 5490 H 523.806 2.03124 0.23681 0
M  V30 5491 H 521.961 2.90723 2.56045 0
M  V30 5492 H 522.375 4.95505 1.71974 0
M  V30 5493 H 523.849 4.39752 3.3365 0
M  V30 5494 H 524.326 2.70575 3.45956 0
M  V30 5495 H 524.932 3.69282 2.10976 0
M  V30 5496 N 523.247 -0.488276 1.49845 0
M  V30 5497 C 524.197 -1.58556 1.63842 0
M  V30 5498 C 525.181 -1.53142 0.493586 0
M  V30 5499 O 526.373 -1.60457 0.747169 0
M  V30 5500 C 523.502 -2.97101 1.72005 0
M  V30 5501 C 522.588 -3.07463 2.92108 0
M  V30 5502 N 522.979 -2.87681 4.16021 0
M  V30 5503 C 521.277 -3.3858 2.90309 0
M  V30 5504 C 521.978 -3.0256 4.96822 0
M  V30 5505 N 520.954 -3.32002 4.30437 0
M  V30 5506 H 524.756 -1.41935 2.57355 0
M  V30 5507 H 522.27 -0.694668 1.46793 0
M  V30 5508 H 524.267 -3.75976 1.80132 0
M  V30 5509 H 522.927 -3.14782 0.796375 0
M  V30 5510 H 523.938 -2.63603 4.45796 0
M  V30 5511 H 520.615 -3.62357 2.07372 0
M  V30 5512 H 522.005 -2.9165 6.05301 0
M  V30 5513 N 524.725 -1.39134 -0.740242 0
M  V30 5514 C 525.972 -1.36071 -1.49969 0
M  V30 5515 C 526.3 0.0450245 -1.94448 0
M  V30 5516 O 525.555 1.02482 -1.66721 0
M  V30 5517 C 525.854 -2.27457 -2.75678 0
M  V30 5518 C 525.52 -3.75185 -2.50094 0
M  V30 5519 C 524.182 -4.15439 -2.42825 0
M  V30 5520 C 526.534 -4.68643 -2.28086 0
M  V30 5521 C 523.862 -5.4722 -2.11584 0
M  V30 5522 C 526.214 -6.00695 -1.98363 0
M  V30 5523 C 524.878 -6.40018 -1.8956 0
M  V30 5524 H 524.148 -0.497921 -0.548777 0
M  V30 5525 H 526.795 -1.71599 -0.85007 0
M  V30 5526 H 525.1 -1.8503 -3.45356 0
M  V30 5527 H 526.797 -2.22384 -3.33686 0
M  V30 5528 H 523.387 -3.43279 -2.56627 0
M  V30 5529 H 527.571 -4.3838 -2.32672 0
M  V30 5530 H 522.827 -5.76615 -2.03287 0
M  V30 5531 H 527.001 -6.72644 -1.80341 0
M  V30 5532 H 524.628 -7.42051 -1.65117 0
M  V30 5533 N 526.204 0.969867 -1.24223 0
M  V30 5534 C 527.615 1.52717 -1.07399 0
M  V30 5535 C 527.966 1.92956 0.355298 0
M  V30 5536 O 527.091 1.77112 1.2434 0
M  V30 5537 C 527.686 2.77521 -1.94339 0
M  V30 5538 C 526.245 3.29615 -1.81744 0
M  V30 5539 C 525.392 2.02537 -1.89405 0
M  V30 5540 H 528.343 0.788399 -1.37732 0
M  V30 5541 H 528.364 3.50773 -1.47439 0
M  V30 5542 H 527.876 2.48203 -2.98357 0
M  V30 5543 H 525.977 3.63789 -0.805505 0
M  V30 5544 H 526.09 3.98661 -2.65718 0
M  V30 5545 H 524.454 2.17151 -1.33108 0
M  V30 5546 H 525.237 1.75587 -2.94999 0
M  V30 5547 N 527.682 1.05563 1.17022 0
M  V30 5548 C 528.629 0.659893 2.21165 0
M  V30 5549 C 529.599 -0.339813 1.62587 0
M  V30 5550 O 530.784 -0.230378 1.89404 0
M  V30 5551 C 527.924 0.0447297 3.45071 0
M  V30 5552 C 527.037 1.09372 4.17926 0
M  V30 5553 C 526.172 0.445481 5.29329 0
M  V30 5554 C 525.211 1.47852 5.93975 0
M  V30 5555 N 524.348 0.854172 6.96885 0
M  V30 5556 H 529.188 1.55243 2.54369 0
M  V30 5557 H 526.725 0.776336 1.24946 0
M  V30 5558 H 528.683 -0.329404 4.15898 0
M  V30 5559 H 527.313 -0.811244 3.1244 0
M  V30 5560 H 526.365 1.58564 3.45777 0
M  V30 5561 H 527.677 1.87773 4.62107 0
M  V30 5562 H 526.831 0.0179688 6.06697 0
M  V30 5563 H 525.57 -0.370481 4.86291 0
M  V30 5564 H 524.575 1.91601 5.15334 0
M  V30 5565 H 525.8 2.29645 6.39093 0
M  V30 5566 H 523.746 0.0587882 6.55974 0
M  V30 5567 H 523.663 1.57567 7.39397 0
M  V30 5568 H 524.931 0.451559 7.78191 0
M  V30 5569 N 529.16 -1.33526 0.837174 0
M  V30 5570 C 530.407 -1.97837 0.432064 0
M  V30 5571 C 530.735 -1.66324 -1.00829 0
M  V30 5572 O 529.99 -0.93448 -1.71948 0
M  V30 5573 C 530.289 -3.52367 0.597675 0
M  V30 5574 C 529.955 -4.03826 2.00587 0
M  V30 5575 C 528.617 -4.1759 2.39106 0
M  V30 5576 C 530.969 -4.31333 2.92576 0
M  V30 5577 C 528.297 -4.56195 3.68921 0
M  V30 5578 C 530.649 -4.7139 4.2187 0
M  V30 5579 C 529.313 -4.8336 4.60347 0
M  V30 5580 H 528.583 -0.723937 0.158104 0
M  V30 5581 H 531.23 -1.5923 1.06387 0
M  V30 5582 H 529.535 -3.91624 -0.117452 0
M  V30 5583 H 531.232 -4.00126 0.26454 0
M  V30 5584 H 527.822 -3.93586 1.69671 0
M  V30 5585 H 532.006 -4.20224 2.64056 0
M  V30 5586 H 527.262 -4.63655 3.9854 0
M  V30 5587 H 531.436 -4.91631 4.93226 0
M  V30 5588 H 529.063 -5.1303 5.60985 0
M  V30 5589 N 530.638 -0.59345 -1.46 0
M  V30 5590 C 531.568 0.121192 -2.33185 0
M  V30 5591 C 532.549 0.872977 -1.4599 0
M  V30 5592 O 533.734 0.846321 -1.74789 0
M  V30 5593 C 530.864 1.12844 -3.28456 0
M  V30 5594 C 529.818 0.4908 -4.25177 0
M  V30 5595 C 529.144 1.60529 -5.10034 0
M  V30 5596 C 530.444 -0.578949 -5.19081 0
M  V30 5597 H 532.138 -0.606767 -2.93187 0
M  V30 5598 H 529.684 -0.293242 -1.40983 0
M  V30 5599 H 531.637 1.63684 -3.88311 0
M  V30 5600 H 530.361 1.88681 -2.66584 0
M  V30 5601 H 529.02 0.00339328 -3.666 0
M  V30 5602 H 528.668 2.35359 -4.44539 0
M  V30 5603 H 528.368 1.18422 -5.75543 0
M  V30 5604 H 529.892 2.11623 -5.72755 0
M  V30 5605 H 531.306 -0.155199 -5.7309 0
M  V30 5606 H 529.703 -0.920947 -5.92991 0
M  V30 5607 H 530.773 -1.46109 -4.62364 0
M  V30 5608 N 532.116 1.54067 -0.331816 0
M  V30 5609 C 533.341 2.05599 0.272705 0
M  V30 5610 C 533.766 1.2059 1.44359 0
M  V30 5611 O 533.124 0.216907 1.79998 0
M  V30 5612 C 533.172 3.54188 0.677021 0
M  V30 5613 O 532.276 3.72082 1.77844 0
M  V30 5614 H 531.617 0.662286 0.0476801 0
M  V30 5615 H 534.147 1.98826 -0.482624 0
M  V30 5616 H 534.157 3.96608 0.957415 0
M  V30 5617 H 532.832 4.15513 -0.179325 0
M  V30 5618 H 531.409 3.41566 1.49622 0
M  V30 5619 N 533.594 0.0601682 1.57485 0
M  V30 5620 C 534.527 -0.94676 2.07634 0
M  V30 5621 C 535.505 -1.29837 0.978826 0
M  V30 5622 O 536.689 -1.40969 1.2514 0
M  V30 5623 C 533.816 -2.25822 2.52433 0
M  V30 5624 C 532.862 -2.05901 3.73507 0
M  V30 5625 S 533.695 -1.32907 5.18745 0
M  V30 5626 C 534.851 -2.65356 5.66866 0
M  V30 5627 H 535.084 -0.520003 2.92717 0
M  V30 5628 H 532.617 -0.152319 1.53647 0
M  V30 5629 H 534.575 -3.01201 2.78905 0
M  V30 5630 H 533.236 -2.65624 1.67639 0
M  V30 5631 H 532.429 -3.02929 4.02803 0
M  V30 5632 H 532.031 -1.38659 3.47347 0
M  V30 5633 H 534.323 -3.61492 5.73001 0
M  V30 5634 H 535.266 -2.40685 6.6594 0
M  V30 5635 H 535.674 -2.72028 4.94632 0
M  V30 5636 N 535.072 -1.5615 -0.213296 0
M  V30 5637 C 536.002 -1.96109 -1.26742 0
M  V30 5638 C 536.983 -0.830448 -1.48451 0
M  V30 5639 O 538.168 -1.09339 -1.60495 0
M  V30 5640 C 535.298 -2.28492 -2.61551 0
M  V30 5641 C 534.252 -3.44124 -2.54485 0
M  V30 5642 C 533.578 -3.62134 -3.93399 0
M  V30 5643 C 534.878 -4.78855 -2.08556 0
M  V30 5644 H 536.572 -2.84412 -0.935434 0
M  V30 5645 H 534.118 -1.36836 -0.44854 0
M  V30 5646 H 536.071 -2.55039 -3.3546 0
M  V30 5647 H 534.795 -1.37052 -2.96453 0
M  V30 5648 H 533.454 -3.17639 -1.83033 0
M  V30 5649 H 533.102 -2.68055 -4.25623 0
M  V30 5650 H 532.802 -4.39913 -3.89551 0
M  V30 5651 H 534.326 -3.91038 -4.68958 0
M  V30 5652 H 535.74 -5.04552 -2.72213 0
M  V30 5653 H 534.137 -5.59975 -2.1575 0
M  V30 5654 H 535.207 -4.73657 -1.03811 0
M  V30 5655 N 536.55 0.480323 -1.50102 0
M  V30 5656 C 537.46 1.60547 -1.71061 0
M  V30 5657 C 538.476 1.63564 -0.593529 0
M  V30 5658 O 539.652 1.81604 -0.870751 0
M  V30 5659 C 536.717 2.96814 -1.79171 0
M  V30 5660 C 535.778 3.04259 -3.02861 0
M  V30 5661 C 535.011 4.34027 -3.10574 0
M  V30 5662 O 535.234 5.24009 -2.25323 0
M  V30 5663 O 534.168 4.46873 -4.03223 0
M  V30 5664 H 537.994 1.45788 -2.6642 0
M  V30 5665 H 535.579 0.658838 -1.34088 0
M  V30 5666 H 537.461 3.77765 -1.86738 0
M  V30 5667 H 536.136 3.11791 -0.869947 0
M  V30 5668 H 535.043 2.22419 -3.008 0
M  V30 5669 H 536.376 2.94216 -3.94586 0
M  V30 5670 N 538.028 1.39524 0.732853 0
M  V30 5671 C 538.938 1.40695 1.87729 0
M  V30 5672 C 539.954 0.301496 1.71368 0
M  V30 5673 O 541.13 0.543313 1.93933 0
M  V30 5674 C 538.195 1.25098 3.23344 0
M  V30 5675 C 537.256 2.45634 3.52083 0
M  V30 5676 C 536.489 2.30772 4.81228 0
M  V30 5677 O 536.712 1.31233 5.55098 0
M  V30 5678 O 535.646 3.19799 5.09914 0
M  V30 5679 H 539.472 2.37168 1.89697 0
M  V30 5680 H 537.057 1.20663 0.880959 0
M  V30 5681 H 538.939 1.18541 4.04383 0
M  V30 5682 H 537.614 0.317209 3.22142 0
M  V30 5683 H 536.521 2.57767 2.71122 0
M  V30 5684 H 537.854 3.37712 3.58066 0
M  V30 5685 N 539.506 -0.963266 1.24736 0
M  V30 5686 C 540.416 -2.09246 1.06082 0
M  V30 5687 C 541.432 -1.74 0.000363101 0
M  V30 5688 O 542.608 -2.0041 0.199479 0
M  V30 5689 C 539.673 -3.40115 0.672498 0
M  V30 5690 C 538.734 -3.89282 1.80993 0
M  V30 5691 C 537.967 -5.13905 1.44004 0
M  V30 5692 O 538.19 -5.69434 0.331835 0
M  V30 5693 O 537.124 -5.57566 2.26723 0
M  V30 5694 H 540.95 -2.27881 2.00759 0
M  V30 5695 H 538.535 -1.07649 1.03595 0
M  V30 5696 H 540.417 -4.18797 0.467668 0
M  V30 5697 H 539.092 -3.22771 -0.245102 0
M  V30 5698 H 537.999 -3.11642 2.06955 0
M  V30 5699 H 539.332 -4.1111 2.70646 0
M  V30 5700 N 540.985 -1.06182 -1.16461 0
M  V30 5701 C 542.234 -0.772927 -1.86303 0
M  V30 5702 C 542.547 0.703187 -1.82523 0
M  V30 5703 O 543.753 1.10641 -2.47933 0
M  V30 5704 C 542.209 -1.33249 -3.34324 0
M  V30 5705 C 541.817 -2.83876 -3.46581 0
M  V30 5706 C 543.561 -1.12108 -4.09429 0
M  V30 5707 C 541.468 -3.33082 -4.88682 0
M  V30 5708 H 540.398 -0.285452 -0.697878 0
M  V30 5709 H 543.049 -1.28039 -1.31447 0
M  V30 5710 H 541.431 -0.7528 -3.88779 0
M  V30 5711 H 542.605 -3.47786 -3.02293 0
M  V30 5712 H 540.92 -3.03671 -2.84909 0
M  V30 5713 H 543.517 -1.46361 -5.14279 0
M  V30 5714 H 543.86 -0.0593832 -4.16258 0
M  V30 5715 H 544.393 -1.6665 -3.6121 0
M  V30 5716 H 541.132 -4.38726 -4.87032 0
M  V30 5717 H 540.652 -2.73919 -5.33599 0
M  V30 5718 H 542.331 -3.28344 -5.57494 0
M  V30 5719 N 542.463 1.3308 -0.844243 0
M  V30 5720 C 543.693 2.01515 -0.455541 0
M  V30 5721 C 544.101 1.63655 0.949406 0
M  V30 5722 O 543.444 0.84848 1.62931 0
M  V30 5723 C 543.506 3.55967 -0.502801 0
M  V30 5724 C 543.17 4.17222 -1.86481 0
M  V30 5725 C 544.167 4.36205 -2.8288 0
M  V30 5726 C 541.852 4.53528 -2.15911 0
M  V30 5727 C 543.846 4.90649 -4.06869 0
M  V30 5728 C 541.533 5.07679 -3.40155 0
M  V30 5729 C 542.531 5.26186 -4.35451 0
M  V30 5730 O 542.219 5.79183 -5.57496 0
M  V30 5731 H 541.951 0.65199 -0.178565 0
M  V30 5732 H 544.505 1.70867 -1.1399 0
M  V30 5733 H 542.735 3.85965 0.23836 0
M  V30 5734 H 544.424 4.05688 -0.131169 0
M  V30 5735 H 545.19 4.085 -2.61444 0
M  V30 5736 H 541.069 4.38414 -1.42528 0
M  V30 5737 H 544.613 5.0501 -4.81259 0
M  V30 5738 H 540.51 5.34815 -3.61446 0
M  V30 5739 H 541.278 5.97591 -5.5931 0
M  V30 5740 N 543.941 0.601185 1.45683 0
M  V30 5741 C 545.189 0.0936957 2.01883 0
M  V30 5742 C 545.51 -1.2779 1.47291 0
M  V30 5743 O 544.78 -1.84279 0.664691 0
M  V30 5744 H 543.36 0.0316466 0.746329 0
M  V30 5745 H 546.022 0.781137 1.78562 0
M  V30 5746 H 545.118 0.0386297 3.12076 0
M  V30 5747 N 545.419 -1.53889 0.339982 0
M  V30 5748 C 546.382 -2.23547 -0.50592 0
M  V30 5749 C 547.382 -1.23445 -1.03044 0
M  V30 5750 O 548.572 -1.47909 -0.920253 0
M  V30 5751 C 545.704 -2.95234 -1.7044 0
M  V30 5752 H 546.897 -2.99722 0.103247 0
M  V30 5753 H 544.45 -1.56033 0.0912804 0
M  V30 5754 H 545.185 -2.23236 -2.35236 0
M  V30 5755 H 544.97 -3.68654 -1.33553 0
M  V30 5756 H 546.46 -3.48258 -2.30447 0
M  V30 5757 N 546.897 -0.0685191 -1.57451 0
M  V30 5758 C 547.845 0.917577 -2.13736 0
M  V30 5759 C 548.839 1.31049 -1.07344 0
M  V30 5760 O 550.045 1.28811 -1.25728 0
M  V30 5761 H 546.42 0.313835 -0.683382 0
M  V30 5762 H 548.391 0.417903 -2.95459 0
M  V30 5763 C 547.14 2.17686 -2.71123 0
M  V30 5764 H 546.463 1.88336 -3.52661 0
M  V30 5765 H 547.903 2.84803 -3.14107 0
M  V30 5766 C 546.362 2.9332 -1.65726 0
M  V30 5767 O 546.892 3.86901 -1.08031 0
M  V30 5768 N 545.098 2.56367 -1.36837 0
M  V30 5769 H 544.645 1.80341 -1.83943 0
M  V30 5770 H 544.603 3.07276 -0.665501 0
M  V30 5771 N 548.375 1.56261 0.205012 0
M  V30 5772 C 549.6 1.84491 0.947512 0
M  V30 5773 C 550.025 0.650894 1.76479 0
M  V30 5774 O 549.383 -0.40035 1.76824 0
M  V30 5775 C 549.431 3.10863 1.82747 0
M  V30 5776 O 548.535 2.90719 2.925 0
M  V30 5777 H 547.876 0.607783 0.267386 0
M  V30 5778 H 550.406 2.03485 0.213323 0
M  V30 5779 H 550.416 3.41399 2.23407 0
M  V30 5780 H 549.091 3.97392 1.2269 0
M  V30 5781 H 547.668 2.71457 2.55667 0
M  V30 5782 N 549.853 -0.472356 1.50355 0
M  V30 5783 C 551.264 -1.05326 1.54154 0
M  V30 5784 C 551.615 -1.93155 0.344303 0
M  V30 5785 O 550.74 -2.09479 -0.542928 0
M  V30 5786 C 551.335 -1.91691 2.79356 0
M  V30 5787 C 549.894 -2.44892 2.8584 0
M  V30 5788 C 549.041 -1.23205 2.48426 0
M  V30 5789 H 551.992 -0.255027 1.56637 0
M  V30 5790 H 552.013 -2.76742 2.6114 0
M  V30 5791 H 551.525 -1.27741 3.66475 0
M  V30 5792 H 549.626 -3.12399 2.0307 0
M  V30 5793 H 549.739 -2.80086 3.88701 0
M  V30 5794 H 548.103 -1.56643 2.00836 0
M  V30 5795 H 548.886 -0.609194 3.37852 0
M  V30 5796 N 551.331 -1.39911 -0.725443 0
M  V30 5797 C 552.58 -1.36963 -1.48068 0
M  V30 5798 C 552.893 0.0284478 -1.95579 0
M  V30 5799 O 554.099 0.180535 -2.70899 0
M  V30 5800 C 552.555 -2.40664 -2.67598 0
M  V30 5801 C 552.163 -3.86234 -2.26997 0
M  V30 5802 C 553.907 -2.46807 -3.45379 0
M  V30 5803 C 551.814 -4.81554 -3.43307 0
M  V30 5804 H 550.744 -0.509223 -0.556065 0
M  V30 5805 H 553.395 -1.65602 -0.790454 0
M  V30 5806 H 551.777 -2.05109 -3.38742 0
M  V30 5807 H 552.951 -4.3088 -1.63337 0
M  V30 5808 H 551.266 -3.83475 -1.62284 0
M  V30 5809 H 553.863 -3.15213 -4.31909 0
M  V30 5810 H 554.206 -1.49552 -3.8851 0
M  V30 5811 H 554.739 -2.81303 -2.81271 0
M  V30 5812 H 551.478 -5.80106 -3.05217 0
M  V30 5813 H 550.998 -4.4158 -4.05915 0
M  V30 5814 H 552.677 -5.0091 -4.0951 0
M  V30 5815 N 552.809 0.956637 -1.25245 0
M  V30 5816 C 554.055 1.70413 -1.11044 0
M  V30 5817 C 554.41 1.89275 0.345377 0
M  V30 5818 O 553.703 1.45116 1.25107 0
M  V30 5819 C 553.897 3.08996 -1.79601 0
M  V30 5820 C 553.726 3.03654 -3.317 0
M  V30 5821 C 552.496 3.07521 -4.00947 0
M  V30 5822 C 554.694 2.84975 -4.28128 0
M  V30 5823 N 552.676 2.92316 -5.39838 0
M  V30 5824 C 554.047 2.7818 -5.5409 0
M  V30 5825 C 556.102 2.6964 -4.18568 0
M  V30 5826 C 554.805 2.57616 -6.71585 0
M  V30 5827 C 556.831 2.50447 -5.35752 0
M  V30 5828 C 556.193 2.4437 -6.60653 0
M  V30 5829 H 552.292 0.631642 -0.461035 0
M  V30 5830 H 554.876 1.13331 -1.58317 0
M  V30 5831 H 553.047 3.64248 -1.34826 0
M  V30 5832 H 554.779 3.72515 -1.58161 0
M  V30 5833 H 551.534 3.16635 -3.52192 0
M  V30 5834 H 551.958 2.87923 -6.12723 0
M  V30 5835 H 556.6 2.73113 -3.22752 0
M  V30 5836 H 554.318 2.52885 -7.67512 0
M  V30 5837 H 557.904 2.39509 -5.30214 0
M  V30 5838 H 556.784 2.29712 -7.49801 0
M  V30 5839 N 554.287 1.06798 1.15896 0
M  V30 5840 C 555.197 0.694564 2.24083 0
M  V30 5841 C 556.213 -0.291687 1.71538 0
M  V30 5842 O 557.389 -0.139723 2.00915 0
M  V30 5843 C 554.454 0.0921014 3.46578 0
M  V30 5844 C 553.515 1.13087 4.14137 0
M  V30 5845 C 552.748 0.557064 5.30785 0
M  V30 5846 O 552.971 -0.628623 5.66925 0
M  V30 5847 O 551.905 1.29924 5.8771 0
M  V30 5848 H 555.731 1.59663 2.58344 0
M  V30 5849 H 553.316 0.840575 1.2351 0
M  V30 5850 H 555.198 -0.241884 4.20705 0
M  V30 5851 H 553.873 -0.78337 3.14078 0
M  V30 5852 H 552.78 1.51712 3.41957 0
M  V30 5853 H 554.113 1.97805 4.50704 0
M  V30 5854 N 555.766 -1.3263 0.851289 0
M  V30 5855 C 556.991 -2.02097 0.466006 0
M  V30 5856 C 557.416 -1.63574 -0.928709 0
M  V30 5857 O 556.774 -0.834665 -1.60944 0
M  V30 5858 C 556.822 -3.55425 0.608737 0
M  V30 5859 O 555.926 -4.10827 -0.359878 0
M  V30 5860 H 555.267 -0.636911 0.187724 0
M  V30 5861 H 557.797 -1.69253 1.14955 0
M  V30 5862 H 557.807 -4.04986 0.495006 0
M  V30 5863 H 556.482 -3.82806 1.62581 0
M  V30 5864 H 555.059 -3.72349 -0.202666 0
M  V30 5865 N 557.244 -0.608902 -1.45362 0
M  V30 5866 C 558.492 -0.104401 -2.0183 0
M  V30 5867 C 558.813 1.27007 -1.47967 0
M  V30 5868 O 558.083 1.83924 -0.674455 0
M  V30 5869 H 556.663 -0.0356042 -0.746151 0
M  V30 5870 H 559.325 -0.790596 -1.78145 0
M  V30 5871 H 558.421 -0.0551793 -3.12051 0
M  V30 5872 N 558.722 1.53707 -0.348139 0
M  V30 5873 C 559.969 2.00988 0.246966 0
M  V30 5874 C 560.297 1.23586 1.50189 0
M  V30 5875 O 559.552 0.312817 1.93184 0
M  V30 5876 C 559.851 3.52292 0.602061 0
M  V30 5877 C 559.517 4.47453 -0.556509 0
M  V30 5878 C 558.179 4.73188 -0.874446 0
M  V30 5879 C 560.531 5.03851 -1.33354 0
M  V30 5880 C 557.859 5.52577 -1.9717 0
M  V30 5881 C 560.211 5.84437 -2.42108 0
M  V30 5882 C 558.875 6.08465 -2.74456 0
M  V30 5883 H 558.145 0.735469 0.0903712 0
M  V30 5884 H 560.792 1.85464 -0.477001 0
M  V30 5885 H 559.097 3.65672 1.40681 0
M  V30 5886 H 560.794 3.86337 1.07447 0
M  V30 5887 H 557.384 4.27558 -0.298652 0
M  V30 5888 H 561.568 4.8393 -1.10117 0
M  V30 5889 H 556.824 5.69418 -2.22651 0
M  V30 5890 H 560.998 6.27151 -3.02745 0
M  V30 5891 H 558.625 6.69768 -3.59604 0
M  V30 5892 N 560.2 0.0768682 1.57412 0
M  V30 5893 C 561.428 -0.59997 1.9801 0
M  V30 5894 C 561.843 -1.62842 0.955408 0
M  V30 5895 O 561.2 -1.8241 -0.057314 0
M  V30 5896 C 561.251 -1.26401 3.38681 0
M  V30 5897 O 560.972 -0.276723 4.37225 0
M  V30 5898 C 562.473 -2.0282 3.94182 0
M  V30 5899 H 559.693 -0.162239 0.651091 0
M  V30 5900 H 562.237 0.150771 2.03943 0
M  V30 5901 H 560.392 -1.96581 3.33819 0
M  V30 5902 H 560.806 -0.753744 5.19056 0
M  V30 5903 H 562.28 -2.44667 4.94815 0
M  V30 5904 H 562.757 -2.88678 3.31001 0
M  V30 5905 H 563.363 -1.37496 4.02461 0
M  V30 5906 N 561.678 -1.56367 -0.196722 0
M  V30 5907 C 562.611 -1.89475 -1.2718 0
M  V30 5908 C 563.589 -0.754667 -1.44026 0
M  V30 5909 O 564.773 -1.00551 -1.59442 0
M  V30 5910 C 561.9 -2.12352 -2.63864 0
M  V30 5911 C 560.946 -3.35053 -2.63897 0
M  V30 5912 S 561.779 -4.90228 -2.15492 0
M  V30 5913 C 562.935 -5.16171 -3.54004 0
M  V30 5914 H 563.168 -2.80365 -0.989075 0
M  V30 5915 H 560.701 -1.49125 -0.40014 0
M  V30 5916 H 562.659 -2.26214 -3.42545 0
M  V30 5917 H 561.32 -1.22214 -2.89349 0
M  V30 5918 H 560.513 -3.48182 -3.64397 0
M  V30 5919 H 560.115 -3.20176 -1.93296 0
M  V30 5920 H 562.407 -5.06591 -4.49857 0
M  V30 5921 H 563.35 -6.17938 -3.45771 0
M  V30 5922 H 563.758 -4.43814 -3.48841 0
M  V30 5923 N 563.156 0.464375 -1.50603 0
M  V30 5924 C 564.567 1.04507 -1.5471 0
M  V30 5925 C 564.918 1.9297 -0.354542 0
M  V30 5926 O 564.043 2.09763 0.531812 0
M  V30 5927 C 564.638 1.90207 -2.80369 0
M  V30 5928 C 563.197 2.43373 -2.87135 0
M  V30 5929 C 562.344 1.21886 -2.49076 0
M  V30 5930 H 565.295 0.246716 -1.56771 0
M  V30 5931 H 565.316 2.75353 -2.62604 0
M  V30 5932 H 564.828 1.25796 -3.67147 0
M  V30 5933 H 562.929 3.11318 -2.04724 0
M  V30 5934 H 563.042 2.7802 -3.90181 0
M  V30 5935 H 561.406 1.55575 -2.01664 0
M  V30 5936 H 562.189 0.591268 -3.3817 0
M  V30 5937 N 564.634 1.40294 0.718013 0
M  V30 5938 C 566.045 1.34289 1.29705 0
M  V30 5939 C 566.396 0.0152228 1.96194 0
M  V30 5940 O 565.521 -0.88682 1.97394 0
M  V30 5941 C 566.116 2.43219 2.3586 0
M  V30 5942 C 564.675 2.40682 2.89394 0
M  V30 5943 C 563.822 2.24223 1.63154 0
M  V30 5944 H 566.773 1.50135 0.514312 0
M  V30 5945 H 566.794 2.10986 3.16647 0
M  V30 5946 H 566.306 3.39836 1.87439 0
M  V30 5947 H 564.407 1.47756 3.42051 0
M  V30 5948 H 564.52 3.36177 3.41353 0
M  V30 5949 H 562.884 1.71696 1.88129 0
M  V30 5950 H 563.667 3.22834 1.16761 0
M  V30 5951 N 566.112 -0.949982 1.2575 0
M  V30 5952 C 567.337 -1.73503 1.13628 0
M  V30 5953 C 567.762 -1.85601 -0.30559 0
M  V30 5954 O 567.12 -1.33984 -1.22139 0
M  V30 5955 C 567.168 -3.1243 1.80055 0
M  V30 5956 O 566.272 -3.97916 1.08336 0
M  V30 5957 H 565.613 -0.532665 0.396439 0
M  V30 5958 H 568.143 -1.19043 1.66403 0
M  V30 5959 H 568.153 -3.62866 1.86527 0
M  V30 5960 H 566.828 -3.02941 2.84956 0
M  V30 5961 H 565.405 -3.56375 1.09777 0
M  V30 5962 N 567.59 -1.07411 -1.15328 0
M  V30 5963 C 568.5 -0.706438 -2.23711 0
M  V30 5964 C 569.516 0.282586 -1.7169 0
M  V30 5965 O 570.692 0.129066 -2.00986 0
M  V30 5966 C 567.757 -0.11048 -3.46524 0
M  V30 5967 C 566.818 -1.15282 -4.13532 0
M  V30 5968 C 566.051 -0.585205 -5.30482 0
M  V30 5969 O 566.274 0.598549 -5.67251 0
M  V30 5970 O 565.208 -1.33039 -5.87013 0
M  V30 5971 H 569.034 -1.61031 -2.57493 0
M  V30 5972 H 566.619 -0.847113 -1.23062 0
M  V30 5973 H 568.501 0.21957 -4.20828 0
M  V30 5974 H 567.176 0.766703 -3.14489 0
M  V30 5975 H 566.083 -1.53523 -3.41147 0
M  V30 5976 H 567.416 -2.00192 -4.49649 0
M  V30 5977 N 569.068 1.32177 -0.85831 0
M  V30 5978 C 570.316 1.96735 -0.462568 0
M  V30 5979 C 570.637 1.6824 0.985911 0
M  V30 5980 O 569.907 0.991564 1.68952 0
M  V30 5981 H 568.487 0.727849 -0.168064 0
M  V30 5982 H 571.149 1.61195 -1.09554 0
M  V30 5983 H 570.245 3.06068 -0.610647 0
M  V30 5984 N 570.547 0.616602 1.45037 0
M  V30 5985 C 571.775 0.121968 2.0654 0
M  V30 5986 C 572.19 -1.19743 1.45969 0
M  V30 5987 O 571.547 -1.73133 0.577168 0
M  V30 5988 C 571.598 -0.0145171 3.61497 0
M  V30 5989 O 571.319 1.25269 4.19809 0
M  V30 5990 C 572.82 -0.539555 4.40004 0
M  V30 5991 H 570.04 0.0729837 0.667019 0
M  V30 5992 H 572.584 0.846891 1.8614 0
M  V30 5993 H 570.739 -0.689809 3.81209 0
M  V30 5994 H 571.153 1.08816 5.13088 0
M  V30 5995 H 572.627 -0.584112 5.48901 0
M  V30 5996 H 573.104 -1.56368 4.10421 0
M  V30 5997 H 573.71 0.101995 4.25178 0
M  V30 5998 N 572.025 -1.5352 0.356285 0
M  V30 5999 C 572.957 -2.23009 -0.529127 0
M  V30 6000 C 573.97 -1.241 -1.05371 0
M  V30 6001 O 575.159 -1.50379 -0.961679 0
M  V30 6002 C 572.259 -2.90685 -1.74229 0
M  V30 6003 C 571.432 -4.16019 -1.35081 0
M  V30 6004 C 570.491 -4.66989 -2.42502 0
M  V30 6005 O 569.517 -5.30895 -2.05279 0
M  V30 6006 N 570.719 -4.44006 -3.7395 0
M  V30 6007 H 573.484 -2.99627 0.0660501 0
M  V30 6008 H 571.045 -1.60885 0.181014 0
M  V30 6009 H 573.037 -3.21695 -2.4555 0
M  V30 6010 H 571.607 -2.17575 -2.24454 0
M  V30 6011 H 570.827 -3.91414 -0.467833 0
M  V30 6012 H 572.115 -4.9752 -1.06542 0
M  V30 6013 H 571.513 -3.92924 -4.06973 0
M  V30 6014 H 570.07 -4.7959 -4.41403 0
M  V30 6015 N 573.503 -0.0852151 -1.57369 0
M  V30 6016 C 574.433 0.874556 -2.16503 0
M  V30 6017 C 575.414 1.30111 -1.09568 0
M  V30 6018 O 576.599 1.36977 -1.37662 0
M  V30 6019 C 573.729 2.13731 -2.73745 0
M  V30 6020 C 572.683 1.84971 -3.85966 0
M  V30 6021 C 572.009 3.17991 -4.29867 0
M  V30 6022 C 573.309 1.14442 -5.09608 0
M  V30 6023 H 575.003 0.381899 -2.96954 0
M  V30 6024 H 572.549 0.18225 -1.42842 0
M  V30 6025 H 574.502 2.81302 -3.13763 0
M  V30 6026 H 573.226 2.65263 -1.90534 0
M  V30 6027 H 571.885 1.19801 -3.46473 0
M  V30 6028 H 571.533 3.6739 -3.4356 0
M  V30 6029 H 571.233 2.99534 -5.05523 0
M  V30 6030 H 572.757 3.86737 -4.72511 0
M  V30 6031 H 574.171 1.72105 -5.46857 0
M  V30 6032 H 572.568 1.06197 -5.90629 0
M  V30 6033 H 573.638 0.12559 -4.84737 0
M  V30 6034 N 574.981 1.5647 0.188427 0
M  V30 6035 C 576.227 1.81281 0.909124 0
M  V30 6036 C 576.56 0.66034 1.82628 0
M  V30 6037 O 575.835 -0.338737 1.91528 0
M  V30 6038 C 576.118 3.16388 1.7196 0
M  V30 6039 C 575.971 4.42137 0.826714 0
M  V30 6040 C 577.29 3.48256 2.69083 0
M  V30 6041 H 574.409 0.659457 0.329068 0
M  V30 6042 H 577.051 1.89182 0.176156 0
M  V30 6043 H 575.201 3.09784 2.34448 0
M  V30 6044 H 576.873 4.60794 0.216025 0
M  V30 6045 H 575.116 4.33594 0.133792 0
M  V30 6046 H 575.787 5.33184 1.42893 0
M  V30 6047 H 578.263 3.55203 2.16726 0
M  V30 6048 H 577.139 4.43899 3.2287 0
M  V30 6049 H 577.4 2.72088 3.48455 0
M  V30 6050 N 576.459 -0.456382 1.50847 0
M  V30 6051 C 577.87 -1.03685 1.55262 0
M  V30 6052 C 578.221 -1.92779 0.364771 0
M  V30 6053 O 577.346 -2.10043 -0.52068 0
M  V30 6054 C 577.941 -1.88718 2.81374 0
M  V30 6055 C 576.5 -2.41847 2.88422 0
M  V30 6056 C 575.647 -1.20564 2.49719 0
M  V30 6057 H 578.598 -0.238399 1.56899 0
M  V30 6058 H 578.619 -2.73957 2.6406 0
M  V30 6059 H 578.131 -1.23847 3.67809 0
M  V30 6060 H 576.232 -3.10228 2.06372 0
M  V30 6061 H 576.345 -2.75947 3.9165 0
M  V30 6062 H 574.709 -1.54504 2.02486 0
M  V30 6063 H 575.492 -0.573326 3.38479 0
M  V30 6064 N 577.937 -1.40673 -0.710563 0
M  V30 6065 C 579.353 -1.22813 -1.01928 0
M  V30 6066 C 579.553 -0.10687 -2.01216 0
M  V30 6067 O 578.609 0.533614 -2.46797 0
M  V30 6068 C 579.922 -2.57178 -1.5582 0
M  V30 6069 C 581.47 -2.64233 -1.67779 0
M  V30 6070 C 581.945 -3.98879 -2.25076 0
M  V30 6071 N 583.436 -4.00647 -2.32456 0
M  V30 6072 C 584.171 -5.01621 -2.77784 0
M  V30 6073 N 583.667 -6.12989 -3.22826 0
M  V30 6074 N 585.46 -4.88988 -2.77213 0
M  V30 6075 H 577.611 -2.12335 -0.05253 0
M  V30 6076 H 579.874 -0.9441 -0.085898 0
M  V30 6077 H 579.58 -3.39903 -0.903249 0
M  V30 6078 H 579.454 -2.78618 -2.54267 0
M  V30 6079 H 581.841 -1.81876 -2.3239 0
M  V30 6080 H 581.922 -2.46619 -0.679178 0
M  V30 6081 H 581.566 -4.81678 -1.61086 0
M  V30 6082 H 581.496 -4.13826 -3.25661 0
M  V30 6083 H 583.987 -3.20231 -2.0065 0
M  V30 6084 H 584.3 -6.85921 -3.55995 0
M  V30 6085 H 582.645 -6.16547 -3.20773 0
M  V30 6086 H 585.836 -4.01075 -2.41363 0
M  V30 6087 H 586.009 -5.67822 -3.12221 0
M  V30 6088 N 579.415 0.9433 -1.26252 0
M  V30 6089 C 580.826 1.50404 -1.10614 0
M  V30 6090 C 581.177 1.93666 0.31429 0
M  V30 6091 O 580.302 1.79709 1.20555 0
M  V30 6092 C 580.897 2.73336 -2.00182 0
M  V30 6093 C 579.456 3.25686 -1.88695 0
M  V30 6094 C 578.603 1.98474 -1.93658 0
M  V30 6095 H 581.554 0.759006 -1.39373 0
M  V30 6096 H 581.575 3.47567 -1.54847 0
M  V30 6097 H 581.087 2.41818 -3.03555 0
M  V30 6098 H 579.188 3.61998 -0.882489 0
M  V30 6099 H 579.301 3.92935 -2.74115 0
M  V30 6100 H 577.665 2.14278 -1.37684 0
M  V30 6101 H 578.448 1.6929 -2.98657 0
M  V30 6102 N 580.893 1.08022 1.14757 0
M  V30 6103 C 581.856 0.71048 2.1791 0
M  V30 6104 C 582.856 -0.252731 1.58801 0
M  V30 6105 O 584.046 -0.0327915 1.74169 0
M  V30 6106 C 581.178 0.0483203 3.40866 0
M  V30 6107 H 582.371 1.62384 2.52134 0
M  V30 6108 H 579.924 0.877595 1.29337 0
M  V30 6109 H 580.659 -0.876959 3.12218 0
M  V30 6110 H 580.444 0.741189 3.85031 0
M  V30 6111 H 581.934 -0.195471 4.17142 0
M  V30 6112 N 582.371 -1.3172 0.865308 0
M  V30 6113 C 583.596 -2.01591 0.487415 0
M  V30 6114 C 584.021 -1.6455 -0.911307 0
M  V30 6115 O 583.379 -0.851689 -1.6005 0
M  V30 6116 C 583.427 -3.54759 0.646401 0
M  V30 6117 O 582.531 -4.11185 -0.316284 0
M  V30 6118 H 581.872 -0.634884 0.194468 0
M  V30 6119 H 584.402 -1.68024 1.16744 0
M  V30 6120 H 584.412 -4.04438 0.537932 0
M  V30 6121 H 583.087 -3.8106 1.66632 0
M  V30 6122 H 581.664 -3.72543 -0.163162 0
M  V30 6123 N 583.85 -0.624285 -1.44708 0
M  V30 6124 C 585.096 -0.126237 -2.02407 0
M  V30 6125 C 585.428 1.24618 -1.48943 0
M  V30 6126 O 584.704 1.82569 -0.670742 0
M  V30 6127 C 584.986 -0.105449 -3.59946 0
M  V30 6128 C 584.84 -1.50972 -4.23707 0
M  V30 6129 C 586.159 0.573629 -4.36346 0
M  V30 6130 H 583.278 -0.0473472 -0.735478 0
M  V30 6131 H 585.92 -0.799452 -1.72362 0
M  V30 6132 H 584.07 0.46783 -3.85673 0
M  V30 6133 H 585.742 -2.13136 -4.0911 0
M  V30 6134 H 583.985 -2.0656 -3.81465 0
M  V30 6135 H 584.656 -1.44727 -5.32689 0
M  V30 6136 H 587.132 0.0861787 -4.16011 0
M  V30 6137 H 586.008 0.557338 -5.46063 0
M  V30 6138 H 586.269 1.64276 -4.10446 0
M  V30 6139 N 585.328 1.53329 -0.364422 0
M  V30 6140 C 586.553 2.06132 0.229033 0
M  V30 6141 C 586.978 1.23625 1.41769 0
M  V30 6142 O 586.336 0.255038 1.79497 0
M  V30 6143 C 586.384 3.55544 0.60174 0
M  V30 6144 O 585.488 3.75771 1.69912 0
M  V30 6145 H 584.829 0.663148 0.0336213 0
M  V30 6146 H 587.359 1.97758 -0.524689 0
M  V30 6147 H 587.369 3.98549 0.873073 0
M  V30 6148 H 586.044 4.15039 -0.267421 0
M  V30 6149 H 584.621 3.44663 1.42343 0
M  V30 6150 N 586.806 0.0935595 1.57322 0
M  V30 6151 C 587.769 -0.851426 2.12799 0
M  V30 6152 C 588.769 -1.21187 1.0569 0
M  V30 6153 O 589.959 -1.14156 1.31583 0
M  V30 6154 C 587.091 -2.14779 2.64731 0
M  V30 6155 H 588.284 -0.369733 2.97612 0
M  V30 6156 H 585.837 -0.155417 1.55525 0
M  V30 6157 H 586.572 -2.67437 1.83434 0
M  V30 6158 H 586.357 -1.89907 3.43042 0
M  V30 6159 H 587.847 -2.82383 3.07651 0
M  V30 6160 N 588.284 -1.56567 -0.180126 0
M  V30 6161 C 589.247 -1.94852 -1.20686 0
M  V30 6162 C 590.247 -0.831212 -1.3765 0
M  V30 6163 O 591.437 -1.09841 -1.35206 0
M  V30 6164 C 588.569 -2.23565 -2.57355 0
M  V30 6165 H 589.762 -2.86722 -0.879225 0
M  V30 6166 H 587.315 -1.50489 -0.422237 0
M  V30 6167 H 588.05 -1.34381 -2.95148 0
M  V30 6168 H 587.835 -3.04999 -2.46411 0
M  V30 6169 H 589.325 -2.54137 -3.31367 0
M  V30 6170 N 589.762 0.448376 -1.51087 0
M  V30 6171 C 591.008 1.20049 -1.6345 0
M  V30 6172 C 591.341 1.91121 -0.344444 0
M  V30 6173 O 590.616 1.83125 0.655396 0
M  V30 6174 C 590.899 2.22624 -2.83038 0
M  V30 6175 C 590.752 1.55708 -4.21989 0
M  V30 6176 C 592.071 3.23718 -2.98152 0
M  V30 6177 H 589.19 0.435085 -0.59487 0
M  V30 6178 H 591.832 0.491183 -1.83541 0
M  V30 6179 H 589.982 2.83117 -2.66039 0
M  V30 6180 H 591.654 0.986367 -4.50631 0
M  V30 6181 H 589.897 0.859647 -4.25197 0
M  V30 6182 H 590.568 2.30357 -5.01637 0
M  V30 6183 H 593.044 2.73269 -3.13788 0
M  V30 6184 H 591.92 3.92795 -3.83411 0
M  V30 6185 H 592.181 3.89179 -2.09743 0
M  V30 6186 N 591.24 1.41047 0.703093 0
M  V30 6187 C 592.486 1.40207 1.46526 0
M  V30 6188 C 592.819 0.00847763 1.94198 0
M  V30 6189 O 592.094 -0.962437 1.69019 0
M  V30 6190 C 592.377 2.40238 2.6825 0
M  V30 6191 C 592.23 3.88674 2.26391 0
M  V30 6192 C 593.549 2.37627 3.70434 0
M  V30 6193 H 590.668 0.510594 0.531472 0
M  V30 6194 H 593.31 1.72271 0.801422 0
M  V30 6195 H 591.46 2.13026 3.24888 0
M  V30 6196 H 593.132 4.2676 1.75138 0
M  V30 6197 H 591.375 4.03903 1.58255 0
M  V30 6198 H 592.046 4.542 3.13698 0
M  V30 6199 H 594.522 2.61759 3.23452 0
M  V30 6200 H 593.398 3.09645 4.53223 0
M  V30 6201 H 593.659 1.39223 4.19606 0
M  V30 6202 N 592.718 -0.936591 1.26751 0
M  V30 6203 C 594.129 -1.49816 1.1141 0
M  V30 6204 C 594.48 -1.9383 -0.304015 0
M  V30 6205 O 593.605 -1.80346 -1.196 0
M  V30 6206 C 594.2 -2.72271 2.01629 0
M  V30 6207 C 592.759 -3.2468 1.9042 0
M  V30 6208 C 591.906 -1.97444 1.94708 0
M  V30 6209 H 594.857 -0.751604 1.39773 0
M  V30 6210 H 594.878 -3.46741 1.56688 0
M  V30 6211 H 594.39 -2.40205 3.04833 0
M  V30 6212 H 592.491 -3.61525 0.901674 0
M  V30 6213 H 592.604 -3.91476 2.76195 0
M  V30 6214 H 590.968 -2.13545 1.38818 0
M  V30 6215 H 591.751 -1.67703 2.9955 0
M  V30 6216 N 594.196 -1.08629 -1.14182 0
M  V30 6217 C 595.421 -0.83902 -1.89671 0
M  V30 6218 C 595.846 0.603332 -1.78161 0
M  V30 6219 O 595.204 1.42301 -1.12339 0
M  V30 6220 C 595.252 -1.26854 -3.37551 0
M  V30 6221 O 594.356 -0.42188 -4.10236 0
M  V30 6222 H 593.697 -0.304545 -0.590041 0
M  V30 6223 H 596.227 -1.4483 -1.44518 0
M  V30 6224 H 596.237 -1.25038 -3.88368 0
M  V30 6225 H 594.912 -2.31901 -3.45246 0
M  V30 6226 H 593.489 -0.503654 -3.69483 0
M  V30 6227 N 595.674 1.31259 -0.872281 0
M  V30 6228 C 596.902 2.00795 -0.498907 0
M  V30 6229 C 597.317 1.65464 0.909238 0
M  V30 6230 O 596.674 0.885073 1.59602 0
M  V30 6231 C 596.725 3.55625 -0.649092 0
M  V30 6232 O 596.446 3.89692 -2.00179 0
M  V30 6233 C 597.947 4.42434 -0.277034 0
M  V30 6234 H 595.167 0.642299 -0.194145 0
M  V30 6235 H 597.711 1.67438 -1.17408 0
M  V30 6236 H 595.866 3.87394 -0.0214402 0
M  V30 6237 H 596.28 4.84407 -2.01122 0
M  V30 6238 H 597.754 5.50299 -0.433064 0
M  V30 6239 H 598.231 4.32146 0.783989 0
M  V30 6240 H 598.837 4.16086 -0.880483 0
M  V30 6241 N 597.152 0.631951 1.44375 0
M  V30 6242 C 598.563 0.219036 1.85411 0
M  V30 6243 C 598.914 -1.22974 1.52879 0
M  V30 6244 O 598.039 -1.93579 0.967266 0
M  V30 6245 C 598.634 0.39075 3.36539 0
M  V30 6246 C 597.193 0.0323351 3.76386 0
M  V30 6247 C 596.34 0.703744 2.68221 0
M  V30 6248 H 599.291 0.837056 1.3483 0
M  V30 6249 H 599.312 -0.370056 3.78696 0
M  V30 6250 H 598.824 1.44527 3.60185 0
M  V30 6251 H 596.925 -1.02042 3.58355 0
M  V30 6252 H 597.038 0.442969 4.77048 0
M  V30 6253 H 595.402 0.138974 2.54321 0
M  V30 6254 H 596.185 1.76088 2.947 0
M  V30 6255 N 598.631 -1.53133 0.372548 0
M  V30 6256 C 599.88 -2.00539 -0.216115 0
M  V30 6257 C 600.193 -1.26374 -1.49295 0
M  V30 6258 O 601.399 -1.64404 -2.16064 0
M  V30 6259 C 599.855 -3.57253 -0.435678 0
M  V30 6260 C 599.463 -4.40302 0.82693 0
M  V30 6261 C 601.207 -4.12995 -0.981618 0
M  V30 6262 C 599.114 -5.88583 0.576567 0
M  V30 6263 H 598.044 -0.749246 -0.084536 0
M  V30 6264 H 600.695 -1.76771 0.492364 0
M  V30 6265 H 599.077 -3.77202 -1.20559 0
M  V30 6266 H 600.251 -4.32124 1.60017 0
M  V30 6267 H 598.566 -3.95699 1.29659 0
M  V30 6268 H 601.163 -5.21418 -1.18436 0
M  V30 6269 H 601.506 -3.68027 -1.94581 0
M  V30 6270 H 602.039 -3.96871 -0.271696 0
M  V30 6271 H 598.778 -6.37841 1.51128 0
M  V30 6272 H 598.298 -5.99592 -0.158047 0
M  V30 6273 H 599.977 -6.46676 0.204722 0
M  V30 6274 N 600.109 -0.101901 -1.5727 0
M  V30 6275 C 601.356 0.560197 -1.94597 0
M  V30 6276 C 601.684 1.67767 -0.984101 0
M  V30 6277 O 600.939 1.95699 -0.00489193 0
M  V30 6278 C 601.238 1.14898 -3.38427 0
M  V30 6279 C 600.904 0.154613 -4.50635 0
M  V30 6280 C 599.566 -0.118861 -4.81053 0
M  V30 6281 C 601.918 -0.523979 -5.18559 0
M  V30 6282 C 599.246 -1.0775 -5.76721 0
M  V30 6283 C 601.598 -1.47114 -6.15256 0
M  V30 6284 C 600.262 -1.75278 -6.44076 0
M  V30 6285 H 599.532 0.204991 -0.712081 0
M  V30 6286 H 602.179 -0.17918 -1.9066 0
M  V30 6287 H 600.484 1.96476 -3.38976 0
M  V30 6288 H 602.181 1.66909 -3.64613 0
M  V30 6289 H 598.771 0.377948 -4.2693 0
M  V30 6290 H 602.955 -0.325851 -4.95229 0
M  V30 6291 H 598.211 -1.30263 -5.97362 0
M  V30 6292 H 602.385 -2.00274 -6.66981 0
M  V30 6293 H 600.012 -2.49717 -7.18015 0
M  V30 6294 N 601.587 1.56661 0.17182 0
M  V30 6295 C 602.812 1.86459 0.908165 0
M  V30 6296 C 603.237 0.688181 1.75059 0
M  V30 6297 O 602.595 -0.362753 1.77634 0
M  V30 6298 C 602.643 3.14669 1.76112 0
M  V30 6299 O 601.747 2.96858 2.86268 0
M  V30 6300 H 601.088 0.613318 0.254434 0
M  V30 6301 H 603.618 2.03892 0.170113 0
M  V30 6302 H 603.628 3.46061 2.16115 0
M  V30 6303 H 602.303 3.99905 1.14233 0
M  V30 6304 H 600.88 2.76819 2.49852 0
M  V30 6305 N 603.065 -0.440357 1.51323 0
M  V30 6306 C 604.476 -1.02032 1.56353 0
M  V30 6307 C 604.827 -1.92382 0.385197 0
M  V30 6308 O 603.952 -2.10583 -0.498373 0
M  V30 6309 C 604.547 -1.85723 2.83359 0
M  V30 6310 C 603.106 -2.38774 2.90971 0
M  V30 6311 C 602.253 -1.17908 2.50984 0
M  V30 6312 H 605.204 -0.221744 1.57143 0
M  V30 6313 H 605.225 -2.71141 2.66951 0
M  V30 6314 H 604.737 -1.19939 3.69102 0
M  V30 6315 H 602.838 -3.08021 2.09651 0
M  V30 6316 H 602.951 -2.71778 3.94555 0
M  V30 6317 H 601.315 -1.52347 2.04114 0
M  V30 6318 H 602.098 -0.537393 3.39068 0
M  V30 6319 N 604.543 -1.41418 -0.695603 0
M  V30 6320 C 605.768 -1.44329 -1.48942 0
M  V30 6321 C 606.193 -0.0501579 -1.88033 0
M  V30 6322 O 605.551 0.946598 -1.54626 0
M  V30 6323 C 605.599 -2.3578 -2.72837 0
M  V30 6324 O 604.703 -1.81482 -3.70322 0
M  V30 6325 H 604.044 -0.489838 -0.44828 0
M  V30 6326 H 606.574 -1.85878 -0.855014 0
M  V30 6327 H 606.584 -2.51654 -3.21145 0
M  V30 6328 H 605.259 -3.37005 -2.43722 0
M  V30 6329 H 603.836 -1.75058 -3.29255 0
M  V30 6330 N 606.021 0.929856 -1.27246 0
M  V30 6331 C 606.954 2.03069 -1.04106 0
M  V30 6332 C 607.932 1.62556 0.0378417 0
M  V30 6333 O 609.116 1.88197 -0.106869 0
M  V30 6334 C 606.243 3.33718 -0.578778 0
M  V30 6335 C 605.289 3.93209 -1.65193 0
M  V30 6336 S 606.122 4.26068 -3.24386 0
M  V30 6337 C 607.278 5.598 -2.79954 0
M  V30 6338 H 607.511 2.22386 -1.97311 0
M  V30 6339 H 605.044 1.07269 -1.11053 0
M  V30 6340 H 607.002 4.09261 -0.31874 0
M  V30 6341 H 605.663 3.12328 0.333182 0
M  V30 6342 H 604.856 4.87482 -1.27973 0
M  V30 6343 H 604.458 3.24243 -1.86393 0
M  V30 6344 H 606.75 6.39004 -2.25123 0
M  V30 6345 H 607.693 6.01917 -3.72963 0
M  V30 6346 H 608.101 5.20219 -2.19164 0
M  V30 6347 N 607.499 1.09233 1.13605 0
M  V30 6348 C 608.747 0.825525 1.84471 0
M  V30 6349 C 609.068 -0.650702 1.83823 0
M  V30 6350 O 608.338 -1.47204 1.29259 0
M  V30 6351 H 606.918 0.3024 0.683054 0
M  V30 6352 H 609.58 1.38006 1.37624 0
M  V30 6353 H 608.676 1.17727 2.89045 0
M  V30 6354 N 608.977 -1.30795 0.87923 0
M  V30 6355 C 610.225 -1.95974 0.493809 0
M  V30 6356 C 610.546 -1.69787 -0.959021 0
M  V30 6357 O 609.816 -1.01832 -1.67353 0
M  V30 6358 H 608.396 -0.725083 0.179622 0
M  V30 6359 H 611.058 -1.59432 1.12105 0
M  V30 6360 H 610.154 -3.05058 0.659263 0
M  V30 6361 N 610.455 -0.639598 -1.44038 0
M  V30 6362 C 611.703 -0.147188 -2.01563 0
M  V30 6363 C 612.024 1.2384 -1.50628 0
M  V30 6364 O 611.294 1.82452 -0.713316 0
M  V30 6365 H 609.874 -0.0514231 -0.745228 0
M  V30 6366 H 612.536 -0.828205 -1.76428 0
M  V30 6367 H 611.632 -0.121358 -3.11864 0
M  V30 6368 N 611.933 1.52934 -0.380664 0
M  V30 6369 C 613.158 2.06363 0.207157 0
M  V30 6370 C 613.583 1.25122 1.4045 0
M  V30 6371 O 612.941 0.274062 1.79217 0
M  V30 6372 C 612.989 3.56162 0.563996 0
M  V30 6373 O 612.093 3.77552 1.65917 0
M  V30 6374 H 611.434 0.663468 0.0265859 0
M  V30 6375 H 613.964 1.9719 -0.545635 0
M  V30 6376 H 613.974 3.99453 0.830752 0
M  V30 6377 H 612.649 4.14732 -0.311427 0
M  V30 6378 H 611.226 3.46154 1.3868 0
M  V30 6379 N 613.412 0.11024 1.57214 0
M  V30 6380 C 614.36 -0.860586 2.16094 0
M  V30 6381 C 615.354 -1.28156 1.1078 0
M  V30 6382 O 616.56 -1.25433 1.29099 0
M  V30 6383 H 612.935 -0.295606 0.691463 0
M  V30 6384 H 614.906 -0.33942 2.96463 0
M  V30 6385 C 613.655 -2.10421 2.768 0
M  V30 6386 H 612.978 -1.7892 3.5753 0
M  V30 6387 H 614.418 -2.76375 3.21547 0
M  V30 6388 C 612.877 -2.88823 1.73444 0
M  V30 6389 O 613.407 -3.839 1.18251 0
M  V30 6390 N 611.613 -2.52649 1.43586 0
M  V30 6391 H 611.16 -1.754 1.8866 0
M  V30 6392 H 611.118 -3.05403 0.746735 0
M  V30 6393 N 614.89 -1.56749 -0.16351 0
M  V30 6394 C 616.115 -1.86938 -0.898264 0
M  V30 6395 C 616.54 -0.697456 -1.74692 0
M  V30 6396 O 615.898 0.353327 -1.77824 0
M  V30 6397 C 615.946 -3.15599 -1.74441 0
M  V30 6398 O 615.05 -2.98371 -2.8469 0
M  V30 6399 H 614.391 -0.614659 -0.251178 0
M  V30 6400 H 616.921 -2.03979 -0.159298 0
M  V30 6401 H 616.931 -3.47202 -2.14277 0
M  V30 6402 H 615.606 -4.00505 -1.1211 0
M  V30 6403 H 614.183 -2.7814 -2.4838 0
M  V30 6404 N 616.368 0.432326 -1.51554 0
M  V30 6405 C 617.593 1.20824 -1.68571 0
M  V30 6406 C 618.018 1.84126 -0.384596 0
M  V30 6407 O 617.376 1.69025 0.655751 0
M  V30 6408 C 617.424 2.26429 -2.80646 0
M  V30 6409 O 616.528 3.32032 -2.44598 0
M  V30 6410 H 615.869 0.353765 -0.561913 0
M  V30 6411 H 618.399 0.509916 -1.98144 0
M  V30 6412 H 618.409 2.71133 -3.04878 0
M  V30 6413 H 617.084 1.79733 -3.75058 0
M  V30 6414 H 615.661 2.92769 -2.30956 0
M  V30 6415 N 617.846 1.41785 0.688094 0
M  V30 6416 C 618.776 1.47 1.8142 0
M  V30 6417 C 619.757 0.327881 1.6691 0
M  V30 6418 O 620.942 0.540362 1.86531 0
M  V30 6419 C 618.072 1.35876 3.19617 0
M  V30 6420 C 617.026 2.47976 3.48844 0
M  V30 6421 C 616.352 2.21915 4.86475 0
M  V30 6422 C 617.652 3.90309 3.47068 0
M  V30 6423 H 619.346 2.41247 1.77314 0
M  V30 6424 H 616.892 1.16116 0.851651 0
M  V30 6425 H 618.845 1.38134 3.98117 0
M  V30 6426 H 617.569 0.38116 3.24368 0
M  V30 6427 H 616.228 2.45013 2.72698 0
M  V30 6428 H 615.876 1.2248 4.8786 0
M  V30 6429 H 615.576 2.97037 5.06994 0
M  V30 6430 H 617.1 2.25901 5.67275 0
M  V30 6431 H 618.514 3.94947 4.1556 0
M  V30 6432 H 616.911 4.65175 3.7912 0
M  V30 6433 H 617.981 4.17927 2.45896 0
M  V30 6434 N 619.324 -0.923095 1.27737 0
M  V30 6435 C 620.549 -1.71054 1.17283 0
M  V30 6436 C 620.974 -1.86208 -0.266153 0
M  V30 6437 O 620.332 -1.36545 -1.1927 0
M  V30 6438 C 620.38 -3.0854 1.86642 0
M  V30 6439 O 619.484 -3.95528 1.16752 0
M  V30 6440 H 618.825 -0.524136 0.407649 0
M  V30 6441 H 621.355 -1.15487 1.6889 0
M  V30 6442 H 621.365 -3.58828 1.94182 0
M  V30 6443 H 620.04 -2.96828 2.91317 0
M  V30 6444 H 618.617 -3.53967 1.17312 0
M  V30 6445 N 620.802 -1.09834 -1.13024 0
M  V30 6446 C 621.732 -0.763451 -2.20666 0
M  V30 6447 C 622.713 0.260778 -1.68089 0
M  V30 6448 O 623.898 0.127915 -1.93778 0
M  V30 6449 C 621.028 -0.187744 -3.46792 0
M  V30 6450 C 619.982 -1.14196 -4.12484 0
M  V30 6451 C 619.308 -0.427755 -5.32986 0
M  V30 6452 C 620.608 -2.48607 -4.59338 0
M  V30 6453 H 622.302 -1.66347 -2.48936 0
M  V30 6454 H 619.848 -0.801261 -1.19649 0
M  V30 6455 H 621.801 0.0586375 -4.21359 0
M  V30 6456 H 620.525 0.747485 -3.17931 0
M  V30 6457 H 619.184 -1.37369 -3.3989 0
M  V30 6458 H 618.832 0.511747 -5.0039 0
M  V30 6459 H 618.532 -1.06403 -5.77886 0
M  V30 6460 H 620.056 -0.189772 -6.10305 0
M  V30 6461 H 621.47 -2.29618 -5.25308 0
M  V30 6462 H 619.867 -3.08062 -5.14993 0
M  V30 6463 H 620.937 -3.09062 -3.73642 0
M  V30 6464 N 622.28 1.30327 -0.886154 0
M  V30 6465 C 623.557 1.90922 -0.425217 0
M  V30 6466 C 623.937 1.80533 1.09413 0
M  V30 6467 O 623.285 1.2233 1.92996 0
M  V30 6468 C 623.495 3.36529 -0.924638 0
M  V30 6469 C 624.843 4.13598 -0.960305 0
M  V30 6470 O 625.867 3.45377 -0.871382 0
M  V30 6471 O 624.726 5.35482 -1.09184 0
M  V30 6472 H 621.82 0.81668 -0.130238 0
M  V30 6473 H 624.366 1.38886 -0.975132 0
M  V30 6474 H 623.138 3.38181 -1.96849 0
M  V30 6475 H 622.761 3.96021 -0.353955 0
M  V30 6476 N 623.758 0.647228 1.43697 0
M  V30 6477 C 624.983 0.164083 2.0675 0
M  V30 6478 C 625.408 -1.15892 1.48158 0
M  V30 6479 O 624.766 -1.71459 0.589194 0
M  V30 6480 C 624.814 0.0800368 3.60511 0
M  V30 6481 O 623.918 -0.959453 4.01084 0
M  V30 6482 H 623.259 0.0921288 0.657578 0
M  V30 6483 H 625.789 0.88846 1.84303 0
M  V30 6484 H 625.799 -0.105263 4.07864 0
M  V30 6485 H 624.474 1.04586 4.02535 0
M  V30 6486 H 623.051 -0.747425 3.65333 0
M  V30 6487 N 625.236 -1.5273 0.388769 0
M  V30 6488 C 626.199 -2.25043 -0.434544 0
M  V30 6489 C 627.199 -1.26661 -0.990644 0
M  V30 6490 O 628.389 -1.50762 -0.872731 0
M  V30 6491 C 625.521 -3.00507 -1.60961 0
M  V30 6492 H 626.714 -2.99242 0.198549 0
M  V30 6493 H 624.267 -1.55664 0.140875 0
M  V30 6494 H 625.002 -2.30607 -2.28015 0
M  V30 6495 H 624.787 -3.72716 -1.21757 0
M  V30 6496 H 626.277 -3.55413 -2.19251 0
M  V30 6497 N 626.714 -0.118576 -1.57153 0
M  V30 6498 C 627.962 0.538461 -1.94795 0
M  V30 6499 C 628.283 1.67243 -1.00274 0
M  V30 6500 O 627.553 1.95811 -0.0589692 0
M  V30 6501 H 626.133 0.201904 -0.719197 0
M  V30 6502 H 628.795 -0.187418 -1.93997 0
M  V30 6503 H 627.891 0.933315 -2.97818 0
M  V30 6504 N 628.193 1.56834 0.155195 0
M  V30 6505 C 629.156 1.96748 1.17571 0
M  V30 6506 C 630.156 0.853006 1.3631 0
M  V30 6507 O 631.346 1.11978 1.33441 0
M  V30 6508 C 628.478 2.27631 2.53765 0
M  V30 6509 H 629.671 2.88085 0.833498 0
M  V30 6510 H 627.224 1.51141 0.398242 0
M  V30 6511 H 627.959 1.39059 2.92973 0
M  V30 6512 H 627.744 3.0888 2.41527 0
M  V30 6513 H 629.234 2.59377 3.27282 0
M  V30 6514 N 629.671 -0.424282 1.51781 0
M  V30 6515 C 630.581 -1.54087 1.76902 0
M  V30 6516 C 631.597 -1.61249 0.653826 0
M  V30 6517 O 632.773 -1.78247 0.937552 0
M  V30 6518 C 629.838 -2.8996 1.90063 0
M  V30 6519 C 628.899 -2.92809 3.13945 0
M  V30 6520 C 628.132 -4.22201 3.26469 0
M  V30 6521 O 628.355 -5.15286 2.44616 0
M  V30 6522 O 627.289 -4.31599 4.1953 0
M  V30 6523 H 631.115 -1.358 2.71647 0
M  V30 6524 H 628.7 -0.608618 1.36441 0
M  V30 6525 H 630.582 -3.70575 2.0063 0
M  V30 6526 H 629.257 -3.08347 0.985067 0
M  V30 6527 H 628.164 -2.11102 3.08847 0
M  V30 6528 H 629.497 -2.79369 4.05233 0
M  V30 6529 N 631.149 -1.42148 -0.680565 0
M  V30 6530 C 632.56 -1.3768 -1.26099 0
M  V30 6531 C 632.911 -0.0672348 -1.96085 0
M  V30 6532 O 632.036 0.834172 -1.99676 0
M  V30 6533 C 632.631 -2.49387 -2.29328 0
M  V30 6534 C 631.19 -2.4827 -2.82911 0
M  V30 6535 C 630.337 -2.2847 -1.57152 0
M  V30 6536 H 633.288 -1.51446 -0.474326 0
M  V30 6537 H 633.309 -2.19307 -3.10941 0
M  V30 6538 H 632.821 -3.44686 -1.78363 0
M  V30 6539 H 630.922 -1.56773 -3.38013 0
M  V30 6540 H 631.035 -3.45109 -3.3232 0
M  V30 6541 H 629.399 -1.76623 -1.83511 0
M  V30 6542 H 630.182 -3.25816 -1.0816 0
M  V30 6543 N 632.627 0.916307 -1.28225 0
M  V30 6544 C 633.56 2.01954 -1.06254 0
M  V30 6545 C 634.538 1.62587 0.0205983 0
M  V30 6546 O 635.722 1.88073 -0.126824 0
M  V30 6547 C 632.849 3.33086 -0.614141 0
M  V30 6548 C 631.895 3.91435 -1.69354 0
M  V30 6549 S 632.728 4.22603 -3.28887 0
M  V30 6550 C 633.884 5.568 -2.85876 0
M  V30 6551 H 634.117 2.20281 -1.99659 0
M  V30 6552 H 631.65 1.06085 -1.12184 0
M  V30 6553 H 633.608 4.089 -0.36213 0
M  V30 6554 H 632.269 3.12664 0.300036 0
M  V30 6555 H 631.462 4.86098 -1.33136 0
M  V30 6556 H 631.064 3.22248 -1.89821 0
M  V30 6557 H 633.356 6.3658 -2.31888 0
M  V30 6558 H 634.299 5.97927 -3.79326 0
M  V30 6559 H 634.707 5.17865 -2.24669 0
M  V30 6560 N 634.105 1.10431 1.1244 0
M  V30 6561 C 635.516 0.864439 1.65482 0
M  V30 6562 C 635.867 -0.60527 1.8663 0
M  V30 6563 O 634.992 -1.46492 1.59276 0
M  V30 6564 C 635.587 1.56267 3.0061 0
M  V30 6565 C 634.146 1.3695 3.50602 0
M  V30 6566 C 633.293 1.61209 2.25626 0
M  V30 6567 H 636.244 1.26203 0.962209 0
M  V30 6568 H 636.265 1.00166 3.67079 0
M  V30 6569 H 635.777 2.63231 2.85186 0
M  V30 6570 H 633.878 0.321481 3.71211 0
M  V30 6571 H 633.991 2.11143 4.30064 0
M  V30 6572 H 632.355 1.03482 2.32731 0
M  V30 6573 H 633.138 2.69425 2.12756 0
M  V30 6574 N 635.583 -1.29855 0.893053 0
M  V30 6575 C 636.831 -1.9544 0.514566 0
M  V30 6576 C 637.152 -1.70795 -0.940959 0
M  V30 6577 O 636.422 -1.03601 -1.66264 0
M  V30 6578 H 635.002 -0.723137 0.187302 0
M  V30 6579 H 637.664 -1.58234 1.13789 0
M  V30 6580 H 636.76 -3.04341 0.691581 0
M  V30 6581 N 637.061 -0.65484 -1.43351 0
M  V30 6582 C 637.971 0.0363603 -2.34572 0
M  V30 6583 C 638.987 0.810432 -1.53974 0
M  V30 6584 O 640.163 0.757308 -1.86619 0
M  V30 6585 C 637.228 0.989733 -3.32273 0
M  V30 6586 C 636.289 0.212414 -4.28774 0
M  V30 6587 C 635.522 1.12038 -5.21808 0
M  V30 6588 O 635.745 2.35967 -5.19303 0
M  V30 6589 O 634.679 0.59191 -5.98982 0
M  V30 6590 H 638.505 -0.714527 -2.95175 0
M  V30 6591 H 636.09 -0.415029 -1.4352 0
M  V30 6592 H 637.972 1.53759 -3.92347 0
M  V30 6593 H 636.647 1.72082 -2.74171 0
M  V30 6594 H 635.554 -0.379062 -3.72175 0
M  V30 6595 H 636.887 -0.479138 -4.89862 0
M  V30 6596 N 638.539 1.52521 -0.396863 0
M  V30 6597 C 639.486 2.26671 0.434624 0
M  V30 6598 C 640.456 1.28584 1.05144 0
M  V30 6599 O 641.641 1.57426 1.07804 0
M  V30 6600 C 638.781 3.08234 1.55196 0
M  V30 6601 C 637.894 4.21261 0.957262 0
M  V30 6602 C 637.029 4.90205 2.04627 0
M  V30 6603 C 636.068 5.95213 1.42787 0
M  V30 6604 N 635.205 6.57723 2.45651 0
M  V30 6605 H 640.045 2.973 -0.204139 0
M  V30 6606 H 637.582 1.46669 -0.112505 0
M  V30 6607 H 639.54 3.53819 2.2106 0
M  V30 6608 H 638.17 2.398 2.16092 0
M  V30 6609 H 637.222 3.79935 0.188005 0
M  V30 6610 H 638.534 4.96624 0.465416 0
M  V30 6611 H 637.688 5.39133 2.78246 0
M  V30 6612 H 636.427 4.14383 2.57174 0
M  V30 6613 H 635.432 5.45616 0.676968 0
M  V30 6614 H 636.657 6.72972 0.910255 0
M  V30 6615 H 634.603 5.84737 2.97353 0
M  V30 6616 H 634.52 7.28723 2.01243 0
M  V30 6617 H 635.788 7.11293 3.18876 0
M  V30 6618 N 640.017 0.126909 1.57088 0
M  V30 6619 C 641.433 -0.229641 1.57939 0
M  V30 6620 C 641.633 -1.66145 1.1401 0
M  V30 6621 O 640.689 -2.3843 0.831119 0
M  V30 6622 C 642.002 0.0108648 3.00698 0
M  V30 6623 C 643.55 -0.054418 3.12953 0
M  V30 6624 C 644.025 0.158497 4.57726 0
M  V30 6625 N 645.516 0.104735 4.63082 0
M  V30 6626 C 646.251 0.24427 5.72879 0
M  V30 6627 N 645.747 0.440415 6.91399 0
M  V30 6628 N 647.54 0.183286 5.61801 0
M  V30 6629 H 639.691 1.06203 1.83942 0
M  V30 6630 H 641.954 0.418834 0.85046 0
M  V30 6631 H 641.66 1.00102 3.37154 0
M  V30 6632 H 641.534 -0.717512 3.70313 0
M  V30 6633 H 643.921 -1.0351 2.7635 0
M  V30 6634 H 644.002 0.705967 2.45865 0
M  V30 6635 H 643.646 1.13619 4.95028 0
M  V30 6636 H 643.576 -0.62197 5.22914 0
M  V30 6637 H 646.067 -0.0430298 3.77876 0
M  V30 6638 H 646.38 0.537536 7.70928 0
M  V30 6639 H 644.725 0.476488 6.93365 0
M  V30 6640 H 647.916 0.0309561 4.6809 0
M  V30 6641 H 648.089 0.295471 6.47326 0
M  V30 6642 N 641.495 -1.56914 -0.146875 0
M  V30 6643 C 642.723 -1.87515 -0.874394 0
M  V30 6644 C 643.138 -0.715116 -1.74733 0
M  V30 6645 O 642.495 0.315113 -1.79759 0
M  V30 6646 C 642.546 -3.17362 -1.731 0
M  V30 6647 O 642.267 -4.28897 -0.893245 0
M  V30 6648 C 643.768 -3.61479 -2.56609 0
M  V30 6649 H 640.988 -0.621546 -0.252827 0
M  V30 6650 H 643.532 -2.04023 -0.139627 0
M  V30 6651 H 641.687 -3.02608 -2.41883 0
M  V30 6652 H 642.101 -5.03146 -1.48137 0
M  V30 6653 H 643.575 -4.5517 -3.12289 0
M  V30 6654 H 644.052 -2.86773 -3.32653 0
M  V30 6655 H 644.658 -3.78927 -1.93117 0
M  V30 6656 N 642.974 0.416227 -1.52004 0
M  V30 6657 C 643.904 1.51365 -1.77795 0
M  V30 6658 C 644.885 1.58059 -0.628601 0
M  V30 6659 O 646.07 1.73447 -0.873478 0
M  V30 6660 C 643.2 2.89256 -1.92219 0
M  V30 6661 C 642.154 2.97415 -3.0778 0
M  V30 6662 C 641.48 4.37492 -3.07417 0
M  V30 6663 C 642.78 2.69551 -4.47369 0
M  V30 6664 H 644.474 1.30033 -2.69688 0
M  V30 6665 H 642.02 0.624112 -1.29772 0
M  V30 6666 H 643.973 3.66008 -2.08845 0
M  V30 6667 H 642.697 3.11866 -0.969917 0
M  V30 6668 H 641.356 2.23107 -2.90893 0
M  V30 6669 H 641.004 4.571 -2.09925 0
M  V30 6670 H 640.704 4.43877 -3.85029 0
M  V30 6671 H 642.228 5.16188 -3.26162 0
M  V30 6672 H 643.642 3.36028 -4.64497 0
M  V30 6673 H 642.039 2.87321 -5.26846 0
M  V30 6674 H 643.109 1.65029 -4.55953 0
M  V30 6675 N 644.452 1.42507 0.673017 0
M  V30 6676 C 645.863 1.38347 1.25367 0
M  V30 6677 C 646.214 0.0776327 1.96046 0
M  V30 6678 O 645.339 -0.823571 2.00116 0
M  V30 6679 C 645.934 2.506 2.28002 0
M  V30 6680 C 644.493 2.49767 2.81591 0
M  V30 6681 C 643.64 2.293 1.55938 0
M  V30 6682 H 646.591 1.51695 0.466288 0
M  V30 6683 H 646.612 2.20953 3.09774 0
M  V30 6684 H 646.124 3.45627 1.76532 0
M  V30 6685 H 644.225 1.58563 3.37177 0
M  V30 6686 H 644.338 3.46867 3.30485 0
M  V30 6687 H 642.702 1.77594 1.82572 0
M  V30 6688 H 643.485 3.26385 1.06431 0
M  V30 6689 N 645.93 -0.909495 1.28709 0
M  V30 6690 C 646.84 -2.04558 1.14861 0
M  V30 6691 C 647.856 -1.73842 0.0741621 0
M  V30 6692 O 649.032 -1.99383 0.2843 0
M  V30 6693 C 646.097 -3.36957 0.816148 0
M  V30 6694 C 645.158 -3.81255 1.97341 0
M  V30 6695 C 644.391 -5.07335 1.65671 0
M  V30 6696 O 644.614 -5.67514 0.573053 0
M  V30 6697 O 643.548 -5.47449 2.50167 0
M  V30 6698 H 647.374 -2.19161 2.10243 0
M  V30 6699 H 644.959 -1.03159 1.08068 0
M  V30 6700 H 646.841 -4.16436 0.644873 0
M  V30 6701 H 645.516 -3.2352 -0.107983 0
M  V30 6702 H 644.423 -3.02584 2.19986 0
M  V30 6703 H 645.756 -3.99261 2.87839 0
M  V30 6704 N 647.408 -1.11026 -1.11852 0
M  V30 6705 C 648.356 -0.759643 -2.19846 0
M  V30 6706 C 649.35 0.246964 -1.6759 0
M  V30 6707 O 650.556 0.106693 -1.79684 0
M  V30 6708 H 646.931 -0.22775 -0.716683 0
M  V30 6709 H 648.902 -1.6792 -2.46669 0
M  V30 6710 C 647.651 -0.214364 -3.47039 0
M  V30 6711 H 646.974 -0.980175 -3.87599 0
M  V30 6712 H 648.414 -0.00717047 -4.23999 0
M  V30 6713 C 646.873 1.05436 -3.19976 0
M  V30 6714 O 647.403 2.13483 -3.40276 0
M  V30 6715 N 645.609 0.975436 -2.7374 0
M  V30 6716 H 645.156 0.0960853 -2.57421 0
M  V30 6717 H 645.114 1.82501 -2.5601 0
M  V30 6718 N 648.886 1.2938 -0.899927 0
M  V30 6719 C 649.816 2.30144 -0.39446 0
M  V30 6720 C 650.797 1.61611 0.530639 0
M  V30 6721 O 651.982 1.89119 0.441319 0
M  V30 6722 C 649.112 3.45229 0.37868 0
M  V30 6723 C 648.066 4.25564 -0.456012 0
M  V30 6724 C 647.392 5.32848 0.444637 0
M  V30 6725 C 648.692 4.93651 -1.70605 0
M  V30 6726 H 650.386 2.72673 -1.23653 0
M  V30 6727 H 647.932 1.31086 -0.596034 0
M  V30 6728 H 649.885 4.14797 0.743037 0
M  V30 6729 H 648.609 3.01545 1.25453 0
M  V30 6730 H 647.268 3.57704 -0.802704 0
M  V30 6731 H 646.916 4.85408 1.31863 0
M  V30 6732 H 646.616 5.87497 -0.110154 0
M  V30 6733 H 648.14 6.05268 0.805182 0
M  V30 6734 H 649.554 5.55655 -1.41141 0
M  V30 6735 H 647.951 5.58233 -2.20217 0
M  V30 6736 H 649.021 4.18926 -2.4419 0
M  V30 6737 N 650.364 0.662433 1.43002 0
M  V30 6738 C 651.592 0.187615 2.06048 0
M  V30 6739 C 652.007 -1.15039 1.49705 0
M  V30 6740 O 651.364 -1.71209 0.631956 0
M  V30 6741 C 651.415 0.100498 3.6136 0
M  V30 6742 O 651.136 1.38562 4.15611 0
M  V30 6743 C 652.637 -0.399298 4.41498 0
M  V30 6744 H 649.857 0.0941675 0.664359 0
M  V30 6745 H 652.401 0.905681 1.83351 0
M  V30 6746 H 650.556 -0.568181 3.83211 0
M  V30 6747 H 650.97 1.25084 5.09366 0
M  V30 6748 H 652.444 -0.409187 5.50481 0
M  V30 6749 H 652.921 -1.43232 4.15188 0
M  V30 6750 H 653.527 0.23721 4.24638 0
M  V30 6751 N 651.842 -1.52309 0.404946 0
M  V30 6752 C 652.772 -2.29805 -0.41376 0
M  V30 6753 C 653.753 -1.3384 -1.0498 0
M  V30 6754 O 654.938 -1.62745 -1.05961 0
M  V30 6755 C 652.068 -3.11639 -1.53292 0
M  V30 6756 C 651.022 -4.15616 -1.02211 0
M  V30 6757 C 650.348 -4.8577 -2.23455 0
M  V30 6758 C 651.648 -5.2224 -0.0790725 0
M  V30 6759 H 653.342 -2.98493 0.232878 0
M  V30 6760 H 650.888 -1.43552 0.113441 0
M  V30 6761 H 652.841 -3.64618 -2.11262 0
M  V30 6762 H 651.565 -2.40712 -2.20738 0
M  V30 6763 H 650.224 -3.63641 -0.46484 0
M  V30 6764 H 649.872 -4.11376 -2.89445 0
M  V30 6765 H 649.572 -5.56058 -1.89929 0
M  V30 6766 H 651.096 -5.4156 -2.82038 0
M  V30 6767 H 652.51 -5.70485 -0.567438 0
M  V30 6768 H 650.907 -5.99867 0.167167 0
M  V30 6769 H 651.977 -4.77078 0.867447 0
M  V30 6770 N 653.32 -0.135238 -1.57019 0
M  V30 6771 C 654.23 0.822226 -2.19719 0
M  V30 6772 C 655.246 1.28057 -1.17802 0
M  V30 6773 O 656.422 1.3402 -1.50335 0
M  V30 6774 C 653.487 2.0484 -2.79717 0
M  V30 6775 C 652.548 1.64042 -3.96723 0
M  V30 6776 C 651.781 2.80814 -4.53849 0
M  V30 6777 O 652.004 3.967 -4.0986 0
M  V30 6778 O 650.938 2.56963 -5.44292 0
M  V30 6779 H 654.764 0.318552 -3.02025 0
M  V30 6780 H 652.349 0.0912021 -1.49121 0
M  V30 6781 H 654.231 2.76622 -3.17897 0
M  V30 6782 H 652.906 2.54182 -2.00432 0
M  V30 6783 H 651.813 0.893182 -3.63281 0
M  V30 6784 H 653.146 1.19426 -4.77492 0
M  V30 6785 N 654.798 1.5699 0.138552 0
M  V30 6786 C 656.075 1.74741 0.87891 0
M  V30 6787 C 656.455 0.705522 1.98961 0
M  V30 6788 O 655.803 -0.274066 2.2685 0
M  V30 6789 C 656.013 3.1909 1.4136 0
M  V30 6790 C 657.361 3.81023 1.87368 0
M  V30 6791 O 658.385 3.22571 1.51084 0
M  V30 6792 O 657.244 4.83722 2.54312 0
M  V30 6793 H 654.338 0.714781 0.415953 0
M  V30 6794 H 656.884 1.69248 0.123817 0
M  V30 6795 H 655.656 3.86424 0.61579 0
M  V30 6796 H 655.279 3.29043 2.23196 0
M  V30 6797 N 656.276 -0.40816 1.52223 0
M  V30 6798 C 657.239 -1.48 1.7501 0
M  V30 6799 C 658.239 -1.48367 0.619996 0
M  V30 6800 O 659.429 -1.49874 0.887881 0
M  V30 6801 C 656.561 -2.87403 1.83336 0
M  V30 6802 H 657.754 -1.29086 2.70697 0
M  V30 6803 H 655.307 -0.638715 1.42654 0
M  V30 6804 H 656.042 -3.11686 0.895677 0
M  V30 6805 H 655.827 -2.8854 2.65494 0
M  V30 6806 H 657.317 -3.65103 2.02705 0
M  V30 6807 N 657.755 -1.42862 -0.66545 0
M  V30 6808 C 658.702 -1.4707 -1.77874 0
M  V30 6809 C 659.672 -0.321654 -1.62956 0
M  V30 6810 O 660.857 -0.52707 -1.83376 0
M  V30 6811 C 657.997 -1.38788 -3.15962 0
M  V30 6812 C 657.11 -2.63801 -3.42101 0
M  V30 6813 C 656.245 -2.47594 -4.69969 0
M  V30 6814 C 655.284 -3.67936 -4.89172 0
M  V30 6815 N 654.421 -3.50614 -6.08288 0
M  V30 6816 H 659.261 -2.42204 -1.73613 0
M  V30 6817 H 656.798 -1.20239 -0.847401 0
M  V30 6818 H 658.756 -1.31982 -3.95773 0
M  V30 6819 H 657.386 -0.472431 -3.19324 0
M  V30 6820 H 656.438 -2.80935 -2.56475 0
M  V30 6821 H 657.75 -3.53228 -3.52181 0
M  V30 6822 H 656.904 -2.38427 -5.57886 0
M  V30 6823 H 655.643 -1.55672 -4.62188 0
M  V30 6824 H 654.648 -3.77525 -3.99694 0
M  V30 6825 H 655.873 -4.60851 -4.98792 0
M  V30 6826 H 653.819 -2.61417 -6.01662 0
M  V30 6827 H 653.736 -4.33634 -6.19272 0
M  V30 6828 H 655.004 -3.45276 -6.98859 0
M  V30 6829 N 659.233 0.902656 -1.29189 0
M  V30 6830 C 660.649 1.18296 -1.07137 0
M  V30 6831 C 660.849 2.00701 0.179223 0
M  V30 6832 O 659.905 2.3675 0.877812 0
M  V30 6833 C 661.218 1.90677 -2.32514 0
M  V30 6834 C 662.766 2.03515 -2.37804 0
M  V30 6835 C 663.241 2.79307 -3.62976 0
M  V30 6836 N 664.732 2.86862 -3.63681 0
M  V30 6837 C 665.467 3.46035 -4.57217 0
M  V30 6838 N 664.963 4.06399 -5.61081 0
M  V30 6839 N 666.756 3.43681 -4.44792 0
M  V30 6840 H 658.907 0.352765 -2.0945 0
M  V30 6841 H 661.17 0.21876 -0.922414 0
M  V30 6842 H 660.876 1.3756 -3.23682 0
M  V30 6843 H 660.75 2.91169 -2.39793 0
M  V30 6844 H 663.137 2.55809 -1.47125 0
M  V30 6845 H 663.218 1.02166 -2.34512 0
M  V30 6846 H 662.862 2.2769 -4.54004 0
M  V30 6847 H 662.792 3.80995 -3.63525 0
M  V30 6848 H 665.283 2.43987 -2.88581 0
M  V30 6849 H 665.596 4.49564 -6.2858 0
M  V30 6850 H 663.941 4.0487 -5.64894 0
M  V30 6851 H 667.132 2.9574 -3.62843 0
M  V30 6852 H 667.305 3.89503 -5.17872 0
M  V30 6853 N 660.711 1.11618 1.11262 0
M  V30 6854 C 661.641 0.79846 2.19424 0
M  V30 6855 C 662.622 -0.234003 1.68483 0
M  V30 6856 O 663.807 -0.0970704 1.93957 0
M  V30 6857 C 660.937 0.242892 3.4645 0
M  V30 6858 C 659.891 1.20744 4.10615 0
M  V30 6859 C 659.217 0.512494 5.32238 0
M  V30 6860 C 660.517 2.55884 4.55325 0
M  V30 6861 H 662.211 1.70286 2.46258 0
M  V30 6862 H 659.757 0.820195 1.18359 0
M  V30 6863 H 661.71 0.00840447 4.21399 0
M  V30 6864 H 660.434 -0.696811 3.1908 0
M  V30 6865 H 659.093 1.42759 3.37662 0
M  V30 6866 H 658.741 -0.432075 5.01141 0
M  V30 6867 H 658.441 1.15583 5.7612 0
M  V30 6868 H 659.965 0.286842 6.09926 0
M  V30 6869 H 661.379 2.37946 5.21588 0
M  V30 6870 H 659.776 3.16216 5.10027 0
M  V30 6871 H 660.846 3.14968 3.68678 0
M  V30 6872 N 662.189 -1.289 0.906776 0
M  V30 6873 C 663.605 -1.47733 0.603902 0
M  V30 6874 C 663.805 -1.82568 -0.852702 0
M  V30 6875 O 662.861 -1.92642 -1.63234 0
M  V30 6876 C 664.174 -2.58522 1.53581 0
M  V30 6877 C 665.722 -2.72394 1.54177 0
M  V30 6878 C 666.197 -3.86318 2.46013 0
M  V30 6879 N 667.688 -3.93661 2.441 0
M  V30 6880 C 668.423 -4.81177 3.11859 0
M  V30 6881 N 667.919 -5.73333 3.88923 0
M  V30 6882 N 669.712 -4.74728 3.00981 0
M  V30 6883 H 661.863 -1.04567 1.84877 0
M  V30 6884 H 664.126 -0.520118 0.792579 0
M  V30 6885 H 663.832 -2.39667 2.57396 0
M  V30 6886 H 663.706 -3.55475 1.26165 0
M  V30 6887 H 666.093 -2.90641 0.511034 0
M  V30 6888 H 666.174 -1.75993 1.85634 0
M  V30 6889 H 665.818 -3.68826 3.49185 0
M  V30 6890 H 665.748 -4.82102 2.11862 0
M  V30 6891 H 668.239 -3.27751 1.88115 0
M  V30 6892 H 668.552 -6.36923 4.37663 0
M  V30 6893 H 666.897 -5.73196 3.93029 0
M  V30 6894 H 670.088 -4.01722 2.40286 0
M  V30 6895 H 670.261 -5.42719 3.54062 0
M  V30 6896 N 663.667 -0.670007 -1.42649 0
M  V30 6897 C 664.913 -0.190568 -2.01903 0
M  V30 6898 C 665.246 1.19817 -1.52832 0
M  V30 6899 O 664.521 1.80342 -0.728485 0
M  V30 6900 C 664.804 -0.21991 -3.59428 0
M  V30 6901 C 664.657 -1.64376 -4.18689 0
M  V30 6902 C 665.976 0.434519 -4.3795 0
M  V30 6903 H 663.095 -0.0707219 -0.733599 0
M  V30 6904 H 665.737 -0.853883 -1.69732 0
M  V30 6905 H 663.887 0.344894 -3.86966 0
M  V30 6906 H 665.559 -2.26044 -4.02122 0
M  V30 6907 H 663.802 -2.18591 -3.747 0
M  V30 6908 H 664.473 -1.61601 -5.27815 0
M  V30 6909 H 666.949 -0.0462156 -4.16074 0
M  V30 6910 H 665.825 0.38333 -5.4756 0
M  V30 6911 H 666.086 1.51135 -4.15464 0
M  V30 6912 N 665.145 1.52092 -0.413018 0
M  V30 6913 C 666.078 2.23613 0.455234 0
M  V30 6914 C 667.056 1.2459 1.04481 0
M  V30 6915 O 668.24 1.53653 1.09193 0
M  V30 6916 C 665.367 2.96775 1.63224 0
M  V30 6917 C 664.413 4.10261 1.16568 0
M  V30 6918 S 665.246 5.35348 0.127633 0
M  V30 6919 C 666.402 6.1204 1.30987 0
M  V30 6920 H 666.635 2.96911 -0.152042 0
M  V30 6921 H 664.168 1.53134 -0.197343 0
M  V30 6922 H 666.126 3.39532 2.30713 0
M  V30 6923 H 664.787 2.23113 2.21087 0
M  V30 6924 H 663.98 4.6064 2.04515 0
M  V30 6925 H 663.582 3.6964 0.569386 0
M  V30 6926 H 665.874 6.39651 2.23276 0
M  V30 6927 H 666.817 7.03022 0.846533 0
M  V30 6928 H 667.225 5.43161 1.53743 0
M  V30 6929 N 666.623 0.143563 1.56945 0
M  V30 6930 C 667.871 -0.507402 1.95627 0
M  V30 6931 C 668.192 -1.65626 1.02922 0
M  V30 6932 O 667.462 -1.95693 0.0901136 0
M  V30 6933 H 666.042 -0.190436 0.722318 0
M  V30 6934 H 668.704 0.218257 1.93674 0
M  V30 6935 H 667.8 -0.885816 2.99265 0
M  V30 6936 N 668.101 -1.57061 -0.130224 0
M  V30 6937 C 669.378 -1.75205 -0.869631 0
M  V30 6938 C 669.758 -0.716063 -1.98584 0
M  V30 6939 O 669.106 0.262032 -2.26993 0
M  V30 6940 C 669.316 -3.19835 -1.39666 0
M  V30 6941 C 670.664 -3.82011 -1.85345 0
M  V30 6942 O 671.688 -3.23368 -1.49371 0
M  V30 6943 O 670.547 -4.85064 -2.51744 0
M  V30 6944 H 667.641 -0.716977 -0.412157 0
M  V30 6945 H 670.187 -1.69311 -0.11484 0
M  V30 6946 H 668.959 -3.86745 -0.595288 0
M  V30 6947 H 668.582 -3.30222 -2.21448 0
M  V30 6948 N 669.579 0.400081 -1.52437 0
M  V30 6949 C 670.828 1.14332 -1.66166 0
M  V30 6950 C 671.141 1.91419 -0.402253 0
M  V30 6951 O 672.347 2.6824 -0.419487 0
M  V30 6952 C 670.803 2.08137 -2.9361 0
M  V30 6953 C 670.411 1.36524 -4.26691 0
M  V30 6954 C 672.155 2.82664 -3.16703 0
M  V30 6955 C 670.062 2.29031 -5.45251 0
M  V30 6956 H 668.992 0.430499 -0.61902 0
M  V30 6957 H 671.643 0.407017 -1.78929 0
M  V30 6958 H 670.025 2.85358 -2.74567 0
M  V30 6959 H 671.199 0.646061 -4.56249 0
M  V30 6960 H 669.514 0.74002 -4.09771 0
M  V30 6961 H 672.111 3.52037 -4.0246 0
M  V30 6962 H 672.454 3.46122 -2.31312 0
M  V30 6963 H 672.987 2.12541 -3.36261 0
M  V30 6964 H 669.726 1.70206 -6.33017 0
M  V30 6965 H 669.246 2.98896 -5.2002 0
M  V30 6966 H 670.925 2.89359 -5.78689 0
M  V30 6967 N 671.057 1.43213 0.657864 0
M  V30 6968 C 672.468 1.39669 1.23893 0
M  V30 6969 C 672.819 0.0984217 1.95953 0
M  V30 6970 O 671.944 -0.8023 2.00978 0
M  V30 6971 C 672.539 2.53004 2.25332 0
M  V30 6972 C 671.098 2.5274 2.78926 0
M  V30 6973 C 670.245 2.30941 1.53497 0
M  V30 6974 H 673.196 1.52181 0.450172 0
M  V30 6975 H 673.217 2.24226 3.07413 0
M  V30 6976 H 672.729 3.4748 1.72856 0
M  V30 6977 H 670.83 1.6213 3.35477 0
M  V30 6978 H 670.943 3.50352 3.26787 0
M  V30 6979 H 669.307 1.7952 1.80678 0
M  V30 6980 H 670.09 3.27496 1.02963 0
M  V30 6981 N 672.536 -0.895792 1.29666 0
M  V30 6982 C 673.469 -2.00238 1.09453 0
M  V30 6983 C 674.447 -1.62599 0.00527044 0
M  V30 6984 O 675.631 -1.87847 0.156729 0
M  V30 6985 C 672.758 -3.32066 0.667054 0
M  V30 6986 C 671.804 -3.88691 1.7556 0
M  V30 6987 S 672.637 -4.17317 3.35569 0
M  V30 6988 C 673.793 -5.52181 2.94698 0
M  V30 6989 H 674.026 -2.17076 2.03138 0
M  V30 6990 H 671.559 -1.04287 1.13858 0
M  V30 6991 H 673.517 -4.08272 0.427136 0
M  V30 6992 H 672.178 -3.13101 -0.250256 0
M  V30 6993 H 671.371 -4.83918 1.40853 0
M  V30 6994 H 670.973 -3.19187 1.94924 0
M  V30 6995 H 673.265 -6.3281 2.41986 0
M  V30 6996 H 674.208 -5.91817 3.88791 0
M  V30 6997 H 674.616 -5.14225 2.32879 0
M  V30 6998 N 674.014 -1.12206 -1.10668 0
M  V30 6999 C 674.924 -0.800686 -2.20513 0
M  V30 7000 C 675.94 0.209512 -1.72734 0
M  V30 7001 O 677.116 0.043705 -2.01353 0
M  V30 7002 C 674.181 -0.257353 -3.45744 0
M  V30 7003 C 673.242 -1.32718 -4.0827 0
M  V30 7004 C 672.475 -0.809674 -5.27522 0
M  V30 7005 O 672.698 0.35742 -5.69279 0
M  V30 7006 O 671.632 -1.57816 -5.80842 0
M  V30 7007 H 675.458 -1.71807 -2.50432 0
M  V30 7008 H 673.043 -0.898546 -1.19359 0
M  V30 7009 H 674.925 0.0408849 -4.2138 0
M  V30 7010 H 673.6 0.632627 -3.17458 0
M  V30 7011 H 672.507 -1.67855 -3.34329 0
M  V30 7012 H 673.84 -2.19083 -4.40753 0
M  V30 7013 N 675.492 1.28418 -0.913599 0
M  V30 7014 C 676.422 2.29713 -0.418847 0
M  V30 7015 C 677.403 1.62165 0.513469 0
M  V30 7016 O 678.588 1.89576 0.421235 0
M  V30 7017 C 675.718 3.45612 0.342042 0
M  V30 7018 C 674.672 4.25056 -0.501123 0
M  V30 7019 C 673.998 5.3329 0.388097 0
M  V30 7020 C 675.298 4.91814 -1.75831 0
M  V30 7021 H 676.992 2.71346 -1.26538 0
M  V30 7022 H 674.538 1.30446 -0.609903 0
M  V30 7023 H 676.491 4.15562 0.699 0
M  V30 7024 H 675.215 3.02858 1.22248 0
M  V30 7025 H 673.874 3.56833 -0.840598 0
M  V30 7026 H 673.522 4.8678 1.26707 0
M  V30 7027 H 673.222 5.87347 -0.172459 0
M  V30 7028 H 674.746 6.06088 0.74094 0
M  V30 7029 H 676.16 5.54126 -1.47026 0
M  V30 7030 H 674.557 5.55866 -2.26126 0
M  V30 7031 H 675.627 4.16313 -2.4862 0
M  V30 7032 N 676.97 0.677563 1.42291 0
M  V30 7033 C 678.216 0.201272 2.01799 0
M  V30 7034 C 678.549 -1.19004 1.53465 0
M  V30 7035 O 677.824 -1.79953 0.738039 0
M  V30 7036 C 678.107 0.238968 3.59306 0
M  V30 7037 C 677.96 1.66594 4.17812 0
M  V30 7038 C 679.279 -0.411287 4.38174 0
M  V30 7039 H 676.398 0.0746114 0.733214 0
M  V30 7040 H 679.04 0.862872 1.69276 0
M  V30 7041 H 677.19 -0.324368 3.87144 0
M  V30 7042 H 678.862 2.28173 4.00917 0
M  V30 7043 H 677.105 2.20576 3.73536 0
M  V30 7044 H 677.776 1.64398 5.26951 0
M  V30 7045 H 680.252 0.0682804 4.16044 0
M  V30 7046 H 679.128 -0.354286 5.47755 0
M  V30 7047 H 679.389 -1.4893 4.1626 0
M  V30 7048 N 678.448 -1.51871 0.421078 0
M  V30 7049 C 679.396 -2.28903 -0.413066 0
M  V30 7050 C 680.39 -1.3408 -1.03532 0
M  V30 7051 O 681.596 -1.5149 -0.972146 0
M  V30 7052 H 677.971 -0.736478 -0.152003 0
M  V30 7053 H 679.942 -2.97285 0.257695 0
M  V30 7054 C 678.691 -3.13156 -1.51091 0
M  V30 7055 H 678.014 -3.85997 -1.04145 0
M  V30 7056 H 679.454 -3.7014 -2.06814 0
M  V30 7057 C 677.913 -2.27482 -2.48503 0
M  V30 7058 O 678.443 -1.92325 -3.52667 0
M  V30 7059 N 676.649 -1.91019 -2.18998 0
M  V30 7060 H 676.196 -2.19808 -1.34322 0
M  V30 7061 H 676.154 -1.3399 -2.84419 0
M  V30 7062 N 679.926 -0.151884 -1.56866 0
M  V30 7063 C 680.836 0.798876 -2.20579 0
M  V30 7064 C 681.852 1.268 -1.19154 0
M  V30 7065 O 683.028 1.32418 -1.51748 0
M  V30 7066 C 680.093 2.01861 -2.81874 0
M  V30 7067 C 679.154 1.59825 -3.9844 0
M  V30 7068 C 678.387 2.75984 -4.56802 0
M  V30 7069 O 678.61 3.92331 -4.14044 0
M  V30 7070 O 677.544 2.51175 -5.46987 0
M  V30 7071 H 681.37 0.2865 -3.02346 0
M  V30 7072 H 678.955 0.0753806 -1.4921 0
M  V30 7073 H 680.837 2.73235 -3.20813 0
M  V30 7074 H 679.512 2.52042 -2.03117 0
M  V30 7075 H 678.419 0.854601 -3.64208 0
M  V30 7076 H 679.752 1.14355 -4.78731 0
M  V30 7077 N 681.404 1.57128 0.121893 0
M  V30 7078 C 682.65 1.84974 0.831418 0
M  V30 7079 C 682.983 0.737204 1.79663 0
M  V30 7080 O 682.258 -0.257199 1.92792 0
M  V30 7081 C 682.541 3.23397 1.58386 0
M  V30 7082 C 682.394 4.45246 0.638445 0
M  V30 7083 C 683.713 3.59355 2.54071 0
M  V30 7084 H 680.832 0.67282 0.300803 0
M  V30 7085 H 683.474 1.89759 0.0957587 0
M  V30 7086 H 681.624 3.19449 2.21098 0
M  V30 7087 H 683.296 4.61295 0.0203925 0
M  V30 7088 H 681.539 4.33771 -0.05023 0
M  V30 7089 H 682.21 5.38765 1.20151 0
M  V30 7090 H 684.686 3.64075 2.01465 0
M  V30 7091 H 683.562 4.57193 3.03752 0
M  V30 7092 H 683.823 2.86622 3.36601 0
M  V30 7093 N 682.882 -0.391992 1.52647 0
M  V30 7094 C 683.815 -1.50019 1.71958 0
M  V30 7095 C 684.793 -1.5238 0.567365 0
M  V30 7096 O 685.977 -1.70831 0.796806 0
M  V30 7097 C 683.104 -2.88496 1.77447 0
M  V30 7098 C 682.15 -3.03974 2.99169 0
M  V30 7099 S 682.983 -2.75487 4.59203 0
M  V30 7100 C 684.139 -4.16163 4.67503 0
M  V30 7101 H 684.372 -1.33413 2.65685 0
M  V30 7102 H 681.905 -0.584674 1.42902 0
M  V30 7103 H 683.863 -3.68296 1.81296 0
M  V30 7104 H 682.524 -3.02431 0.848188 0
M  V30 7105 H 681.717 -4.05328 2.99542 0
M  V30 7106 H 681.319 -2.32062 2.93297 0
M  V30 7107 H 683.611 -5.10048 4.45934 0
M  V30 7108 H 684.554 -4.20806 5.69498 0
M  V30 7109 H 684.962 -4.01933 3.96371 0
M  V30 7110 N 684.36 -1.4356 -0.65026 0
M  V30 7111 C 685.29 -1.51758 -1.77459 0
M  V30 7112 C 686.271 -0.372019 -1.65982 0
M  V30 7113 O 687.456 -0.589627 -1.85033 0
M  V30 7114 C 684.586 -1.44302 -3.15902 0
M  V30 7115 C 683.54 -2.57138 -3.42146 0
M  V30 7116 C 682.866 -2.34735 -4.8042 0
M  V30 7117 C 684.166 -3.99373 -3.36598 0
M  V30 7118 H 685.86 -2.45863 -1.70855 0
M  V30 7119 H 683.406 -1.18333 -0.820566 0
M  V30 7120 H 685.359 -1.48641 -3.94314 0
M  V30 7121 H 684.083 -0.467026 -3.23244 0
M  V30 7122 H 682.742 -2.52157 -2.66106 0
M  V30 7123 H 682.39 -1.35372 -4.84441 0
M  V30 7124 H 682.09 -3.10375 -4.9894 0
M  V30 7125 H 683.614 -2.40862 -5.61086 0
M  V30 7126 H 685.028 -4.05826 -4.04942 0
M  V30 7127 H 683.425 -4.75063 -3.66654 0
M  V30 7128 H 684.495 -4.243 -2.34729 0
M  V30 7129 N 685.838 0.888903 -1.30139 0
M  V30 7130 C 687.066 1.67358 -1.21651 0
M  V30 7131 C 687.481 1.87499 0.221246 0
M  V30 7132 O 686.838 1.41969 1.14677 0
M  V30 7133 C 686.889 3.05213 -1.93719 0
M  V30 7134 O 686.61 2.85984 -3.31881 0
M  V30 7135 C 688.111 3.9964 -1.9184 0
M  V30 7136 H 685.331 0.522365 -0.42116 0
M  V30 7137 H 687.875 1.11086 -1.71698 0
M  V30 7138 H 686.03 3.5823 -1.4748 0
M  V30 7139 H 686.444 3.73411 -3.68327 0
M  V30 7140 H 687.918 4.93749 -2.46811 0
M  V30 7141 H 688.395 4.29955 -0.896409 0
M  V30 7142 H 689.001 3.52558 -2.37872 0
M  V30 7143 N 687.317 1.12792 1.10072 0
M  V30 7144 C 688.566 0.880232 1.81479 0
M  V30 7145 C 688.879 -0.595575 1.86312 0
M  V30 7146 O 690.085 -0.959979 2.53962 0
M  V30 7147 C 688.541 1.52514 3.25987 0
M  V30 7148 C 688.149 3.036 3.29441 0
M  V30 7149 C 689.893 1.35788 4.02196 0
M  V30 7150 C 687.8 3.61007 4.68431 0
M  V30 7151 H 686.73 0.325654 0.680048 0
M  V30 7152 H 689.381 1.35485 1.23758 0
M  V30 7153 H 687.763 0.978188 3.83728 0
M  V30 7154 H 688.937 3.64819 2.81502 0
M  V30 7155 H 687.252 3.19765 2.66719 0
M  V30 7156 H 689.849 1.76096 5.0487 0
M  V30 7157 H 690.192 0.301972 4.15203 0
M  V30 7158 H 690.725 1.87426 3.50879 0
M  V30 7159 H 687.464 4.66375 4.60625 0
M  V30 7160 H 686.984 3.04564 5.16721 0
M  V30 7161 H 688.663 3.60289 5.37402 0
M  V30 7162 N 688.795 -1.27931 0.920396 0
M  V30 7163 C 690.023 -1.98805 0.573087 0
M  V30 7164 C 690.438 -1.68724 -0.847201 0
M  V30 7165 O 689.795 -0.943699 -1.56207 0
M  V30 7166 C 689.846 -3.52971 0.780633 0
M  V30 7167 O 689.567 -3.81994 2.14504 0
M  V30 7168 C 691.068 -4.411 0.44105 0
M  V30 7169 H 688.288 -0.634651 0.21785 0
M  V30 7170 H 690.832 -1.62965 1.23542 0
M  V30 7171 H 688.987 -3.87048 0.165204 0
M  V30 7172 H 689.401 -4.76609 2.18962 0
M  V30 7173 H 690.875 -5.48312 0.637006 0
M  V30 7174 H 691.352 -4.34758 -0.62306 0
M  V30 7175 H 691.958 -4.12532 1.0343 0
M  V30 7176 N 690.273 -0.685099 -1.4193 0
M  V30 7177 C 691.55 -0.140152 -1.95097 0
M  V30 7178 C 691.93 1.34745 -1.62502 0
M  V30 7179 O 691.278 2.08872 -0.926534 0
M  V30 7180 C 691.488 -0.420268 -3.4646 0
M  V30 7181 C 692.836 -0.342338 -4.23218 0
M  V30 7182 O 693.86 -0.354592 -3.54431 0
M  V30 7183 O 692.719 -0.293404 -5.45712 0
M  V30 7184 H 689.813 -0.00885998 -0.826953 0
M  V30 7185 H 692.359 -0.760539 -1.51703 0
M  V30 7186 H 691.131 -1.45037 -3.63428 0
M  V30 7187 H 690.754 0.231616 -3.96925 0
M  V30 7188 N 691.751 1.51645 -0.429126 0
M  V30 7189 C 693.162 1.86665 0.0359003 0
M  V30 7190 C 693.513 1.34677 1.42676 0
M  V30 7191 O 692.638 0.694195 2.04963 0
M  V30 7192 C 693.233 3.38724 0.0719221 0
M  V30 7193 C 691.792 3.7331 0.481336 0
M  V30 7194 C 690.939 2.75313 -0.331329 0
M  V30 7195 H 693.89 1.44987 -0.645333 0
M  V30 7196 H 693.911 3.7011 0.883118 0
M  V30 7197 H 693.423 3.76532 -0.940495 0
M  V30 7198 H 691.524 3.41088 1.49966 0
M  V30 7199 H 691.637 4.78631 0.211837 0
M  V30 7200 H 690.001 2.53839 0.209204 0
M  V30 7201 H 690.784 3.15963 -1.34247 0
M  V30 7202 N 693.229 0.160201 1.56784 0
M  V30 7203 C 694.192 -0.760405 2.16219 0
M  V30 7204 C 695.192 -1.16595 1.10735 0
M  V30 7205 O 696.382 -1.08472 1.36306 0
M  V30 7206 C 693.514 -2.03358 2.73603 0
M  V30 7207 H 694.707 -0.243173 2.98912 0
M  V30 7208 H 692.26 -0.0893139 1.56045 0
M  V30 7209 H 692.995 -2.59416 1.94612 0
M  V30 7210 H 692.78 -1.75186 3.50788 0
M  V30 7211 H 694.27 -2.69081 3.19351 0
M  V30 7212 N 694.707 -1.5719 -0.113559 0
M  V30 7213 C 695.67 -1.99796 -1.12314 0
M  V30 7214 C 696.67 -0.888847 -1.34001 0
M  V30 7215 O 697.86 -1.15476 -1.30426 0
M  V30 7216 C 694.992 -2.34279 -2.47641 0
M  V30 7217 H 696.185 -2.90193 -0.756825 0
M  V30 7218 H 693.738 -1.52144 -0.358029 0
M  V30 7219 H 694.473 -1.46778 -2.89183 0
M  V30 7220 H 694.258 -3.15175 -2.33253 0
M  V30 7221 H 695.748 -2.67963 -3.2029 0
M  V30 7222 N 696.185 0.383891 -1.52853 0
M  V30 7223 C 697.118 1.49105 -1.72751 0
M  V30 7224 C 698.096 1.52077 -0.575438 0
M  V30 7225 O 699.28 1.70406 -0.805854 0
M  V30 7226 C 696.407 2.87551 -1.78975 0
M  V30 7227 C 695.453 3.02383 -3.00777 0
M  V30 7228 S 696.286 2.73048 -4.60657 0
M  V30 7229 C 697.442 4.13678 -4.69704 0
M  V30 7230 H 697.675 1.32002 -2.66388 0
M  V30 7231 H 695.208 0.577088 -1.4321 0
M  V30 7232 H 697.166 3.6733 -1.83246 0
M  V30 7233 H 695.827 3.01977 -0.864215 0
M  V30 7234 H 695.02 4.03733 -3.01688 0
M  V30 7235 H 694.622 2.30504 -2.94523 0
M  V30 7236 H 696.914 5.07676 -4.48633 0
M  V30 7237 H 697.857 4.1778 -5.71721 0
M  V30 7238 H 698.265 3.99825 -3.98497 0
M  V30 7239 N 697.663 1.43903 0.642637 0
M  V30 7240 C 698.593 1.52697 1.76652 0
M  V30 7241 C 699.574 0.380816 1.65782 0
M  V30 7242 O 700.759 0.599432 1.84717 0
M  V30 7243 C 697.889 1.45975 3.15133 0
M  V30 7244 C 696.843 2.58949 3.40778 0
M  V30 7245 C 696.169 2.37279 4.79169 0
M  V30 7246 C 697.469 4.01153 3.34475 0
M  V30 7247 H 699.163 2.46766 1.69549 0
M  V30 7248 H 696.709 1.18767 0.814279 0
M  V30 7249 H 698.662 1.5073 3.93521 0
M  V30 7250 H 697.386 0.484162 3.22991 0
M  V30 7251 H 696.045 2.53564 2.64765 0
M  V30 7252 H 695.693 1.37939 4.83717 0
M  V30 7253 H 695.393 3.13016 4.97287 0
M  V30 7254 H 696.917 2.43834 5.59801 0
M  V30 7255 H 698.331 4.07968 4.02784 0
M  V30 7256 H 696.728 4.77001 3.64129 0
M  V30 7257 H 697.798 4.25539 2.32475 0
M  V30 7258 N 699.141 -0.881989 1.30609 0
M  V30 7259 C 700.389 -1.63082 1.19368 0
M  V30 7260 C 700.71 -1.93376 -0.251147 0
M  V30 7261 O 699.98 -1.5723 -1.16857 0
M  V30 7262 H 698.56 -0.604542 0.438791 0
M  V30 7263 H 701.222 -1.05658 1.63776 0
M  V30 7264 H 700.318 -2.57966 1.7567 0
M  V30 7265 N 700.619 -1.13374 -1.09472 0
M  V30 7266 C 702.03 -0.90801 -1.63132 0
M  V30 7267 C 702.381 0.555576 -1.8817 0
M  V30 7268 O 701.506 1.42218 -1.63104 0
M  V30 7269 C 702.101 -1.64182 -2.96361 0
M  V30 7270 C 700.66 -1.46197 -3.46848 0
M  V30 7271 C 699.807 -1.67134 -2.21273 0
M  V30 7272 H 702.758 -1.2871 -0.928411 0
M  V30 7273 H 702.779 -1.09863 -3.64294 0
M  V30 7274 H 702.291 -2.707 -2.78106 0
M  V30 7275 H 700.392 -0.419788 -3.70228 0
M  V30 7276 H 700.505 -2.22472 -4.24315 0
M  V30 7277 H 698.869 -1.09616 -2.29905 0
M  V30 7278 H 699.652 -2.74971 -2.05538 0
M  V30 7279 N 702.098 1.27442 -0.927168 0
M  V30 7280 C 703.008 2.30599 -0.431448 0
M  V30 7281 C 704.024 1.67028 0.48761 0
M  V30 7282 O 705.2 1.97962 0.370546 0
M  V30 7283 C 702.265 3.45327 0.308292 0
M  V30 7284 C 701.326 4.24418 -0.645615 0
M  V30 7285 C 700.559 5.33667 0.0589164 0
M  V30 7286 O 700.782 5.5589 1.27838 0
M  V30 7287 O 699.716 5.98774 -0.612638 0
M  V30 7288 H 703.542 2.75036 -1.28797 0
M  V30 7289 H 701.127 1.32382 -0.692495 0
M  V30 7290 H 703.009 4.15107 0.725555 0
M  V30 7291 H 701.684 3.02945 1.14043 0
M  V30 7292 H 700.591 3.57174 -1.11255 0
M  V30 7293 H 701.924 4.70512 -1.44496 0
M  V30 7294 N 703.576 0.692616 1.41565 0
M  V30 7295 C 704.804 0.231279 2.05603 0
M  V30 7296 C 705.219 -1.11837 1.52111 0
M  V30 7297 O 704.576 -1.6983 0.66813 0
M  V30 7298 C 704.627 0.177125 3.61066 0
M  V30 7299 O 704.348 1.47346 4.12578 0
M  V30 7300 C 705.849 -0.30556 4.42246 0
M  V30 7301 H 703.069 0.108238 0.662213 0
M  V30 7302 H 705.613 0.944369 1.81389 0
M  V30 7303 H 703.768 -0.486769 3.8433 0
M  V30 7304 H 704.182 1.35861 5.06599 0
M  V30 7305 H 705.656 -0.29233 5.51225 0
M  V30 7306 H 706.133 -1.34393 4.18133 0
M  V30 7307 H 706.739 0.327229 4.24039 0
M  V30 7308 N 705.054 -1.51416 0.437162 0
M  V30 7309 C 706.279 -2.0699 -0.130424 0
M  V30 7310 C 706.704 -1.30249 -1.35709 0
M  V30 7311 O 706.062 -0.340388 -1.78076 0
M  V30 7312 C 706.11 -3.5801 -0.43142 0
M  V30 7313 O 705.214 -3.8345 -1.5179 0
M  V30 7314 H 704.555 -0.663997 -0.00194339 0
M  V30 7315 H 707.085 -1.95029 0.618445 0
M  V30 7316 H 707.095 -4.02261 -0.681926 0
M  V30 7317 H 705.77 -4.13291 0.465137 0
M  V30 7318 H 704.347 -3.51062 -1.25737 0
M  V30 7319 N 706.532 -0.168513 -1.56696 0
M  V30 7320 C 707.462 0.758563 -2.20835 0
M  V30 7321 C 708.443 1.24121 -1.1631 0
M  V30 7322 O 709.628 1.29487 -1.4473 0
M  V30 7323 C 706.758 1.9892 -2.8469 0
M  V30 7324 C 705.712 1.64252 -3.95228 0
M  V30 7325 C 705.038 2.94757 -4.46119 0
M  V30 7326 C 706.338 0.872675 -5.14958 0
M  V30 7327 H 708.032 0.223953 -2.98561 0
M  V30 7328 H 705.578 0.106277 -1.43607 0
M  V30 7329 H 707.531 2.64275 -3.28233 0
M  V30 7330 H 706.255 2.5479 -2.04327 0
M  V30 7331 H 704.914 1.01266 -3.52336 0
M  V30 7332 H 704.562 3.48662 -3.62552 0
M  V30 7333 H 704.262 2.72316 -5.2069 0
M  V30 7334 H 705.786 3.61147 -4.92347 0
M  V30 7335 H 707.2 1.42875 -5.55211 0
M  V30 7336 H 705.597 0.747402 -5.95428 0
M  V30 7337 H 706.667 -0.131535 -4.84722 0
M  V30 7338 N 708.01 1.57248 0.105221 0
M  V30 7339 C 708.94 2.04374 1.12931 0
M  V30 7340 C 709.921 0.93074 1.42377 0
M  V30 7341 O 711.106 1.20136 1.52581 0
M  V30 7342 C 708.236 2.45967 2.45189 0
M  V30 7343 C 707.19 3.60838 2.30174 0
M  V30 7344 C 706.516 3.88374 3.67518 0
M  V30 7345 C 707.816 4.92084 1.75073 0
M  V30 7346 H 709.51 2.9018 0.737287 0
M  V30 7347 H 707.056 1.39601 0.353211 0
M  V30 7348 H 709.009 2.77542 3.17094 0
M  V30 7349 H 707.733 1.57148 2.86308 0
M  V30 7350 H 706.392 3.29493 1.60716 0
M  V30 7351 H 706.04 2.96739 4.06147 0
M  V30 7352 H 705.74 4.65703 3.58321 0
M  V30 7353 H 707.264 4.22415 4.40906 0
M  V30 7354 H 708.678 5.22106 2.36809 0
M  V30 7355 H 707.075 5.73507 1.76662 0
M  V30 7356 H 708.145 4.79684 0.709347 0
M  V30 7357 N 709.488 -0.375779 1.53054 0
M  V30 7358 C 710.713 -1.14484 1.7294 0
M  V30 7359 C 711.138 -1.82572 0.452668 0
M  V30 7360 O 710.496 -1.71343 -0.592567 0
M  V30 7361 C 710.544 -2.15857 2.88857 0
M  V30 7362 O 709.648 -3.22725 2.56753 0
M  V30 7363 H 708.989 -0.332666 0.574656 0
M  V30 7364 H 711.519 -0.436025 1.999 0
M  V30 7365 H 711.529 -2.59631 3.14731 0
M  V30 7366 H 710.204 -1.65689 3.81471 0
M  V30 7367 H 708.781 -2.83996 2.41663 0
M  V30 7368 N 710.966 -1.44241 -0.634997 0
M  V30 7369 C 711.929 -1.50457 -1.72903 0
M  V30 7370 C 712.929 -0.387058 -1.56072 0
M  V30 7371 O 714.119 -0.649531 -1.61638 0
M  V30 7372 C 711.251 -1.37477 -3.1195 0
M  V30 7373 H 712.444 -2.47907 -1.68767 0
M  V30 7374 H 709.997 -1.31276 -0.84831 0
M  V30 7375 H 710.732 -0.41106 -3.21684 0
M  V30 7376 H 710.517 -2.18506 -3.25573 0
M  V30 7377 H 712.007 -1.44799 -3.91692 0
M  V30 7378 N 712.444 0.87505 -1.31075 0
M  V30 7379 C 713.392 2.00317 -1.18219 0
M  V30 7380 C 714.386 1.69152 -0.0916872 0
M  V30 7381 O 715.592 1.7821 -0.253229 0
M  V30 7382 H 711.967 0.656981 -0.365895 0
M  V30 7383 H 713.938 2.08293 -2.13674 0
M  V30 7384 C 712.687 3.35821 -0.901095 0
M  V30 7385 H 712.01 3.6032 -1.73233 0
M  V30 7386 H 713.45 4.15366 -0.851295 0
M  V30 7387 C 711.909 3.34563 0.396114 0
M  V30 7388 O 712.439 3.75971 1.41452 0
M  V30 7389 N 710.645 2.87681 0.410832 0
M  V30 7390 H 710.192 2.54179 -0.418415 0
M  V30 7391 H 710.15 2.87223 1.27869 0
M  V30 7392 N 713.922 1.13953 1.08869 0
M  V30 7393 C 714.885 0.824991 2.13838 0
M  V30 7394 C 715.885 -0.168198 1.59918 0
M  V30 7395 O 717.075 0.0595778 1.74098 0
M  V30 7396 C 714.207 0.228938 3.4013 0
M  V30 7397 H 715.4 1.75521 2.43171 0
M  V30 7398 H 712.953 0.94492 1.24503 0
M  V30 7399 H 713.688 -0.710227 3.16427 0
M  V30 7400 H 713.473 0.944243 3.80561 0
M  V30 7401 H 714.963 0.0259223 4.17592 0
M  V30 7402 N 715.4 -1.26948 0.933913 0
M  V30 7403 C 716.363 -2.24889 0.442457 0
M  V30 7404 C 717.363 -1.54594 -0.442426 0
M  V30 7405 O 718.553 -1.72502 -0.242629 0
M  V30 7406 C 715.685 -3.3896 -0.363173 0
M  V30 7407 H 716.878 -2.69879 1.30787 0
M  V30 7408 H 714.431 -1.38978 0.715187 0
M  V30 7409 H 715.166 -2.99361 -1.24714 0
M  V30 7410 H 714.951 -3.9116 0.271366 0
M  V30 7411 H 716.441 -4.11739 -0.697186 0
M  V30 7412 N 716.879 -0.700114 -1.41195 0
M  V30 7413 C 718.295 -0.372114 -1.55201 0
M  V30 7414 C 718.495 1.12053 -1.6747 0
M  V30 7415 O 717.551 1.90642 -1.65566 0
M  V30 7416 C 718.864 -1.12462 -2.78878 0
M  V30 7417 C 720.412 -1.10941 -2.92679 0
M  V30 7418 C 720.887 -1.84376 -4.19249 0
M  V30 7419 N 722.378 -1.81368 -4.26216 0
M  V30 7420 C 723.113 -2.35024 -5.23021 0
M  V30 7421 N 722.609 -2.9717 -6.25829 0
M  V30 7422 N 724.402 -2.25254 -5.14992 0
M  V30 7423 H 716.553 -1.66816 -1.31477 0
M  V30 7424 H 718.816 -0.704223 -0.634644 0
M  V30 7425 H 718.522 -2.17937 -2.76037 0
M  V30 7426 H 718.396 -0.706152 -3.70531 0
M  V30 7427 H 720.783 -0.062911 -2.95033 0
M  V30 7428 H 720.864 -1.56698 -2.02187 0
M  V30 7429 H 720.508 -2.89008 -4.17656 0
M  V30 7430 H 720.438 -1.3605 -5.08722 0
M  V30 7431 H 722.929 -1.36062 -3.52556 0
M  V30 7432 H 723.242 -3.35668 -6.96094 0
M  V30 7433 H 721.587 -3.01249 -6.26318 0
M  V30 7434 H 724.778 -1.76372 -4.33602 0
M  V30 7435 H 724.951 -2.67373 -5.90268 0
M  V30 7436 N 718.357 1.51182 -0.445186 0
M  V30 7437 C 719.634 1.9478 0.178965 0
M  V30 7438 C 720.014 1.38428 1.59376 0
M  V30 7439 O 719.362 0.574552 2.21159 0
M  V30 7440 C 719.572 3.48683 0.148711 0
M  V30 7441 C 720.92 4.23152 0.35042 0
M  V30 7442 O 721.944 3.55479 0.226474 0
M  V30 7443 O 720.803 5.4322 0.597893 0
M  V30 7444 H 717.897 0.817387 0.12573 0
M  V30 7445 H 720.443 1.62051 -0.503729 0
M  V30 7446 H 719.215 3.82176 -0.84009 0
M  V30 7447 H 718.838 3.87875 0.873979 0
M  V30 7448 N 719.835 0.176821 1.56605 0
M  V30 7449 C 720.745 -0.763682 2.21822 0
M  V30 7450 C 721.761 -1.24889 1.21156 0
M  V30 7451 O 722.937 -1.29987 1.53836 0
M  V30 7452 C 720.002 -1.97352 2.8505 0
M  V30 7453 C 719.063 -1.53466 4.00932 0
M  V30 7454 C 718.296 -2.68682 4.61135 0
M  V30 7455 O 718.519 -3.85694 4.20234 0
M  V30 7456 O 717.453 -2.42442 5.50913 0
M  V30 7457 H 721.279 -0.238363 3.02763 0
M  V30 7458 H 718.864 -0.0516331 1.49311 0
M  V30 7459 H 720.746 -2.68096 3.25119 0
M  V30 7460 H 719.421 -2.48779 2.07101 0
M  V30 7461 H 718.328 -0.796551 3.65521 0
M  V30 7462 H 719.661 -1.06724 4.8049 0
M  V30 7463 N 721.313 -1.57302 -0.09688 0
M  V30 7464 C 722.541 -1.90202 -0.814295 0
M  V30 7465 C 722.956 -0.770344 -1.72369 0
M  V30 7466 O 722.313 0.257764 -1.8067 0
M  V30 7467 C 722.364 -3.22708 -1.62916 0
M  V30 7468 O 722.085 -4.31522 -0.756343 0
M  V30 7469 C 723.586 -3.69459 -2.44979 0
M  V30 7470 H 720.806 -0.629275 -0.232925 0
M  V30 7471 H 723.35 -2.04364 -0.0746482 0
M  V30 7472 H 721.505 -3.1015 -2.32133 0
M  V30 7473 H 721.919 -5.07604 -1.32054 0
M  V30 7474 H 723.393 -4.64875 -2.9765 0
M  V30 7475 H 723.87 -2.97211 -3.23361 0
M  V30 7476 H 724.476 -3.84879 -1.80964 0
M  V30 7477 N 722.791 0.367657 -1.53252 0
M  V30 7478 C 723.754 1.43308 -1.78873 0
M  V30 7479 C 724.754 1.46671 -0.659115 0
M  V30 7480 O 725.944 1.47468 -0.927306 0
M  V30 7481 C 723.076 2.82442 -1.90892 0
M  V30 7482 H 724.269 1.21864 -2.74024 0
M  V30 7483 H 721.822 0.600668 -1.44297 0
M  V30 7484 H 722.557 3.09202 -0.978 0
M  V30 7485 H 722.342 2.81399 -2.73051 0
M  V30 7486 H 723.832 3.59601 -2.12314 0
M  V30 7487 N 724.269 1.44576 0.627338 0
M  V30 7488 C 725.685 1.28546 0.945938 0
M  V30 7489 C 725.885 0.224003 2.00251 0
M  V30 7490 O 724.941 -0.388817 2.49488 0
M  V30 7491 C 726.254 2.65825 1.40561 0
M  V30 7492 C 727.802 2.73566 1.52088 0
M  V30 7493 C 728.277 4.11323 2.01438 0
M  V30 7494 N 729.768 4.13519 2.08702 0
M  V30 7495 C 730.503 5.16964 2.48065 0
M  V30 7496 N 729.999 6.30768 2.86538 0
M  V30 7497 N 731.792 5.04319 2.48232 0
M  V30 7498 H 723.943 2.1228 -0.0713567 0
M  V30 7499 H 726.206 0.947503 0.0307081 0
M  V30 7500 H 725.912 3.44591 0.703539 0
M  V30 7501 H 725.786 2.92969 2.37591 0
M  V30 7502 H 728.173 1.95116 2.21391 0
M  V30 7503 H 728.254 2.50159 0.534237 0
M  V30 7504 H 727.898 4.9025 1.32729 0
M  V30 7505 H 727.828 4.32109 3.0098 0
M  V30 7506 H 730.319 3.31385 1.81638 0
M  V30 7507 H 730.632 7.0551 3.15398 0
M  V30 7508 H 728.977 6.342 2.84281 0
M  V30 7509 H 732.168 4.14465 2.17569 0
M  V30 7510 H 732.341 5.85059 2.78585 0
M  V30 7511 N 725.747 -0.868086 1.31537 0
M  V30 7512 C 726.677 -1.99131 1.21939 0
M  V30 7513 C 727.658 -1.69768 0.106166 0
M  V30 7514 O 728.843 -1.92006 0.291081 0
M  V30 7515 C 725.973 -3.34676 0.927879 0
M  V30 7516 C 724.927 -3.7835 2.00088 0
M  V30 7517 C 724.253 -5.11375 1.56203 0
M  V30 7518 C 725.553 -3.95256 3.41424 0
M  V30 7519 H 727.247 -2.07419 2.15911 0
M  V30 7520 H 724.793 -0.996569 1.03945 0
M  V30 7521 H 726.746 -4.12793 0.847327 0
M  V30 7522 H 725.47 -3.26565 -0.0475042 0
M  V30 7523 H 724.129 -3.02474 2.07135 0
M  V30 7524 H 723.777 -4.99709 0.57445 0
M  V30 7525 H 723.477 -5.41568 2.27985 0
M  V30 7526 H 725.001 -5.92001 1.49558 0
M  V30 7527 H 726.415 -4.63764 3.3704 0
M  V30 7528 H 724.812 -4.36849 4.1144 0
M  V30 7529 H 725.882 -2.98579 3.82072 0
M  V30 7530 N 727.225 -1.14528 -1.08264 0
M  V30 7531 C 728.135 -0.84728 -2.18765 0
M  V30 7532 C 729.151 0.172826 -1.7314 0
M  V30 7533 O 730.327 0.000985336 -2.014 0
M  V30 7534 C 727.392 -0.330633 -3.4512 0
M  V30 7535 C 726.453 -1.41348 -4.05363 0
M  V30 7536 C 725.686 -0.921387 -5.25686 0
M  V30 7537 O 725.909 0.236587 -5.69909 0
M  V30 7538 O 724.843 -1.70101 -5.77364 0
M  V30 7539 H 728.669 -1.7708 -2.46731 0
M  V30 7540 H 726.254 -0.923661 -1.17426 0
M  V30 7541 H 728.136 -0.0485053 -4.21372 0
M  V30 7542 H 726.811 0.565147 -3.18728 0
M  V30 7543 H 725.718 -1.74908 -3.30693 0
M  V30 7544 H 727.051 -2.28383 -4.36007 0
M  V30 7545 N 728.703 1.26451 -0.940633 0
M  V30 7546 C 729.613 2.30128 -0.455881 0
M  V30 7547 C 730.629 1.67536 0.469867 0
M  V30 7548 O 731.805 1.98344 0.349529 0
M  V30 7549 C 728.87 3.45634 0.271648 0
M  V30 7550 C 727.931 4.23709 -0.690594 0
M  V30 7551 C 727.164 5.337 0.00231047 0
M  V30 7552 O 727.387 5.57215 1.21935 0
M  V30 7553 O 726.321 5.98091 -0.676111 0
M  V30 7554 H 730.147 2.73655 -1.31707 0
M  V30 7555 H 727.732 1.3164 -0.706497 0
M  V30 7556 H 729.614 4.15853 0.681486 0
M  V30 7557 H 728.289 3.04138 1.10824 0
M  V30 7558 H 727.196 3.55974 -1.15037 0
M  V30 7559 H 728.529 4.68953 -1.49478 0
M  V30 7560 N 730.181 0.707592 1.40822 0
M  V30 7561 C 731.597 0.38034 1.55002 0
M  V30 7562 C 731.797 -1.11163 1.68062 0
M  V30 7563 O 730.853 -1.89761 1.66574 0
M  V30 7564 C 732.166 1.1394 2.78277 0
M  V30 7565 C 733.714 1.12492 2.92087 0
M  V30 7566 C 734.189 1.86597 4.18265 0
M  V30 7567 N 735.68 1.83626 4.25248 0
M  V30 7568 C 736.415 2.37794 5.21768 0
M  V30 7569 N 735.911 3.00485 6.24244 0
M  V30 7570 N 737.704 2.27982 5.13791 0
M  V30 7571 H 729.855 1.67511 1.3059 0
M  V30 7572 H 732.118 0.707579 0.630901 0
M  V30 7573 H 731.824 2.19398 2.74877 0
M  V30 7574 H 731.698 0.725793 3.70151 0
M  V30 7575 H 734.085 0.0785564 2.94995 0
M  V30 7576 H 734.166 1.57768 2.01353 0
M  V30 7577 H 733.81 2.91219 4.16118 0
M  V30 7578 H 733.74 1.38746 5.07993 0
M  V30 7579 H 736.231 1.3793 3.51829 0
M  V30 7580 H 736.544 3.39355 6.94304 0
M  V30 7581 H 734.889 3.04567 6.24711 0
M  V30 7582 H 738.08 1.78669 4.3266 0
M  V30 7583 H 738.253 2.70499 5.88841 0
M  V30 7584 N 731.66 -1.50943 0.453197 0
M  V30 7585 C 733.076 -1.59245 0.106342 0
M  V30 7586 C 733.276 -1.46287 -1.38572 0
M  V30 7587 O 732.332 -1.31219 -2.15726 0
M  V30 7588 C 733.645 -2.93797 0.640595 0
M  V30 7589 C 735.193 -3.07148 0.602435 0
M  V30 7590 C 735.668 -4.44247 1.11393 0
M  V30 7591 N 737.159 -4.50611 1.07258 0
M  V30 7592 C 737.894 -5.55049 1.43905 0
M  V30 7593 N 737.39 -6.66828 1.87914 0
M  V30 7594 N 739.183 -5.45494 1.35621 0
M  V30 7595 H 731.334 -1.5761 1.42382 0
M  V30 7596 H 733.597 -0.74384 0.587713 0
M  V30 7597 H 733.303 -3.087 1.68515 0
M  V30 7598 H 733.177 -3.77127 0.0742272 0
M  V30 7599 H 735.564 -2.91903 -0.433171 0
M  V30 7600 H 735.645 -2.25619 1.20539 0
M  V30 7601 H 735.289 -4.60239 2.14808 0
M  V30 7602 H 735.219 -5.2434 0.487353 0
M  V30 7603 H 737.71 -3.70391 0.749585 0
M  V30 7604 H 738.023 -7.42558 2.14072 0
M  V30 7605 H 736.368 -6.67995 1.91853 0
M  V30 7606 H 739.559 -4.57053 1.01093 0
M  V30 7607 H 739.732 -6.2677 1.64508 0
M  V30 7608 N 733.138 -0.185124 -1.56509 0
M  V30 7609 C 734.386 0.455357 -1.96903 0
M  V30 7610 C 734.707 1.62839 -1.07277 0
M  V30 7611 O 733.977 1.95385 -0.141966 0
M  V30 7612 H 732.557 0.171218 -0.727113 0
M  V30 7613 H 735.219 -0.26953 -1.93027 0
M  V30 7614 H 734.315 0.80616 -3.01509 0
M  V30 7615 N 734.616 1.57351 0.0885366 0
M  V30 7616 C 735.865 1.85604 0.789556 0
M  V30 7617 C 736.178 0.775352 1.79576 0
M  V30 7618 O 737.384 0.945206 2.54515 0
M  V30 7619 C 735.84 3.29175 1.45506 0
M  V30 7620 C 735.448 4.45331 0.488278 0
M  V30 7621 C 737.192 3.66646 2.13942 0
M  V30 7622 C 735.099 5.79937 1.15874 0
M  V30 7623 H 734.029 0.692346 0.298619 0
M  V30 7624 H 736.68 1.83451 0.0425821 0
M  V30 7625 H 735.062 3.25889 2.24972 0
M  V30 7626 H 736.236 4.59977 -0.275359 0
M  V30 7627 H 734.551 4.16301 -0.0907363 0
M  V30 7628 H 737.148 4.64498 2.6485 0
M  V30 7629 H 737.491 2.956 2.93132 0
M  V30 7630 H 738.024 3.71848 1.41328 0
M  V30 7631 H 734.763 6.54232 0.407508 0
M  V30 7632 H 734.283 5.69123 1.89364 0
M  V30 7633 H 735.962 6.24718 1.68336 0
M  V30 7634 N 736.094 -0.359525 1.53444 0
M  V30 7635 C 737.343 -1.09886 1.69139 0
M  V30 7636 C 737.656 -1.90285 0.452863 0
M  V30 7637 O 738.862 -2.67033 0.490459 0
M  V30 7638 C 737.318 -2.0028 2.99025 0
M  V30 7639 C 736.926 -1.25164 4.30161 0
M  V30 7640 C 738.67 -2.74168 3.24086 0
M  V30 7641 C 736.577 -2.14494 5.51132 0
M  V30 7642 H 735.507 -0.413936 0.630217 0
M  V30 7643 H 738.158 -0.359434 1.79945 0
M  V30 7644 H 736.54 -2.77978 2.82036 0
M  V30 7645 H 737.714 -0.524867 4.57801 0
M  V30 7646 H 736.029 -0.631116 4.11589 0
M  V30 7647 H 738.626 -3.41243 4.11652 0
M  V30 7648 H 738.969 -3.39868 2.40407 0
M  V30 7649 H 739.502 -2.0355 3.41778 0
M  V30 7650 H 736.241 -1.53362 6.37307 0
M  V30 7651 H 735.761 -2.85004 5.27762 0
M  V30 7652 H 737.44 -2.73914 5.86157 0
M  V30 7653 N 737.572 -1.44907 -0.619662 0
M  V30 7654 C 738.482 -1.55168 -1.75955 0
M  V30 7655 C 739.498 -0.43672 -1.6843 0
M  V30 7656 O 740.674 -0.695704 -1.89002 0
M  V30 7657 C 737.739 -1.50397 -3.12381 0
M  V30 7658 C 736.8 -2.72835 -3.31451 0
M  V30 7659 C 736.033 -2.68283 -4.61368 0
M  V30 7660 O 736.256 -1.74929 -5.42914 0
M  V30 7661 O 735.19 -3.59308 -4.82889 0
M  V30 7662 H 739.016 -2.51493 -1.7025 0
M  V30 7663 H 736.601 -1.27282 -0.782289 0
M  V30 7664 H 738.483 -1.50301 -3.93685 0
M  V30 7665 H 737.158 -0.572197 -3.18603 0
M  V30 7666 H 736.065 -2.78496 -2.49781 0
M  V30 7667 H 737.398 -3.65098 -3.30098 0
M  V30 7668 N 739.05 0.861098 -1.31996 0
M  V30 7669 C 740.297 1.61481 -1.22188 0
M  V30 7670 C 740.625 1.93276 0.217853 0
M  V30 7671 O 739.88 1.56942 1.16909 0
M  V30 7672 C 740.179 2.94822 -2.02027 0
M  V30 7673 C 739.845 2.82483 -3.51446 0
M  V30 7674 C 738.507 2.78825 -3.92186 0
M  V30 7675 C 740.859 2.68878 -4.46491 0
M  V30 7676 C 738.187 2.59433 -5.26224 0
M  V30 7677 C 740.539 2.51022 -5.80664 0
M  V30 7678 C 739.203 2.45753 -6.20614 0
M  V30 7679 H 738.473 0.590902 -0.447119 0
M  V30 7680 H 741.12 0.999376 -1.63355 0
M  V30 7681 H 739.425 3.6045 -1.53569 0
M  V30 7682 H 741.122 3.52149 -1.91812 0
M  V30 7683 H 737.712 2.86152 -3.19085 0
M  V30 7684 H 741.896 2.70754 -4.1594 0
M  V30 7685 H 737.152 2.53784 -5.5624 0
M  V30 7686 H 741.326 2.39473 -6.53931 0
M  V30 7687 H 738.953 2.30485 -7.24417 0
M  V30 7688 N 740.528 1.15101 1.07655 0
M  V30 7689 C 741.478 0.813448 2.12995 0
M  V30 7690 C 742.462 -0.200899 1.59641 0
M  V30 7691 O 743.654 -0.00209918 1.77 0
M  V30 7692 C 740.783 0.301078 3.41977 0
M  V30 7693 C 739.869 1.3454 4.02194 0
M  V30 7694 N 740.26 2.55181 4.36711 0
M  V30 7695 C 738.558 1.19742 4.29625 0
M  V30 7696 C 739.259 3.22094 4.84387 0
M  V30 7697 N 738.235 2.49486 4.82968 0
M  V30 7698 H 742.037 1.73105 2.37511 0
M  V30 7699 H 739.551 1.03601 1.25063 0
M  V30 7700 H 741.548 0.040914 4.1688 0
M  V30 7701 H 740.208 -0.610629 3.18907 0
M  V30 7702 H 741.219 2.92349 4.27496 0
M  V30 7703 H 737.896 0.345353 4.16069 0
M  V30 7704 H 739.286 4.24996 5.20411 0
M  V30 7705 N 742.006 -1.2595 0.947325 0
M  V30 7706 C 743.252 -1.9375 0.599064 0
M  V30 7707 C 743.585 -1.74088 -0.860632 0
M  V30 7708 O 742.86 -1.08158 -1.61654 0
M  V30 7709 C 743.143 -3.47353 0.949634 0
M  V30 7710 C 742.996 -3.76273 2.46452 0
M  V30 7711 C 744.315 -4.37589 0.469442 0
M  V30 7712 H 741.434 -0.703674 0.219115 0
M  V30 7713 H 744.076 -1.48705 1.18266 0
M  V30 7714 H 742.226 -3.8585 0.453008 0
M  V30 7715 H 743.898 -3.47455 3.03435 0
M  V30 7716 H 742.141 -3.22135 2.90537 0
M  V30 7717 H 742.812 -4.83664 2.66032 0
M  V30 7718 H 745.288 -4.06353 0.89534 0
M  V30 7719 H 744.164 -5.43841 0.7435 0
M  V30 7720 H 744.425 -4.37579 -0.630618 0
M  V30 7721 N 743.484 -0.715051 -1.40445 0
M  V30 7722 C 744.733 -0.251322 -2.00128 0
M  V30 7723 C 745.046 1.16194 -1.57347 0
M  V30 7724 O 746.252 1.72416 -2.09726 0
M  V30 7725 C 744.708 -0.398407 -3.57688 0
M  V30 7726 C 744.316 -1.81828 -4.09442 0
M  V30 7727 C 746.06 0.00455625 -4.245 0
M  V30 7728 C 743.967 -1.91598 -5.59503 0
M  V30 7729 H 742.897 -0.0902081 -0.748584 0
M  V30 7730 H 745.548 -0.886062 -1.6069 0
M  V30 7731 H 743.93 0.304908 -3.94824 0
M  V30 7732 H 745.104 -2.55193 -3.83684 0
M  V30 7733 H 743.419 -2.17266 -3.55225 0
M  V30 7734 H 746.016 -0.0477303 -5.34679 0
M  V30 7735 H 746.359 1.04636 -4.02935 0
M  V30 7736 H 746.892 -0.649184 -3.92467 0
M  V30 7737 H 743.631 -2.93898 -5.85922 0
M  V30 7738 H 743.151 -1.22644 -5.87127 0
M  V30 7739 H 744.83 -1.68785 -6.24596 0
M  V30 7740 N 744.962 1.50701 -0.461195 0
M  V30 7741 C 746.21 2.01867 0.0970051 0
M  V30 7742 C 746.531 1.34591 1.41104 0
M  V30 7743 O 745.801 0.488041 1.89723 0
M  V30 7744 H 744.381 0.74599 0.0388392 0
M  V30 7745 H 747.043 1.85129 -0.609357 0
M  V30 7746 H 746.139 3.11051 0.255688 0
M  V30 7747 N 746.441 0.193421 1.56409 0
M  V30 7748 C 747.389 -0.744829 2.20352 0
M  V30 7749 C 748.383 -1.22104 1.17418 0
M  V30 7750 O 749.589 -1.18413 1.35567 0
M  V30 7751 H 745.964 -0.258538 0.70616 0
M  V30 7752 H 747.935 -0.181794 2.97846 0
M  V30 7753 C 746.684 -1.95453 2.87565 0
M  V30 7754 H 746.007 -1.59716 3.66512 0
M  V30 7755 H 747.447 -2.58942 3.35745 0
M  V30 7756 C 745.906 -2.79223 1.8851 0
M  V30 7757 O 746.436 -3.77093 1.38434 0
M  V30 7758 N 744.642 -2.44682 1.56777 0
M  V30 7759 H 744.189 -1.65153 1.97692 0
M  V30 7760 H 744.147 -3.01016 0.907573 0
M  V30 7761 N 747.919 -1.57396 -0.0801906 0
M  V30 7762 C 749.144 -1.91437 -0.797909 0
M  V30 7763 C 749.569 -0.789075 -1.70749 0
M  V30 7764 O 748.927 0.25857 -1.79447 0
M  V30 7765 C 748.975 -3.24402 -1.57467 0
M  V30 7766 O 748.079 -3.13043 -2.68473 0
M  V30 7767 H 747.42 -0.627109 -0.218243 0
M  V30 7768 H 749.95 -2.04537 -0.050949 0
M  V30 7769 H 749.96 -3.58072 -1.95571 0
M  V30 7770 H 748.635 -4.05884 -0.907229 0
M  V30 7771 H 747.212 -2.90915 -2.33287 0
M  V30 7772 N 749.397 0.351382 -1.53633 0
M  V30 7773 C 750.327 1.43688 -1.84055 0
M  V30 7774 C 751.308 1.55251 -0.695073 0
M  V30 7775 O 752.493 1.69587 -0.946257 0
M  V30 7776 C 749.623 2.80843 -2.04315 0
M  V30 7777 C 748.577 2.84094 -3.20117 0
M  V30 7778 C 747.903 4.2406 -3.25696 0
M  V30 7779 C 749.203 2.50334 -4.58399 0
M  V30 7780 H 750.897 1.18478 -2.74961 0
M  V30 7781 H 748.443 0.568509 -1.32303 0
M  V30 7782 H 750.396 3.56821 -2.2418 0
M  V30 7783 H 749.12 3.07471 -1.10132 0
M  V30 7784 H 747.779 2.10568 -3.00094 0
M  V30 7785 H 747.427 4.47785 -2.29123 0
M  V30 7786 H 747.127 4.27147 -4.03509 0
M  V30 7787 H 748.651 5.0189 -3.47762 0
M  V30 7788 H 750.065 3.16025 -4.78332 0
M  V30 7789 H 748.462 2.64717 -5.38558 0
M  V30 7790 H 749.532 1.45542 -4.62543 0
M  V30 7791 N 750.875 1.45233 0.611969 0
M  V30 7792 C 752.103 1.52539 1.39784 0
M  V30 7793 C 752.518 0.156533 1.8815 0
M  V30 7794 O 751.875 -0.84112 1.61961 0
M  V30 7795 C 751.926 2.50614 2.60528 0
M  V30 7796 O 751.647 3.8218 2.14173 0
M  V30 7797 C 753.148 2.67574 3.53439 0
M  V30 7798 H 750.368 0.51674 0.428043 0
M  V30 7799 H 752.912 1.90379 0.746727 0
M  V30 7800 H 751.067 2.15858 3.2169 0
M  V30 7801 H 751.481 4.35305 2.92592 0
M  V30 7802 H 752.955 3.40184 4.34717 0
M  V30 7803 H 753.432 1.73458 4.03496 0
M  V30 7804 H 754.038 3.0331 2.98133 0
M  V30 7805 N 752.353 -0.854086 1.3245 0
M  V30 7806 C 753.764 -1.42427 1.20712 0
M  V30 7807 C 754.115 -1.95371 -0.18013 0
M  V30 7808 O 753.24 -1.87587 -1.07889 0
M  V30 7809 C 753.835 -2.58897 2.18536 0
M  V30 7810 C 752.394 -3.11913 2.10683 0
M  V30 7811 C 751.541 -1.84661 2.06871 0
M  V30 7812 H 754.492 -0.661192 1.4427 0
M  V30 7813 H 754.513 -3.36074 1.78422 0
M  V30 7814 H 754.025 -2.20333 3.19492 0
M  V30 7815 H 752.126 -3.55059 1.12977 0
M  V30 7816 H 752.239 -3.73119 3.00532 0
M  V30 7817 H 750.603 -2.04285 1.52118 0
M  V30 7818 H 751.386 -1.48314 3.09609 0
M  V30 7819 N 753.831 -1.1567 -1.07043 0
M  V30 7820 C 754.778 -0.856336 -2.14326 0
M  V30 7821 C 755.748 0.192051 -1.64986 0
M  V30 7822 O 756.933 0.0589148 -1.90709 0
M  V30 7823 C 754.073 -0.355227 -3.43267 0
M  V30 7824 C 753.186 -1.46555 -4.06381 0
M  V30 7825 C 752.321 -0.920245 -5.23168 0
M  V30 7826 C 751.36 -2.00729 -5.78251 0
M  V30 7827 N 750.497 -1.47813 -6.86364 0
M  V30 7828 H 755.337 -1.77514 -2.39359 0
M  V30 7829 H 752.874 -0.885676 -1.17449 0
M  V30 7830 H 754.832 -0.0463804 -4.17174 0
M  V30 7831 H 753.462 0.526649 -3.18475 0
M  V30 7832 H 752.514 -1.89052 -3.30096 0
M  V30 7833 H 753.826 -2.28616 -4.43324 0
M  V30 7834 H 752.98 -0.564127 -6.04072 0
M  V30 7835 H 751.719 -0.0688477 -4.87651 0
M  V30 7836 H 750.724 -2.3722 -4.95991 0
M  V30 7837 H 751.949 -2.86252 -6.15822 0
M  V30 7838 H 749.895 -0.649145 -6.5278 0
M  V30 7839 H 749.812 -2.23498 -7.22208 0
M  V30 7840 H 751.08 -1.15036 -7.70965 0
M  V30 7841 N 755.309 1.25446 -0.953992 0
M  V30 7842 C 756.272 2.24156 -0.478179 0
M  V30 7843 C 757.272 1.55278 0.417776 0
M  V30 7844 O 758.462 1.72866 0.215155 0
M  V30 7845 C 755.594 3.39495 0.309202 0
M  V30 7846 H 756.787 2.67764 -1.35064 0
M  V30 7847 H 754.34 1.37822 -0.737206 0
M  V30 7848 H 755.075 3.01307 1.19936 0
M  V30 7849 H 754.86 3.90679 -0.333562 0
M  V30 7850 H 756.35 4.12796 0.631594 0
M  V30 7851 N 756.787 0.722489 1.40064 0
M  V30 7852 C 757.735 0.063329 2.32514 0
M  V30 7853 C 758.729 -0.73953 1.52405 0
M  V30 7854 O 759.935 -0.642122 1.68157 0
M  V30 7855 H 756.31 0.00167692 0.751998 0
M  V30 7856 H 758.281 0.859656 2.85749 0
M  V30 7857 C 757.03 -0.839219 3.3742 0
M  V30 7858 H 756.353 -0.230836 3.99133 0
M  V30 7859 H 757.793 -1.26827 4.04587 0
M  V30 7860 C 756.252 -1.96783 2.73456 0
M  V30 7861 O 756.782 -3.05933 2.60323 0
M  V30 7862 N 754.988 -1.75351 2.31734 0
M  V30 7863 H 754.535 -0.865787 2.42615 0
M  V30 7864 H 754.493 -2.51043 1.89275 0
M  V30 7865 N 758.265 -1.50454 0.469181 0
M  V30 7866 C 759.681 -1.59124 0.123226 0
M  V30 7867 C 759.881 -1.47749 -1.37013 0
M  V30 7868 O 758.937 -1.335 -2.14322 0
M  V30 7869 C 760.25 -2.93101 0.67172 0
M  V30 7870 C 761.798 -3.06491 0.634978 0
M  V30 7871 C 762.273 -4.43041 1.16098 0
M  V30 7872 N 763.764 -4.49448 1.12031 0
M  V30 7873 C 764.499 -5.53491 1.49784 0
M  V30 7874 N 763.995 -6.64798 1.94976 0
M  V30 7875 N 765.788 -5.44025 1.41399 0
M  V30 7876 H 757.939 -1.56091 1.44046 0
M  V30 7877 H 760.202 -0.737564 0.59557 0
M  V30 7878 H 759.908 -3.06895 1.7178 0
M  V30 7879 H 759.782 -3.77027 0.114222 0
M  V30 7880 H 762.169 -2.92346 -0.402187 0
M  V30 7881 H 762.25 -2.24328 1.22926 0
M  V30 7882 H 761.894 -4.57935 2.19677 0
M  V30 7883 H 761.824 -5.23794 0.542939 0
M  V30 7884 H 764.315 -3.69575 0.788828 0
M  V30 7885 H 764.628 -7.40246 2.21936 0
M  V30 7886 H 762.973 -6.65923 1.98927 0
M  V30 7887 H 766.164 -4.55955 1.05935 0
M  V30 7888 H 766.337 -6.2499 1.71147 0
M  V30 7889 N 759.743 -0.201713 -1.56304 0
M  V30 7890 C 761.159 0.154025 -1.58855 0
M  V30 7891 C 761.359 1.60516 -1.21807 0
M  V30 7892 O 760.415 2.34193 -0.94393 0
M  V30 7893 C 761.728 -0.154319 -3.00304 0
M  V30 7894 C 763.276 -0.0949578 -3.12856 0
M  V30 7895 C 763.751 -0.376703 -4.56448 0
M  V30 7896 N 765.242 -0.325558 -4.62054 0
M  V30 7897 C 765.977 -0.51732 -5.71062 0
M  V30 7898 N 765.473 -0.769789 -6.8851 0
M  V30 7899 N 767.266 -0.45112 -5.60287 0
M  V30 7900 H 759.417 -1.14858 -1.78666 0
M  V30 7901 H 761.68 -0.458934 -0.829508 0
M  V30 7902 H 761.386 -1.16074 -3.31994 0
M  V30 7903 H 761.26 0.540014 -3.73314 0
M  V30 7904 H 763.647 0.902075 -2.80974 0
M  V30 7905 H 763.728 -0.822468 -2.42217 0
M  V30 7906 H 763.372 -1.37108 -4.89044 0
M  V30 7907 H 763.302 0.371772 -5.25286 0
M  V30 7908 H 765.793 -0.137308 -3.7765 0
M  V30 7909 H 766.106 -0.904744 -7.67486 0
M  V30 7910 H 764.451 -0.806758 -6.90302 0
M  V30 7911 H 767.642 -0.254253 -4.67409 0
M  V30 7912 H 767.815 -0.603982 -6.45179 0
M  V30 7913 N 761.222 1.57436 0.0718424 0
M  V30 7914 C 762.468 1.87525 0.772149 0
M  V30 7915 C 762.801 0.79399 1.77227 0
M  V30 7916 O 762.076 -0.195733 1.93513 0
M  V30 7917 C 762.359 3.28272 1.48018 0
M  V30 7918 C 762.212 4.47052 0.49647 0
M  V30 7919 C 763.531 3.67256 2.42509 0
M  V30 7920 H 760.65 0.682049 0.279245 0
M  V30 7921 H 763.292 1.89967 0.03534 0
M  V30 7922 H 761.442 3.26321 2.10824 0
M  V30 7923 H 763.114 4.61127 -0.126375 0
M  V30 7924 H 761.357 4.33392 -0.188205 0
M  V30 7925 H 762.028 5.42315 1.02949 0
M  V30 7926 H 764.504 3.70301 1.89781 0
M  V30 7927 H 763.38 4.66626 2.89053 0
M  V30 7928 H 763.641 2.97186 3.27312 0
M  V30 7929 N 762.7 -0.34323 1.53817 0
M  V30 7930 C 763.63 -1.42709 1.84814 0
M  V30 7931 C 764.611 -1.5488 0.703297 0
M  V30 7932 O 765.796 -1.69082 0.955237 0
M  V30 7933 C 762.926 -2.79756 2.05801 0
M  V30 7934 C 761.88 -2.82392 3.21619 0
M  V30 7935 C 761.206 -4.22326 3.2794 0
M  V30 7936 C 762.506 -2.479 4.59721 0
M  V30 7937 H 764.2 -1.17018 2.75585 0
M  V30 7938 H 761.746 -0.561485 1.32602 0
M  V30 7939 H 763.699 -3.55627 2.26069 0
M  V30 7940 H 762.423 -3.06883 1.11761 0
M  V30 7941 H 761.082 -2.08974 3.01207 0
M  V30 7942 H 760.73 -4.46564 2.31494 0
M  V30 7943 H 760.43 -4.25001 4.05768 0
M  V30 7944 H 761.954 -5.00039 3.50419 0
M  V30 7945 H 763.368 -3.13484 4.80001 0
M  V30 7946 H 761.765 -2.61857 5.39954 0
M  V30 7947 H 762.835 -1.43087 4.63308 0
M  V30 7948 N 764.178 -1.45556 -0.604258 0
M  V30 7949 C 765.108 -1.57327 -1.72541 0
M  V30 7950 C 766.089 -0.424637 -1.64714 0
M  V30 7951 O 767.274 -0.648196 -1.83063 0
M  V30 7952 C 764.404 -1.54279 -3.11152 0
M  V30 7953 C 763.358 -2.67893 -3.33792 0
M  V30 7954 C 762.684 -2.499 -4.72709 0
M  V30 7955 C 763.984 -4.0988 -3.23722 0
M  V30 7956 H 765.678 -2.51175 -1.62947 0
M  V30 7957 H 763.224 -1.20884 -0.782504 0
M  V30 7958 H 765.177 -1.6111 -3.89386 0
M  V30 7959 H 763.901 -0.569627 -3.21594 0
M  V30 7960 H 762.56 -2.60495 -2.57949 0
M  V30 7961 H 762.208 -1.50715 -4.79889 0
M  V30 7962 H 761.908 -3.26091 -4.88813 0
M  V30 7963 H 763.432 -2.5859 -5.5314 0
M  V30 7964 H 764.846 -4.18503 -3.91826 0
M  V30 7965 H 763.243 -4.86487 -3.51355 0
M  V30 7966 H 764.313 -4.31553 -2.21111 0
M  V30 7967 N 765.656 0.84705 -1.32902 0
M  V30 7968 C 766.902 1.60389 -1.25088 0
M  V30 7969 C 767.257 1.91521 0.183723 0
M  V30 7970 O 766.55 1.55197 1.12359 0
M  V30 7971 C 766.744 2.92663 -2.05142 0
M  V30 7972 C 766.573 2.74449 -3.56241 0
M  V30 7973 C 765.343 2.72434 -4.25567 0
M  V30 7974 C 767.541 2.47666 -4.5074 0
M  V30 7975 N 765.523 2.45512 -5.62669 0
M  V30 7976 C 766.894 2.30219 -5.75673 0
M  V30 7977 C 768.949 2.33196 -4.39914 0
M  V30 7978 C 767.652 1.99772 -6.91002 0
M  V30 7979 C 769.678 2.0414 -5.5505 0
M  V30 7980 C 769.04 1.875 -6.78987 0
M  V30 7981 H 765.139 0.590296 -0.512908 0
M  V30 7982 H 767.723 0.995058 -1.67352 0
M  V30 7983 H 765.894 3.51511 -1.65211 0
M  V30 7984 H 767.626 3.5777 -1.89163 0
M  V30 7985 H 764.381 2.85647 -3.7776 0
M  V30 7986 H 764.805 2.34958 -6.3492 0
M  V30 7987 H 769.447 2.44777 -3.44738 0
M  V30 7988 H 767.165 1.86928 -7.86183 0
M  V30 7989 H 770.751 1.93711 -5.48605 0
M  V30 7990 H 769.631 1.65339 -7.66572 0
M  V30 7991 N 767.134 1.16236 1.06428 0
M  V30 7992 C 768.064 0.890807 2.1584 0
M  V30 7993 C 769.045 -0.162333 1.69324 0
M  V30 7994 O 770.23 -0.0147191 1.94194 0
M  V30 7995 C 767.36 0.389615 3.45108 0
M  V30 7996 C 766.314 1.38051 4.05125 0
M  V30 7997 C 765.64 0.737773 5.29586 0
M  V30 7998 C 766.94 2.74965 4.44062 0
M  V30 7999 H 768.634 1.80577 2.38814 0
M  V30 8000 H 766.18 0.869657 1.14774 0
M  V30 8001 H 768.133 0.187127 4.20984 0
M  V30 8002 H 766.857 -0.560851 3.21748 0
M  V30 8003 H 765.516 1.56952 3.31303 0
M  V30 8004 H 765.164 -0.219135 5.02522 0
M  V30 8005 H 764.864 1.39914 5.70699 0
M  V30 8006 H 766.388 0.545275 6.0816 0
M  V30 8007 H 767.802 2.59855 5.11027 0
M  V30 8008 H 766.199 3.37563 4.96156 0
M  V30 8009 H 767.269 3.30321 3.54987 0
M  V30 8010 N 768.612 -1.24939 0.960631 0
M  V30 8011 C 769.858 -1.93104 0.61958 0
M  V30 8012 C 770.191 -1.74991 -0.84212 0
M  V30 8013 O 769.466 -1.09867 -1.60498 0
M  V30 8014 C 769.749 -3.46326 0.986422 0
M  V30 8015 C 769.602 -3.73638 2.50429 0
M  V30 8016 C 770.921 -4.37067 0.515827 0
M  V30 8017 H 768.04 -0.701311 0.226566 0
M  V30 8018 H 770.682 -1.47442 1.19836 0
M  V30 8019 H 768.832 -3.85348 0.493907 0
M  V30 8020 H 770.504 -3.44217 3.07103 0
M  V30 8021 H 768.747 -3.19035 2.93937 0
M  V30 8022 H 769.418 -4.80815 2.71147 0
M  V30 8023 H 771.894 -4.05381 0.938389 0
M  V30 8024 H 770.77 -5.43022 0.80114 0
M  V30 8025 H 771.031 -4.38224 -0.584171 0
M  V30 8026 N 770.09 -0.729906 -1.39679 0
M  V30 8027 C 771.338 -0.275077 -2.00219 0
M  V30 8028 C 771.659 1.1401 -1.58199 0
M  V30 8029 O 770.929 1.77546 -0.827904 0
M  V30 8030 H 769.509 -0.0987127 -0.740449 0
M  V30 8031 H 772.171 -0.93873 -1.70804 0
M  V30 8032 H 771.267 -0.319446 -3.10461 0
M  V30 8033 N 771.568 1.50203 -0.477153 0
M  V30 8034 C 772.498 2.31517 0.303646 0
M  V30 8035 C 773.479 1.38696 0.984753 0
M  V30 8036 O 774.664 1.67615 0.980758 0
M  V30 8037 C 771.794 3.18598 1.38249 0
M  V30 8038 C 770.748 4.2002 0.822645 0
M  V30 8039 C 770.074 4.95878 2.00024 0
M  V30 8040 C 771.374 5.22023 -0.170185 0
M  V30 8041 H 773.068 2.97042 -0.375027 0
M  V30 8042 H 770.614 1.42848 -0.181802 0
M  V30 8043 H 772.567 3.74282 1.93625 0
M  V30 8044 H 771.291 2.5097 2.09002 0
M  V30 8045 H 769.95 3.65445 0.290813 0
M  V30 8046 H 769.598 4.24717 2.69489 0
M  V30 8047 H 769.298 5.64487 1.63183 0
M  V30 8048 H 770.822 5.54399 2.55878 0
M  V30 8049 H 772.236 5.72543 0.294606 0
M  V30 8050 H 770.633 5.98386 -0.453181 0
M  V30 8051 H 771.703 4.72396 -1.09408 0
M  V30 8052 N 773.046 0.209999 1.56195 0
M  V30 8053 C 773.978 -0.736967 2.17029 0
M  V30 8054 C 774.991 -1.16599 1.13616 0
M  V30 8055 O 776.18 -1.09914 1.40646 0
M  V30 8056 C 773.28 -2.00852 2.72969 0
M  V30 8057 C 772.453 -1.73691 4.01435 0
M  V30 8058 C 771.512 -2.85439 4.42053 0
M  V30 8059 O 770.538 -2.54405 5.09183 0
M  V30 8060 N 771.74 -4.14135 4.06783 0
M  V30 8061 H 774.505 -0.216656 2.98916 0
M  V30 8062 H 772.066 0.0285672 1.61875 0
M  V30 8063 H 774.058 -2.74778 2.97118 0
M  V30 8064 H 772.628 -2.43963 1.95451 0
M  V30 8065 H 771.848 -0.834676 3.85262 0
M  V30 8066 H 773.136 -1.52961 4.85263 0
M  V30 8067 H 772.534 -4.42196 3.52816 0
M  V30 8068 H 771.091 -4.84642 4.35851 0
M  V30 8069 N 774.524 -1.57472 -0.0634922 0
M  V30 8070 C 775.472 -2.05307 -1.09323 0
M  V30 8071 C 776.466 -0.959995 -1.39572 0
M  V30 8072 O 777.672 -1.14507 -1.38882 0
M  V30 8073 H 774.047 -0.65472 -0.369927 0
M  V30 8074 H 776.018 -2.90925 -0.663707 0
M  V30 8075 C 774.767 -2.51954 -2.39613 0
M  V30 8076 H 774.09 -3.35662 -2.1719 0
M  V30 8077 H 775.53 -2.89169 -3.10092 0
M  V30 8078 C 773.989 -1.40596 -3.06161 0
M  V30 8079 O 774.519 -0.752722 -3.94585 0
M  V30 8080 N 772.725 -1.14902 -2.66919 0
M  V30 8081 H 772.272 -1.68205 -1.95102 0
M  V30 8082 H 772.23 -0.406006 -3.11767 0
M  V30 8083 N 776.003 0.335068 -1.53997 0
M  V30 8084 C 777.249 1.07594 -1.71905 0
M  V30 8085 C 777.582 1.88039 -0.485264 0
M  V30 8086 O 776.857 1.87482 0.517752 0
M  V30 8087 C 777.14 2.01016 -2.98772 0
M  V30 8088 C 776.993 1.23977 -4.32377 0
M  V30 8089 C 778.312 3.0071 -3.21343 0
M  V30 8090 H 775.431 0.38976 -0.625505 0
M  V30 8091 H 778.073 0.353684 -1.86679 0
M  V30 8092 H 776.223 2.62603 -2.86307 0
M  V30 8093 H 777.895 0.649383 -4.56706 0
M  V30 8094 H 776.138 0.541878 -4.30402 0
M  V30 8095 H 776.809 1.92512 -5.17342 0
M  V30 8096 H 779.285 2.4924 -3.33194 0
M  V30 8097 H 778.161 3.63272 -4.11491 0
M  V30 8098 H 778.422 3.72549 -2.38033 0
M  V30 8099 N 777.481 1.45874 0.596531 0
M  V30 8100 C 778.728 1.50467 1.35521 0
M  V30 8101 C 779.056 0.150802 1.93915 0
M  V30 8102 O 778.311 -0.851913 1.76184 0
M  V30 8103 C 778.61 2.54034 2.51399 0
M  V30 8104 C 778.276 3.9844 2.11085 0
M  V30 8105 C 776.938 4.37758 1.99804 0
M  V30 8106 C 779.29 4.89209 1.79788 0
M  V30 8107 C 776.618 5.65727 1.55465 0
M  V30 8108 C 778.97 6.17602 1.36931 0
M  V30 8109 C 777.634 6.5584 1.24218 0
M  V30 8110 H 776.904 0.550597 0.495907 0
M  V30 8111 H 779.551 1.79279 0.673145 0
M  V30 8112 H 777.856 2.18832 3.24992 0
M  V30 8113 H 779.553 2.54822 3.09624 0
M  V30 8114 H 776.143 3.67353 2.20794 0
M  V30 8115 H 780.327 4.59562 1.87395 0
M  V30 8116 H 775.583 5.94139 1.44253 0
M  V30 8117 H 779.757 6.87373 1.11764 0
M  V30 8118 H 777.384 7.54897 0.896353 0
M  V30 8119 N 778.959 -0.83999 1.33349 0
M  V30 8120 C 780.184 -1.63249 1.27924 0
M  V30 8121 C 780.609 -1.87523 -0.147193 0
M  V30 8122 O 779.967 -1.43853 -1.10345 0
M  V30 8123 C 780.015 -2.96046 2.05886 0
M  V30 8124 O 779.119 -3.87303 1.4167 0
M  V30 8125 H 778.46 -0.49715 0.440157 0
M  V30 8126 H 780.99 -1.04512 1.75893 0
M  V30 8127 H 781 -3.45752 2.16609 0
M  V30 8128 H 779.675 -2.77701 3.09605 0
M  V30 8129 H 778.252 -3.45789 1.39585 0
M  V30 8130 N 780.437 -1.16799 -1.0581 0
M  V30 8131 C 781.387 -0.847231 -2.11674 0
M  V30 8132 C 782.371 0.175476 -1.5994 0
M  V30 8133 O 783.563 -0.0260602 -1.76981 0
M  V30 8134 C 780.692 -0.355446 -3.41455 0
M  V30 8135 C 779.778 -1.40922 -4.00002 0
M  V30 8136 N 780.169 -2.62096 -4.32596 0
M  V30 8137 C 778.467 -1.26562 -4.27666 0
M  V30 8138 C 779.168 -3.29759 -4.79201 0
M  V30 8139 N 778.144 -2.57138 -4.78938 0
M  V30 8140 H 781.946 -1.76862 -2.34727 0
M  V30 8141 H 779.46 -1.05577 -1.23399 0
M  V30 8142 H 781.457 -0.107231 -4.16762 0
M  V30 8143 H 780.117 0.559817 -3.19838 0
M  V30 8144 H 781.128 -2.99113 -4.22791 0
M  V30 8145 H 777.805 -0.411503 -4.15467 0
M  V30 8146 H 779.195 -4.33222 -5.13584 0
M  V30 8147 N 781.915 1.24427 -0.967243 0
M  V30 8148 C 782.847 2.24641 -0.454856 0
M  V30 8149 C 783.86 1.56849 0.436152 0
M  V30 8150 O 785.049 1.76846 0.242401 0
M  V30 8151 C 782.149 3.36954 0.362672 0
M  V30 8152 C 781.322 4.34318 -0.518324 0
M  V30 8153 C 780.381 5.25638 0.243122 0
M  V30 8154 O 779.407 5.68043 -0.362791 0
M  V30 8155 N 780.609 5.59897 1.53282 0
M  V30 8156 H 783.374 2.69238 -1.31648 0
M  V30 8157 H 780.935 1.38464 -0.839015 0
M  V30 8158 H 782.927 3.95014 0.880094 0
M  V30 8159 H 781.497 2.91646 1.12522 0
M  V30 8160 H 780.717 3.74953 -1.21672 0
M  V30 8161 H 782.005 4.96338 -1.11919 0
M  V30 8162 H 781.403 5.27373 2.04682 0
M  V30 8163 H 779.96 6.20488 1.99594 0
M  V30 8164 N 783.393 0.737304 1.3929 0
M  V30 8165 C 784.323 0.113988 2.33222 0
M  V30 8166 C 785.304 -0.721695 1.54031 0
M  V30 8167 O 786.489 -0.666206 1.82415 0
M  V30 8168 C 783.619 -0.792319 3.38141 0
M  V30 8169 C 782.573 -0.0606178 4.27957 0
M  V30 8170 C 781.899 -1.08409 5.23595 0
M  V30 8171 C 783.199 1.09817 5.10625 0
M  V30 8172 H 784.893 0.898611 2.85596 0
M  V30 8173 H 782.439 0.433571 1.37318 0
M  V30 8174 H 784.392 -1.23793 4.02807 0
M  V30 8175 H 783.116 -1.60908 2.84211 0
M  V30 8176 H 781.775 0.365393 3.64775 0
M  V30 8177 H 781.423 -1.89449 4.6596 0
M  V30 8178 H 781.123 -0.599269 5.84536 0
M  V30 8179 H 782.647 -1.52936 5.91137 0
M  V30 8180 H 784.061 0.730892 5.68622 0
M  V30 8181 H 782.458 1.51278 5.80719 0
M  V30 8182 H 783.528 1.91878 4.45321 0
M  V30 8183 N 784.871 -1.49948 0.485112 0
M  V30 8184 C 786.282 -1.8667 0.0334041 0
M  V30 8185 C 786.633 -1.3988 -1.37579 0
M  V30 8186 O 785.758 -0.769788 -2.02245 0
M  V30 8187 C 786.353 -3.38757 0.0538426 0
M  V30 8188 C 784.912 -3.74839 -0.342453 0
M  V30 8189 C 784.059 -2.73894 0.433281 0
M  V30 8190 H 787.01 -1.42492 0.698699 0
M  V30 8191 H 787.031 -3.73132 -0.745146 0
M  V30 8192 H 786.543 -3.72782 1.07959 0
M  V30 8193 H 784.644 -3.46419 -1.37203 0
M  V30 8194 H 784.757 -4.79088 -0.0340503 0
M  V30 8195 H 783.121 -2.54441 -0.114849 0
M  V30 8196 H 783.904 -3.10763 1.45881 0
M  V30 8197 N 786.349 -0.21828 -1.56081 0
M  V30 8198 C 787.765 0.137168 -1.59009 0
M  V30 8199 C 787.965 1.59215 -1.23503 0
M  V30 8200 O 787.021 2.33178 -0.968716 0
M  V30 8201 C 788.334 -0.186162 -3.00123 0
M  V30 8202 C 789.882 -0.128135 -3.12738 0
M  V30 8203 C 790.357 -0.425094 -4.56023 0
M  V30 8204 N 791.848 -0.374547 -4.61683 0
M  V30 8205 C 792.583 -0.57786 -5.70481 0
M  V30 8206 N 792.079 -0.842771 -6.87655 0
M  V30 8207 N 793.872 -0.510521 -5.59777 0
M  V30 8208 H 786.023 -1.16746 -1.77437 0
M  V30 8209 H 788.286 -0.467706 -0.824594 0
M  V30 8210 H 787.992 -1.19589 -3.30744 0
M  V30 8211 H 787.866 0.500388 -3.73866 0
M  V30 8212 H 790.253 0.872224 -2.81915 0
M  V30 8213 H 790.334 -0.848112 -2.41331 0
M  V30 8214 H 789.978 -1.42288 -4.87562 0
M  V30 8215 H 789.908 0.316038 -5.25651 0
M  V30 8216 H 792.399 -0.177356 -3.77484 0
M  V30 8217 H 792.712 -0.986095 -7.66483 0
M  V30 8218 H 791.057 -0.879929 -6.89407 0
M  V30 8219 H 794.248 -0.303813 -4.67113 0
M  V30 8220 H 794.421 -0.672378 -6.44502 0
M  V30 8221 N 787.827 1.57504 0.0551401 0
M  V30 8222 C 788.76 2.00155 1.09604 0
M  V30 8223 C 789.738 0.881274 1.36647 0
M  V30 8224 O 790.922 1.14498 1.49742 0
M  V30 8225 C 788.049 2.35246 2.43674 0
M  V30 8226 C 787.095 3.57452 2.32659 0
M  V30 8227 S 787.928 5.07639 1.7048 0
M  V30 8228 C 789.084 5.45947 3.06093 0
M  V30 8229 H 789.317 2.88131 0.732635 0
M  V30 8230 H 786.85 1.52122 0.264252 0
M  V30 8231 H 788.808 2.56136 3.20787 0
M  V30 8232 H 787.469 1.47769 2.7717 0
M  V30 8233 H 786.662 3.79576 3.31569 0
M  V30 8234 H 786.264 3.36279 1.63685 0
M  V30 8235 H 788.556 5.45036 4.0242 0
M  V30 8236 H 789.499 6.4656 2.88732 0
M  V30 8237 H 789.907 4.73419 3.07466 0
M  V30 8238 N 789.305 -0.326896 1.54172 0
M  V30 8239 C 790.716 -0.901533 1.63491 0
M  V30 8240 C 791.067 -1.88994 0.52684 0
M  V30 8241 O 790.192 -2.137 -0.340794 0
M  V30 8242 C 790.787 -1.64192 2.96355 0
M  V30 8243 C 789.346 -2.16533 3.07881 0
M  V30 8244 C 788.493 -0.98966 2.59039 0
M  V30 8245 H 791.444 -0.104568 1.58355 0
M  V30 8246 H 791.465 -2.50592 2.86328 0
M  V30 8247 H 790.977 -0.922291 3.76982 0
M  V30 8248 H 789.078 -2.91622 2.31922 0
M  V30 8249 H 789.191 -2.41762 4.13628 0
M  V30 8250 H 787.555 -1.36787 2.14852 0
M  V30 8251 H 788.338 -0.284401 3.4212 0
M  V30 8252 N 790.784 -1.46188 -0.588786 0
M  V30 8253 C 791.731 -1.56292 -1.69828 0
M  V30 8254 C 792.701 -0.407581 -1.61022 0
M  V30 8255 O 793.886 -0.623532 -1.80324 0
M  V30 8256 C 791.026 -1.55341 -3.08161 0
M  V30 8257 C 790.139 -2.81564 -3.27636 0
M  V30 8258 C 789.274 -2.72158 -4.56183 0
M  V30 8259 C 788.313 -3.93348 -4.68981 0
M  V30 8260 N 787.45 -3.82365 -5.88848 0
M  V30 8261 H 792.29 -2.51066 -1.6053 0
M  V30 8262 H 789.827 -1.24562 -0.782474 0
M  V30 8263 H 791.785 -1.52776 -3.88221 0
M  V30 8264 H 790.415 -0.641034 -3.16371 0
M  V30 8265 H 789.467 -2.94136 -2.41223 0
M  V30 8266 H 790.779 -3.714 -3.32962 0
M  V30 8267 H 789.933 -2.67665 -5.44464 0
M  V30 8268 H 788.672 -1.79953 -4.53286 0
M  V30 8269 H 787.677 -3.98181 -3.7912 0
M  V30 8270 H 788.902 -4.86643 -4.73662 0
M  V30 8271 H 786.848 -2.92942 -5.86959 0
M  V30 8272 H 786.765 -4.65851 -5.95415 0
M  V30 8273 H 788.033 -3.81836 -6.79575 0
M  V30 8274 N 792.262 0.832906 -1.33792 0
M  V30 8275 C 793.172 1.97514 -1.26592 0
M  V30 8276 C 794.188 1.73114 -0.175391 0
M  V30 8277 O 795.364 1.97387 -0.400062 0
M  V30 8278 C 792.429 3.31625 -1.01121 0
M  V30 8279 C 791.49 3.69101 -2.19233 0
M  V30 8280 C 790.723 4.96813 -1.94968 0
M  V30 8281 O 790.946 5.63208 -0.902955 0
M  V30 8282 O 789.88 5.31932 -2.8166 0
M  V30 8283 H 793.706 2.0653 -2.22664 0
M  V30 8284 H 791.291 0.966826 -1.13898 0
M  V30 8285 H 793.173 4.11968 -0.886571 0
M  V30 8286 H 791.848 3.23599 -0.080822 0
M  V30 8287 H 790.755 2.89243 -2.37253 0
M  V30 8288 H 792.088 3.818 -3.10628 0
M  V30 8289 N 793.74 1.17359 1.05189 0
M  V30 8290 C 794.97 0.985099 1.81602 0
M  V30 8291 C 795.378 -0.469872 1.83273 0
M  V30 8292 O 794.721 -1.33806 1.25864 0
M  V30 8293 C 794.783 1.44956 3.2898 0
M  V30 8294 C 794.447 2.92666 3.50993 0
M  V30 8295 C 795.444 3.906 3.43115 0
M  V30 8296 C 793.129 3.30841 3.77954 0
M  V30 8297 C 795.123 5.24709 3.61883 0
M  V30 8298 C 792.81 4.65116 3.96371 0
M  V30 8299 C 793.808 5.61859 3.88335 0
M  V30 8300 O 793.496 6.93704 4.06238 0
M  V30 8301 H 793.228 0.348731 0.579105 0
M  V30 8302 H 795.782 1.56066 1.33539 0
M  V30 8303 H 794.012 0.817559 3.77959 0
M  V30 8304 H 795.701 1.22674 3.86919 0
M  V30 8305 H 796.467 3.62453 3.22262 0
M  V30 8306 H 792.346 2.5611 3.83313 0
M  V30 8307 H 795.89 6.00205 3.55527 0
M  V30 8308 H 791.787 4.92969 4.16715 0
M  V30 8309 H 792.555 7.00443 4.23463 0
M  V30 8310 N 795.218 -1.23913 0.973828 0
M  V30 8311 C 796.467 -1.91455 0.63464 0
M  V30 8312 C 796.78 -1.76893 -0.834759 0
M  V30 8313 O 797.986 -2.3918 -1.28473 0
M  V30 8314 C 796.442 -3.43172 1.08447 0
M  V30 8315 C 796.05 -3.66409 2.57776 0
M  V30 8316 C 797.794 -4.1653 0.818721 0
M  V30 8317 C 795.701 -5.11728 2.9646 0
M  V30 8318 H 794.631 -0.716881 0.233661 0
M  V30 8319 H 797.282 -1.40457 1.18085 0
M  V30 8320 H 795.664 -3.93242 0.466524 0
M  V30 8321 H 796.838 -3.26913 3.24753 0
M  V30 8322 H 795.153 -3.06349 2.82027 0
M  V30 8323 H 797.75 -5.23603 1.08367 0
M  V30 8324 H 798.093 -4.15578 -0.245128 0
M  V30 8325 H 798.626 -3.72428 1.39793 0
M  V30 8326 H 795.365 -5.17806 4.01941 0
M  V30 8327 H 794.885 -5.52199 2.34172 0
M  V30 8328 H 796.564 -5.80009 2.86703 0
M  V30 8329 N 796.696 -0.74468 -1.38897 0
M  V30 8330 C 797.659 -0.11945 -2.28889 0
M  V30 8331 C 798.659 0.656942 -1.46768 0
M  V30 8332 O 799.849 0.484525 -1.67326 0
M  V30 8333 C 796.981 0.839635 -3.30398 0
M  V30 8334 H 798.174 -0.912414 -2.85683 0
M  V30 8335 H 795.727 -0.511119 -1.47707 0
M  V30 8336 H 796.462 1.6586 -2.78677 0
M  V30 8337 H 796.247 0.285432 -3.9106 0
M  V30 8338 H 797.737 1.27337 -3.97712 0
M  V30 8339 N 798.174 1.49689 -0.493057 0
M  V30 8340 C 799.59 1.58907 -0.148526 0
M  V30 8341 C 799.79 1.4991 1.34645 0
M  V30 8342 O 798.846 1.36893 2.12171 0
M  V30 8343 C 800.159 2.91996 -0.718265 0
M  V30 8344 C 801.707 3.05443 -0.683658 0
M  V30 8345 C 802.182 4.41138 -1.23132 0
M  V30 8346 N 803.673 4.47608 -1.19167 0
M  V30 8347 C 804.408 5.51038 -1.5857 0
M  V30 8348 N 803.904 6.61612 -2.05528 0
M  V30 8349 N 805.697 5.41706 -1.50036 0
M  V30 8350 H 797.848 1.5378 -1.46511 0
M  V30 8351 H 800.111 0.727996 -0.607228 0
M  V30 8352 H 799.817 3.04123 -1.7664 0
M  V30 8353 H 799.691 3.76798 -0.17419 0
M  V30 8354 H 802.078 2.92949 0.355626 0
M  V30 8355 H 802.159 2.22344 -1.26479 0
M  V30 8356 H 801.803 4.54382 -2.26935 0
M  V30 8357 H 801.733 5.22864 -0.626201 0
M  V30 8358 H 804.224 3.68274 -0.847524 0
M  V30 8359 H 804.537 7.36622 -2.33685 0
M  V30 8360 H 802.882 6.62674 -2.09497 0
M  V30 8361 H 806.073 4.54212 -1.13176 0
M  V30 8362 H 806.246 6.22188 -1.81068 0
M  V30 8363 N 799.652 0.226554 1.55963 0
M  V30 8364 C 800.582 -0.676079 2.23498 0
M  V30 8365 C 801.563 -1.19718 1.20837 0
M  V30 8366 O 802.748 -1.24027 1.49436 0
M  V30 8367 C 799.878 -1.88217 2.91876 0
M  V30 8368 C 798.832 -1.4947 4.01052 0
M  V30 8369 C 798.158 -2.77997 4.56751 0
M  V30 8370 C 799.458 -0.680951 5.17842 0
M  V30 8371 H 801.152 -0.112989 2.99187 0
M  V30 8372 H 798.698 -0.0529046 1.43903 0
M  V30 8373 H 800.651 -2.51911 3.37815 0
M  V30 8374 H 799.375 -2.47031 2.13643 0
M  V30 8375 H 798.034 -0.881199 3.55852 0
M  V30 8376 H 797.682 -3.34966 3.75243 0
M  V30 8377 H 797.382 -2.52803 5.30438 0
M  V30 8378 H 798.906 -3.42625 5.05411 0
M  V30 8379 H 800.32 -1.22171 5.60131 0
M  V30 8380 H 798.717 -0.525898 5.97791 0
M  V30 8381 H 799.787 0.311346 4.83899 0
M  V30 8382 N 801.13 -1.57531 -0.0467866 0
M  V30 8383 C 802.376 -1.8873 -0.742218 0
M  V30 8384 C 802.709 -0.822084 -1.75941 0
M  V30 8385 O 801.984 0.164922 -1.938 0
M  V30 8386 C 802.267 -3.30586 -1.42776 0
M  V30 8387 C 802.12 -4.47785 -0.425285 0
M  V30 8388 C 803.439 -3.71068 -2.36636 0
M  V30 8389 H 800.558 -0.686406 -0.268359 0
M  V30 8390 H 803.2 -1.89999 -0.00511341 0
M  V30 8391 H 801.35 -3.29634 -2.05605 0
M  V30 8392 H 803.022 -4.60867 0.199721 0
M  V30 8393 H 801.265 -4.33037 0.25713 0
M  V30 8394 H 801.936 -5.43884 -0.943086 0
M  V30 8395 H 804.412 -3.73273 -1.83866 0
M  V30 8396 H 803.288 -4.71165 -2.81593 0
M  V30 8397 H 803.549 -3.02355 -3.22542 0
M  V30 8398 N 802.608 0.318715 -1.54344 0
M  V30 8399 C 803.855 1.05608 -1.72781 0
M  V30 8400 C 804.183 1.87854 -0.504083 0
M  V30 8401 O 803.438 1.88826 0.51414 0
M  V30 8402 C 803.737 2.00514 -2.95853 0
M  V30 8403 C 803.403 1.34385 -4.30409 0
M  V30 8404 C 802.065 1.16081 -4.66989 0
M  V30 8405 C 804.417 0.869627 -5.13894 0
M  V30 8406 C 801.745 0.490114 -5.84649 0
M  V30 8407 C 804.097 0.212735 -6.32242 0
M  V30 8408 C 802.761 0.0175882 -6.67498 0
M  V30 8409 H 802.031 0.386449 -0.632249 0
M  V30 8410 H 804.678 0.332729 -1.88587 0
M  V30 8411 H 802.983 2.79317 -2.74753 0
M  V30 8412 H 804.68 2.57605 -3.07312 0
M  V30 8413 H 801.27 1.49634 -4.01631 0
M  V30 8414 H 805.454 0.998809 -4.86146 0
M  V30 8415 H 800.71 0.327767 -6.10521 0
M  V30 8416 H 804.884 -0.162699 -6.9621 0
M  V30 8417 H 802.511 -0.504137 -7.58527 0
M  V30 8418 N 804.086 1.46499 0.581025 0
M  V30 8419 C 805.363 1.42372 1.34125 0
M  V30 8420 C 805.743 0.108073 2.10823 0
M  V30 8421 O 805.091 -0.910366 2.09582 0
M  V30 8422 C 805.301 2.65445 2.26583 0
M  V30 8423 C 806.649 3.11664 2.88359 0
M  V30 8424 O 807.673 2.66006 2.36896 0
M  V30 8425 O 806.532 3.90974 3.81839 0
M  V30 8426 H 803.626 0.566262 0.602724 0
M  V30 8427 H 806.172 1.58667 0.601903 0
M  V30 8428 H 804.944 3.52756 1.69348 0
M  V30 8429 H 804.567 2.51618 3.07854 0
M  V30 8430 N 805.565 -0.825799 1.34232 0
M  V30 8431 C 806.976 -1.39835 1.23706 0
M  V30 8432 C 807.327 -1.95709 -0.138649 0
M  V30 8433 O 806.452 -1.89833 -1.03886 0
M  V30 8434 C 807.047 -2.54203 2.23978 0
M  V30 8435 C 805.606 -3.07374 2.17251 0
M  V30 8436 C 804.753 -1.80232 2.10741 0
M  V30 8437 H 807.704 -0.630442 1.4564 0
M  V30 8438 H 807.725 -3.32214 1.8551 0
M  V30 8439 H 807.237 -2.13506 3.24094 0
M  V30 8440 H 805.338 -3.52583 1.20483 0
M  V30 8441 H 805.451 -3.6666 3.08379 0
M  V30 8442 H 803.815 -2.01012 1.56417 0
M  V30 8443 H 804.598 -1.41713 3.12686 0
M  V30 8444 N 807.043 -1.17915 -1.04565 0
M  V30 8445 C 807.99 -0.901605 -2.12461 0
M  V30 8446 C 808.96 0.157011 -1.65356 0
M  V30 8447 O 810.145 0.0184494 -1.90791 0
M  V30 8448 C 807.285 -0.42796 -3.42436 0
M  V30 8449 C 806.398 -1.55142 -4.03181 0
M  V30 8450 C 805.533 -1.03101 -5.21098 0
M  V30 8451 C 804.572 -2.1295 -5.73863 0
M  V30 8452 N 803.709 -1.62339 -6.83074 0
M  V30 8453 H 808.549 -1.82551 -2.3554 0
M  V30 8454 H 806.086 -0.910389 -1.15544 0
M  V30 8455 H 808.044 -0.134859 -4.16982 0
M  V30 8456 H 806.674 0.458977 -3.1952 0
M  V30 8457 H 805.726 -1.96011 -3.26012 0
M  V30 8458 H 807.038 -2.37968 -4.38375 0
M  V30 8459 H 806.192 -0.692132 -6.02739 0
M  V30 8460 H 804.931 -0.17227 -4.87396 0
M  V30 8461 H 803.936 -2.47687 -4.90847 0
M  V30 8462 H 805.161 -2.9925 -6.09611 0
M  V30 8463 H 803.107 -0.787464 -6.51256 0
M  V30 8464 H 803.024 -2.38767 -7.17305 0
M  V30 8465 H 804.292 -1.31363 -7.68351 0
M  V30 8466 N 808.521 1.23394 -0.980386 0
M  V30 8467 C 809.471 2.22634 -0.491747 0
M  V30 8468 C 810.455 1.54958 0.433222 0
M  V30 8469 O 811.647 1.75049 0.262078 0
M  V30 8470 C 808.776 3.4269 0.204531 0
M  V30 8471 C 807.862 4.17594 -0.740007 0
M  V30 8472 N 808.253 4.69458 -1.88263 0
M  V30 8473 C 806.551 4.42554 -0.553335 0
M  V30 8474 C 807.252 5.26446 -2.47446 0
M  V30 8475 N 806.228 5.14377 -1.75834 0
M  V30 8476 H 810.03 2.60363 -1.36339 0
M  V30 8477 H 807.544 1.38924 -0.841059 0
M  V30 8478 H 809.541 4.12959 0.571901 0
M  V30 8479 H 808.201 3.06477 1.07246 0
M  V30 8480 H 809.212 4.65803 -2.26381 0
M  V30 8481 H 805.889 4.16629 0.269573 0
M  V30 8482 H 807.279 5.77195 -3.43941 0
M  V30 8483 N 809.999 0.752036 1.385 0
M  V30 8484 C 810.946 0.123288 2.3047 0
M  V30 8485 C 811.916 -0.711326 1.50098 0
M  V30 8486 O 813.101 -0.667775 1.78733 0
M  V30 8487 C 810.241 -0.765085 3.36512 0
M  V30 8488 C 809.354 0.0839885 4.31918 0
M  V30 8489 C 808.489 -0.807243 5.25031 0
M  V30 8490 C 807.528 0.0455583 6.12083 0
M  V30 8491 N 806.665 -0.802547 6.97498 0
M  V30 8492 H 811.505 0.913169 2.83664 0
M  V30 8493 H 809.042 0.46195 1.39658 0
M  V30 8494 H 811 -1.29476 3.966 0
M  V30 8495 H 809.63 -1.52077 2.84732 0
M  V30 8496 H 808.682 0.731276 3.73305 0
M  V30 8497 H 809.994 0.74265 4.9324 0
M  V30 8498 H 809.148 -1.40414 5.90228 0
M  V30 8499 H 807.887 -1.49964 4.64071 0
M  V30 8500 H 806.892 0.655137 5.45883 0
M  V30 8501 H 808.117 0.734994 6.75111 0
M  V30 8502 H 806.063 -1.47992 6.39089 0
M  V30 8503 H 805.98 -0.200747 7.55733 0
M  V30 8504 H 807.248 -1.38447 7.67107 0
M  V30 8505 N 811.477 -1.49425 0.500989 0
M  V30 8506 C 812.705 -2.06861 -0.0403443 0
M  V30 8507 C 813.12 -1.36132 -1.30819 0
M  V30 8508 O 812.477 -0.439647 -1.77125 0
M  V30 8509 C 812.528 -3.6027 -0.297902 0
M  V30 8510 O 812.249 -4.28338 0.919686 0
M  V30 8511 C 813.75 -4.34419 -0.882876 0
M  V30 8512 H 810.97 -0.670688 0.0204619 0
M  V30 8513 H 813.514 -1.92207 0.698342 0
M  V30 8514 H 811.669 -3.74627 -0.98657 0
M  V30 8515 H 812.083 -5.2004 0.682528 0
M  V30 8516 H 813.557 -5.42631 -1.01268 0
M  V30 8517 H 814.034 -3.96898 -1.88066 0
M  V30 8518 H 814.64 -4.24669 -0.231677 0
M  V30 8519 N 812.955 -0.234822 -1.55841 0
M  V30 8520 C 813.885 0.664217 -2.23854 0
M  V30 8521 C 814.866 1.19076 -1.2147 0
M  V30 8522 O 816.051 1.23232 -1.50091 0
M  V30 8523 C 813.181 1.86666 -2.9287 0
M  V30 8524 C 812.135 1.47341 -4.01839 0
M  V30 8525 C 811.461 2.75571 -4.58219 0
M  V30 8526 C 812.761 0.653479 -5.18196 0
M  V30 8527 H 814.455 0.0971213 -2.99242 0
M  V30 8528 H 812.001 0.0452724 -1.43929 0
M  V30 8529 H 813.954 2.50116 -3.39146 0
M  V30 8530 H 812.678 2.45894 -2.1495 0
M  V30 8531 H 811.337 0.862314 -3.56314 0
M  V30 8532 H 810.985 3.32971 -3.77014 0
M  V30 8533 H 810.685 2.49987 -5.31771 0
M  V30 8534 H 812.209 3.39939 -5.07221 0
M  V30 8535 H 813.623 1.19198 -5.60771 0
M  V30 8536 H 812.02 0.494188 -5.98062 0
M  V30 8537 H 813.09 -0.337004 -4.83728 0
M  V30 8538 N 814.433 1.57553 0.0384317 0
M  V30 8539 C 815.396 2.04927 1.02653 0
M  V30 8540 C 816.396 0.951768 1.29607 0
M  V30 8541 O 817.586 1.21568 1.24768 0
M  V30 8542 C 814.718 2.45828 2.36181 0
M  V30 8543 H 815.911 2.93474 0.617508 0
M  V30 8544 H 813.464 1.53679 0.285031 0
M  V30 8545 H 814.199 1.60408 2.8185 0
M  V30 8546 H 813.984 3.25945 2.1795 0
M  V30 8547 H 815.474 2.82939 3.0714 0
M  V30 8548 N 815.911 -0.310526 1.54511 0
M  V30 8549 C 816.841 -1.38757 1.878 0
M  V30 8550 C 817.822 -1.53353 0.735991 0
M  V30 8551 O 819.007 -1.67018 0.990887 0
M  V30 8552 C 816.137 -2.75327 2.11689 0
M  V30 8553 C 815.091 -2.75506 3.27537 0
M  V30 8554 C 814.417 -4.15275 3.36824 0
M  V30 8555 C 815.717 -2.38093 4.64875 0
M  V30 8556 H 817.411 -1.11146 2.78005 0
M  V30 8557 H 814.957 -0.533232 1.33763 0
M  V30 8558 H 816.91 -3.50752 2.33562 0
M  V30 8559 H 815.634 -3.04443 1.18245 0
M  V30 8560 H 814.293 -2.02538 3.05572 0
M  V30 8561 H 813.941 -4.41553 2.40915 0
M  V30 8562 H 813.641 -4.16299 4.14692 0
M  V30 8563 H 815.165 -4.92493 3.60947 0
M  V30 8564 H 816.579 -3.03232 4.86542 0
M  V30 8565 H 814.976 -2.50345 5.45387 0
M  V30 8566 H 816.046 -1.33227 4.66239 0
M  V30 8567 N 817.389 -1.46805 -0.573248 0
M  V30 8568 C 818.638 -1.51868 -1.32736 0
M  V30 8569 C 818.951 -0.178765 -1.94781 0
M  V30 8570 O 820.157 -0.107272 -2.71288 0
M  V30 8571 C 818.613 -2.67641 -2.40616 0
M  V30 8572 C 818.221 -4.08094 -1.84832 0
M  V30 8573 C 819.965 -2.81984 -3.17309 0
M  V30 8574 C 817.872 -5.15193 -2.90397 0
M  V30 8575 H 816.802 -0.56523 -0.49903 0
M  V30 8576 H 819.453 -1.7304 -0.610695 0
M  V30 8577 H 817.835 -2.39818 -3.15124 0
M  V30 8578 H 819.009 -4.45751 -1.16803 0
M  V30 8579 H 817.324 -3.985 -1.20775 0
M  V30 8580 H 819.921 -3.59166 -3.96111 0
M  V30 8581 H 820.264 -1.89842 -3.70494 0
M  V30 8582 H 820.797 -3.095 -2.4991 0
M  V30 8583 H 817.536 -6.09158 -2.42088 0
M  V30 8584 H 817.056 -4.82071 -3.56886 0
M  V30 8585 H 818.735 -5.41448 -3.54179 0
M  V30 8586 N 818.867 0.818669 -1.34668 0
M  V30 8587 C 819.814 1.92983 -1.26595 0
M  V30 8588 C 820.784 1.65506 -0.140315 0
M  V30 8589 O 821.969 1.88063 -0.322005 0
M  V30 8590 C 819.109 3.2932 -1.03163 0
M  V30 8591 C 818.222 3.69061 -2.24539 0
M  V30 8592 C 817.357 4.94368 -1.94355 0
M  V30 8593 C 816.396 5.26702 -3.11851 0
M  V30 8594 N 815.533 6.43187 -2.81522 0
M  V30 8595 H 820.373 1.99219 -2.2162 0
M  V30 8596 H 817.91 0.974612 -1.1018 0
M  V30 8597 H 819.868 4.07897 -0.87613 0
M  V30 8598 H 818.498 3.22584 -0.118045 0
M  V30 8599 H 817.55 2.85842 -2.50995 0
M  V30 8600 H 818.862 3.88924 -3.12313 0
M  V30 8601 H 818.016 5.80742 -1.75566 0
M  V30 8602 H 816.755 4.76515 -1.03848 0
M  V30 8603 H 815.76 4.38823 -3.31231 0
M  V30 8604 H 816.985 5.46492 -4.03142 0
M  V30 8605 H 814.931 6.26783 -1.93596 0
M  V30 8606 H 814.848 6.63243 -3.62829 0
M  V30 8607 H 816.116 7.32621 -2.66247 0
M  V30 8608 N 820.346 1.18468 1.03938 0
M  V30 8609 C 821.623 0.890435 1.74157 0
M  V30 8610 C 822.003 -0.606409 2.02203 0
M  V30 8611 O 821.351 -1.5615 1.66822 0
M  V30 8612 C 821.561 1.73906 3.02585 0
M  V30 8613 C 822.909 1.96686 3.76297 0
M  V30 8614 O 823.933 1.70969 3.12487 0
M  V30 8615 O 822.792 2.39986 4.90988 0
M  V30 8616 H 819.886 0.330889 0.757919 0
M  V30 8617 H 822.432 1.29228 1.09992 0
M  V30 8618 H 821.204 2.75369 2.78006 0
M  V30 8619 H 820.827 1.33581 3.74489 0
M  V30 8620 N 821.824 -1.22873 0.986916 0
M  V30 8621 C 823.072 -1.91084 0.658121 0
M  V30 8622 C 823.393 -1.77304 -0.811675 0
M  V30 8623 O 822.663 -1.15649 -1.58121 0
M  V30 8624 H 821.243 -0.707251 0.240427 0
M  V30 8625 H 823.905 -1.49357 1.25213 0
M  V30 8626 H 823.001 -2.98373 0.915428 0
M  V30 8627 N 823.302 -0.75937 -1.38099 0
M  V30 8628 C 824.718 -0.437606 -1.53483 0
M  V30 8629 C 824.918 1.04849 -1.72072 0
M  V30 8630 O 823.974 1.83448 -1.73502 0
M  V30 8631 C 825.287 -1.24189 -2.73857 0
M  V30 8632 C 826.835 -1.23255 -2.8771 0
M  V30 8633 C 827.31 -2.01992 -4.11051 0
M  V30 8634 N 828.801 -1.99282 -4.1814 0
M  V30 8635 C 829.536 -2.56996 -5.12583 0
M  V30 8636 N 829.032 -3.23446 -6.12662 0
M  V30 8637 N 830.825 -2.46894 -5.04975 0
M  V30 8638 H 822.976 -1.72242 -1.24283 0
M  V30 8639 H 825.239 -0.730507 -0.604205 0
M  V30 8640 H 824.945 -2.29449 -2.66545 0
M  V30 8641 H 824.819 -0.862672 -3.67203 0
M  V30 8642 H 827.206 -0.187988 -2.94501 0
M  V30 8643 H 827.287 -1.65132 -1.95359 0
M  V30 8644 H 826.931 -3.06462 -4.05023 0
M  V30 8645 H 826.861 -1.57505 -5.02494 0
M  V30 8646 H 829.352 -1.50893 -3.46467 0
M  V30 8647 H 829.665 -3.6489 -6.81231 0
M  V30 8648 H 828.01 -3.27543 -6.12977 0
M  V30 8649 H 831.201 -1.94604 -4.25731 0
M  V30 8650 H 831.374 -2.92168 -5.78396 0
M  V30 8651 N 824.78 1.49157 -0.508906 0
M  V30 8652 C 826.026 2.02773 0.0328469 0
M  V30 8653 C 826.359 1.38714 1.35912 0
M  V30 8654 O 825.634 0.525536 1.87266 0
M  V30 8655 C 825.917 3.59664 0.177088 0
M  V30 8656 C 825.77 4.34239 -1.17287 0
M  V30 8657 C 827.089 4.30505 0.913977 0
M  V30 8658 H 824.208 0.736926 0.0104631 0
M  V30 8659 H 826.85 1.781 -0.661851 0
M  V30 8660 H 825 3.80818 0.768774 0
M  V30 8661 H 826.672 4.24561 -1.80404 0
M  V30 8662 H 824.915 3.96486 -1.76016 0
M  V30 8663 H 825.586 5.42397 -1.02516 0
M  V30 8664 H 828.062 4.14054 0.412084 0
M  V30 8665 H 826.938 5.40012 0.983759 0
M  V30 8666 H 827.199 3.96302 1.95951 0
M  V30 8667 N 826.258 0.243083 1.55714 0
M  V30 8668 C 827.507 -0.383188 1.98027 0
M  V30 8669 C 827.82 -1.59347 1.13436 0
M  V30 8670 O 829.026 -2.29065 1.45745 0
M  V30 8671 C 827.482 -0.733135 3.52354 0
M  V30 8672 C 827.09 0.455539 4.45678 0
M  V30 8673 C 828.834 -1.32381 4.03331 0
M  V30 8674 C 826.741 0.0819591 5.91343 0
M  V30 8675 H 825.671 -0.146944 0.739543 0
M  V30 8676 H 828.322 0.342697 1.80272 0
M  V30 8677 H 826.704 -1.51704 3.65789 0
M  V30 8678 H 827.878 1.23291 4.44 0
M  V30 8679 H 826.193 0.960886 4.05162 0
M  V30 8680 H 828.79 -1.61658 5.09677 0
M  V30 8681 H 829.133 -2.24698 3.50452 0
M  V30 8682 H 829.666 -0.602885 3.93205 0
M  V30 8683 H 826.405 0.972171 6.48251 0
M  V30 8684 H 825.925 -0.659291 5.96166 0
M  V30 8685 H 827.604 -0.3372 6.46121 0
M  V30 8686 N 827.736 -1.57571 -0.0300757 0
M  V30 8687 C 828.984 -1.88852 -0.719666 0
M  V30 8688 C 829.305 -0.840645 -1.75949 0
M  V30 8689 O 828.575 0.125854 -1.95495 0
M  V30 8690 H 827.155 -0.696965 -0.268792 0
M  V30 8691 H 829.817 -1.949 0.00373285 0
M  V30 8692 H 828.913 -2.87695 -1.20987 0
M  V30 8693 N 829.214 0.302327 -1.54673 0
M  V30 8694 C 830.462 1.03565 -1.73547 0
M  V30 8695 C 830.783 1.87843 -0.523448 0
M  V30 8696 O 830.053 1.90367 0.462295 0
M  V30 8697 H 828.633 0.385358 -0.639928 0
M  V30 8698 H 831.295 0.333632 -1.92023 0
M  V30 8699 H 830.391 1.68952 -2.62415 0
M  V30 8700 N 830.692 1.47107 0.565454 0
M  V30 8701 C 831.941 1.5257 1.31929 0
M  V30 8702 C 832.254 0.189092 1.94684 0
M  V30 8703 O 833.46 0.121657 2.71227 0
M  V30 8704 C 831.916 2.68914 2.39193 0
M  V30 8705 C 831.524 4.09069 1.82665 0
M  V30 8706 C 833.268 2.83663 3.1581 0
M  V30 8707 C 831.175 5.16726 2.87661 0
M  V30 8708 H 830.105 0.567869 0.496025 0
M  V30 8709 H 832.756 1.73361 0.60151 0
M  V30 8710 H 831.138 2.41486 3.13848 0
M  V30 8711 H 832.312 4.46364 1.14438 0
M  V30 8712 H 830.627 3.99135 1.1866 0
M  V30 8713 H 833.224 3.61261 3.94201 0
M  V30 8714 H 833.567 1.91804 3.69482 0
M  V30 8715 H 834.1 3.10821 2.48265 0
M  V30 8716 H 830.839 6.10433 2.38854 0
M  V30 8717 H 830.359 4.83957 3.54324 0
M  V30 8718 H 832.038 5.43319 3.51303 0
M  V30 8719 N 832.17 -0.811516 1.35101 0
M  V30 8720 C 833.41 -1.58177 1.29458 0
M  V30 8721 C 833.774 -1.91555 -0.130688 0
M  V30 8722 O 834.975 -2.6699 -0.311428 0
M  V30 8723 C 833.246 -2.83896 2.17112 0
M  V30 8724 S 834.805 -3.74344 2.28936 0
M  V30 8725 H 831.623 -0.542021 0.460146 0
M  V30 8726 H 834.225 -0.957653 1.70438 0
M  V30 8727 H 832.929 -2.57391 3.19653 0
M  V30 8728 H 832.46 -3.51297 1.7707 0
M  V30 8729 H 834.475 -4.73909 1.47054 0
M  V30 8730 N 833.648 -1.19017 -1.03309 0
M  V30 8731 C 834.895 -0.990214 -1.76638 0
M  V30 8732 C 835.223 0.479435 -1.88498 0
M  V30 8733 O 834.478 1.37223 -1.39529 0
M  V30 8734 C 834.777 -1.59927 -3.19622 0
M  V30 8735 C 834.443 -3.09632 -3.27779 0
M  V30 8736 C 833.105 -3.50491 -3.29712 0
M  V30 8737 C 835.457 -4.05644 -3.27264 0
M  V30 8738 C 832.785 -4.85921 -3.28782 0
M  V30 8739 C 835.137 -5.41 -3.27875 0
M  V30 8740 C 833.801 -5.81295 -3.28104 0
M  V30 8741 H 833.071 -0.362345 -0.646364 0
M  V30 8742 H 835.718 -1.48197 -1.21284 0
M  V30 8743 H 834.023 -1.0297 -3.78027 0
M  V30 8744 H 835.72 -1.41989 -3.7502 0
M  V30 8745 H 832.31 -2.77073 -3.26999 0
M  V30 8746 H 836.494 -3.75124 -3.24955 0
M  V30 8747 H 831.75 -5.16427 -3.27281 0
M  V30 8748 H 835.924 -6.15157 -3.26428 0
M  V30 8749 H 833.551 -6.86211 -3.27138 0
M  V30 8750 N 835.127 1.22348 -0.993418 0
M  V30 8751 C 836.543 1.43222 -0.704238 0
M  V30 8752 C 836.743 1.88009 0.724909 0
M  V30 8753 O 835.799 2.03429 1.49575 0
M  V30 8754 C 837.112 2.47328 -1.71025 0
M  V30 8755 C 838.66 2.61126 -1.72576 0
M  V30 8756 C 839.135 3.68453 -2.72041 0
M  V30 8757 N 840.626 3.75911 -2.70639 0
M  V30 8758 C 841.361 4.58551 -3.44266 0
M  V30 8759 N 840.857 5.45179 -4.27495 0
M  V30 8760 N 842.65 4.52866 -3.32969 0
M  V30 8761 H 834.801 0.915832 -1.91641 0
M  V30 8762 H 837.064 0.464283 -0.826526 0
M  V30 8763 H 836.77 2.21366 -2.73295 0
M  V30 8764 H 836.644 3.45939 -1.50353 0
M  V30 8765 H 839.031 2.86431 -0.710037 0
M  V30 8766 H 839.112 1.62787 -1.97317 0
M  V30 8767 H 838.756 3.43895 -3.73763 0
M  V30 8768 H 838.686 4.66362 -2.4457 0
M  V30 8769 H 841.177 3.14014 -2.10247 0
M  V30 8770 H 841.49 6.0526 -4.80499 0
M  V30 8771 H 839.835 5.44759 -4.31582 0
M  V30 8772 H 843.026 3.84215 -2.67389 0
M  V30 8773 H 843.199 5.17039 -3.90608 0
M  V30 8774 N 836.605 0.766683 1.37694 0
M  V30 8775 C 837.538 0.0959288 2.27998 0
M  V30 8776 C 838.516 -0.714493 1.46061 0
M  V30 8777 O 839.7 -0.690337 1.75404 0
M  V30 8778 C 836.827 -0.87057 3.27321 0
M  V30 8779 C 835.873 -0.144771 4.26254 0
M  V30 8780 S 836.706 1.16365 5.22704 0
M  V30 8781 C 837.862 0.200564 6.25579 0
M  V30 8782 H 838.095 0.861666 2.84539 0
M  V30 8783 H 835.628 0.559845 1.43893 0
M  V30 8784 H 837.586 -1.42282 3.85053 0
M  V30 8785 H 836.247 -1.60938 2.69737 0
M  V30 8786 H 835.44 -0.877259 4.96307 0
M  V30 8787 H 835.042 0.33633 3.72485 0
M  V30 8788 H 837.334 -0.628833 6.74575 0
M  V30 8789 H 838.277 0.869117 7.02746 0
M  V30 8790 H 838.685 -0.185972 5.64194 0
M  V30 8791 N 838.083 -1.48885 0.516809 0
M  V30 8792 C 839.33 -2.02488 -0.0220602 0
M  V30 8793 C 839.658 -1.39513 -1.35523 0
M  V30 8794 O 838.913 -0.52558 -1.8851 0
M  V30 8795 C 839.212 -3.56801 -0.206798 0
M  V30 8796 C 838.878 -4.38496 1.05035 0
M  V30 8797 C 837.54 -4.60538 1.39492 0
M  V30 8798 C 839.892 -4.85909 1.88525 0
M  V30 8799 C 837.22 -5.2724 2.57361 0
M  V30 8800 C 839.572 -5.53909 3.05561 0
M  V30 8801 C 838.236 -5.74193 3.4038 0
M  V30 8802 H 837.506 -0.740956 -0.00807238 0
M  V30 8803 H 840.153 -1.79014 0.680168 0
M  V30 8804 H 838.458 -3.79042 -0.991687 0
M  V30 8805 H 840.155 -3.95885 -0.638447 0
M  V30 8806 H 836.745 -4.2159 0.771984 0
M  V30 8807 H 840.929 -4.68694 1.63218 0
M  V30 8808 H 836.185 -5.41145 2.84556 0
M  V30 8809 H 840.359 -5.89619 3.7057 0
M  V30 8810 H 837.986 -6.25652 4.31814 0
M  V30 8811 N 839.561 -0.251338 -1.55583 0
M  V30 8812 C 840.972 0.25098 -1.85005 0
M  V30 8813 C 841.323 1.57259 -1.17321 0
M  V30 8814 O 840.448 2.11603 -0.453136 0
M  V30 8815 C 841.043 0.462161 -3.35633 0
M  V30 8816 C 839.602 0.908737 -3.65266 0
M  V30 8817 C 838.749 -0.0115418 -2.77298 0
M  V30 8818 H 841.7 -0.473782 -1.51463 0
M  V30 8819 H 841.721 1.30415 -3.57452 0
M  V30 8820 H 841.233 -0.499886 -3.84867 0
M  V30 8821 H 839.334 1.8831 -3.21512 0
M  V30 8822 H 839.447 0.762526 -4.72993 0
M  V30 8823 H 837.811 0.500612 -2.49732 0
M  V30 8824 H 838.594 -0.969042 -3.29339 0
M  V30 8825 N 841.039 1.57585 0.0217189 0
M  V30 8826 C 842.267 1.93871 0.722619 0
M  V30 8827 C 842.682 0.851706 1.68498 0
M  V30 8828 O 842.039 -0.17127 1.81695 0
M  V30 8829 C 842.09 3.30114 1.47333 0
M  V30 8830 O 841.811 4.34639 0.549597 0
M  V30 8831 C 843.312 3.80727 2.27072 0
M  V30 8832 H 840.532 0.639671 0.202637 0
M  V30 8833 H 843.076 2.04487 -0.0229414 0
M  V30 8834 H 841.231 3.20872 2.17071 0
M  V30 8835 H 841.645 5.13326 1.07686 0
M  V30 8836 H 843.119 4.78547 2.75131 0
M  V30 8837 H 843.596 3.12301 3.08812 0
M  V30 8838 H 844.202 3.93075 1.62395 0
M  V30 8839 N 842.517 -0.29412 1.54831 0
M  V30 8840 C 843.449 -1.38476 1.82639 0
M  V30 8841 C 844.462 -1.46517 0.709694 0
M  V30 8842 O 845.651 -1.48712 0.987269 0
M  V30 8843 C 842.751 -2.76791 1.95551 0
M  V30 8844 C 841.924 -2.91599 3.26019 0
M  V30 8845 C 840.983 -4.10456 3.29261 0
M  V30 8846 O 840.009 -4.02214 4.02756 0
M  V30 8847 N 841.211 -5.21422 2.55145 0
M  V30 8848 H 843.976 -1.14974 2.76769 0
M  V30 8849 H 841.537 -0.484206 1.5449 0
M  V30 8850 H 843.529 -3.5456 1.95113 0
M  V30 8851 H 842.099 -2.93209 1.08384 0
M  V30 8852 H 841.319 -2.00886 3.39173 0
M  V30 8853 H 842.607 -2.98409 4.12104 0
M  V30 8854 H 842.005 -5.31 1.95078 0
M  V30 8855 H 840.562 -5.97501 2.60454 0
M  V30 8856 N 843.995 -1.47404 -0.557645 0
M  V30 8857 C 845.243 -1.53703 -1.31224 0
M  V30 8858 C 845.564 -0.200742 -1.93964 0
M  V30 8859 O 844.834 0.775253 -1.79907 0
M  V30 8860 H 843.414 -0.566171 -0.487299 0
M  V30 8861 H 846.076 -1.83699 -0.651195 0
M  V30 8862 H 845.172 -2.30335 -2.10599 0
M  V30 8863 N 845.473 0.80434 -1.35529 0
M  V30 8864 C 846.72 1.56154 -1.28927 0
M  V30 8865 C 847.048 1.94026 0.135682 0
M  V30 8866 O 846.303 1.61759 1.10148 0
M  V30 8867 C 846.602 2.85988 -2.14349 0
M  V30 8868 C 846.268 2.67323 -3.6311 0
M  V30 8869 C 844.93 2.61941 -4.03659 0
M  V30 8870 C 847.282 2.49699 -4.57493 0
M  V30 8871 C 844.61 2.3688 -5.36754 0
M  V30 8872 C 846.962 2.26168 -5.90788 0
M  V30 8873 C 845.626 2.19209 -6.30479 0
M  V30 8874 H 844.896 0.571407 -0.471779 0
M  V30 8875 H 847.543 0.929193 -1.67446 0
M  V30 8876 H 845.848 3.53612 -1.68718 0
M  V30 8877 H 847.545 3.43697 -2.06576 0
M  V30 8878 H 844.135 2.72361 -3.30934 0
M  V30 8879 H 848.319 2.52869 -4.27049 0
M  V30 8880 H 843.575 2.29964 -5.66504 0
M  V30 8881 H 847.749 2.11522 -6.63499 0
M  V30 8882 H 845.376 1.99553 -7.33541 0
M  V30 8883 N 846.951 1.19563 1.02676 0
M  V30 8884 C 848.179 1.02488 1.79732 0
M  V30 8885 C 848.594 -0.426302 1.83924 0
M  V30 8886 O 847.951 -1.29609 1.28483 0
M  V30 8887 C 848.002 1.58944 3.24683 0
M  V30 8888 O 847.723 2.98382 3.2078 0
M  V30 8889 C 849.224 1.46681 4.1833 0
M  V30 8890 H 846.444 0.361098 0.565552 0
M  V30 8891 H 848.988 1.58426 1.29311 0
M  V30 8892 H 847.143 1.0715 3.72287 0
M  V30 8893 H 847.557 3.24983 4.11687 0
M  V30 8894 H 849.031 1.90959 5.17918 0
M  V30 8895 H 849.508 0.417663 4.3721 0
M  V30 8896 H 850.114 1.97616 3.76601 0
M  V30 8897 N 848.429 -1.21819 0.999893 0
M  V30 8898 C 849.339 -2.27691 0.565159 0
M  V30 8899 C 850.355 -1.69587 -0.389398 0
M  V30 8900 O 851.531 -1.99786 -0.254499 0
M  V30 8901 C 848.596 -3.46537 -0.106432 0
M  V30 8902 C 847.657 -4.19932 0.891964 0
M  V30 8903 C 846.89 -5.33103 0.252327 0
M  V30 8904 O 847.113 -5.62398 -0.952103 0
M  V30 8905 O 846.047 -5.94184 0.960698 0
M  V30 8906 H 849.873 -2.67059 1.44613 0
M  V30 8907 H 847.458 -1.28119 0.768499 0
M  V30 8908 H 849.34 -4.18631 -0.482301 0
M  V30 8909 H 848.015 -3.09079 -0.961865 0
M  V30 8910 H 846.922 -3.5008 1.3189 0
M  V30 8911 H 848.255 -4.61287 1.71682 0
M  V30 8912 N 849.908 -0.773975 -1.37286 0
M  V30 8913 C 851.157 -0.335977 -1.98882 0
M  V30 8914 C 851.47 1.09416 -1.62134 0
M  V30 8915 O 852.676 1.63366 -2.1685 0
M  V30 8916 C 851.132 -0.549756 -3.55676 0
M  V30 8917 C 850.74 -1.9903 -4.01361 0
M  V30 8918 C 852.484 -0.175493 -4.24137 0
M  V30 8919 C 850.391 -2.15156 -5.50874 0
M  V30 8920 H 849.321 -0.121877 -0.744085 0
M  V30 8921 H 851.972 -0.953419 -1.56787 0
M  V30 8922 H 850.354 0.137175 -3.95762 0
M  V30 8923 H 851.528 -2.71237 -3.72515 0
M  V30 8924 H 849.843 -2.32137 -3.4569 0
M  V30 8925 H 852.44 -0.274463 -5.33995 0
M  V30 8926 H 852.783 0.874524 -4.07011 0
M  V30 8927 H 853.316 -0.815058 -3.89361 0
M  V30 8928 H 850.055 -3.18485 -5.72929 0
M  V30 8929 H 849.575 -1.47435 -5.81397 0
M  V30 8930 H 851.254 -1.95124 -6.16876 0
M  V30 8931 N 851.386 1.48609 -0.524698 0
M  V30 8932 C 852.632 2.02797 0.0113382 0
M  V30 8933 C 852.965 1.40147 1.34433 0
M  V30 8934 O 852.24 0.545368 1.86698 0
M  V30 8935 C 852.523 3.59832 0.138931 0
M  V30 8936 C 852.376 4.32971 -1.21886 0
M  V30 8937 C 853.695 4.3145 0.868265 0
M  V30 8938 H 850.814 0.736995 0.00264645 0
M  V30 8939 H 853.456 1.77388 -0.680704 0
M  V30 8940 H 851.606 3.81612 0.72834 0
M  V30 8941 H 853.278 4.22624 -1.84897 0
M  V30 8942 H 851.521 3.94597 -1.80211 0
M  V30 8943 H 852.192 5.41279 -1.08263 0
M  V30 8944 H 854.668 4.14468 0.368145 0
M  V30 8945 H 853.544 5.41025 0.926428 0
M  V30 8946 H 853.805 3.98358 1.91737 0
M  V30 8947 N 852.864 0.259585 1.55447 0
M  V30 8948 C 854.111 -0.361607 1.99245 0
M  V30 8949 C 854.439 -1.57017 1.14787 0
M  V30 8950 O 853.694 -1.94658 0.201724 0
M  V30 8951 C 853.993 -0.802727 3.48269 0
M  V30 8952 C 853.659 0.299472 4.49904 0
M  V30 8953 C 852.321 0.602157 4.77418 0
M  V30 8954 C 854.673 1.04295 5.10658 0
M  V30 8955 C 852.001 1.65217 5.62957 0
M  V30 8956 C 854.353 2.08257 5.97337 0
M  V30 8957 C 853.017 2.39177 6.23178 0
M  V30 8958 H 852.287 -0.132322 0.72909 0
M  V30 8959 H 854.934 0.370059 1.8789 0
M  V30 8960 H 853.239 -1.61381 3.5702 0
M  V30 8961 H 854.936 -1.29385 3.79553 0
M  V30 8962 H 851.526 0.0534256 4.28567 0
M  V30 8963 H 855.71 0.822358 4.89439 0
M  V30 8964 H 850.966 1.89692 5.81229 0
M  V30 8965 H 855.14 2.6635 6.43452 0
M  V30 8966 H 852.767 3.20677 6.89253 0
M  V30 8967 N 854.342 -1.57594 -0.0133615 0
M  V30 8968 C 855.582 -1.91834 -0.705639 0
M  V30 8969 C 855.946 -0.859801 -1.71672 0
M  V30 8970 O 857.147 -1.08702 -2.4584 0
M  V30 8971 C 855.418 -3.31174 -1.34383 0
M  V30 8972 S 856.977 -3.87275 -2.06309 0
M  V30 8973 H 853.795 -0.671598 -0.233404 0
M  V30 8974 H 856.397 -1.95459 0.0401173 0
M  V30 8975 H 855.101 -4.06065 -0.594939 0
M  V30 8976 H 854.632 -3.3089 -2.12781 0
M  V30 8977 H 856.647 -3.67271 -3.33657 0
M  V30 8978 N 855.82 0.285905 -1.54985 0
M  V30 8979 C 856.783 1.33625 -1.86218 0
M  V30 8980 C 857.783 1.42971 -0.735936 0
M  V30 8981 O 858.973 1.42345 -1.00417 0
M  V30 8982 C 856.105 2.71926 -2.05595 0
M  V30 8983 H 857.298 1.07167 -2.80099 0
M  V30 8984 H 854.851 0.523335 -1.47278 0
M  V30 8985 H 855.586 3.03583 -1.14053 0
M  V30 8986 H 855.371 2.6653 -2.87583 0
M  V30 8987 H 856.861 3.47841 -2.31077 0
M  V30 8988 N 857.298 1.47698 0.54982 0
M  V30 8989 C 858.544 1.54931 1.30859 0
M  V30 8990 C 858.877 0.214021 1.93017 0
M  V30 8991 O 858.152 -0.778093 1.78258 0
M  V30 8992 C 858.435 2.67286 2.41309 0
M  V30 8993 C 858.288 4.10457 1.83971 0
M  V30 8994 C 859.607 2.75509 3.43195 0
M  V30 8995 H 856.726 0.56399 0.474431 0
M  V30 8996 H 859.368 1.79787 0.614541 0
M  V30 8997 H 857.518 2.46224 3.0051 0
M  V30 8998 H 859.19 4.42903 1.28974 0
M  V30 8999 H 857.433 4.18387 1.14606 0
M  V30 9000 H 858.104 4.84857 2.63851 0
M  V30 9001 H 860.58 2.94531 2.93923 0
M  V30 9002 H 859.456 3.55886 4.17895 0
M  V30 9003 H 859.717 1.82863 4.02509 0
M  V30 9004 N 858.776 -0.797141 1.35954 0
M  V30 9005 C 860.004 -1.5858 1.32891 0
M  V30 9006 C 860.419 -1.88578 -0.0915564 0
M  V30 9007 O 859.776 -1.49532 -1.04625 0
M  V30 9008 C 859.827 -2.91143 2.14284 0
M  V30 9009 O 859.548 -2.62442 3.50793 0
M  V30 9010 C 861.049 -3.85476 2.18914 0
M  V30 9011 H 858.269 -0.492111 0.456144 0
M  V30 9012 H 860.813 -0.98994 1.78943 0
M  V30 9013 H 858.968 -3.47219 1.71807 0
M  V30 9014 H 859.382 -3.4715 3.93175 0
M  V30 9015 H 860.856 -4.75574 2.80238 0
M  V30 9016 H 861.333 -4.22758 1.19047 0
M  V30 9017 H 861.939 -3.35334 2.61593 0
M  V30 9018 N 860.254 -1.20106 -1.0204 0
M  V30 9019 C 861.479 -1.0351 -1.79723 0
M  V30 9020 C 861.904 0.411328 -1.83548 0
M  V30 9021 O 861.262 1.29608 -1.26773 0
M  V30 9022 C 861.31 -1.61876 -3.22224 0
M  V30 9023 O 860.414 -0.853813 -4.03465 0
M  V30 9024 H 859.755 -0.365299 -0.554484 0
M  V30 9025 H 862.285 -1.59316 -1.28373 0
M  V30 9026 H 862.295 -1.65451 -3.72948 0
M  V30 9027 H 860.97 -2.67148 -3.18755 0
M  V30 9028 H 859.547 -0.891983 -3.62075 0
M  V30 9029 N 861.732 1.21287 -1.00634 0
M  V30 9030 C 862.68 2.25733 -0.561026 0
M  V30 9031 C 863.674 1.64728 0.395095 0
M  V30 9032 O 864.88 1.78022 0.266141 0
M  V30 9033 H 861.255 0.734104 -0.163081 0
M  V30 9034 H 863.226 2.60631 -1.45307 0
M  V30 9035 C 861.975 3.47569 0.0952587 0
M  V30 9036 H 861.298 3.94782 -0.631427 0
M  V30 9037 H 862.738 4.22382 0.370105 0
M  V30 9038 C 861.197 3.09326 1.33488 0
M  V30 9039 O 861.727 3.19933 2.42912 0
M  V30 9040 N 859.933 2.63976 1.21512 0
M  V30 9041 H 859.48 2.55545 0.324741 0
M  V30 9042 H 859.438 2.38757 2.04555 0
M  V30 9043 N 863.21 0.781244 1.36873 0
M  V30 9044 C 864.12 0.174981 2.33947 0
M  V30 9045 C 865.136 -0.668512 1.60645 0
M  V30 9046 O 866.312 -0.586213 1.9268 0
M  V30 9047 C 863.377 -0.686557 3.39834 0
M  V30 9048 C 862.438 0.174489 4.28945 0
M  V30 9049 C 861.671 -0.646024 5.29776 0
M  V30 9050 O 861.894 -1.88254 5.38439 0
M  V30 9051 O 860.828 -0.0502214 6.01879 0
M  V30 9052 H 864.654 0.977382 2.87543 0
M  V30 9053 H 862.239 0.542559 1.392 0
M  V30 9054 H 864.121 -1.1781 4.04597 0
M  V30 9055 H 862.796 -1.46699 2.8855 0
M  V30 9056 H 861.703 0.712604 3.6725 0
M  V30 9057 H 863.036 0.918232 4.83559 0
M  V30 9058 N 864.689 -1.48329 0.532571 0
M  V30 9059 C 865.621 -2.27652 -0.265931 0
M  V30 9060 C 866.634 -1.35522 -0.902083 0
M  V30 9061 O 867.823 -1.60552 -0.780088 0
M  V30 9062 C 864.923 -3.0899 -1.39207 0
M  V30 9063 C 864.096 -4.28915 -0.857349 0
M  V30 9064 C 863.155 -4.92044 -1.86493 0
M  V30 9065 O 862.181 -5.51181 -1.42084 0
M  V30 9066 N 863.383 -4.84518 -3.19723 0
M  V30 9067 H 866.148 -2.96821 0.414389 0
M  V30 9068 H 863.709 -1.57684 0.367066 0
M  V30 9069 H 865.701 -3.48091 -2.06433 0
M  V30 9070 H 864.271 -2.42224 -1.97601 0
M  V30 9071 H 863.491 -3.94199 -0.00901765 0
M  V30 9072 H 864.779 -5.0654 -0.479025 0
M  V30 9073 H 864.177 -4.37628 -3.58467 0
M  V30 9074 H 862.734 -5.27712 -3.82575 0
M  V30 9075 N 866.167 -0.267825 -1.55308 0
M  V30 9076 C 867.413 0.351556 -1.9973 0
M  V30 9077 C 867.746 1.56049 -1.15596 0
M  V30 9078 O 867.021 1.93203 -0.224274 0
M  V30 9079 C 867.304 0.74091 -3.52395 0
M  V30 9080 C 867.157 -0.474861 -4.47286 0
M  V30 9081 C 868.476 1.5801 -4.10756 0
M  V30 9082 H 865.595 0.126308 -0.726096 0
M  V30 9083 H 868.237 -0.373316 -1.86296 0
M  V30 9084 H 866.387 1.35851 -3.63973 0
M  V30 9085 H 868.059 -1.1134 -4.47662 0
M  V30 9086 H 866.302 -1.11425 -4.19246 0
M  V30 9087 H 866.973 -0.158782 -5.51772 0
M  V30 9088 H 869.449 1.05857 -4.0241 0
M  V30 9089 H 868.325 1.82135 -5.17801 0
M  V30 9090 H 868.586 2.55878 -3.60526 0
M  V30 9091 N 867.645 1.57599 0.00500368 0
M  V30 9092 C 868.592 2.08106 0.998025 0
M  V30 9093 C 869.562 0.975374 1.34446 0
M  V30 9094 O 870.747 1.24749 1.44369 0
M  V30 9095 C 867.887 2.58496 2.28635 0
M  V30 9096 C 867 3.82947 1.99939 0
M  V30 9097 C 866.135 4.21857 3.22816 0
M  V30 9098 C 865.174 5.39159 2.89783 0
M  V30 9099 N 864.311 5.73386 4.05183 0
M  V30 9100 H 869.151 2.92684 0.560385 0
M  V30 9101 H 866.688 1.44692 0.265053 0
M  V30 9102 H 868.646 2.85787 3.03943 0
M  V30 9103 H 867.276 1.768 2.70077 0
M  V30 9104 H 866.328 3.62594 1.1502 0
M  V30 9105 H 867.64 4.68358 1.71588 0
M  V30 9106 H 866.794 4.50404 4.06474 0
M  V30 9107 H 865.533 3.35145 3.54301 0
M  V30 9108 H 864.538 5.1034 2.04532 0
M  V30 9109 H 865.763 6.27543 2.59551 0
M  V30 9110 H 863.709 4.89632 4.36574 0
M  V30 9111 H 863.626 6.53359 3.80339 0
M  V30 9112 H 864.894 6.06522 4.89644 0
M  V30 9113 N 869.123 -0.277682 1.55134 0
M  V30 9114 C 870.371 -1.00791 1.75173 0
M  V30 9115 C 870.692 -1.86987 0.553266 0
M  V30 9116 O 869.962 -1.91079 -0.43195 0
M  V30 9117 H 868.542 -0.375129 0.645978 0
M  V30 9118 H 871.204 -0.303041 1.9253 0
M  V30 9119 H 870.3 -1.64756 2.6507 0
M  V30 9120 N 870.601 -1.47988 -0.541979 0
M  V30 9121 C 871.831 -1.58804 -1.32155 0
M  V30 9122 C 872.239 -0.242893 -1.87634 0
M  V30 9123 O 871.582 0.776239 -1.66494 0
M  V30 9124 C 871.644 -2.56567 -2.51821 0
M  V30 9125 C 871.308 -4.01915 -2.17517 0
M  V30 9126 C 872.305 -4.89954 -1.73901 0
M  V30 9127 C 869.99 -4.47365 -2.28408 0
M  V30 9128 C 871.984 -6.21467 -1.41625 0
M  V30 9129 C 869.671 -5.78902 -1.95745 0
M  V30 9130 C 870.669 -6.65775 -1.52423 0
M  V30 9131 O 870.357 -7.94866 -1.20183 0
M  V30 9132 H 870.089 -0.538536 -0.408601 0
M  V30 9133 H 872.643 -1.94446 -0.661818 0
M  V30 9134 H 870.873 -2.16023 -3.20735 0
M  V30 9135 H 872.562 -2.57347 -3.13891 0
M  V30 9136 H 873.328 -4.56082 -1.64966 0
M  V30 9137 H 869.207 -3.79942 -2.61084 0
M  V30 9138 H 872.751 -6.8923 -1.07738 0
M  V30 9139 H 868.648 -6.12311 -2.04316 0
M  V30 9140 H 869.416 -8.07509 -1.33683 0
M  V30 9141 N 872.079 0.78992 -1.36375 0
M  V30 9142 C 873.327 1.54472 -1.30319 0
M  V30 9143 C 873.648 1.94647 0.117338 0
M  V30 9144 O 872.918 1.64906 1.05748 0
M  V30 9145 H 871.498 0.572879 -0.479394 0
M  V30 9146 H 874.16 0.941245 -1.70665 0
M  V30 9147 H 873.256 2.45252 -1.93024 0
M  V30 9148 N 873.557 1.20646 1.01402 0
M  V30 9149 C 874.785 1.04389 1.78635 0
M  V30 9150 C 875.2 -0.406771 1.84366 0
M  V30 9151 O 874.557 -1.28239 1.2985 0
M  V30 9152 C 874.608 1.62378 3.22979 0
M  V30 9153 O 874.329 3.01768 3.17597 0
M  V30 9154 C 875.83 1.5111 4.1675 0
M  V30 9155 H 873.05 0.367077 0.56169 0
M  V30 9156 H 875.594 1.59789 1.27624 0
M  V30 9157 H 873.749 1.11092 3.7113 0
M  V30 9158 H 874.163 3.29331 4.08217 0
M  V30 9159 H 875.637 1.96441 5.15863 0
M  V30 9160 H 876.114 0.464011 4.36742 0
M  V30 9161 H 876.72 2.01599 3.74483 0
M  V30 9162 N 875.035 -1.20752 1.01276 0
M  V30 9163 C 875.985 -2.21252 0.550602 0
M  V30 9164 C 876.969 -1.56052 -0.391985 0
M  V30 9165 O 878.161 -1.75682 -0.215575 0
M  V30 9166 C 875.29 -3.43112 -0.113601 0
M  V30 9167 C 874.376 -4.15485 0.850465 0
M  V30 9168 N 874.767 -4.64301 2.00643 0
M  V30 9169 C 873.065 -4.40932 0.670476 0
M  V30 9170 C 873.766 -5.197 2.61317 0
M  V30 9171 N 872.742 -5.09534 1.8941 0
M  V30 9172 H 876.544 -2.56657 1.43194 0
M  V30 9173 H 874.058 -1.36646 0.877597 0
M  V30 9174 H 876.055 -4.1433 -0.462211 0
M  V30 9175 H 874.715 -3.09213 -0.990825 0
M  V30 9176 H 875.726 -4.59637 2.38651 0
M  V30 9177 H 872.403 -4.17197 -0.159016 0
M  V30 9178 H 873.793 -5.67873 3.59123 0
M  V30 9179 N 876.513 -0.788492 -1.36457 0
M  V30 9180 C 877.443 -0.200468 -2.32638 0
M  V30 9181 C 878.424 0.664031 -1.56603 0
M  V30 9182 O 879.609 0.598045 -1.84762 0
M  V30 9183 C 876.739 0.666274 -3.40849 0
M  V30 9184 C 875.693 -0.0982574 -4.27887 0
M  V30 9185 C 875.019 0.889018 -5.27258 0
M  V30 9186 C 876.319 -1.28692 -5.06197 0
M  V30 9187 H 878.013 -1.00399 -2.82065 0
M  V30 9188 H 875.559 -0.484237 -1.35614 0
M  V30 9189 H 877.512 1.08757 -4.07124 0
M  V30 9190 H 876.236 1.50249 -2.89987 0
M  V30 9191 H 874.895 -0.500525 -3.63167 0
M  V30 9192 H 874.543 1.72024 -4.7267 0
M  V30 9193 H 874.243 0.381909 -5.86358 0
M  V30 9194 H 875.767 1.30891 -5.96406 0
M  V30 9195 H 877.181 -0.941429 -5.65517 0
M  V30 9196 H 875.578 -1.72726 -5.74705 0
M  V30 9197 H 876.648 -2.08273 -4.37893 0
M  V30 9198 N 877.991 1.48044 -0.54043 0
M  V30 9199 C 878.924 2.26667 0.264083 0
M  V30 9200 C 879.902 1.32996 0.935456 0
M  V30 9201 O 881.086 1.62354 0.95778 0
M  V30 9202 C 878.213 3.09541 1.37485 0
M  V30 9203 C 877.259 4.18664 0.813792 0
M  V30 9204 S 878.092 5.34503 -0.326536 0
M  V30 9205 C 879.248 6.20939 0.786452 0
M  V30 9206 H 879.481 2.94554 -0.403129 0
M  V30 9207 H 877.014 1.5091 -0.326415 0
M  V30 9208 H 878.972 3.57863 2.01107 0
M  V30 9209 H 877.633 2.41048 2.01382 0
M  V30 9210 H 876.826 4.76316 1.6474 0
M  V30 9211 H 876.428 3.73136 0.254066 0
M  V30 9212 H 878.72 6.56273 1.68262 0
M  V30 9213 H 879.663 7.07667 0.247673 0
M  V30 9214 H 880.071 5.54236 1.07156 0
M  V30 9215 N 879.47 0.276058 1.55163 0
M  V30 9216 C 880.418 -0.626978 2.2399 0
M  V30 9217 C 881.412 -1.15708 1.23725 0
M  V30 9218 O 882.618 -1.1106 1.41653 0
M  V30 9219 H 878.993 -0.220742 0.718872 0
M  V30 9220 H 880.964 -0.0236569 2.98391 0
M  V30 9221 C 879.713 -1.79935 2.97521 0
M  V30 9222 H 879.036 -1.40064 3.74463 0
M  V30 9223 H 880.476 -2.40781 3.48999 0
M  V30 9224 C 878.935 -2.68838 2.03046 0
M  V30 9225 O 879.465 -3.69224 1.58229 0
M  V30 9226 N 877.671 -2.36028 1.69527 0
M  V30 9227 H 877.218 -1.54442 2.06169 0
M  V30 9228 H 877.176 -2.95782 1.06586 0
M  V30 9229 N 880.948 -1.576 0.00335426 0
M  V30 9230 C 881.898 -2.05116 -0.995562 0
M  V30 9231 C 882.882 -0.946535 -1.30113 0
M  V30 9232 O 884.074 -1.21028 -1.29156 0
M  V30 9233 C 881.203 -2.56077 -2.28648 0
M  V30 9234 C 880.289 -3.73422 -2.0104 0
M  V30 9235 N 880.68 -4.84986 -1.43603 0
M  V30 9236 C 878.978 -3.81416 -2.31166 0
M  V30 9237 C 879.679 -5.66399 -1.32542 0
M  V30 9238 N 878.655 -5.12505 -1.81218 0
M  V30 9239 H 882.457 -2.88783 -0.546025 0
M  V30 9240 H 879.971 -1.61135 -0.202265 0
M  V30 9241 H 881.968 -2.88395 -3.01055 0
M  V30 9242 H 880.628 -1.73829 -2.74251 0
M  V30 9243 H 881.639 -5.05768 -1.11439 0
M  V30 9244 H 878.316 -3.1003 -2.7962 0
M  V30 9245 H 879.706 -6.66066 -0.88348 0
M  V30 9246 N 882.426 0.269451 -1.5528 0
M  V30 9247 C 883.356 1.33729 -1.91413 0
M  V30 9248 C 884.337 1.51348 -0.776391 0
M  V30 9249 O 885.522 1.64332 -1.03482 0
M  V30 9250 C 882.652 2.69618 -2.18914 0
M  V30 9251 C 881.606 2.66725 -3.34726 0
M  V30 9252 C 880.932 4.06199 -3.47716 0
M  V30 9253 C 882.232 2.25684 -4.71025 0
M  V30 9254 H 883.926 1.03736 -2.80854 0
M  V30 9255 H 881.472 0.497579 -1.3513 0
M  V30 9256 H 883.425 3.44436 -2.42779 0
M  V30 9257 H 882.149 3.01201 -1.26275 0
M  V30 9258 H 880.808 1.94365 -3.10834 0
M  V30 9259 H 880.456 4.3501 -2.52537 0
M  V30 9260 H 880.156 4.05157 -4.25583 0
M  V30 9261 H 881.68 4.8275 -3.73877 0
M  V30 9262 H 883.094 2.90225 -4.94411 0
M  V30 9263 H 881.491 2.35797 -5.51833 0
M  V30 9264 H 882.561 1.20819 -4.69607 0
M  V30 9265 N 883.904 1.48273 0.534124 0
M  V30 9266 C 884.851 1.62487 1.6391 0
M  V30 9267 C 885.821 0.467062 1.59398 0
M  V30 9268 O 887.006 0.690029 1.77885 0
M  V30 9269 C 884.146 1.66671 3.02183 0
M  V30 9270 C 883.259 2.9353 3.16961 0
M  V30 9271 C 882.394 2.88902 4.45768 0
M  V30 9272 C 881.433 4.10483 4.54059 0
M  V30 9273 N 880.57 4.03956 5.74251 0
M  V30 9274 H 885.41 2.56851 1.51101 0
M  V30 9275 H 882.947 1.27381 0.735704 0
M  V30 9276 H 884.905 1.67079 3.82283 0
M  V30 9277 H 883.535 0.758011 3.13774 0
M  V30 9278 H 882.587 3.02886 2.3014 0
M  V30 9279 H 883.899 3.83501 3.18949 0
M  V30 9280 H 883.053 2.87688 5.34154 0
M  V30 9281 H 881.792 1.96652 4.46295 0
M  V30 9282 H 880.797 4.11977 3.64081 0
M  V30 9283 H 882.022 5.03887 4.55274 0
M  V30 9284 H 879.968 3.14525 5.75682 0
M  V30 9285 H 879.885 4.87628 5.77715 0
M  V30 9286 H 881.153 4.06795 6.64935 0
M  V30 9287 N 885.382 -0.782676 1.36792 0
M  V30 9288 C 886.292 -1.92679 1.33835 0
M  V30 9289 C 887.308 -1.72344 0.23952 0
M  V30 9290 O 888.484 -1.95766 0.473045 0
M  V30 9291 C 885.549 -3.27644 1.1336 0
M  V30 9292 C 884.61 -3.6071 2.32781 0
M  V30 9293 C 883.843 -4.89234 2.13273 0
M  V30 9294 O 884.066 -5.59468 1.11136 0
M  V30 9295 O 883 -5.21112 3.01208 0
M  V30 9296 H 886.826 -1.98124 2.30175 0
M  V30 9297 H 884.411 -0.923887 1.17408 0
M  V30 9298 H 886.293 -4.08394 1.03886 0
M  V30 9299 H 884.968 -3.23076 0.200868 0
M  V30 9300 H 883.875 -2.80238 2.47825 0
M  V30 9301 H 885.208 -3.70008 3.24584 0
M  V30 9302 N 886.86 -1.21182 -1.00761 0
M  V30 9303 C 888.09 -1.05182 -1.77821 0
M  V30 9304 C 888.498 0.401527 -1.8489 0
M  V30 9305 O 887.841 1.29042 -1.30743 0
M  V30 9306 C 887.903 -1.57066 -3.23374 0
M  V30 9307 C 887.567 -3.05491 -3.39889 0
M  V30 9308 C 888.564 -4.03065 -3.28381 0
M  V30 9309 C 886.249 -3.44641 -3.65415 0
M  V30 9310 C 888.243 -5.37778 -3.4216 0
M  V30 9311 C 885.93 -4.79507 -3.78836 0
M  V30 9312 C 886.928 -5.75884 -3.67214 0
M  V30 9313 O 886.616 -7.08304 -3.80212 0
M  V30 9314 H 886.348 -0.369983 -0.565763 0
M  V30 9315 H 888.902 -1.60914 -1.27655 0
M  V30 9316 H 887.132 -0.957273 -3.74664 0
M  V30 9317 H 888.821 -1.36949 -3.82099 0
M  V30 9318 H 889.587 -3.74163 -3.08588 0
M  V30 9319 H 885.466 -2.7016 -3.73544 0
M  V30 9320 H 889.01 -6.12987 -3.33005 0
M  V30 9321 H 884.907 -5.08096 -3.98132 0
M  V30 9322 H 885.675 -7.15677 -3.97175 0
M  V30 9323 N 888.338 1.20213 -1.01915 0
M  V30 9324 C 889.288 2.20957 -0.562327 0
M  V30 9325 C 890.272 1.56258 0.383704 0
M  V30 9326 O 891.464 1.75794 0.206255 0
M  V30 9327 C 888.593 3.43167 0.0954035 0
M  V30 9328 C 887.679 4.15028 -0.872487 0
M  V30 9329 N 888.07 4.63231 -2.03103 0
M  V30 9330 C 886.368 4.4057 -0.69385 0
M  V30 9331 C 887.069 5.18307 -2.64069 0
M  V30 9332 N 886.045 5.08522 -1.9211 0
M  V30 9333 H 889.847 2.55894 -1.44553 0
M  V30 9334 H 887.361 1.36178 -0.884831 0
M  V30 9335 H 889.358 4.14569 0.440232 0
M  V30 9336 H 888.018 3.09734 0.974413 0
M  V30 9337 H 889.029 4.58365 -2.41086 0
M  V30 9338 H 885.706 4.17276 0.136889 0
M  V30 9339 H 887.096 5.65961 -3.6213 0
M  V30 9340 N 889.816 0.795718 1.36037 0
M  V30 9341 C 891.065 0.367575 1.98322 0
M  V30 9342 C 891.378 -1.06823 1.63854 0
M  V30 9343 O 892.584 -1.59895 2.19421 0
M  V30 9344 C 891.04 0.606272 3.54757 0
M  V30 9345 C 890.648 2.0539 3.98144 0
M  V30 9346 C 892.392 0.242947 4.23804 0
M  V30 9347 C 890.299 2.23893 5.47381 0
M  V30 9348 H 889.229 0.133699 0.742052 0
M  V30 9349 H 891.88 0.978242 1.5525 0
M  V30 9350 H 890.262 -0.0741957 3.9593 0
M  V30 9351 H 891.436 2.77129 3.68152 0
M  V30 9352 H 889.751 2.37607 3.41953 0
M  V30 9353 H 892.348 0.359382 5.33491 0
M  V30 9354 H 892.691 -0.809661 4.08351 0
M  V30 9355 H 893.224 0.876899 3.88015 0
M  V30 9356 H 889.963 3.27559 5.6779 0
M  V30 9357 H 889.483 1.56666 5.78978 0
M  V30 9358 H 891.162 2.04914 6.13693 0
M  V30 9359 N 891.294 -1.47756 0.548274 0
M  V30 9360 C 892.241 -2.29893 -0.204408 0
M  V30 9361 C 893.211 -1.38509 -0.916761 0
M  V30 9362 O 894.396 -1.67472 -0.91421 0
M  V30 9363 C 891.536 -3.22282 -1.23403 0
M  V30 9364 C 890.649 -4.28753 -0.528654 0
M  V30 9365 C 889.784 -5.08303 -1.54279 0
M  V30 9366 C 888.823 -6.06557 -0.821893 0
M  V30 9367 N 887.96 -6.79098 -1.78243 0
M  V30 9368 H 892.8 -2.93739 0.502163 0
M  V30 9369 H 890.337 -1.44793 0.259471 0
M  V30 9370 H 892.295 -3.74262 -1.84348 0
M  V30 9371 H 890.925 -2.6032 -1.90875 0
M  V30 9372 H 889.977 -3.79899 0.195132 0
M  V30 9373 H 891.289 -4.98787 0.0365066 0
M  V30 9374 H 890.443 -5.64388 -2.22602 0
M  V30 9375 H 889.182 -4.3815 -2.14186 0
M  V30 9376 H 888.187 -5.49659 -0.12469 0
M  V30 9377 H 889.412 -6.78715 -0.228685 0
M  V30 9378 H 887.358 -6.11682 -2.37025 0
M  V30 9379 H 887.275 -7.4527 -1.26919 0
M  V30 9380 H 888.543 -7.39762 -2.45709 0
M  V30 9381 N 892.772 -0.284283 -1.55015 0
M  V30 9382 C 893.722 0.613913 -2.19579 0
M  V30 9383 C 894.706 1.11153 -1.16335 0
M  V30 9384 O 895.898 1.05508 -1.42116 0
M  V30 9385 C 893.027 1.79329 -2.92739 0
M  V30 9386 C 892.113 1.31242 -4.03282 0
M  V30 9387 N 892.504 0.548344 -5.02819 0
M  V30 9388 C 890.802 1.5946 -4.1652 0
M  V30 9389 C 891.503 0.294358 -5.80955 0
M  V30 9390 N 890.479 0.869406 -5.36603 0
M  V30 9391 H 894.281 0.0224088 -2.93891 0
M  V30 9392 H 891.795 -0.0882619 -1.6216 0
M  V30 9393 H 893.792 2.44814 -3.37449 0
M  V30 9394 H 892.452 2.38865 -2.1994 0
M  V30 9395 H 893.463 0.194812 -5.17533 0
M  V30 9396 H 890.14 2.19866 -3.54916 0
M  V30 9397 H 891.53 -0.318195 -6.71146 0
M  V30 9398 N 894.251 1.57596 -0.0117121 0
M  V30 9399 C 895.199 2.1029 0.994035 0
M  V30 9400 C 896.193 1.02549 1.34833 0
M  V30 9401 O 897.399 1.21003 1.3326 0
M  V30 9402 H 893.774 0.671624 0.338268 0
M  V30 9403 H 895.745 2.93761 0.524147 0
M  V30 9404 C 894.494 2.63099 2.27319 0
M  V30 9405 H 893.817 3.45642 2.00927 0
M  V30 9406 H 895.257 3.03635 2.95942 0
M  V30 9407 C 893.716 1.55044 2.99104 0
M  V30 9408 O 894.246 0.940127 3.90544 0
M  V30 9409 N 892.452 1.27506 2.61133 0
M  V30 9410 H 891.999 1.77322 1.86855 0
M  V30 9411 H 891.957 0.554292 3.09475 0
M  V30 9412 N 895.729 -0.261212 1.5542 0
M  V30 9413 C 896.978 -0.989072 1.75785 0
M  V30 9414 C 897.291 -1.8702 0.572961 0
M  V30 9415 O 898.497 -2.63374 0.659289 0
M  V30 9416 C 896.953 -1.80857 3.11157 0
M  V30 9417 C 896.561 -0.975535 4.3725 0
M  V30 9418 C 898.305 -2.53003 3.40866 0
M  V30 9419 C 896.212 -1.7901 5.63657 0
M  V30 9420 H 895.142 -0.373019 0.655266 0
M  V30 9421 H 897.793 -0.244267 1.81867 0
M  V30 9422 H 896.175 -2.59479 2.99144 0
M  V30 9423 H 897.349 -0.232661 4.60212 0
M  V30 9424 H 895.664 -0.368083 4.1477 0
M  V30 9425 H 898.261 -3.14372 4.32521 0
M  V30 9426 H 898.604 -3.23891 2.61535 0
M  V30 9427 H 899.137 -1.81403 3.54031 0
M  V30 9428 H 895.876 -1.12522 6.4577 0
M  V30 9429 H 895.396 -2.50863 5.44819 0
M  V30 9430 H 897.075 -2.36082 6.0239 0
M  V30 9431 N 897.207 -1.48554 -0.526253 0
M  V30 9432 C 898.137 -1.66252 -1.63959 0
M  V30 9433 C 899.118 -0.511351 -1.62232 0
M  V30 9434 O 900.303 -0.744322 -1.7937 0
M  V30 9435 C 897.433 -1.70556 -3.02536 0
M  V30 9436 C 896.387 -2.8521 -3.19123 0
M  V30 9437 C 895.713 -2.74606 -4.58798 0
M  V30 9438 C 897.013 -4.26463 -3.0154 0
M  V30 9439 H 898.707 -2.59459 -1.49404 0
M  V30 9440 H 896.253 -1.24862 -0.717326 0
M  V30 9441 H 898.206 -1.81524 -3.80298 0
M  V30 9442 H 896.93 -0.739297 -3.18123 0
M  V30 9443 H 895.589 -2.73802 -2.43779 0
M  V30 9444 H 895.237 -1.75941 -4.71226 0
M  V30 9445 H 894.937 -3.51544 -4.70841 0
M  V30 9446 H 896.461 -2.87548 -5.38655 0
M  V30 9447 H 897.875 -4.38685 -3.69091 0
M  V30 9448 H 896.272 -5.04428 -3.25073 0
M  V30 9449 H 897.342 -4.42667 -1.97925 0
M  V30 9450 N 898.685 0.775411 -1.37205 0
M  V30 9451 C 899.915 1.56219 -1.352 0
M  V30 9452 C 900.323 1.89087 0.065456 0
M  V30 9453 O 899.666 1.51655 1.03665 0
M  V30 9454 C 899.728 2.9019 -2.12203 0
M  V30 9455 C 899.392 2.79978 -3.61195 0
M  V30 9456 C 900.389 2.51258 -4.55154 0
M  V30 9457 C 898.074 2.98115 -4.04268 0
M  V30 9458 C 900.068 2.40798 -5.90165 0
M  V30 9459 C 897.755 2.87276 -5.39366 0
M  V30 9460 C 898.753 2.58657 -6.32128 0
M  V30 9461 O 898.441 2.47838 -7.64743 0
M  V30 9462 H 898.173 0.490735 -0.464925 0
M  V30 9463 H 900.727 0.969201 -1.81096 0
M  V30 9464 H 898.957 3.51594 -1.60992 0
M  V30 9465 H 900.646 3.51561 -2.02879 0
M  V30 9466 H 901.412 2.36935 -4.23186 0
M  V30 9467 H 897.291 3.19392 -3.3243 0
M  V30 9468 H 900.835 2.18381 -6.62537 0
M  V30 9469 H 896.732 3.01166 -5.70937 0
M  V30 9470 H 897.5 2.63215 -7.75023 0
M  V30 9471 N 900.163 1.21714 1.00117 0
M  V30 9472 C 901.41 1.0367 1.73951 0
M  V30 9473 C 901.738 -0.429289 1.89703 0
M  V30 9474 O 900.993 -1.33475 1.43119 0
M  V30 9475 C 901.292 1.68345 3.15269 0
M  V30 9476 C 900.958 3.18214 3.19454 0
M  V30 9477 C 899.62 3.59109 3.20303 0
M  V30 9478 C 901.972 4.14179 3.16394 0
M  V30 9479 C 899.3 4.94467 3.15783 0
M  V30 9480 C 901.652 5.49502 3.13416 0
M  V30 9481 C 900.316 5.8979 3.12577 0
M  V30 9482 H 899.586 0.379355 0.63653 0
M  V30 9483 H 902.233 1.51361 1.17312 0
M  V30 9484 H 900.538 1.12957 3.75164 0
M  V30 9485 H 902.235 1.51882 3.71124 0
M  V30 9486 H 898.825 2.85646 3.19538 0
M  V30 9487 H 903.009 3.83607 3.14895 0
M  V30 9488 H 898.265 5.24923 3.13473 0
M  V30 9489 H 902.439 6.23595 3.10003 0
M  V30 9490 H 900.066 6.94643 3.08829 0
M  V30 9491 N 901.641 -1.19671 1.02551 0
M  V30 9492 C 902.571 -2.25009 0.623965 0
M  V30 9493 C 903.552 -1.66129 -0.36538 0
M  V30 9494 O 904.737 -1.92599 -0.248842 0
M  V30 9495 C 901.867 -3.47287 -0.0294869 0
M  V30 9496 C 900.821 -4.18818 0.881781 0
M  V30 9497 C 900.147 -5.34618 0.0936189 0
M  V30 9498 C 901.447 -4.73986 2.19396 0
M  V30 9499 H 903.141 -2.58851 1.50454 0
M  V30 9500 H 900.687 -1.24425 0.724872 0
M  V30 9501 H 902.64 -4.20168 -0.322016 0
M  V30 9502 H 901.364 -3.12635 -0.944838 0
M  V30 9503 H 900.023 -3.47815 1.15845 0
M  V30 9504 H 899.671 -4.9621 -0.823661 0
M  V30 9505 H 899.371 -5.83409 0.700568 0
M  V30 9506 H 900.895 -6.10297 -0.192249 0
M  V30 9507 H 902.309 -5.38639 1.96319 0
M  V30 9508 H 900.706 -5.3325 2.75254 0
M  V30 9509 H 901.776 -3.92238 2.85092 0
M  V30 9510 N 903.119 -0.802921 -1.35613 0
M  V30 9511 C 904.347 -0.39393 -2.03115 0
M  V30 9512 C 904.762 0.993961 -1.60517 0
M  V30 9513 O 904.119 1.63984 -0.800973 0
M  V30 9514 C 904.17 -0.463486 -3.58516 0
M  V30 9515 O 903.891 -1.79666 -3.99565 0
M  V30 9516 C 905.392 -0.0468377 -4.43275 0
M  V30 9517 H 902.612 -0.160519 -0.651517 0
M  V30 9518 H 905.156 -1.08552 -1.73311 0
M  V30 9519 H 903.311 0.179821 -3.86982 0
M  V30 9520 H 903.725 -1.75688 -4.942 0
M  V30 9521 H 905.199 -0.146626 -5.51805 0
M  V30 9522 H 905.676 1.00741 -4.2749 0
M  V30 9523 H 906.282 -0.663158 -4.20098 0
M  V30 9524 N 904.597 1.47463 -0.556102 0
M  V30 9525 C 905.827 2.06568 -0.0364056 0
M  V30 9526 C 906.235 1.40939 1.26225 0
M  V30 9527 O 905.578 0.499572 1.76777 0
M  V30 9528 C 905.64 3.58755 0.231278 0
M  V30 9529 C 905.304 4.46417 -0.977776 0
M  V30 9530 C 906.301 4.846 -1.88305 0
M  V30 9531 C 903.986 4.87948 -1.19214 0
M  V30 9532 C 905.98 5.63111 -2.98639 0
M  V30 9533 C 903.667 5.66224 -2.29857 0
M  V30 9534 C 904.665 6.03716 -3.194 0
M  V30 9535 O 904.353 6.80415 -4.28125 0
M  V30 9536 H 904.085 0.674675 -0.042305 0
M  V30 9537 H 906.639 1.9047 -0.768775 0
M  V30 9538 H 904.869 3.73061 1.01794 0
M  V30 9539 H 906.558 3.99884 0.696221 0
M  V30 9540 H 907.324 4.53115 -1.72949 0
M  V30 9541 H 903.203 4.58233 -0.504347 0
M  V30 9542 H 906.747 5.92293 -3.68557 0
M  V30 9543 H 902.644 5.97121 -2.45186 0
M  V30 9544 H 903.412 6.98807 -4.26159 0
M  V30 9545 N 906.075 0.2925 1.54862 0
M  V30 9546 C 907.038 -0.574423 2.21885 0
M  V30 9547 C 908.038 -1.06791 1.20218 0
M  V30 9548 O 909.228 -0.9653 1.45009 0
M  V30 9549 C 906.36 -1.79438 2.89853 0
M  V30 9550 H 907.553 0.0110319 2.99898 0
M  V30 9551 H 905.106 0.043256 1.5624 0
M  V30 9552 H 905.841 -2.4199 2.15897 0
M  V30 9553 H 905.626 -1.44827 3.64373 0
M  V30 9554 H 907.116 -2.41048 3.41007 0
M  V30 9555 N 907.553 -1.57587 0.0200696 0
M  V30 9556 C 908.83 -1.82696 -0.698677 0
M  V30 9557 C 909.21 -0.902082 -1.90855 0
M  V30 9558 O 908.558 0.0444834 -2.28457 0
M  V30 9559 C 908.768 -3.31691 -1.08546 0
M  V30 9560 C 910.116 -3.97938 -1.4809 0
M  V30 9561 O 911.14 -3.36133 -1.17869 0
M  V30 9562 O 909.999 -5.06851 -2.04364 0
M  V30 9563 H 907.093 -0.752997 -0.341942 0
M  V30 9564 H 909.639 -1.69635 0.04706 0
M  V30 9565 H 908.411 -3.90659 -0.223956 0
M  V30 9566 H 908.034 -3.49825 -1.88965 0
M  V30 9567 N 909.032 0.252966 -1.55557 0
M  V30 9568 C 909.942 1.33472 -1.92931 0
M  V30 9569 C 910.958 1.52983 -0.828985 0
M  V30 9570 O 912.134 1.66723 -1.12984 0
M  V30 9571 C 909.199 2.6704 -2.21112 0
M  V30 9572 C 908.26 2.56103 -3.44542 0
M  V30 9573 C 907.493 3.83302 -3.71369 0
M  V30 9574 O 907.716 4.84907 -3.00368 0
M  V30 9575 O 906.65 3.823 -4.64898 0
M  V30 9576 H 910.476 1.04768 -2.85057 0
M  V30 9577 H 908.061 0.453208 -1.4236 0
M  V30 9578 H 909.943 3.45981 -2.40572 0
M  V30 9579 H 908.618 2.95489 -1.32166 0
M  V30 9580 H 907.525 1.7547 -3.30396 0
M  V30 9581 H 908.858 2.32601 -4.33772 0
M  V30 9582 N 910.51 1.48831 0.518367 0
M  V30 9583 C 911.74 1.60886 1.29612 0
M  V30 9584 C 912.148 0.272713 1.87224 0
M  V30 9585 O 911.491 -0.749653 1.67708 0
M  V30 9586 C 911.553 2.60541 2.47707 0
M  V30 9587 C 911.217 4.05324 2.11095 0
M  V30 9588 C 912.214 4.92658 1.66084 0
M  V30 9589 C 909.899 4.50942 2.21262 0
M  V30 9590 C 911.893 6.23641 1.3172 0
M  V30 9591 C 909.58 5.81943 1.8651 0
M  V30 9592 C 910.578 6.68116 1.41812 0
M  V30 9593 O 910.266 7.96677 1.07522 0
M  V30 9594 H 909.998 0.544968 0.399982 0
M  V30 9595 H 912.552 1.95474 0.630799 0
M  V30 9596 H 910.782 2.21098 3.17258 0
M  V30 9597 H 912.471 2.62308 3.09757 0
M  V30 9598 H 913.237 4.58649 1.5769 0
M  V30 9599 H 909.116 3.84048 2.55007 0
M  V30 9600 H 912.66 6.90857 0.967598 0
M  V30 9601 H 908.557 6.15484 1.94549 0
M  V30 9602 H 909.325 8.09534 1.2082 0
M  V30 9603 N 911.988 -0.768124 1.37614 0
M  V30 9604 C 912.951 -1.86314 1.3349 0
M  V30 9605 C 913.951 -1.59025 0.23823 0
M  V30 9606 O 915.141 -1.6704 0.494288 0
M  V30 9607 C 912.273 -3.23519 1.07462 0
M  V30 9608 H 913.466 -1.91382 2.30896 0
M  V30 9609 H 911.019 -0.968267 1.22696 0
M  V30 9610 H 911.754 -3.24127 0.106028 0
M  V30 9611 H 911.539 -3.44719 1.86846 0
M  V30 9612 H 913.029 -4.03597 1.07236 0
M  V30 9613 N 913.466 -1.22244 -0.994698 0
M  V30 9614 C 914.715 -1.04005 -1.72817 0
M  V30 9615 C 915.028 0.425413 -1.90918 0
M  V30 9616 O 916.234 0.727429 -2.61574 0
M  V30 9617 C 914.69 -1.81244 -3.10932 0
M  V30 9618 C 914.298 -3.32028 -3.00768 0
M  V30 9619 C 916.042 -1.71448 -3.88337 0
M  V30 9620 C 913.949 -4.01716 -4.34026 0
M  V30 9621 H 912.879 -0.385559 -0.647966 0
M  V30 9622 H 915.53 -1.46077 -1.11058 0
M  V30 9623 H 913.912 -1.3197 -3.73363 0
M  V30 9624 H 915.086 -3.88682 -2.47513 0
M  V30 9625 H 913.401 -3.4248 -2.36846 0
M  V30 9626 H 915.998 -2.20836 -4.86965 0
M  V30 9627 H 916.341 -0.674568 -4.10798 0
M  V30 9628 H 916.874 -2.18256 -3.3258 0
M  V30 9629 H 913.613 -5.05952 -4.16765 0
M  V30 9630 H 913.133 -3.49849 -4.87202 0
M  V30 9631 H 914.812 -4.0721 -5.02782 0
M  V30 9632 N 914.944 1.19125 -1.03184 0
M  V30 9633 C 916.192 1.8851 -0.728587 0
M  V30 9634 C 916.513 1.80195 0.74531 0
M  V30 9635 O 915.783 1.21437 1.5372 0
M  V30 9636 H 914.363 0.69784 -0.266511 0
M  V30 9637 H 917.025 1.44607 -1.3067 0
M  V30 9638 H 916.121 2.9477 -1.02554 0
M  V30 9639 N 916.422 0.810101 1.35185 0
M  V30 9640 C 917.652 0.404109 2.02609 0
M  V30 9641 C 918.06 -0.990748 1.61186 0
M  V30 9642 O 917.403 -1.65038 0.80674 0
M  V30 9643 C 917.465 0.412047 3.57131 0
M  V30 9644 C 917.129 1.75802 4.21832 0
M  V30 9645 C 918.126 2.71687 4.43263 0
M  V30 9646 C 915.811 2.04299 4.58876 0
M  V30 9647 C 917.805 3.9425 5.00845 0
M  V30 9648 C 915.492 3.27125 5.16171 0
M  V30 9649 C 916.49 4.21918 5.37098 0
M  V30 9650 O 916.178 5.42576 5.93184 0
M  V30 9651 H 915.91 0.161914 0.656323 0
M  V30 9652 H 918.464 1.09605 1.73712 0
M  V30 9653 H 916.694 -0.336509 3.85233 0
M  V30 9654 H 918.383 0.0278817 4.0589 0
M  V30 9655 H 919.149 2.50964 4.15021 0
M  V30 9656 H 915.028 1.31324 4.41899 0
M  V30 9657 H 918.572 4.68251 5.17094 0
M  V30 9658 H 914.469 3.47718 5.43841 0
M  V30 9659 H 915.237 5.43921 6.11631 0
M  V30 9660 N 917.9 -1.47166 0.563914 0
M  V30 9661 C 919.147 -2.02456 0.042371 0
M  V30 9662 C 919.475 -1.43753 -1.31016 0
M  V30 9663 O 918.73 -0.585287 -1.86743 0
M  V30 9664 C 919.029 -3.57279 -0.0931797 0
M  V30 9665 C 918.695 -4.34932 1.18933 0
M  V30 9666 C 917.357 -4.55867 1.54073 0
M  V30 9667 C 919.709 -4.79665 2.03889 0
M  V30 9668 C 917.037 -5.18785 2.74005 0
M  V30 9669 C 919.389 -5.43907 3.23029 0
M  V30 9670 C 918.053 -5.63074 3.58475 0
M  V30 9671 H 917.323 -0.740838 0.0155047 0
M  V30 9672 H 919.97 -1.76759 0.736776 0
M  V30 9673 H 918.275 -3.82005 -0.870596 0
M  V30 9674 H 919.972 -3.97716 -0.512176 0
M  V30 9675 H 916.562 -4.18921 0.905718 0
M  V30 9676 H 920.746 -4.63264 1.78046 0
M  V30 9677 H 916.002 -5.31818 3.01628 0
M  V30 9678 H 920.176 -5.77531 3.89141 0
M  V30 9679 H 917.803 -6.11598 4.515 0
M  V30 9680 N 919.378 -0.300708 -1.54705 0
M  V30 9681 C 920.325 0.57552 -2.23509 0
M  V30 9682 C 921.295 1.12979 -1.21758 0
M  V30 9683 O 922.48 1.17437 -1.50377 0
M  V30 9684 C 919.62 1.74167 -2.97926 0
M  V30 9685 C 918.733 1.21882 -4.1445 0
M  V30 9686 C 917.868 2.34881 -4.7645 0
M  V30 9687 C 916.907 1.79729 -5.85119 0
M  V30 9688 N 916.044 2.863 -6.41075 0
M  V30 9689 H 920.884 -0.0178257 -2.97995 0
M  V30 9690 H 918.421 -0.0205666 -1.47086 0
M  V30 9691 H 920.379 2.42753 -3.39303 0
M  V30 9692 H 919.009 2.30665 -2.25817 0
M  V30 9693 H 918.061 0.425227 -3.78016 0
M  V30 9694 H 919.373 0.775065 -4.92741 0
M  V30 9695 H 918.527 3.11415 -5.20678 0
M  V30 9696 H 917.266 2.82584 -3.97489 0
M  V30 9697 H 916.271 1.01684 -5.40315 0
M  V30 9698 H 917.496 1.32931 -6.65963 0
M  V30 9699 H 915.442 3.33337 -5.64998 0
M  V30 9700 H 915.359 2.46419 -7.14712 0
M  V30 9701 H 916.627 3.62732 -6.89961 0
M  V30 9702 N 920.856 1.57574 -0.0284266 0
M  V30 9703 C 921.803 2.10176 0.953658 0
M  V30 9704 C 922.773 1.00367 1.32347 0
M  V30 9705 O 923.958 1.27783 1.4169 0
M  V30 9706 C 921.098 2.63287 2.231 0
M  V30 9707 C 920.211 3.87102 1.91771 0
M  V30 9708 C 919.346 4.28609 3.13795 0
M  V30 9709 C 918.385 5.45184 2.78282 0
M  V30 9710 N 917.522 5.81851 3.92929 0
M  V30 9711 H 922.362 2.93806 0.498176 0
M  V30 9712 H 919.899 1.45222 0.234302 0
M  V30 9713 H 921.857 2.9217 2.97813 0
M  V30 9714 H 920.487 1.82489 2.66266 0
M  V30 9715 H 919.539 3.64952 1.07303 0
M  V30 9716 H 920.851 4.71892 1.61615 0
M  V30 9717 H 920.005 4.58925 3.96829 0
M  V30 9718 H 918.744 3.42585 3.47112 0
M  V30 9719 H 917.749 5.14563 1.93661 0
M  V30 9720 H 918.974 6.32907 2.46182 0
M  V30 9721 H 916.92 4.98782 4.2609 0
M  V30 9722 H 916.837 6.6128 3.66395 0
M  V30 9723 H 918.105 6.16772 4.76669 0
M  V30 9724 N 922.334 -0.244713 1.55689 0
M  V30 9725 C 923.266 -1.32595 1.86952 0
M  V30 9726 C 924.279 -1.44185 0.755948 0
M  V30 9727 O 925.468 -1.45496 1.03408 0
M  V30 9728 C 922.568 -2.70429 2.04258 0
M  V30 9729 C 921.741 -2.8108 3.35131 0
M  V30 9730 C 920.8 -3.99773 3.42152 0
M  V30 9731 O 919.826 -3.89197 4.15348 0
M  V30 9732 N 921.028 -5.13041 2.71604 0
M  V30 9733 H 923.793 -1.06111 2.80287 0
M  V30 9734 H 921.354 -0.434811 1.55952 0
M  V30 9735 H 923.346 -3.48173 2.06295 0
M  V30 9736 H 921.916 -2.89612 1.17658 0
M  V30 9737 H 921.136 -1.89994 3.45392 0
M  V30 9738 H 922.424 -2.85147 4.21389 0
M  V30 9739 H 921.822 -5.24525 2.11872 0
M  V30 9740 H 920.379 -5.88912 2.79331 0
M  V30 9741 N 923.813 -1.49104 -0.510467 0
M  V30 9742 C 925.061 -1.578 -1.26268 0
M  V30 9743 C 925.382 -0.262349 -1.93227 0
M  V30 9744 O 924.652 0.717624 -1.82283 0
M  V30 9745 H 923.232 -0.581387 -0.46904 0
M  V30 9746 H 925.894 -1.85678 -0.592423 0
M  V30 9747 H 924.99 -2.36919 -2.03165 0
M  V30 9748 N 925.291 0.760815 -1.38019 0
M  V30 9749 C 926.538 1.51973 -1.3383 0
M  V30 9750 C 926.866 1.9436 0.0738855 0
M  V30 9751 O 926.121 1.65181 1.04946 0
M  V30 9752 C 926.42 2.79024 -2.23339 0
M  V30 9753 C 926.086 2.55636 -3.71431 0
M  V30 9754 C 924.748 2.48966 -4.11788 0
M  V30 9755 C 927.1 2.35018 -4.65205 0
M  V30 9756 C 924.428 2.19684 -5.44018 0
M  V30 9757 C 926.78 2.07258 -5.97685 0
M  V30 9758 C 925.444 1.9904 -6.37134 0
M  V30 9759 H 924.714 0.556108 -0.489719 0
M  V30 9760 H 927.361 0.87545 -1.70318 0
M  V30 9761 H 925.666 3.48065 -1.79883 0
M  V30 9762 H 927.363 3.36951 -2.17405 0
M  V30 9763 H 923.953 2.61695 -3.39432 0
M  V30 9764 H 928.137 2.39154 -4.34878 0
M  V30 9765 H 923.393 2.11825 -5.73533 0
M  V30 9766 H 927.567 1.90307 -6.69893 0
M  V30 9767 H 925.194 1.76115 -7.39519 0
M  V30 9768 N 926.769 1.22769 0.988202 0
M  V30 9769 C 927.994 1.08239 1.76915 0
M  V30 9770 C 928.419 -0.362519 1.84574 0
M  V30 9771 O 927.777 -1.26202 1.30165 0
M  V30 9772 C 927.825 1.70363 3.17819 0
M  V30 9773 O 926.929 0.960484 4.01059 0
M  V30 9774 H 926.27 0.379872 0.544604 0
M  V30 9775 H 928.8 1.62663 1.24104 0
M  V30 9776 H 928.81 1.7528 3.6843 0
M  V30 9777 H 927.485 2.75505 3.1156 0
M  V30 9778 H 926.062 0.987667 3.59582 0
M  V30 9779 N 928.247 -1.18576 1.03814 0
M  V30 9780 C 929.194 -2.2212 0.626988 0
M  V30 9781 C 930.164 -1.62064 -0.363912 0
M  V30 9782 O 931.349 -1.89041 -0.258469 0
M  V30 9783 C 928.489 -3.45099 -0.00650133 0
M  V30 9784 C 927.602 -4.19503 1.03156 0
M  V30 9785 C 926.737 -5.29932 0.366852 0
M  V30 9786 C 925.776 -5.96104 1.39018 0
M  V30 9787 N 924.913 -6.98076 0.750625 0
M  V30 9788 H 929.753 -2.56646 1.51449 0
M  V30 9789 H 927.29 -1.26084 0.757702 0
M  V30 9790 H 929.248 -4.15363 -0.391108 0
M  V30 9791 H 927.878 -3.11201 -0.857536 0
M  V30 9792 H 926.93 -3.48092 1.53414 0
M  V30 9793 H 928.242 -4.64843 1.80893 0
M  V30 9794 H 927.396 -6.06657 -0.0720979 0
M  V30 9795 H 926.135 -4.85687 -0.442631 0
M  V30 9796 H 925.14 -5.18122 1.8393 0
M  V30 9797 H 926.365 -6.42432 2.20132 0
M  V30 9798 H 924.311 -6.55989 -0.0385981 0
M  V30 9799 H 924.228 -7.41655 1.46574 0
M  V30 9800 H 925.496 -7.78776 0.335986 0
M  V30 9801 N 929.725 -0.817259 -1.34754 0
M  V30 9802 C 931.002 -0.325468 -1.92873 0
M  V30 9803 C 931.382 1.18643 -1.74606 0
M  V30 9804 O 930.73 1.9909 -1.1214 0
M  V30 9805 C 930.94 -0.74858 -3.40877 0
M  V30 9806 C 932.288 -0.744165 -4.18028 0
M  V30 9807 O 933.312 -0.690799 -3.49437 0
M  V30 9808 O 932.171 -0.812207 -5.40431 0
M  V30 9809 H 929.265 -0.0876397 -0.822343 0
M  V30 9810 H 931.811 -0.901671 -1.43764 0
M  V30 9811 H 930.583 -1.79017 -3.47949 0
M  V30 9812 H 930.206 -0.147764 -3.97325 0
M  V30 9813 N 931.203 1.46865 -0.571711 0
M  V30 9814 C 932.452 2.01636 -0.050881 0
M  V30 9815 C 932.765 1.45001 1.31279 0
M  V30 9816 O 933.971 1.91523 1.92435 0
M  V30 9817 C 932.427 3.59877 -0.0404114 0
M  V30 9818 C 932.035 4.25506 -1.40172 0
M  V30 9819 C 933.779 4.22346 0.42705 0
M  V30 9820 C 931.686 5.75795 -1.34958 0
M  V30 9821 H 930.616 0.753846 -0.0152514 0
M  V30 9822 H 933.267 1.68711 -0.721723 0
M  V30 9823 H 931.649 3.89829 0.696374 0
M  V30 9824 H 932.823 4.07178 -2.15737 0
M  V30 9825 H 931.138 3.75086 -1.8083 0
M  V30 9826 H 933.735 5.32499 0.484688 0
M  V30 9827 H 934.078 3.9052 1.44222 0
M  V30 9828 H 934.611 3.9698 -0.255326 0
M  V30 9829 H 931.35 6.12265 -2.3412 0
M  V30 9830 H 930.87 5.96419 -0.635962 0
M  V30 9831 H 932.549 6.38294 -1.05779 0
M  V30 9832 N 932.681 0.308908 1.54543 0
M  V30 9833 C 933.628 -0.563659 2.23811 0
M  V30 9834 C 934.598 -1.12332 1.22355 0
M  V30 9835 O 935.783 -1.16638 1.50997 0
M  V30 9836 C 932.923 -1.72585 2.98845 0
M  V30 9837 C 932.036 -1.19682 4.1509 0
M  V30 9838 C 931.171 -2.32351 4.77688 0
M  V30 9839 C 930.21 -1.76623 5.86064 0
M  V30 9840 N 929.347 -2.82896 6.42584 0
M  V30 9841 H 934.187 0.0336288 2.97981 0
M  V30 9842 H 931.724 0.0283666 1.47073 0
M  V30 9843 H 933.682 -2.40951 3.40586 0
M  V30 9844 H 932.312 -2.29464 2.27037 0
M  V30 9845 H 931.364 -0.405173 3.78236 0
M  V30 9846 H 932.676 -0.748923 4.93146 0
M  V30 9847 H 931.83 -3.0865 5.22322 0
M  V30 9848 H 930.569 -2.80472 3.98982 0
M  V30 9849 H 929.574 -0.988171 5.40847 0
M  V30 9850 H 930.799 -1.29398 6.66658 0
M  V30 9851 H 928.745 -3.30336 5.66758 0
M  V30 9852 H 928.662 -2.42626 7.16009 0
M  V30 9853 H 929.93 -3.59068 6.91875 0
M  V30 9854 N 934.159 -1.57557 0.0367827 0
M  V30 9855 C 935.405 -1.92399 -0.641133 0
M  V30 9856 C 935.738 -0.914191 -1.71336 0
M  V30 9857 O 935.013 0.0619616 -1.94401 0
M  V30 9858 C 935.296 -3.37689 -1.25052 0
M  V30 9859 C 935.149 -4.4941 -0.187326 0
M  V30 9860 C 936.468 -3.8309 -2.16634 0
M  V30 9861 H 933.587 -0.699666 -0.231597 0
M  V30 9862 H 936.229 -1.89759 0.0956083 0
M  V30 9863 H 934.379 -3.40069 -1.87843 0
M  V30 9864 H 936.051 -4.59161 0.443736 0
M  V30 9865 H 934.294 -4.31065 0.486313 0
M  V30 9866 H 934.965 -5.48119 -0.653459 0
M  V30 9867 H 937.441 -3.82494 -1.63821 0
M  V30 9868 H 936.317 -4.85429 -2.56222 0
M  V30 9869 H 936.578 -3.19028 -3.06062 0
M  V30 9870 N 935.637 0.236453 -1.55816 0
M  V30 9871 C 937.048 0.80468 -1.68469 0
M  V30 9872 C 937.399 1.85601 -0.636133 0
M  V30 9873 O 936.524 2.15323 0.215622 0
M  V30 9874 C 937.119 1.46634 -3.05424 0
M  V30 9875 C 935.678 1.98214 -3.19981 0
M  V30 9876 C 934.825 0.83695 -2.64368 0
M  V30 9877 H 937.776 0.0120647 -1.58695 0
M  V30 9878 H 937.797 2.33472 -3.00451 0
M  V30 9879 H 937.309 0.700931 -3.81718 0
M  V30 9880 H 935.41 2.77604 -2.4853 0
M  V30 9881 H 935.523 2.17235 -4.2702 0
M  V30 9882 H 933.887 1.24028 -2.22462 0
M  V30 9883 H 934.67 0.084451 -3.43196 0
M  V30 9884 N 937.115 1.49373 0.502552 0
M  V30 9885 C 938.062 1.65927 1.60427 0
M  V30 9886 C 939.032 0.500768 1.58371 0
M  V30 9887 O 940.217 0.727606 1.76382 0
M  V30 9888 C 937.357 1.73043 2.9858 0
M  V30 9889 C 936.47 3.00187 3.10663 0
M  V30 9890 C 935.605 2.98292 4.3954 0
M  V30 9891 C 934.644 4.20022 4.4525 0
M  V30 9892 N 933.781 4.16046 5.65553 0
M  V30 9893 H 938.621 2.59998 1.45619 0
M  V30 9894 H 936.158 1.28912 0.708519 0
M  V30 9895 H 938.116 1.7515 3.78653 0
M  V30 9896 H 936.746 0.824397 3.12095 0
M  V30 9897 H 935.798 3.07699 2.23663 0
M  V30 9898 H 937.11 3.9018 3.10742 0
M  V30 9899 H 936.264 2.98953 5.27932 0
M  V30 9900 H 935.003 2.06075 4.42023 0
M  V30 9901 H 934.008 4.19607 3.5526 0
M  V30 9902 H 935.233 5.13431 4.44484 0
M  V30 9903 H 933.179 3.26665 5.68881 0
M  V30 9904 H 933.096 4.99773 5.67242 0
M  V30 9905 H 934.364 4.20807 6.56156 0
M  V30 9906 N 938.594 -0.753485 1.38421 0
M  V30 9907 C 939.819 -1.54783 1.38047 0
M  V30 9908 C 940.244 -1.8808 -0.0276371 0
M  V30 9909 O 939.602 -1.5058 -1.00973 0
M  V30 9910 C 939.65 -2.82353 2.24297 0
M  V30 9911 O 938.754 -3.77509 1.66014 0
M  V30 9912 H 938.095 -0.468151 0.470883 0
M  V30 9913 H 940.625 -0.931144 1.82184 0
M  V30 9914 H 940.635 -3.31277 2.38159 0
M  V30 9915 H 939.31 -2.57449 3.26639 0
M  V30 9916 H 937.887 -3.36212 1.61294 0
M  V30 9917 N 940.072 -1.23292 -0.981677 0
M  V30 9918 C 941.488 -0.995295 -1.24764 0
M  V30 9919 C 941.688 0.304379 -1.99188 0
M  V30 9920 O 940.744 1.02414 -2.30798 0
M  V30 9921 C 942.057 -2.20135 -2.04844 0
M  V30 9922 C 943.605 -2.24612 -2.17988 0
M  V30 9923 C 944.08 -3.448 -3.01458 0
M  V30 9924 N 945.571 -3.45031 -3.09044 0
M  V30 9925 C 946.306 -4.34683 -3.7395 0
M  V30 9926 N 945.802 -5.34569 -4.4069 0
M  V30 9927 N 947.595 -4.22429 -3.70823 0
M  V30 9928 H 939.746 -2.06834 -0.483052 0
M  V30 9929 H 942.009 -0.906929 -0.276014 0
M  V30 9930 H 941.715 -3.14446 -1.57532 0
M  V30 9931 H 941.589 -2.21115 -3.05594 0
M  V30 9932 H 943.976 -1.30841 -2.64508 0
M  V30 9933 H 944.057 -2.27664 -1.16631 0
M  V30 9934 H 943.701 -4.38877 -2.55635 0
M  V30 9935 H 943.631 -3.38988 -4.02982 0
M  V30 9936 H 946.122 -2.72759 -2.61555 0
M  V30 9937 H 946.435 -5.99236 -4.87991 0
M  V30 9938 H 944.78 -5.3847 -4.39403 0
M  V30 9939 H 947.971 -3.43639 -3.17851 0
M  V30 9940 H 948.144 -4.92501 -4.21126 0
M  V30 9941 N 941.55 1.18024 -1.04442 0
M  V30 9942 C 942.78 1.91753 -0.769044 0
M  V30 9943 C 943.188 1.76629 0.678141 0
M  V30 9944 O 942.531 1.09589 1.47431 0
M  V30 9945 C 942.593 3.43505 -1.0604 0
M  V30 9946 C 942.257 3.82409 -2.50225 0
M  V30 9947 C 943.254 3.8588 -3.48414 0
M  V30 9948 C 940.939 4.13594 -2.85036 0
M  V30 9949 C 942.933 4.19993 -4.79463 0
M  V30 9950 C 940.62 4.47377 -4.1629 0
M  V30 9951 C 941.618 4.50553 -5.13314 0
M  V30 9952 O 941.306 4.83546 -6.42214 0
M  V30 9953 H 941.038 0.615466 -0.279603 0
M  V30 9954 H 943.592 1.5065 -1.3962 0
M  V30 9955 H 941.822 3.84866 -0.376125 0
M  V30 9956 H 943.511 3.98486 -0.772235 0
M  V30 9957 H 944.277 3.6192 -3.2286 0
M  V30 9958 H 940.156 4.10297 -2.10185 0
M  V30 9959 H 943.7 4.22387 -5.55189 0
M  V30 9960 H 939.597 4.70798 -4.4161 0
M  V30 9961 H 940.365 5.01433 -6.46921 0
M  V30 9962 N 943.028 0.824394 1.34319 0
M  V30 9963 C 943.958 0.262077 2.32025 0
M  V30 9964 C 944.939 -0.622277 1.58309 0
M  V30 9965 O 946.124 -0.548848 1.86283 0
M  V30 9966 C 943.254 -0.57567 3.42496 0
M  V30 9967 C 942.208 0.21167 4.27476 0
M  V30 9968 C 941.534 -0.748913 5.29429 0
M  V30 9969 C 942.834 1.42068 5.02607 0
M  V30 9970 H 944.528 1.07842 2.79304 0
M  V30 9971 H 942.074 0.520022 1.34282 0
M  V30 9972 H 944.027 -0.979251 4.09864 0
M  V30 9973 H 942.751 -1.42508 2.93869 0
M  V30 9974 H 941.41 0.596636 3.61712 0
M  V30 9975 H 941.058 -1.59432 4.77064 0
M  V30 9976 H 940.758 -0.226313 5.87164 0
M  V30 9977 H 942.282 -1.15032 5.99667 0
M  V30 9978 H 943.696 1.09103 5.62823 0
M  V30 9979 H 942.093 1.87903 5.69923 0
M  V30 9980 H 943.163 2.1981 4.32217 0
M  V30 9981 N 944.506 -1.46559 0.579492 0
M  V30 9982 C 945.754 -2.02 0.0637157 0
M  V30 9983 C 946.075 -1.45378 -1.29962 0
M  V30 9984 O 945.345 -0.637262 -1.85245 0
M  V30 9985 H 943.925 -0.746717 0.0205638 0
M  V30 9986 H 946.587 -1.79702 0.754544 0
M  V30 9987 H 945.683 -3.12099 -0.00770254 0
M  V30 9988 N 945.984 -0.3171 -1.54377 0
M  V30 9989 C 947.214 0.289138 -2.04567 0
M  V30 9990 C 947.622 1.46833 -1.19318 0
M  V30 9991 O 946.965 1.82436 -0.215141 0
M  V30 9992 C 947.027 0.792994 -3.50645 0
M  V30 9993 C 946.691 -0.263033 -4.56242 0
M  V30 9994 C 947.688 -1.09694 -5.08196 0
M  V30 9995 C 945.373 -0.409364 -5.00629 0
M  V30 9996 C 947.367 -2.06297 -6.03092 0
M  V30 9997 C 945.054 -1.37882 -5.95342 0
M  V30 9998 C 946.052 -2.20409 -6.46459 0
M  V30 9999 O 945.74 -3.15708 -7.39313 0
M  V30 10000 H 945.472 0.0644005 -0.672925 0
M  V30 10001 H 948.026 -0.459438 -2.00196 0
M  V30 10002 H 946.256 1.59237 -3.52392 0
M  V30 10003 H 947.945 1.31687 -3.83944 0
M  V30 10004 H 948.711 -0.994842 -4.74687 0
M  V30 10005 H 944.59 0.223091 -4.6046 0
M  V30 10006 H 948.134 -2.70751 -6.42915 0
M  V30 10007 H 944.031 -1.48158 -6.28267 0
M  V30 10008 H 944.799 -3.10873 -7.57166 0
M  V30 10009 N 947.462 1.57535 -0.0451378 0
M  V30 10010 C 948.711 1.91628 0.629415 0
M  V30 10011 C 949.024 0.924754 1.72359 0
M  V30 10012 O 950.23 1.15751 2.45589 0
M  V30 10013 C 948.686 3.40322 1.17084 0
M  V30 10014 C 948.294 4.47867 0.109101 0
M  V30 10015 C 950.038 3.83458 1.82099 0
M  V30 10016 C 947.945 5.87671 0.663072 0
M  V30 10017 H 946.875 0.715163 0.238868 0
M  V30 10018 H 949.526 1.83151 -0.113046 0
M  V30 10019 H 947.908 3.43783 1.96543 0
M  V30 10020 H 949.082 4.55988 -0.664201 0
M  V30 10021 H 947.397 4.14034 -0.443227 0
M  V30 10022 H 949.994 4.85273 2.2453 0
M  V30 10023 H 950.337 3.19379 2.67026 0
M  V30 10024 H 950.87 3.82488 1.09305 0
M  V30 10025 H 947.609 6.55332 -0.148423 0
M  V30 10026 H 947.129 5.83124 1.4045 0
M  V30 10027 H 948.808 6.36737 1.14785 0
M  V30 10028 N 948.94 -0.228186 1.55939 0
M  V30 10029 C 949.887 -1.28274 1.91871 0
M  V30 10030 C 950.857 -1.46906 0.775103 0
M  V30 10031 O 952.042 -1.60583 1.03042 0
M  V30 10032 C 949.182 -2.62945 2.23504 0
M  V30 10033 C 948.295 -2.52166 3.50766 0
M  V30 10034 C 947.43 -3.79316 3.71878 0
M  V30 10035 C 946.469 -3.63231 4.92676 0
M  V30 10036 N 945.606 -4.82315 5.10212 0
M  V30 10037 H 950.446 -0.96931 2.81795 0
M  V30 10038 H 947.983 -0.467331 1.39479 0
M  V30 10039 H 949.941 -3.41359 2.39854 0
M  V30 10040 H 948.571 -2.92397 1.36762 0
M  V30 10041 H 947.623 -1.65221 3.42646 0
M  V30 10042 H 948.935 -2.36199 4.39331 0
M  V30 10043 H 948.089 -4.66173 3.88288 0
M  V30 10044 H 946.828 -3.982 2.81581 0
M  V30 10045 H 945.833 -2.74757 4.76223 0
M  V30 10046 H 947.058 -3.45823 5.84451 0
M  V30 10047 H 945.004 -5.01526 4.22856 0
M  V30 10048 H 944.921 -4.6905 5.92898 0
M  V30 10049 H 946.189 -5.70618 5.31051 0
M  V30 10050 N 950.418 -1.49637 -0.494624 0
M  V30 10051 C 951.695 -1.4995 -1.25596 0
M  V30 10052 C 952.075 -0.230805 -2.09834 0
M  V30 10053 O 951.423 0.786625 -2.14533 0
M  V30 10054 C 951.633 -2.78204 -2.10721 0
M  V30 10055 C 952.981 -3.27946 -2.69698 0
M  V30 10056 O 954.005 -2.79365 -2.20984 0
M  V30 10057 O 952.864 -4.12571 -3.58395 0
M  V30 10058 H 949.958 -0.60044 -0.568684 0
M  V30 10059 H 952.504 -1.61906 -0.508371 0
M  V30 10060 H 951.276 -3.62029 -1.48494 0
M  V30 10061 H 950.899 -2.69139 -2.92661 0
M  V30 10062 N 951.896 0.746133 -1.38819 0
M  V30 10063 C 953.126 1.53316 -1.38484 0
M  V30 10064 C 953.534 1.89183 0.0253332 0
M  V30 10065 O 952.877 1.5382 1.00424 0
M  V30 10066 C 952.939 2.85623 -2.18311 0
M  V30 10067 C 952.603 2.72253 -3.67052 0
M  V30 10068 C 953.6 2.41547 -4.60381 0
M  V30 10069 C 951.285 2.89472 -4.10501 0
M  V30 10070 C 953.279 2.28226 -5.9514 0
M  V30 10071 C 950.966 2.7577 -5.45338 0
M  V30 10072 C 951.964 2.45191 -6.37472 0
M  V30 10073 O 951.652 2.31561 -7.69828 0
M  V30 10074 H 951.384 0.480763 -0.475229 0
M  V30 10075 H 953.938 0.93057 -1.83111 0
M  V30 10076 H 952.168 3.481 -1.68414 0
M  V30 10077 H 953.857 3.47178 -2.10291 0
M  V30 10078 H 954.623 2.27905 -4.28117 0
M  V30 10079 H 950.502 3.12269 -3.3913 0
M  V30 10080 H 954.046 2.04279 -6.6702 0
M  V30 10081 H 949.943 2.88987 -5.77197 0
M  V30 10082 H 950.711 2.46716 -7.80432 0
M  V30 10083 N 953.375 1.23811 0.975125 0
M  V30 10084 C 954.285 1.0408 2.10249 0
M  V30 10085 C 955.301 -0.0162404 1.73992 0
M  V30 10086 O 956.477 0.180346 2.00591 0
M  V30 10087 C 953.542 0.640013 3.40741 0
M  V30 10088 C 952.603 1.7727 3.90991 0
M  V30 10089 C 951.836 1.39094 5.15256 0
M  V30 10090 O 952.059 0.277483 5.69725 0
M  V30 10091 O 950.993 2.21392 5.59704 0
M  V30 10092 H 954.819 1.98575 2.29786 0
M  V30 10093 H 952.404 1.02563 1.08633 0
M  V30 10094 H 954.286 0.427684 4.19224 0
M  V30 10095 H 952.961 -0.27589 3.22522 0
M  V30 10096 H 951.868 2.03971 3.13602 0
M  V30 10097 H 953.201 2.66711 4.13674 0
M  V30 10098 N 954.853 -1.17469 1.05066 0
M  V30 10099 C 956.101 -1.87327 0.758485 0
M  V30 10100 C 956.422 -1.81358 -0.716549 0
M  V30 10101 O 955.692 -1.23868 -1.51768 0
M  V30 10102 H 954.272 -0.693512 0.277579 0
M  V30 10103 H 956.934 -1.4251 1.32954 0
M  V30 10104 H 956.03 -2.93101 1.0723 0
M  V30 10105 N 956.331 -0.831506 -1.3388 0
M  V30 10106 C 957.294 -0.264773 -2.27666 0
M  V30 10107 C 958.294 0.562273 -1.50649 0
M  V30 10108 O 959.484 0.377131 -1.70069 0
M  V30 10109 C 956.616 0.627814 -3.35069 0
M  V30 10110 H 957.809 -1.09225 -2.79303 0
M  V30 10111 H 955.362 -0.604021 -1.44157 0
M  V30 10112 H 956.097 1.47802 -2.88661 0
M  V30 10113 H 955.882 0.0361552 -3.92083 0
M  V30 10114 H 957.372 1.01786 -4.05005 0
M  V30 10115 N 957.809 1.4625 -0.587256 0
M  V30 10116 C 959.037 2.06744 -0.08033 0
M  V30 10117 C 959.452 1.43527 1.2266 0
M  V30 10118 O 958.809 0.542168 1.74261 0
M  V30 10119 C 958.86 3.61394 0.0873469 0
M  V30 10120 O 958.581 4.22247 -1.16785 0
M  V30 10121 C 960.082 4.38828 0.628095 0
M  V30 10122 H 957.302 0.668354 -0.0595301 0
M  V30 10123 H 959.846 1.87808 -0.809217 0
M  V30 10124 H 958.001 3.79742 0.766473 0
M  V30 10125 H 958.415 5.15176 -0.984565 0
M  V30 10126 H 959.889 5.47613 0.694583 0
M  V30 10127 H 960.366 4.07188 1.64606 0
M  V30 10128 H 960.972 4.25297 -0.0163115 0
M  V30 10129 N 959.287 0.325282 1.54207 0
M  V30 10130 C 960.217 -0.532574 2.27345 0
M  V30 10131 C 961.198 -1.11791 1.28206 0
M  V30 10132 O 962.383 -1.14272 1.57021 0
M  V30 10133 C 959.513 -1.69274 3.03255 0
M  V30 10134 C 958.467 -1.23662 4.09746 0
M  V30 10135 C 957.793 -2.48386 4.73506 0
M  V30 10136 C 959.093 -0.350244 5.21124 0
M  V30 10137 H 960.787 0.0775108 2.993 0
M  V30 10138 H 958.333 0.0387193 1.43948 0
M  V30 10139 H 960.286 -2.29917 3.53152 0
M  V30 10140 H 959.01 -2.32944 2.28921 0
M  V30 10141 H 957.669 -0.653106 3.60735 0
M  V30 10142 H 957.317 -3.10424 3.95786 0
M  V30 10143 H 957.017 -2.18558 5.45441 0
M  V30 10144 H 958.541 -3.09789 5.26178 0
M  V30 10145 H 959.955 -0.863011 5.66767 0
M  V30 10146 H 958.352 -0.14466 5.99926 0
M  V30 10147 H 959.422 0.618457 4.8094 0
M  V30 10148 N 960.765 -1.57509 0.0534917 0
M  V30 10149 C 961.698 -2.0723 -0.955554 0
M  V30 10150 C 962.676 -0.973313 -1.30251 0
M  V30 10151 O 963.86 -1.24541 -1.41498 0
M  V30 10152 C 960.987 -2.51473 -2.2689 0
M  V30 10153 C 960.033 -3.7263 -2.07482 0
M  V30 10154 S 960.866 -5.18177 -1.35104 0
M  V30 10155 C 962.022 -5.65736 -2.67757 0
M  V30 10156 H 962.255 -2.92494 -0.532407 0
M  V30 10157 H 959.788 -1.53581 -0.158831 0
M  V30 10158 H 961.746 -2.77626 -3.02381 0
M  V30 10159 H 960.407 -1.66511 -2.66332 0
M  V30 10160 H 959.6 -4.01515 -3.04633 0
M  V30 10161 H 959.202 -3.46756 -1.4013 0
M  V30 10162 H 961.494 -5.71463 -3.63918 0
M  V30 10163 H 962.437 -6.64914 -2.43506 0
M  V30 10164 H 962.845 -4.93475 -2.74123 0
M  V30 10165 N 962.243 0.219913 -1.56058 0
M  V30 10166 C 963.153 1.29349 -1.95719 0
M  V30 10167 C 964.169 1.5119 -0.861248 0
M  V30 10168 O 965.345 1.64289 -1.16495 0
M  V30 10169 C 962.41 2.6229 -2.26726 0
M  V30 10170 C 961.471 2.48738 -3.49897 0
M  V30 10171 C 960.704 3.75339 -3.79416 0
M  V30 10172 O 960.927 4.78427 -3.10586 0
M  V30 10173 O 959.861 3.72352 -4.72903 0
M  V30 10174 H 963.687 0.986979 -2.87215 0
M  V30 10175 H 961.272 0.42291 -1.43289 0
M  V30 10176 H 963.154 3.408 -2.47857 0
M  V30 10177 H 961.829 2.92619 -1.38404 0
M  V30 10178 H 960.736 1.68422 -3.34043 0
M  V30 10179 H 962.069 2.23347 -4.38608 0
M  V30 10180 N 963.721 1.49897 0.486681 0
M  V30 10181 C 964.961 1.61732 1.24988 0
M  V30 10182 C 965.325 0.303724 1.89582 0
M  V30 10183 O 966.526 0.297373 2.6715 0
M  V30 10184 C 964.797 2.75429 2.27757 0
M  V30 10185 S 966.356 3.07304 3.13225 0
M  V30 10186 H 963.174 0.570316 0.424571 0
M  V30 10187 H 965.776 1.87617 0.549549 0
M  V30 10188 H 964.48 3.69376 1.78857 0
M  V30 10189 H 964.011 2.51582 3.0244 0
M  V30 10190 H 966.026 2.49928 4.28661 0
M  V30 10191 N 965.199 -0.738761 1.39212 0
M  V30 10192 C 966.109 -1.88324 1.39897 0
M  V30 10193 C 967.125 -1.71494 0.294229 0
M  V30 10194 O 968.301 -1.94162 0.535087 0
M  V30 10195 C 965.366 -3.23871 1.23726 0
M  V30 10196 C 964.427 -3.53121 2.44139 0
M  V30 10197 C 963.66 -4.82202 2.2873 0
M  V30 10198 O 963.883 -5.55649 1.28879 0
M  V30 10199 O 962.817 -5.11265 3.17634 0
M  V30 10200 H 966.643 -1.90701 2.36362 0
M  V30 10201 H 964.228 -0.886067 1.20288 0
M  V30 10202 H 966.11 -4.04882 1.16826 0
M  V30 10203 H 964.785 -3.22274 0.303551 0
M  V30 10204 H 963.692 -2.72212 2.56615 0
M  V30 10205 H 965.025 -3.59495 3.36191 0
M  V30 10206 N 966.677 -1.24326 -0.968545 0
M  V30 10207 C 967.607 -1.05951 -2.08079 0
M  V30 10208 C 968.588 0.0272666 -1.70078 0
M  V30 10209 O 969.773 -0.139644 -1.93697 0
M  V30 10210 C 966.903 -0.662623 -3.4092 0
M  V30 10211 C 965.857 -1.69807 -3.92873 0
M  V30 10212 C 965.183 -1.15628 -5.22048 0
M  V30 10213 C 966.483 -3.09383 -4.20808 0
M  V30 10214 H 968.177 -1.98984 -2.23709 0
M  V30 10215 H 965.723 -0.958112 -1.075 0
M  V30 10216 H 967.676 -0.521071 -4.18166 0
M  V30 10217 H 966.4 0.303399 -3.25188 0
M  V30 10218 H 965.059 -1.82783 -3.17783 0
M  V30 10219 H 964.707 -0.180888 -5.02675 0
M  V30 10220 H 964.407 -1.84822 -5.57776 0
M  V30 10221 H 965.931 -1.02683 -6.01904 0
M  V30 10222 H 967.345 -2.99642 -4.88761 0
M  V30 10223 H 965.742 -3.75923 -4.67763 0
M  V30 10224 H 966.812 -3.57486 -3.27616 0
M  V30 10225 N 968.156 1.1691 -1.05688 0
M  V30 10226 C 969.104 2.2315 -0.656262 0
M  V30 10227 C 970.098 1.66256 0.324873 0
M  V30 10228 O 971.304 1.7899 0.190397 0
M  V30 10229 H 967.679 0.726527 -0.19407 0
M  V30 10230 H 969.65 2.54233 -1.56231 0
M  V30 10231 C 968.399 3.47661 -0.0522431 0
M  V30 10232 H 967.722 3.91749 -0.798299 0
M  V30 10233 H 969.162 4.23571 0.190626 0
M  V30 10234 C 967.621 3.14709 1.20248 0
M  V30 10235 O 968.151 3.29947 2.29124 0
M  V30 10236 N 966.357 2.68892 1.10207 0
M  V30 10237 H 965.904 2.56692 0.216063 0
M  V30 10238 H 965.862 2.47218 1.94244 0
M  V30 10239 N 969.634 0.838594 1.33437 0
M  V30 10240 C 971.045 0.490934 1.8013 0
M  V30 10241 C 971.396 -0.990024 1.6939 0
M  V30 10242 O 970.521 -1.77139 1.24302 0
M  V30 10243 C 971.116 0.884347 3.27055 0
M  V30 10244 C 969.675 0.588829 3.71766 0
M  V30 10245 C 968.822 1.09282 2.54858 0
M  V30 10246 H 971.773 1.02732 1.20962 0
M  V30 10247 H 971.794 0.194283 3.80004 0
M  V30 10248 H 971.306 1.96225 3.34839 0
M  V30 10249 H 969.407 -0.479018 3.69508 0
M  V30 10250 H 969.52 1.14387 4.65245 0
M  V30 10251 H 967.884 0.513702 2.49466 0
M  V30 10252 H 968.667 2.1775 2.65405 0
M  V30 10253 N 971.112 -1.45937 0.595003 0
M  V30 10254 C 972.528 -1.57507 0.257641 0
M  V30 10255 C 972.728 -1.58829 -1.23998 0
M  V30 10256 O 971.784 -1.51183 -2.02237 0
M  V30 10257 C 973.097 -2.86354 0.917708 0
M  V30 10258 C 974.645 -3.00007 0.892446 0
M  V30 10259 C 975.12 -4.31607 1.53229 0
M  V30 10260 N 976.611 -4.38336 1.49719 0
M  V30 10261 C 977.346 -5.38805 1.96154 0
M  V30 10262 N 976.842 -6.45882 2.50617 0
M  V30 10263 N 978.635 -5.30084 1.86997 0
M  V30 10264 H 970.786 -1.43322 1.56756 0
M  V30 10265 H 973.049 -0.684436 0.655936 0
M  V30 10266 H 972.755 -2.91233 1.97171 0
M  V30 10267 H 972.629 -3.74703 0.433344 0
M  V30 10268 H 975.016 -2.94703 -0.152975 0
M  V30 10269 H 975.097 -2.13103 1.41495 0
M  V30 10270 H 974.741 -4.3767 2.57697 0
M  V30 10271 H 974.671 -5.17308 0.984903 0
M  V30 10272 H 977.162 -3.6156 1.09921 0
M  V30 10273 H 977.475 -7.18774 2.83874 0
M  V30 10274 H 975.82 -6.46668 2.54649 0
M  V30 10275 H 979.011 -4.45337 1.44196 0
M  V30 10276 H 979.184 -6.08237 2.23499 0
M  V30 10277 N 972.59 -0.333456 -1.54032 0
M  V30 10278 C 973.839 0.267081 -1.99924 0
M  V30 10279 C 974.152 1.52463 -1.22534 0
M  V30 10280 O 975.358 2.20178 -1.58852 0
M  V30 10281 C 973.814 0.526456 -3.56029 0
M  V30 10282 C 973.422 -0.714607 -4.42264 0
M  V30 10283 C 975.166 1.0864 -4.10363 0
M  V30 10284 C 973.073 -0.42659 -5.89859 0
M  V30 10285 H 972.003 0.103577 -0.746852 0
M  V30 10286 H 974.654 -0.447218 -1.77967 0
M  V30 10287 H 973.036 1.3012 -3.74012 0
M  V30 10288 H 974.21 -1.48968 -4.36056 0
M  V30 10289 H 972.525 -1.19547 -3.9887 0
M  V30 10290 H 975.122 1.31668 -5.18235 0
M  V30 10291 H 975.465 2.03884 -3.62956 0
M  V30 10292 H 975.998 0.37261 -3.96051 0
M  V30 10293 H 972.737 -1.34847 -6.4148 0
M  V30 10294 H 972.257 0.310588 -5.98995 0
M  V30 10295 H 973.936 -0.0400807 -6.46988 0
M  V30 10296 N 974.068 1.57479 -0.061844 0
M  V30 10297 C 975.479 1.80627 0.472295 0
M  V30 10298 C 975.83 0.97496 1.70261 0
M  V30 10299 O 974.955 0.1946 2.15523 0
M  V30 10300 C 975.55 3.27608 0.863616 0
M  V30 10301 C 974.109 3.51638 1.34267 0
M  V30 10302 C 973.256 2.75412 0.323009 0
M  V30 10303 H 976.207 1.56072 -0.287634 0
M  V30 10304 H 976.228 3.39113 1.72577 0
M  V30 10305 H 975.74 3.88087 -0.0320226 0
M  V30 10306 H 973.841 2.96452 2.25714 0
M  V30 10307 H 973.954 4.60342 1.32747 0
M  V30 10308 H 972.318 2.4187 0.798175 0
M  V30 10309 H 973.101 3.38623 -0.564729 0
M  V30 10310 N 975.546 -0.211634 1.56173 0
M  V30 10311 C 976.776 -0.949805 1.83473 0
M  V30 10312 C 977.184 -1.78045 0.640053 0
M  V30 10313 O 976.527 -1.79277 -0.400702 0
M  V30 10314 C 976.589 -1.90868 3.04647 0
M  V30 10315 C 976.253 -1.26159 4.39241 0
M  V30 10316 C 977.25 -0.646597 5.15863 0
M  V30 10317 C 974.935 -1.27039 4.85969 0
M  V30 10318 C 976.929 -0.0490313 6.37381 0
M  V30 10319 C 974.616 -0.668987 6.07427 0
M  V30 10320 C 975.614 -0.0593687 6.82974 0
M  V30 10321 O 975.302 0.532656 8.02133 0
M  V30 10322 H 975.034 -0.283458 0.6137 0
M  V30 10323 H 977.588 -0.22894 2.0412 0
M  V30 10324 H 975.818 -2.6688 2.79843 0
M  V30 10325 H 977.507 -2.51323 3.18734 0
M  V30 10326 H 978.273 -0.632056 4.80864 0
M  V30 10327 H 974.152 -1.73429 4.27134 0
M  V30 10328 H 977.696 0.427414 6.96289 0
M  V30 10329 H 973.593 -0.680975 6.41898 0
M  V30 10330 H 974.361 0.427942 8.17381 0
M  V30 10331 N 977.024 -1.50153 -0.478725 0
M  V30 10332 C 978.252 -1.64505 -1.25482 0
M  V30 10333 C 978.667 -0.325295 -1.85977 0
M  V30 10334 O 978.024 0.691885 -1.68876 0
M  V30 10335 C 978.075 -2.73052 -2.36906 0
M  V30 10336 O 977.796 -3.99911 -1.78894 0
M  V30 10337 C 979.297 -2.98309 -3.27912 0
M  V30 10338 H 976.517 -0.55318 -0.379781 0
M  V30 10339 H 979.061 -1.96329 -0.57229 0
M  V30 10340 H 977.216 -2.43944 -3.00949 0
M  V30 10341 H 977.63 -4.5988 -2.52211 0
M  V30 10342 H 979.104 -3.77942 -4.02323 0
M  V30 10343 H 979.581 -2.09082 -3.8624 0
M  V30 10344 H 980.187 -3.2892 -2.69614 0
M  V30 10345 N 978.502 0.731368 -1.39602 0
M  V30 10346 C 979.412 1.87579 -1.40894 0
M  V30 10347 C 980.428 1.71336 -0.303319 0
M  V30 10348 O 981.604 1.93875 -0.545377 0
M  V30 10349 C 978.669 3.23211 -1.25442 0
M  V30 10350 C 977.73 3.51822 -2.46008 0
M  V30 10351 C 976.963 4.80982 -2.31284 0
M  V30 10352 O 977.186 5.54958 -1.31824 0
M  V30 10353 O 976.12 5.09574 -3.20341 0
M  V30 10354 H 979.946 1.89444 -2.3737 0
M  V30 10355 H 977.531 0.879675 -1.20756 0
M  V30 10356 H 979.413 4.04257 -1.18972 0
M  V30 10357 H 978.088 3.22108 -0.320637 0
M  V30 10358 H 976.995 2.70847 -2.58055 0
M  V30 10359 H 978.328 3.57707 -3.38093 0
M  V30 10360 N 979.98 1.24838 0.961938 0
M  V30 10361 C 980.91 1.07053 2.07514 0
M  V30 10362 C 981.891 -0.0182465 1.7009 0
M  V30 10363 O 983.076 0.149915 1.9362 0
M  V30 10364 C 980.206 0.680693 3.40564 0
M  V30 10365 C 979.16 1.71889 3.91967 0
M  V30 10366 C 978.486 1.18395 5.21428 0
M  V30 10367 C 979.786 3.1161 4.19161 0
M  V30 10368 H 981.48 2.00167 2.22651 0
M  V30 10369 H 979.026 0.963799 1.0699 0
M  V30 10370 H 980.979 0.54324 4.17884 0
M  V30 10371 H 979.703 -0.28615 3.25344 0
M  V30 10372 H 978.362 1.84465 3.16809 0
M  V30 10373 H 978.01 0.207543 5.02572 0
M  V30 10374 H 977.71 1.87778 5.56788 0
M  V30 10375 H 979.234 1.05873 6.01351 0
M  V30 10376 H 980.648 3.0223 4.87165 0
M  V30 10377 H 979.045 3.78398 4.65763 0
M  V30 10378 H 980.115 3.59218 3.25715 0
M  V30 10379 N 981.458 -1.16348 1.06306 0
M  V30 10380 C 982.683 -1.91323 0.800636 0
M  V30 10381 C 983.108 -1.7691 -0.639105 0
M  V30 10382 O 982.466 -1.0945 -1.44535 0
M  V30 10383 C 982.514 -3.40038 1.20027 0
M  V30 10384 O 981.618 -4.11003 0.339142 0
M  V30 10385 H 980.959 -0.596057 0.292595 0
M  V30 10386 H 983.489 -1.47406 1.41889 0
M  V30 10387 H 983.499 -3.90808 1.17188 0
M  V30 10388 H 982.174 -3.49848 2.24898 0
M  V30 10389 H 980.751 -3.70423 0.42911 0
M  V30 10390 N 982.937 -0.845659 -1.3299 0
M  V30 10391 C 983.887 -0.2557 -2.26562 0
M  V30 10392 C 984.871 0.593245 -1.49564 0
M  V30 10393 O 986.063 0.444101 -1.71338 0
M  V30 10394 C 983.192 0.562573 -3.38659 0
M  V30 10395 C 982.278 -0.298259 -4.2305 0
M  V30 10396 N 982.669 -1.38023 -4.86604 0
M  V30 10397 C 980.967 -0.0864539 -4.45916 0
M  V30 10398 C 981.668 -1.90907 -5.49481 0
M  V30 10399 N 980.644 -1.20955 -5.29973 0
M  V30 10400 H 984.446 -1.083 -2.73219 0
M  V30 10401 H 981.96 -0.690823 -1.46974 0
M  V30 10402 H 983.957 1.00157 -4.0469 0
M  V30 10403 H 982.617 1.38777 -2.93549 0
M  V30 10404 H 983.628 -1.76314 -4.86964 0
M  V30 10405 H 980.305 0.70475 -4.11509 0
M  V30 10406 H 981.695 -2.81552 -6.10064 0
M  V30 10407 N 984.415 1.45619 -0.602734 0
M  V30 10408 C 985.664 2.01483 -0.0936395 0
M  V30 10409 C 985.977 1.47753 1.28173 0
M  V30 10410 O 987.183 1.95562 1.88329 0
M  V30 10411 C 985.639 3.59711 -0.116738 0
M  V30 10412 C 985.247 4.22437 -1.49166 0
M  V30 10413 C 986.991 4.23157 0.337368 0
M  V30 10414 C 984.898 5.72803 -1.47141 0
M  V30 10415 H 983.828 0.753353 -0.0312382 0
M  V30 10416 H 986.479 1.67142 -0.757347 0
M  V30 10417 H 984.861 3.91218 0.613529 0
M  V30 10418 H 986.035 4.02511 -2.24325 0
M  V30 10419 H 984.35 3.71166 -1.88746 0
M  V30 10420 H 986.947 5.33407 0.371628 0
M  V30 10421 H 987.29 3.93491 1.35906 0
M  V30 10422 H 987.823 3.96349 -0.339474 0
M  V30 10423 H 984.562 6.07161 -2.47055 0
M  V30 10424 H 984.082 5.94936 -0.762329 0
M  V30 10425 H 985.761 6.35907 -1.19294 0
M  V30 10426 N 985.893 0.34162 1.53853 0
M  V30 10427 C 987.142 -0.256475 2.00063 0
M  V30 10428 C 987.455 -1.51811 1.23341 0
M  V30 10429 O 988.661 -2.19332 1.60017 0
M  V30 10430 C 987.117 -0.507567 3.56303 0
M  V30 10431 C 986.725 0.738052 4.41879 0
M  V30 10432 C 988.469 -1.06463 4.10933 0
M  V30 10433 C 986.376 0.457865 5.89625 0
M  V30 10434 H 985.306 -0.0996143 0.747391 0
M  V30 10435 H 987.957 0.456649 1.77727 0
M  V30 10436 H 986.339 -1.28134 3.74697 0
M  V30 10437 H 987.513 1.51278 4.3526 0
M  V30 10438 H 985.828 1.21661 3.98231 0
M  V30 10439 H 988.425 -1.28918 5.18926 0
M  V30 10440 H 988.768 -2.01956 3.64032 0
M  V30 10441 H 989.301 -0.351601 3.96243 0
M  V30 10442 H 986.04 1.38247 6.40756 0
M  V30 10443 H 985.56 -0.278818 5.99152 0
M  V30 10444 H 987.239 0.0743914 6.46957 0
M  V30 10445 N 987.371 -1.57444 0.0701946 0
M  V30 10446 C 988.318 -2.12631 -0.897599 0
M  V30 10447 C 989.288 -1.03841 -1.29639 0
M  V30 10448 O 990.473 -1.31495 -1.38253 0
M  V30 10449 C 987.613 -2.6911 -2.16041 0
M  V30 10450 C 986.726 -3.9205 -1.8144 0
M  V30 10451 C 985.861 -4.36778 -3.02321 0
M  V30 10452 C 984.9 -5.52371 -2.63729 0
M  V30 10453 N 984.037 -5.92065 -3.77364 0
M  V30 10454 H 988.877 -2.95024 -0.420104 0
M  V30 10455 H 986.414 -1.45792 -0.195716 0
M  V30 10456 H 988.372 -2.99963 -2.89962 0
M  V30 10457 H 987.002 -1.89484 -2.61334 0
M  V30 10458 H 986.054 -3.67669 -0.975896 0
M  V30 10459 H 987.366 -4.76011 -1.49046 0
M  V30 10460 H 986.52 -4.69285 -3.84521 0
M  V30 10461 H 985.259 -3.51668 -3.37907 0
M  V30 10462 H 984.264 -5.19517 -1.7995 0
M  V30 10463 H 985.489 -6.39212 -2.29315 0
M  V30 10464 H 983.435 -5.09904 -4.12715 0
M  V30 10465 H 983.352 -6.70762 -3.48733 0
M  V30 10466 H 984.62 -6.29193 -4.60148 0
M  V30 10467 N 988.849 0.203349 -1.56283 0
M  V30 10468 C 989.796 1.25205 -1.93888 0
M  V30 10469 C 990.766 1.45654 -0.798376 0
M  V30 10470 O 991.951 1.58924 -1.05583 0
M  V30 10471 C 989.091 2.59355 -2.27659 0
M  V30 10472 C 988.204 2.46553 -3.54733 0
M  V30 10473 C 987.339 3.73351 -3.77865 0
M  V30 10474 C 986.378 3.55347 -4.98392 0
M  V30 10475 N 985.515 4.74137 -5.17821 0
M  V30 10476 H 990.355 0.924356 -2.83301 0
M  V30 10477 H 987.892 0.445082 -1.40205 0
M  V30 10478 H 989.85 3.375 -2.45254 0
M  V30 10479 H 988.48 2.90184 -1.41396 0
M  V30 10480 H 987.532 1.59749 -3.45231 0
M  V30 10481 H 988.844 2.2918 -4.43033 0
M  V30 10482 H 987.998 4.59937 -3.95655 0
M  V30 10483 H 986.737 3.9367 -2.8788 0
M  V30 10484 H 985.742 2.67146 -4.80534 0
M  V30 10485 H 986.967 3.36482 -5.89879 0
M  V30 10486 H 984.913 4.94735 -4.30782 0
M  V30 10487 H 984.83 4.59558 -6.00285 0
M  V30 10488 H 986.098 5.62098 -5.40061 0
M  V30 10489 N 990.327 1.50405 0.470755 0
M  V30 10490 C 991.259 1.65447 1.58619 0
M  V30 10491 C 992.272 0.535949 1.53725 0
M  V30 10492 O 993.461 0.80914 1.59107 0
M  V30 10493 C 990.561 1.62318 2.975 0
M  V30 10494 C 989.734 2.90207 3.27259 0
M  V30 10495 C 988.793 2.79717 4.45696 0
M  V30 10496 O 987.819 3.53672 4.45987 0
M  V30 10497 N 989.021 1.93296 5.47373 0
M  V30 10498 H 991.786 2.61659 1.46132 0
M  V30 10499 H 989.347 1.47873 0.659178 0
M  V30 10500 H 991.339 1.52912 3.747 0
M  V30 10501 H 989.909 0.738392 3.03754 0
M  V30 10502 H 989.129 3.13737 2.38669 0
M  V30 10503 H 990.417 3.74931 3.43953 0
M  V30 10504 H 989.815 1.32524 5.49958 0
M  V30 10505 H 988.372 1.89793 6.23556 0
M  V30 10506 N 991.805 -0.723954 1.39988 0
M  V30 10507 C 992.752 -1.83803 1.39589 0
M  V30 10508 C 993.722 -1.64146 0.253996 0
M  V30 10509 O 994.907 -1.85398 0.450793 0
M  V30 10510 C 992.047 -3.21431 1.25604 0
M  V30 10511 C 991.16 -3.52717 2.49429 0
M  V30 10512 C 990.295 -4.79805 2.27949 0
M  V30 10513 C 989.334 -5.03968 3.47394 0
M  V30 10514 N 988.471 -6.22266 3.25161 0
M  V30 10515 H 993.311 -1.83479 2.34818 0
M  V30 10516 H 990.848 -0.896396 1.16633 0
M  V30 10517 H 992.806 -4.00892 1.15504 0
M  V30 10518 H 991.436 -3.21005 0.339986 0
M  V30 10519 H 990.488 -2.67872 2.7009 0
M  V30 10520 H 991.8 -3.66486 3.38363 0
M  V30 10521 H 990.954 -5.67268 2.15155 0
M  V30 10522 H 989.693 -4.68229 1.36428 0
M  V30 10523 H 988.698 -4.14963 3.60674 0
M  V30 10524 H 989.923 -5.17422 4.39831 0
M  V30 10525 H 987.869 -6.11957 2.36314 0
M  V30 10526 H 987.786 -6.36673 4.07656 0
M  V30 10527 H 989.054 -7.12539 3.16083 0
M  V30 10528 N 993.283 -1.25346 -0.955304 0
M  V30 10529 C 994.193 -1.07412 -2.08566 0
M  V30 10530 C 995.209 -0.0114424 -1.73996 0
M  V30 10531 O 996.385 -0.212236 -2.00279 0
M  V30 10532 C 993.45 -0.694141 -3.3968 0
M  V30 10533 C 992.511 -1.83468 -3.88121 0
M  V30 10534 C 991.744 -1.47274 -5.12978 0
M  V30 10535 O 991.967 -0.368086 -5.69211 0
M  V30 10536 O 990.901 -2.30269 -5.56111 0
M  V30 10537 H 994.727 -2.02206 -2.26598 0
M  V30 10538 H 992.312 -1.04279 -1.06988 0
M  V30 10539 H 994.194 -0.494325 -4.18491 0
M  V30 10540 H 992.869 0.224545 -3.2292 0
M  V30 10541 H 991.776 -2.08935 -3.10318 0
M  V30 10542 H 993.109 -2.73258 -4.09379 0
M  V30 10543 N 994.761 1.15782 -1.06922 0
M  V30 10544 C 996.01 1.85807 -0.784774 0
M  V30 10545 C 996.323 1.82967 0.691551 0
M  V30 10546 O 997.529 2.48632 1.0906 0
M  V30 10547 C 995.985 3.33469 -1.35375 0
M  V30 10548 C 995.593 3.44766 -2.86077 0
M  V30 10549 C 997.337 4.08707 -1.14713 0
M  V30 10550 C 995.244 4.86551 -3.36187 0
M  V30 10551 H 994.174 0.696046 -0.28989 0
M  V30 10552 H 996.825 1.30629 -1.28873 0
M  V30 10553 H 995.207 3.88292 -0.77754 0
M  V30 10554 H 996.381 3.00073 -3.49704 0
M  V30 10555 H 994.696 2.82969 -3.05479 0
M  V30 10556 H 997.293 5.13336 -1.49633 0
M  V30 10557 H 997.636 4.16211 -0.0858868 0
M  V30 10558 H 998.169 3.60142 -1.68946 0
M  V30 10559 H 994.908 4.84229 -4.41818 0
M  V30 10560 H 994.428 5.31844 -2.77312 0
M  V30 10561 H 996.107 5.55392 -3.31887 0
M  V30 10562 N 996.239 0.8527 1.3254 0
M  V30 10563 C 997.488 0.45136 1.96585 0
M  V30 10564 C 997.801 -0.997773 1.68237 0
M  V30 10565 O 999.007 -1.50445 2.26006 0
M  V30 10566 C 997.463 0.75619 3.51866 0
M  V30 10567 C 997.071 2.22092 3.89075 0
M  V30 10568 C 998.815 0.422478 4.22392 0
M  V30 10569 C 996.722 2.46908 5.37392 0
M  V30 10570 H 995.652 0.165052 0.735713 0
M  V30 10571 H 998.303 1.04321 1.50962 0
M  V30 10572 H 996.685 0.0937988 3.95889 0
M  V30 10573 H 997.859 2.92494 3.56067 0
M  V30 10574 H 996.174 2.51896 3.31568 0
M  V30 10575 H 998.771 0.58533 5.31487 0
M  V30 10576 H 999.114 -0.635737 4.11417 0
M  V30 10577 H 999.647 1.04068 3.83946 0
M  V30 10578 H 996.386 3.51346 5.53386 0
M  V30 10579 H 995.906 1.81082 5.71812 0
M  V30 10580 H 997.585 2.30758 6.0445 0
M  V30 10581 N 997.718 -1.45297 0.610449 0
M  V30 10582 C 998.665 -2.30553 -0.106718 0
M  V30 10583 C 999.635 -1.42272 -0.85719 0
M  V30 10584 O 1000.82 -1.71199 -0.842357 0
M  V30 10585 C 997.96 -3.27226 -1.09623 0
M  V30 10586 C 997.073 -4.3061 -0.346329 0
M  V30 10587 C 996.208 -5.14389 -1.32581 0
M  V30 10588 C 995.247 -6.09497 -0.563892 0
M  V30 10589 N 994.384 -6.86047 -1.4928 0
M  V30 10590 H 999.224 -2.91344 0.626296 0
M  V30 10591 H 996.761 -1.43563 0.32065 0
M  V30 10592 H 998.719 -3.81744 -1.68308 0
M  V30 10593 H 997.349 -2.68182 -1.79662 0
M  V30 10594 H 996.401 -3.7873 0.356084 0
M  V30 10595 H 997.713 -4.98183 0.248026 0
M  V30 10596 H 996.867 -5.73321 -1.98464 0
M  V30 10597 H 995.606 -4.4684 -1.9541 0
M  V30 10598 H 994.611 -5.49693 0.108551 0
M  V30 10599 H 995.836 -6.79074 0.0593872 0
M  V30 10600 H 993.782 -6.21185 -2.10868 0
M  V30 10601 H 993.699 -7.49983 -0.951953 0
M  V30 10602 H 994.967 -7.49518 -2.14112 0
M  V30 10603 N 999.196 -0.349774 -1.5367 0
M  V30 10604 C 1000.14 0.504121 -2.25227 0
M  V30 10605 C 1001.11 1.09048 -1.2529 0
M  V30 10606 O 1002.3 1.12594 -1.54037 0
M  V30 10607 C 999.438 1.64601 -3.03316 0
M  V30 10608 C 998.551 1.08635 -4.18118 0
M  V30 10609 C 997.686 2.19605 -4.83681 0
M  V30 10610 C 996.725 1.61023 -5.90541 0
M  V30 10611 N 995.862 2.6576 -6.49858 0
M  V30 10612 H 1000.7 -0.112621 -2.97787 0
M  V30 10613 H 998.239 -0.0673503 -1.46946 0
M  V30 10614 H 1000.2 2.31836 -3.46854 0
M  V30 10615 H 998.827 2.23364 -2.33041 0
M  V30 10616 H 997.879 0.304748 -3.79177 0
M  V30 10617 H 999.191 0.617911 -4.94958 0
M  V30 10618 H 998.345 2.94693 -5.30322 0
M  V30 10619 H 997.084 2.69795 -4.06278 0
M  V30 10620 H 996.089 0.844428 -5.43277 0
M  V30 10621 H 997.314 1.11677 -6.69855 0
M  V30 10622 H 995.26 3.15193 -5.75317 0
M  V30 10623 H 995.177 2.23557 -7.2219 0
M  V30 10624 H 996.445 3.40598 -7.01151 0
M  V30 10625 N 1000.67 1.57404 -0.0785433 0
M  V30 10626 C 1001.6 2.16131 0.883726 0
M  V30 10627 C 1002.58 1.09015 1.30575 0
M  V30 10628 O 1003.77 1.3708 1.37559 0
M  V30 10629 C 1000.9 2.72836 2.1489 0
M  V30 10630 C 999.854 3.85178 1.86605 0
M  V30 10631 C 999.18 4.28516 3.1981 0
M  V30 10632 C 1000.48 5.09118 1.16601 0
M  V30 10633 H 1002.17 2.9679 0.394484 0
M  V30 10634 H 999.72 1.42763 0.188304 0
M  V30 10635 H 1001.67 3.12567 2.8263 0
M  V30 10636 H 1000.4 1.89408 2.66068 0
M  V30 10637 H 999.056 3.45962 1.21268 0
M  V30 10638 H 998.704 3.42 3.68843 0
M  V30 10639 H 998.404 5.04249 3.01674 0
M  V30 10640 H 999.928 4.70868 3.88737 0
M  V30 10641 H 1001.34 5.46123 1.74422 0
M  V30 10642 H 999.739 5.90173 1.087 0
M  V30 10643 H 1000.81 4.8468 0.146138 0
M  V30 10644 N 1002.15 -0.195058 1.56388 0
M  V30 10645 C 1003.4 -0.913626 1.79821 0
M  V30 10646 C 1003.71 -1.84422 0.651767 0
M  V30 10647 O 1004.92 -2.6034 0.770402 0
M  V30 10648 C 1003.38 -1.67497 3.18548 0
M  V30 10649 C 1002.98 -0.789205 4.40994 0
M  V30 10650 C 1004.73 -2.38318 3.5129 0
M  V30 10651 C 1002.63 -1.54942 5.70742 0
M  V30 10652 H 1001.56 -0.344891 0.670497 0
M  V30 10653 H 1004.22 -0.166912 1.82739 0
M  V30 10654 H 1002.6 -2.46557 3.0988 0
M  V30 10655 H 1003.77 -0.0372595 4.60785 0
M  V30 10656 H 1002.09 -0.191834 4.15958 0
M  V30 10657 H 1004.68 -2.95745 4.45465 0
M  V30 10658 H 1005.03 -3.12507 2.75037 0
M  V30 10659 H 1005.56 -1.66224 3.61406 0
M  V30 10660 H 1002.3 -0.85031 6.49962 0
M  V30 10661 H 1001.82 -2.2753 5.54969 0
M  V30 10662 H 1003.5 -2.1032 6.11861 0
M  V30 10663 N 1003.63 -1.50653 -0.462772 0
M  V30 10664 C 1004.54 -1.72923 -1.58539 0
M  V30 10665 C 1005.56 -0.612577 -1.6286 0
M  V30 10666 O 1006.73 -0.891885 -1.80575 0
M  V30 10667 C 1003.8 -1.82623 -2.94703 0
M  V30 10668 C 1002.86 -3.06392 -3.00704 0
M  V30 10669 C 1002.09 -3.15618 -4.30373 0
M  V30 10670 O 1002.31 -2.31423 -5.21344 0
M  V30 10671 O 1001.25 -4.0841 -4.42136 0
M  V30 10672 H 1005.07 -2.68103 -1.42669 0
M  V30 10673 H 1002.66 -1.34848 -0.643144 0
M  V30 10674 H 1004.54 -1.91134 -3.7556 0
M  V30 10675 H 1003.22 -0.906275 -3.10754 0
M  V30 10676 H 1002.12 -3.03375 -2.18894 0
M  V30 10677 H 1003.46 -3.97992 -2.89591 0
M  V30 10678 N 1005.11 0.71652 -1.4037 0
M  V30 10679 C 1006.52 1.02447 -1.22379 0
M  V30 10680 C 1006.72 2.0126 -0.0983394 0
M  V30 10681 O 1005.78 2.46569 0.544071 0
M  V30 10682 C 1007.09 1.56909 -2.56515 0
M  V30 10683 C 1008.64 1.68898 -2.6352 0
M  V30 10684 C 1009.12 2.26765 -3.97922 0
M  V30 10685 N 1010.61 2.34152 -3.99658 0
M  V30 10686 C 1011.34 2.79907 -5.00439 0
M  V30 10687 N 1010.84 3.25422 -6.11615 0
M  V30 10688 N 1012.63 2.79283 -4.87809 0
M  V30 10689 H 1004.78 0.0615306 -2.12311 0
M  V30 10690 H 1007.05 0.0898994 -0.943728 0
M  V30 10691 H 1006.75 0.917649 -3.39517 0
M  V30 10692 H 1006.63 2.55446 -2.77538 0
M  V30 10693 H 1009.01 2.33159 -1.8089 0
M  V30 10694 H 1009.09 0.689626 -2.46329 0
M  V30 10695 H 1008.74 1.63126 -4.80991 0
M  V30 10696 H 1008.67 3.27413 -4.12442 0
M  V30 10697 H 1011.16 2.02006 -3.19378 0
M  V30 10698 H 1011.47 3.58899 -6.84406 0
M  V30 10699 H 1009.82 3.23383 -6.15181 0
M  V30 10700 H 1013.01 2.43061 -4.00049 0
M  V30 10701 H 1013.18 3.14626 -5.66493 0
M  V30 10702 N 1006.59 1.25851 0.948643 0
M  V30 10703 C 1007.53 1.06759 2.04625 0
M  V30 10704 C 1008.5 -0.0251144 1.66081 0
M  V30 10705 O 1009.69 0.133221 1.90334 0
M  V30 10706 C 1006.83 0.698724 3.37952 0
M  V30 10707 C 1005.94 1.8669 3.89578 0
M  V30 10708 C 1005.08 1.44184 5.11258 0
M  V30 10709 C 1004.12 2.57878 5.55126 0
M  V30 10710 N 1003.25 2.16106 6.68014 0
M  V30 10711 H 1008.09 2.00691 2.20289 0
M  V30 10712 H 1005.63 0.999327 1.07944 0
M  V30 10713 H 1007.59 0.465788 4.14592 0
M  V30 10714 H 1006.22 -0.203618 3.22157 0
M  V30 10715 H 1005.27 2.21298 3.09405 0
M  V30 10716 H 1006.58 2.72051 4.18079 0
M  V30 10717 H 1005.74 1.16891 5.95333 0
M  V30 10718 H 1004.47 0.559035 4.84485 0
M  V30 10719 H 1003.48 2.85909 4.69612 0
M  V30 10720 H 1004.7 3.46747 5.83904 0
M  V30 10721 H 1002.65 1.3025 6.42939 0
M  V30 10722 H 1002.57 2.95012 6.96063 0
M  V30 10723 H 1003.84 1.92005 7.55483 0
M  V30 10724 N 1008.06 -1.15214 1.07534 0
M  V30 10725 C 1009 -2.19634 0.655261 0
M  V30 10726 C 1010.01 -1.60139 -0.293165 0
M  V30 10727 O 1011.2 -1.78311 -0.0821957 0
M  V30 10728 C 1008.3 -3.38851 -0.0578281 0
M  V30 10729 C 1007.47 -4.27888 0.90725 0
M  V30 10730 C 1006.53 -5.25692 0.231115 0
M  V30 10731 O 1005.56 -5.62469 0.872746 0
M  V30 10732 N 1006.76 -5.71424 -1.0225 0
M  V30 10733 H 1009.52 -2.56292 1.55353 0
M  V30 10734 H 1007.08 -1.30347 0.960271 0
M  V30 10735 H 1009.08 -4.01334 -0.520874 0
M  V30 10736 H 1007.65 -3.00593 -0.858071 0
M  V30 10737 H 1006.87 -3.62475 1.54937 0
M  V30 10738 H 1008.15 -4.84246 1.56151 0
M  V30 10739 H 1007.55 -5.43659 -1.56369 0
M  V30 10740 H 1006.11 -6.35938 -1.42919 0
M  V30 10741 N 1009.54 -0.859717 -1.32086 0
M  V30 10742 C 1010.51 -0.313005 -2.27053 0
M  V30 10743 C 1011.51 0.530191 -1.51808 0
M  V30 10744 O 1012.7 0.340972 -1.7083 0
M  V30 10745 C 1009.83 0.5566 -3.36325 0
M  V30 10746 H 1011.02 -1.15125 -2.76923 0
M  V30 10747 H 1008.57 -0.634463 -1.42843 0
M  V30 10748 H 1009.31 1.41645 -2.91731 0
M  V30 10749 H 1009.09 -0.0470197 -3.92072 0
M  V30 10750 H 1010.58 0.931725 -4.07073 0
M  V30 10751 N 1011.02 1.44971 -0.618145 0
M  V30 10752 C 1011.95 2.28815 0.132751 0
M  V30 10753 C 1012.97 1.40551 0.821535 0
M  V30 10754 O 1014.15 1.64827 0.685155 0
M  V30 10755 C 1011.25 3.1658 1.20955 0
M  V30 10756 C 1010.43 4.33184 0.605821 0
M  V30 10757 C 1009.49 5.0208 1.57488 0
M  V30 10758 O 1008.51 5.58528 1.09706 0
M  V30 10759 N 1009.71 5.02335 2.9093 0
M  V30 10760 H 1012.48 2.939 -0.58674 0
M  V30 10761 H 1010.04 1.55276 -0.458375 0
M  V30 10762 H 1012.03 3.59535 1.85787 0
M  V30 10763 H 1010.6 2.53333 1.83143 0
M  V30 10764 H 1009.82 3.93581 -0.220827 0
M  V30 10765 H 1011.11 5.08471 0.182883 0
M  V30 10766 H 1010.51 4.57783 3.32342 0
M  V30 10767 H 1009.07 5.49119 3.51157 0
M  V30 10768 N 1012.5 0.357919 1.53482 0
M  V30 10769 C 1013.75 -0.235241 2.00324 0
M  V30 10770 C 1014.06 -1.50494 1.24944 0
M  V30 10771 O 1015.27 -2.17623 1.62335 0
M  V30 10772 C 1013.72 -0.469748 3.56821 0
M  V30 10773 C 1013.33 0.784877 4.41071 0
M  V30 10774 C 1015.07 -1.02098 4.12039 0
M  V30 10775 C 1012.98 0.520377 5.89106 0
M  V30 10776 H 1011.91 -0.0916816 0.748405 0
M  V30 10777 H 1014.56 0.475474 1.77233 0
M  V30 10778 H 1012.94 -1.24153 3.76035 0
M  V30 10779 H 1014.12 1.55886 4.33631 0
M  V30 10780 H 1012.43 1.25878 3.96918 0
M  V30 10781 H 1015.03 -1.23406 5.20264 0
M  V30 10782 H 1015.37 -1.98084 3.66154 0
M  V30 10783 H 1015.91 -0.309554 3.96594 0
M  V30 10784 H 1012.65 1.45035 6.39254 0
M  V30 10785 H 1012.17 -0.215254 5.99414 0
M  V30 10786 H 1013.84 0.143006 6.46842 0
M  V30 10787 N 1013.98 -1.5736 0.0868897 0
M  V30 10788 C 1015.39 -1.57304 -0.269762 0
M  V30 10789 C 1015.59 -1.09745 -1.68992 0
M  V30 10790 O 1014.65 -0.77017 -2.40468 0
M  V30 10791 C 1015.96 -3.00628 -0.0656646 0
M  V30 10792 C 1017.51 -3.12713 -0.134045 0
M  V30 10793 C 1017.98 -4.57981 0.0419569 0
M  V30 10794 N 1019.48 -4.63198 -0.0131501 0
M  V30 10795 C 1020.21 -5.73316 0.0983964 0
M  V30 10796 N 1019.71 -6.92296 0.264315 0
M  V30 10797 N 1021.5 -5.62086 0.0402517 0
M  V30 10798 H 1013.65 -1.86585 1.01487 0
M  V30 10799 H 1015.91 -0.860843 0.397055 0
M  V30 10800 H 1015.62 -3.39592 0.914891 0
M  V30 10801 H 1015.49 -3.68367 -0.811522 0
M  V30 10802 H 1017.88 -2.73627 -1.1051 0
M  V30 10803 H 1017.96 -2.47582 0.643167 0
M  V30 10804 H 1017.61 -4.9776 1.00984 0
M  V30 10805 H 1017.54 -5.21162 -0.754847 0
M  V30 10806 H 1020.03 -3.77644 -0.139183 0
M  V30 10807 H 1020.34 -7.72047 0.341165 0
M  V30 10808 H 1018.68 -6.94353 0.299876 0
M  V30 10809 H 1021.88 -4.68017 -0.0881801 0
M  V30 10810 H 1022.05 -6.47868 0.130635 0
M  V30 10811 N 1015.45 0.186762 -1.56489 0
M  V30 10812 C 1016.4 1.23141 -1.95205 0
M  V30 10813 C 1017.37 1.44799 -0.81378 0
M  V30 10814 O 1018.56 1.57795 -1.07263 0
M  V30 10815 C 1015.7 2.56926 -2.30397 0
M  V30 10816 C 1014.81 2.42777 -3.57328 0
M  V30 10817 C 1013.94 3.69323 -3.81804 0
M  V30 10818 C 1012.98 3.50041 -5.02133 0
M  V30 10819 N 1012.12 4.68619 -5.2282 0
M  V30 10820 H 1016.96 0.894256 -2.84266 0
M  V30 10821 H 1014.5 0.430187 -1.40669 0
M  V30 10822 H 1016.46 3.3488 -2.4882 0
M  V30 10823 H 1015.09 2.88668 -1.44466 0
M  V30 10824 H 1014.14 1.56078 -3.46906 0
M  V30 10825 H 1015.45 2.24468 -4.45439 0
M  V30 10826 H 1014.6 4.55715 -4.00511 0
M  V30 10827 H 1013.34 3.90595 -2.92039 0
M  V30 10828 H 1012.35 2.62034 -4.8334 0
M  V30 10829 H 1013.57 3.30206 -5.93414 0
M  V30 10830 H 1011.52 4.90139 -4.36005 0
M  V30 10831 H 1011.44 4.53165 -6.05126 0
M  V30 10832 H 1012.7 5.56338 -5.45993 0
M  V30 10833 N 1016.93 1.50896 0.454776 0
M  V30 10834 C 1018.18 1.6294 1.20741 0
M  V30 10835 C 1018.51 0.336339 1.91265 0
M  V30 10836 O 1017.79 -0.663153 1.82846 0
M  V30 10837 C 1018.07 2.82092 2.23822 0
M  V30 10838 C 1017.92 4.21326 1.57495 0
M  V30 10839 C 1019.24 2.96777 3.24979 0
M  V30 10840 H 1016.36 0.59302 0.437603 0
M  V30 10841 H 1019 1.83331 0.498959 0
M  V30 10842 H 1017.15 2.64837 2.84243 0
M  V30 10843 H 1018.82 4.50209 1.00546 0
M  V30 10844 H 1017.07 4.24829 0.877664 0
M  V30 10845 H 1017.74 5.00656 2.32482 0
M  V30 10846 H 1020.21 3.12627 2.74597 0
M  V30 10847 H 1019.09 3.81742 3.94416 0
M  V30 10848 H 1019.35 2.08091 3.90065 0
M  V30 10849 N 1018.41 -0.709066 1.40748 0
M  V30 10850 C 1019.64 -1.49591 1.425 0
M  V30 10851 C 1020.05 -1.89184 0.0248343 0
M  V30 10852 O 1019.39 -1.56429 -0.963109 0
M  V30 10853 C 1019.45 -2.79735 2.25807 0
M  V30 10854 C 1019.12 -2.62426 3.74141 0
M  V30 10855 C 1020.11 -2.29256 4.66624 0
M  V30 10856 C 1017.8 -2.78487 4.18032 0
M  V30 10857 C 1019.79 -2.12366 6.00982 0
M  V30 10858 C 1017.48 -2.61215 5.52458 0
M  V30 10859 C 1018.48 -2.28203 6.43749 0
M  V30 10860 O 1018.17 -2.11069 7.75697 0
M  V30 10861 H 1017.9 -0.467994 0.487809 0
M  V30 10862 H 1020.45 -0.881694 1.85514 0
M  V30 10863 H 1018.68 -3.43513 1.77584 0
M  V30 10864 H 1020.37 -3.41481 2.19421 0
M  V30 10865 H 1021.14 -2.16474 4.34009 0
M  V30 10866 H 1017.02 -3.03168 3.4729 0
M  V30 10867 H 1020.56 -1.86522 6.72202 0
M  V30 10868 H 1016.46 -2.73582 5.84656 0
M  V30 10869 H 1017.23 -2.25938 7.86698 0
M  V30 10870 N 1019.89 -1.26353 -0.941956 0
M  V30 10871 C 1021.3 -1.10774 -1.50287 0
M  V30 10872 C 1021.65 0.312229 -1.937 0
M  V30 10873 O 1020.78 1.20364 -1.79838 0
M  V30 10874 C 1021.37 -2.00473 -2.73123 0
M  V30 10875 C 1019.93 -1.89042 -3.25485 0
M  V30 10876 C 1019.08 -1.93869 -1.98267 0
M  V30 10877 H 1022.03 -1.39454 -0.757523 0
M  V30 10878 H 1022.05 -1.55216 -3.47402 0
M  V30 10879 H 1021.56 -3.03812 -2.41495 0
M  V30 10880 H 1019.66 -0.886341 -3.61904 0
M  V30 10881 H 1019.78 -2.74533 -3.92643 0
M  V30 10882 H 1018.14 -1.37912 -2.14132 0
M  V30 10883 H 1018.92 -2.98837 -1.68972 0
M  V30 10884 N 1021.37 1.14642 -1.08144 0
M  V30 10885 C 1022.62 1.8525 -0.807885 0
M  V30 10886 C 1022.94 1.83194 0.668213 0
M  V30 10887 O 1022.21 1.27848 1.48431 0
M  V30 10888 H 1020.79 0.685909 -0.295868 0
M  V30 10889 H 1023.45 1.38935 -1.36686 0
M  V30 10890 H 1022.54 2.90155 -1.14964 0
M  V30 10891 N 1022.85 0.866709 1.31628 0
M  V30 10892 C 1023.78 0.335762 2.31073 0
M  V30 10893 C 1024.76 -0.571597 1.60209 0
M  V30 10894 O 1025.94 -0.489306 1.87935 0
M  V30 10895 C 1023.07 -0.466416 3.44154 0
M  V30 10896 C 1022.03 0.347561 4.26586 0
M  V30 10897 C 1021.35 -0.5801 5.31544 0
M  V30 10898 C 1022.65 1.57986 4.97833 0
M  V30 10899 H 1024.35 1.16673 2.75731 0
M  V30 10900 H 1021.89 0.56248 1.3256 0
M  V30 10901 H 1023.84 -0.84836 4.12772 0
M  V30 10902 H 1022.57 -1.33086 2.98254 0
M  V30 10903 H 1021.23 0.71141 3.59631 0
M  V30 10904 H 1020.88 -1.44174 4.81895 0
M  V30 10905 H 1020.58 -0.0393965 5.87587 0
M  V30 10906 H 1022.1 -0.958958 6.03023 0
M  V30 10907 H 1023.51 1.26954 5.59067 0
M  V30 10908 H 1021.91 2.05939 5.63657 0
M  V30 10909 H 1022.98 2.3345 4.25005 0
M  V30 10910 N 1024.32 -1.44642 0.625825 0
M  V30 10911 C 1025.55 -2.06971 0.133373 0
M  V30 10912 C 1025.97 -1.46421 -1.18078 0
M  V30 10913 O 1025.33 -0.563676 -1.72315 0
M  V30 10914 C 1025.38 -3.6059 0.0265097 0
M  V30 10915 O 1024.48 -3.99615 -1.01889 0
M  V30 10916 H 1023.82 -0.658873 0.0823568 0
M  V30 10917 H 1026.35 -1.85601 0.861002 0
M  V30 10918 H 1026.36 -4.07663 -0.1658 0
M  V30 10919 H 1025.04 -4.04043 0.985986 0
M  V30 10920 H 1023.62 -3.64183 -0.801577 0
M  V30 10921 N 1025.8 -0.366053 -1.5329 0
M  V30 10922 C 1027.04 0.223558 -2.03174 0
M  V30 10923 C 1027.41 1.45955 -1.24745 0
M  V30 10924 O 1028.61 2.12481 -1.64637 0
M  V30 10925 C 1026.88 0.507899 -3.53773 0
M  V30 10926 S 1028.44 1.07111 -4.25526 0
M  V30 10927 H 1025.25 0.0650309 -0.70802 0
M  V30 10928 H 1027.86 -0.509028 -1.88757 0
M  V30 10929 H 1026.56 -0.39913 -4.08455 0
M  V30 10930 H 1026.09 1.26954 -3.72352 0
M  V30 10931 H 1028.11 2.35533 -4.36737 0
M  V30 10932 N 1027.28 1.57312 -0.0952337 0
M  V30 10933 C 1028.53 1.94358 0.568442 0
M  V30 10934 C 1028.85 0.97698 1.68182 0
M  V30 10935 O 1028.11 -0.00340398 1.957 0
M  V30 10936 C 1028.41 3.37937 1.16332 0
M  V30 10937 C 1028.07 4.50565 0.173715 0
M  V30 10938 C 1026.74 4.81099 -0.0984673 0
M  V30 10939 C 1029.09 5.18777 -0.501992 0
M  V30 10940 C 1026.42 5.77172 -1.05305 0
M  V30 10941 C 1028.77 6.15874 -1.44505 0
M  V30 10942 C 1027.43 6.44813 -1.72546 0
M  V30 10943 H 1026.7 0.711206 0.208007 0
M  V30 10944 H 1029.35 1.90734 -0.171096 0
M  V30 10945 H 1027.65 3.3814 1.97911 0
M  V30 10946 H 1029.35 3.63902 1.68453 0
M  V30 10947 H 1025.94 4.26766 0.396042 0
M  V30 10948 H 1030.13 4.95363 -0.304855 0
M  V30 10949 H 1025.38 5.97909 -1.2773 0
M  V30 10950 H 1029.56 6.67824 -1.97444 0
M  V30 10951 H 1027.18 7.19067 -2.46671 0
M  V30 10952 N 1028.76 -0.17846 1.56586 0
M  V30 10953 C 1029.7 -1.22104 1.95855 0
M  V30 10954 C 1030.67 -1.44366 0.821447 0
M  V30 10955 O 1031.86 -1.57224 1.08098 0
M  V30 10956 C 1029 -2.55701 2.31757 0
M  V30 10957 C 1028.11 -2.40879 3.5861 0
M  V30 10958 C 1027.25 -3.67293 3.83757 0
M  V30 10959 C 1026.29 -3.47373 5.03982 0
M  V30 10960 N 1025.42 -4.65839 5.25298 0
M  V30 10961 H 1030.26 -0.879168 2.84736 0
M  V30 10962 H 1027.8 -0.422721 1.40895 0
M  V30 10963 H 1029.76 -3.33556 2.50592 0
M  V30 10964 H 1028.39 -2.87898 1.45995 0
M  V30 10965 H 1027.44 -1.54236 3.47729 0
M  V30 10966 H 1028.75 -2.22102 4.46623 0
M  V30 10967 H 1027.91 -4.53584 4.02922 0
M  V30 10968 H 1026.65 -3.89041 2.94107 0
M  V30 10969 H 1025.65 -2.59467 4.84723 0
M  V30 10970 H 1026.88 -3.27055 5.95157 0
M  V30 10971 H 1024.82 -4.8782 4.38598 0
M  V30 10972 H 1024.74 -4.4995 6.0752 0
M  V30 10973 H 1026.01 -5.53435 5.48936 0
M  V30 10974 N 1030.24 -1.51135 -0.446768 0
M  V30 10975 C 1031.15 -1.74595 -1.56696 0
M  V30 10976 C 1032.16 -0.629816 -1.62201 0
M  V30 10977 O 1033.34 -0.910987 -1.79619 0
M  V30 10978 C 1030.4 -1.85738 -2.9275 0
M  V30 10979 C 1029.46 -3.09564 -2.97437 0
M  V30 10980 C 1028.7 -3.20165 -4.27001 0
M  V30 10981 O 1028.92 -2.36939 -5.1886 0
M  V30 10982 O 1027.85 -4.13077 -4.3778 0
M  V30 10983 H 1031.68 -2.69601 -1.39817 0
M  V30 10984 H 1029.26 -1.35523 -0.628805 0
M  V30 10985 H 1031.15 -1.95107 -3.73512 0
M  V30 10986 H 1029.82 -0.939184 -3.09776 0
M  V30 10987 H 1028.73 -3.05679 -2.15664 0
M  V30 10988 H 1030.06 -4.01041 -2.85353 0
M  V30 10989 N 1031.71 0.701592 -1.41122 0
M  V30 10990 C 1032.96 1.45871 -1.39879 0
M  V30 10991 C 1033.28 1.94999 -0.00668769 0
M  V30 10992 O 1032.55 1.71298 0.95047 0
M  V30 10993 H 1031.13 0.541231 -0.514857 0
M  V30 10994 H 1033.79 0.830803 -1.76306 0
M  V30 10995 H 1032.89 2.32479 -2.0823 0
M  V30 10996 N 1033.19 1.2685 0.935242 0
M  V30 10997 C 1034.44 1.12912 1.6846 0
M  V30 10998 C 1034.77 -0.325708 1.91449 0
M  V30 10999 O 1034.05 -1.23884 1.49944 0
M  V30 11000 C 1034.33 1.90513 3.05576 0
M  V30 11001 C 1034.18 3.43936 2.89876 0
M  V30 11002 C 1035.5 1.70363 4.05789 0
M  V30 11003 H 1032.62 0.411559 0.611382 0
M  V30 11004 H 1035.26 1.55917 1.08582 0
M  V30 11005 H 1033.41 1.53963 3.5669 0
M  V30 11006 H 1035.08 3.90272 2.45939 0
M  V30 11007 H 1033.33 3.70659 2.25376 0
M  V30 11008 H 1034 3.93467 3.87153 0
M  V30 11009 H 1036.47 2.02217 3.63659 0
M  V30 11010 H 1035.35 2.27066 4.99732 0
M  V30 11011 H 1035.61 0.649674 4.373 0
M  V30 11012 N 1034.67 -1.14067 1.0875 0
M  V30 11013 C 1036.09 -1.37173 0.815823 0
M  V30 11014 C 1036.29 -1.93175 -0.573215 0
M  V30 11015 O 1035.34 -2.14672 -1.32937 0
M  V30 11016 C 1036.66 -2.32955 1.90138 0
M  V30 11017 C 1038.2 -2.46586 1.9278 0
M  V30 11018 C 1038.68 -3.4567 3.0046 0
M  V30 11019 N 1040.17 -3.53216 2.99655 0
M  V30 11020 C 1040.9 -4.29743 3.79616 0
M  V30 11021 N 1040.4 -5.09484 4.69466 0
M  V30 11022 N 1042.19 -4.24975 3.67903 0
M  V30 11023 H 1034.34 -0.760648 1.98313 0
M  V30 11024 H 1036.61 -0.397135 0.860807 0
M  V30 11025 H 1036.31 -1.98949 2.90021 0
M  V30 11026 H 1036.19 -3.32897 1.77368 0
M  V30 11027 H 1038.57 -2.79882 0.935404 0
M  V30 11028 H 1038.66 -1.46593 2.09629 0
M  V30 11029 H 1038.3 -3.13106 3.99909 0
M  V30 11030 H 1038.23 -4.45452 2.80856 0
M  V30 11031 H 1040.72 -2.96314 2.34535 0
M  V30 11032 H 1041.03 -5.65163 5.27077 0
M  V30 11033 H 1039.38 -5.08741 4.73506 0
M  V30 11034 H 1042.57 -3.61751 2.97075 0
M  V30 11035 H 1042.74 -4.84364 4.30459 0
M  V30 11036 N 1036.15 -0.873678 -1.31166 0
M  V30 11037 C 1037.08 -0.289389 -2.27366 0
M  V30 11038 C 1038.09 0.549667 -1.5324 0
M  V30 11039 O 1039.28 0.371056 -1.74601 0
M  V30 11040 C 1036.38 0.60807 -3.334 0
M  V30 11041 C 1035.56 -0.199379 -4.36945 0
M  V30 11042 C 1034.61 0.626798 -5.22454 0
M  V30 11043 O 1033.64 0.0535121 -5.69175 0
M  V30 11044 N 1034.84 1.93809 -5.47191 0
M  V30 11045 H 1037.61 -1.1161 -2.78143 0
M  V30 11046 H 1035.17 -0.735529 -1.44228 0
M  V30 11047 H 1037.16 1.16656 -3.87522 0
M  V30 11048 H 1035.73 1.33545 -2.82638 0
M  V30 11049 H 1034.95 -0.939316 -3.82845 0
M  V30 11050 H 1036.24 -0.75329 -5.03193 0
M  V30 11051 H 1035.64 2.42693 -5.10995 0
M  V30 11052 H 1034.19 2.44428 -6.04234 0
M  V30 11053 N 1037.63 1.44308 -0.633487 0
M  V30 11054 C 1038.88 2.01239 -0.136356 0
M  V30 11055 C 1039.19 1.50438 1.25011 0
M  V30 11056 O 1040.39 1.99513 1.84138 0
M  V30 11057 C 1038.85 3.59382 -0.193011 0
M  V30 11058 C 1038.46 4.19178 -1.58093 0
M  V30 11059 C 1040.2 4.23778 0.247534 0
M  V30 11060 C 1038.11 5.69553 -1.59258 0
M  V30 11061 H 1037.04 0.752521 -0.0472109 0
M  V30 11062 H 1039.69 1.65498 -0.79263 0
M  V30 11063 H 1038.07 3.92432 0.530408 0
M  V30 11064 H 1039.25 3.97662 -2.32813 0
M  V30 11065 H 1037.56 3.67079 -1.96576 0
M  V30 11066 H 1040.16 5.34075 0.258401 0
M  V30 11067 H 1040.5 3.96285 1.27529 0
M  V30 11068 H 1041.03 3.9554 -0.423469 0
M  V30 11069 H 1037.77 6.01784 -2.59878 0
M  V30 11070 H 1037.29 5.93185 -0.888352 0
M  V30 11071 H 1038.97 6.33234 -1.32756 0
M  V30 11072 N 1039.1 0.374177 1.53094 0
M  V30 11073 C 1040.52 -0.103172 1.86415 0
M  V30 11074 C 1040.87 -1.47439 1.29446 0
M  V30 11075 O 1039.99 -2.07333 0.619853 0
M  V30 11076 C 1040.59 -0.193988 3.38244 0
M  V30 11077 C 1039.15 -0.615605 3.71332 0
M  V30 11078 C 1038.29 0.23186 2.76329 0
M  V30 11079 H 1041.24 0.592644 1.47219 0
M  V30 11080 H 1041.26 -1.01597 3.66686 0
M  V30 11081 H 1040.78 0.80414 3.79678 0
M  V30 11082 H 1038.88 -1.62165 3.3546 0
M  V30 11083 H 1038.99 -0.38425 4.77557 0
M  V30 11084 H 1037.35 -0.300579 2.5292 0
M  V30 11085 H 1038.14 1.22769 3.20597 0
M  V30 11086 N 1040.58 -1.57259 0.103575 0
M  V30 11087 C 1041.83 -1.94945 -0.558953 0
M  V30 11088 C 1042.16 -0.986038 -1.67305 0
M  V30 11089 O 1041.44 -0.0205464 -1.94489 0
M  V30 11090 C 1041.72 -3.42689 -1.10617 0
M  V30 11091 C 1041.57 -4.498 0.00345246 0
M  V30 11092 C 1042.89 -3.91933 -2.00191 0
M  V30 11093 H 1040.01 -0.708859 -0.201713 0
M  V30 11094 H 1042.65 -1.89183 0.176006 0
M  V30 11095 H 1040.8 -3.4773 -1.73251 0
M  V30 11096 H 1042.47 -4.56866 0.638082 0
M  V30 11097 H 1040.72 -4.28615 0.668705 0
M  V30 11098 H 1041.39 -5.50397 -0.420396 0
M  V30 11099 H 1043.86 -3.89098 -1.4745 0
M  V30 11100 H 1042.74 -4.9586 -2.35402 0
M  V30 11101 H 1043 -3.31722 -2.92255 0
M  V30 11102 N 1042.06 0.170153 -1.56679 0
M  V30 11103 C 1042.97 1.23057 -1.99735 0
M  V30 11104 C 1043.99 1.48374 -0.908912 0
M  V30 11105 O 1045.16 1.60499 -1.21663 0
M  V30 11106 C 1042.23 2.54944 -2.34956 0
M  V30 11107 C 1041.29 2.3748 -3.57634 0
M  V30 11108 C 1040.52 3.63078 -3.91165 0
M  V30 11109 O 1040.74 4.68304 -3.2565 0
M  V30 11110 O 1039.68 3.57119 -4.8451 0
M  V30 11111 H 1043.5 0.895104 -2.9021 0
M  V30 11112 H 1041.09 0.377109 -1.44562 0
M  V30 11113 H 1042.97 3.32742 -2.58574 0
M  V30 11114 H 1041.65 2.88068 -1.47643 0
M  V30 11115 H 1040.55 1.57709 -3.39232 0
M  V30 11116 H 1041.89 2.0928 -4.45491 0
M  V30 11117 N 1043.54 1.5137 0.438746 0
M  V30 11118 C 1044.76 1.68058 1.21537 0
M  V30 11119 C 1045.19 0.376787 1.84288 0
M  V30 11120 O 1044.55 -0.662911 1.68746 0
M  V30 11121 C 1044.59 2.79684 2.27616 0
M  V30 11122 O 1043.7 2.43189 3.33066 0
M  V30 11123 H 1043.04 0.560408 0.356144 0
M  V30 11124 H 1045.57 1.97926 0.518311 0
M  V30 11125 H 1045.58 3.03726 2.72423 0
M  V30 11126 H 1044.25 3.74293 1.81321 0
M  V30 11127 H 1042.83 2.29713 2.93746 0
M  V30 11128 N 1045.02 -0.694098 1.41492 0
M  V30 11129 C 1046.26 -1.4563 1.41137 0
M  V30 11130 C 1046.6 -1.94189 0.0208428 0
M  V30 11131 O 1045.87 -1.69628 -0.951655 0
M  V30 11132 C 1046.15 -2.66714 2.41941 0
M  V30 11133 C 1046.01 -2.23912 3.90107 0
M  V30 11134 C 1047.33 -3.68913 2.39981 0
M  V30 11135 H 1044.44 -0.52821 0.513968 0
M  V30 11136 H 1047.09 -0.790437 1.72778 0
M  V30 11137 H 1045.24 -3.23525 2.1509 0
M  V30 11138 H 1046.91 -1.72417 4.27867 0
M  V30 11139 H 1045.15 -1.5568 4.04903 0
M  V30 11140 H 1045.82 -3.108 4.56188 0
M  V30 11141 H 1048.3 -3.21779 2.63813 0
M  V30 11142 H 1047.17 -4.51242 3.12524 0
M  V30 11143 H 1047.44 -4.18711 1.41892 0
M  V30 11144 N 1046.49 -1.27344 -0.928501 0
M  V30 11145 C 1047.91 -1.12361 -1.49103 0
M  V30 11146 C 1048.26 0.291667 -1.9402 0
M  V30 11147 O 1047.38 1.18449 -1.81104 0
M  V30 11148 C 1047.98 -2.03358 -2.70981 0
M  V30 11149 C 1046.54 -1.92483 -3.23461 0
M  V30 11150 C 1045.68 -1.95961 -1.962 0
M  V30 11151 H 1048.63 -1.40249 -0.742689 0
M  V30 11152 H 1048.65 -1.58892 -3.45736 0
M  V30 11153 H 1048.17 -3.06356 -2.38259 0
M  V30 11154 H 1046.27 -0.924676 -3.60944 0
M  V30 11155 H 1046.38 -2.78682 -3.89709 0
M  V30 11156 H 1044.74 -1.40175 -2.12657 0
M  V30 11157 H 1045.53 -3.00612 -1.65793 0
M  V30 11158 N 1047.97 1.13488 -1.09353 0
M  V30 11159 C 1049.22 1.84383 -0.827488 0
M  V30 11160 C 1049.54 1.83892 0.648745 0
M  V30 11161 O 1048.81 1.29415 1.47066 0
M  V30 11162 H 1047.39 0.682732 -0.303127 0
M  V30 11163 H 1050.05 1.37477 -1.38152 0
M  V30 11164 H 1049.15 2.88919 -1.18035 0
M  V30 11165 N 1049.45 0.880621 1.30701 0
M  V30 11166 C 1050.7 0.492957 1.95583 0
M  V30 11167 C 1051.01 -0.961863 1.70316 0
M  V30 11168 O 1052.22 -1.45617 2.29146 0
M  V30 11169 C 1050.68 0.830656 3.50183 0
M  V30 11170 C 1050.28 2.30295 3.84276 0
M  V30 11171 C 1052.03 0.511979 4.21401 0
M  V30 11172 C 1049.93 2.58251 5.32034 0
M  V30 11173 H 1048.86 0.18062 0.732047 0
M  V30 11174 H 1051.52 1.075 1.48715 0
M  V30 11175 H 1049.9 0.177752 3.95601 0
M  V30 11176 H 1051.07 2.99981 3.49783 0
M  V30 11177 H 1049.39 2.58873 3.2615 0
M  V30 11178 H 1051.98 0.697935 5.30125 0
M  V30 11179 H 1052.33 -0.548327 4.12673 0
M  V30 11180 H 1052.86 1.12189 3.81652 0
M  V30 11181 H 1049.6 3.63005 5.45809 0
M  V30 11182 H 1049.12 1.9317 5.67843 0
M  V30 11183 H 1050.8 2.43527 5.99419 0
M  V30 11184 N 1050.93 -1.4397 0.641131 0
M  V30 11185 C 1052.35 -1.56607 0.30762 0
M  V30 11186 C 1052.55 -1.62694 -1.18882 0
M  V30 11187 O 1051.6 -1.57541 -1.97325 0
M  V30 11188 C 1052.91 -2.83289 1.00834 0
M  V30 11189 C 1054.46 -2.97016 0.98744 0
M  V30 11190 C 1054.94 -4.26514 1.66882 0
M  V30 11191 N 1056.43 -4.33351 1.63589 0
M  V30 11192 C 1057.16 -5.32292 2.13196 0
M  V30 11193 N 1056.66 -6.37582 2.71038 0
M  V30 11194 N 1058.45 -5.23866 2.03766 0
M  V30 11195 H 1050.6 -1.38262 1.61237 0
M  V30 11196 H 1052.87 -0.663221 0.677378 0
M  V30 11197 H 1052.57 -2.84812 2.06337 0
M  V30 11198 H 1052.45 -3.73134 0.552333 0
M  V30 11199 H 1054.83 -2.95041 -0.0591395 0
M  V30 11200 H 1054.91 -2.08493 1.48203 0
M  V30 11201 H 1054.56 -4.2925 2.71491 0
M  V30 11202 H 1054.49 -5.13912 1.14898 0
M  V30 11203 H 1056.98 -3.5788 1.21368 0
M  V30 11204 H 1057.29 -7.09378 3.06597 0
M  V30 11205 H 1055.64 -6.38239 2.75093 0
M  V30 11206 H 1058.83 -4.40524 1.58291 0
M  V30 11207 H 1059 -6.00819 2.42737 0
M  V30 11208 N 1052.41 -0.382291 -1.52893 0
M  V30 11209 C 1053.32 0.463745 -2.29971 0
M  V30 11210 C 1054.33 1.07777 -1.36602 0
M  V30 11211 O 1055.51 1.0851 -1.69669 0
M  V30 11212 C 1052.57 1.57938 -3.08637 0
M  V30 11213 C 1051.64 0.991182 -4.17701 0
M  V30 11214 C 1050.87 2.05365 -4.92606 0
M  V30 11215 O 1051.09 3.26757 -4.67532 0
M  V30 11216 O 1050.03 1.67487 -5.78128 0
M  V30 11217 H 1053.85 -0.163962 -3.03257 0
M  V30 11218 H 1051.44 -0.146199 -1.48683 0
M  V30 11219 H 1053.32 2.22765 -3.57706 0
M  V30 11220 H 1051.99 2.19218 -2.3817 0
M  V30 11221 H 1050.9 0.306364 -3.72843 0
M  V30 11222 H 1052.23 0.422699 -4.90382 0
M  V30 11223 N 1053.89 1.57202 -0.111913 0
M  V30 11224 C 1055.11 1.99297 0.555713 0
M  V30 11225 C 1055.53 0.991444 1.60673 0
M  V30 11226 O 1054.89 -0.0166672 1.82492 0
M  V30 11227 C 1054.94 3.41413 1.18826 0
M  V30 11228 O 1054.66 4.37733 0.179261 0
M  V30 11229 C 1056.16 3.98602 1.93989 0
M  V30 11230 H 1053.38 0.654543 0.147695 0
M  V30 11231 H 1055.92 2.03557 -0.196163 0
M  V30 11232 H 1054.08 3.38115 1.89096 0
M  V30 11233 H 1054.49 5.20606 0.637935 0
M  V30 11234 H 1055.97 5.00143 2.33584 0
M  V30 11235 H 1056.44 3.37349 2.81233 0
M  V30 11236 H 1057.05 4.05424 1.28497 0
M  V30 11237 N 1055.36 -0.161842 1.56767 0
M  V30 11238 C 1056.61 -0.875192 1.82167 0
M  V30 11239 C 1056.93 -1.82367 0.690444 0
M  V30 11240 O 1056.2 -1.93756 -0.289023 0
M  V30 11241 H 1054.78 -0.326178 0.672024 0
M  V30 11242 H 1057.44 -0.159392 1.94247 0
M  V30 11243 H 1056.54 -1.44639 2.76561 0
M  V30 11244 N 1056.84 -1.516 -0.430713 0
M  V30 11245 C 1058.09 -1.65801 -1.17821 0
M  V30 11246 C 1058.44 -0.372769 -1.88754 0
M  V30 11247 O 1057.74 0.631767 -1.80885 0
M  V30 11248 C 1057.93 -2.804 -2.21609 0
M  V30 11249 C 1057.76 -4.19944 -1.60863 0
M  V30 11250 C 1056.53 -4.85786 -1.39068 0
M  V30 11251 C 1058.73 -5.02806 -1.08124 0
M  V30 11252 N 1056.71 -6.09425 -0.73989 0
M  V30 11253 C 1058.08 -6.17501 -0.556114 0
M  V30 11254 C 1060.13 -4.88288 -0.973635 0
M  V30 11255 C 1058.84 -7.1927 0.0660558 0
M  V30 11256 C 1060.86 -5.9027 -0.36535 0
M  V30 11257 C 1060.23 -7.04242 0.149205 0
M  V30 11258 H 1056.32 -0.660545 -0.418574 0
M  V30 11259 H 1058.91 -1.88847 -0.473799 0
M  V30 11260 H 1057.08 -2.59006 -2.89431 0
M  V30 11261 H 1058.81 -2.83747 -2.88565 0
M  V30 11262 H 1055.57 -4.4377 -1.65425 0
M  V30 11263 H 1055.99 -6.75622 -0.431745 0
M  V30 11264 H 1060.63 -4.00421 -1.35731 0
M  V30 11265 H 1058.35 -8.06779 0.461848 0
M  V30 11266 H 1061.94 -5.81107 -0.283902 0
M  V30 11267 H 1060.82 -7.81804 0.61249 0
M  V30 11268 N 1058.32 0.686584 -1.41858 0
M  V30 11269 C 1059.27 1.80038 -1.44413 0
M  V30 11270 C 1060.24 1.63415 -0.297427 0
M  V30 11271 O 1061.42 1.84138 -0.499789 0
M  V30 11272 C 1058.56 3.17988 -1.34082 0
M  V30 11273 C 1057.67 3.45979 -2.58693 0
M  V30 11274 C 1056.81 4.73592 -2.4059 0
M  V30 11275 C 1055.85 4.94581 -3.60633 0
M  V30 11276 N 1054.99 6.13426 -3.41545 0
M  V30 11277 H 1059.83 1.77189 -2.396 0
M  V30 11278 H 1057.36 0.865158 -1.18968 0
M  V30 11279 H 1059.32 3.97689 -1.26092 0
M  V30 11280 H 1057.95 3.1999 -0.424975 0
M  V30 11281 H 1057 2.60617 -2.77097 0
M  V30 11282 H 1058.31 3.57386 -3.47961 0
M  V30 11283 H 1057.47 5.61364 -2.30119 0
M  V30 11284 H 1056.21 4.64448 -1.48794 0
M  V30 11285 H 1055.21 4.05254 -3.71549 0
M  V30 11286 H 1056.44 5.05578 -4.53395 0
M  V30 11287 H 1054.38 6.05477 -2.52456 0
M  V30 11288 H 1054.3 6.25641 -4.24393 0
M  V30 11289 H 1055.57 7.03908 -3.34864 0
M  V30 11290 N 1059.8 1.27835 0.921735 0
M  V30 11291 C 1061.21 1.13151 1.48505 0
M  V30 11292 C 1061.56 -0.281373 1.94172 0
M  V30 11293 O 1060.68 -1.17487 1.8173 0
M  V30 11294 C 1061.28 2.04792 2.69899 0
M  V30 11295 C 1059.84 1.94196 3.22436 0
M  V30 11296 C 1058.99 1.96999 1.95158 0
M  V30 11297 H 1061.94 1.40641 0.735241 0
M  V30 11298 H 1061.96 1.60724 3.44889 0
M  V30 11299 H 1061.47 3.07615 2.36631 0
M  V30 11300 H 1059.57 0.943805 3.60448 0
M  V30 11301 H 1059.68 2.80744 3.88226 0
M  V30 11302 H 1058.05 1.41301 2.11911 0
M  V30 11303 H 1058.83 3.01487 1.64196 0
M  V30 11304 N 1061.28 -1.12907 1.09954 0
M  V30 11305 C 1062.21 -2.20585 0.765799 0
M  V30 11306 C 1063.19 -1.68117 -0.258989 0
M  V30 11307 O 1064.37 -1.93792 -0.125853 0
M  V30 11308 C 1061.5 -3.46772 0.191435 0
M  V30 11309 C 1060.46 -4.12363 1.14635 0
M  V30 11310 C 1059.78 -5.3294 0.433426 0
M  V30 11311 C 1061.08 -4.59073 2.49096 0
M  V30 11312 H 1062.78 -2.48759 1.66612 0
M  V30 11313 H 1060.32 -1.19563 0.802534 0
M  V30 11314 H 1062.27 -4.21365 -0.0541535 0
M  V30 11315 H 1061 -3.18011 -0.744101 0
M  V30 11316 H 1059.66 -3.39744 1.37731 0
M  V30 11317 H 1059.31 -5.00444 -0.506422 0
M  V30 11318 H 1059.01 -5.77772 1.07018 0
M  V30 11319 H 1060.53 -6.10284 0.196267 0
M  V30 11320 H 1061.94 -5.25063 2.30177 0
M  V30 11321 H 1060.34 -5.14665 3.0861 0
M  V30 11322 H 1061.41 -3.73313 3.0946 0
M  V30 11323 N 1062.75 -0.88754 -1.30232 0
M  V30 11324 C 1064 -0.506277 -1.95656 0
M  V30 11325 C 1064.32 0.948191 -1.70395 0
M  V30 11326 O 1063.59 1.66701 -1.02895 0
M  V30 11327 H 1062.17 -0.184235 -0.723924 0
M  V30 11328 H 1064.83 -1.13118 -1.58715 0
M  V30 11329 H 1063.93 -0.678673 -3.04632 0
M  V30 11330 N 1064.23 1.43628 -0.648757 0
M  V30 11331 C 1065.18 2.30755 0.0455536 0
M  V30 11332 C 1066.15 1.44495 0.819168 0
M  V30 11333 O 1067.33 1.73372 0.79667 0
M  V30 11334 C 1064.47 3.30017 1.00908 0
M  V30 11335 C 1063.59 4.31376 0.232039 0
M  V30 11336 C 1062.72 5.17723 1.18897 0
M  V30 11337 C 1061.76 6.10778 0.402096 0
M  V30 11338 N 1060.9 6.89763 1.31038 0
M  V30 11339 H 1065.74 2.89581 -0.70332 0
M  V30 11340 H 1063.28 1.42662 -0.3586 0
M  V30 11341 H 1065.23 3.86072 1.58128 0
M  V30 11342 H 1063.86 2.72851 1.72488 0
M  V30 11343 H 1062.92 3.77652 -0.456373 0
M  V30 11344 H 1064.23 4.9735 -0.380023 0
M  V30 11345 H 1063.38 5.78381 1.83194 0
M  V30 11346 H 1062.12 4.51864 1.83494 0
M  V30 11347 H 1061.13 5.49212 -0.254255 0
M  V30 11348 H 1062.35 6.78678 -0.239411 0
M  V30 11349 H 1060.3 6.26557 1.94324 0
M  V30 11350 H 1060.21 7.52243 0.752774 0
M  V30 11351 H 1061.48 7.54931 1.94164 0
M  V30 11352 N 1065.71 0.390394 1.52688 0
M  V30 11353 C 1066.62 -0.451543 2.30213 0
M  V30 11354 C 1067.64 -1.07051 1.37172 0
M  V30 11355 O 1068.81 -1.07609 1.70242 0
M  V30 11356 C 1065.88 -1.56299 3.0947 0
M  V30 11357 C 1064.94 -0.969017 4.18221 0
M  V30 11358 C 1064.17 -2.0275 4.93688 0
M  V30 11359 O 1064.39 -3.24273 4.69258 0
M  V30 11360 O 1063.33 -1.64418 5.79008 0
M  V30 11361 H 1067.15 0.180042 3.03166 0
M  V30 11362 H 1064.74 0.154082 1.48603 0
M  V30 11363 H 1066.62 -2.20864 3.58883 0
M  V30 11364 H 1065.3 -2.17952 2.3933 0
M  V30 11365 H 1064.2 -0.286587 3.73001 0
M  V30 11366 H 1065.54 -0.396687 4.90599 0
M  V30 11367 N 1067.19 -1.57141 0.120249 0
M  V30 11368 C 1068.14 -2.15379 -0.829497 0
M  V30 11369 C 1069.11 -1.07913 -1.2627 0
M  V30 11370 O 1070.29 -1.35827 -1.33999 0
M  V30 11371 C 1067.43 -2.75847 -2.0737 0
M  V30 11372 C 1066.54 -3.97624 -1.68875 0
M  V30 11373 C 1065.68 -4.46175 -2.88272 0
M  V30 11374 C 1064.72 -5.60481 -2.46023 0
M  V30 11375 N 1063.85 -6.0377 -3.58337 0
M  V30 11376 H 1068.69 -2.96211 -0.326031 0
M  V30 11377 H 1066.23 -1.46341 -0.149235 0
M  V30 11378 H 1068.19 -3.09037 -2.80272 0
M  V30 11379 H 1066.82 -1.97703 -2.55174 0
M  V30 11380 H 1065.87 -3.70588 -0.858431 0
M  V30 11381 H 1067.18 -4.80512 -1.33827 0
M  V30 11382 H 1066.34 -4.8128 -3.69397 0
M  V30 11383 H 1065.08 -3.6224 -3.26548 0
M  V30 11384 H 1064.08 -5.24979 -1.63331 0
M  V30 11385 H 1065.31 -6.46184 -2.08863 0
M  V30 11386 H 1063.25 -5.22776 -3.96284 0
M  V30 11387 H 1063.17 -6.81517 -3.27217 0
M  V30 11388 H 1064.44 -6.43514 -4.39898 0
M  V30 11389 N 1068.67 0.153526 -1.5685 0
M  V30 11390 C 1069.91 0.865519 -1.82629 0
M  V30 11391 C 1070.24 1.81999 -0.700105 0
M  V30 11392 O 1069.51 1.93907 0.278744 0
M  V30 11393 H 1068.09 0.32261 -0.673745 0
M  V30 11394 H 1070.75 0.149088 -1.94329 0
M  V30 11395 H 1069.84 1.43171 -2.77324 0
M  V30 11396 N 1070.14 1.51827 0.422667 0
M  V30 11397 C 1071.09 1.74198 1.51406 0
M  V30 11398 C 1072.06 0.584013 1.55494 0
M  V30 11399 O 1073.25 0.820079 1.72277 0
M  V30 11400 C 1070.39 1.88627 2.88988 0
M  V30 11401 C 1069.5 3.16233 2.94314 0
M  V30 11402 C 1068.63 3.21172 4.2311 0
M  V30 11403 C 1067.67 4.43033 4.2236 0
M  V30 11404 N 1066.81 4.4544 5.42704 0
M  V30 11405 H 1071.65 2.67352 1.31632 0
M  V30 11406 H 1069.19 1.32487 0.63919 0
M  V30 11407 H 1071.15 1.94976 3.68837 0
M  V30 11408 H 1069.78 0.988673 3.07287 0
M  V30 11409 H 1068.83 3.19123 2.07039 0
M  V30 11410 H 1070.14 4.06104 2.89623 0
M  V30 11411 H 1069.29 3.26517 5.11343 0
M  V30 11412 H 1068.03 2.29216 4.30478 0
M  V30 11413 H 1067.04 4.37849 3.32518 0
M  V30 11414 H 1068.26 5.3627 4.16643 0
M  V30 11415 H 1066.21 3.56361 5.50766 0
M  V30 11416 H 1066.13 5.29138 5.39953 0
M  V30 11417 H 1067.39 4.54997 6.32928 0
M  V30 11418 N 1071.62 -0.679052 1.4222 0
M  V30 11419 C 1072.53 -1.82221 1.47759 0
M  V30 11420 C 1073.55 -1.70092 0.3667 0
M  V30 11421 O 1074.72 -1.91718 0.616957 0
M  V30 11422 C 1071.79 -3.18332 1.37351 0
M  V30 11423 C 1070.85 -3.42449 2.58896 0
M  V30 11424 C 1070.08 -4.72067 2.48976 0
M  V30 11425 O 1070.31 -5.49683 1.5233 0
M  V30 11426 O 1069.24 -4.97333 3.39033 0
M  V30 11427 H 1073.07 -1.80504 2.44238 0
M  V30 11428 H 1070.65 -0.834251 1.23938 0
M  V30 11429 H 1072.53 -3.99563 1.33893 0
M  V30 11430 H 1071.21 -3.20696 0.439965 0
M  V30 11431 H 1070.12 -2.61083 2.6793 0
M  V30 11432 H 1071.45 -3.44912 3.51136 0
M  V30 11433 N 1073.1 -1.28322 -0.914942 0
M  V30 11434 C 1074.03 -1.14681 -2.03398 0
M  V30 11435 C 1075.01 -0.0448939 -1.70041 0
M  V30 11436 O 1076.2 -0.221672 -1.92931 0
M  V30 11437 C 1073.33 -0.806623 -3.37803 0
M  V30 11438 C 1072.28 -1.86318 -3.85318 0
M  V30 11439 C 1071.61 -1.37665 -5.16674 0
M  V30 11440 C 1072.91 -3.26953 -4.07307 0
M  V30 11441 H 1074.6 -2.08293 -2.15068 0
M  V30 11442 H 1072.15 -1.00284 -1.03339 0
M  V30 11443 H 1074.1 -0.69796 -4.1558 0
M  V30 11444 H 1072.82 0.165203 -3.26182 0
M  V30 11445 H 1071.48 -1.96096 -3.09745 0
M  V30 11446 H 1071.13 -0.393927 -5.01455 0
M  V30 11447 H 1070.83 -2.08313 -5.49435 0
M  V30 11448 H 1072.35 -1.28119 -5.97007 0
M  V30 11449 H 1073.77 -3.20102 -4.75613 0
M  V30 11450 H 1072.17 -3.95424 -4.51398 0
M  V30 11451 H 1073.24 -3.71059 -3.12159 0
M  V30 11452 N 1074.58 1.12322 -1.10551 0
M  V30 11453 C 1075.53 2.18087 -0.755424 0
M  V30 11454 C 1076.5 1.6391 0.268805 0
M  V30 11455 O 1077.68 1.90227 0.147813 0
M  V30 11456 C 1074.82 3.4455 -0.194713 0
M  V30 11457 C 1073.93 4.12775 -1.27439 0
M  V30 11458 C 1073.07 5.26891 -0.675194 0
M  V30 11459 C 1072.11 5.86985 -1.73536 0
M  V30 11460 N 1071.24 6.92512 -1.15635 0
M  V30 11461 H 1076.08 2.47379 -1.66155 0
M  V30 11462 H 1073.62 1.21452 -0.829924 0
M  V30 11463 H 1075.58 4.16936 0.148275 0
M  V30 11464 H 1074.21 3.15671 0.674638 0
M  V30 11465 H 1073.26 3.38556 -1.73448 0
M  V30 11466 H 1074.57 4.53506 -2.07687 0
M  V30 11467 H 1073.73 6.06046 -0.281723 0
M  V30 11468 H 1072.47 4.87442 0.158708 0
M  V30 11469 H 1071.47 5.06517 -2.13825 0
M  V30 11470 H 1072.7 6.28505 -2.57213 0
M  V30 11471 H 1070.64 6.55098 -0.343928 0
M  V30 11472 H 1070.56 7.31848 -1.89565 0
M  V30 11473 H 1071.83 7.75492 -0.789463 0
M  V30 11474 N 1076.06 0.894434 1.2976 0
M  V30 11475 C 1077.33 0.437365 1.90648 0
M  V30 11476 C 1077.71 -1.08261 1.81226 0
M  V30 11477 O 1077.06 -1.92213 1.23557 0
M  V30 11478 C 1077.27 0.946047 3.35933 0
M  V30 11479 C 1078.62 0.986621 4.12978 0
M  V30 11480 O 1079.64 0.893356 3.44815 0
M  V30 11481 O 1078.5 1.12591 5.34776 0
M  V30 11482 H 1075.6 0.135436 0.815835 0
M  V30 11483 H 1078.14 0.983955 1.38262 0
M  V30 11484 H 1076.91 1.98998 3.3692 0
M  V30 11485 H 1076.54 0.379164 3.95788 0
M  V30 11486 N 1077.53 -1.43282 0.656365 0
M  V30 11487 C 1078.95 -1.85012 0.250475 0
M  V30 11488 C 1079.3 -1.54944 -1.20361 0
M  V30 11489 O 1078.42 -0.999983 -1.9191 0
M  V30 11490 C 1079.02 -3.35827 0.447815 0
M  V30 11491 C 1077.58 -3.76277 0.0962151 0
M  V30 11492 C 1076.72 -2.66988 0.749168 0
M  V30 11493 H 1079.67 -1.3339 0.85982 0
M  V30 11494 H 1079.69 -3.7927 -0.305726 0
M  V30 11495 H 1079.21 -3.5768 1.5062 0
M  V30 11496 H 1077.31 -3.60035 -0.959449 0
M  V30 11497 H 1077.42 -4.76227 0.523875 0
M  V30 11498 H 1075.78 -2.54048 0.18212 0
M  V30 11499 H 1076.57 -2.91669 1.81064 0
M  V30 11500 N 1079.01 -0.398486 -1.52479 0
M  V30 11501 C 1080.29 0.238776 -1.94137 0
M  V30 11502 C 1080.67 1.63558 -1.33462 0
M  V30 11503 O 1080.02 2.22821 -0.506272 0
M  V30 11504 C 1080.23 0.255863 -3.48061 0
M  V30 11505 C 1081.58 0.480376 -4.21874 0
M  V30 11506 O 1082.6 0.335679 -3.54615 0
M  V30 11507 O 1081.46 0.764654 -5.41124 0
M  V30 11508 H 1078.55 0.150806 -0.813134 0
M  V30 11509 H 1081.1 -0.453659 -1.63524 0
M  V30 11510 H 1079.87 -0.722171 -3.84578 0
M  V30 11511 H 1079.49 0.99284 -3.85004 0
M  V30 11512 N 1080.49 1.57075 -0.12858 0
M  V30 11513 C 1081.42 2.12907 0.848708 0
M  V30 11514 C 1082.44 1.07406 1.22343 0
M  V30 11515 O 1083.63 1.34746 1.17071 0
M  V30 11516 C 1080.73 2.62167 2.1476 0
M  V30 11517 C 1079.9 3.91871 1.94309 0
M  V30 11518 C 1078.96 4.26629 3.08016 0
M  V30 11519 O 1077.98 4.9528 2.80511 0
M  V30 11520 N 1079.19 3.84721 4.34706 0
M  V30 11521 H 1081.95 2.97387 0.371636 0
M  V30 11522 H 1079.51 1.61805 0.0555574 0
M  V30 11523 H 1081.5 2.82444 2.89841 0
M  V30 11524 H 1080.07 1.82514 2.53786 0
M  V30 11525 H 1079.29 3.80406 1.03367 0
M  V30 11526 H 1080.58 4.76662 1.77962 0
M  V30 11527 H 1079.98 3.2937 4.59926 0
M  V30 11528 H 1078.54 4.10087 5.06628 0
M  V30 11529 N 1081.97 -0.145205 1.5693 0
M  V30 11530 C 1082.9 -1.18096 2.01434 0
M  V30 11531 C 1083.88 -1.447 0.894204 0
M  V30 11532 O 1085.07 -1.55589 1.16214 0
M  V30 11533 C 1082.2 -2.51369 2.39647 0
M  V30 11534 C 1081.15 -2.39283 3.54863 0
M  V30 11535 C 1080.48 -3.77283 3.78895 0
M  V30 11536 C 1081.78 -1.8754 4.87469 0
M  V30 11537 H 1083.47 -0.810897 2.8821 0
M  V30 11538 H 1081.02 -0.388624 1.38657 0
M  V30 11539 H 1082.97 -3.24054 2.69382 0
M  V30 11540 H 1081.69 -2.90214 1.49811 0
M  V30 11541 H 1080.35 -1.6905 3.25296 0
M  V30 11542 H 1080 -4.13567 2.86307 0
M  V30 11543 H 1079.7 -3.70057 4.56433 0
M  V30 11544 H 1081.22 -4.51514 4.11057 0
M  V30 11545 H 1082.64 -2.50019 5.1591 0
M  V30 11546 H 1081.03 -1.912 5.68826 0
M  V30 11547 H 1082.1 -0.831194 4.77723 0
M  V30 11548 N 1083.45 -1.52049 -0.414609 0
M  V30 11549 C 1084.68 -1.69433 -1.18221 0
M  V30 11550 C 1085.09 -0.40104 -1.84901 0
M  V30 11551 O 1084.43 0.632342 -1.72474 0
M  V30 11552 C 1084.49 -2.76986 -2.2917 0
M  V30 11553 C 1084.15 -4.18903 -1.82671 0
M  V30 11554 C 1085.15 -5.02929 -1.31751 0
M  V30 11555 C 1082.84 -4.65113 -1.89672 0
M  V30 11556 C 1084.83 -6.31234 -0.884461 0
M  V30 11557 C 1082.52 -5.93408 -1.45978 0
M  V30 11558 C 1083.52 -6.76297 -0.9545 0
M  V30 11559 O 1083.2 -8.02191 -0.523852 0
M  V30 11560 H 1082.94 -0.571228 -0.36149 0
M  V30 11561 H 1085.49 -1.99355 -0.494643 0
M  V30 11562 H 1083.72 -2.42428 -3.01273 0
M  V30 11563 H 1085.41 -2.83023 -2.90951 0
M  V30 11564 H 1086.17 -4.68422 -1.2572 0
M  V30 11565 H 1082.05 -4.00702 -2.27945 0
M  V30 11566 H 1085.6 -6.95881 -0.489383 0
M  V30 11567 H 1081.49 -6.27424 -1.51687 0
M  V30 11568 H 1082.26 -8.15934 -0.647656 0
M  V30 11569 N 1084.93 0.6715 -1.42579 0
M  V30 11570 C 1086.15 1.45972 -1.46628 0
M  V30 11571 C 1086.57 1.88636 -0.0785986 0
M  V30 11572 O 1085.93 1.58345 0.907372 0
M  V30 11573 C 1085.98 2.70668 -2.39627 0
M  V30 11574 O 1085.7 2.29793 -3.72997 0
M  V30 11575 C 1087.2 3.64201 -2.52731 0
M  V30 11576 H 1084.42 0.449044 -0.498598 0
M  V30 11577 H 1086.96 0.824811 -1.87129 0
M  V30 11578 H 1085.12 3.3034 -2.02371 0
M  V30 11579 H 1085.53 3.10341 -4.22834 0
M  V30 11580 H 1087.01 4.48412 -3.21918 0
M  V30 11581 H 1087.48 4.10323 -1.56626 0
M  V30 11582 H 1088.09 3.1042 -2.90722 0
M  V30 11583 N 1086.4 1.28806 0.908124 0
M  V30 11584 C 1087.63 1.19153 1.69146 0
M  V30 11585 C 1088.05 -0.249056 1.8715 0
M  V30 11586 O 1087.4 -1.16772 1.40251 0
M  V30 11587 C 1087.45 1.89167 3.08055 0
M  V30 11588 O 1087.18 3.27599 2.90879 0
M  V30 11589 C 1088.68 1.85886 4.02444 0
M  V30 11590 H 1085.9 0.413359 0.528559 0
M  V30 11591 H 1088.44 1.7003 1.13622 0
M  V30 11592 H 1086.6 1.42146 3.60379 0
M  V30 11593 H 1087.01 3.62743 3.78837 0
M  V30 11594 H 1088.48 2.39454 4.97359 0
M  V30 11595 H 1088.96 0.832483 4.31238 0
M  V30 11596 H 1089.57 2.32612 3.5605 0
M  V30 11597 N 1087.88 -1.11734 1.11145 0
M  V30 11598 C 1088.81 -2.1976 0.789152 0
M  V30 11599 C 1089.79 -1.68382 -0.241143 0
M  V30 11600 O 1090.98 -1.93914 -0.105292 0
M  V30 11601 C 1088.11 -3.46549 0.228204 0
M  V30 11602 C 1087.06 -4.11123 1.19002 0
M  V30 11603 C 1086.39 -5.32451 0.489928 0
M  V30 11604 C 1087.69 -4.56406 2.53951 0
M  V30 11605 H 1089.38 -2.46978 1.69241 0
M  V30 11606 H 1086.93 -1.18705 0.81517 0
M  V30 11607 H 1088.88 -4.21399 -0.00945908 0
M  V30 11608 H 1087.6 -3.18782 -0.71033 0
M  V30 11609 H 1086.26 -3.38264 1.41326 0
M  V30 11610 H 1085.91 -5.00953 -0.453315 0
M  V30 11611 H 1085.61 -5.76605 1.1314 0
M  V30 11612 H 1087.14 -6.10042 0.260984 0
M  V30 11613 H 1088.55 -5.22592 2.35733 0
M  V30 11614 H 1086.95 -5.11363 3.14051 0
M  V30 11615 H 1088.02 -3.7001 3.13402 0
M  V30 11616 N 1089.36 -0.901303 -1.29284 0
M  V30 11617 C 1090.31 -0.378666 -2.27672 0
M  V30 11618 C 1091.28 0.540102 -1.57074 0
M  V30 11619 O 1092.46 0.464997 -1.85047 0
M  V30 11620 C 1089.6 0.38635 -3.42931 0
M  V30 11621 C 1088.71 -0.563496 -4.28309 0
M  V30 11622 C 1087.85 0.218731 -5.30749 0
M  V30 11623 C 1086.89 -0.725536 -6.07785 0
M  V30 11624 N 1086.03 0.0223854 -7.02096 0
M  V30 11625 H 1090.87 -1.22277 -2.71758 0
M  V30 11626 H 1088.4 -0.614302 -1.33659 0
M  V30 11627 H 1090.36 0.845967 -4.08533 0
M  V30 11628 H 1088.99 1.1949 -2.9987 0
M  V30 11629 H 1088.04 -1.14163 -3.62865 0
M  V30 11630 H 1089.35 -1.28623 -4.81931 0
M  V30 11631 H 1088.51 0.739473 -6.02177 0
M  V30 11632 H 1087.25 0.97459 -4.77863 0
M  V30 11633 H 1086.25 -1.25776 -5.3522 0
M  V30 11634 H 1087.48 -1.48075 -6.6276 0
M  V30 11635 H 1085.42 0.760482 -6.51577 0
M  V30 11636 H 1085.34 -0.640408 -7.53283 0
M  V30 11637 H 1086.61 0.523339 -7.77741 0
M  V30 11638 N 1090.84 1.42931 -0.663954 0
M  V30 11639 C 1091.79 2.32577 0.03287 0
M  V30 11640 C 1092.78 1.49217 0.801918 0
M  V30 11641 O 1093.99 1.65358 0.711106 0
M  V30 11642 H 1090.36 0.751424 0.0294198 0
M  V30 11643 H 1092.33 2.89059 -0.740763 0
M  V30 11644 C 1091.08 3.33661 0.978025 0
M  V30 11645 H 1090.4 3.97837 0.395681 0
M  V30 11646 H 1091.84 3.98997 1.43448 0
M  V30 11647 C 1090.3 2.65085 2.07922 0
M  V30 11648 O 1090.83 2.4745 3.16435 0
M  V30 11649 N 1089.04 2.24285 1.84783 0
M  V30 11650 H 1088.59 2.38827 0.965368 0
M  V30 11651 H 1088.54 1.78732 2.58655 0
M  V30 11652 N 1092.32 0.406567 1.52266 0
M  V30 11653 C 1093.25 -0.411314 2.29849 0
M  V30 11654 C 1094.23 -1.04838 1.33952 0
M  V30 11655 O 1095.41 -1.05788 1.62857 0
M  V30 11656 C 1092.54 -1.52961 3.11802 0
M  V30 11657 C 1091.5 -1.01768 4.15725 0
M  V30 11658 C 1090.82 -2.22938 4.86007 0
M  V30 11659 C 1092.12 -0.073515 5.22248 0
M  V30 11660 H 1093.82 0.236054 2.98468 0
M  V30 11661 H 1091.36 0.114968 1.4354 0
M  V30 11662 H 1093.31 -2.10874 3.64843 0
M  V30 11663 H 1092.04 -2.20482 2.40947 0
M  V30 11664 H 1090.7 -0.46097 3.6369 0
M  V30 11665 H 1090.35 -2.89007 4.11684 0
M  V30 11666 H 1090.05 -1.89338 5.5626 0
M  V30 11667 H 1091.57 -2.81462 5.41859 0
M  V30 11668 H 1092.98 -0.561367 5.70545 0
M  V30 11669 H 1091.38 0.173551 5.99849 0
M  V30 11670 H 1092.45 0.872524 4.76985 0
M  V30 11671 N 1093.79 -1.57004 0.136909 0
M  V30 11672 C 1094.72 -2.19262 -0.802902 0
M  V30 11673 C 1095.71 -1.13786 -1.26439 0
M  V30 11674 O 1096.89 -1.42091 -1.32377 0
M  V30 11675 C 1094.02 -2.80624 -2.04615 0
M  V30 11676 C 1092.97 -3.91839 -1.72181 0
M  V30 11677 C 1092.3 -4.4009 -3.03686 0
M  V30 11678 C 1093.6 -5.13095 -0.976249 0
M  V30 11679 H 1095.29 -2.98049 -0.28406 0
M  V30 11680 H 1092.84 -1.43364 -0.135189 0
M  V30 11681 H 1094.79 -3.22842 -2.70834 0
M  V30 11682 H 1093.52 -1.99153 -2.58855 0
M  V30 11683 H 1092.18 -3.50224 -1.08344 0
M  V30 11684 H 1091.82 -3.55454 -3.55896 0
M  V30 11685 H 1091.52 -5.15098 -2.82751 0
M  V30 11686 H 1093.05 -4.84971 -3.70993 0
M  V30 11687 H 1094.46 -5.5222 -1.54033 0
M  V30 11688 H 1092.86 -5.93801 -0.867214 0
M  V30 11689 H 1093.93 -4.84888 0.0338488 0
M  V30 11690 N 1095.27 0.136881 -1.57004 0
M  V30 11691 C 1096.24 1.15267 -1.98106 0
M  V30 11692 C 1097.24 1.35305 -0.868856 0
M  V30 11693 O 1098.43 1.32126 -1.13527 0
M  V30 11694 C 1095.56 2.51092 -2.30577 0
M  V30 11695 H 1096.75 0.799821 -2.89038 0
M  V30 11696 H 1094.3 0.380576 -1.51596 0
M  V30 11697 H 1095.04 2.9133 -1.42469 0
M  V30 11698 H 1094.82 2.37906 -3.11678 0
M  V30 11699 H 1096.31 3.24232 -2.63179 0
M  V30 11700 N 1096.75 1.52266 0.40654 0
M  V30 11701 C 1097.68 1.72025 1.51459 0
M  V30 11702 C 1098.7 0.600667 1.51314 0
M  V30 11703 O 1099.88 0.875894 1.55532 0
M  V30 11704 C 1096.98 1.7479 2.90348 0
M  V30 11705 C 1096.16 3.03826 3.14656 0
M  V30 11706 C 1095.22 2.98369 4.33431 0
M  V30 11707 O 1094.24 3.7227 4.30586 0
M  V30 11708 N 1095.44 2.16338 5.38682 0
M  V30 11709 H 1098.21 2.67622 1.34903 0
M  V30 11710 H 1095.77 1.50536 0.595867 0
M  V30 11711 H 1097.76 1.68667 3.67877 0
M  V30 11712 H 1096.33 0.86656 3.00349 0
M  V30 11713 H 1095.55 3.23577 2.25148 0
M  V30 11714 H 1096.84 3.89182 3.27742 0
M  V30 11715 H 1096.24 1.55731 5.43842 0
M  V30 11716 H 1094.8 2.1607 6.14945 0
M  V30 11717 N 1098.23 -0.663929 1.42933 0
M  V30 11718 C 1099.48 -1.41973 1.43271 0
M  V30 11719 C 1099.79 -1.95518 0.0566103 0
M  V30 11720 O 1101 -2.71428 -0.0625862 0
M  V30 11721 C 1099.45 -2.56882 2.52071 0
M  V30 11722 C 1099.06 -2.0999 3.95737 0
M  V30 11723 C 1100.8 -3.34322 2.61589 0
M  V30 11724 C 1098.71 -3.22046 4.96025 0
M  V30 11725 H 1097.64 -0.5334 0.532917 0
M  V30 11726 H 1100.29 -0.717709 1.68882 0
M  V30 11727 H 1098.67 -3.29504 2.19643 0
M  V30 11728 H 1099.85 -1.44449 4.37574 0
M  V30 11729 H 1098.16 -1.45459 3.90168 0
M  V30 11730 H 1100.76 -4.17796 3.33692 0
M  V30 11731 H 1101.1 -3.8164 1.66302 0
M  V30 11732 H 1101.64 -2.68775 2.93266 0
M  V30 11733 H 1098.38 -2.79708 5.92827 0
M  V30 11734 H 1097.9 -3.86333 4.5881 0
M  V30 11735 H 1099.57 -3.87345 5.1824 0
M  V30 11736 N 1099.71 -1.29285 -0.901281 0
M  V30 11737 C 1100.65 -1.1428 -2.00521 0
M  V30 11738 C 1101.62 -0.0365428 -1.6606 0
M  V30 11739 O 1102.81 -0.203771 -1.89709 0
M  V30 11740 C 1099.95 -0.823671 -3.35126 0
M  V30 11741 C 1099.06 -2.01021 -3.8238 0
M  V30 11742 C 1098.2 -1.6306 -5.05554 0
M  V30 11743 C 1097.24 -2.78304 -5.45173 0
M  V30 11744 N 1096.37 -2.4075 -6.59533 0
M  V30 11745 H 1101.21 -2.08729 -2.12688 0
M  V30 11746 H 1098.75 -1.0387 -1.04161 0
M  V30 11747 H 1100.71 -0.61934 -4.12577 0
M  V30 11748 H 1099.34 0.0839113 -3.22691 0
M  V30 11749 H 1098.39 -2.32629 -3.00978 0
M  V30 11750 H 1099.7 -2.8738 -4.07694 0
M  V30 11751 H 1098.86 -1.38906 -5.90584 0
M  V30 11752 H 1097.59 -0.738464 -4.82077 0
M  V30 11753 H 1096.6 -3.03142 -4.58678 0
M  V30 11754 H 1097.82 -3.68179 -5.70632 0
M  V30 11755 H 1095.77 -1.54022 -6.37662 0
M  V30 11756 H 1095.69 -3.20643 -6.84634 0
M  V30 11757 H 1096.96 -2.19912 -7.47836 0
M  V30 11758 N 1101.18 1.11143 -1.11736 0
M  V30 11759 C 1102.41 1.87285 -0.891007 0
M  V30 11760 C 1102.83 1.79758 0.553971 0
M  V30 11761 O 1102.19 1.16221 1.39149 0
M  V30 11762 C 1102.24 3.33924 -1.36114 0
M  V30 11763 O 1101.34 4.08917 -0.534851 0
M  V30 11764 H 1100.69 0.581418 -0.320701 0
M  V30 11765 H 1103.22 1.40469 -1.4876 0
M  V30 11766 H 1103.23 3.84772 -1.35701 0
M  V30 11767 H 1101.9 3.38719 -2.41334 0
M  V30 11768 H 1100.48 3.67954 -0.605355 0
M  V30 11769 N 1102.66 0.908147 1.28804 0
M  V30 11770 C 1103.61 0.363504 2.25084 0
M  V30 11771 C 1104.6 -0.52121 1.52224 0
M  V30 11772 O 1105.79 -0.361848 1.73262 0
M  V30 11773 C 1102.92 -0.400353 3.40958 0
M  V30 11774 C 1102 0.499761 4.21145 0
M  V30 11775 N 1102.39 1.61082 4.79464 0
M  V30 11776 C 1100.69 0.299108 4.44996 0
M  V30 11777 C 1101.39 2.16906 5.39747 0
M  V30 11778 N 1100.37 1.46103 5.23598 0
M  V30 11779 H 1104.17 1.21212 2.6774 0
M  V30 11780 H 1101.69 0.760159 1.43511 0
M  V30 11781 H 1103.68 -0.807343 4.09008 0
M  V30 11782 H 1102.34 -1.24613 2.99836 0
M  V30 11783 H 1103.35 1.99347 4.77997 0
M  V30 11784 H 1100.03 -0.507611 4.14403 0
M  V30 11785 H 1101.42 3.10338 5.95936 0
M  V30 11786 N 1104.14 -1.42577 0.671525 0
M  V30 11787 C 1105.55 -1.84736 0.270084 0
M  V30 11788 C 1105.9 -1.56212 -1.18711 0
M  V30 11789 O 1105.03 -1.02028 -1.90838 0
M  V30 11790 C 1105.62 -3.35334 0.483409 0
M  V30 11791 C 1104.18 -3.76154 0.136119 0
M  V30 11792 C 1103.33 -2.66179 0.777444 0
M  V30 11793 H 1106.28 -1.3247 0.873919 0
M  V30 11794 H 1106.3 -3.79573 -0.265483 0
M  V30 11795 H 1105.81 -3.56063 1.54405 0
M  V30 11796 H 1103.91 -3.61033 -0.921209 0
M  V30 11797 H 1104.03 -4.75645 0.574356 0
M  V30 11798 H 1102.39 -2.53841 0.209055 0
M  V30 11799 H 1103.17 -2.89732 1.84148 0
M  V30 11800 N 1105.62 -0.414636 -1.52048 0
M  V30 11801 C 1106.84 0.161137 -2.06773 0
M  V30 11802 C 1107.27 1.37628 -1.2822 0
M  V30 11803 O 1106.63 1.78562 -0.313915 0
M  V30 11804 C 1106.67 0.48452 -3.5733 0
M  V30 11805 O 1105.78 1.57466 -3.81154 0
M  V30 11806 H 1105.12 0.0118003 -0.663895 0
M  V30 11807 H 1107.65 -0.589424 -1.95926 0
M  V30 11808 H 1107.66 0.741567 -4.01204 0
M  V30 11809 H 1106.33 -0.403733 -4.13936 0
M  V30 11810 H 1104.91 1.30935 -3.49157 0
M  V30 11811 N 1107.1 1.56929 -0.145233 0
M  V30 11812 C 1108.06 2.15483 0.781002 0
M  V30 11813 C 1109.06 1.09617 1.17647 0
M  V30 11814 O 1110.25 1.35265 1.09768 0
M  V30 11815 C 1107.38 2.7165 2.05959 0
M  V30 11816 H 1108.57 2.98667 0.271685 0
M  V30 11817 H 1106.13 1.55952 0.1042 0
M  V30 11818 H 1106.86 1.92127 2.61262 0
M  V30 11819 H 1106.65 3.491 1.78526 0
M  V30 11820 H 1108.14 3.16769 2.72116 0
M  V30 11821 N 1108.58 -0.128553 1.57075 0
M  V30 11822 C 1109.82 -0.834322 1.85501 0
M  V30 11823 C 1110.18 -1.77943 0.731725 0
M  V30 11824 O 1109.47 -1.89702 -0.269003 0
M  V30 11825 C 1109.66 -1.63027 3.18052 0
M  V30 11826 C 1109.49 -0.763737 4.43167 0
M  V30 11827 C 1108.26 -0.42224 5.03533 0
M  V30 11828 C 1110.46 -0.0856773 5.14229 0
M  V30 11829 N 1108.44 0.455954 6.12204 0
M  V30 11830 C 1109.81 0.651902 6.16563 0
M  V30 11831 C 1111.87 -0.00826404 4.97899 0
M  V30 11832 C 1110.57 1.45961 7.04335 0
M  V30 11833 C 1112.6 0.786239 5.8615 0
M  V30 11834 C 1111.96 1.51204 6.8798 0
M  V30 11835 H 1108.06 -0.282535 0.729176 0
M  V30 11836 H 1110.64 -0.0985924 1.9445 0
M  V30 11837 H 1108.81 -2.3371 3.10216 0
M  V30 11838 H 1110.55 -2.28063 3.34319 0
M  V30 11839 H 1107.3 -0.76229 4.67425 0
M  V30 11840 H 1107.72 0.886619 6.71169 0
M  V30 11841 H 1112.37 -0.555051 4.19141 0
M  V30 11842 H 1110.08 2.01759 7.82508 0
M  V30 11843 H 1113.67 0.848372 5.75581 0
M  V30 11844 H 1112.55 2.11694 7.55086 0
M  V30 11845 N 1110.05 -1.5248 -0.398459 0
M  V30 11846 C 1111.46 -1.59107 -0.976817 0
M  V30 11847 C 1111.82 -0.438104 -1.91246 0
M  V30 11848 O 1110.94 0.440111 -2.11877 0
M  V30 11849 C 1111.54 -2.88373 -1.77838 0
M  V30 11850 C 1110.09 -2.97445 -2.30659 0
M  V30 11851 C 1109.24 -2.5414 -1.10942 0
M  V30 11852 H 1112.19 -1.57695 -0.178324 0
M  V30 11853 H 1112.21 -2.74327 -2.63676 0
M  V30 11854 H 1111.73 -3.72269 -1.09714 0
M  V30 11855 H 1109.83 -2.18066 -3.02123 0
M  V30 11856 H 1109.94 -4.019 -2.60794 0
M  V30 11857 H 1108.3 -2.08237 -1.46661 0
M  V30 11858 H 1109.09 -3.40421 -0.443684 0
M  V30 11859 N 1111.53 0.65634 -1.43283 0
M  V30 11860 C 1112.78 1.41627 -1.44734 0
M  V30 11861 C 1113.11 1.94372 -0.0704893 0
M  V30 11862 O 1112.36 1.72511 0.924037 0
M  V30 11863 C 1112.66 2.61688 -2.43421 0
M  V30 11864 C 1112.33 2.2738 -3.8937 0
M  V30 11865 C 1110.99 2.17735 -4.29121 0
M  V30 11866 C 1113.34 1.99863 -4.81357 0
M  V30 11867 C 1110.67 1.78725 -5.58815 0
M  V30 11868 C 1113.02 1.62352 -6.11412 0
M  V30 11869 C 1111.68 1.51231 -6.50143 0
M  V30 11870 H 1110.95 0.51825 -0.529621 0
M  V30 11871 H 1113.6 0.746701 -1.76342 0
M  V30 11872 H 1111.91 3.33763 -2.05206 0
M  V30 11873 H 1113.6 3.19896 -2.41801 0
M  V30 11874 H 1110.19 2.35795 -3.57908 0
M  V30 11875 H 1114.38 2.06237 -4.5142 0
M  V30 11876 H 1109.63 1.68698 -5.87666 0
M  V30 11877 H 1113.81 1.40091 -6.82164 0
M  V30 11878 H 1111.43 1.20774 -7.50545 0
M  V30 11879 N 1113.01 1.29761 0.894412 0
M  V30 11880 C 1113.94 1.09666 2.00121 0
M  V30 11881 C 1114.92 0.00700077 1.62598 0
M  V30 11882 O 1116.1 0.158728 1.87831 0
M  V30 11883 C 1113.23 0.670588 3.31995 0
M  V30 11884 C 1112.28 1.75974 3.88504 0
M  V30 11885 S 1113.11 3.36013 4.1696 0
M  V30 11886 C 1114.27 2.95285 5.51867 0
M  V30 11887 H 1114.5 2.03369 2.1686 0
M  V30 11888 H 1112.03 1.13968 1.04166 0
M  V30 11889 H 1113.99 0.431481 4.08226 0
M  V30 11890 H 1112.65 -0.246924 3.13128 0
M  V30 11891 H 1111.84 1.41367 4.83768 0
M  V30 11892 H 1111.45 1.95264 3.1898 0
M  V30 11893 H 1113.74 2.42659 6.32553 0
M  V30 11894 H 1114.68 3.8942 5.91403 0
M  V30 11895 H 1115.09 2.33426 5.13977 0
M  V30 11896 N 1114.49 -1.10549 1.12324 0
M  V30 11897 C 1115.4 -2.20428 0.803032 0
M  V30 11898 C 1116.41 -1.72756 -0.207674 0
M  V30 11899 O 1117.59 -2.01357 -0.0415623 0
M  V30 11900 C 1114.65 -3.45716 0.261032 0
M  V30 11901 C 1113.72 -4.08129 1.33152 0
M  V30 11902 C 1112.95 -5.27436 0.815288 0
M  V30 11903 O 1113.17 -5.69317 -0.351361 0
M  V30 11904 O 1112.11 -5.80674 1.58434 0
M  V30 11905 H 1115.93 -2.50249 1.72073 0
M  V30 11906 H 1113.52 -1.19263 0.899815 0
M  V30 11907 H 1115.4 -4.21384 -0.0364007 0
M  V30 11908 H 1114.07 -3.17525 -0.629249 0
M  V30 11909 H 1112.98 -3.3415 1.6821 0
M  V30 11910 H 1114.31 -4.4052 2.19552 0
M  V30 11911 N 1115.97 -0.914965 -1.28321 0
M  V30 11912 C 1117.38 -0.59512 -1.76961 0
M  V30 11913 C 1117.73 0.88958 -1.74874 0
M  V30 11914 O 1116.85 1.6959 -1.34418 0
M  V30 11915 C 1117.45 -1.07353 -3.21342 0
M  V30 11916 C 1116.01 -0.804577 -3.677 0
M  V30 11917 C 1115.15 -1.23955 -2.48053 0
M  V30 11918 H 1118.1 -1.0961 -1.14767 0
M  V30 11919 H 1118.13 -0.415506 -3.78225 0
M  V30 11920 H 1117.64 -2.15413 -3.22829 0
M  V30 11921 H 1115.74 0.26277 -3.71672 0
M  V30 11922 H 1115.85 -1.41317 -4.57784 0
M  V30 11923 H 1114.22 -0.658274 -2.46046 0
M  V30 11924 H 1115 -2.32853 -2.52258 0
M  V30 11925 N 1117.44 1.42219 -0.679077 0
M  V30 11926 C 1118.69 2.01777 -0.20342 0
M  V30 11927 C 1119.02 1.53592 1.18841 0
M  V30 11928 O 1118.3 0.739954 1.79875 0
M  V30 11929 C 1118.58 3.59281 -0.242791 0
M  V30 11930 C 1118.43 4.17634 -1.67038 0
M  V30 11931 C 1119.75 4.38218 0.406624 0
M  V30 11932 H 1116.87 0.733134 -0.0753916 0
M  V30 11933 H 1119.51 1.69185 -0.864673 0
M  V30 11934 H 1117.66 3.87178 0.320248 0
M  V30 11935 H 1119.34 4.00674 -2.286 0
M  V30 11936 H 1117.58 3.73301 -2.20973 0
M  V30 11937 H 1118.25 5.26776 -1.64958 0
M  V30 11938 H 1120.73 4.16036 -0.0727077 0
M  V30 11939 H 1119.6 5.47793 0.348457 0
M  V30 11940 H 1119.86 4.16418 1.48487 0
M  V30 11941 N 1118.92 0.422693 1.51826 0
M  V30 11942 C 1119.87 -0.396088 2.27376 0
M  V30 11943 C 1120.84 -1.02946 1.30351 0
M  V30 11944 O 1122.02 -1.05116 1.59233 0
M  V30 11945 C 1119.16 -1.49942 3.10824 0
M  V30 11946 C 1118.28 -0.885623 4.22825 0
M  V30 11947 C 1117.41 -1.96278 4.93608 0
M  V30 11948 C 1116.45 -1.32664 5.97551 0
M  V30 11949 N 1115.59 -2.34452 6.61798 0
M  V30 11950 H 1120.43 0.254571 2.96911 0
M  V30 11951 H 1117.96 0.137383 1.46457 0
M  V30 11952 H 1119.92 -2.15023 3.57521 0
M  V30 11953 H 1118.55 -2.11991 2.43433 0
M  V30 11954 H 1117.6 -0.123491 3.80199 0
M  V30 11955 H 1118.92 -0.381057 4.97342 0
M  V30 11956 H 1118.07 -2.69055 5.43778 0
M  V30 11957 H 1116.81 -2.50103 4.18688 0
M  V30 11958 H 1115.81 -0.584262 5.46687 0
M  V30 11959 H 1117.04 -0.7959 6.7442 0
M  V30 11960 H 1114.99 -2.87385 5.897 0
M  V30 11961 H 1114.9 -1.88845 7.32034 0
M  V30 11962 H 1116.17 -3.06757 7.16603 0
M  V30 11963 N 1120.4 -1.5685 0.153553 0
M  V30 11964 C 1121.35 -2.1709 -0.783626 0
M  V30 11965 C 1122.32 -1.10567 -1.23952 0
M  V30 11966 O 1123.5 -1.38638 -1.31088 0
M  V30 11967 C 1120.64 -2.80183 -2.01473 0
M  V30 11968 C 1119.75 -4.01117 -1.60403 0
M  V30 11969 C 1118.89 -4.5219 -2.78743 0
M  V30 11970 C 1117.93 -5.65574 -2.34079 0
M  V30 11971 N 1117.07 -6.11235 -3.4545 0
M  V30 11972 H 1121.91 -2.96836 -0.263127 0
M  V30 11973 H 1119.44 -1.46625 -0.11816 0
M  V30 11974 H 1121.4 -3.14912 -2.73654 0
M  V30 11975 H 1120.03 -2.03071 -2.50923 0
M  V30 11976 H 1119.08 -3.72325 -0.779631 0
M  V30 11977 H 1120.39 -4.83243 -1.23605 0
M  V30 11978 H 1119.55 -4.89008 -3.59105 0
M  V30 11979 H 1118.29 -3.69085 -3.18791 0
M  V30 11980 H 1117.29 -5.28326 -1.52158 0
M  V30 11981 H 1118.52 -6.50468 -1.95109 0
M  V30 11982 H 1116.46 -5.31064 -3.85106 0
M  V30 11983 H 1116.38 -6.88304 -3.12687 0
M  V30 11984 H 1117.65 -6.527 -4.26149 0
M  V30 11985 N 1121.88 0.120221 -1.57141 0
M  V30 11986 C 1123.1 0.84637 -1.89344 0
M  V30 11987 C 1123.53 1.72702 -0.745365 0
M  V30 11988 O 1122.89 1.7873 0.304155 0
M  V30 11989 C 1122.93 1.65671 -3.20289 0
M  V30 11990 O 1122.04 2.76353 -3.06109 0
M  V30 11991 H 1121.38 0.234132 -0.621352 0
M  V30 11992 H 1123.91 0.102986 -2.04341 0
M  V30 11993 H 1123.92 2.04621 -3.52979 0
M  V30 11994 H 1122.59 1.01023 -4.03444 0
M  V30 11995 H 1121.17 2.40615 -2.84884 0
M  V30 11996 N 1123.36 1.52689 0.390367 0
M  V30 11997 C 1124.27 1.8029 1.50108 0
M  V30 11998 C 1125.28 0.689582 1.59752 0
M  V30 11999 O 1126.46 0.977024 1.76114 0
M  V30 12000 C 1123.52 1.96475 2.85654 0
M  V30 12001 C 1122.58 3.2039 2.85743 0
M  V30 12002 C 1121.82 3.35793 4.14824 0
M  V30 12003 O 1122.04 2.56033 5.09709 0
M  V30 12004 O 1120.97 4.2904 4.22147 0
M  V30 12005 H 1124.8 2.74605 1.29715 0
M  V30 12006 H 1122.39 1.37763 0.578074 0
M  V30 12007 H 1124.27 2.08835 3.66013 0
M  V30 12008 H 1122.94 1.05351 3.06077 0
M  V30 12009 H 1121.85 3.13473 2.0417 0
M  V30 12010 H 1123.18 4.11356 2.70272 0
M  V30 12011 N 1124.83 -0.648732 1.43629 0
M  V30 12012 C 1125.8 -1.74331 1.488 0
M  V30 12013 C 1126.8 -1.56434 0.372147 0
M  V30 12014 O 1127.99 -1.6225 0.634078 0
M  V30 12015 C 1125.12 -3.13248 1.34494 0
M  V30 12016 H 1126.31 -1.71125 2.46285 0
M  V30 12017 H 1123.87 -0.860798 1.30461 0
M  V30 12018 H 1124.6 -3.22062 0.380345 0
M  V30 12019 H 1124.39 -3.27643 2.15389 0
M  V30 12020 H 1125.88 -3.93056 1.41055 0
M  V30 12021 N 1126.31 -1.30234 -0.887518 0
M  V30 12022 C 1127.72 -1.17048 -1.45453 0
M  V30 12023 C 1128.07 0.229793 -1.9485 0
M  V30 12024 O 1127.2 1.12628 -1.84781 0
M  V30 12025 C 1127.79 -2.11876 -2.64375 0
M  V30 12026 C 1126.35 -2.02676 -3.17174 0
M  V30 12027 C 1125.5 -2.02104 -1.89866 0
M  V30 12028 H 1128.45 -1.42541 -0.697694 0
M  V30 12029 H 1128.47 -1.69811 -3.40506 0
M  V30 12030 H 1127.98 -3.13781 -2.28392 0
M  V30 12031 H 1126.09 -1.03904 -3.57819 0
M  V30 12032 H 1126.2 -2.90939 -3.80646 0
M  V30 12033 H 1124.56 -1.4687 -2.0809 0
M  V30 12034 H 1125.35 -3.05735 -1.56145 0
M  V30 12035 N 1127.79 1.09952 -1.12909 0
M  V30 12036 C 1129.07 1.78547 -0.798767 0
M  V30 12037 C 1129.45 1.9878 0.710624 0
M  V30 12038 O 1128.8 1.58485 1.64604 0
M  V30 12039 C 1129.01 3.1121 -1.57953 0
M  V30 12040 C 1130.35 3.86006 -1.76874 0
M  V30 12041 O 1131.38 3.20946 -1.54506 0
M  V30 12042 O 1130.24 5.02791 -2.14158 0
M  V30 12043 H 1127.33 0.774084 -0.291072 0
M  V30 12044 H 1129.88 1.16557 -1.2334 0
M  V30 12045 H 1128.65 2.91935 -2.60557 0
M  V30 12046 H 1128.27 3.80922 -1.13948 0
M  V30 12047 N 1129.27 0.921757 1.27833 0
M  V30 12048 C 1130.5 0.574368 1.98455 0
M  V30 12049 C 1130.91 -0.850577 1.69002 0
M  V30 12050 O 1130.25 -1.57607 0.943708 0
M  V30 12051 C 1130.31 0.713235 3.52354 0
M  V30 12052 C 1129.98 2.1092 4.05415 0
M  V30 12053 C 1130.97 3.08276 4.18643 0
M  V30 12054 C 1128.66 2.42454 4.3991 0
M  V30 12055 C 1130.65 4.35279 4.6563 0
M  V30 12056 C 1128.34 3.69694 4.8659 0
M  V30 12057 C 1129.34 4.6592 4.99407 0
M  V30 12058 O 1129.02 5.90896 5.45066 0
M  V30 12059 H 1128.76 0.216955 0.640239 0
M  V30 12060 H 1131.31 1.23932 1.63798 0
M  V30 12061 H 1129.54 -0.00881115 3.86699 0
M  V30 12062 H 1131.23 0.371776 4.04194 0
M  V30 12063 H 1132 2.85234 3.92258 0
M  V30 12064 H 1127.87 1.68303 4.2918 0
M  V30 12065 H 1131.42 5.10391 4.75549 0
M  V30 12066 H 1127.32 3.92557 5.12415 0
M  V30 12067 H 1128.08 5.938 5.63333 0
M  V30 12068 N 1130.75 -1.41857 0.686609 0
M  V30 12069 C 1131.98 -2.05401 0.222238 0
M  V30 12070 C 1132.38 -1.51731 -1.13023 0
M  V30 12071 O 1131.73 -0.656701 -1.71561 0
M  V30 12072 C 1131.79 -3.59381 0.0926608 0
M  V30 12073 C 1131.45 -4.35801 1.37573 0
M  V30 12074 C 1132.45 -4.65678 2.31171 0
M  V30 12075 C 1130.14 -4.75233 1.62661 0
M  V30 12076 C 1132.13 -5.33936 3.48125 0
M  V30 12077 C 1129.82 -5.43229 2.79902 0
M  V30 12078 C 1130.81 -5.72507 3.72458 0
M  V30 12079 O 1130.5 -6.39106 4.87646 0
M  V30 12080 H 1130.23 -0.668126 0.102876 0
M  V30 12081 H 1132.79 -1.82775 0.93714 0
M  V30 12082 H 1131.02 -3.80711 -0.67793 0
M  V30 12083 H 1132.71 -4.04529 -0.333364 0
M  V30 12084 H 1133.47 -4.35704 2.13042 0
M  V30 12085 H 1129.35 -4.51831 0.914862 0
M  V30 12086 H 1132.9 -5.56706 4.20386 0
M  V30 12087 H 1128.79 -5.72621 2.97951 0
M  V30 12088 H 1129.56 -6.576 4.87344 0
M  V30 12089 N 1132.22 -0.430739 -1.51599 0
M  V30 12090 C 1133.13 0.390347 -2.3133 0
M  V30 12091 C 1134.15 1.03376 -1.39962 0
M  V30 12092 O 1135.33 1.03057 -1.73035 0
M  V30 12093 C 1132.39 1.48039 -3.13505 0
M  V30 12094 C 1131.45 0.857792 -4.20643 0
M  V30 12095 C 1130.69 1.89589 -4.9889 0
M  V30 12096 O 1130.91 3.11717 -4.77691 0
M  V30 12097 O 1129.84 1.49009 -5.83164 0
M  V30 12098 H 1133.67 -0.260358 -3.02582 0
M  V30 12099 H 1131.25 -0.193428 -1.48143 0
M  V30 12100 H 1133.14 2.11272 -3.64612 0
M  V30 12101 H 1131.81 2.1153 -2.45024 0
M  V30 12102 H 1130.72 0.187592 -3.73629 0
M  V30 12103 H 1132.05 0.266474 -4.91478 0
M  V30 12104 N 1133.7 1.56767 -0.161869 0
M  V30 12105 C 1134.95 1.96885 0.486215 0
M  V30 12106 C 1135.28 1.04745 1.6353 0
M  V30 12107 O 1134.56 0.0927156 1.94279 0
M  V30 12108 C 1134.84 3.46559 0.97822 0
M  V30 12109 C 1134.69 4.49477 -0.17039 0
M  V30 12110 C 1136.01 3.99093 1.85506 0
M  V30 12111 H 1133.13 0.715857 0.175265 0
M  V30 12112 H 1135.77 1.88399 -0.246098 0
M  V30 12113 H 1133.92 3.53921 1.60225 0
M  V30 12114 H 1135.59 4.54183 -0.807205 0
M  V30 12115 H 1133.84 4.25838 -0.827322 0
M  V30 12116 H 1134.51 5.51578 0.21583 0
M  V30 12117 H 1136.98 3.94303 1.32908 0
M  V30 12118 H 1135.86 5.04255 2.16837 0
M  V30 12119 H 1136.12 3.4234 2.79742 0
M  V30 12120 N 1135.18 -0.111886 1.57202 0
M  V30 12121 C 1136.43 -0.817022 1.84412 0
M  V30 12122 C 1136.74 -1.80708 0.748608 0
M  V30 12123 O 1137.95 -2.55891 0.907319 0
M  V30 12124 C 1136.4 -1.50376 3.26979 0
M  V30 12125 C 1136.01 -0.554334 4.44557 0
M  V30 12126 C 1137.76 -2.19361 3.63429 0
M  V30 12127 C 1135.66 -1.24471 5.78153 0
M  V30 12128 H 1134.59 -0.308864 0.687836 0
M  V30 12129 H 1137.24 -0.0698109 1.83367 0
M  V30 12130 H 1135.63 -2.29785 3.22514 0
M  V30 12131 H 1136.8 0.207045 4.60335 0
M  V30 12132 H 1135.12 0.0289261 4.1639 0
M  V30 12133 H 1137.71 -2.71716 4.60515 0
M  V30 12134 H 1138.06 -2.97488 2.91215 0
M  V30 12135 H 1138.59 -1.46833 3.69709 0
M  V30 12136 H 1135.33 -0.504584 6.53555 0
M  V30 12137 H 1134.85 -1.97792 5.66249 0
M  V30 12138 H 1136.53 -1.77591 6.2215 0
M  V30 12139 N 1136.66 -1.52894 -0.382264 0
M  V30 12140 C 1138.07 -1.42295 -0.722802 0
M  V30 12141 C 1138.27 -0.548717 -1.93885 0
M  V30 12142 O 1137.33 -0.0247431 -2.52488 0
M  V30 12143 C 1138.64 -2.85246 -0.9516 0
M  V30 12144 C 1140.19 -2.94768 -1.05265 0
M  V30 12145 C 1140.67 -4.38745 -1.31404 0
M  V30 12146 N 1142.16 -4.421 -1.38211 0
M  V30 12147 C 1142.89 -5.50592 -1.60113 0
M  V30 12148 N 1142.39 -6.69158 -1.79442 0
M  V30 12149 N 1144.18 -5.38145 -1.62347 0
M  V30 12150 H 1136.33 -2.0825 0.417816 0
M  V30 12151 H 1138.6 -0.939753 0.124776 0
M  V30 12152 H 1138.3 -3.51459 -0.130088 0
M  V30 12153 H 1138.18 -3.27903 -1.86439 0
M  V30 12154 H 1140.56 -2.28718 -1.86472 0
M  V30 12155 H 1140.64 -2.55529 -0.117619 0
M  V30 12156 H 1140.29 -5.05363 -0.507038 0
M  V30 12157 H 1140.22 -4.75542 -2.26202 0
M  V30 12158 H 1142.71 -3.56644 -1.24954 0
M  V30 12159 H 1143.02 -7.47615 -1.95681 0
M  V30 12160 H 1141.37 -6.72175 -1.76653 0
M  V30 12161 H 1144.56 -4.44485 -1.46803 0
M  V30 12162 H 1144.73 -6.22764 -1.79077 0
M  V30 12163 N 1138.14 0.641106 -1.43971 0
M  V30 12164 C 1139.38 1.40084 -1.46228 0
M  V30 12165 C 1139.71 1.94287 -0.0911011 0
M  V30 12166 O 1138.97 1.73481 0.905688 0
M  V30 12167 C 1139.27 2.59092 -2.46183 0
M  V30 12168 C 1138.93 2.23237 -3.9176 0
M  V30 12169 C 1137.59 2.13171 -4.31407 0
M  V30 12170 C 1139.95 1.94746 -4.83449 0
M  V30 12171 C 1137.27 1.72788 -5.60679 0
M  V30 12172 C 1139.63 1.55858 -6.13099 0
M  V30 12173 C 1138.29 1.44326 -6.5171 0
M  V30 12174 H 1137.56 0.512603 -0.535088 0
M  V30 12175 H 1140.21 0.727956 -1.77124 0
M  V30 12176 H 1138.51 3.31568 -2.08734 0
M  V30 12177 H 1140.21 3.17313 -2.4518 0
M  V30 12178 H 1136.8 2.31986 -3.60389 0
M  V30 12179 H 1140.98 2.01438 -4.53582 0
M  V30 12180 H 1136.24 1.62455 -5.89422 0
M  V30 12181 H 1140.41 1.32848 -6.83611 0
M  V30 12182 H 1138.04 1.12806 -7.51784 0
M  V30 12183 N 1139.62 1.30703 0.880598 0
M  V30 12184 C 1141.03 1.17818 1.4483 0
M  V30 12185 C 1141.38 -0.219456 1.94969 0
M  V30 12186 O 1140.5 -1.11646 1.85375 0
M  V30 12187 C 1141.1 2.13275 2.63247 0
M  V30 12188 C 1139.66 2.04356 3.16094 0
M  V30 12189 C 1138.8 2.03108 1.88792 0
M  V30 12190 H 1141.75 1.42909 0.690125 0
M  V30 12191 H 1141.78 1.71615 3.39601 0
M  V30 12192 H 1141.29 3.14988 2.26725 0
M  V30 12193 H 1139.39 1.058 3.57263 0
M  V30 12194 H 1139.5 2.92953 3.79098 0
M  V30 12195 H 1137.87 1.47971 2.07308 0
M  V30 12196 H 1138.65 3.06558 1.54521 0
M  V30 12197 N 1141.09 -1.09351 1.1349 0
M  V30 12198 C 1142.34 -1.80915 0.89177 0
M  V30 12199 C 1142.66 -1.86688 -0.5837 0
M  V30 12200 O 1143.86 -2.54568 -0.943788 0
M  V30 12201 C 1142.32 -3.25009 1.54587 0
M  V30 12202 C 1141.93 -3.27501 3.05691 0
M  V30 12203 C 1143.67 -4.01323 1.38346 0
M  V30 12204 C 1141.58 -4.66123 3.63983 0
M  V30 12205 H 1140.51 -0.677961 0.329978 0
M  V30 12206 H 1143.16 -1.22893 1.3627 0
M  V30 12207 H 1141.54 -3.83098 1.0026 0
M  V30 12208 H 1142.71 -2.79174 3.66604 0
M  V30 12209 H 1141.03 -2.64677 3.21457 0
M  V30 12210 H 1143.63 -5.03739 1.79307 0
M  V30 12211 H 1143.97 -4.15003 0.328404 0
M  V30 12212 H 1144.5 -3.49679 1.89656 0
M  V30 12213 H 1141.24 -4.57646 4.69298 0
M  V30 12214 H 1140.76 -5.14772 3.07848 0
M  V30 12215 H 1142.44 -5.35097 3.63703 0
M  V30 12216 N 1142.57 -0.928524 -1.27343 0
M  V30 12217 C 1143.85 -0.487758 -1.89421 0
M  V30 12218 C 1144.23 1.03418 -1.84032 0
M  V30 12219 O 1143.58 1.8887 -1.2861 0
M  V30 12220 C 1143.79 -1.03478 -3.33307 0
M  V30 12221 C 1145.13 -1.09577 -4.10217 0
M  V30 12222 O 1146.16 -0.984463 -3.42326 0
M  V30 12223 O 1145.02 -1.2673 -5.31603 0
M  V30 12224 H 1142.11 -0.157018 -0.811957 0
M  V30 12225 H 1144.66 -1.02027 -1.35605 0
M  V30 12226 H 1143.43 -2.07861 -3.31526 0
M  V30 12227 H 1143.05 -0.483967 -3.94644 0
M  V30 12228 N 1144.05 1.41491 -0.694123 0
M  V30 12229 C 1144.98 2.33462 -0.0422169 0
M  V30 12230 C 1145.96 1.51739 0.76872 0
M  V30 12231 O 1147.15 1.8028 0.721985 0
M  V30 12232 C 1144.28 3.35545 0.895925 0
M  V30 12233 C 1143.23 4.27568 0.192188 0
M  V30 12234 C 1142.56 5.20014 1.24459 0
M  V30 12235 C 1143.86 5.1376 -0.940626 0
M  V30 12236 H 1145.55 2.88225 -0.810363 0
M  V30 12237 H 1143.1 1.38586 -0.39114 0
M  V30 12238 H 1145.05 3.9881 1.36121 0
M  V30 12239 H 1143.77 2.79129 1.69572 0
M  V30 12240 H 1142.43 3.65726 -0.25305 0
M  V30 12241 H 1142.08 4.59913 2.03687 0
M  V30 12242 H 1141.78 5.82417 0.778734 0
M  V30 12243 H 1143.3 5.86155 1.71041 0
M  V30 12244 H 1144.72 5.70601 -0.555692 0
M  V30 12245 H 1143.11 5.85097 -1.33349 0
M  V30 12246 H 1144.18 4.51011 -1.78093 0
M  V30 12247 N 1145.53 0.438773 1.51369 0
M  V30 12248 C 1146.47 -0.37195 2.27783 0
M  V30 12249 C 1147.44 -1.01558 1.31435 0
M  V30 12250 O 1148.63 -1.03421 1.60339 0
M  V30 12251 C 1145.77 -1.46636 3.12397 0
M  V30 12252 C 1144.88 -0.840727 4.2374 0
M  V30 12253 C 1144.02 -1.91031 4.95662 0
M  V30 12254 C 1143.06 -1.26318 5.98924 0
M  V30 12255 N 1142.19 -2.27419 6.64248 0
M  V30 12256 H 1147.03 0.286048 2.96624 0
M  V30 12257 H 1144.57 0.152909 1.46303 0
M  V30 12258 H 1146.53 -2.11219 3.59781 0
M  V30 12259 H 1145.16 -2.09397 2.45668 0
M  V30 12260 H 1144.21 -0.0831588 3.80309 0
M  V30 12261 H 1145.52 -0.328285 4.97719 0
M  V30 12262 H 1144.68 -2.63272 5.46601 0
M  V30 12263 H 1143.42 -2.45649 4.21317 0
M  V30 12264 H 1142.42 -0.526246 5.47276 0
M  V30 12265 H 1143.65 -0.724324 6.75226 0
M  V30 12266 H 1141.59 -2.81114 5.92715 0
M  V30 12267 H 1141.51 -1.81071 7.33996 0
M  V30 12268 H 1142.78 -2.99139 7.19817 0
M  V30 12269 N 1147.01 -1.56678 0.170181 0
M  V30 12270 C 1148.23 -2.01223 -0.481362 0
M  V30 12271 C 1148.65 -1.05039 -1.56883 0
M  V30 12272 O 1148.01 -0.0510751 -1.82429 0
M  V30 12273 C 1148.06 -3.45588 -1.06073 0
M  V30 12274 O 1147.78 -4.38097 -0.0166754 0
M  V30 12275 C 1149.28 -4.05527 -1.79061 0
M  V30 12276 H 1146.5 -0.659574 -0.1233 0
M  V30 12277 H 1149.04 -2.02689 0.271576 0
M  V30 12278 H 1147.2 -3.449 -1.76417 0
M  V30 12279 H 1147.61 -5.22615 -0.444276 0
M  V30 12280 H 1149.09 -5.08467 -2.1486 0
M  V30 12281 H 1149.56 -3.47554 -2.68519 0
M  V30 12282 H 1150.17 -4.09914 -1.13361 0
M  V30 12283 N 1148.48 0.103547 -1.57259 0
M  V30 12284 C 1149.42 1.15707 -1.9669 0
M  V30 12285 C 1150.39 1.39292 -0.838837 0
M  V30 12286 O 1151.58 1.53192 -1.09839 0
M  V30 12287 C 1148.71 2.50793 -2.27642 0
M  V30 12288 C 1147.75 2.43541 -3.50129 0
M  V30 12289 S 1148.58 1.86009 -5.02156 0
M  V30 12290 C 1149.74 3.22737 -5.36276 0
M  V30 12291 H 1149.97 0.820891 -2.85742 0
M  V30 12292 H 1147.51 0.310906 -1.51237 0
M  V30 12293 H 1149.46 3.28512 -2.46151 0
M  V30 12294 H 1148.13 2.81583 -1.39176 0
M  V30 12295 H 1147.32 3.43085 -3.692 0
M  V30 12296 H 1146.92 1.73948 -3.31086 0
M  V30 12297 H 1149.21 4.1899 -5.32404 0
M  V30 12298 H 1150.16 3.08477 -6.37375 0
M  V30 12299 H 1150.56 3.21878 -4.6374 0
M  V30 12300 N 1149.96 1.53094 0.37415 0
M  V30 12301 C 1151.19 1.72758 1.13852 0
M  V30 12302 C 1151.6 0.452638 1.83294 0
M  V30 12303 O 1150.96 -0.573906 1.73241 0
M  V30 12304 C 1151.01 2.88724 2.17534 0
M  V30 12305 O 1150.73 4.11284 1.5092 0
M  V30 12306 C 1152.23 3.2019 3.06584 0
M  V30 12307 H 1149.45 0.578028 0.340771 0
M  V30 12308 H 1152 1.99805 0.435683 0
M  V30 12309 H 1150.15 2.64096 2.83429 0
M  V30 12310 H 1150.57 4.76162 2.19932 0
M  V30 12311 H 1152.04 4.04759 3.75332 0
M  V30 12312 H 1152.52 2.35193 3.70919 0
M  V30 12313 H 1153.12 3.46712 2.46315 0
M  V30 12314 N 1151.44 -0.633461 1.44309 0
M  V30 12315 C 1152.35 -1.77428 1.53481 0
M  V30 12316 C 1153.37 -1.68839 0.420628 0
M  V30 12317 O 1154.54 -1.89658 0.677638 0
M  V30 12318 C 1151.61 -3.13801 1.47409 0
M  V30 12319 C 1150.67 -3.34039 2.6966 0
M  V30 12320 C 1149.9 -4.63907 2.63868 0
M  V30 12321 O 1150.12 -5.44559 1.69741 0
M  V30 12322 O 1149.06 -4.86295 3.54684 0
M  V30 12323 H 1152.88 -1.72642 2.49857 0
M  V30 12324 H 1150.47 -0.794399 1.26529 0
M  V30 12325 H 1152.35 -3.95101 1.46537 0
M  V30 12326 H 1151.03 -3.19134 0.541769 0
M  V30 12327 H 1149.93 -2.52427 2.761 0
M  V30 12328 H 1151.27 -3.33566 3.61931 0
M  V30 12329 N 1152.92 -1.31168 -0.873655 0
M  V30 12330 C 1154.33 -1.09745 -1.1588 0
M  V30 12331 C 1154.53 0.134471 -2.01051 0
M  V30 12332 O 1153.59 0.824857 -2.38647 0
M  V30 12333 C 1154.9 -2.36704 -1.85451 0
M  V30 12334 C 1156.45 -2.42278 -1.98167 0
M  V30 12335 C 1156.93 -3.69108 -2.71152 0
M  V30 12336 N 1158.42 -3.69981 -2.7869 0
M  V30 12337 C 1159.15 -4.64811 -3.35765 0
M  V30 12338 N 1158.65 -5.69995 -3.938 0
M  V30 12339 N 1160.44 -4.52337 -3.33688 0
M  V30 12340 H 1152.59 -2.10184 -0.306021 0
M  V30 12341 H 1154.86 -0.927058 -0.198159 0
M  V30 12342 H 1154.56 -3.26666 -1.30316 0
M  V30 12343 H 1154.44 -2.46219 -2.85755 0
M  V30 12344 H 1156.82 -1.52787 -2.52468 0
M  V30 12345 H 1156.9 -2.3673 -0.969164 0
M  V30 12346 H 1156.55 -4.58963 -2.1752 0
M  V30 12347 H 1156.48 -3.71922 -3.72803 0
M  V30 12348 H 1158.97 -2.93944 -2.37498 0
M  V30 12349 H 1159.28 -6.38438 -4.3545 0
M  V30 12350 H 1157.63 -5.73773 -3.92186 0
M  V30 12351 H 1160.82 -3.69341 -2.87584 0
M  V30 12352 H 1160.99 -5.2642 -3.77871 0
M  V30 12353 N 1154.4 1.08748 -1.14068 0
M  V30 12354 C 1155.33 2.17591 -0.84714 0
M  V30 12355 C 1156.31 1.68962 0.196415 0
M  V30 12356 O 1157.49 1.94125 0.0538415 0
M  V30 12357 C 1154.62 3.45823 -0.320005 0
M  V30 12358 C 1153.58 4.07824 -1.2986 0
M  V30 12359 C 1152.9 5.30965 -0.630925 0
M  V30 12360 C 1154.2 4.49512 -2.65963 0
M  V30 12361 H 1155.9 2.42404 -1.75729 0
M  V30 12362 H 1153.44 1.16502 -0.846356 0
M  V30 12363 H 1155.4 4.21276 -0.102271 0
M  V30 12364 H 1154.12 3.20553 0.625561 0
M  V30 12365 H 1152.78 3.34398 -1.50245 0
M  V30 12366 H 1152.43 5.01979 0.320337 0
M  V30 12367 H 1152.13 5.73402 -1.28388 0
M  V30 12368 H 1153.65 6.09136 -0.422635 0
M  V30 12369 H 1155.06 5.16159 -2.49506 0
M  V30 12370 H 1153.46 5.02857 -3.27498 0
M  V30 12371 H 1154.53 3.6157 -3.23102 0
M  V30 12372 N 1155.87 0.935264 1.26849 0
M  V30 12373 C 1157.29 0.636661 1.46352 0
M  V30 12374 C 1157.49 -0.811823 1.84423 0
M  V30 12375 O 1156.55 -1.58902 1.9623 0
M  V30 12376 C 1157.86 1.59301 2.55036 0
M  V30 12377 C 1159.41 1.60207 2.68892 0
M  V30 12378 C 1159.88 2.54558 3.80742 0
M  V30 12379 N 1161.37 2.52809 3.88126 0
M  V30 12380 C 1162.11 3.225 4.74111 0
M  V30 12381 N 1161.6 4.01598 5.64527 0
M  V30 12382 N 1163.4 3.11481 4.67906 0
M  V30 12383 H 1155.55 1.8716 1.00423 0
M  V30 12384 H 1157.81 0.803968 0.502334 0
M  V30 12385 H 1157.52 2.62671 2.33874 0
M  V30 12386 H 1157.39 1.34052 3.52576 0
M  V30 12387 H 1159.78 0.575649 2.89431 0
M  V30 12388 H 1159.86 1.89508 1.71815 0
M  V30 12389 H 1159.5 3.57314 3.60956 0
M  V30 12390 H 1159.43 2.22549 4.77263 0
M  V30 12391 H 1161.92 1.9537 3.2348 0
M  V30 12392 H 1162.24 4.51742 6.27016 0
M  V30 12393 H 1160.58 4.057 5.64298 0
M  V30 12394 H 1163.77 2.49175 3.9627 0
M  V30 12395 H 1163.95 3.66064 5.34697 0
M  V30 12396 N 1157.35 -1.41121 0.701616 0
M  V30 12397 C 1158.58 -2.05973 0.242896 0
M  V30 12398 C 1159 -1.52474 -1.10151 0
M  V30 12399 O 1158.36 -0.654224 -1.69085 0
M  V30 12400 C 1158.41 -3.59943 0.217614 0
M  V30 12401 O 1157.51 -4.04454 -0.805629 0
M  V30 12402 H 1156.85 -0.653581 0.117166 0
M  V30 12403 H 1159.38 -1.80777 0.958175 0
M  V30 12404 H 1159.39 -4.07969 0.0505267 0
M  V30 12405 H 1158.07 -3.98249 1.19877 0
M  V30 12406 H 1156.65 -3.6792 -0.607404 0
M  V30 12407 N 1158.83 -0.446794 -1.51134 0
M  V30 12408 C 1160.25 -0.0995905 -1.59289 0
M  V30 12409 C 1160.45 1.39191 -1.45699 0
M  V30 12410 O 1159.5 2.1628 -1.30303 0
M  V30 12411 C 1160.82 -0.628135 -2.94066 0
M  V30 12412 C 1162.36 -0.589409 -3.074 0
M  V30 12413 C 1162.84 -1.09509 -4.44715 0
M  V30 12414 N 1164.33 -1.05347 -4.51061 0
M  V30 12415 C 1165.06 -1.41551 -5.55654 0
M  V30 12416 N 1164.56 -1.85086 -6.67619 0
M  V30 12417 N 1166.35 -1.33307 -5.46064 0
M  V30 12418 H 1158.5 -1.41713 -1.58213 0
M  V30 12419 H 1160.77 -0.584555 -0.746324 0
M  V30 12420 H 1160.47 -1.67205 -3.09411 0
M  V30 12421 H 1160.35 -0.0582398 -3.77155 0
M  V30 12422 H 1162.73 0.445541 -2.91717 0
M  V30 12423 H 1162.82 -1.19582 -2.26128 0
M  V30 12424 H 1162.46 -2.12855 -4.61146 0
M  V30 12425 H 1162.39 -0.465122 -5.24542 0
M  V30 12426 H 1164.88 -0.733877 -3.70706 0
M  V30 12427 H 1165.19 -2.10923 -7.43459 0
M  V30 12428 H 1163.54 -1.8902 -6.68802 0
M  V30 12429 H 1166.73 -0.991547 -4.57478 0
M  V30 12430 H 1166.9 -1.6185 -6.27462 0
M  V30 12431 N 1160.31 1.56586 -0.178487 0
M  V30 12432 C 1161.54 2.01183 0.470002 0
M  V30 12433 C 1161.95 1.05781 1.56866 0
M  V30 12434 O 1161.29 0.0519678 1.83626 0
M  V30 12435 C 1161.35 3.42199 1.10183 0
M  V30 12436 C 1161.02 4.56773 0.143945 0
M  V30 12437 C 1162.01 5.1594 -0.64043 0
M  V30 12438 C 1159.7 5.02286 0.0376874 0
M  V30 12439 C 1161.69 6.19055 -1.51819 0
M  V30 12440 C 1159.38 6.05248 -0.843652 0
M  V30 12441 C 1160.38 6.63505 -1.62017 0
M  V30 12442 O 1160.06 7.6447 -2.48677 0
M  V30 12443 H 1159.8 0.664527 0.124018 0
M  V30 12444 H 1162.35 2.0349 -0.279495 0
M  V30 12445 H 1160.58 3.36827 1.89959 0
M  V30 12446 H 1162.27 3.70705 1.65326 0
M  V30 12447 H 1163.04 4.81656 -0.56855 0
M  V30 12448 H 1158.91 4.56649 0.631893 0
M  V30 12449 H 1162.46 6.64455 -2.12475 0
M  V30 12450 H 1158.36 6.38958 -0.916708 0
M  V30 12451 H 1159.12 7.81823 -2.42272 0
M  V30 12452 N 1161.79 -0.095206 1.57312 0
M  V30 12453 C 1163.02 -0.811092 1.90013 0
M  V30 12454 C 1163.42 -1.72807 0.770359 0
M  V30 12455 O 1162.77 -1.81755 -0.266615 0
M  V30 12456 C 1162.83 -1.67744 3.17966 0
M  V30 12457 C 1162.49 -0.932301 4.47389 0
M  V30 12458 C 1163.49 -0.262161 5.19239 0
M  V30 12459 C 1161.18 -0.906414 4.94054 0
M  V30 12460 C 1163.17 0.423898 6.35989 0
M  V30 12461 C 1160.86 -0.216569 6.10716 0
M  V30 12462 C 1161.85 0.447408 6.81533 0
M  V30 12463 O 1161.54 1.12619 7.95972 0
M  V30 12464 H 1161.27 -0.237154 0.633035 0
M  V30 12465 H 1163.83 -0.0768976 2.05256 0
M  V30 12466 H 1162.06 -2.45387 2.98868 0
M  V30 12467 H 1163.75 -2.26988 3.36498 0
M  V30 12468 H 1164.51 -0.273621 4.84228 0
M  V30 12469 H 1160.39 -1.41267 4.38822 0
M  V30 12470 H 1163.94 0.942727 6.91201 0
M  V30 12471 H 1159.83 -0.202955 6.45181 0
M  V30 12472 H 1160.6 1.03308 8.11954 0
M  V30 12473 N 1163.26 -1.53291 -0.366026 0
M  V30 12474 C 1164.51 -1.69702 -1.11036 0
M  V30 12475 C 1164.84 -0.44728 -1.88979 0
M  V30 12476 O 1164.12 0.55542 -1.86401 0
M  V30 12477 C 1164.4 -2.94661 -2.06995 0
M  V30 12478 C 1164.25 -4.29791 -1.32663 0
M  V30 12479 C 1165.57 -3.15219 -3.07123 0
M  V30 12480 H 1162.69 -0.617525 -0.402284 0
M  V30 12481 H 1165.33 -1.85929 -0.391223 0
M  V30 12482 H 1163.48 -2.80958 -2.68318 0
M  V30 12483 H 1165.16 -4.55305 -0.741266 0
M  V30 12484 H 1163.4 -4.29223 -0.628484 0
M  V30 12485 H 1164.07 -5.13359 -2.02896 0
M  V30 12486 H 1166.55 -3.28105 -2.55903 0
M  V30 12487 H 1165.42 -4.04088 -3.71489 0
M  V30 12488 H 1165.68 -2.30479 -3.77269 0
M  V30 12489 N 1164.74 0.6258 -1.44643 0
M  V30 12490 C 1165.97 1.41233 -1.51198 0
M  V30 12491 C 1166.39 1.88291 -0.138572 0
M  V30 12492 O 1165.74 1.61151 0.856537 0
M  V30 12493 C 1165.79 2.62908 -2.48117 0
M  V30 12494 O 1165.51 2.1781 -3.80119 0
M  V30 12495 C 1167.02 3.55976 -2.6419 0
M  V30 12496 H 1164.24 0.432954 -0.512632 0
M  V30 12497 H 1166.78 0.76486 -1.89658 0
M  V30 12498 H 1164.93 3.23735 -2.12778 0
M  V30 12499 H 1165.35 2.96732 -4.32493 0
M  V30 12500 H 1166.82 4.37943 -3.3602 0
M  V30 12501 H 1167.3 4.05133 -1.696 0
M  V30 12502 H 1167.91 3.01014 -3.00451 0
M  V30 12503 N 1166.22 1.31629 0.866686 0
M  V30 12504 C 1167.64 1.10358 1.15296 0
M  V30 12505 C 1167.84 -0.123807 2.01119 0
M  V30 12506 O 1166.89 -0.81219 2.39081 0
M  V30 12507 C 1168.21 2.37684 1.84193 0
M  V30 12508 C 1169.75 2.43326 1.9688 0
M  V30 12509 C 1170.23 3.70541 2.69191 0
M  V30 12510 N 1171.72 3.71454 2.76724 0
M  V30 12511 C 1172.45 4.66585 3.33295 0
M  V30 12512 N 1171.95 5.72075 3.90771 0
M  V30 12513 N 1173.74 4.541 3.31284 0
M  V30 12514 H 1165.89 2.10343 0.29487 0
M  V30 12515 H 1168.16 0.928096 0.193239 0
M  V30 12516 H 1167.86 3.27352 1.28582 0
M  V30 12517 H 1167.74 2.47731 2.84445 0
M  V30 12518 H 1170.12 1.54124 2.51654 0
M  V30 12519 H 1170.21 2.3724 0.956596 0
M  V30 12520 H 1169.85 4.60111 2.15083 0
M  V30 12521 H 1169.78 3.73894 3.70825 0
M  V30 12522 H 1172.27 2.952 2.35936 0
M  V30 12523 H 1172.58 6.40738 4.32058 0
M  V30 12524 H 1170.93 5.75844 3.89138 0
M  V30 12525 H 1174.12 3.70861 2.85622 0
M  V30 12526 H 1174.29 5.28416 3.75074 0
M  V30 12527 N 1167.7 -1.08142 1.14644 0
M  V30 12528 C 1168.65 -2.15133 0.835845 0
M  V30 12529 C 1169.62 -1.64795 -0.207785 0
M  V30 12530 O 1170.8 -1.90644 -0.07711 0
M  V30 12531 C 1167.94 -3.4359 0.322456 0
M  V30 12532 C 1167.05 -4.07761 1.42671 0
M  V30 12533 C 1166.19 -5.24022 0.870281 0
M  V30 12534 C 1165.23 -5.8014 1.95202 0
M  V30 12535 N 1164.37 -6.87743 1.41257 0
M  V30 12536 H 1169.21 -2.41042 1.75222 0
M  V30 12537 H 1166.74 -1.18288 0.874428 0
M  V30 12538 H 1168.7 -4.17199 0.00657059 0
M  V30 12539 H 1167.33 -3.17958 -0.557014 0
M  V30 12540 H 1166.38 -3.31885 1.85893 0
M  V30 12541 H 1167.69 -4.45485 2.24375 0
M  V30 12542 H 1166.85 -6.04582 0.506459 0
M  V30 12543 H 1165.59 -4.87695 0.0223118 0
M  V30 12544 H 1164.59 -4.98232 2.32476 0
M  V30 12545 H 1165.82 -6.18525 2.80363 0
M  V30 12546 H 1163.76 -6.5337 0.586826 0
M  V30 12547 H 1163.68 -7.24308 2.16596 0
M  V30 12548 H 1164.95 -7.72028 1.07674 0
M  V30 12549 N 1169.18 -0.941978 -1.26351 0
M  V30 12550 C 1170.11 -0.469913 -2.28723 0
M  V30 12551 C 1171.09 0.477218 -1.63269 0
M  V30 12552 O 1172.27 0.378902 -1.90468 0
M  V30 12553 C 1169.4 0.264971 -3.46288 0
M  V30 12554 C 1168.36 -0.595682 -4.23834 0
M  V30 12555 C 1167.68 0.269208 -5.34022 0
M  V30 12556 C 1168.98 -1.86743 -4.87775 0
M  V30 12557 H 1170.68 -1.32551 -2.6846 0
M  V30 12558 H 1168.22 -0.638809 -1.29055 0
M  V30 12559 H 1170.18 0.606259 -4.17016 0
M  V30 12560 H 1168.9 1.15471 -3.05506 0
M  V30 12561 H 1167.56 -0.919875 -3.54872 0
M  V30 12562 H 1167.21 1.15832 -4.89481 0
M  V30 12563 H 1166.91 -0.30325 -5.86817 0
M  V30 12564 H 1168.43 0.605748 -6.07588 0
M  V30 12565 H 1169.85 -1.59333 -5.50714 0
M  V30 12566 H 1168.24 -2.38452 -5.50691 0
M  V30 12567 H 1169.31 -2.57831 -4.10671 0
M  V30 12568 N 1170.66 1.40747 -0.709091 0
M  V30 12569 C 1171.9 2.01003 -0.24581 0
M  V30 12570 C 1172.23 1.56203 1.15891 0
M  V30 12571 O 1171.49 0.770166 1.79908 0
M  V30 12572 C 1171.78 3.56404 -0.266685 0
M  V30 12573 C 1171.45 4.20762 -1.6208 0
M  V30 12574 C 1170.11 4.38056 -1.99148 0
M  V30 12575 C 1172.46 4.56723 -2.51105 0
M  V30 12576 C 1169.79 4.88591 -3.248 0
M  V30 12577 C 1172.14 5.08654 -3.76103 0
M  V30 12578 C 1170.81 5.24158 -4.13297 0
M  V30 12579 H 1170.08 0.73552 -0.0899481 0
M  V30 12580 H 1172.73 1.68451 -0.910844 0
M  V30 12581 H 1171.03 3.88825 0.481915 0
M  V30 12582 H 1172.73 4.0085 0.109509 0
M  V30 12583 H 1169.32 4.07685 -1.32252 0
M  V30 12584 H 1173.5 4.43004 -2.23744 0
M  V30 12585 H 1168.76 4.98779 -3.53595 0
M  V30 12586 H 1172.93 5.35457 -4.45262 0
M  V30 12587 H 1170.56 5.63079 -5.10731 0
M  V30 12588 N 1172.13 0.454803 1.50895 0
M  V30 12589 C 1173.38 -0.105927 2.02523 0
M  V30 12590 C 1173.71 -1.40825 1.33724 0
M  V30 12591 O 1172.99 -1.89038 0.457683 0
M  V30 12592 C 1173.27 -0.306635 3.58792 0
M  V30 12593 C 1173.12 1.01556 4.38185 0
M  V30 12594 C 1174.44 -1.06858 4.2693 0
M  V30 12595 H 1171.56 -0.0370232 0.736069 0
M  V30 12596 H 1174.2 0.597215 1.8037 0
M  V30 12597 H 1172.35 -0.905563 3.77799 0
M  V30 12598 H 1174.03 1.64981 4.30789 0
M  V30 12599 H 1172.27 1.61608 4.02574 0
M  V30 12600 H 1172.94 0.828959 5.4574 0
M  V30 12601 H 1175.42 -0.561086 4.123 0
M  V30 12602 H 1174.29 -1.1778 5.36115 0
M  V30 12603 H 1174.55 -2.10111 3.8898 0
M  V30 12604 N 1173.61 -1.56489 0.186789 0
M  V30 12605 C 1174.57 -2.17478 -0.723596 0
M  V30 12606 C 1175.57 -1.12698 -1.14699 0
M  V30 12607 O 1176.76 -1.38128 -1.06143 0
M  V30 12608 C 1173.9 -2.77015 -1.98685 0
M  V30 12609 H 1175.09 -2.99282 -0.192403 0
M  V30 12610 H 1172.64 -1.56174 -0.0628153 0
M  V30 12611 H 1173.38 -1.98987 -2.56076 0
M  V30 12612 H 1173.16 -3.53711 -1.69207 0
M  V30 12613 H 1174.65 -3.23872 -2.63622 0
M  V30 12614 N 1175.09 0.086862 -1.5736 0
M  V30 12615 C 1176.37 0.820984 -1.77537 0
M  V30 12616 C 1176.75 1.96534 -0.770554 0
M  V30 12617 O 1176.09 2.27629 0.199334 0
M  V30 12618 C 1176.3 1.30793 -3.23565 0
M  V30 12619 C 1177.65 1.7474 -3.86977 0
M  V30 12620 O 1178.68 1.40396 -3.27364 0
M  V30 12621 O 1177.54 2.38271 -4.91822 0
M  V30 12622 H 1174.63 0.392228 -0.72807 0
M  V30 12623 H 1177.18 0.0681051 -1.69563 0
M  V30 12624 H 1175.95 0.488409 -3.8824 0
M  V30 12625 H 1175.57 2.12258 -3.36203 0
M  V30 12626 N 1176.57 1.53483 0.357892 0
M  V30 12627 C 1177.5 1.83444 1.44466 0
M  V30 12628 C 1178.48 0.688486 1.55544 0
M  V30 12629 O 1179.66 0.93906 1.69986 0
M  V30 12630 C 1176.79 2.03122 2.81707 0
M  V30 12631 C 1175.75 3.1891 2.85448 0
M  V30 12632 C 1175.07 3.23895 4.25436 0
M  V30 12633 C 1176.37 4.57334 2.52275 0
M  V30 12634 H 1178.07 2.74456 1.19642 0
M  V30 12635 H 1175.61 1.3206 0.574112 0
M  V30 12636 H 1177.57 2.22666 3.57768 0
M  V30 12637 H 1176.29 1.08827 3.07935 0
M  V30 12638 H 1174.95 2.99199 2.11838 0
M  V30 12639 H 1174.6 2.27223 4.48753 0
M  V30 12640 H 1174.3 4.01694 4.28854 0
M  V30 12641 H 1175.82 3.45632 5.0336 0
M  V30 12642 H 1177.24 4.76988 3.1805 0
M  V30 12643 H 1175.63 5.37431 2.66998 0
M  V30 12644 H 1176.7 4.61921 1.47501 0
M  V30 12645 N 1178.05 -0.61812 1.44973 0
M  V30 12646 C 1178.98 -1.74299 1.48837 0
M  V30 12647 C 1179.99 -1.58296 0.38028 0
M  V30 12648 O 1181.18 -1.66371 0.646757 0
M  V30 12649 C 1178.28 -3.12179 1.31901 0
M  V30 12650 C 1177.45 -3.54519 2.56193 0
M  V30 12651 C 1176.51 -4.71324 2.33966 0
M  V30 12652 O 1175.54 -4.78975 3.07525 0
M  V30 12653 N 1176.74 -5.63894 1.37854 0
M  V30 12654 H 1179.5 -1.7145 2.45815 0
M  V30 12655 H 1177.07 -0.803087 1.40578 0
M  V30 12656 H 1179.06 -3.88059 1.14858 0
M  V30 12657 H 1177.63 -3.09595 0.43239 0
M  V30 12658 H 1176.85 -2.68711 2.88423 0
M  V30 12659 H 1178.14 -3.79563 3.38835 0
M  V30 12660 H 1177.53 -5.60418 0.771273 0
M  V30 12661 H 1176.09 -6.3935 1.26787 0
M  V30 12662 N 1179.52 -1.32087 -0.859693 0
M  V30 12663 C 1180.94 -1.10968 -1.14709 0
M  V30 12664 C 1181.14 0.113139 -2.01182 0
M  V30 12665 O 1180.2 0.799499 -2.39508 0
M  V30 12666 C 1181.51 -2.38657 -1.8293 0
M  V30 12667 C 1183.06 -2.44366 -1.95587 0
M  V30 12668 C 1183.53 -3.71963 -2.67222 0
M  V30 12669 N 1185.02 -3.72916 -2.7475 0
M  V30 12670 C 1185.76 -4.68346 -3.30816 0
M  V30 12671 N 1185.25 -5.74139 -3.87732 0
M  V30 12672 N 1187.05 -4.55851 -3.28872 0
M  V30 12673 H 1179.2 -2.10497 -0.283711 0
M  V30 12674 H 1181.46 -0.929108 -0.188315 0
M  V30 12675 H 1181.17 -3.2803 -1.26844 0
M  V30 12676 H 1181.04 -2.49236 -2.83128 0
M  V30 12677 H 1183.43 -1.55456 -2.50833 0
M  V30 12678 H 1183.51 -2.37744 -0.944001 0
M  V30 12679 H 1183.15 -4.61245 -2.1264 0
M  V30 12680 H 1183.08 -3.75855 -3.68837 0
M  V30 12681 H 1185.57 -2.96447 -2.34367 0
M  V30 12682 H 1185.89 -6.43021 -4.28654 0
M  V30 12683 H 1184.23 -5.779 -3.86078 0
M  V30 12684 H 1187.42 -3.72371 -2.83651 0
M  V30 12685 H 1187.6 -5.30398 -3.72266 0
M  V30 12686 N 1181 1.07532 -1.15215 0
M  V30 12687 C 1182.25 1.8036 -0.927263 0
M  V30 12688 C 1182.58 1.86414 0.544371 0
M  V30 12689 O 1181.86 1.34653 1.40353 0
M  V30 12690 C 1182.14 3.25512 -1.53992 0
M  V30 12691 C 1181.99 3.27614 -3.08203 0
M  V30 12692 C 1183.31 4.22731 -1.22418 0
M  V30 12693 H 1180.43 0.654775 -0.338289 0
M  V30 12694 H 1183.07 1.25842 -1.42351 0
M  V30 12695 H 1181.22 3.72068 -1.11791 0
M  V30 12696 H 1182.89 2.89315 -3.59297 0
M  V30 12697 H 1181.14 2.66627 -3.42188 0
M  V30 12698 H 1181.81 4.29956 -3.46182 0
M  V30 12699 H 1184.28 3.84557 -1.58919 0
M  V30 12700 H 1183.16 5.22589 -1.67906 0
M  V30 12701 H 1183.42 4.41875 -0.14091 0
M  V30 12702 N 1182.48 0.948665 1.2585 0
M  V30 12703 C 1183.73 0.595938 1.92695 0
M  V30 12704 C 1184.04 -0.870229 1.75175 0
M  V30 12705 O 1185.25 -1.33266 2.36543 0
M  V30 12706 C 1183.7 1.01511 3.45288 0
M  V30 12707 C 1183.31 2.50341 3.71528 0
M  V30 12708 C 1185.06 0.734635 4.18095 0
M  V30 12709 C 1182.96 2.8609 5.17597 0
M  V30 12710 H 1181.89 0.219171 0.721443 0
M  V30 12711 H 1184.54 1.15231 1.42807 0
M  V30 12712 H 1182.93 0.387201 3.94102 0
M  V30 12713 H 1184.1 3.18101 3.3339 0
M  V30 12714 H 1182.42 2.75797 3.11969 0
M  V30 12715 H 1185.01 0.977962 5.25681 0
M  V30 12716 H 1185.36 -0.328807 4.14999 0
M  V30 12717 H 1185.89 1.32262 3.75169 0
M  V30 12718 H 1182.63 3.91427 5.25799 0
M  V30 12719 H 1182.15 2.22999 5.56805 0
M  V30 12720 H 1183.83 2.74959 5.85668 0
M  V30 12721 N 1183.96 -1.40369 0.716545 0
M  V30 12722 C 1184.92 -2.29083 0.0733105 0
M  V30 12723 C 1185.92 -1.45415 -0.686378 0
M  V30 12724 O 1187.11 -1.66316 -0.518139 0
M  V30 12725 C 1184.24 -3.28639 -0.906032 0
M  V30 12726 H 1185.44 -2.87464 0.85467 0
M  V30 12727 H 1182.99 -1.48706 0.481256 0
M  V30 12728 H 1183.72 -2.75279 -1.71441 0
M  V30 12729 H 1183.51 -3.90405 -0.364163 0
M  V30 12730 H 1185 -3.95066 -1.35324 0
M  V30 12731 N 1185.44 -0.462799 -1.50652 0
M  V30 12732 C 1186.38 0.349784 -2.29955 0
M  V30 12733 C 1187.38 0.997947 -1.36885 0
M  V30 12734 O 1188.58 0.93 -1.54114 0
M  V30 12735 H 1184.96 0.131635 -0.740389 0
M  V30 12736 H 1186.93 -0.33958 -2.96461 0
M  V30 12737 C 1185.68 1.42398 -3.17204 0
M  V30 12738 H 1185 0.934611 -3.88722 0
M  V30 12739 H 1186.44 1.96528 -3.75703 0
M  V30 12740 C 1184.9 2.42135 -2.34248 0
M  V30 12741 O 1185.43 3.47229 -2.01978 0
M  V30 12742 N 1183.64 2.13647 -1.96985 0
M  V30 12743 H 1183.18 1.28209 -2.23428 0
M  V30 12744 H 1183.14 2.80615 -1.41783 0
M  V30 12745 N 1186.91 1.56388 -0.195085 0
M  V30 12746 C 1188.15 1.99478 0.445855 0
M  V30 12747 C 1188.52 1.0792 1.588 0
M  V30 12748 O 1189.72 1.40246 2.29313 0
M  V30 12749 C 1187.99 3.46032 0.894248 0
M  V30 12750 S 1189.55 4.11149 1.53303 0
M  V30 12751 H 1186.37 0.696558 0.142575 0
M  V30 12752 H 1188.97 1.93213 -0.298149 0
M  V30 12753 H 1187.67 4.10366 0.0529258 0
M  V30 12754 H 1187.2 3.56114 1.67172 0
M  V30 12755 H 1189.22 4.08155 2.82177 0
M  V30 12756 N 1188.39 -0.0785156 1.57404 0
M  V30 12757 C 1189.81 -0.433143 1.5361 0
M  V30 12758 C 1190.01 -1.79564 0.914283 0
M  V30 12759 O 1189.06 -2.47215 0.513899 0
M  V30 12760 C 1190.38 -0.380387 2.98284 0
M  V30 12761 C 1191.93 -0.461056 3.09586 0
M  V30 12762 C 1192.4 -0.438276 4.55898 0
M  V30 12763 N 1193.89 -0.498548 4.60509 0
M  V30 12764 C 1194.63 -0.503028 5.71189 0
M  V30 12765 N 1194.12 -0.462724 6.91253 0
M  V30 12766 N 1195.92 -0.549083 5.59412 0
M  V30 12767 H 1188.07 0.813724 1.96195 0
M  V30 12768 H 1190.33 0.304644 0.897717 0
M  V30 12769 H 1190.04 0.553932 3.4731 0
M  V30 12770 H 1189.91 -1.19313 3.57833 0
M  V30 12771 H 1192.3 -1.3858 2.60537 0
M  V30 12772 H 1192.38 0.380138 2.5296 0
M  V30 12773 H 1192.02 0.482588 5.05602 0
M  V30 12774 H 1191.95 -1.29691 5.1038 0
M  V30 12775 H 1194.44 -0.534219 3.74105 0
M  V30 12776 H 1194.76 -0.469883 7.7137 0
M  V30 12777 H 1193.1 -0.429515 6.93672 0
M  V30 12778 H 1196.29 -0.578215 4.64515 0
M  V30 12779 H 1196.46 -0.549105 6.45669 0
M  V30 12780 N 1189.87 -1.5367 -0.349747 0
M  V30 12781 C 1190.78 -1.84207 -1.45275 0
M  V30 12782 C 1191.8 -0.731695 -1.57868 0
M  V30 12783 O 1192.97 -1.02337 -1.73462 0
M  V30 12784 C 1190.04 -2.0398 -2.80345 0
M  V30 12785 C 1189.1 -3.27853 -2.77148 0
M  V30 12786 C 1188.33 -3.46673 -4.05775 0
M  V30 12787 O 1188.55 -2.69457 -5.02741 0
M  V30 12788 O 1187.49 -4.40082 -4.10623 0
M  V30 12789 H 1191.31 -2.77947 -1.22389 0
M  V30 12790 H 1188.9 -1.39247 -0.541345 0
M  V30 12791 H 1190.78 -2.18466 -3.60348 0
M  V30 12792 H 1189.46 -1.13429 -3.03176 0
M  V30 12793 H 1188.36 -3.18776 -1.95787 0
M  V30 12794 H 1189.7 -4.18377 -2.59271 0
M  V30 12795 N 1191.35 0.610423 -1.45298 0
M  V30 12796 C 1192.58 1.39419 -1.52466 0
M  V30 12797 C 1192.99 1.88563 -0.1551 0
M  V30 12798 O 1192.33 1.62692 0.853061 0
M  V30 12799 C 1192.39 2.63515 -2.44541 0
M  V30 12800 C 1192.06 2.36028 -3.91331 0
M  V30 12801 C 1193.05 1.96567 -4.81308 0
M  V30 12802 C 1190.74 2.49028 -4.36223 0
M  V30 12803 C 1192.73 1.70461 -6.14184 0
M  V30 12804 C 1190.42 2.22536 -5.6914 0
M  V30 12805 C 1191.42 1.83314 -6.5794 0
M  V30 12806 O 1191.1 1.57131 -7.88394 0
M  V30 12807 H 1190.84 0.433278 -0.518889 0
M  V30 12808 H 1193.39 0.751803 -1.91147 0
M  V30 12809 H 1191.62 3.30463 -2.00826 0
M  V30 12810 H 1193.31 3.25554 -2.42424 0
M  V30 12811 H 1194.08 1.86062 -4.4789 0
M  V30 12812 H 1189.95 2.78524 -3.67349 0
M  V30 12813 H 1193.5 1.39773 -6.83454 0
M  V30 12814 H 1189.4 2.32657 -6.02114 0
M  V30 12815 H 1190.16 1.71207 -8.00394 0
M  V30 12816 N 1192.83 1.32541 0.852676 0
M  V30 12817 C 1193.77 1.21602 1.98282 0
M  V30 12818 C 1194.77 0.120384 1.68972 0
M  V30 12819 O 1195.97 0.283441 1.77754 0
M  V30 12820 H 1192.35 0.376994 0.650676 0
M  V30 12821 H 1194.32 2.17179 2.04636 0
M  V30 12822 C 1193.07 0.957965 3.34243 0
M  V30 12823 H 1192.39 1.79324 3.57327 0
M  V30 12824 H 1193.83 0.921673 4.13861 0
M  V30 12825 C 1192.29 -0.339271 3.35187 0
M  V30 12826 O 1192.82 -1.3505 3.78318 0
M  V30 12827 N 1191.03 -0.361944 2.88337 0
M  V30 12828 H 1190.57 0.461497 2.53432 0
M  V30 12829 H 1190.53 -1.22976 2.89352 0
M  V30 12830 N 1194.3 -1.0692 1.15784 0
M  V30 12831 C 1195.72 -1.61069 0.944123 0
M  V30 12832 C 1196.07 -1.8936 -0.513522 0
M  V30 12833 O 1195.19 -1.66232 -1.38549 0
M  V30 12834 C 1195.79 -2.9263 1.70743 0
M  V30 12835 C 1194.35 -3.43505 1.53887 0
M  V30 12836 C 1193.49 -2.17495 1.72021 0
M  V30 12837 H 1196.44 -0.89951 1.30746 0
M  V30 12838 H 1196.46 -3.61757 1.17951 0
M  V30 12839 H 1195.98 -2.72007 2.76828 0
M  V30 12840 H 1194.08 -3.69201 0.502153 0
M  V30 12841 H 1194.19 -4.19254 2.31868 0
M  V30 12842 H 1192.55 -2.27407 1.1471 0
M  V30 12843 H 1193.34 -1.99362 2.79481 0
M  V30 12844 N 1195.78 -0.955326 -1.25345 0
M  V30 12845 C 1197.19 -0.651118 -1.74978 0
M  V30 12846 C 1197.54 0.833495 -1.77616 0
M  V30 12847 O 1196.67 1.65228 -1.39745 0
M  V30 12848 C 1197.26 -1.17521 -3.17764 0
M  V30 12849 C 1195.82 -0.921151 -3.64954 0
M  V30 12850 C 1194.97 -1.31784 -2.43984 0
M  V30 12851 H 1197.92 -1.13205 -1.11222 0
M  V30 12852 H 1197.94 -0.535625 -3.76711 0
M  V30 12853 H 1197.45 -2.25575 -3.15813 0
M  V30 12854 H 1195.56 0.144392 -3.7232 0
M  V30 12855 H 1195.67 -1.5581 -4.53056 0
M  V30 12856 H 1194.03 -0.736219 -2.43828 0
M  V30 12857 H 1194.82 -2.40761 -2.44723 0
M  V30 12858 N 1197.26 1.39987 -0.723979 0
M  V30 12859 C 1198.54 1.94637 -0.1939 0
M  V30 12860 C 1198.92 1.66156 1.30212 0
M  V30 12861 O 1198.27 0.983783 2.06238 0
M  V30 12862 C 1198.48 3.4517 -0.515652 0
M  V30 12863 C 1199.82 4.22113 -0.458919 0
M  V30 12864 O 1200.85 3.53318 -0.452198 0
M  V30 12865 O 1199.71 5.44695 -0.443783 0
M  V30 12866 H 1196.8 0.826394 -0.0316615 0
M  V30 12867 H 1199.35 1.49548 -0.802085 0
M  V30 12868 H 1198.12 3.5929 -1.55004 0
M  V30 12869 H 1197.74 3.97413 0.122067 0
M  V30 12870 N 1198.74 0.470782 1.50404 0
M  V30 12871 C 1199.96 -0.084284 2.07229 0
M  V30 12872 C 1200.39 -1.32774 1.33239 0
M  V30 12873 O 1199.75 -1.77274 0.379971 0
M  V30 12874 C 1199.8 -0.351565 3.58882 0
M  V30 12875 O 1198.9 -1.43211 3.86736 0
M  V30 12876 H 1198.24 0.0128479 0.663876 0
M  V30 12877 H 1200.77 0.661735 1.93603 0
M  V30 12878 H 1200.78 -0.592151 4.0368 0
M  V30 12879 H 1199.46 0.557084 4.12152 0
M  V30 12880 H 1198.03 -1.17886 3.53776 0
M  V30 12881 N 1200.22 -1.56282 0.203376 0
M  V30 12882 C 1201.13 -2.23086 -0.725922 0
M  V30 12883 C 1202.14 -1.23258 -1.22814 0
M  V30 12884 O 1203.32 -1.5602 -1.27357 0
M  V30 12885 C 1200.38 -2.88358 -1.92485 0
M  V30 12886 C 1199.45 -4.03479 -1.46639 0
M  V30 12887 C 1198.68 -4.65629 -2.60816 0
M  V30 12888 O 1198.9 -4.2672 -3.78506 0
M  V30 12889 O 1197.84 -5.54949 -2.33056 0
M  V30 12890 H 1201.66 -3.03124 -0.18694 0
M  V30 12891 H 1199.25 -1.49377 -0.0262829 0
M  V30 12892 H 1201.13 -3.29623 -2.62539 0
M  V30 12893 H 1199.8 -2.11294 -2.45228 0
M  V30 12894 H 1198.71 -3.66821 -0.734396 0
M  V30 12895 H 1200.04 -4.82232 -0.985535 0
M  V30 12896 N 1201.7 0.070167 -1.57444 0
M  V30 12897 C 1202.93 0.78076 -1.91279 0
M  V30 12898 C 1203.33 1.71559 -0.797754 0
M  V30 12899 O 1202.68 1.82156 0.237665 0
M  V30 12900 C 1202.74 1.62664 -3.20594 0
M  V30 12901 C 1202.4 0.861007 -4.48816 0
M  V30 12902 C 1203.4 0.179522 -5.1959 0
M  V30 12903 C 1201.08 0.8277 -4.95434 0
M  V30 12904 C 1203.08 -0.525024 -6.35234 0
M  V30 12905 C 1200.77 0.119382 -6.10983 0
M  V30 12906 C 1201.76 -0.555778 -6.80735 0
M  V30 12907 O 1201.45 -1.25268 -7.9408 0
M  V30 12908 H 1201.18 0.227053 -0.636728 0
M  V30 12909 H 1203.74 0.0442334 -2.05352 0
M  V30 12910 H 1201.97 2.40601 -3.02734 0
M  V30 12911 H 1203.66 2.21606 -3.40067 0
M  V30 12912 H 1204.42 0.19655 -4.84602 0
M  V30 12913 H 1200.3 1.34268 -4.41014 0
M  V30 12914 H 1203.85 -1.05257 -6.89613 0
M  V30 12915 H 1199.74 0.100287 -6.45422 0
M  V30 12916 H 1200.51 -1.16212 -8.10208 0
M  V30 12917 N 1203.17 1.53854 0.341593 0
M  V30 12918 C 1204.41 1.72909 1.09004 0
M  V30 12919 C 1204.78 0.48304 1.85824 0
M  V30 12920 O 1205.98 0.550651 2.63099 0
M  V30 12921 C 1204.25 2.95884 2.00468 0
M  V30 12922 S 1205.81 3.3576 2.82508 0
M  V30 12923 H 1202.63 0.608187 0.368279 0
M  V30 12924 H 1205.23 1.92001 0.368222 0
M  V30 12925 H 1203.93 3.84742 1.42836 0
M  V30 12926 H 1203.46 2.79263 2.77084 0
M  V30 12927 H 1205.48 2.89647 4.02888 0
M  V30 12928 N 1204.65 -0.602709 1.4562 0
M  V30 12929 C 1206.07 -0.923983 1.30133 0
M  V30 12930 C 1206.27 -1.99842 0.25796 0
M  V30 12931 O 1205.32 -2.50112 -0.346414 0
M  V30 12932 C 1206.64 -1.36029 2.68173 0
M  V30 12933 C 1208.18 -1.47423 2.76108 0
M  V30 12934 C 1208.66 -1.94427 4.14683 0
M  V30 12935 N 1210.15 -2.01653 4.17002 0
M  V30 12936 C 1210.89 -2.39255 5.211 0
M  V30 12937 N 1210.38 -2.75791 6.3554 0
M  V30 12938 N 1212.17 -2.39636 5.08459 0
M  V30 12939 H 1204.33 0.107377 2.12128 0
M  V30 12940 H 1206.59 -0.0146216 0.947887 0
M  V30 12941 H 1206.29 -0.644949 3.45736 0
M  V30 12942 H 1206.17 -2.32584 2.96959 0
M  V30 12943 H 1208.56 -2.18047 1.98845 0
M  V30 12944 H 1208.64 -0.4917 2.5103 0
M  V30 12945 H 1208.28 -1.24389 4.92433 0
M  V30 12946 H 1208.21 -2.93603 4.37156 0
M  V30 12947 H 1210.7 -1.75988 3.3442 0
M  V30 12948 H 1211.01 -3.03378 7.10761 0
M  V30 12949 H 1209.36 -2.73475 6.38934 0
M  V30 12950 H 1212.55 -2.10502 4.18098 0
M  V30 12951 H 1212.72 -2.68614 5.89704 0
M  V30 12952 N 1206.13 -1.32992 -0.845635 0
M  V30 12953 C 1207.37 -1.2539 -1.61421 0
M  V30 12954 C 1207.73 0.179395 -1.9116 0
M  V30 12955 O 1208.93 0.379275 -2.66111 0
M  V30 12956 C 1207.21 -2.09817 -2.8933 0
M  V30 12957 S 1208.76 -2.19335 -3.80049 0
M  V30 12958 H 1205.58 -0.446202 -0.553556 0
M  V30 12959 H 1208.18 -1.67946 -1.00072 0
M  V30 12960 H 1206.89 -3.12999 -2.65443 0
M  V30 12961 H 1206.42 -1.68073 -3.5569 0
M  V30 12962 H 1208.43 -1.34946 -4.77498 0
M  V30 12963 N 1207.61 1.06304 -1.1635 0
M  V30 12964 C 1208.57 2.11947 -0.872419 0
M  V30 12965 C 1209.57 1.60253 0.132534 0
M  V30 12966 O 1210.76 1.73922 -0.0983441 0
M  V30 12967 C 1207.89 3.39536 -0.304646 0
M  V30 12968 H 1209.09 2.39201 -1.80894 0
M  V30 12969 H 1206.64 1.22367 -0.972419 0
M  V30 12970 H 1207.37 3.17931 0.639565 0
M  V30 12971 H 1207.16 3.78363 -1.02878 0
M  V30 12972 H 1208.65 4.17431 -0.118936 0
M  V30 12973 N 1209.09 0.96196 1.24836 0
M  V30 12974 C 1210.31 0.637709 1.97353 0
M  V30 12975 C 1210.74 -0.784919 1.7094 0
M  V30 12976 O 1210.09 -1.53188 0.969694 0
M  V30 12977 C 1210.14 0.911485 3.4889 0
M  V30 12978 O 1209.25 -0.00601668 4.124 0
M  V30 12979 H 1208.59 0.241685 0.618453 0
M  V30 12980 H 1211.12 1.29055 1.58764 0
M  V30 12981 H 1211.13 0.840702 3.99245 0
M  V30 12982 H 1209.8 1.9483 3.67442 0
M  V30 12983 H 1208.38 0.117597 3.72715 0
M  V30 12984 N 1210.56 -1.39601 0.731392 0
M  V30 12985 C 1211.53 -2.28992 0.0976037 0
M  V30 12986 C 1212.53 -1.46135 -0.670917 0
M  V30 12987 O 1213.72 -1.66856 -0.50047 0
M  V30 12988 C 1210.85 -3.29582 -0.871124 0
M  V30 12989 H 1212.04 -2.86541 0.885112 0
M  V30 12990 H 1209.59 -1.48188 0.497002 0
M  V30 12991 H 1210.33 -2.77082 -1.68512 0
M  V30 12992 H 1210.11 -3.9077 -0.322735 0
M  V30 12993 H 1211.6 -3.96479 -1.31126 0
M  V30 12994 N 1212.04 -0.478751 -1.50152 0
M  V30 12995 C 1212.97 0.301182 -2.31549 0
M  V30 12996 C 1213.95 0.983276 -1.38801 0
M  V30 12997 O 1215.14 0.978973 -1.67719 0
M  V30 12998 C 1212.27 1.3791 -3.18745 0
M  V30 12999 C 1211.22 0.818175 -4.20107 0
M  V30 13000 C 1210.55 1.99496 -4.9609 0
M  V30 13001 C 1211.85 -0.17574 -5.22004 0
M  V30 13002 H 1213.54 -0.378188 -2.97002 0
M  V30 13003 H 1211.09 -0.183323 -1.42828 0
M  V30 13004 H 1213.04 1.93227 -3.74488 0
M  V30 13005 H 1211.77 2.08735 -2.51192 0
M  V30 13006 H 1210.42 0.286924 -3.65475 0
M  V30 13007 H 1210.07 2.69036 -4.25004 0
M  V30 13008 H 1209.77 1.62582 -5.6466 0
M  V30 13009 H 1211.3 2.55288 -5.54671 0
M  V30 13010 H 1212.71 0.288513 -5.72574 0
M  V30 13011 H 1211.11 -0.459549 -5.98338 0
M  V30 13012 H 1212.18 -1.09911 -4.72279 0
M  V30 13013 N 1213.52 1.56172 -0.211661 0
M  V30 13014 C 1214.43 2.23468 0.714081 0
M  V30 13015 C 1215.45 1.23908 1.22159 0
M  V30 13016 O 1216.62 1.56693 1.26528 0
M  V30 13017 C 1213.69 2.89375 1.90953 0
M  V30 13018 C 1212.75 4.04251 1.44497 0
M  V30 13019 C 1211.98 4.67006 2.58343 0
M  V30 13020 O 1212.2 4.28721 3.76237 0
M  V30 13021 O 1211.14 5.56177 2.3011 0
M  V30 13022 H 1214.96 3.03219 0.170862 0
M  V30 13023 H 1212.55 1.49389 0.0183607 0
M  V30 13024 H 1214.43 3.3101 2.60787 0
M  V30 13025 H 1213.11 2.12591 2.44104 0
M  V30 13026 H 1212.01 3.67205 0.714932 0
M  V30 13027 H 1213.35 4.82748 0.959947 0
M  V30 13028 N 1215 -0.0618163 1.57479 0
M  V30 13029 C 1215.95 -1.0724 2.04373 0
M  V30 13030 C 1216.92 -1.37875 0.926271 0
M  V30 13031 O 1218.1 -1.48772 1.19463 0
M  V30 13032 C 1215.24 -2.37805 2.50085 0
M  V30 13033 C 1214.35 -2.13614 3.7549 0
M  V30 13034 C 1213.49 -3.37814 4.09945 0
M  V30 13035 C 1212.53 -3.09032 5.28361 0
M  V30 13036 N 1211.66 -4.25591 5.58406 0
M  V30 13037 H 1216.5 -0.665536 2.90473 0
M  V30 13038 H 1214.04 -0.317043 1.43643 0
M  V30 13039 H 1216 -3.14048 2.74644 0
M  V30 13040 H 1214.63 -2.76275 1.66948 0
M  V30 13041 H 1213.68 -1.28017 3.58212 0
M  V30 13042 H 1214.99 -1.88361 4.61867 0
M  V30 13043 H 1214.15 -4.22447 4.35458 0
M  V30 13044 H 1212.89 -3.66153 3.22154 0
M  V30 13045 H 1211.89 -2.22797 5.02635 0
M  V30 13046 H 1213.12 -2.82006 6.17778 0
M  V30 13047 H 1211.06 -4.53941 4.73575 0
M  V30 13048 H 1210.98 -4.03646 6.39223 0
M  V30 13049 H 1212.25 -5.11191 5.88476 0
M  V30 13050 N 1216.48 -1.54033 -0.333429 0
M  V30 13051 C 1217.72 -1.71765 -1.07252 0
M  V30 13052 C 1218.05 -0.486135 -1.88327 0
M  V30 13053 O 1217.31 0.532135 -1.88326 0
M  V30 13054 C 1217.61 -2.93926 -2.03328 0
M  V30 13055 C 1217.27 -4.29107 -1.38486 0
M  V30 13056 C 1215.93 -4.6586 -1.20532 0
M  V30 13057 C 1218.29 -5.13041 -0.918624 0
M  V30 13058 C 1215.61 -5.84155 -0.545881 0
M  V30 13059 C 1217.97 -6.3201 -0.273055 0
M  V30 13060 C 1216.63 -6.67451 -0.0812815 0
M  V30 13061 H 1215.9 -0.628532 -0.392464 0
M  V30 13062 H 1218.55 -1.88261 -0.350709 0
M  V30 13063 H 1216.85 -2.72075 -2.81926 0
M  V30 13064 H 1218.55 -3.0484 -2.60526 0
M  V30 13065 H 1215.14 -4.00185 -1.5346 0
M  V30 13066 H 1219.32 -4.8517 -1.04515 0
M  V30 13067 H 1214.58 -6.1018 -0.386009 0
M  V30 13068 H 1218.75 -6.96333 0.0962582 0
M  V30 13069 H 1216.38 -7.58973 0.431734 0
M  V30 13070 N 1217.95 0.594978 -1.45938 0
M  V30 13071 C 1219.2 1.35361 -1.50611 0
M  V30 13072 C 1219.53 1.93898 -0.152866 0
M  V30 13073 O 1218.78 1.76275 0.850037 0
M  V30 13074 C 1219.08 2.51129 -2.54301 0
M  V30 13075 C 1218.75 2.1066 -3.98664 0
M  V30 13076 C 1217.41 1.99338 -4.3797 0
M  V30 13077 C 1219.76 1.79267 -4.894 0
M  V30 13078 C 1217.09 1.54863 -5.65893 0
M  V30 13079 C 1219.44 1.36274 -6.17748 0
M  V30 13080 C 1218.11 1.2352 -6.55972 0
M  V30 13081 H 1217.38 0.49532 -0.551125 0
M  V30 13082 H 1220.02 0.671236 -1.79351 0
M  V30 13083 H 1218.33 3.24759 -2.19177 0
M  V30 13084 H 1220.03 3.09353 -2.55151 0
M  V30 13085 H 1216.62 2.20403 -3.67587 0
M  V30 13086 H 1220.8 1.86906 -4.59761 0
M  V30 13087 H 1216.06 1.43621 -5.94292 0
M  V30 13088 H 1220.23 1.11032 -6.87492 0
M  V30 13089 H 1217.86 0.88832 -7.54992 0
M  V30 13090 N 1219.43 1.33438 0.838571 0
M  V30 13091 C 1220.66 1.27766 1.62356 0
M  V30 13092 C 1221.07 -0.15359 1.88576 0
M  V30 13093 O 1220.41 -1.10626 1.46654 0
M  V30 13094 C 1220.48 1.98435 2.99773 0
M  V30 13095 C 1220.14 3.47741 2.96522 0
M  V30 13096 C 1221.14 4.42938 2.72217 0
M  V30 13097 C 1218.82 3.89922 3.16648 0
M  V30 13098 C 1220.82 5.7829 2.68066 0
M  V30 13099 C 1218.5 5.25378 3.12123 0
M  V30 13100 C 1219.5 6.19374 2.87863 0
M  V30 13101 O 1219.19 7.52349 2.83242 0
M  V30 13102 H 1218.92 0.441527 0.511889 0
M  V30 13103 H 1221.47 1.76377 1.05262 0
M  V30 13104 H 1219.7 1.44415 3.58721 0
M  V30 13105 H 1221.39 1.86258 3.60642 0
M  V30 13106 H 1222.16 4.11673 2.56418 0
M  V30 13107 H 1218.04 3.17169 3.34552 0
M  V30 13108 H 1221.58 6.51629 2.4905 0
M  V30 13109 H 1217.48 5.56267 3.27471 0
M  V30 13110 H 1218.25 7.61901 2.99082 0
M  V30 13111 N 1220.91 -1.05686 1.16912 0
M  V30 13112 C 1222.16 -1.78597 0.954425 0
M  V30 13113 C 1222.49 -1.87494 -0.517315 0
M  V30 13114 O 1221.74 -1.36736 -1.40006 0
M  V30 13115 C 1222.04 -3.22779 1.53455 0
M  V30 13116 C 1221.71 -3.3395 3.02965 0
M  V30 13117 C 1220.37 -3.36706 3.43777 0
M  V30 13118 C 1222.72 -3.35371 3.98969 0
M  V30 13119 C 1220.05 -3.38506 4.79198 0
M  V30 13120 C 1222.4 -3.38708 5.34284 0
M  V30 13121 C 1221.06 -3.39749 5.74567 0
M  V30 13122 H 1220.33 -0.653534 0.349249 0
M  V30 13123 H 1222.98 -1.24245 1.45723 0
M  V30 13124 H 1221.29 -3.80025 0.953331 0
M  V30 13125 H 1222.98 -3.77805 1.34404 0
M  V30 13126 H 1219.57 -3.32515 2.70429 0
M  V30 13127 H 1223.76 -3.32447 3.685 0
M  V30 13128 H 1219.01 -3.37619 5.09729 0
M  V30 13129 H 1223.19 -3.38755 6.08455 0
M  V30 13130 H 1220.81 -3.40897 6.7948 0
M  V30 13131 N 1222.39 -0.968567 -1.24324 0
M  V30 13132 C 1223.34 -0.498817 -2.25345 0
M  V30 13133 C 1224.31 0.456082 -1.59716 0
M  V30 13134 O 1225.49 0.366254 -1.87252 0
M  V30 13135 C 1222.63 0.204027 -3.44496 0
M  V30 13136 C 1221.74 -0.789741 -4.2472 0
M  V30 13137 C 1220.88 -0.0629156 -5.31163 0
M  V30 13138 C 1219.92 -1.04669 -6.03084 0
M  V30 13139 N 1219.05 -0.349812 -7.01228 0
M  V30 13140 H 1223.89 -1.36511 -2.64894 0
M  V30 13141 H 1221.43 -0.684288 -1.30215 0
M  V30 13142 H 1223.39 0.628223 -4.12443 0
M  V30 13143 H 1222.02 1.03426 -3.05782 0
M  V30 13144 H 1221.07 -1.33237 -3.56303 0
M  V30 13145 H 1222.38 -1.53988 -4.74436 0
M  V30 13146 H 1221.54 0.419233 -6.0525 0
M  V30 13147 H 1220.28 0.719915 -4.82357 0
M  V30 13148 H 1219.28 -1.53971 -5.278 0
M  V30 13149 H 1220.51 -1.82998 -6.53979 0
M  V30 13150 H 1218.45 0.414026 -6.54692 0
M  V30 13151 H 1218.37 -1.03881 -7.48829 0
M  V30 13152 H 1219.64 0.11034 -7.79422 0
M  V30 13153 N 1223.87 1.39211 -0.738786 0
M  V30 13154 C 1224.8 2.33209 -0.11647 0
M  V30 13155 C 1225.78 1.54108 0.720056 0
M  V30 13156 O 1226.96 1.82486 0.664264 0
M  V30 13157 C 1224.09 3.38226 0.78872 0
M  V30 13158 C 1223.05 4.27963 0.0560636 0
M  V30 13159 C 1222.37 5.2371 1.07852 0
M  V30 13160 C 1223.67 5.10508 -1.1036 0
M  V30 13161 H 1225.37 2.85501 -0.901649 0
M  V30 13162 H 1222.91 1.37272 -0.435032 0
M  V30 13163 H 1224.87 4.02938 1.23364 0
M  V30 13164 H 1223.59 2.84382 1.60606 0
M  V30 13165 H 1222.25 3.64735 -0.369274 0
M  V30 13166 H 1221.9 4.66161 1.88953 0
M  V30 13167 H 1221.6 5.846 0.593048 0
M  V30 13168 H 1223.12 5.91299 1.52307 0
M  V30 13169 H 1224.53 5.68544 -0.736943 0
M  V30 13170 H 1222.93 5.80558 -1.51895 0
M  V30 13171 H 1224 4.45117 -1.92352 0
M  V30 13172 N 1225.34 0.486708 1.49896 0
M  V30 13173 C 1226.29 -0.299294 2.28851 0
M  V30 13174 C 1227.26 -0.973251 1.346 0
M  V30 13175 O 1228.45 -0.982678 1.63548 0
M  V30 13176 C 1225.59 -1.36624 3.16904 0
M  V30 13177 C 1224.7 -0.705492 4.262 0
M  V30 13178 C 1223.83 -1.75165 5.01488 0
M  V30 13179 C 1222.87 -1.072 6.0264 0
M  V30 13180 N 1222.01 -2.06172 6.71147 0
M  V30 13181 H 1226.85 0.380272 2.95564 0
M  V30 13182 H 1224.39 0.199377 1.45743 0
M  V30 13183 H 1226.35 -1.99666 3.66319 0
M  V30 13184 H 1224.98 -2.01476 2.52205 0
M  V30 13185 H 1224.03 0.0378757 3.80381 0
M  V30 13186 H 1225.34 -0.169774 4.98511 0
M  V30 13187 H 1224.49 -2.45749 5.547 0
M  V30 13188 H 1223.23 -2.3212 4.28919 0
M  V30 13189 H 1222.24 -0.351868 5.48673 0
M  V30 13190 H 1223.46 -0.509139 6.77189 0
M  V30 13191 H 1221.41 -2.62115 6.01358 0
M  V30 13192 H 1221.33 -1.57627 7.39385 0
M  V30 13193 H 1222.59 -2.76088 7.28969 0
M  V30 13194 N 1226.82 -1.56058 0.219941 0
M  V30 13195 C 1227.73 -2.23844 -0.70222 0
M  V30 13196 C 1228.75 -1.24554 -1.215 0
M  V30 13197 O 1229.93 -1.57362 -1.25695 0
M  V30 13198 C 1226.99 -2.90384 -1.89416 0
M  V30 13199 C 1226.05 -4.05012 -1.42351 0
M  V30 13200 C 1225.28 -4.68369 -2.55863 0
M  V30 13201 O 1225.51 -4.3071 -3.73958 0
M  V30 13202 O 1224.44 -5.5739 -2.27157 0
M  V30 13203 H 1228.27 -3.03305 -0.15478 0
M  V30 13204 H 1225.85 -1.49396 -0.010438 0
M  V30 13205 H 1227.73 -3.32389 -2.59028 0
M  V30 13206 H 1226.41 -2.13883 -2.42973 0
M  V30 13207 H 1225.32 -3.67579 -0.695448 0
M  V30 13208 H 1226.65 -4.83251 -0.934332 0
M  V30 13209 N 1228.3 0.053464 -1.57509 0
M  V30 13210 C 1229.55 0.747622 -1.87763 0
M  V30 13211 C 1229.87 1.77178 -0.814433 0
M  V30 13212 O 1229.14 1.95287 0.154862 0
M  V30 13213 H 1227.72 0.279109 -0.692898 0
M  V30 13214 H 1230.38 0.0252006 -1.94884 0
M  V30 13215 H 1229.48 1.25244 -2.85868 0
M  V30 13216 N 1229.78 1.54207 0.325255 0
M  V30 13217 C 1231.03 1.71991 1.0613 0
M  V30 13218 C 1231.35 0.495505 1.88599 0
M  V30 13219 O 1230.62 -0.490504 1.8966 0
M  V30 13220 H 1229.2 0.634137 0.394816 0
M  V30 13221 H 1231.86 1.91507 0.362101 0
M  V30 13222 H 1230.96 2.59878 1.72829 0
M  V30 13223 N 1231.26 -0.58723 1.46251 0
M  V30 13224 C 1232.19 -1.70694 1.5933 0
M  V30 13225 C 1233.17 -1.64208 0.443831 0
M  V30 13226 O 1234.35 -1.82294 0.669516 0
M  V30 13227 C 1231.48 -3.0933 1.579 0
M  V30 13228 C 1230.44 -3.30643 2.7177 0
M  V30 13229 C 1229.76 -4.69761 2.554 0
M  V30 13230 C 1231.06 -3.18916 4.1363 0
M  V30 13231 H 1232.76 -1.60004 2.53059 0
M  V30 13232 H 1230.3 -0.768343 1.21789 0
M  V30 13233 H 1232.26 -3.87479 1.65644 0
M  V30 13234 H 1230.98 -3.20907 0.60712 0
M  V30 13235 H 1229.64 -2.54892 2.63488 0
M  V30 13236 H 1229.29 -4.78098 1.56306 0
M  V30 13237 H 1228.99 -4.84974 3.31774 0
M  V30 13238 H 1230.51 -5.50084 2.65028 0
M  V30 13239 H 1231.93 -3.86915 4.23048 0
M  V30 13240 H 1230.32 -3.45653 4.90555 0
M  V30 13241 H 1231.39 -2.1606 4.34104 0
M  V30 13242 N 1232.74 -1.33881 -0.831482 0
M  V30 13243 C 1233.98 -1.251 -1.58218 0
M  V30 13244 C 1234.3 0.17963 -1.94773 0
M  V30 13245 O 1235.5 0.389516 -2.68691 0
M  V30 13246 C 1233.96 -2.19246 -2.8541 0
M  V30 13247 C 1233.57 -3.6752 -2.5619 0
M  V30 13248 C 1235.31 -2.19355 -3.63433 0
M  V30 13249 C 1233.22 -4.53559 -3.79523 0
M  V30 13250 H 1232.15 -0.46469 -0.593784 0
M  V30 13251 H 1234.8 -1.58992 -0.916169 0
M  V30 13252 H 1233.18 -1.78295 -3.53591 0
M  V30 13253 H 1234.36 -4.16956 -1.96173 0
M  V30 13254 H 1232.67 -3.69774 -1.91458 0
M  V30 13255 H 1235.27 -2.80863 -4.54995 0
M  V30 13256 H 1235.61 -1.19056 -3.98913 0
M  V30 13257 H 1236.14 -2.58706 -3.02185 0
M  V30 13258 H 1232.88 -5.54762 -3.4917 0
M  V30 13259 H 1232.4 -4.08862 -4.38853 0
M  V30 13260 H 1234.08 -4.67736 -4.47025 0
M  V30 13261 N 1234.21 1.05064 -1.1747 0
M  V30 13262 C 1235.49 1.74999 -0.873776 0
M  V30 13263 C 1235.87 2.01615 0.625676 0
M  V30 13264 O 1235.22 1.65324 1.57734 0
M  V30 13265 C 1235.43 3.04231 -1.7101 0
M  V30 13266 C 1236.78 3.78157 -1.93087 0
M  V30 13267 O 1237.8 3.14104 -1.6798 0
M  V30 13268 O 1236.66 4.93255 -2.3529 0
M  V30 13269 H 1233.75 0.761042 -0.323641 0
M  V30 13270 H 1236.3 1.1122 -1.28172 0
M  V30 13271 H 1235.07 2.80621 -2.72704 0
M  V30 13272 H 1234.69 3.75746 -1.30002 0
M  V30 13273 N 1235.69 0.975146 1.23809 0
M  V30 13274 C 1236.64 0.510761 2.25077 0
M  V30 13275 C 1237.61 -0.447605 1.59955 0
M  V30 13276 O 1238.79 -0.356318 1.87443 0
M  V30 13277 C 1235.93 -0.185755 3.446 0
M  V30 13278 C 1235.05 0.812254 4.24295 0
M  V30 13279 C 1234.18 0.0910835 5.31122 0
M  V30 13280 C 1233.22 1.07866 6.02521 0
M  V30 13281 N 1232.36 0.386995 7.01033 0
M  V30 13282 H 1237.2 1.37913 2.64166 0
M  V30 13283 H 1234.73 0.691184 1.2985 0
M  V30 13284 H 1236.69 -0.606341 4.1277 0
M  V30 13285 H 1235.32 -1.01803 3.06327 0
M  V30 13286 H 1234.37 1.35125 3.55592 0
M  V30 13287 H 1235.69 1.56502 4.73612 0
M  V30 13288 H 1234.84 -0.387129 6.05464 0
M  V30 13289 H 1233.58 -0.694324 4.82732 0
M  V30 13290 H 1232.58 1.56767 5.26976 0
M  V30 13291 H 1233.81 1.86464 6.52999 0
M  V30 13292 H 1231.76 -0.3793 6.54903 0
M  V30 13293 H 1231.67 1.0785 7.48268 0
M  V30 13294 H 1232.94 -0.0690036 7.79469 0
M  V30 13295 O 1237.21 -1.35182 0.883632 0
M  V30 13296 H 1237.9 -1.87439 0.488494 0
M  V30 END ATOM
M  V30 BEGIN BOND
M  V30 END BOND
M  V30 END CTAB
M  END
$$$$
