drugbank_target|Q92876 Kallikrein-6 (DB03127)
 OpenBabel12092119563D

  0  0  0     0  0            999 V3000
M  V30 BEGIN CTAB
M  V30 COUNTS 3740 3784 0 0 0
M  V30 BEGIN ATOM
M  V30 1 H -0.908 1.98254 -0.117106 0
M  V30 2 N 0 1.576 0 0
M  V30 3 C 0.933 2.03868 1.02534 0
M  V30 4 C 1.911 0.928543 1.3348 0
M  V30 5 O 3.095 1.19667 1.45644 0
M  V30 6 C 0.222 2.43627 2.35294 0
M  V30 7 C -0.732 3.65373 2.2001 0
M  V30 8 S 0.101 5.13292 1.52614 0
M  V30 9 C 1.257 5.56322 2.86805 0
M  V30 10 H 1.49 2.90518 0.631377 0
M  V30 11 H -0.977 1.52953 0.210867 0
M  V30 12 H 0.981 2.67203 3.11629 0
M  V30 13 H -0.358 1.57376 2.7183 0
M  V30 14 H -1.165 3.90944 3.18086 0
M  V30 15 H -1.563 3.418 1.51819 0
M  V30 16 H 0.729 5.58782 3.83104 0
M  V30 17 H 1.672 6.56266 2.65933 0
M  V30 18 H 2.08 4.83886 2.90714 0
M  V30 19 N 1.4781 -0.272755 1.55222 0
M  V30 20 C 2.4251 -1.33716 1.88119 0
M  V30 21 C 3.3951 -1.49066 0.73271 0
M  V30 22 O 4.5801 -1.63469 0.984002 0
M  V30 23 C 1.7201 -2.69238 2.15882 0
M  V30 24 C 0.8331 -2.62108 3.43399 0
M  V30 25 C -0.0319 -3.89811 3.60861 0
M  V30 26 C -0.9929 -3.77193 4.8207 0
M  V30 27 N -1.8559 -4.9673 4.96189 0
M  V30 28 H 2.9841 -1.04962 2.78903 0
M  V30 29 H 0.5211 -0.507088 1.38083 0
M  V30 30 H 2.4791 -3.48089 2.29978 0
M  V30 31 H 1.1091 -2.96194 1.28331 0
M  V30 32 H 0.1611 -1.74967 3.37773 0
M  V30 33 H 1.4731 -2.48685 4.32386 0
M  V30 34 H 0.6271 -4.77103 3.74777 0
M  V30 35 H -0.6339 -4.06102 2.7006 0
M  V30 36 H -1.6289 -2.88284 4.68159 0
M  V30 37 H -0.4039 -3.62421 5.74307 0
M  V30 38 H -2.4579 -5.13431 4.08319 0
M  V30 39 H -2.5409 -4.85839 5.79221 0
M  V30 40 H -1.2729 -5.85594 5.1449 0
M  V30 41 N 2.9562 -1.48159 -0.537278 0
M  V30 42 C 3.9032 -1.62138 -1.64256 0
M  V30 43 C 4.8732 -0.463668 -1.59497 0
M  V30 44 O 6.0582 -0.686241 -1.78032 0
M  V30 45 C 3.1982 -1.66028 -3.02537 0
M  V30 46 C 2.3112 -2.92855 -3.17585 0
M  V30 47 C 1.4462 -2.87952 -4.46382 0
M  V30 48 C 0.4852 -4.09516 -4.54932 0
M  V30 49 N -0.3778 -4.02733 -5.75109 0
M  V30 50 H 4.4622 -2.56529 -1.51647 0
M  V30 51 H 1.9992 -1.27224 -0.738414 0
M  V30 52 H 3.9572 -1.66265 -3.82638 0
M  V30 53 H 2.5872 -0.751331 -3.13934 0
M  V30 54 H 1.6392 -3.02395 -2.30784 0
M  V30 55 H 2.9512 -3.82822 -3.19764 0
M  V30 56 H 2.1052 -2.8655 -5.34765 0
M  V30 57 H 0.8442 -1.95702 -4.46712 0
M  V30 58 H -0.1508 -4.11201 -3.64957 0
M  V30 59 H 1.0742 -5.02917 -4.56346 0
M  V30 60 H -0.9798 -3.13299 -5.76351 0
M  V30 61 H -1.0628 -4.86397 -5.78752 0
M  V30 62 H 0.2052 -4.05379 -6.65799 0
M  V30 63 N 4.4343 0.785586 -1.36625 0
M  V30 64 C 5.3643 1.91259 -1.33949 0
M  V30 65 C 6.3453 1.68795 -0.210325 0
M  V30 66 O 7.5303 1.89854 -0.408561 0
M  V30 67 C 4.6603 3.28339 -1.13186 0
M  V30 68 C 3.6143 3.65335 -2.22967 0
M  V30 69 C 2.9403 5.00806 -1.87342 0
M  V30 70 C 4.2403 3.7352 -3.65075 0
M  V30 71 H 5.9343 1.93755 -2.28253 0
M  V30 72 H 3.4803 0.930788 -1.09874 0
M  V30 73 H 5.4333 4.06804 -1.09948 0
M  V30 74 H 4.1573 3.2624 -0.153332 0
M  V30 75 H 2.8163 2.89169 -2.25337 0
M  V30 76 H 2.4643 4.95233 -0.880545 0
M  V30 77 H 2.1643 5.26529 -2.60846 0
M  V30 78 H 3.6883 5.81687 -1.85667 0
M  V30 79 H 5.1023 4.42168 -3.64911 0
M  V30 80 H 3.4993 4.10731 -4.37516 0
M  V30 81 H 4.5693 2.74527 -3.99703 0
M  V30 82 N 5.9124 1.20967 1.01018 0
M  V30 83 C 6.8454 0.907578 2.09376 0
M  V30 84 C 7.8234 -0.142868 1.61971 0
M  V30 85 O 9.0074 -0.0150391 1.88494 0
M  V30 86 C 6.1344 0.361791 3.36762 0
M  V30 87 C 5.1804 1.39423 4.03068 0
M  V30 88 S 6.0134 2.96159 4.4615 0
M  V30 89 C 7.1694 2.43173 5.7673 0
M  V30 90 H 7.4024 1.82519 2.34678 0
M  V30 91 H 4.9354 1.03884 1.14225 0
M  V30 92 H 6.8934 0.0534523 4.10465 0
M  V30 93 H 5.5544 -0.53443 3.0952 0
M  V30 94 H 4.7474 0.961853 4.94737 0
M  V30 95 H 4.3494 1.65038 3.35617 0
M  V30 96 H 6.6414 1.83335 6.52223 0
M  V30 97 H 7.5844 3.33264 6.24773 0
M  V30 98 H 7.9924 1.85069 5.33301 0
M  V30 99 N 7.3905 -1.2043 1.01659 0
M  V30 100 C 8.6365 -1.90079 0.706963 0
M  V30 101 C 8.9695 -1.78648 -0.761474 0
M  V30 102 O 8.2445 -1.17069 -1.55323 0
M  V30 103 C 8.5275 -3.41469 1.14327 0
M  V30 104 C 8.3805 -3.61833 2.67201 0
M  V30 105 C 9.6995 -4.34261 0.714529 0
M  V30 106 H 6.8185 -0.690254 0.2583 0
M  V30 107 H 9.4605 -1.41826 1.26433 0
M  V30 108 H 7.6105 -3.82696 0.669056 0
M  V30 109 H 9.2825 -3.2986 3.22475 0
M  V30 110 H 7.5255 -3.05304 3.08175 0
M  V30 111 H 8.1965 -4.67955 2.92783 0
M  V30 112 H 10.6725 -4.00682 1.12221 0
M  V30 113 H 9.5485 -5.38806 1.04784 0
M  V30 114 H 9.8095 -4.40431 -0.383799 0
M  V30 115 N 8.8686 -0.792821 -1.36206 0
M  V30 116 C 10.1146 -0.36733 -1.99446 0
M  V30 117 C 10.4476 1.05917 -1.62774 0
M  V30 118 O 9.7226 1.7324 -0.88421 0
M  V30 119 C 10.0056 -0.535044 -3.56103 0
M  V30 120 C 9.8586 -2.00548 -4.02617 0
M  V30 121 C 11.1776 0.0478191 -4.40074 0
M  V30 122 H 8.2966 -0.134941 -0.724541 0
M  V30 123 H 10.9386 -0.999794 -1.61568 0
M  V30 124 H 9.0886 0.00336329 -3.885 0
M  V30 125 H 10.7606 -2.60521 -3.80692 0
M  V30 126 H 9.0036 -2.50686 -3.54032 0
M  V30 127 H 9.6746 -2.07377 -5.11565 0
M  V30 128 H 12.1506 -0.411822 -4.14057 0
M  V30 129 H 11.0266 -0.0995336 -5.4881 0
M  V30 130 H 11.2876 1.14025 -4.27142 0
M  V30 131 N 10.3467 1.47872 -0.545128 0
M  V30 132 C 11.2767 2.32661 0.197793 0
M  V30 133 C 12.2577 1.43041 0.920504 0
M  V30 134 O 13.4427 1.71912 0.90333 0
M  V30 135 C 10.5727 3.24569 1.23582 0
M  V30 136 C 9.5267 4.23333 0.630323 0
M  V30 137 C 8.8527 5.0448 1.77211 0
M  V30 138 C 10.1527 5.20704 -0.407974 0
M  V30 139 H 11.8467 2.95024 -0.510045 0
M  V30 140 H 9.3927 1.4187 -0.246731 0
M  V30 141 H 11.3457 3.8272 1.76362 0
M  V30 142 H 10.0697 2.60236 1.97344 0
M  V30 143 H 8.7287 3.6639 0.123922 0
M  V30 144 H 8.3767 4.36561 2.49847 0
M  V30 145 H 8.0767 5.71339 1.37281 0
M  V30 146 H 9.6007 5.65487 2.3034 0
M  V30 147 H 11.0147 5.7329 0.033305 0
M  V30 148 H 9.4117 5.95699 -0.725486 0
M  V30 149 H 10.4817 4.66917 -1.30828 0
M  V30 150 N 11.8248 0.280983 1.55075 0
M  V30 151 C 13.0498 -0.340154 2.04592 0
M  V30 152 C 13.4748 -1.48246 1.15779 0
M  V30 153 O 12.8328 -1.80614 0.15761 0
M  V30 154 C 12.8808 -0.793104 3.5177 0
M  V30 155 O 11.9848 -1.89981 3.66034 0
M  V30 156 H 11.3258 -0.0694289 0.66036 0
M  V30 157 H 13.8558 0.416993 2.00306 0
M  V30 158 H 13.8658 -1.08729 3.93245 0
M  V30 159 H 12.5408 0.0426163 4.15878 0
M  V30 160 H 11.1178 -1.60771 3.36463 0
M  V30 161 N 13.3029 -1.57598 0.00835791 0
M  V30 162 C 14.2329 -2.1198 -0.979113 0
M  V30 163 C 15.2139 -1.03091 -1.35301 0
M  V30 164 O 16.3989 -1.30818 -1.43528 0
M  V30 165 C 13.5289 -2.62995 -2.26828 0
M  V30 166 C 12.4829 -3.76485 -2.03576 0
M  V30 167 C 11.8089 -4.13846 -3.38579 0
M  V30 168 C 13.1089 -5.0342 -1.39161 0
M  V30 169 H 14.8029 -2.94738 -0.526281 0
M  V30 170 H 12.3489 -1.41783 -0.251704 0
M  V30 171 H 14.3019 -2.99669 -2.96271 0
M  V30 172 H 13.0259 -1.7737 -2.7424 0
M  V30 173 H 11.6849 -3.40217 -1.36557 0
M  V30 174 H 11.3329 -3.25232 -3.83709 0
M  V30 175 H 11.0329 -4.90312 -3.23834 0
M  V30 176 H 12.5569 -4.53086 -4.09323 0
M  V30 177 H 13.9709 -5.37812 -1.98573 0
M  V30 178 H 12.3679 -5.84746 -1.34878 0
M  V30 179 H 13.4379 -4.83548 -0.361868 0
M  V30 180 N 14.781 0.264519 -1.55364 0
M  V30 181 C 16.03 0.992812 -1.75574 0
M  V30 182 C 16.343 1.87142 -0.568979 0
M  V30 183 O 17.549 2.63513 -0.653682 0
M  V30 184 C 16.005 1.81519 -3.10771 0
M  V30 185 C 15.613 0.984839 -4.37041 0
M  V30 186 C 17.357 2.53727 -3.40327 0
M  V30 187 C 15.264 1.80209 -5.63275 0
M  V30 188 H 14.194 0.374412 -0.65447 0
M  V30 189 H 16.845 0.248138 -1.81815 0
M  V30 190 H 15.227 2.60115 -2.98591 0
M  V30 191 H 16.401 0.242455 -4.60162 0
M  V30 192 H 14.716 0.37691 -4.14691 0
M  V30 193 H 17.313 3.15292 -4.3185 0
M  V30 194 H 17.656 3.24447 -2.60845 0
M  V30 195 H 18.189 1.82156 -3.53644 0
M  V30 196 H 14.928 1.13896 -6.45529 0
M  V30 197 H 14.448 2.52022 -5.44284 0
M  V30 198 H 16.127 2.37364 -6.01887 0
M  V30 199 N 16.2591 1.48442 0.529413 0
M  V30 200 C 17.2221 1.62524 1.61612 0
M  V30 201 C 18.2221 0.498509 1.52877 0
M  V30 202 O 19.4121 0.76431 1.56537 0
M  V30 203 C 16.5441 1.59597 3.01233 0
M  V30 204 H 17.7371 2.59423 1.50465 0
M  V30 205 H 15.2901 1.37047 0.751514 0
M  V30 206 H 16.0251 0.641781 3.17886 0
M  V30 207 H 15.8101 2.41397 3.08982 0
M  V30 208 H 17.3001 1.72646 3.80241 0
M  V30 209 N 17.7372 -0.778329 1.37039 0
M  V30 210 C 18.7002 -1.87301 1.32102 0
M  V30 211 C 19.7002 -1.59198 0.226405 0
M  V30 212 O 20.8902 -1.67403 0.481861 0
M  V30 213 C 18.0222 -3.24309 1.05055 0
M  V30 214 H 19.2152 -1.93093 2.29467 0
M  V30 215 H 16.7682 -0.977358 1.21973 0
M  V30 216 H 17.5032 -3.24196 0.0819373 0
M  V30 217 H 17.2882 -3.46098 1.84279 0
M  V30 218 H 18.7782 -4.04382 1.04234 0
M  V30 219 N 19.2153 -1.21501 -1.00376 0
M  V30 220 C 20.1783 -0.976927 -2.07337 0
M  V30 221 C 21.1783 0.0525322 -1.60714 0
M  V30 222 O 22.3683 -0.184869 -1.73216 0
M  V30 223 C 19.5003 -0.473423 -3.37597 0
M  V30 224 H 20.6933 -1.92587 -2.29892 0
M  V30 225 H 18.2463 -1.03217 -1.17371 0
M  V30 226 H 18.9813 0.480379 -3.20722 0
M  V30 227 H 18.7663 -1.216 -3.72768 0
M  V30 228 H 20.2563 -0.32675 -4.1632 0
M  V30 229 N 20.6934 1.19889 -1.02296 0
M  V30 230 C 21.9394 1.89973 -0.726759 0
M  V30 231 C 22.2944 1.7776 0.73614 0
M  V30 232 O 21.5874 1.15523 1.52856 0
M  V30 233 C 21.7814 3.39883 -1.10518 0
M  V30 234 C 21.6104 3.66684 -2.60332 0
M  V30 235 C 20.3804 3.85045 -3.27213 0
M  V30 236 C 22.5784 3.68727 -3.58532 0
M  V30 237 N 20.5604 3.99422 -4.66192 0
M  V30 238 C 21.9314 3.88604 -4.83101 0
M  V30 239 C 23.9864 3.51722 -3.52414 0
M  V30 240 C 22.6894 3.9324 -6.02292 0
M  V30 241 C 24.7154 3.57632 -4.71013 0
M  V30 242 C 24.0774 3.77988 -5.94394 0
M  V30 243 H 20.1764 0.714551 -0.317712 0
M  V30 244 H 22.7604 1.44123 -1.30907 0
M  V30 245 H 20.9314 3.8447 -0.551142 0
M  V30 246 H 22.6634 3.97464 -0.761853 0
M  V30 247 H 19.4184 3.83689 -2.77632 0
M  V30 248 H 19.8424 4.10473 -5.38368 0
M  V30 249 H 24.4844 3.34945 -2.58015 0
M  V30 250 H 22.2024 4.08811 -6.97065 0
M  V30 251 H 25.7884 3.45773 -4.67902 0
M  V30 252 H 24.6684 3.82428 -6.8463 0
M  V30 253 N 22.1715 0.800033 1.35784 0
M  V30 254 C 23.1345 0.211565 2.28221 0
M  V30 255 C 24.1345 -0.59728 1.49296 0
M  V30 256 O 25.3245 -0.416721 1.69142 0
M  V30 257 C 22.4565 -0.705846 3.33513 0
M  V30 258 H 23.6495 1.02677 2.81776 0
M  V30 259 H 21.2025 0.570211 1.45528 0
M  V30 260 H 21.9375 -1.54498 2.85133 0
M  V30 261 H 21.7225 -0.127655 3.91892 0
M  V30 262 H 23.2125 -1.11211 4.02519 0
M  V30 263 N 23.6496 -1.47581 0.552962 0
M  V30 264 C 24.5596 -2.33743 -0.200353 0
M  V30 265 C 25.5756 -1.47928 -0.916151 0
M  V30 266 O 26.7516 -1.80865 -0.885993 0
M  V30 267 C 23.8166 -3.24536 -1.21973 0
M  V30 268 C 22.8776 -4.26238 -0.511819 0
M  V30 269 C 22.1106 -5.12693 -1.48263 0
M  V30 270 O 22.3336 -5.01525 -2.71714 0
M  V30 271 O 21.2676 -5.93375 -1.00945 0
M  V30 272 H 25.0936 -2.9945 0.506304 0
M  V30 273 H 22.6786 -1.46071 0.313622 0
M  V30 274 H 24.5606 -3.80631 -1.80827 0
M  V30 275 H 23.2356 -2.61462 -1.90839 0
M  V30 276 H 22.1426 -3.73914 0.117799 0
M  V30 277 H 23.4756 -4.92014 0.135308 0
M  V30 278 N 25.1277 -0.289203 -1.54924 0
M  V30 279 C 26.0377 0.601863 -2.26748 0
M  V30 280 C 27.0537 1.15834 -1.2984 0
M  V30 281 O 28.2297 1.18564 -1.62802 0
M  V30 282 C 25.2947 1.76299 -2.98529 0
M  V30 283 C 24.3557 1.24178 -4.10948 0
M  V30 284 C 23.5887 2.34757 -4.79296 0
M  V30 285 O 23.8117 3.54411 -4.46933 0
M  V30 286 O 22.7457 2.02115 -5.66951 0
M  V30 287 H 26.5717 0.0195879 -3.03694 0
M  V30 288 H 24.1567 -0.0560868 -1.49295 0
M  V30 289 H 26.0387 2.43973 -3.43592 0
M  V30 290 H 24.7137 2.33209 -2.24488 0
M  V30 291 H 23.6207 0.531104 -3.70311 0
M  V30 292 H 24.9537 0.718252 -4.86931 0
M  V30 293 N 26.6058 1.57591 -0.0167156 0
M  V30 294 C 27.5378 2.06343 0.997753 0
M  V30 295 C 28.5508 0.984469 1.29661 0
M  V30 296 O 29.7398 1.26093 1.26344 0
M  V30 297 C 26.8398 2.46255 2.32834 0
M  V30 298 C 26.0128 3.77083 2.21646 0
M  V30 299 C 25.0718 4.0368 3.37534 0
M  V30 300 O 24.0978 4.7411 3.14973 0
M  V30 301 N 25.2998 3.52881 4.60929 0
M  V30 302 H 28.0648 2.93997 0.581875 0
M  V30 303 H 25.6258 1.61002 0.170316 0
M  V30 304 H 27.6178 2.61149 3.09166 0
M  V30 305 H 26.1878 1.64032 2.66106 0
M  V30 306 H 25.4078 3.72106 1.30119 0
M  V30 307 H 26.6958 4.62822 2.11361 0
M  V30 308 H 26.0938 2.95878 4.82154 0
M  V30 309 H 24.6508 3.73076 5.34469 0
M  V30 310 N 28.0839 -0.256276 1.55502 0
M  V30 311 C 29.0319 -1.33694 1.90338 0
M  V30 312 C 30.0259 -1.50299 0.781441 0
M  V30 313 O 31.2319 -1.51885 0.965966 0
M  V30 314 H 27.6069 -0.447483 0.60437 0
M  V30 315 H 29.5779 -1.01574 2.8058 0
M  V30 316 C 28.3269 -2.68724 2.20642 0
M  V30 317 H 27.6499 -2.56743 3.06469 0
M  V30 318 H 29.0899 -3.43237 2.48926 0
M  V30 319 C 27.5489 -3.21101 1.01959 0
M  V30 320 O 28.0789 -4.0084 0.262762 0
M  V30 321 N 26.2849 -2.79003 0.812746 0
M  V30 322 H 25.8319 -2.14271 1.42989 0
M  V30 323 H 25.7899 -3.14393 0.0203076 0
M  V30 324 N 29.562 -1.4872 -0.521534 0
M  V30 325 C 30.509 -1.63871 -1.62527 0
M  V30 326 C 31.479 -0.480559 -1.58996 0
M  V30 327 O 32.664 -0.705085 -1.77294 0
M  V30 328 C 29.804 -1.69227 -3.00759 0
M  V30 329 C 28.917 -2.96207 -3.14461 0
M  V30 330 C 28.052 -2.92671 -4.43303 0
M  V30 331 C 27.091 -4.14318 -4.50563 0
M  V30 332 N 26.228 -4.0881 -5.70805 0
M  V30 333 H 31.068 -2.58123 -1.48918 0
M  V30 334 H 28.605 -1.28 -0.724878 0
M  V30 335 H 30.563 -1.70314 -3.80853 0
M  V30 336 H 29.193 -0.784586 -3.1312 0
M  V30 337 H 28.245 -3.04826 -2.27564 0
M  V30 338 H 29.557 -3.86192 -3.15686 0
M  V30 339 H 28.711 -2.92206 -5.31696 0
M  V30 340 H 27.45 -2.00429 -4.44612 0
M  V30 341 H 26.455 -4.15049 -3.60575 0
M  V30 342 H 27.68 -5.07729 -4.50986 0
M  V30 343 H 25.626 -3.19394 -5.72995 0
M  V30 344 H 25.543 -4.92509 -5.7356 0
M  V30 345 H 26.811 -4.12418 -6.61462 0
M  V30 346 N 31.0401 0.771051 -1.3745 0
M  V30 347 C 31.9701 1.89827 -1.3597 0
M  V30 348 C 32.9511 1.68562 -0.228216 0
M  V30 349 O 34.1361 1.8941 -0.428675 0
M  V30 350 C 31.2661 3.2712 -1.16662 0
M  V30 351 C 30.2201 3.6295 -2.2683 0
M  V30 352 C 29.5461 4.98791 -1.92644 0
M  V30 353 C 30.8461 3.69627 -3.69017 0
M  V30 354 H 32.5401 1.91323 -2.30295 0
M  V30 355 H 30.0861 0.919082 -1.10855 0
M  V30 356 H 32.0391 4.05615 -1.14256 0
M  V30 357 H 30.7631 3.26059 -0.187926 0
M  V30 358 H 29.4221 2.86763 -2.28392 0
M  V30 359 H 29.0701 4.94271 -0.933021 0
M  V30 360 H 28.7701 5.23733 -2.66416 0
M  V30 361 H 30.2941 5.79685 -1.91826 0
M  V30 362 H 31.7081 4.38273 -3.69581 0
M  V30 363 H 30.1051 4.06067 -4.41848 0
M  V30 364 H 31.1751 2.70273 -4.02592 0
M  V30 365 N 32.5182 1.22032 0.997298 0
M  V30 366 C 33.7642 1.04376 1.73878 0
M  V30 367 C 34.0972 -0.420716 1.89588 0
M  V30 368 O 33.3722 -1.31202 1.43583 0
M  V30 369 C 33.6552 1.75047 3.14691 0
M  V30 370 C 33.5082 3.29062 3.06656 0
M  V30 371 C 34.8272 1.49928 4.13775 0
M  V30 372 H 31.9462 0.380578 0.631133 0
M  V30 373 H 34.5882 1.50312 1.16217 0
M  V30 374 H 32.7382 1.35996 3.63919 0
M  V30 375 H 34.4102 3.7753 2.65083 0
M  V30 376 H 32.6532 3.58967 2.43568 0
M  V30 377 H 33.3242 3.73683 4.06282 0
M  V30 378 H 35.8002 1.83842 3.73285 0
M  V30 379 H 34.6762 2.01878 5.10428 0
M  V30 380 H 34.9372 0.430929 4.39995 0
M  V30 381 N 33.9963 -1.19345 1.0293 0
M  V30 382 C 34.9463 -2.20472 0.58104 0
M  V30 383 C 35.9303 -1.56578 -0.370442 0
M  V30 384 O 37.1223 -1.75963 -0.191344 0
M  V30 385 C 34.2513 -3.43236 -0.066306 0
M  V30 386 C 33.3373 -4.14274 0.907642 0
M  V30 387 N 33.7283 -4.61492 2.07023 0
M  V30 388 C 32.0263 -4.39966 0.731177 0
M  V30 389 C 32.7273 -5.1605 2.68454 0
M  V30 390 N 31.7033 -5.06875 1.96414 0
M  V30 391 H 35.5053 -2.54659 1.46717 0
M  V30 392 H 33.0193 -1.35423 0.896345 0
M  V30 393 H 35.0163 -4.14927 -0.405068 0
M  V30 394 H 33.6763 -3.10549 -0.948118 0
M  V30 395 H 34.6873 -4.56304 2.44963 0
M  V30 396 H 31.3643 -4.17377 -0.101507 0
M  V30 397 H 32.7543 -5.6287 3.66915 0
M  V30 398 N 35.4744 -0.807222 -1.35358 0
M  V30 399 C 36.7224 -0.387122 -1.98358 0
M  V30 400 C 37.0434 1.04942 -1.64354 0
M  V30 401 O 36.3134 1.72615 -0.926339 0
M  V30 402 H 34.8934 -0.140154 -0.733734 0
M  V30 403 H 37.5554 -1.0332 -1.6526 0
M  V30 404 H 36.6514 -0.493352 -3.08176 0
M  V30 405 N 36.9525 1.47285 -0.560781 0
M  V30 406 C 38.2005 2.02064 -0.0379868 0
M  V30 407 C 38.5215 1.43711 1.31803 0
M  V30 408 O 37.7915 0.61362 1.86042 0
M  V30 409 H 36.3715 0.746918 -0.0110531 0
M  V30 410 H 39.0335 1.80648 -0.731598 0
M  V30 411 H 38.1295 3.12064 0.0474463 0
M  V30 412 N 38.4306 0.297415 1.54768 0
M  V30 413 C 39.8416 -0.195947 1.85669 0
M  V30 414 C 40.1926 -1.53707 1.21937 0
M  V30 415 O 39.3176 -2.10164 0.515754 0
M  V30 416 C 39.9126 -0.362318 3.36857 0
M  V30 417 C 38.4716 -0.799901 3.67802 0
M  V30 418 C 37.6186 0.0938578 2.77141 0
M  V30 419 H 40.5696 0.518538 1.4999 0
M  V30 420 H 40.5906 -1.19745 3.61167 0
M  V30 421 H 40.1026 0.613921 3.83214 0
M  V30 422 H 38.2036 -1.78682 3.26961 0
M  V30 423 H 38.3166 -0.621773 4.75048 0
M  V30 424 H 36.6806 -0.426254 2.51108 0
M  V30 425 H 37.4636 1.06639 3.26318 0
M  V30 426 N 39.9087 -1.5758 0.0250728 0
M  V30 427 C 41.1487 -1.93497 -0.65865 0
M  V30 428 C 41.5127 -0.901409 -1.69525 0
M  V30 429 O 42.7137 -1.14664 -2.43116 0
M  V30 430 C 40.9847 -3.34352 -1.26267 0
M  V30 431 S 42.5437 -3.92191 -1.96803 0
M  V30 432 H 39.3617 -0.67709 -0.216958 0
M  V30 433 H 41.9637 -1.95303 0.0877692 0
M  V30 434 H 40.6677 -4.07395 -0.495741 0
M  V30 435 H 40.1987 -3.3598 -2.04648 0
M  V30 436 H 42.2137 -3.75298 -3.24601 0
M  V30 437 N 41.3868 0.248026 -1.55636 0
M  V30 438 C 42.6638 0.998988 -1.68165 0
M  V30 439 C 43.0438 2.03409 -0.564621 0
M  V30 440 O 42.3918 2.24378 0.432076 0
M  V30 441 C 42.6018 1.63334 -3.0842 0
M  V30 442 C 43.9498 2.13562 -3.66983 0
M  V30 443 O 44.9738 1.73277 -3.11213 0
M  V30 444 O 43.8328 2.87526 -4.64749 0
M  V30 445 H 40.9268 0.464933 -0.683935 0
M  V30 446 H 43.4728 0.241902 -1.67967 0
M  V30 447 H 42.2448 0.884583 -3.8117 0
M  V30 448 H 41.8678 2.45666 -3.12624 0
M  V30 449 N 42.8649 1.48995 0.513639 0
M  V30 450 C 43.8119 1.6473 1.61656 0
M  V30 451 C 44.7819 0.488984 1.58739 0
M  V30 452 O 45.9669 0.714478 1.76918 0
M  V30 453 C 43.1069 1.7082 2.99858 0
M  V30 454 C 42.2199 2.9787 3.12885 0
M  V30 455 C 41.3549 2.95017 4.41744 0
M  V30 456 C 40.3939 4.16702 4.48359 0
M  V30 457 N 39.5309 4.11832 5.68629 0
M  V30 458 H 44.3709 2.58909 1.47547 0
M  V30 459 H 41.9079 1.28382 0.71808 0
M  V30 460 H 43.8659 1.72331 3.79944 0
M  V30 461 H 42.4959 0.801181 3.12699 0
M  V30 462 H 41.5479 3.06029 2.25944 0
M  V30 463 H 42.8599 3.8786 3.13633 0
M  V30 464 H 42.0139 2.95021 5.30139 0
M  V30 465 H 40.7529 2.02784 4.43542 0
M  V30 466 H 39.7579 4.16955 3.58369 0
M  V30 467 H 40.9829 5.10113 4.48287 0
M  V30 468 H 38.9289 3.22428 5.71293 0
M  V30 469 H 38.8459 4.95543 5.7094 0
M  V30 470 H 40.1139 4.1592 6.59266 0
M  V30 471 N 44.343 -0.763751 1.37857 0
M  V30 472 C 45.571 -1.55293 1.36718 0
M  V30 473 C 45.986 -1.88745 -0.0455434 0
M  V30 474 O 45.343 -1.52039 -1.00947 0
M  V30 475 C 45.394 -2.85831 2.2132 0
M  V30 476 O 45.115 -2.5381 3.57089 0
M  V30 477 C 46.616 -3.80023 2.28249 0
M  V30 478 H 43.836 -0.480841 0.468009 0
M  V30 479 H 46.38 -0.946009 1.81303 0
M  V30 480 H 44.535 -3.42926 1.80223 0
M  V30 481 H 44.949 -3.37459 4.01524 0
M  V30 482 H 46.423 -4.68599 2.91752 0
M  V30 483 H 46.9 -4.1973 1.2932 0
M  V30 484 H 47.506 -3.28855 2.69693 0
M  V30 485 N 45.8211 -1.22559 -0.990812 0
M  V30 486 C 47.0461 -1.07862 -1.77145 0
M  V30 487 C 47.4711 0.366447 -1.84496 0
M  V30 488 O 46.8291 1.26478 -1.29896 0
M  V30 489 C 46.8771 -1.69686 -3.18181 0
M  V30 490 O 45.9811 -0.951946 -4.01263 0
M  V30 491 H 45.3221 -0.378712 -0.545411 0
M  V30 492 H 47.8521 -1.62399 -1.2445 0
M  V30 493 H 47.8621 -1.74496 -3.68802 0
M  V30 494 H 46.5371 -2.74841 -3.12146 0
M  V30 495 H 45.1141 -0.980011 -3.59792 0
M  V30 496 N 47.2992 1.18797 -1.03562 0
M  V30 497 C 48.2492 2.20161 -0.592724 0
M  V30 498 C 49.2332 1.56772 0.362133 0
M  V30 499 O 50.4252 1.76062 0.182009 0
M  V30 500 C 47.5542 3.43266 0.0481024 0
M  V30 501 C 46.6402 4.13786 -0.9296 0
M  V30 502 N 47.0312 4.60388 -2.09467 0
M  V30 503 C 45.3292 4.39572 -0.754499 0
M  V30 504 C 46.0302 5.14619 -2.71187 0
M  V30 505 N 45.0062 5.05826 -1.991 0
M  V30 506 H 48.8082 2.53877 -1.48066 0
M  V30 507 H 46.3222 1.34946 -0.903514 0
M  V30 508 H 48.3192 4.15136 0.383058 0
M  V30 509 H 46.9792 3.11048 0.931636 0
M  V30 510 H 47.9902 4.54999 -2.47379 0
M  V30 511 H 44.6672 4.17425 0.0793713 0
M  V30 512 H 46.0572 5.60917 -3.69895 0
M  V30 513 N 48.7773 0.814389 1.34928 0
M  V30 514 C 50.1883 0.458364 1.80986 0
M  V30 515 C 50.5393 -1.02042 1.67577 0
M  V30 516 O 49.6643 -1.79352 1.21086 0
M  V30 517 C 50.2593 0.825212 3.28597 0
M  V30 518 C 48.8183 0.521677 3.72767 0
M  V30 519 C 47.9653 1.04668 2.56788 0
M  V30 520 H 50.9163 1.00533 1.22795 0
M  V30 521 H 50.9373 0.12571 3.80292 0
M  V30 522 H 50.4493 1.90154 3.38324 0
M  V30 523 H 48.5503 -0.545589 3.68584 0
M  V30 524 H 48.6633 1.05977 4.67232 0
M  V30 525 H 47.0273 0.468622 2.50352 0
M  V30 526 H 47.8103 2.12927 2.6929 0
M  V30 527 N 50.2554 -1.46986 0.568584 0
M  V30 528 C 51.4854 -2.0653 0.0539173 0
M  V30 529 C 51.8934 -1.42004 -1.25026 0
M  V30 530 O 51.2364 -0.514541 -1.76347 0
M  V30 531 C 51.2984 -3.58938 -0.200854 0
M  V30 532 C 50.9624 -4.45572 1.01559 0
M  V30 533 C 51.9594 -4.82986 1.92407 0
M  V30 534 C 49.6444 -4.8692 1.23346 0
M  V30 535 C 51.6384 -5.60559 3.03402 0
M  V30 536 C 49.3254 -5.64255 2.34649 0
M  V30 537 C 50.3234 -6.00986 3.24507 0
M  V30 538 O 50.0114 -6.76761 4.33878 0
M  V30 539 H 49.7434 -0.674292 0.0480234 0
M  V30 540 H 52.2974 -1.89812 0.784896 0
M  V30 541 H 50.5274 -3.73911 -0.986279 0
M  V30 542 H 52.2164 -4.0046 -0.662294 0
M  V30 543 H 52.9824 -4.51633 1.76785 0
M  V30 544 H 48.8614 -4.57789 0.543178 0
M  V30 545 H 52.4054 -5.89147 3.73565 0
M  V30 546 H 48.3024 -5.95021 2.5024 0
M  V30 547 H 49.0704 -6.95168 4.32068 0
M  V30 548 N 51.7335 -0.305618 -1.54608 0
M  V30 549 C 52.6655 0.602161 -2.21149 0
M  V30 550 C 53.6785 1.09394 -1.20569 0
M  V30 551 O 54.8675 1.0106 -1.47136 0
M  V30 552 C 51.9675 1.83692 -2.84799 0
M  V30 553 C 51.1405 1.48686 -4.11353 0
M  V30 554 C 50.1995 2.57725 -4.58764 0
M  V30 555 O 49.2255 2.22623 -5.23858 0
M  V30 556 N 50.4275 3.88346 -4.31471 0
M  V30 557 H 53.1925 0.0324966 -2.99682 0
M  V30 558 H 50.7535 -0.128021 -1.61393 0
M  V30 559 H 52.7455 2.55994 -3.13448 0
M  V30 560 H 51.3155 2.31486 -2.10078 0
M  V30 561 H 50.5355 0.596269 -3.89664 0
M  V30 562 H 51.8235 1.22842 -4.93748 0
M  V30 563 H 51.2215 4.19671 -3.79331 0
M  V30 564 H 49.7785 4.56932 -4.64818 0
M  V30 565 N 53.2116 1.57565 -0.0334293 0
M  V30 566 C 54.1746 2.09393 0.932048 0
M  V30 567 C 55.1746 1.00986 1.25134 0
M  V30 568 O 56.3646 1.27129 1.19096 0
M  V30 569 C 53.4966 2.56338 2.2473 0
M  V30 570 H 54.6896 2.95984 0.483085 0
M  V30 571 H 52.2426 1.54819 0.21468 0
M  V30 572 H 52.9776 1.7309 2.74245 0
M  V30 573 H 52.7626 3.35542 2.02865 0
M  V30 574 H 54.2526 2.96646 2.93923 0
M  V30 575 N 54.6897 -0.239769 1.55765 0
M  V30 576 C 55.6527 -1.28038 1.90103 0
M  V30 577 C 56.6527 -1.40723 0.778055 0
M  V30 578 O 57.8427 -1.39301 1.04599 0
M  V30 579 C 54.9747 -2.65702 2.13577 0
M  V30 580 H 56.1677 -0.988048 2.83157 0
M  V30 581 H 53.7207 -0.479382 1.48767 0
M  V30 582 H 54.4557 -3.00063 1.23015 0
M  V30 583 H 54.2407 -2.57875 2.95369 0
M  V30 584 H 55.7307 -3.40828 2.41301 0
M  V30 585 N 56.1678 -1.49265 -0.50573 0
M  V30 586 C 57.0978 -1.68495 -1.61653 0
M  V30 587 C 58.0788 -0.53366 -1.61512 0
M  V30 588 O 59.2638 -0.76897 -1.78327 0
M  V30 589 C 56.3938 -1.74709 -3.00157 0
M  V30 590 C 55.3478 -2.89581 -3.15162 0
M  V30 591 C 54.6738 -2.80903 -4.5497 0
M  V30 592 C 55.9738 -4.30578 -2.95634 0
M  V30 593 H 57.6678 -2.61493 -1.45814 0
M  V30 594 H 55.2138 -1.25838 -0.70005 0
M  V30 595 H 57.1668 -1.86748 -3.77761 0
M  V30 596 H 55.8908 -0.783067 -3.17074 0
M  V30 597 H 54.5498 -2.77136 -2.39982 0
M  V30 598 H 54.1978 -1.82419 -4.68756 0
M  V30 599 H 53.8978 -3.57999 -4.65951 0
M  V30 600 H 55.4218 -2.94944 -5.34641 0
M  V30 601 H 56.8358 -4.4373 -3.63011 0
M  V30 602 H 55.2328 -5.0886 -3.18091 0
M  V30 603 H 56.3028 -4.45352 -1.91806 0
M  V30 604 N 57.6459 0.756429 -1.3826 0
M  V30 605 C 58.8759 1.54341 -1.3734 0
M  V30 606 C 59.2839 1.89159 0.0393917 0
M  V30 607 O 58.6269 1.5307 1.01565 0
M  V30 608 C 58.6889 2.87238 -2.16182 0
M  V30 609 C 58.3529 2.74973 -3.65019 0
M  V30 610 C 59.3499 2.44962 -4.58574 0
M  V30 611 C 57.0349 2.92515 -4.08338 0
M  V30 612 C 59.0289 2.32642 -5.93428 0
M  V30 613 C 56.7159 2.79815 -5.43274 0
M  V30 614 C 57.7139 2.49921 -6.35632 0
M  V30 615 O 57.4019 2.37275 -7.68086 0
M  V30 616 H 57.1339 0.484281 -0.471643 0
M  V30 617 H 59.6879 0.944152 -1.82414 0
M  V30 618 H 57.9179 3.49342 -1.65822 0
M  V30 619 H 59.6069 3.48731 -2.07705 0
M  V30 620 H 60.3729 2.31081 -4.26412 0
M  V30 621 H 56.2519 3.14781 -3.368 0
M  V30 622 H 59.7959 2.0923 -6.65484 0
M  V30 623 H 55.6929 2.93269 -5.75034 0
M  V30 624 H 56.4609 2.52509 -7.78577 0
M  V30 625 N 59.124 1.23083 0.984299 0
M  V30 626 C 60.352 1.08714 1.76037 0
M  V30 627 C 60.767 -0.361691 1.85303 0
M  V30 628 O 60.124 -1.25034 1.32939 0
M  V30 629 C 60.175 1.70206 3.18923 0
M  V30 630 O 59.896 3.09423 3.10144 0
M  V30 631 C 61.397 1.61227 4.12941 0
M  V30 632 H 58.617 0.380664 0.552572 0
M  V30 633 H 61.161 1.62853 1.23689 0
M  V30 634 H 59.316 1.20109 3.6831 0
M  V30 635 H 59.73 3.39188 4.00065 0
M  V30 636 H 61.204 2.08962 5.10919 0
M  V30 637 H 61.681 0.570375 4.35481 0
M  V30 638 H 62.287 2.10671 3.69456 0
M  V30 639 N 60.6021 -1.18246 1.0419 0
M  V30 640 C 61.8271 -1.92736 0.765996 0
M  V30 641 C 62.2521 -1.75728 -0.67091 0
M  V30 642 O 61.6101 -1.06825 -1.46486 0
M  V30 643 C 61.6581 -3.42148 1.13875 0
M  V30 644 O 60.7621 -4.11548 0.264954 0
M  V30 645 H 60.1031 -0.601238 0.281797 0
M  V30 646 H 62.6331 -1.49942 1.39207 0
M  V30 647 H 62.6431 -3.92858 1.1012 0
M  V30 648 H 61.3181 -3.53848 2.18551 0
M  V30 649 H 59.8951 -3.71137 0.362226 0
M  V30 650 N 62.0802 -0.821533 -1.34494 0
M  V30 651 C 63.3282 -0.408139 -1.97936 0
M  V30 652 C 63.6492 1.03193 -1.65457 0
M  V30 653 O 62.9192 1.71622 -0.944595 0
M  V30 654 H 61.4992 -0.147928 -0.732206 0
M  V30 655 H 64.1612 -1.05067 -1.64155 0
M  V30 656 H 63.2572 -0.52601 -3.07635 0
M  V30 657 N 63.5583 1.46682 -0.576371 0
M  V30 658 C 64.5083 2.27278 0.181288 0
M  V30 659 C 65.4923 1.35497 0.867721 0
M  V30 660 O 66.6843 1.59717 0.762863 0
M  V30 661 C 63.8133 3.21703 1.19841 0
M  V30 662 C 62.8993 4.20969 0.51442 0
M  V30 663 N 63.2903 5.03999 -0.426407 0
M  V30 664 C 61.5883 4.39373 0.765963 0
M  V30 665 C 62.2893 5.75812 -0.825565 0
M  V30 666 N 61.2653 5.43315 -0.176116 0
M  V30 667 H 65.0673 2.88863 -0.541785 0
M  V30 668 H 62.5813 1.57455 -0.397697 0
M  V30 669 H 64.5783 3.78145 1.75533 0
M  V30 670 H 63.2383 2.61677 1.92238 0
M  V30 671 H 64.2493 5.11659 -0.8016 0
M  V30 672 H 60.9263 3.90502 1.47698 0
M  V30 673 H 62.3163 6.52577 -1.59976 0
M  V30 674 N 65.0364 0.313813 1.54444 0
M  V30 675 C 65.9664 -0.549454 2.26943 0
M  V30 676 C 66.9474 -1.12741 1.27372 0
M  V30 677 O 68.1324 -1.15436 1.56167 0
M  V30 678 C 65.2624 -1.71523 3.01989 0
M  V30 679 C 64.2164 -1.26703 4.08816 0
M  V30 680 C 63.5424 -2.51898 4.71647 0
M  V30 681 C 64.8424 -0.388962 5.2085 0
M  V30 682 H 66.5364 0.0552661 2.99349 0
M  V30 683 H 64.0824 0.0280207 1.43973 0
M  V30 684 H 66.0354 -2.32535 3.51433 0
M  V30 685 H 64.7594 -2.34639 2.27183 0
M  V30 686 H 63.4184 -0.679896 3.6024 0
M  V30 687 H 63.0664 -3.13356 3.93468 0
M  V30 688 H 62.7664 -2.22605 5.43802 0
M  V30 689 H 64.2904 -3.1369 5.23861 0
M  V30 690 H 65.7044 -0.905107 5.6611 0
M  V30 691 H 64.1014 -0.18924 5.99802 0
M  V30 692 H 65.1714 0.582699 4.81386 0
M  V30 693 N 66.5145 -1.57545 0.0417849 0
M  V30 694 C 67.4445 -2.14009 -0.933929 0
M  V30 695 C 68.4255 -1.05938 -1.33083 0
M  V30 696 O 69.6105 -1.33833 -1.40721 0
M  V30 697 C 66.7405 -2.67747 -2.21199 0
M  V30 698 C 65.6945 -3.80718 -1.95544 0
M  V30 699 C 65.0205 -4.20935 -3.29724 0
M  V30 700 C 66.3205 -5.06258 -1.28452 0
M  V30 701 H 68.0145 -2.95788 -0.463645 0
M  V30 702 H 65.5605 -1.42285 -0.221573 0
M  V30 703 H 67.5135 -3.05886 -2.89848 0
M  V30 704 H 66.2375 -1.83147 -2.70416 0
M  V30 705 H 64.8965 -3.43037 -1.2931 0
M  V30 706 H 64.5445 -3.33298 -3.76724 0
M  V30 707 H 64.2445 -4.9707 -3.13361 0
M  V30 708 H 65.7685 -4.61666 -3.9962 0
M  V30 709 H 67.1825 -5.41903 -1.8712 0
M  V30 710 H 65.5795 -5.87475 -1.22445 0
M  V30 711 H 66.6495 -4.84207 -0.259219 0
M  V30 712 N 67.9926 0.231505 -1.5589 0
M  V30 713 C 69.2326 0.964533 -1.80211 0
M  V30 714 C 69.5966 1.81926 -0.613744 0
M  V30 715 O 70.7976 2.58526 -0.736045 0
M  V30 716 C 69.0686 1.78956 -3.09369 0
M  V30 717 S 70.6276 2.57959 -3.54969 0
M  V30 718 H 67.4456 0.324173 -0.632798 0
M  V30 719 H 70.0476 0.230985 -1.94131 0
M  V30 720 H 68.7516 1.15161 -3.93911 0
M  V30 721 H 68.2826 2.56559 -2.9823 0
M  V30 722 H 70.2976 3.81309 -3.17519 0
M  V30 723 N 69.4707 1.49531 0.497807 0
M  V30 724 C 70.7187 1.58865 1.24926 0
M  V30 725 C 71.0397 0.278721 1.92998 0
M  V30 726 O 70.3097 -0.702144 1.82885 0
M  V30 727 H 68.8897 0.585343 0.464094 0
M  V30 728 H 71.5517 1.86174 0.57666 0
M  V30 729 H 70.6477 2.38633 2.01149 0
M  V30 730 N 70.9488 -0.749086 1.3866 0
M  V30 731 C 72.1968 -1.50535 1.34847 0
M  V30 732 C 72.5178 -1.94909 -0.0595016 0
M  V30 733 O 71.7878 -1.67973 -1.00806 0
M  V30 734 H 70.3678 -0.558395 0.49619 0
M  V30 735 H 73.0298 -0.890165 1.73384 0
M  V30 736 H 72.1258 -2.39413 2.00219 0
M  V30 737 N 72.4269 -1.23603 -0.977757 0
M  V30 738 C 73.6729 -1.07129 -1.72195 0
M  V30 739 C 74.0059 0.390501 -1.90233 0
M  V30 740 O 73.2809 1.28902 -1.45653 0
M  V30 741 C 73.5639 -1.80031 -3.11867 0
M  V30 742 C 73.4169 -3.33899 -3.01383 0
M  V30 743 C 74.7359 -1.56492 -4.11337 0
M  V30 744 H 71.8549 -0.390571 -0.624999 0
M  V30 745 H 74.4969 -1.52142 -1.13811 0
M  V30 746 H 72.6469 -1.41768 -3.6171 0
M  V30 747 H 74.3189 -3.81699 -2.59043 0
M  V30 748 H 72.5619 -3.62796 -2.37827 0
M  V30 749 H 73.2329 -3.801 -4.00285 0
M  V30 750 H 75.7089 -1.89757 -3.70313 0
M  V30 751 H 74.5849 -2.09973 -5.07151 0
M  V30 752 H 74.8459 -0.500874 -4.39254 0
M  V30 753 N 73.905 1.17692 -1.04816 0
M  V30 754 C 74.835 2.23777 -0.666791 0
M  V30 755 C 75.816 1.66796 0.33361 0
M  V30 756 O 77.001 1.93039 0.212042 0
M  V30 757 C 74.131 3.47281 -0.0367933 0
M  V30 758 C 73.085 4.17059 -0.961546 0
M  V30 759 C 72.411 5.34342 -0.195626 0
M  V30 760 C 73.711 4.69713 -2.28402 0
M  V30 761 H 75.405 2.55933 -1.55367 0
M  V30 762 H 72.951 1.23019 -0.748484 0
M  V30 763 H 74.904 4.20706 0.241775 0
M  V30 764 H 73.628 3.14381 0.885004 0
M  V30 765 H 72.287 3.45541 -1.22462 0
M  V30 766 H 71.935 4.97692 0.728816 0
M  V30 767 H 71.635 5.81966 -0.811775 0
M  V30 768 H 73.159 6.10553 0.0757473 0
M  V30 769 H 74.573 5.34794 -2.06563 0
M  V30 770 H 72.97 5.279 -2.8538 0
M  V30 771 H 74.04 3.86726 -2.92525 0
M  V30 772 N 75.3831 0.828654 1.34056 0
M  V30 773 C 76.6321 0.415828 1.97367 0
M  V30 774 C 76.9451 -1.02796 1.6641 0
M  V30 775 O 78.1511 -1.54497 2.23255 0
M  V30 776 C 76.6071 0.692601 3.53173 0
M  V30 777 C 76.2151 2.15038 3.93017 0
M  V30 778 C 77.9591 0.346222 4.23086 0
M  V30 779 C 75.8661 2.37174 5.41758 0
M  V30 780 H 74.7961 0.151755 0.738571 0
M  V30 781 H 77.4471 1.01581 1.52819 0
M  V30 782 H 75.8291 0.0223764 3.95994 0
M  V30 783 H 77.0031 2.86024 3.61285 0
M  V30 784 H 75.3181 2.45875 3.36057 0
M  V30 785 H 77.9151 0.48937 5.32456 0
M  V30 786 H 78.2581 -0.709842 4.10204 0
M  V30 787 H 78.7911 0.971258 3.85761 0
M  V30 788 H 75.5301 3.41308 5.59633 0
M  V30 789 H 75.0501 1.70738 5.74986 0
M  V30 790 H 76.7291 2.19818 6.08514 0
M  V30 791 N 76.8612 -1.46375 0.584142 0
M  V30 792 C 77.8112 -2.27371 -0.169232 0
M  V30 793 C 78.7952 -1.35955 -0.860523 0
M  V30 794 O 79.9872 -1.60119 -0.754382 0
M  V30 795 C 77.1162 -3.22334 -1.18134 0
M  V30 796 C 76.2022 -4.21235 -0.492088 0
M  V30 797 N 76.5932 -5.03766 0.453129 0
M  V30 798 C 74.8912 -4.39773 -0.742652 0
M  V30 799 C 75.5922 -5.75366 0.85609 0
M  V30 800 N 74.5682 -5.43214 0.204926 0
M  V30 801 H 78.3702 -2.88572 0.557097 0
M  V30 802 H 75.8842 -1.57242 0.406042 0
M  V30 803 H 77.8812 -3.79071 -1.73525 0
M  V30 804 H 76.5412 -2.62693 -1.90847 0
M  V30 805 H 77.5522 -5.11227 0.828723 0
M  V30 806 H 74.2292 -3.91279 -1.45625 0
M  V30 807 H 75.6192 -6.5172 1.63434 0
M  V30 808 N 78.3393 -0.321999 -1.54275 0
M  V30 809 C 79.7503 0.166384 -1.85957 0
M  V30 810 C 80.1013 1.51747 -1.24367 0
M  V30 811 O 79.2263 2.09317 -0.549124 0
M  V30 812 C 79.8213 0.308681 -3.37391 0
M  V30 813 C 78.3803 0.741286 -3.69028 0
M  V30 814 C 77.5273 -0.137937 -2.76957 0
M  V30 815 H 80.4783 -0.542335 -1.49146 0
M  V30 816 H 80.4993 1.13984 -3.63026 0
M  V30 817 H 80.0113 -0.674809 -3.82188 0
M  V30 818 H 78.1123 1.73458 -3.29762 0
M  V30 819 H 78.2253 0.546118 -4.75977 0
M  V30 820 H 76.5893 0.386251 -2.51754 0
M  V30 821 H 77.3723 -1.11816 -3.2458 0
M  V30 822 N 79.8174 1.5752 -0.0501392 0
M  V30 823 C 80.7474 2.14502 0.922566 0
M  V30 824 C 81.7284 1.06642 1.3252 0
M  V30 825 O 82.9134 1.34577 1.4001 0
M  V30 826 C 80.0434 2.68916 2.19776 0
M  V30 827 C 78.9974 3.8175 1.93523 0
M  V30 828 C 78.3234 4.22677 3.27487 0
M  V30 829 C 79.6234 5.06932 1.25765 0
M  V30 830 H 81.3174 2.9603 0.447952 0
M  V30 831 H 78.8634 1.42401 0.214024 0
M  V30 832 H 80.8164 3.07419 2.88222 0
M  V30 833 H 79.5404 1.84578 2.69441 0
M  V30 834 H 78.1994 3.43718 1.27489 0
M  V30 835 H 77.8474 3.35291 3.74952 0
M  V30 836 H 77.5474 4.98725 3.1072 0
M  V30 837 H 79.0714 4.63779 3.97166 0
M  V30 838 H 80.4854 5.42888 1.84244 0
M  V30 839 H 78.8824 5.88116 1.19328 0
M  V30 840 H 79.9524 4.84337 0.233536 0
M  V30 841 N 81.2955 -0.223234 1.56011 0
M  V30 842 C 82.5415 -0.944891 1.8012 0
M  V30 843 C 82.8965 -1.82039 0.622862 0
M  V30 844 O 82.1895 -1.8773 -0.383143 0
M  V30 845 C 82.3835 -1.81948 3.0762 0
M  V30 846 C 82.2125 -1.03014 4.37742 0
M  V30 847 C 80.9825 -0.72574 5.00061 0
M  V30 848 C 83.1805 -0.396256 5.12771 0
M  V30 849 N 81.1625 0.0851816 6.13841 0
M  V30 850 C 82.5335 0.278137 6.19376 0
M  V30 851 C 84.5885 -0.309117 4.9694 0
M  V30 852 C 83.2915 1.03133 7.11868 0
M  V30 853 C 85.3175 0.430607 5.8983 0
M  V30 854 C 84.6795 1.09355 6.9586 0
M  V30 855 H 80.7785 -0.326081 0.710771 0
M  V30 856 H 83.3625 -0.215914 1.93499 0
M  V30 857 H 81.5335 -2.52029 2.95527 0
M  V30 858 H 83.2655 -2.47848 3.19927 0
M  V30 859 H 80.0205 -1.04335 4.61964 0
M  V30 860 H 80.4445 0.479428 6.753 0
M  V30 861 H 85.0865 -0.807313 4.15021 0
M  V30 862 H 82.8045 1.54105 7.9327 0
M  V30 863 H 86.3905 0.499012 5.79656 0
M  V30 864 H 85.2705 1.65679 7.66499 0
M  V30 865 N 82.7736 -1.49793 -0.48987 0
M  V30 866 C 84.0196 -1.60078 -1.24511 0
M  V30 867 C 84.3526 -0.291608 -1.91998 0
M  V30 868 O 83.6276 0.705647 -1.81248 0
M  V30 869 C 83.9106 -2.76791 -2.30345 0
M  V30 870 C 83.7636 -4.17535 -1.67286 0
M  V30 871 C 85.0826 -2.89111 -3.31817 0
M  V30 872 H 82.2016 -0.582645 -0.451324 0
M  V30 873 H 84.8436 -1.82117 -0.541612 0
M  V30 874 H 82.9936 -2.5813 -2.90346 0
M  V30 875 H 84.6656 -4.4774 -1.11026 0
M  V30 876 H 82.9086 -4.22665 -0.976577 0
M  V30 877 H 83.5796 -4.95094 -2.44103 0
M  V30 878 H 86.0556 -3.06133 -2.81819 0
M  V30 879 H 84.9316 -3.72433 -4.03219 0
M  V30 880 H 85.1926 -1.9893 -3.94815 0
M  V30 881 N 84.2517 0.741722 -1.39055 0
M  V30 882 C 85.1817 1.869 -1.39966 0
M  V30 883 C 86.1627 1.6804 -0.26392 0
M  V30 884 O 87.3477 1.88458 -0.468755 0
M  V30 885 C 84.4777 3.24572 -1.23574 0
M  V30 886 C 83.4317 3.58056 -2.34477 0
M  V30 887 C 82.7577 4.94593 -2.0318 0
M  V30 888 C 84.0577 3.61716 -3.76774 0
M  V30 889 H 85.7517 1.86395 -2.34302 0
M  V30 890 H 83.2977 0.895361 -1.1278 0
M  V30 891 H 85.2507 4.031 -1.22834 0
M  V30 892 H 83.9747 3.25587 -0.257045 0
M  V30 893 H 82.6337 2.81854 -2.34423 0
M  V30 894 H 82.2817 4.92181 -1.03765 0
M  V30 895 H 81.9817 5.17964 -2.77465 0
M  V30 896 H 83.5057 5.75486 -2.04079 0
M  V30 897 H 84.9197 4.30335 -3.78794 0
M  V30 898 H 83.3167 3.96603 -4.50362 0
M  V30 899 H 84.3867 2.61672 -4.08235 0
M  V30 900 N 85.7298 1.2412 0.971189 0
M  V30 901 C 86.9578 1.10575 1.74874 0
M  V30 902 C 87.3728 -0.342017 1.85676 0
M  V30 903 O 86.7298 -1.23617 1.34258 0
M  V30 904 C 86.7808 1.73579 3.171 0
M  V30 905 O 86.5018 3.12695 3.06844 0
M  V30 906 C 88.0028 1.65598 4.11208 0
M  V30 907 H 85.2228 0.386504 0.548503 0
M  V30 908 H 87.7668 1.64156 1.21955 0
M  V30 909 H 85.9218 1.24009 3.67016 0
M  V30 910 H 86.3358 3.43412 3.96445 0
M  V30 911 H 87.8098 2.1437 5.08674 0
M  V30 912 H 88.2868 0.616532 4.34851 0
M  V30 913 H 88.8928 2.14578 3.67201 0
M  V30 914 N 87.2079 -1.17134 1.05439 0
M  V30 915 C 88.1709 -2.19439 0.661764 0
M  V30 916 C 89.1709 -1.58199 -0.288042 0
M  V30 917 O 90.3609 -1.74053 -0.0715803 0
M  V30 918 C 87.4929 -3.40889 -0.0276209 0
M  V30 919 H 88.6859 -2.55688 1.56728 0
M  V30 920 H 86.2389 -1.31259 0.848567 0
M  V30 921 H 86.9739 -3.10187 -0.94629 0
M  V30 922 H 86.7589 -3.86586 0.655238 0
M  V30 923 H 88.2489 -4.16603 -0.288342 0
M  V30 924 N 88.686 -0.835752 -1.33615 0
M  V30 925 C 89.649 -0.272 -2.2758 0
M  V30 926 C 90.649 0.557487 -1.50827 0
M  V30 927 O 91.839 0.37173 -1.70188 0
M  V30 928 C 88.971 0.617173 -3.35267 0
M  V30 929 H 90.164 -1.10111 -2.78954 0
M  V30 930 H 87.717 -0.608594 -1.43965 0
M  V30 931 H 88.452 1.46884 -2.89129 0
M  V30 932 H 88.237 0.0237066 -3.92093 0
M  V30 933 H 89.727 1.005 -4.05326 0
M  V30 934 N 90.1641 1.46063 -0.591896 0
M  V30 935 C 91.1141 2.27458 0.157172 0
M  V30 936 C 92.0981 1.3641 0.853301 0
M  V30 937 O 93.2901 1.60517 0.74588 0
M  V30 938 C 90.4191 3.22956 1.16423 0
M  V30 939 C 89.5051 4.2149 0.469742 0
M  V30 940 N 89.8961 5.03519 -0.479839 0
M  V30 941 C 88.1941 4.40161 0.719319 0
M  V30 942 C 88.8951 5.74904 -0.886591 0
M  V30 943 N 87.8711 5.43097 -0.233731 0
M  V30 944 H 91.6731 2.88272 -0.572392 0
M  V30 945 H 89.1871 1.57024 -0.414375 0
M  V30 946 H 91.1841 3.79986 1.71513 0
M  V30 947 H 89.8441 2.63701 1.89451 0
M  V30 948 H 90.8551 5.1078 -0.855823 0
M  V30 949 H 87.5321 3.92046 1.43548 0
M  V30 950 H 88.9221 6.50844 -1.66888 0
M  V30 951 N 91.6422 0.330177 1.54103 0
M  V30 952 C 92.8822 -0.270916 2.02597 0
M  V30 953 C 93.2462 -1.48826 1.21304 0
M  V30 954 O 94.4472 -2.16266 1.59633 0
M  V30 955 C 92.7182 -0.590328 3.52491 0
M  V30 956 S 94.2772 -1.17014 4.2291 0
M  V30 957 H 91.0952 -0.0815379 0.706309 0
M  V30 958 H 93.6972 0.464835 1.89893 0
M  V30 959 H 92.4012 0.303691 4.09275 0
M  V30 960 H 91.9322 -1.3561 3.69288 0
M  V30 961 H 93.9472 -2.45662 4.3112 0
M  V30 962 N 93.1203 -1.57491 0.0584922 0
M  V30 963 C 94.0673 -2.11958 -0.913376 0
M  V30 964 C 95.0373 -1.02875 -1.30407 0
M  V30 965 O 96.2223 -1.30464 -1.39226 0
M  V30 966 C 93.3623 -2.67497 -2.18035 0
M  V30 967 C 92.4753 -3.90691 -1.84349 0
M  V30 968 C 91.6103 -4.3452 -3.05559 0
M  V30 969 C 90.6493 -5.50395 -2.67827 0
M  V30 970 N 89.7863 -5.89244 -3.81754 0
M  V30 971 H 94.6263 -2.94704 -0.442017 0
M  V30 972 H 92.1633 -1.45643 -0.206545 0
M  V30 973 H 94.1213 -2.978 -2.92183 0
M  V30 974 H 92.7513 -1.87537 -2.62735 0
M  V30 975 H 91.8033 -3.66934 -1.00319 0
M  V30 976 H 93.1153 -4.7489 -1.5258 0
M  V30 977 H 92.2693 -4.66414 -3.87998 0
M  V30 978 H 91.0083 -3.49147 -3.40511 0
M  V30 979 H 90.0133 -5.18165 -1.83806 0
M  V30 980 H 91.2383 -6.3749 -2.34059 0
M  V30 981 H 89.1843 -5.06823 -4.16493 0
M  V30 982 H 89.1013 -6.68151 -3.53708 0
M  V30 983 H 90.3693 -6.25756 -4.64811 0
M  V30 984 N 94.5984 0.214957 -1.56127 0
M  V30 985 C 95.5454 1.26642 -1.92952 0
M  V30 986 C 96.5154 1.46244 -0.78753 0
M  V30 987 O 97.7004 1.59704 -1.04399 0
M  V30 988 C 94.8404 2.6104 -2.25726 0
M  V30 989 C 93.9534 2.49183 -3.52891 0
M  V30 990 C 93.0884 3.76149 -3.7508 0
M  V30 991 C 92.1274 3.59041 -4.95738 0
M  V30 992 N 91.2644 4.77972 -5.14283 0
M  V30 993 H 96.1044 0.945384 -2.82607 0
M  V30 994 H 93.6414 0.455489 -1.3987 0
M  V30 995 H 95.5994 3.39313 -2.42739 0
M  V30 996 H 94.2294 2.91227 -1.39236 0
M  V30 997 H 93.2814 1.6231 -3.44034 0
M  V30 998 H 94.5934 2.32466 -4.41318 0
M  V30 999 H 93.7474 4.62865 -3.92226 0
M  V30 1000 H 92.4864 3.95799 -2.84947 0
M  V30 1001 H 91.4914 2.7071 -4.78535 0
M  V30 1002 H 92.7164 3.40856 -5.87362 0
M  V30 1003 H 90.6624 4.97923 -4.27093 0
M  V30 1004 H 90.5794 4.64006 -5.96853 0
M  V30 1005 H 91.8474 5.66096 -5.35869 0
M  V30 1006 N 96.0765 1.50051 0.48192 0
M  V30 1007 C 97.4875 1.5348 1.06305 0
M  V30 1008 C 97.8385 0.331997 1.93371 0
M  V30 1009 O 96.9635 -0.556256 2.09129 0
M  V30 1010 C 97.5585 2.7813 1.93466 0
M  V30 1011 C 96.1175 2.84275 2.46707 0
M  V30 1012 C 95.2645 2.47637 1.24785 0
M  V30 1013 H 98.2155 1.56472 0.264995 0
M  V30 1014 H 98.2365 2.59372 2.78399 0
M  V30 1015 H 97.7485 3.65654 1.30072 0
M  V30 1016 H 95.8495 2.01077 3.13686 0
M  V30 1017 H 95.9625 3.8691 2.82555 0
M  V30 1018 H 94.3265 1.99835 1.57918 0
M  V30 1019 H 95.1095 3.37457 0.630694 0
M  V30 1020 N 97.5546 -0.734337 1.39446 0
M  V30 1021 C 98.5026 -1.86971 1.38364 0
M  V30 1022 C 99.4966 -1.67288 0.266687 0
M  V30 1023 O 100.703 -1.74621 0.436755 0
M  V30 1024 H 97.0776 -0.615474 0.432082 0
M  V30 1025 H 99.0486 -1.85 2.34132 0
M  V30 1026 C 97.7976 -3.2466 1.24465 0
M  V30 1027 H 97.1206 -3.40402 2.09682 0
M  V30 1028 H 98.5606 -4.04292 1.27764 0
M  V30 1029 C 97.0196 -3.36867 -0.0468674 0
M  V30 1030 O 97.5496 -3.88618 -1.01681 0
M  V30 1031 N 95.7556 -2.90391 -0.110145 0
M  V30 1032 H 95.3026 -2.48466 0.679868 0
M  V30 1033 H 95.2606 -2.98939 -0.973799 0
M  V30 1034 N 99.0327 -1.24633 -0.964593 0
M  V30 1035 C 99.9627 -1.06611 -2.07741 0
M  V30 1036 C 100.944 0.0218666 -1.70086 0
M  V30 1037 O 102.129 -0.145793 -1.93652 0
M  V30 1038 C 99.2587 -0.673444 -3.40708 0
M  V30 1039 C 98.2127 -1.71054 -3.92332 0
M  V30 1040 C 97.5387 -1.17285 -5.21678 0
M  V30 1041 C 98.8387 -3.10718 -4.19824 0
M  V30 1042 H 100.533 -1.99693 -2.23076 0
M  V30 1043 H 98.0787 -0.96152 -1.07195 0
M  V30 1044 H 100.032 -0.534345 -4.17998 0
M  V30 1045 H 98.7557 0.293073 -3.25282 0
M  V30 1046 H 97.4147 -1.83791 -3.17201 0
M  V30 1047 H 97.0627 -0.196847 -5.02615 0
M  V30 1048 H 96.7627 -1.86592 -5.57187 0
M  V30 1049 H 98.2867 -1.04593 -6.01575 0
M  V30 1050 H 99.7007 -3.01192 -4.87808 0
M  V30 1051 H 98.0977 -3.77406 -4.66567 0
M  V30 1052 H 99.1677 -3.58524 -3.26479 0
M  V30 1053 N 100.511 1.16574 -1.06058 0
M  V30 1054 C 101.443 2.2045 -0.627239 0
M  V30 1055 C 102.456 1.59752 0.313534 0
M  V30 1056 O 103.645 1.78192 0.104896 0
M  V30 1057 C 100.745 3.3875 0.100974 0
M  V30 1058 C 99.9178 4.29008 -0.852687 0
M  V30 1059 C 98.9768 5.25944 -0.164152 0
M  V30 1060 O 98.0028 5.63535 -0.801047 0
M  V30 1061 N 99.2048 5.70075 1.09518 0
M  V30 1062 H 101.97 2.58249 -1.52077 0
M  V30 1063 H 99.5308 1.3156 -0.943594 0
M  V30 1064 H 101.523 4.00638 0.57194 0
M  V30 1065 H 100.093 2.99476 0.89628 0
M  V30 1066 H 99.3128 3.64419 -1.50308 0
M  V30 1067 H 100.601 4.86195 -1.49972 0
M  V30 1068 H 99.9988 5.41624 1.6328 0
M  V30 1069 H 98.5558 6.34067 1.51006 0
M  V30 1070 N 101.989 0.842826 1.3317 0
M  V30 1071 C 103.235 0.441099 1.97945 0
M  V30 1072 C 103.568 -0.998024 1.66593 0
M  V30 1073 O 102.843 -1.69839 0.947898 0
M  V30 1074 C 103.126 0.666841 3.53872 0
M  V30 1075 C 102.979 2.15352 3.94897 0
M  V30 1076 C 104.298 0.115544 4.39948 0
M  V30 1077 H 101.417 0.161739 0.719034 0
M  V30 1078 H 104.059 1.05907 1.57746 0
M  V30 1079 H 102.209 0.140828 3.88245 0
M  V30 1080 H 103.881 2.7447 3.70761 0
M  V30 1081 H 102.124 2.63653 3.44484 0
M  V30 1082 H 102.795 2.26221 5.03516 0
M  V30 1083 H 105.271 0.565213 4.12243 0
M  V30 1084 H 104.147 0.303152 5.48062 0
M  V30 1085 H 104.408 -0.980935 4.3108 0
M  V30 1086 N 103.467 -1.45747 0.599634 0
M  V30 1087 C 104.714 -2.02292 0.0917284 0
M  V30 1088 C 105.042 -1.46906 -1.27472 0
M  V30 1089 O 104.297 -0.630652 -1.8526 0
M  V30 1090 C 104.596 -3.57399 -0.00602758 0
M  V30 1091 C 104.262 -4.31902 1.29503 0
M  V30 1092 C 102.924 -4.51974 1.65144 0
M  V30 1093 C 105.276 -4.74551 2.15525 0
M  V30 1094 C 102.604 -5.11949 2.86574 0
M  V30 1095 C 104.956 -5.35868 3.36196 0
M  V30 1096 C 103.62 -5.54165 3.72099 0
M  V30 1097 H 102.89 -0.740239 0.0335658 0
M  V30 1098 H 105.537 -1.7491 0.779661 0
M  V30 1099 H 103.842 -3.84014 -0.777183 0
M  V30 1100 H 105.539 -3.98846 -0.415038 0
M  V30 1101 H 102.129 -4.16588 1.00761 0
M  V30 1102 H 106.313 -4.58784 1.8929 0
M  V30 1103 H 101.569 -5.24305 3.14507 0
M  V30 1104 H 105.743 -5.6787 4.03109 0
M  V30 1105 H 103.37 -6.00406 4.6628 0
M  V30 1106 N 104.945 -0.338344 -1.53925 0
M  V30 1107 C 105.875 0.51328 -2.27789 0
M  V30 1108 C 106.856 1.107 -1.29149 0
M  V30 1109 O 108.041 1.12937 -1.57984 0
M  V30 1110 C 105.171 1.66697 -3.04679 0
M  V30 1111 C 104.125 1.20183 -4.1078 0
M  V30 1112 C 103.451 2.44363 -4.75595 0
M  V30 1113 C 104.751 0.30605 -5.21403 0
M  V30 1114 H 106.445 -0.102883 -2.99223 0
M  V30 1115 H 103.991 -0.0509219 -1.4391 0
M  V30 1116 H 105.944 2.26915 -3.55088 0
M  V30 1117 H 104.668 2.30995 -2.30887 0
M  V30 1118 H 103.327 0.622499 -3.61276 0
M  V30 1119 H 102.975 3.07057 -3.98403 0
M  V30 1120 H 102.675 2.13925 -5.47275 0
M  V30 1121 H 104.199 3.05317 -5.28786 0
M  V30 1122 H 105.613 0.814929 -5.67478 0
M  V30 1123 H 104.01 0.0937929 -6.00027 0
M  V30 1124 H 105.08 -0.65921 -4.80398 0
M  V30 1125 N 106.423 1.57458 -0.0668435 0
M  V30 1126 C 107.671 1.92919 0.602214 0
M  V30 1127 C 107.992 0.947215 1.70449 0
M  V30 1128 O 107.262 -0.00544117 1.95899 0
M  V30 1129 H 105.842 0.71217 0.22544 0
M  V30 1130 H 108.504 1.94508 -0.123535 0
M  V30 1131 H 107.6 2.94589 1.03073 0
M  V30 1132 N 107.901 -0.206675 1.56239 0
M  V30 1133 C 108.848 -1.25617 1.93621 0
M  V30 1134 C 109.818 -1.45824 0.795274 0
M  V30 1135 O 111.003 -1.59148 1.05245 0
M  V30 1136 C 108.143 -2.59839 2.27107 0
M  V30 1137 C 107.256 -2.47308 3.54207 0
M  V30 1138 C 106.391 -3.74155 3.7707 0
M  V30 1139 C 105.43 -3.56407 4.97635 0
M  V30 1140 N 104.567 -4.75238 5.1681 0
M  V30 1141 H 109.407 -0.930383 2.83104 0
M  V30 1142 H 106.944 -0.448065 1.4011 0
M  V30 1143 H 108.902 -3.38021 2.44535 0
M  V30 1144 H 107.532 -2.90485 1.40778 0
M  V30 1145 H 106.584 -1.60483 3.4489 0
M  V30 1146 H 107.896 -2.30122 4.42544 0
M  V30 1147 H 107.05 -4.60778 3.94675 0
M  V30 1148 H 105.789 -3.94282 2.87042 0
M  V30 1149 H 104.794 -2.68168 4.79964 0
M  V30 1150 H 106.019 -3.37736 5.89161 0
M  V30 1151 H 103.965 -4.95651 4.29728 0
M  V30 1152 H 103.882 -4.60835 5.99306 0
M  V30 1153 H 105.15 -5.63246 5.38864 0
M  V30 1154 N 109.379 -1.50304 -0.473955 0
M  V30 1155 C 110.329 -1.65347 -1.56985 0
M  V30 1156 C 111.313 -0.508176 -1.52664 0
M  V30 1157 O 112.505 -0.762446 -1.59737 0
M  V30 1158 C 109.634 -1.74832 -2.95447 0
M  V30 1159 C 108.72 -2.95028 -3.04662 0
M  V30 1160 N 109.111 -4.18747 -2.83698 0
M  V30 1161 C 107.409 -2.93527 -3.35795 0
M  V30 1162 C 108.11 -4.99687 -2.97805 0
M  V30 1163 N 107.086 -4.33585 -3.2788 0
M  V30 1164 H 110.888 -2.58698 -1.39472 0
M  V30 1165 H 108.402 -1.47449 -0.680629 0
M  V30 1166 H 110.399 -1.83712 -3.7424 0
M  V30 1167 H 109.059 -0.826376 -3.14008 0
M  V30 1168 H 110.07 -4.48291 -2.59337 0
M  V30 1169 H 106.747 -2.10821 -3.60362 0
M  V30 1170 H 108.137 -6.08057 -2.85861 0
M  V30 1171 N 110.857 0.726932 -1.39834 0
M  V30 1172 C 111.805 1.86235 -1.39353 0
M  V30 1173 C 112.799 1.67144 -0.275555 0
M  V30 1174 O 114.005 1.74387 -0.44601 0
M  V30 1175 H 110.38 0.613174 -0.43534 0
M  V30 1176 H 112.351 1.83756 -2.35109 0
M  V30 1177 C 111.1 3.23995 -1.26185 0
M  V30 1178 H 110.423 3.39285 -2.11484 0
M  V30 1179 H 111.863 4.03609 -1.29907 0
M  V30 1180 C 110.322 3.36888 0.0290018 0
M  V30 1181 O 110.852 3.89152 0.99619 0
M  V30 1182 N 109.058 2.90446 0.0947437 0
M  V30 1183 H 108.605 2.48102 -0.693035 0
M  V30 1184 H 108.563 2.99451 0.957932 0
M  V30 1185 N 112.336 1.25143 0.95797 0
M  V30 1186 C 113.266 1.07711 2.07173 0
M  V30 1187 C 114.247 -0.0128462 1.70095 0
M  V30 1188 O 115.432 0.156061 1.93572 0
M  V30 1189 C 112.562 0.691503 3.40346 0
M  V30 1190 C 111.516 1.73132 3.9142 0
M  V30 1191 C 110.842 1.20049 5.21049 0
M  V30 1192 C 112.142 3.1294 4.1817 0
M  V30 1193 H 113.836 2.00873 2.22014 0
M  V30 1194 H 111.382 0.967191 1.06684 0
M  V30 1195 H 113.335 0.556505 4.17709 0
M  V30 1196 H 112.059 -0.275819 3.25433 0
M  V30 1197 H 110.718 1.8547 3.16222 0
M  V30 1198 H 110.366 0.223499 5.02503 0
M  V30 1199 H 110.066 1.89545 5.56189 0
M  V30 1200 H 111.59 1.07782 6.01012 0
M  V30 1201 H 113.004 3.03775 4.86203 0
M  V30 1202 H 111.401 3.79875 4.64559 0
M  V30 1203 H 112.471 3.6025 3.24573 0
M  V30 1204 N 113.814 -1.1601 1.06675 0
M  V30 1205 C 115.23 -1.38622 0.790948 0
M  V30 1206 C 115.43 -1.92109 -0.607965 0
M  V30 1207 O 114.486 -2.12239 -1.36787 0
M  V30 1208 C 115.799 -2.36347 1.85905 0
M  V30 1209 C 117.347 -2.50023 1.88301 0
M  V30 1210 C 117.822 -3.51033 2.94176 0
M  V30 1211 N 119.313 -3.58563 2.93235 0
M  V30 1212 C 120.048 -4.36521 3.71803 0
M  V30 1213 N 119.544 -5.17869 4.602 0
M  V30 1214 N 121.337 -4.31541 3.60178 0
M  V30 1215 H 113.488 -0.796294 1.96908 0
M  V30 1216 H 115.751 -0.412597 0.853503 0
M  V30 1217 H 115.457 -2.04147 2.86386 0
M  V30 1218 H 115.331 -3.36042 1.71334 0
M  V30 1219 H 117.718 -2.81524 0.884769 0
M  V30 1220 H 117.799 -1.5035 2.06951 0
M  V30 1221 H 117.443 -3.20268 3.94196 0
M  V30 1222 H 117.373 -4.50445 2.72776 0
M  V30 1223 H 119.864 -3.00496 2.29152 0
M  V30 1224 H 120.177 -5.74578 5.16797 0
M  V30 1225 H 118.522 -5.17199 4.64253 0
M  V30 1226 H 121.713 -3.67051 2.90502 0
M  V30 1227 H 121.886 -4.9205 4.21653 0
M  V30 1228 N 115.292 -0.849877 -1.32721 0
M  V30 1229 C 116.224 -0.248332 -2.27851 0
M  V30 1230 C 117.237 0.577218 -1.52224 0
M  V30 1231 O 118.426 0.402489 -1.73903 0
M  V30 1232 C 115.526 0.668107 -3.32249 0
M  V30 1233 C 114.699 -0.120534 -4.37234 0
M  V30 1234 C 113.758 0.720932 -5.21238 0
M  V30 1235 O 112.784 0.156166 -5.68986 0
M  V30 1236 N 113.986 2.03647 -5.43607 0
M  V30 1237 H 116.751 -1.06575 -2.80111 0
M  V30 1238 H 114.312 -0.709395 -1.45531 0
M  V30 1239 H 116.304 1.23627 -3.85355 0
M  V30 1240 H 114.874 1.38621 -2.80184 0
M  V30 1241 H 114.094 -0.870108 -3.84477 0
M  V30 1242 H 115.382 -0.662406 -5.0447 0
M  V30 1243 H 114.78 2.51871 -5.06535 0
M  V30 1244 H 113.337 2.55287 -5.99727 0
M  V30 1245 N 116.77 1.45427 -0.607355 0
M  V30 1246 C 118.186 1.57283 -0.270985 0
M  V30 1247 C 118.386 1.59875 1.22647 0
M  V30 1248 O 117.442 1.52893 2.00948 0
M  V30 1249 C 118.755 2.85566 -0.941952 0
M  V30 1250 C 120.303 2.9924 -0.917849 0
M  V30 1251 C 120.778 4.30293 -1.56882 0
M  V30 1252 N 122.269 4.37051 -1.5343 0
M  V30 1253 C 123.004 5.37123 -2.00715 0
M  V30 1254 N 122.5 6.43734 -2.56084 0
M  V30 1255 N 124.293 5.28479 -1.91484 0
M  V30 1256 H 116.444 1.41988 -1.57966 0
M  V30 1257 H 118.707 0.67885 -0.661715 0
M  V30 1258 H 118.413 2.8955 -1.99633 0
M  V30 1259 H 118.287 3.74322 -0.465096 0
M  V30 1260 H 120.674 2.94822 0.127984 0
M  V30 1261 H 120.755 2.11895 -1.43297 0
M  V30 1262 H 120.399 4.35469 -2.61398 0
M  V30 1263 H 120.329 5.16454 -1.02873 0
M  V30 1264 H 122.82 3.60615 -1.12982 0
M  V30 1265 H 123.133 7.16341 -2.89958 0
M  V30 1266 H 121.478 6.44485 -2.60122 0
M  V30 1267 H 124.669 4.44098 -1.47967 0
M  V30 1268 H 124.842 6.0632 -2.28648 0
M  V30 1269 N 118.248 0.346503 1.53744 0
M  V30 1270 C 119.158 -0.517293 2.28826 0
M  V30 1271 C 120.174 -1.10935 1.3405 0
M  V30 1272 O 121.35 -1.1244 1.6709 0
M  V30 1273 C 118.415 -1.65098 3.04866 0
M  V30 1274 C 117.476 -1.0884 4.15274 0
M  V30 1275 C 116.709 -2.16806 4.87679 0
M  V30 1276 O 116.932 -3.3758 4.59778 0
M  V30 1277 O 115.866 -1.80934 5.74061 0
M  V30 1278 H 119.692 0.0931396 3.03557 0
M  V30 1279 H 117.277 0.111458 1.48984 0
M  V30 1280 H 119.159 -2.31053 3.5241 0
M  V30 1281 H 117.834 -2.24717 2.32989 0
M  V30 1282 H 116.741 -0.3933 3.72027 0
M  V30 1283 H 118.074 -0.537036 4.89261 0
M  V30 1284 N 119.726 -1.57421 0.075193 0
M  V30 1285 C 120.951 -1.98364 -0.605515 0
M  V30 1286 C 121.376 -0.953383 -1.62149 0
M  V30 1287 O 120.734 0.0806053 -1.81121 0
M  V30 1288 C 120.782 -3.38332 -1.24756 0
M  V30 1289 O 119.886 -3.37959 -2.36342 0
M  V30 1290 H 119.227 -0.645553 -0.155428 0
M  V30 1291 H 121.757 -2.04044 0.150714 0
M  V30 1292 H 121.767 -3.75591 -1.5936 0
M  V30 1293 H 120.442 -4.12846 -0.503129 0
M  V30 1294 H 119.019 -3.12474 -2.03506 0
M  V30 1295 N 121.204 0.198386 -1.56346 0
M  V30 1296 C 122.429 0.939682 -1.84891 0
M  V30 1297 C 122.854 1.76202 -0.658369 0
M  V30 1298 O 122.212 1.76993 0.392851 0
M  V30 1299 C 122.26 1.81428 -3.11635 0
M  V30 1300 O 121.364 2.91265 -2.91956 0
M  V30 1301 H 120.705 0.264807 -0.608912 0
M  V30 1302 H 123.235 0.204695 -2.03573 0
M  V30 1303 H 123.245 2.21958 -3.42343 0
M  V30 1304 H 121.92 1.21004 -3.97908 0
M  V30 1305 H 120.497 2.54514 -2.72538 0
M  V30 1306 N 122.682 1.50554 0.465978 0
M  V30 1307 C 123.614 1.65949 1.58093 0
M  V30 1308 C 124.627 0.540827 1.53554 0
M  V30 1309 O 125.816 0.814187 1.5885 0
M  V30 1310 C 122.916 1.63261 2.96983 0
M  V30 1311 C 122.089 2.91245 3.26336 0
M  V30 1312 C 121.148 2.8113 4.44806 0
M  V30 1313 O 120.174 3.55086 4.44862 0
M  V30 1314 N 121.376 1.95032 5.46756 0
M  V30 1315 H 124.141 2.62122 1.45301 0
M  V30 1316 H 121.702 1.48082 0.65448 0
M  V30 1317 H 123.694 1.54101 3.74212 0
M  V30 1318 H 122.264 0.748032 3.03518 0
M  V30 1319 H 121.484 3.14493 2.37672 0
M  V30 1320 H 122.772 3.76022 3.42761 0
M  V30 1321 H 122.17 1.3427 5.49534 0
M  V30 1322 H 120.727 1.91772 6.2295 0
M  V30 1323 N 124.16 -0.719506 1.40217 0
M  V30 1324 C 125.07 -1.86378 1.42479 0
M  V30 1325 C 126.086 -1.71073 0.317834 0
M  V30 1326 O 127.262 -1.93406 0.561794 0
M  V30 1327 C 124.327 -3.22136 1.28178 0
M  V30 1328 C 123.388 -3.49723 2.48982 0
M  V30 1329 C 122.621 -4.79004 2.35353 0
M  V30 1330 O 122.844 -5.53821 1.36524 0
M  V30 1331 O 121.778 -5.06839 3.2465 0
M  V30 1332 H 125.604 -1.87425 2.38968 0
M  V30 1333 H 123.189 -0.869405 1.21498 0
M  V30 1334 H 125.071 -4.03234 1.22395 0
M  V30 1335 H 123.746 -3.21825 0.347934 0
M  V30 1336 H 122.653 -2.6865 2.60342 0
M  V30 1337 H 123.986 -3.54828 3.41113 0
M  V30 1338 N 125.638 -1.25649 -0.95132 0
M  V30 1339 C 126.57 -1.02112 -2.05197 0
M  V30 1340 C 127.583 0.0150571 -1.62793 0
M  V30 1341 O 128.772 -0.223874 -1.77091 0
M  V30 1342 C 125.872 -0.522361 -3.3485 0
M  V30 1343 C 125.045 -1.62546 -4.06076 0
M  V30 1344 C 124.104 -1.12649 -5.14001 0
M  V30 1345 O 123.13 -1.82156 -5.39266 0
M  V30 1346 N 124.332 0.03047 -5.80492 0
M  V30 1347 H 127.097 -1.96885 -2.25957 0
M  V30 1348 H 124.658 -1.16899 -1.1201 0
M  V30 1349 H 126.65 -0.172961 -4.0433 0
M  V30 1350 H 125.22 0.33151 -3.10837 0
M  V30 1351 H 124.44 -2.14628 -3.30649 0
M  V30 1352 H 125.728 -2.36644 -4.50419 0
M  V30 1353 H 125.126 0.611169 -5.62389 0
M  V30 1354 H 123.683 0.320875 -6.5101 0
M  V30 1355 N 127.117 1.15442 -1.07289 0
M  V30 1356 C 128.342 1.90638 -0.816828 0
M  V30 1357 C 128.767 1.77445 0.624083 0
M  V30 1358 O 128.125 1.10671 1.43602 0
M  V30 1359 C 128.173 3.39008 -1.22906 0
M  V30 1360 O 127.277 4.10701 -0.373975 0
M  V30 1361 H 126.618 0.593555 -0.297638 0
M  V30 1362 H 129.148 1.46198 -1.43134 0
M  V30 1363 H 129.158 3.89801 -1.20497 0
M  V30 1364 H 127.833 3.47929 -2.27856 0
M  V30 1365 H 126.41 3.70046 -0.460499 0
M  V30 1366 N 128.595 0.856903 1.32268 0
M  V30 1367 C 129.82 0.474569 2.01897 0
M  V30 1368 C 130.245 -0.921766 1.63967 0
M  V30 1369 O 129.603 -1.60589 0.84148 0
M  V30 1370 C 129.651 0.623799 3.55164 0
M  V30 1371 O 128.755 -0.342459 4.10976 0
M  V30 1372 H 128.096 0.190422 0.63611 0
M  V30 1373 H 130.626 1.15672 1.68764 0
M  V30 1374 H 130.636 0.512169 4.04773 0
M  V30 1375 H 129.311 1.64202 3.82113 0
M  V30 1376 H 127.888 -0.18688 3.72431 0
M  V30 1377 N 130.073 -1.45103 0.615059 0
M  V30 1378 C 131.319 -2.02483 0.113347 0
M  V30 1379 C 131.652 -1.48146 -1.25564 0
M  V30 1380 O 130.927 -0.659104 -1.82992 0
M  V30 1381 C 131.21 -3.60005 0.0825278 0
M  V30 1382 C 131.063 -4.2466 1.48271 0
M  V30 1383 C 132.382 -4.35972 -0.601401 0
M  V30 1384 H 129.501 -0.735764 0.0426632 0
M  V30 1385 H 132.143 -1.72868 0.788461 0
M  V30 1386 H 130.293 -3.85367 -0.492378 0
M  V30 1387 H 131.965 -4.10458 2.10527 0
M  V30 1388 H 130.208 -3.82772 2.04127 0
M  V30 1389 H 130.879 -5.336 1.41332 0
M  V30 1390 H 133.355 -4.15947 -0.112666 0
M  V30 1391 H 132.231 -5.45697 -0.592097 0
M  V30 1392 H 132.492 -4.09391 -1.66887 0
M  V30 1393 N 131.551 -0.354651 -1.53558 0
M  V30 1394 C 132.797 0.238797 -2.01389 0
M  V30 1395 C 133.13 1.49309 -1.2418 0
M  V30 1396 O 132.405 1.91638 -0.332457 0
M  V30 1397 C 132.688 0.541771 -3.56001 0
M  V30 1398 C 132.541 -0.725388 -4.43912 0
M  V30 1399 C 133.86 1.34685 -4.18984 0
M  V30 1400 H 130.979 0.0853177 -0.732045 0
M  V30 1401 H 133.621 -0.477384 -1.83905 0
M  V30 1402 H 131.771 1.15189 -3.71031 0
M  V30 1403 H 133.443 -1.36313 -4.407 0
M  V30 1404 H 131.686 -1.34801 -4.12324 0
M  V30 1405 H 132.357 -0.468505 -5.50008 0
M  V30 1406 H 134.833 0.830837 -4.07721 0
M  V30 1407 H 133.709 1.52759 -5.27215 0
M  V30 1408 H 133.97 2.35221 -3.74331 0
M  V30 1409 N 133.029 1.57378 -0.0835403 0
M  V30 1410 C 134.445 1.57246 0.273109 0
M  V30 1411 C 134.645 1.09385 1.69225 0
M  V30 1412 O 133.701 0.765051 2.40631 0
M  V30 1413 C 135.014 3.00614 0.0720628 0
M  V30 1414 C 136.562 3.12684 0.1407 0
M  V30 1415 C 137.037 4.57989 -0.0322094 0
M  V30 1416 N 138.528 4.63194 0.0230085 0
M  V30 1417 C 139.263 5.73335 -0.0861941 0
M  V30 1418 N 138.759 6.9235 -0.24958 0
M  V30 1419 N 140.552 5.62093 -0.0282886 0
M  V30 1420 H 132.703 1.86801 -1.0109 0
M  V30 1421 H 134.966 0.861687 -0.395222 0
M  V30 1422 H 134.672 3.39786 -0.907662 0
M  V30 1423 H 134.546 3.68193 0.81936 0
M  V30 1424 H 136.933 2.73391 1.11092 0
M  V30 1425 H 137.014 2.47719 -0.637896 0
M  V30 1426 H 136.658 4.97973 -0.999247 0
M  V30 1427 H 136.588 5.21 0.765937 0
M  V30 1428 H 139.079 3.77613 0.14722 0
M  V30 1429 H 139.392 7.72117 -0.324733 0
M  V30 1430 H 137.737 6.94415 -0.285097 0
M  V30 1431 H 140.928 4.67997 0.0981408 0
M  V30 1432 H 141.101 6.47895 -0.116845 0
M  V30 1433 N 134.507 -0.190092 1.56449 0
M  V30 1434 C 135.47 -1.21925 1.9408 0
M  V30 1435 C 136.47 -1.38176 0.822431 0
M  V30 1436 O 137.66 -1.35903 1.08977 0
M  V30 1437 C 134.792 -2.58773 2.21922 0
M  V30 1438 H 135.985 -0.897464 2.86157 0
M  V30 1439 H 133.538 -0.43181 1.50217 0
M  V30 1440 H 134.273 -2.95998 1.32499 0
M  V30 1441 H 134.058 -2.48348 3.03424 0
M  V30 1442 H 135.548 -3.32978 2.52022 0
M  V30 1443 N 135.985 -1.50799 -0.457987 0
M  V30 1444 C 137.231 -1.62683 -1.21088 0
M  V30 1445 C 137.564 -0.332268 -1.91336 0
M  V30 1446 O 136.839 0.667043 -1.82704 0
M  V30 1447 C 137.122 -2.81615 -2.24422 0
M  V30 1448 C 136.975 -4.20989 -1.58392 0
M  V30 1449 C 138.294 -2.96085 -3.2561 0
M  V30 1450 H 135.413 -0.592087 -0.438864 0
M  V30 1451 H 138.055 -1.83225 -0.50286 0
M  V30 1452 H 136.205 -2.64231 -2.84806 0
M  V30 1453 H 137.877 -4.49994 -1.01504 0
M  V30 1454 H 136.12 -4.24641 -0.886704 0
M  V30 1455 H 136.791 -5.0016 -2.33547 0
M  V30 1456 H 139.267 -3.12042 -2.75262 0
M  V30 1457 H 138.143 -3.80902 -3.95228 0
M  V30 1458 H 138.404 -2.0726 -3.90507 0
M  V30 1459 N 137.463 0.71206 -1.40597 0
M  V30 1460 C 138.712 1.46754 -1.38369 0
M  V30 1461 C 139.025 1.95598 0.0097839 0
M  V30 1462 O 140.231 2.71059 0.154677 0
M  V30 1463 C 138.687 2.65289 -2.43207 0
M  V30 1464 C 138.295 2.23301 -3.88382 0
M  V30 1465 C 140.039 3.43008 -2.50091 0
M  V30 1466 C 137.946 3.38696 -4.84808 0
M  V30 1467 H 136.876 0.55118 -0.514506 0
M  V30 1468 H 139.527 0.774616 -1.66349 0
M  V30 1469 H 137.909 3.36769 -2.08332 0
M  V30 1470 H 139.083 1.59218 -4.32419 0
M  V30 1471 H 137.398 1.58618 -3.85006 0
M  V30 1472 H 139.995 4.28881 -3.1932 0
M  V30 1473 H 140.338 3.87065 -1.53253 0
M  V30 1474 H 140.871 2.78574 -2.83974 0
M  V30 1475 H 137.61 2.99668 -5.82992 0
M  V30 1476 H 137.13 4.01683 -4.45433 0
M  V30 1477 H 138.809 4.04712 -5.04794 0
M  V30 1478 N 138.941 1.26152 0.944643 0
M  V30 1479 C 139.891 1.04081 2.02857 0
M  V30 1480 C 140.875 -0.0256555 1.6088 0
M  V30 1481 O 142.067 0.190884 1.75968 0
M  V30 1482 C 139.196 0.672118 3.36656 0
M  V30 1483 C 138.282 1.77586 3.85128 0
M  V30 1484 N 138.673 3.01272 4.06287 0
M  V30 1485 C 136.971 1.65867 4.1401 0
M  V30 1486 C 137.672 3.72983 4.46384 0
M  V30 1487 N 136.648 3.00653 4.52889 0
M  V30 1488 H 140.45 1.97968 2.17223 0
M  V30 1489 H 137.964 1.16618 1.13022 0
M  V30 1490 H 139.961 0.495166 4.13949 0
M  V30 1491 H 138.621 -0.259307 3.23663 0
M  V30 1492 H 139.632 3.37213 3.93075 0
M  V30 1493 H 136.309 0.796907 4.09824 0
M  V30 1494 H 137.699 4.792 4.70975 0
M  V30 1495 N 140.419 -1.14872 1.07899 0
M  V30 1496 C 141.83 -1.67367 0.827363 0
M  V30 1497 C 142.181 -1.85236 -0.646693 0
M  V30 1498 O 141.306 -1.55974 -1.50004 0
M  V30 1499 C 141.901 -3.04016 1.49532 0
M  V30 1500 C 140.46 -3.53566 1.29106 0
M  V30 1501 C 139.607 -2.29161 1.56143 0
M  V30 1502 H 142.558 -0.990083 1.24028 0
M  V30 1503 H 142.579 -3.69219 0.919643 0
M  V30 1504 H 142.091 -2.90978 2.56814 0
M  V30 1505 H 140.192 -3.71835 0.238713 0
M  V30 1506 H 140.305 -4.34661 2.01511 0
M  V30 1507 H 138.669 -2.34978 0.982717 0
M  V30 1508 H 139.452 -2.18705 2.64619 0
M  V30 1509 N 141.898 -0.863906 -1.31812 0
M  V30 1510 C 143.175 -0.39275 -1.91616 0
M  V30 1511 C 143.555 1.12461 -1.7865 0
M  V30 1512 O 142.903 1.95045 -1.19037 0
M  V30 1513 C 143.113 -0.867385 -3.38049 0
M  V30 1514 C 144.461 -0.889966 -4.15168 0
M  V30 1515 O 145.485 -0.812635 -3.46806 0
M  V30 1516 O 144.344 -1.00079 -5.37258 0
M  V30 1517 H 141.438 -0.116358 -0.818773 0
M  V30 1518 H 143.984 -0.951418 -1.40521 0
M  V30 1519 H 142.756 -1.91081 -3.41473 0
M  V30 1520 H 142.379 -0.286687 -3.96565 0
M  V30 1521 N 143.376 1.44774 -0.622745 0
M  V30 1522 C 144.606 2.06187 -0.130532 0
M  V30 1523 C 145.014 1.46547 1.19669 0
M  V30 1524 O 144.357 0.579636 1.74316 0
M  V30 1525 C 144.419 3.59437 0.0674983 0
M  V30 1526 C 144.083 4.41496 -1.18026 0
M  V30 1527 C 145.08 4.75512 -2.102 0
M  V30 1528 C 142.765 4.82007 -1.41333 0
M  V30 1529 C 144.759 5.48912 -3.23998 0
M  V30 1530 C 142.446 5.55157 -2.55429 0
M  V30 1531 C 143.444 5.88528 -3.46589 0
M  V30 1532 O 143.132 6.60191 -4.58697 0
M  V30 1533 H 142.864 0.672045 -0.0730162 0
M  V30 1534 H 145.418 1.86768 -0.854802 0
M  V30 1535 H 143.648 3.77314 0.846825 0
M  V30 1536 H 145.337 4.02642 0.513209 0
M  V30 1537 H 146.103 4.4476 -1.93425 0
M  V30 1538 H 141.982 4.55457 -0.712709 0
M  V30 1539 H 145.526 5.74877 -3.95174 0
M  V30 1540 H 141.423 5.85324 -2.72151 0
M  V30 1541 H 142.191 6.78654 -4.57571 0
M  V30 1542 N 144.854 0.36279 1.53368 0
M  V30 1543 C 146.131 -0.284021 1.93527 0
M  V30 1544 C 146.511 -1.66628 1.29608 0
M  V30 1545 O 145.859 -2.23942 0.45413 0
M  V30 1546 C 146.069 -0.337028 3.47369 0
M  V30 1547 C 147.417 -0.578708 4.20638 0
M  V30 1548 O 148.441 -0.418352 3.53735 0
M  V30 1549 O 147.3 -0.89074 5.39192 0
M  V30 1550 H 144.394 -0.169743 0.809393 0
M  V30 1551 H 146.94 0.41537 1.64538 0
M  V30 1552 H 145.712 0.632217 3.86159 0
M  V30 1553 H 145.335 -1.08243 3.82582 0
M  V30 1554 N 146.332 -1.57332 0.0918853 0
M  V30 1555 C 147.295 -2.12708 -0.85369 0
M  V30 1556 C 148.295 -1.05561 -1.213 0
M  V30 1557 O 149.485 -1.31461 -1.14296 0
M  V30 1558 C 146.617 -2.64503 -2.15061 0
M  V30 1559 H 147.81 -2.97573 -0.3729 0
M  V30 1560 H 145.363 -1.55509 -0.157072 0
M  V30 1561 H 146.098 -1.83149 -2.67632 0
M  V30 1562 H 145.883 -3.4284 -1.90272 0
M  V30 1563 H 147.373 -3.07351 -2.82711 0
M  V30 1564 N 147.81 0.181792 -1.56548 0
M  V30 1565 C 148.773 1.20894 -1.94724 0
M  V30 1566 C 149.773 1.37738 -0.829747 0
M  V30 1567 O 150.963 1.35323 -1.09697 0
M  V30 1568 C 148.095 2.57593 -2.23291 0
M  V30 1569 H 149.288 0.882275 -2.86629 0
M  V30 1570 H 146.841 0.423838 -1.50444 0
M  V30 1571 H 147.576 2.95291 -1.34067 0
M  V30 1572 H 147.361 2.46735 -3.04736 0
M  V30 1573 H 148.851 3.31637 -2.53785 0
M  V30 1574 N 149.288 1.51039 0.449983 0
M  V30 1575 C 150.513 1.6715 1.22783 0
M  V30 1576 C 150.938 0.363081 1.84563 0
M  V30 1577 O 150.296 -0.675433 1.68249 0
M  V30 1578 C 150.344 2.77985 2.29689 0
M  V30 1579 O 149.448 2.40707 3.34864 0
M  V30 1580 H 148.789 0.557746 0.360299 0
M  V30 1581 H 151.319 1.97535 0.533005 0
M  V30 1582 H 151.329 3.01693 2.74673 0
M  V30 1583 H 150.004 3.72935 1.84098 0
M  V30 1584 H 148.581 2.27523 2.95445 0
M  V30 1585 N 150.766 -0.704594 1.40972 0
M  V30 1586 C 151.716 -1.81051 1.38581 0
M  V30 1587 C 152.7 -1.58759 0.261585 0
M  V30 1588 O 153.892 -1.69745 0.501556 0
M  V30 1589 C 151.021 -3.19279 1.26157 0
M  V30 1590 C 150.107 -3.47296 2.43405 0
M  V30 1591 N 150.498 -3.46064 3.68881 0
M  V30 1592 C 148.796 -3.77804 2.37023 0
M  V30 1593 C 149.497 -3.72733 4.46592 0
M  V30 1594 N 148.473 -3.9203 3.76581 0
M  V30 1595 H 152.275 -1.78448 2.33525 0
M  V30 1596 H 149.789 -0.904198 1.349 0
M  V30 1597 H 151.786 -3.98488 1.22526 0
M  V30 1598 H 150.446 -3.231 0.321902 0
M  V30 1599 H 151.457 -3.26656 4.01891 0
M  V30 1600 H 148.134 -3.8905 1.51481 0
M  V30 1601 H 149.524 -3.77993 5.55492 0
M  V30 1602 N 152.244 -1.26651 -0.937939 0
M  V30 1603 C 153.521 -1.0313 -1.66204 0
M  V30 1604 C 153.901 0.437256 -2.06522 0
M  V30 1605 O 153.249 1.41831 -1.79154 0
M  V30 1606 C 153.459 -1.98314 -2.87181 0
M  V30 1607 C 154.807 -2.27107 -3.58758 0
M  V30 1608 O 155.831 -1.96205 -2.97291 0
M  V30 1609 O 154.69 -2.79736 -4.69479 0
M  V30 1610 H 151.784 -0.392384 -0.727986 0
M  V30 1611 H 154.33 -1.37874 -0.989382 0
M  V30 1612 H 153.102 -2.97399 -2.54302 0
M  V30 1613 H 152.725 -1.64068 -3.6217 0
M  V30 1614 N 153.722 1.14298 -1.08507 0
M  V30 1615 C 154.654 2.1907 -0.673859 0
M  V30 1616 C 155.667 1.60381 0.279577 0
M  V30 1617 O 156.856 1.78374 0.0670754 0
M  V30 1618 C 153.956 3.38888 0.0290979 0
M  V30 1619 C 153.129 4.27103 -0.943494 0
M  V30 1620 C 152.188 5.25477 -0.275676 0
M  V30 1621 O 151.214 5.61709 -0.920401 0
M  V30 1622 N 152.416 5.7227 0.974013 0
M  V30 1623 H 155.181 2.54965 -1.57521 0
M  V30 1624 H 152.742 1.29528 -0.971287 0
M  V30 1625 H 154.734 4.01761 0.48683 0
M  V30 1626 H 153.304 3.01309 0.832555 0
M  V30 1627 H 152.524 3.61149 -1.58004 0
M  V30 1628 H 153.812 4.82905 -1.60251 0
M  V30 1629 H 153.21 5.44965 1.51755 0
M  V30 1630 H 151.767 6.37127 1.37522 0
M  V30 1631 N 155.201 0.870884 1.31352 0
M  V30 1632 C 156.478 0.402907 1.91405 0
M  V30 1633 C 156.858 -1.11512 1.79244 0
M  V30 1634 O 156.206 -1.94411 1.2007 0
M  V30 1635 C 156.416 0.885301 3.37585 0
M  V30 1636 C 157.764 0.911971 4.14691 0
M  V30 1637 O 158.788 0.831016 3.46371 0
M  V30 1638 O 157.647 1.02927 5.3672 0
M  V30 1639 H 154.741 0.120698 0.818145 0
M  V30 1640 H 157.287 0.958857 1.40014 0
M  V30 1641 H 156.059 1.92889 3.40455 0
M  V30 1642 H 155.682 0.307714 3.96407 0
M  V30 1643 N 156.679 -1.44442 0.630414 0
M  V30 1644 C 157.928 -2.01267 0.132073 0
M  V30 1645 C 158.241 -1.50172 -1.25331 0
M  V30 1646 O 159.447 -1.9912 -1.84562 0
M  V30 1647 C 157.903 -3.59422 0.185362 0
M  V30 1648 C 157.511 -4.19514 1.57201 0
M  V30 1649 C 159.255 -4.23724 -0.256553 0
M  V30 1650 C 157.162 -5.69891 1.58045 0
M  V30 1651 H 156.092 -0.752619 0.0456092 0
M  V30 1652 H 158.743 -1.65666 0.789106 0
M  V30 1653 H 157.125 -3.92318 -0.538759 0
M  V30 1654 H 158.299 -3.98156 2.31966 0
M  V30 1655 H 156.614 -3.67496 1.95795 0
M  V30 1656 H 159.211 -5.34019 -0.269767 0
M  V30 1657 H 159.554 -3.96013 -1.28372 0
M  V30 1658 H 160.087 -3.95629 0.41505 0
M  V30 1659 H 156.826 -6.02336 2.58597 0
M  V30 1660 H 156.346 -5.93373 0.875725 0
M  V30 1661 H 158.025 -6.33515 1.31408 0
M  V30 1662 N 158.157 -0.370918 -1.53173 0
M  V30 1663 C 159.09 0.516727 -2.22273 0
M  V30 1664 C 160.068 1.07877 -1.21661 0
M  V30 1665 O 161.252 1.13389 -1.50583 0
M  V30 1666 C 158.379 1.71346 -2.92161 0
M  V30 1667 C 157.425 1.27838 -4.0689 0
M  V30 1668 S 158.258 0.275217 -5.34792 0
M  V30 1669 C 159.414 1.47816 -6.08195 0
M  V30 1670 H 159.647 -0.0701054 -2.97217 0
M  V30 1671 H 157.18 -0.155038 -1.5362 0
M  V30 1672 H 159.138 2.39988 -3.3304 0
M  V30 1673 H 157.799 2.27156 -2.16931 0
M  V30 1674 H 156.992 2.17141 -4.54825 0
M  V30 1675 H 156.594 0.671105 -3.6793 0
M  V30 1676 H 158.886 2.40831 -6.33251 0
M  V30 1677 H 159.829 1.04008 -7.0042 0
M  V30 1678 H 160.237 1.68663 -5.38714 0
M  V30 1679 N 159.635 1.57281 -0.100228 0
M  V30 1680 C 160.565 2.17328 0.853857 0
M  V30 1681 C 161.546 1.10804 1.2906 0
M  V30 1682 O 162.731 1.38963 1.35657 0
M  V30 1683 C 159.861 2.75772 2.11109 0
M  V30 1684 C 158.815 3.87713 1.81279 0
M  V30 1685 C 158.141 4.32882 3.13874 0
M  V30 1686 C 159.441 5.10677 1.09574 0
M  V30 1687 H 161.135 2.97305 0.353545 0
M  V30 1688 H 158.681 1.43009 0.168612 0
M  V30 1689 H 160.634 3.16433 2.78296 0
M  V30 1690 H 159.358 1.93057 2.63432 0
M  V30 1691 H 158.017 3.476 1.16489 0
M  V30 1692 H 157.665 3.47051 3.64095 0
M  V30 1693 H 157.365 5.08358 2.94696 0
M  V30 1694 H 158.889 4.7618 3.82211 0
M  V30 1695 H 160.303 5.48474 1.66879 0
M  V30 1696 H 158.7 5.91615 1.00557 0
M  V30 1697 H 159.77 4.84835 0.0793299 0
M  V30 1698 N 161.113 -0.173488 1.56642 0
M  V30 1699 C 162.043 -1.2171 1.99271 0
M  V30 1700 C 163.024 -1.46289 0.867959 0
M  V30 1701 O 164.209 -1.5766 1.13388 0
M  V30 1702 C 161.339 -2.55651 2.35074 0
M  V30 1703 C 160.293 -2.45645 3.50489 0
M  V30 1704 C 159.619 -3.84056 3.72028 0
M  V30 1705 C 160.919 -1.96302 4.84007 0
M  V30 1706 H 162.613 -0.86275 2.867 0
M  V30 1707 H 160.159 -0.413571 1.37933 0
M  V30 1708 H 162.112 -3.2886 2.63494 0
M  V30 1709 H 160.836 -2.92869 1.44552 0
M  V30 1710 H 159.495 -1.7489 3.22194 0
M  V30 1711 H 159.143 -4.18664 2.788 0
M  V30 1712 H 158.843 -3.7823 4.49684 0
M  V30 1713 H 160.367 -4.58854 4.02846 0
M  V30 1714 H 161.781 -2.59284 5.11317 0
M  V30 1715 H 160.178 -2.01429 5.65284 0
M  V30 1716 H 161.248 -0.917226 4.76146 0
M  V30 1717 N 162.591 -1.51276 -0.441967 0
M  V30 1718 C 164.007 -1.39349 -0.778083 0
M  V30 1719 C 164.207 -0.472212 -1.95889 0
M  V30 1720 O 163.263 0.0743551 -2.5239 0
M  V30 1721 C 164.576 -2.81292 -1.0628 0
M  V30 1722 C 166.124 -2.9041 -1.16751 0
M  V30 1723 C 166.599 -4.33251 -1.48519 0
M  V30 1724 N 168.09 -4.36336 -1.55453 0
M  V30 1725 C 168.825 -5.43885 -1.81596 0
M  V30 1726 N 168.321 -6.61601 -2.05562 0
M  V30 1727 N 170.114 -5.3136 -1.8334 0
M  V30 1728 H 162.265 -2.09729 0.335774 0
M  V30 1729 H 164.528 -0.943925 0.0878028 0
M  V30 1730 H 164.234 -3.50678 -0.267905 0
M  V30 1731 H 164.108 -3.20334 -1.99163 0
M  V30 1732 H 166.495 -2.21225 -1.95304 0
M  V30 1733 H 166.576 -2.54871 -0.217801 0
M  V30 1734 H 166.22 -5.02984 -0.704958 0
M  V30 1735 H 166.15 -4.66299 -2.44689 0
M  V30 1736 H 168.641 -3.51466 -1.38853 0
M  V30 1737 H 168.954 -7.39361 -2.24867 0
M  V30 1738 H 167.299 -6.64725 -2.02894 0
M  V30 1739 H 170.49 -4.38382 -1.64132 0
M  V30 1740 H 170.663 -6.15258 -2.03377 0
M  V30 1741 N 164.069 0.697108 -1.41344 0
M  V30 1742 C 164.999 1.82353 -1.45841 0
M  V30 1743 C 165.98 1.67115 -0.317247 0
M  V30 1744 O 167.165 1.86871 -0.528474 0
M  V30 1745 C 164.295 3.20476 -1.33838 0
M  V30 1746 C 163.249 3.50415 -2.4575 0
M  V30 1747 C 162.575 4.87878 -2.18813 0
M  V30 1748 C 163.875 3.49546 -3.88091 0
M  V30 1749 H 165.569 1.78846 -2.40113 0
M  V30 1750 H 163.115 0.859028 -1.15571 0
M  V30 1751 H 165.068 3.98988 -1.35596 0
M  V30 1752 H 163.792 3.24604 -0.360498 0
M  V30 1753 H 162.451 2.74253 -2.43271 0
M  V30 1754 H 162.099 4.8863 -1.19371 0
M  V30 1755 H 161.799 5.08875 -2.93803 0
M  V30 1756 H 163.323 5.68702 -2.22284 0
M  V30 1757 H 164.737 4.18066 -3.92293 0
M  V30 1758 H 163.134 3.82075 -4.62751 0
M  V30 1759 H 164.204 2.48552 -4.16353 0
M  V30 1760 N 165.547 1.27147 0.931209 0
M  V30 1761 C 166.51 1.09615 2.01289 0
M  V30 1762 C 167.51 0.0412581 1.60747 0
M  V30 1763 O 168.7 0.285545 1.71844 0
M  V30 1764 C 165.832 0.669447 3.34262 0
M  V30 1765 H 167.025 2.05662 2.18273 0
M  V30 1766 H 164.578 1.09885 1.11153 0
M  V30 1767 H 165.313 -0.292572 3.22978 0
M  V30 1768 H 165.098 1.43127 3.65044 0
M  V30 1769 H 166.588 0.568921 4.13706 0
M  V30 1770 N 167.025 -1.13721 1.09112 0
M  V30 1771 C 168.441 -1.36914 0.820174 0
M  V30 1772 C 168.641 -1.93356 -0.567079 0
M  V30 1773 O 167.697 -2.15093 -1.32255 0
M  V30 1774 C 169.01 -2.3235 1.90877 0
M  V30 1775 C 170.558 -2.45973 1.93562 0
M  V30 1776 C 171.033 -3.44714 3.01556 0
M  V30 1777 N 172.524 -3.52263 3.00775 0
M  V30 1778 C 173.259 -4.28536 3.80978 0
M  V30 1779 N 172.755 -5.07991 4.71081 0
M  V30 1780 N 174.548 -4.23804 3.69251 0
M  V30 1781 H 166.699 -0.754348 1.98553 0
M  V30 1782 H 168.962 -0.3944 0.862063 0
M  V30 1783 H 168.668 -1.98027 2.90651 0
M  V30 1784 H 168.542 -3.32332 1.78424 0
M  V30 1785 H 170.929 -2.79584 0.944286 0
M  V30 1786 H 171.01 -1.45926 2.10093 0
M  V30 1787 H 170.654 -3.11835 4.00901 0
M  V30 1788 H 170.584 -4.44558 2.82269 0
M  V30 1789 H 173.075 -2.95567 2.35475 0
M  V30 1790 H 173.388 -5.63487 5.28869 0
M  V30 1791 H 171.733 -5.07235 4.75119 0
M  V30 1792 H 174.924 -3.60806 2.98222 0
M  V30 1793 H 175.097 -4.82995 4.31995 0
M  V30 1794 N 168.503 -0.877838 -1.30888 0
M  V30 1795 C 169.914 -0.544193 -1.78593 0
M  V30 1796 C 170.265 0.939301 -1.72254 0
M  V30 1797 O 169.39 1.7337 -1.29505 0
M  V30 1798 C 169.985 -0.98105 -3.24285 0
M  V30 1799 C 168.544 -0.698935 -3.69854 0
M  V30 1800 C 167.691 -1.168 -2.51502 0
M  V30 1801 H 170.642 -1.06278 -1.17859 0
M  V30 1802 H 170.663 -0.307009 -3.79259 0
M  V30 1803 H 170.175 -2.06079 -3.28866 0
M  V30 1804 H 168.276 0.369112 -3.70767 0
M  V30 1805 H 168.389 -1.28148 -4.61644 0
M  V30 1806 H 166.753 -0.587535 -2.47831 0
M  V30 1807 H 167.536 -2.25533 -2.58824 0
M  V30 1808 N 169.982 1.44106 -0.638065 0
M  V30 1809 C 170.945 2.29138 0.0531013 0
M  V30 1810 C 171.945 1.41409 0.765506 0
M  V30 1811 O 173.135 1.63206 0.609046 0
M  V30 1812 C 170.267 3.23144 1.08584 0
M  V30 1813 H 171.46 2.91739 -0.694883 0
M  V30 1814 H 169.013 1.51134 -0.398538 0
M  V30 1815 H 169.748 2.65408 1.86357 0
M  V30 1816 H 169.533 3.87804 0.578852 0
M  V30 1817 H 171.023 3.87004 1.56899 0
M  V30 1818 N 171.46 0.379036 1.52974 0
M  V30 1819 C 172.407 -0.461048 2.26148 0
M  V30 1820 C 173.377 -1.06637 1.27349 0
M  V30 1821 O 174.562 -1.09633 1.56157 0
M  V30 1822 C 171.702 -1.58782 3.06402 0
M  V30 1823 C 170.815 -1.00636 4.20115 0
M  V30 1824 C 169.95 -2.10334 4.87784 0
M  V30 1825 C 168.989 -1.49724 5.93506 0
M  V30 1826 N 168.126 -2.5331 6.54812 0
M  V30 1827 H 172.966 0.169429 2.97518 0
M  V30 1828 H 170.503 0.0953806 1.4679 0
M  V30 1829 H 172.461 -2.25174 3.51215 0
M  V30 1830 H 171.091 -2.18876 2.37261 0
M  V30 1831 H 170.143 -0.232332 3.7969 0
M  V30 1832 H 171.455 -0.523343 4.96047 0
M  V30 1833 H 170.609 -2.84519 5.35849 0
M  V30 1834 H 169.348 -2.61992 4.11353 0
M  V30 1835 H 168.353 -0.740598 5.44789 0
M  V30 1836 H 169.578 -0.988732 6.71864 0
M  V30 1837 H 167.524 -3.04156 5.81227 0
M  V30 1838 H 167.441 -2.09734 7.26325 0
M  V30 1839 H 168.709 -3.27155 7.07524 0
M  V30 1840 N 172.938 -1.57226 0.108567 0
M  V30 1841 C 173.868 -2.17778 -0.84232 0
M  V30 1842 C 174.849 -1.11487 -1.2847 0
M  V30 1843 O 176.034 -1.39681 -1.34918 0
M  V30 1844 C 173.164 -2.76888 -2.09644 0
M  V30 1845 C 172.118 -3.88669 -1.79221 0
M  V30 1846 C 171.444 -4.34541 -3.11574 0
M  V30 1847 C 172.744 -5.11251 -1.06864 0
M  V30 1848 H 174.438 -2.97489 -0.337774 0
M  V30 1849 H 171.984 -1.43097 -0.161025 0
M  V30 1850 H 173.937 -3.17904 -2.76614 0
M  V30 1851 H 172.661 -1.94451 -2.62405 0
M  V30 1852 H 171.32 -3.48213 -1.14644 0
M  V30 1853 H 170.968 -3.48977 -3.62249 0
M  V30 1854 H 170.668 -5.09914 -2.91996 0
M  V30 1855 H 172.192 -4.782 -3.7968 0
M  V30 1856 H 173.606 -5.49352 -1.63968 0
M  V30 1857 H 172.003 -5.9214 -0.974178 0
M  V30 1858 H 173.073 -4.8487 -0.0536168 0
M  V30 1859 N 174.416 0.165178 -1.56732 0
M  V30 1860 C 175.641 0.900253 -1.86843 0
M  V30 1861 C 176.066 1.74766 -0.695596 0
M  V30 1862 O 175.424 1.77786 0.35522 0
M  V30 1863 C 175.472 1.74777 -3.15413 0
M  V30 1864 O 174.576 2.85007 -2.98068 0
M  V30 1865 H 173.917 0.251832 -0.614391 0
M  V30 1866 H 176.447 0.161468 -2.03962 0
M  V30 1867 H 176.457 2.14646 -3.46974 0
M  V30 1868 H 175.132 1.12537 -4.00385 0
M  V30 1869 H 173.709 2.48676 -2.77875 0
M  V30 1870 N 175.894 1.51508 0.433938 0
M  V30 1871 C 176.804 1.75917 1.5521 0
M  V30 1872 C 177.82 0.643545 1.61662 0
M  V30 1873 O 178.996 0.926183 1.7884 0
M  V30 1874 C 176.061 1.88213 2.91164 0
M  V30 1875 C 175.122 3.12074 2.94802 0
M  V30 1876 C 174.355 3.23774 4.24271 0
M  V30 1877 O 174.578 2.4133 5.16833 0
M  V30 1878 O 173.512 4.16774 4.34262 0
M  V30 1879 H 177.338 2.70777 1.37527 0
M  V30 1880 H 174.923 1.36051 0.617293 0
M  V30 1881 H 176.805 1.98267 3.71845 0
M  V30 1882 H 175.48 0.965413 3.08968 0
M  V30 1883 H 174.387 3.07497 2.13065 0
M  V30 1884 H 175.72 4.03446 2.81943 0
M  V30 1885 N 177.372 -0.689602 1.41712 0
M  V30 1886 C 178.302 -1.81577 1.46806 0
M  V30 1887 C 179.283 -1.66945 0.326105 0
M  V30 1888 O 180.468 -1.86588 0.538377 0
M  V30 1889 C 177.598 -3.19762 1.35535 0
M  V30 1890 C 176.552 -3.49107 2.47605 0
M  V30 1891 C 175.878 -4.86711 2.21397 0
M  V30 1892 C 177.178 -3.47483 3.89939 0
M  V30 1893 H 178.872 -1.7757 2.41058 0
M  V30 1894 H 176.418 -0.852887 1.16025 0
M  V30 1895 H 178.371 -3.98263 1.3771 0
M  V30 1896 H 177.095 -3.24409 0.377708 0
M  V30 1897 H 175.754 -2.72959 2.44722 0
M  V30 1898 H 175.402 -4.8799 1.21961 0
M  V30 1899 H 175.102 -5.0731 2.96497 0
M  V30 1900 H 176.626 -5.67515 2.25297 0
M  V30 1901 H 178.04 -4.1598 3.94505 0
M  V30 1902 H 176.437 -3.79615 4.64771 0
M  V30 1903 H 177.507 -2.46341 4.17665 0
M  V30 1904 N 178.85 -1.27639 -0.924453 0
M  V30 1905 C 180.099 -1.13549 -1.66702 0
M  V30 1906 C 180.412 0.317487 -1.93006 0
M  V30 1907 O 181.618 0.579333 -2.65247 0
M  V30 1908 C 180.074 -1.98426 -3.00259 0
M  V30 1909 C 179.682 -3.484 -2.81641 0
M  V30 1910 C 181.426 -1.92993 -3.78092 0
M  V30 1911 C 179.333 -4.25464 -4.10773 0
M  V30 1912 H 178.263 -0.421351 -0.625283 0
M  V30 1913 H 180.914 -1.52085 -1.02676 0
M  V30 1914 H 179.296 -1.52736 -3.6536 0
M  V30 1915 H 180.47 -4.01973 -2.25287 0
M  V30 1916 H 178.785 -3.55245 -2.17232 0
M  V30 1917 H 181.382 -2.47844 -4.7379 0
M  V30 1918 H 181.725 -0.904281 -4.0636 0
M  V30 1919 H 182.258 -2.36595 -3.19793 0
M  V30 1920 H 178.997 -5.28566 -3.87683 0
M  V30 1921 H 178.517 -3.76667 -4.66779 0
M  V30 1922 H 180.196 -4.34812 -4.79111 0
M  V30 1923 N 180.328 1.1314 -1.09713 0
M  V30 1924 C 181.26 2.18343 -0.697056 0
M  V30 1925 C 182.273 1.60669 0.262551 0
M  V30 1926 O 183.462 1.78435 0.0481527 0
M  V30 1927 C 180.562 3.38899 -0.00684728 0
M  V30 1928 C 179.735 4.26078 -0.988741 0
M  V30 1929 C 178.794 5.25155 -0.331394 0
M  V30 1930 O 177.82 5.60701 -0.979926 0
M  V30 1931 N 179.022 5.73271 0.913261 0
M  V30 1932 H 181.787 2.5328 -1.60216 0
M  V30 1933 H 179.348 1.28491 -0.984971 0
M  V30 1934 H 181.34 4.02255 0.444191 0
M  V30 1935 H 179.91 3.02175 0.800551 0
M  V30 1936 H 179.13 3.59453 -1.61826 0
M  V30 1937 H 180.418 4.81178 -1.65364 0
M  V30 1938 H 179.816 5.46544 1.45966 0
M  V30 1939 H 178.373 6.3855 1.30757 0
M  V30 1940 N 181.806 0.884767 1.30421 0
M  V30 1941 C 183.217 0.553656 1.78302 0
M  V30 1942 C 183.568 -0.930153 1.7275 0
M  V30 1943 O 182.693 -1.72681 1.30423 0
M  V30 1944 C 183.288 0.998234 3.2376 0
M  V30 1945 C 181.847 0.71854 3.69478 0
M  V30 1946 C 180.994 1.18132 2.50879 0
M  V30 1947 H 183.945 1.06901 1.17294 0
M  V30 1948 H 183.966 0.327118 3.79091 0
M  V30 1949 H 183.478 2.0782 3.27769 0
M  V30 1950 H 181.579 -0.349444 3.70958 0
M  V30 1951 H 181.692 1.30595 4.60958 0
M  V30 1952 H 180.056 0.600669 2.47516 0
M  V30 1953 H 180.839 2.26902 2.57624 0
M  V30 1954 N 183.284 -1.43765 0.645699 0
M  V30 1955 C 184.214 -2.33471 -0.0370477 0
M  V30 1956 C 185.195 -1.49042 -0.819779 0
M  V30 1957 O 186.38 -1.77726 -0.782758 0
M  V30 1958 C 183.51 -3.32311 -1.0093 0
M  V30 1959 C 182.464 -4.2667 -0.337201 0
M  V30 1960 C 181.79 -5.1549 -1.42037 0
M  V30 1961 C 183.09 -5.16657 0.765706 0
M  V30 1962 H 184.784 -2.90809 0.712069 0
M  V30 1963 H 182.33 -1.39834 0.343876 0
M  V30 1964 H 184.283 -3.9396 -1.49578 0
M  V30 1965 H 183.007 -2.73213 -1.78948 0
M  V30 1966 H 181.666 -3.66374 0.128771 0
M  V30 1967 H 181.314 -4.52735 -2.1918 0
M  V30 1968 H 181.014 -5.79438 -0.975966 0
M  V30 1969 H 182.538 -5.80012 -1.90838 0
M  V30 1970 H 183.952 -5.72158 0.361702 0
M  V30 1971 H 182.349 -5.89286 1.13413 0
M  V30 1972 H 183.419 -4.56796 1.62683 0
M  V30 1973 N 184.763 -0.387143 -1.52771 0
M  V30 1974 C 186.174 0.0873634 -1.86495 0
M  V30 1975 C 186.525 1.46336 -1.30691 0
M  V30 1976 O 185.65 2.068 -0.637409 0
M  V30 1977 C 186.245 0.165305 -3.38396 0
M  V30 1978 C 184.804 0.584101 -3.7184 0
M  V30 1979 C 183.951 -0.255279 -2.76122 0
M  V30 1980 H 186.902 -0.605104 -1.46711 0
M  V30 1981 H 186.923 0.984848 -3.67534 0
M  V30 1982 H 186.435 -0.836301 -3.78982 0
M  V30 1983 H 184.536 1.59315 -3.36823 0
M  V30 1984 H 184.649 0.343749 -4.77865 0
M  V30 1985 H 183.013 0.279126 -2.53166 0
M  V30 1986 H 183.796 -1.25482 -3.19545 0
M  V30 1987 N 186.241 1.57166 -0.116904 0
M  V30 1988 C 187.171 2.18222 0.830759 0
M  V30 1989 C 188.152 1.12167 1.27877 0
M  V30 1990 O 189.337 1.40394 1.34176 0
M  V30 1991 C 186.467 2.77996 2.08172 0
M  V30 1992 C 185.421 3.89614 1.77157 0
M  V30 1993 C 184.747 4.36187 3.09265 0
M  V30 1994 C 186.047 5.1181 1.04151 0
M  V30 1995 H 187.741 2.97664 0.321992 0
M  V30 1996 H 185.287 1.4318 0.153434 0
M  V30 1997 H 187.24 3.19366 2.74924 0
M  V30 1998 H 185.964 1.9584 2.6137 0
M  V30 1999 H 184.623 3.48816 1.12796 0
M  V30 2000 H 184.271 3.50893 3.60393 0
M  V30 2001 H 183.971 5.11455 2.89288 0
M  V30 2002 H 185.495 4.80207 3.77139 0
M  V30 2003 H 186.909 5.50214 1.61052 0
M  V30 2004 H 185.306 5.92648 0.942762 0
M  V30 2005 H 186.376 4.84892 0.0279022 0
M  V30 2006 N 187.719 -0.156864 1.56817 0
M  V30 2007 C 188.629 -1.2136 2.00771 0
M  V30 2008 C 189.645 -1.47598 0.921459 0
M  V30 2009 O 190.821 -1.59462 1.2302 0
M  V30 2010 C 187.886 -2.52943 2.37109 0
M  V30 2011 C 186.947 -2.34439 3.59634 0
M  V30 2012 C 186.18 -3.59748 3.94229 0
M  V30 2013 O 186.403 -4.65526 3.29609 0
M  V30 2014 O 185.337 -3.52998 4.8752 0
M  V30 2015 H 189.163 -0.870468 2.90958 0
M  V30 2016 H 186.748 -0.36484 1.44877 0
M  V30 2017 H 188.63 -3.30538 2.61386 0
M  V30 2018 H 187.305 -2.86806 1.5008 0
M  V30 2019 H 186.212 -1.54828 3.40557 0
M  V30 2020 H 187.545 -2.05496 4.4725 0
M  V30 2021 N 189.197 -1.51736 -0.425897 0
M  V30 2022 C 190.613 -1.40166 -0.76326 0
M  V30 2023 C 190.813 -0.492962 -1.95377 0
M  V30 2024 O 189.869 0.0475815 -2.52455 0
M  V30 2025 C 191.182 -2.82403 -1.03291 0
M  V30 2026 C 192.73 -2.91632 -1.13665 0
M  V30 2027 C 193.205 -4.34801 -1.43916 0
M  V30 2028 N 194.696 -4.3796 -1.50816 0
M  V30 2029 C 195.431 -5.4578 -1.75817 0
M  V30 2030 N 194.927 -6.63744 -1.98534 0
M  V30 2031 N 196.72 -5.33274 -1.77694 0
M  V30 2032 H 188.871 -2.09361 0.358 0
M  V30 2033 H 191.134 -0.942941 0.0978094 0
M  V30 2034 H 190.84 -3.50943 -0.230696 0
M  V30 2035 H 190.714 -3.22428 -1.95754 0
M  V30 2036 H 193.101 -2.23284 -1.92947 0
M  V30 2037 H 193.182 -2.55088 -0.190756 0
M  V30 2038 H 192.826 -5.03703 -0.65157 0
M  V30 2039 H 192.756 -4.68868 -2.39729 0
M  V30 2040 H 195.247 -3.52919 -1.35118 0
M  V30 2041 H 195.56 -7.41704 -2.17013 0
M  V30 2042 H 193.905 -6.66839 -1.95832 0
M  V30 2043 H 197.096 -4.40098 -1.59473 0
M  V30 2044 H 197.269 -6.1738 -1.9684 0
M  V30 2045 N 190.675 0.682077 -1.42076 0
M  V30 2046 C 191.952 1.43755 -1.32642 0
M  V30 2047 C 192.332 2.11063 0.0396611 0
M  V30 2048 O 191.68 2.02701 1.05474 0
M  V30 2049 C 191.89 2.44596 -2.48946 0
M  V30 2050 C 193.238 3.09454 -2.9073 0
M  V30 2051 O 194.262 2.54922 -2.48783 0
M  V30 2052 O 193.121 4.08253 -3.63307 0
M  V30 2053 H 190.215 0.640857 -0.522715 0
M  V30 2054 H 192.761 0.711415 -1.54068 0
M  V30 2055 H 191.533 1.93609 -3.40046 0
M  V30 2056 H 191.156 3.24701 -2.29467 0
M  V30 2057 N 192.153 1.28127 0.917671 0
M  V30 2058 C 193.393 1.163 1.68088 0
M  V30 2059 C 193.757 -0.284515 1.8988 0
M  V30 2060 O 194.958 -0.525413 2.63615 0
M  V30 2061 C 193.229 1.93546 3.00457 0
M  V30 2062 S 194.788 1.98048 3.91564 0
M  V30 2063 H 191.606 0.415005 0.577315 0
M  V30 2064 H 194.208 1.62173 1.09179 0
M  V30 2065 H 192.912 2.97888 2.82295 0
M  V30 2066 H 192.443 1.48207 3.64415 0
M  V30 2067 H 194.458 1.08415 4.84211 0
M  V30 2068 N 193.631 -1.12557 1.10312 0
M  V30 2069 C 194.856 -1.88405 0.867085 0
M  V30 2070 C 195.281 -1.79038 -0.576817 0
M  V30 2071 O 194.639 -1.14439 -1.40618 0
M  V30 2072 C 194.687 -3.3563 1.31851 0
M  V30 2073 O 193.791 -4.09565 0.482734 0
M  V30 2074 H 193.132 -0.585455 0.313271 0
M  V30 2075 H 195.662 -1.42352 1.4696 0
M  V30 2076 H 195.672 -3.86469 1.3079 0
M  V30 2077 H 194.347 -3.41765 2.37001 0
M  V30 2078 H 192.924 -3.68695 0.558448 0
M  V30 2079 N 195.109 -0.891671 -1.2995 0
M  V30 2080 C 196.072 -0.36828 -2.26222 0
M  V30 2081 C 197.072 0.493014 -1.53056 0
M  V30 2082 O 198.262 0.299213 -1.71611 0
M  V30 2083 C 195.394 0.47442 -3.37583 0
M  V30 2084 H 196.587 -1.21844 -2.74033 0
M  V30 2085 H 194.14 -0.669107 -1.41254 0
M  V30 2086 H 194.875 1.34489 -2.95099 0
M  V30 2087 H 194.66 -0.142615 -3.91841 0
M  V30 2088 H 196.15 0.83218 -4.09224 0
M  V30 2089 N 196.587 1.43421 -0.653314 0
M  V30 2090 C 197.535 2.32546 0.0501531 0
M  V30 2091 C 198.529 1.48617 0.812985 0
M  V30 2092 O 199.735 1.64825 0.723375 0
M  V30 2093 H 196.11 0.751185 0.0350032 0
M  V30 2094 H 198.081 2.89602 -0.719261 0
M  V30 2095 C 196.83 3.32925 1.00279 0
M  V30 2096 H 196.153 3.97532 0.425236 0
M  V30 2097 H 197.593 3.9792 1.46409 0
M  V30 2098 C 196.052 2.63532 2.09886 0
M  V30 2099 O 196.582 2.45092 3.18265 0
M  V30 2100 N 194.788 2.22905 1.86445 0
M  V30 2101 H 194.335 2.38103 0.98309 0
M  V30 2102 H 194.293 1.76805 2.59976 0
M  V30 2103 N 198.065 0.39524 1.52563 0
M  V30 2104 C 199.293 -0.184943 2.06072 0
M  V30 2105 C 199.708 -1.40021 1.26647 0
M  V30 2106 O 199.065 -1.79767 0.314672 0
M  V30 2107 C 199.116 -0.549179 3.57304 0
M  V30 2108 O 198.837 0.617813 4.33722 0
M  V30 2109 C 200.338 -1.18459 4.2718 0
M  V30 2110 H 197.558 -0.0265025 0.670476 0
M  V30 2111 H 200.102 0.562184 1.96621 0
M  V30 2112 H 198.257 -1.2462 3.66809 0
M  V30 2113 H 198.671 0.317091 5.23541 0
M  V30 2114 H 200.145 -1.38976 5.34219 0
M  V30 2115 H 200.622 -2.15368 3.82771 0
M  V30 2116 H 201.228 -0.528163 4.22008 0
M  V30 2117 N 199.544 -1.57102 0.125237 0
M  V30 2118 C 200.772 -1.99761 -0.538797 0
M  V30 2119 C 201.187 -1.00503 -1.59827 0
M  V30 2120 O 200.544 0.00119474 -1.825 0
M  V30 2121 C 200.595 -3.42408 -1.15927 0
M  V30 2122 O 200.316 -4.37869 -0.142143 0
M  V30 2123 C 201.817 -4.00232 -1.90602 0
M  V30 2124 H 199.037 -0.655772 -0.14214 0
M  V30 2125 H 201.581 -2.03383 0.213413 0
M  V30 2126 H 199.736 -3.39706 -1.86223 0
M  V30 2127 H 200.15 -5.21128 -0.593775 0
M  V30 2128 H 201.624 -5.02105 -2.29335 0
M  V30 2129 H 202.101 -3.39721 -2.78363 0
M  V30 2130 H 202.707 -4.06499 -1.25055 0
M  V30 2131 N 201.022 0.148545 -1.56898 0
M  V30 2132 C 202.247 0.880385 -1.87787 0
M  V30 2133 C 202.672 1.74018 -0.714093 0
M  V30 2134 O 202.03 1.78153 0.336343 0
M  V30 2135 C 202.078 1.71422 -3.17249 0
M  V30 2136 O 201.182 2.8183 -3.01074 0
M  V30 2137 H 200.523 0.245301 -0.617028 0
M  V30 2138 H 203.053 0.139826 -2.04122 0
M  V30 2139 H 203.063 2.10954 -3.49231 0
M  V30 2140 H 201.738 1.08284 -4.01556 0
M  V30 2141 H 200.315 2.45715 -2.80497 0
M  V30 2142 N 202.5 1.5196 0.417844 0
M  V30 2143 C 203.74 1.67262 1.17486 0
M  V30 2144 C 204.104 0.38983 1.88001 0
M  V30 2145 O 205.305 0.418845 2.65517 0
M  V30 2146 C 203.576 2.85526 2.14965 0
M  V30 2147 S 205.135 3.21263 2.98891 0
M  V30 2148 H 201.953 0.589077 0.398132 0
M  V30 2149 H 204.555 1.89927 0.463452 0
M  V30 2150 H 203.259 3.77145 1.61833 0
M  V30 2151 H 202.79 2.65107 2.90657 0
M  V30 2152 H 204.805 2.69208 4.16823 0
M  V30 2153 N 203.978 -0.674533 1.42435 0
M  V30 2154 C 204.928 -1.7807 1.4239 0
M  V30 2155 C 205.912 -1.58169 0.295202 0
M  V30 2156 O 207.104 -1.68643 0.537449 0
M  V30 2157 C 204.233 -3.16532 1.32901 0
M  V30 2158 C 203.319 -3.42055 2.50717 0
M  V30 2159 N 203.71 -3.38162 3.76139 0
M  V30 2160 C 202.008 -3.72692 2.44983 0
M  V30 2161 C 202.709 -3.63177 4.54398 0
M  V30 2162 N 201.685 -3.83954 3.84812 0
M  V30 2163 H 205.487 -1.73454 2.37257 0
M  V30 2164 H 203.001 -0.875381 1.36788 0
M  V30 2165 H 204.998 -3.958 1.30951 0
M  V30 2166 H 203.658 -3.22345 0.390363 0
M  V30 2167 H 204.669 -3.18057 4.0873 0
M  V30 2168 H 201.346 -3.85749 1.59699 0
M  V30 2169 H 202.736 -3.66125 5.63384 0
M  V30 2170 N 205.456 -1.28612 -0.910864 0
M  V30 2171 C 206.705 -1.15311 -1.65488 0
M  V30 2172 C 207.018 0.296999 -1.93332 0
M  V30 2173 O 208.224 0.551168 -2.65847 0
M  V30 2174 C 206.68 -2.01599 -2.98137 0
M  V30 2175 C 206.288 -3.51367 -2.7793 0
M  V30 2176 C 208.032 -1.96993 -3.76024 0
M  V30 2177 C 205.939 -4.29797 -4.06237 0
M  V30 2178 H 204.869 -0.42796 -0.620779 0
M  V30 2179 H 207.52 -1.53166 -1.01057 0
M  V30 2180 H 205.902 -1.56603 -3.63719 0
M  V30 2181 H 207.076 -4.0434 -2.21011 0
M  V30 2182 H 205.391 -3.57529 -2.13452 0
M  V30 2183 H 207.988 -2.52856 -4.71135 0
M  V30 2184 H 208.331 -0.94733 -4.05378 0
M  V30 2185 H 208.864 -2.39973 -3.17266 0
M  V30 2186 H 205.603 -5.32648 -3.82055 0
M  V30 2187 H 205.123 -3.81596 -4.62757 0
M  V30 2188 H 206.802 -4.39869 -4.74473 0
M  V30 2189 N 206.934 1.1197 -1.10907 0
M  V30 2190 C 207.864 2.19928 -0.784473 0
M  V30 2191 C 208.845 1.6833 0.244726 0
M  V30 2192 O 210.03 1.93892 0.109418 0
M  V30 2193 C 207.16 3.46597 -0.220827 0
M  V30 2194 C 206.114 4.11376 -1.18127 0
M  V30 2195 C 205.44 5.32554 -0.478594 0
M  V30 2196 C 206.74 4.56945 -2.52979 0
M  V30 2197 H 208.434 2.47337 -1.68715 0
M  V30 2198 H 205.98 1.18879 -0.812642 0
M  V30 2199 H 207.933 4.21396 0.0184278 0
M  V30 2200 H 206.657 3.1863 0.717113 0
M  V30 2201 H 205.316 3.38564 -1.40606 0
M  V30 2202 H 204.964 5.00856 0.463976 0
M  V30 2203 H 204.664 5.76844 -1.11912 0
M  V30 2204 H 206.188 6.10096 -0.248 0
M  V30 2205 H 207.602 5.23093 -2.3462 0
M  V30 2206 H 205.999 5.1203 -3.12962 0
M  V30 2207 H 207.069 3.70676 -3.12614 0
M  V30 2208 N 208.412 0.89855 1.29475 0
M  V30 2209 C 209.66 0.522847 1.9522 0
M  V30 2210 C 209.981 -0.93371 1.71192 0
M  V30 2211 O 209.251 -1.65823 1.04305 0
M  V30 2212 H 207.831 0.190366 0.722336 0
M  V30 2213 H 210.493 1.14459 1.5775 0
M  V30 2214 H 209.589 0.704476 3.04045 0
M  V30 2215 N 209.89 -1.43072 0.660911 0
M  V30 2216 C 211.136 -2.02545 0.186337 0
M  V30 2217 C 211.491 -1.51253 -1.18913 0
M  V30 2218 O 210.784 -0.699167 -1.78388 0
M  V30 2219 C 210.978 -3.57103 0.145563 0
M  V30 2220 C 210.807 -4.23393 1.51554 0
M  V30 2221 C 209.577 -4.59144 2.10984 0
M  V30 2222 C 211.775 -4.51897 2.45548 0
M  V30 2223 N 209.757 -5.10545 3.40907 0
M  V30 2224 C 211.128 -5.04698 3.6011 0
M  V30 2225 C 213.183 -4.33872 2.44253 0
M  V30 2226 C 211.886 -5.41371 4.73613 0
M  V30 2227 C 213.912 -4.71612 3.56842 0
M  V30 2228 C 213.274 -5.24553 4.70131 0
M  V30 2229 H 209.373 -0.773823 0.112792 0
M  V30 2230 H 211.957 -1.74137 0.870885 0
M  V30 2231 H 210.128 -3.85059 -0.508353 0
M  V30 2232 H 211.86 -4.03264 -0.340598 0
M  V30 2233 H 208.615 -4.4444 1.63615 0
M  V30 2234 H 209.039 -5.40689 4.07411 0
M  V30 2235 H 213.681 -3.92208 1.579 0
M  V30 2236 H 211.399 -5.81975 5.60652 0
M  V30 2237 H 214.985 -4.59354 3.57051 0
M  V30 2238 H 213.865 -5.53213 5.5581 0
M  V30 2239 N 211.368 -0.403325 -1.52352 0
M  V30 2240 C 212.616 0.174003 -2.0135 0
M  V30 2241 C 212.937 1.46139 -1.29106 0
M  V30 2242 O 212.207 1.91448 -0.415253 0
M  V30 2243 H 210.787 0.0672911 -0.743963 0
M  V30 2244 H 213.449 -0.538235 -1.87321 0
M  V30 2245 H 212.545 0.374254 -3.09848 0
M  V30 2246 N 212.846 1.57033 -0.133567 0
M  V30 2247 C 213.793 2.16074 0.811208 0
M  V30 2248 C 214.763 1.08979 1.2535 0
M  V30 2249 O 215.948 1.36958 1.32843 0
M  V30 2250 C 213.088 2.77595 2.05024 0
M  V30 2251 C 212.201 3.99042 1.65498 0
M  V30 2252 C 211.336 4.48603 2.84479 0
M  V30 2253 C 210.375 5.62547 2.41262 0
M  V30 2254 N 209.512 6.06787 3.53206 0
M  V30 2255 H 214.352 2.96477 0.300906 0
M  V30 2256 H 211.889 1.46462 0.136822 0
M  V30 2257 H 213.847 3.11402 2.77642 0
M  V30 2258 H 212.477 1.99859 2.53488 0
M  V30 2259 H 211.529 3.71302 0.826981 0
M  V30 2260 H 212.841 4.81629 1.29748 0
M  V30 2261 H 211.995 4.84395 3.65303 0
M  V30 2262 H 210.734 3.64995 3.23465 0
M  V30 2263 H 209.739 5.26345 1.58874 0
M  V30 2264 H 210.964 6.47931 2.03377 0
M  V30 2265 H 208.91 5.26117 3.91838 0
M  V30 2266 H 208.827 6.84266 3.21427 0
M  V30 2267 H 210.095 6.4722 4.34427 0
M  V30 2268 N 214.325 -0.140222 1.56975 0
M  V30 2269 C 215.553 -0.866437 1.87884 0
M  V30 2270 C 215.968 -1.74428 0.722517 0
M  V30 2271 O 215.325 -1.79891 -0.30749 0
M  V30 2272 C 215.376 -1.71753 3.18093 0
M  V30 2273 O 215.097 -0.875056 4.29272 0
M  V30 2274 C 216.598 -2.55074 3.62563 0
M  V30 2275 H 213.818 -0.25019 0.622612 0
M  V30 2276 H 216.362 -0.130977 2.0408 0
M  V30 2277 H 214.517 -2.40598 3.03631 0
M  V30 2278 H 214.931 -1.46002 5.03769 0
M  V30 2279 H 216.405 -3.10356 4.5649 0
M  V30 2280 H 216.882 -3.31434 2.88181 0
M  V30 2281 H 217.488 -1.91509 3.79743 0
M  V30 2282 N 215.803 -1.52179 -0.40978 0
M  V30 2283 C 216.766 -1.74853 -1.48186 0
M  V30 2284 C 217.766 -0.618417 -1.48433 0
M  V30 2285 O 218.956 -0.886286 -1.49969 0
M  V30 2286 C 216.088 -1.8303 -2.87598 0
M  V30 2287 H 217.281 -2.70559 -1.29374 0
M  V30 2288 H 214.834 -1.42586 -0.640233 0
M  V30 2289 H 215.569 -0.89236 -3.11781 0
M  V30 2290 H 215.354 -2.65187 -2.88822 0
M  V30 2291 H 216.844 -2.02316 -3.65319 0
M  V30 2292 N 217.281 0.66697 -1.42791 0
M  V30 2293 C 218.558 1.4234 -1.34159 0
M  V30 2294 C 218.938 2.11093 0.0172729 0
M  V30 2295 O 218.286 2.03808 1.03318 0
M  V30 2296 C 218.496 2.41942 -2.51526 0
M  V30 2297 C 219.844 3.06353 -2.93995 0
M  V30 2298 O 220.868 2.52269 -2.51473 0
M  V30 2299 O 219.727 4.04376 -3.67617 0
M  V30 2300 H 216.821 0.635277 -0.529483 0
M  V30 2301 H 219.367 0.695034 -1.54814 0
M  V30 2302 H 218.139 1.89991 -3.42081 0
M  V30 2303 H 217.762 3.22249 -2.32898 0
M  V30 2304 N 218.759 1.29093 0.90403 0
M  V30 2305 C 220.007 1.16583 1.65085 0
M  V30 2306 C 220.328 -0.283933 1.92922 0
M  V30 2307 O 219.598 -1.19509 1.55224 0
M  V30 2308 H 218.178 0.428467 0.611903 0
M  V30 2309 H 220.84 1.61959 1.08422 0
M  V30 2310 H 219.936 1.71266 2.6091 0
M  V30 2311 N 220.237 -1.11381 1.11499 0
M  V30 2312 C 221.514 -1.7955 0.775965 0
M  V30 2313 C 221.894 -1.97859 -0.73588 0
M  V30 2314 O 221.242 -1.56376 -1.66609 0
M  V30 2315 C 221.452 -3.13196 1.53977 0
M  V30 2316 C 222.8 -3.88227 1.71944 0
M  V30 2317 O 223.824 -3.22887 1.50407 0
M  V30 2318 O 222.683 -5.05477 2.07738 0
M  V30 2319 H 219.777 -0.777728 0.28119 0
M  V30 2320 H 222.323 -1.18118 1.21845 0
M  V30 2321 H 221.095 -2.95229 2.56818 0
M  V30 2322 H 220.718 -3.82342 1.09088 0
M  V30 2323 N 221.715 -0.905404 -1.28997 0
M  V30 2324 C 222.962 -0.534248 -1.95325 0
M  V30 2325 C 223.29 0.920535 -1.71337 0
M  V30 2326 O 222.545 1.66861 -1.02254 0
M  V30 2327 C 222.844 -0.779906 -3.48787 0
M  V30 2328 C 222.51 -2.21293 -3.92861 0
M  V30 2329 C 221.172 -2.60475 -4.04606 0
M  V30 2330 C 223.524 -3.14587 -4.15553 0
M  V30 2331 C 220.852 -3.9212 -4.36416 0
M  V30 2332 C 223.204 -4.45787 -4.48839 0
M  V30 2333 C 221.868 -4.84834 -4.58794 0
M  V30 2334 H 221.138 -0.195495 -0.714747 0
M  V30 2335 H 223.785 -1.14514 -1.53488 0
M  V30 2336 H 222.09 -0.0861365 -3.91705 0
M  V30 2337 H 223.787 -0.472029 -3.98212 0
M  V30 2338 H 220.377 -1.89887 -3.84241 0
M  V30 2339 H 224.561 -2.85528 -4.0594 0
M  V30 2340 H 219.817 -4.22086 -4.42327 0
M  V30 2341 H 223.991 -5.18098 -4.65346 0
M  V30 2342 H 221.618 -5.86877 -4.83197 0
M  V30 2343 N 223.193 1.4272 -0.668489 0
M  V30 2344 C 224.604 1.84793 -0.266151 0
M  V30 2345 C 224.955 1.55959 1.19043 0
M  V30 2346 O 224.08 1.01622 1.91055 0
M  V30 2347 C 224.675 3.35436 -0.476271 0
M  V30 2348 C 223.234 3.76182 -0.128113 0
M  V30 2349 C 222.381 2.66344 -0.771777 0
M  V30 2350 H 225.332 1.32656 -0.871098 0
M  V30 2351 H 225.353 3.79515 0.273561 0
M  V30 2352 H 224.865 3.5639 -1.53647 0
M  V30 2353 H 222.966 3.60836 0.928891 0
M  V30 2354 H 223.079 4.75766 -0.564231 0
M  V30 2355 H 221.443 2.53885 -0.203652 0
M  V30 2356 H 222.226 2.90123 -1.83531 0
M  V30 2357 N 224.671 0.411399 1.52136 0
M  V30 2358 C 225.948 -0.222308 1.94333 0
M  V30 2359 C 226.328 -1.6242 1.34844 0
M  V30 2360 O 225.676 -2.22384 0.525145 0
M  V30 2361 C 225.886 -0.226345 3.48265 0
M  V30 2362 C 227.234 -0.444592 4.22266 0
M  V30 2363 O 228.258 -0.305602 3.54887 0
M  V30 2364 O 227.117 -0.718749 5.41753 0
M  V30 2365 H 224.211 -0.143907 0.814383 0
M  V30 2366 H 226.757 0.467506 1.63133 0
M  V30 2367 H 225.529 0.75475 3.83952 0
M  V30 2368 H 225.152 -0.960163 3.85832 0
M  V30 2369 N 226.149 -1.5696 0.141893 0
M  V30 2370 C 227.377 -2.00322 -0.517579 0
M  V30 2371 C 227.792 -1.02193 -1.58752 0
M  V30 2372 O 227.149 -0.0181619 -1.82491 0
M  V30 2373 C 227.2 -3.43618 -1.12289 0
M  V30 2374 O 226.921 -4.37995 -0.0956929 0
M  V30 2375 C 228.422 -4.02231 -1.86347 0
M  V30 2376 H 225.642 -0.657243 -0.135177 0
M  V30 2377 H 228.186 -2.03146 0.234973 0
M  V30 2378 H 226.341 -3.41662 -1.82609 0
M  V30 2379 H 226.755 -5.21729 -0.538469 0
M  V30 2380 H 228.229 -5.04509 -2.23997 0
M  V30 2381 H 228.706 -3.42655 -2.74744 0
M  V30 2382 H 229.312 -4.07802 -1.20737 0
M  V30 2383 N 227.627 0.131896 -1.57047 0
M  V30 2384 C 228.876 0.84044 -1.83356 0
M  V30 2385 C 229.189 1.81646 -0.725535 0
M  V30 2386 O 230.395 2.57025 -0.874659 0
M  V30 2387 C 228.851 1.54528 -3.25037 0
M  V30 2388 C 228.459 0.610902 -4.43815 0
M  V30 2389 C 230.203 2.23972 -3.60606 0
M  V30 2390 C 228.11 1.31823 -5.76521 0
M  V30 2391 H 227.04 0.317599 -0.683847 0
M  V30 2392 H 229.691 0.0931561 -1.83263 0
M  V30 2393 H 228.073 2.33873 -3.19561 0
M  V30 2394 H 229.247 -0.148407 -4.60561 0
M  V30 2395 H 227.562 0.0241016 -4.16393 0
M  V30 2396 H 230.159 2.77558 -4.57018 0
M  V30 2397 H 230.502 3.01173 -2.87403 0
M  V30 2398 H 231.035 1.51529 -3.6781 0
M  V30 2399 H 227.774 0.587771 -6.52859 0
M  V30 2400 H 227.294 2.04987 -5.63685 0
M  V30 2401 H 228.973 1.855 -6.19838 0
M  V30 2402 N 229.106 1.52395 0.401703 0
M  V30 2403 C 230.038 1.72505 1.50912 0
M  V30 2404 C 231.051 0.605468 1.51122 0
M  V30 2405 O 232.24 0.880828 1.55254 0
M  V30 2406 C 229.34 1.75711 2.89791 0
M  V30 2407 C 228.513 3.04824 3.1369 0
M  V30 2408 C 227.572 2.99743 4.32482 0
M  V30 2409 O 226.598 3.73635 4.29402 0
M  V30 2410 N 227.8 2.18047 5.37992 0
M  V30 2411 H 230.565 2.68049 1.34052 0
M  V30 2412 H 228.126 1.50724 0.591084 0
M  V30 2413 H 230.118 1.69834 3.6734 0
M  V30 2414 H 228.688 0.876092 3.00072 0
M  V30 2415 H 227.908 3.2429 2.24119 0
M  V30 2416 H 229.196 3.90221 3.26504 0
M  V30 2417 H 228.594 1.57456 5.43345 0
M  V30 2418 H 227.151 2.18021 6.14256 0
M  V30 2419 N 230.584 -0.659388 1.43143 0
M  V30 2420 C 231.824 -1.43121 1.45931 0
M  V30 2421 C 232.188 -1.91838 0.0789298 0
M  V30 2422 O 233.389 -2.68794 -0.018491 0
M  V30 2423 C 231.66 -2.58534 2.46769 0
M  V30 2424 S 233.219 -3.47154 2.68384 0
M  V30 2425 H 230.037 -0.488624 0.516496 0
M  V30 2426 H 232.639 -0.766128 1.79863 0
M  V30 2427 H 231.343 -2.21007 3.45809 0
M  V30 2428 H 230.874 -3.29898 2.14315 0
M  V30 2429 H 232.889 -4.55051 1.97845 0
M  V30 2430 N 232.062 -1.29571 -0.897171 0
M  V30 2431 C 233.025 -1.14913 -1.98312 0
M  V30 2432 C 234.025 -0.0838629 -1.60581 0
M  V30 2433 O 235.215 -0.331006 -1.71026 0
M  V30 2434 C 232.347 -0.757835 -3.3237 0
M  V30 2435 H 233.54 -2.11377 -2.12743 0
M  V30 2436 H 231.093 -1.12793 -1.08201 0
M  V30 2437 H 231.828 0.206837 -3.2364 0
M  V30 2438 H 231.613 -1.52755 -3.61121 0
M  V30 2439 H 233.103 -0.678408 -4.12053 0
M  V30 2440 N 233.54 1.10788 -1.12088 0
M  V30 2441 C 234.77 1.86191 -0.895351 0
M  V30 2442 C 235.178 1.80763 0.558702 0
M  V30 2443 O 234.521 1.19188 1.39785 0
M  V30 2444 C 234.583 3.35659 -1.28737 0
M  V30 2445 C 234.247 3.64849 -2.75198 0
M  V30 2446 C 235.244 3.61757 -3.734 0
M  V30 2447 C 232.929 3.93641 -3.12013 0
M  V30 2448 C 234.923 3.87045 -5.06434 0
M  V30 2449 C 232.61 4.18585 -4.4523 0
M  V30 2450 C 233.608 4.15277 -5.42249 0
M  V30 2451 O 233.296 4.3959 -6.73065 0
M  V30 2452 H 233.028 0.595425 -0.32007 0
M  V30 2453 H 235.582 1.40992 -1.49367 0
M  V30 2454 H 233.812 3.81497 -0.63224 0
M  V30 2455 H 235.501 3.92441 -1.03656 0
M  V30 2456 H 236.267 3.39557 -3.46303 0
M  V30 2457 H 232.146 3.95348 -2.37109 0
M  V30 2458 H 235.69 3.84378 -5.82151 0
M  V30 2459 H 231.587 4.40264 -4.72057 0
M  V30 2460 H 232.355 4.57123 -6.78956 0
M  V30 2461 N 235.018 0.912232 1.28515 0
M  V30 2462 C 236.267 0.540504 1.94323 0
M  V30 2463 C 236.58 -0.920044 1.72611 0
M  V30 2464 O 237.786 -1.39986 2.32629 0
M  V30 2465 C 236.242 0.915803 3.48053 0
M  V30 2466 C 235.85 2.39598 3.78546 0
M  V30 2467 C 237.594 0.614588 4.20027 0
M  V30 2468 C 235.501 2.71148 5.25578 0
M  V30 2469 H 234.431 0.198418 0.727424 0
M  V30 2470 H 237.082 1.11094 1.46049 0
M  V30 2471 H 235.464 0.274168 3.9505 0
M  V30 2472 H 236.638 3.08422 3.42364 0
M  V30 2473 H 234.953 2.66749 3.1974 0
M  V30 2474 H 237.55 0.827002 5.28266 0
M  V30 2475 H 237.893 -0.447531 4.13887 0
M  V30 2476 H 238.426 1.21462 3.78803 0
M  V30 2477 H 235.165 3.76207 5.36794 0
M  V30 2478 H 234.685 2.0696 5.62963 0
M  V30 2479 H 236.364 2.58072 5.93302 0
M  V30 2480 N 236.496 -1.42363 0.676048 0
M  V30 2481 C 237.446 -2.27987 -0.0242903 0
M  V30 2482 C 238.43 -1.41153 -0.772319 0
M  V30 2483 O 239.622 -1.64592 -0.651025 0
M  V30 2484 C 236.751 -3.29195 -0.973953 0
M  V30 2485 C 235.837 -4.23512 -0.223202 0
M  V30 2486 N 236.228 -4.99865 0.772589 0
M  V30 2487 C 234.526 -4.43606 -0.461469 0
M  V30 2488 C 235.227 -5.68757 1.22027 0
M  V30 2489 N 234.203 -5.40811 0.549975 0
M  V30 2490 H 238.005 -2.84445 0.73949 0
M  V30 2491 H 235.519 -1.54341 0.50522 0
M  V30 2492 H 237.516 -3.89339 -1.49067 0
M  V30 2493 H 236.176 -2.74298 -1.73755 0
M  V30 2494 H 237.187 -5.04921 1.15217 0
M  V30 2495 H 233.864 -3.99749 -1.20446 0
M  V30 2496 H 235.254 -6.40007 2.0455 0
M  V30 2497 N 237.974 -0.419461 -1.51915 0
M  V30 2498 C 238.904 0.391813 -2.30189 0
M  V30 2499 C 239.885 1.03699 -1.34836 0
M  V30 2500 O 241.07 1.04403 -1.63748 0
M  V30 2501 C 238.2 1.50312 -3.13087 0
M  V30 2502 C 237.154 0.9824 -4.16573 0
M  V30 2503 C 236.48 2.18809 -4.8788 0
M  V30 2504 C 237.78 0.0292356 -5.22292 0
M  V30 2505 H 239.474 -0.26135 -2.98257 0
M  V30 2506 H 237.02 -0.127134 -1.43438 0
M  V30 2507 H 238.973 2.07773 -3.66617 0
M  V30 2508 H 237.697 2.18431 -2.42807 0
M  V30 2509 H 236.356 0.430119 -3.64068 0
M  V30 2510 H 236.004 2.85507 -4.14119 0
M  V30 2511 H 235.704 1.84615 -5.57845 0
M  V30 2512 H 237.228 2.76858 -5.44226 0
M  V30 2513 H 238.642 0.512976 -5.71 0
M  V30 2514 H 237.039 -0.2244 -5.9968 0
M  V30 2515 H 238.109 -0.912931 -4.76228 0
M  V30 2516 N 239.452 1.56882 -0.150215 0
M  V30 2517 C 240.698 1.96518 0.500834 0
M  V30 2518 C 241.031 1.03527 1.64304 0
M  V30 2519 O 240.306 0.0782751 1.94342 0
M  V30 2520 C 240.589 3.45822 1.00395 0
M  V30 2521 C 240.442 4.49591 -0.136983 0
M  V30 2522 C 241.761 3.97704 1.88467 0
M  V30 2523 H 238.88 0.714535 0.18058 0
M  V30 2524 H 241.522 1.88577 -0.232091 0
M  V30 2525 H 239.672 3.5272 1.62851 0
M  V30 2526 H 241.344 4.5477 -0.77343 0
M  V30 2527 H 239.587 4.26441 -0.795652 0
M  V30 2528 H 240.258 5.51402 0.256815 0
M  V30 2529 H 242.734 3.93304 1.35834 0
M  V30 2530 H 241.61 5.0263 2.20578 0
M  V30 2531 H 241.871 3.40252 2.82279 0
M  V30 2532 N 240.93 -0.123565 1.57115 0
M  V30 2533 C 242.155 -0.850398 1.89164 0
M  V30 2534 C 242.58 -1.7286 0.741688 0
M  V30 2535 O 241.938 -1.78665 -0.307958 0
M  V30 2536 C 241.986 -1.66353 3.19936 0
M  V30 2537 O 241.09 -2.77004 3.0552 0
M  V30 2538 H 240.431 -0.235454 0.620852 0
M  V30 2539 H 242.961 -0.107335 2.04318 0
M  V30 2540 H 242.971 -2.05372 3.52543 0
M  V30 2541 H 241.646 -1.01881 4.03228 0
M  V30 2542 H 240.223 -2.41221 2.84371 0
M  V30 2543 N 242.408 -1.52605 -0.393616 0
M  V30 2544 C 243.824 -1.41753 -0.733357 0
M  V30 2545 C 244.024 -0.534293 -1.94287 0
M  V30 2546 O 243.08 -0.0059787 -2.52499 0
M  V30 2547 C 244.393 -2.84531 -0.972772 0
M  V30 2548 C 245.941 -2.93978 -1.07453 0
M  V30 2549 C 246.416 -4.37756 -1.3466 0
M  V30 2550 N 247.907 -4.4106 -1.41492 0
M  V30 2551 C 248.642 -5.49387 -1.642 0
M  V30 2552 N 248.138 -6.67806 -1.8441 0
M  V30 2553 N 249.931 -5.36923 -1.66342 0
M  V30 2554 H 242.082 -2.08555 0.402328 0
M  V30 2555 H 244.345 -0.940654 0.117789 0
M  V30 2556 H 244.051 -3.51353 -0.156204 0
M  V30 2557 H 243.925 -3.26508 -1.88871 0
M  V30 2558 H 246.312 -2.27326 -1.88167 0
M  V30 2559 H 246.393 -2.55435 -0.136605 0
M  V30 2560 H 246.037 -5.04972 -0.544581 0
M  V30 2561 H 245.967 -4.73848 -2.2973 0
M  V30 2562 H 248.458 -3.55705 -1.27601 0
M  V30 2563 H 248.771 -7.46141 -2.01231 0
M  V30 2564 H 247.116 -6.70843 -1.81644 0
M  V30 2565 H 250.307 -4.43381 -1.50102 0
M  V30 2566 H 250.48 -6.21416 -1.837 0
M  V30 2567 N 243.887 0.651787 -1.4349 0
M  V30 2568 C 244.797 1.79368 -1.5121 0
M  V30 2569 C 245.813 1.69361 -0.399093 0
M  V30 2570 O 246.989 1.90505 -0.653431 0
M  V30 2571 C 244.054 3.15653 -1.43401 0
M  V30 2572 C 243.115 3.37446 -2.65384 0
M  V30 2573 C 242.348 4.67229 -2.57939 0
M  V30 2574 O 242.571 5.46676 -1.62792 0
M  V30 2575 O 241.505 4.90773 -3.48462 0
M  V30 2576 H 245.331 1.7581 -2.47638 0
M  V30 2577 H 242.916 0.810447 -1.25507 0
M  V30 2578 H 244.798 3.96935 -1.41494 0
M  V30 2579 H 243.473 3.19798 -0.501085 0
M  V30 2580 H 242.38 2.55923 -2.72863 0
M  V30 2581 H 243.713 3.38148 -3.57654 0
M  V30 2582 N 245.365 1.30045 0.890287 0
M  V30 2583 C 246.275 1.17885 2.02831 0
M  V30 2584 C 247.291 0.0999609 1.73713 0
M  V30 2585 O 248.467 0.313867 1.98939 0
M  V30 2586 C 245.532 0.866079 3.35708 0
M  V30 2587 C 244.593 2.02979 3.78283 0
M  V30 2588 C 243.826 1.73184 5.0482 0
M  V30 2589 O 244.049 0.657237 5.66601 0
M  V30 2590 O 242.983 2.58267 5.43674 0
M  V30 2591 H 246.809 2.13474 2.16015 0
M  V30 2592 H 244.394 1.09587 1.01543 0
M  V30 2593 H 246.276 0.706623 4.15433 0
M  V30 2594 H 244.951 -0.0599443 3.23644 0
M  V30 2595 H 243.858 2.24454 2.99285 0
M  V30 2596 H 245.191 2.93734 3.94944 0
M  V30 2597 N 246.843 -1.10192 1.12674 0
M  V30 2598 C 248.083 -1.83825 0.893736 0
M  V30 2599 C 248.447 -1.83341 -0.570082 0
M  V30 2600 O 249.648 -2.52553 -0.920354 0
M  V30 2601 C 247.919 -3.26405 1.45582 0
M  V30 2602 S 249.478 -4.17136 1.36171 0
M  V30 2603 H 246.296 -0.633732 0.322342 0
M  V30 2604 H 248.898 -1.32581 1.43675 0
M  V30 2605 H 247.602 -3.24329 2.51473 0
M  V30 2606 H 247.133 -3.82721 0.910405 0
M  V30 2607 H 249.148 -4.95069 0.334863 0
M  V30 2608 N 248.321 -0.919034 -1.28029 0
M  V30 2609 C 249.231 -0.416756 -2.30869 0
M  V30 2610 C 250.247 0.498235 -1.66714 0
M  V30 2611 O 251.423 0.383144 -1.97722 0
M  V30 2612 C 248.488 0.330274 -3.45123 0
M  V30 2613 C 247.549 -0.618578 -4.2482 0
M  V30 2614 C 246.782 0.0928959 -5.33619 0
M  V30 2615 O 247.005 1.31375 -5.55065 0
M  V30 2616 O 245.939 -0.574499 -5.99152 0
M  V30 2617 H 249.765 -1.27043 -2.75851 0
M  V30 2618 H 247.35 -0.684052 -1.3282 0
M  V30 2619 H 249.232 0.751972 -4.14636 0
M  V30 2620 H 247.907 1.1597 -3.02213 0
M  V30 2621 H 246.814 -1.08978 -3.57875 0
M  V30 2622 H 248.147 -1.41497 -4.71423 0
M  V30 2623 N 249.799 1.42003 -0.683588 0
M  V30 2624 C 250.749 2.27997 0.0121992 0
M  V30 2625 C 251.733 1.4156 0.764822 0
M  V30 2626 O 252.925 1.64935 0.642287 0
M  V30 2627 C 250.054 3.29706 0.956482 0
M  V30 2628 C 249.14 4.23625 0.200739 0
M  V30 2629 N 249.531 4.99448 -0.799087 0
M  V30 2630 C 247.829 4.43845 0.437937 0
M  V30 2631 C 248.53 5.68102 -1.25041 0
M  V30 2632 N 247.506 5.40511 -0.578648 0
M  V30 2633 H 251.308 2.84048 -0.754564 0
M  V30 2634 H 248.822 1.54071 -0.513398 0
M  V30 2635 H 250.819 3.90124 1.47 0
M  V30 2636 H 249.479 2.75216 1.72297 0
M  V30 2637 H 250.49 5.04303 -1.17893 0
M  V30 2638 H 247.167 4.00382 1.18325 0
M  V30 2639 H 248.557 6.38913 -2.07942 0
M  V30 2640 N 251.277 0.427512 1.51691 0
M  V30 2641 C 252.24 -0.377132 2.26076 0
M  V30 2642 C 253.24 -0.958089 1.29141 0
M  V30 2643 O 254.43 -0.83408 1.52934 0
M  V30 2644 C 251.562 -1.53262 3.04506 0
M  V30 2645 H 252.755 0.27464 2.9864 0
M  V30 2646 H 250.308 0.180445 1.55255 0
M  V30 2647 H 251.043 -2.22072 2.36335 0
M  V30 2648 H 250.828 -1.12232 3.75694 0
M  V30 2649 H 252.318 -2.10135 3.60878 0
M  V30 2650 N 252.755 -1.56801 0.158532 0
M  V30 2651 C 253.985 -2.00568 -0.495583 0
M  V30 2652 C 254.393 -1.03774 -1.58201 0
M  V30 2653 O 253.736 -0.0285797 -1.83678 0
M  V30 2654 C 253.798 -3.40768 -1.14532 0
M  V30 2655 C 253.462 -4.56553 -0.202101 0
M  V30 2656 C 254.459 -5.16714 0.574675 0
M  V30 2657 C 252.144 -5.02197 -0.101648 0
M  V30 2658 C 254.138 -6.20939 1.43924 0
M  V30 2659 C 251.825 -6.06274 0.766508 0
M  V30 2660 C 252.823 -6.65515 1.53555 0
M  V30 2661 O 252.511 -7.67575 2.38922 0
M  V30 2662 H 252.243 -0.662893 -0.13247 0
M  V30 2663 H 254.797 -2.03829 0.253559 0
M  V30 2664 H 253.027 -3.34381 -1.94233 0
M  V30 2665 H 254.716 -3.6857 -1.70033 0
M  V30 2666 H 255.482 -4.82341 0.507167 0
M  V30 2667 H 251.361 -4.55807 -0.689994 0
M  V30 2668 H 254.905 -6.67107 2.03996 0
M  V30 2669 H 250.802 -6.40073 0.835266 0
M  V30 2670 H 251.57 -7.84844 2.32296 0
M  V30 2671 N 254.233 0.115231 -1.57178 0
M  V30 2672 C 255.644 0.67197 -1.74188 0
M  V30 2673 C 255.995 1.80125 -0.777777 0
M  V30 2674 O 255.12 2.16346 0.0484376 0
M  V30 2675 C 255.715 1.22573 -3.1585 0
M  V30 2676 C 254.274 1.72872 -3.34353 0
M  V30 2677 C 253.421 0.629972 -2.70049 0
M  V30 2678 H 256.372 -0.110712 -1.58313 0
M  V30 2679 H 256.393 2.09535 -3.17609 0
M  V30 2680 H 255.905 0.403598 -3.85996 0
M  V30 2681 H 254.006 2.5755 -2.69256 0
M  V30 2682 H 254.119 1.83557 -4.42542 0
M  V30 2683 H 252.483 1.0645 -2.31388 0
M  V30 2684 H 253.266 -0.181241 -3.42821 0
M  V30 2685 N 255.711 1.52812 0.385517 0
M  V30 2686 C 256.959 1.67694 1.12797 0
M  V30 2687 C 257.28 0.421115 1.90399 0
M  V30 2688 O 256.55 -0.564551 1.87589 0
M  V30 2689 H 255.13 0.618155 0.419396 0
M  V30 2690 H 257.792 1.89938 0.436972 0
M  V30 2691 H 256.888 2.52896 1.82894 0
M  V30 2692 N 257.189 -0.644168 1.43834 0
M  V30 2693 C 258.121 -1.76955 1.45669 0
M  V30 2694 C 259.134 -1.58956 0.351666 0
M  V30 2695 O 260.323 -1.6751 0.616644 0
M  V30 2696 C 257.423 -3.14507 1.26248 0
M  V30 2697 C 256.596 -3.59083 2.49757 0
M  V30 2698 C 255.655 -4.75467 2.25427 0
M  V30 2699 O 254.681 -4.84444 2.98836 0
M  V30 2700 N 255.883 -5.66289 1.27661 0
M  V30 2701 H 258.648 -1.75856 2.42682 0
M  V30 2702 H 256.209 -0.828312 1.39106 0
M  V30 2703 H 258.201 -3.90067 1.0784 0
M  V30 2704 H 256.771 -3.10325 0.376478 0
M  V30 2705 H 255.991 -2.7387 2.8353 0
M  V30 2706 H 257.279 -3.85613 3.31934 0
M  V30 2707 H 256.677 -5.61718 0.670064 0
M  V30 2708 H 255.234 -6.41533 1.15234 0
M  V30 2709 N 258.668 -1.30515 -0.883378 0
M  V30 2710 C 259.917 -1.18795 -1.63005 0
M  V30 2711 C 260.23 0.255923 -1.93919 0
M  V30 2712 O 261.436 0.494654 -2.66956 0
M  V30 2713 C 259.892 -2.07878 -2.93794 0
M  V30 2714 C 259.5 -3.57184 -2.70414 0
M  V30 2715 C 261.244 -2.04924 -3.71761 0
M  V30 2716 C 259.151 -4.38317 -3.97029 0
M  V30 2717 H 258.081 -0.441031 -0.611562 0
M  V30 2718 H 260.732 -1.55275 -0.977854 0
M  V30 2719 H 259.114 -1.64283 -3.60315 0
M  V30 2720 H 260.288 -4.08937 -2.12384 0
M  V30 2721 H 258.603 -3.61976 -2.0582 0
M  V30 2722 H 261.2 -2.62792 -4.65665 0
M  V30 2723 H 261.543 -1.0331 -4.03277 0
M  V30 2724 H 262.076 -2.46649 -3.12104 0
M  V30 2725 H 258.815 -5.40632 -3.70671 0
M  V30 2726 H 258.335 -3.91326 -4.54559 0
M  V30 2727 H 260.014 -4.49834 -4.65036 0
M  V30 2728 N 260.146 1.09593 -1.13257 0
M  V30 2729 C 261.374 1.855 -0.916378 0
M  V30 2730 C 261.789 1.81069 0.534738 0
M  V30 2731 O 261.146 1.20562 1.37007 0
M  V30 2732 C 261.197 3.33546 -1.39388 0
M  V30 2733 O 260.918 3.37927 -2.78813 0
M  V30 2734 C 262.419 4.26299 -1.21588 0
M  V30 2735 H 259.639 0.585991 -0.326887 0
M  V30 2736 H 262.183 1.38488 -1.5047 0
M  V30 2737 H 260.338 3.77992 -0.848597 0
M  V30 2738 H 260.752 4.30254 -2.9997 0
M  V30 2739 H 262.226 5.28341 -1.59876 0
M  V30 2740 H 262.703 4.38918 -0.157376 0
M  V30 2741 H 263.309 3.87668 -1.7491 0
M  V30 2742 N 261.624 0.925811 1.2754 0
M  V30 2743 C 262.556 0.380753 2.26015 0
M  V30 2744 C 263.569 -0.487485 1.5533 0
M  V30 2745 O 264.758 -0.300413 1.75954 0
M  V30 2746 C 261.858 -0.473259 3.35579 0
M  V30 2747 C 261.031 0.375249 4.35787 0
M  V30 2748 C 260.09 -0.415809 5.24555 0
M  V30 2749 O 259.116 0.175834 5.68928 0
M  V30 2750 N 260.318 -1.71607 5.54555 0
M  V30 2751 H 263.083 1.22725 2.73421 0
M  V30 2752 H 260.644 0.793037 1.41147 0
M  V30 2753 H 262.636 -1.00949 3.91907 0
M  V30 2754 H 261.206 -1.2205 2.87789 0
M  V30 2755 H 260.426 1.09279 3.7875 0
M  V30 2756 H 261.714 0.955399 4.99749 0
M  V30 2757 H 261.112 -2.2191 5.20358 0
M  V30 2758 H 259.669 -2.19887 6.1359 0
M  V30 2759 N 263.102 -1.41638 0.69111 0
M  V30 2760 C 264.05 -2.32597 0.0115199 0
M  V30 2761 C 265.044 -1.5072 -0.773296 0
M  V30 2762 O 266.25 -1.66685 -0.67942 0
M  V30 2763 H 262.625 -0.751849 -0.0150746 0
M  V30 2764 H 264.596 -2.87593 0.795791 0
M  V30 2765 C 263.345 -3.35467 -0.914172 0
M  V30 2766 H 262.668 -3.9852 -0.319687 0
M  V30 2767 H 264.108 -4.01662 -1.35808 0
M  V30 2768 C 262.567 -2.69004 -2.02826 0
M  V30 2769 O 263.097 -2.53444 -3.11655 0
M  V30 2770 N 261.303 -2.2777 -1.80469 0
M  V30 2771 H 260.85 -2.40626 -0.919615 0
M  V30 2772 H 260.808 -1.83635 -2.55197 0
M  V30 2773 N 264.58 -0.43555 -1.51462 0
M  V30 2774 C 265.513 0.421989 -2.24264 0
M  V30 2775 C 266.491 1.02619 -1.26127 0
M  V30 2776 O 267.675 1.069 -1.55257 0
M  V30 2777 C 264.802 1.588 -2.99166 0
M  V30 2778 C 263.848 1.10465 -4.11946 0
M  V30 2779 S 264.681 0.048146 -5.35478 0
M  V30 2780 C 265.837 1.21887 -6.13917 0
M  V30 2781 H 266.07 -0.196102 -2.96653 0
M  V30 2782 H 263.603 -0.220054 -1.52824 0
M  V30 2783 H 265.561 2.25647 -3.42919 0
M  V30 2784 H 264.222 2.1775 -2.26371 0
M  V30 2785 H 263.415 1.97654 -4.63626 0
M  V30 2786 H 263.017 0.51445 -3.70445 0
M  V30 2787 H 265.309 2.13756 -6.42895 0
M  V30 2788 H 266.252 0.742076 -7.04201 0
M  V30 2789 H 266.66 1.45663 -5.45383 0
M  V30 2790 N 266.058 1.56714 -0.166846 0
M  V30 2791 C 266.988 2.20754 0.760913 0
M  V30 2792 C 267.969 1.16178 1.24244 0
M  V30 2793 O 269.154 1.44592 1.29641 0
M  V30 2794 C 266.284 2.84478 1.99223 0
M  V30 2795 C 265.238 3.95053 1.64672 0
M  V30 2796 C 264.564 4.45805 2.95232 0
M  V30 2797 C 265.864 5.14865 0.878155 0
M  V30 2798 H 267.558 2.98537 0.22713 0
M  V30 2799 H 265.104 1.43596 0.107805 0
M  V30 2800 H 267.057 3.27951 2.64624 0
M  V30 2801 H 265.781 2.04056 2.55007 0
M  V30 2802 H 264.44 3.52228 1.01641 0
M  V30 2803 H 264.088 3.62181 3.49047 0
M  V30 2804 H 263.788 5.204 2.7287 0
M  V30 2805 H 265.312 4.91962 3.6167 0
M  V30 2806 H 266.726 5.55059 1.43466 0
M  V30 2807 H 265.123 5.95348 0.753738 0
M  V30 2808 H 266.193 4.84735 -0.126377 0
M  V30 2809 N 267.536 -0.106894 1.57237 0
M  V30 2810 C 268.776 -0.818277 1.87306 0
M  V30 2811 C 269.14 -1.76474 0.756371 0
M  V30 2812 O 270.341 -2.5186 0.939155 0
M  V30 2813 C 268.612 -1.53806 3.22612 0
M  V30 2814 S 270.171 -2.28935 3.74345 0
M  V30 2815 H 266.989 -0.272862 0.656557 0
M  V30 2816 H 269.591 -0.075988 1.95352 0
M  V30 2817 H 268.295 -0.834951 4.01817 0
M  V30 2818 H 267.826 -2.32049 3.17674 0
M  V30 2819 H 269.841 -3.54871 3.46815 0
M  V30 2820 N 269.014 -1.53014 -0.377408 0
M  V30 2821 C 269.977 -1.77957 -1.44444 0
M  V30 2822 C 270.977 -0.649763 -1.47087 0
M  V30 2823 O 272.167 -0.917897 -1.48055 0
M  V30 2824 C 269.299 -1.89089 -2.83651 0
M  V30 2825 H 270.492 -2.73243 -1.23606 0
M  V30 2826 H 268.045 -1.43912 -0.609844 0
M  V30 2827 H 268.78 -0.958293 -3.09818 0
M  V30 2828 H 268.565 -2.71254 -2.83132 0
M  V30 2829 H 270.055 -2.1002 -3.60945 0
M  V30 2830 N 270.492 0.636531 -1.44174 0
M  V30 2831 C 271.74 1.39343 -1.46383 0
M  V30 2832 C 272.061 1.94766 -0.0955715 0
M  V30 2833 O 271.331 1.75452 0.871395 0
M  V30 2834 H 269.911 0.517199 -0.538994 0
M  V30 2835 H 272.573 0.74957 -1.7991 0
M  V30 2836 H 271.669 2.22746 -2.18611 0
M  V30 2837 N 271.97 1.30982 0.876444 0
M  V30 2838 C 273.247 1.10942 1.61094 0
M  V30 2839 C 273.627 -0.338223 2.08373 0
M  V30 2840 O 272.975 -1.33122 1.85717 0
M  V30 2841 C 273.185 2.11789 2.77392 0
M  V30 2842 C 274.533 2.43965 3.47514 0
M  V30 2843 O 275.557 2.10166 2.87591 0
M  V30 2844 O 274.416 3.01817 4.55597 0
M  V30 2845 H 271.51 0.42667 0.708436 0
M  V30 2846 H 274.056 1.42438 0.922474 0
M  V30 2847 H 272.828 3.09194 2.39823 0
M  V30 2848 H 272.451 1.81161 3.5393 0
M  V30 2849 N 273.449 -1.08991 1.13837 0
M  V30 2850 C 274.359 -2.19301 0.833333 0
M  V30 2851 C 275.375 -1.73026 -0.183847 0
M  V30 2852 O 276.551 -2.01395 -0.0138092 0
M  V30 2853 C 273.616 -3.45323 0.308651 0
M  V30 2854 C 272.677 -4.06255 1.38764 0
M  V30 2855 C 271.91 -5.26262 0.887896 0
M  V30 2856 O 272.133 -5.69747 -0.27287 0
M  V30 2857 O 271.067 -5.78435 1.66421 0
M  V30 2858 H 274.893 -2.47854 1.75506 0
M  V30 2859 H 272.478 -1.18012 0.916166 0
M  V30 2860 H 274.36 -4.21394 0.0216739 0
M  V30 2861 H 273.035 -3.18362 -0.585431 0
M  V30 2862 H 271.942 -3.318 1.72799 0
M  V30 2863 H 273.275 -4.37452 2.25602 0
M  V30 2864 N 274.927 -0.932562 -1.27047 0
M  V30 2865 C 275.874 -0.434072 -2.26681 0
M  V30 2866 C 276.844 0.501639 -1.58344 0
M  V30 2867 O 278.029 0.419734 -1.86126 0
M  V30 2868 C 275.169 0.30261 -3.43771 0
M  V30 2869 C 274.282 -0.667774 -4.26808 0
M  V30 2870 C 273.417 0.0892393 -5.31125 0
M  V30 2871 C 272.456 -0.873532 -6.05835 0
M  V30 2872 N 271.593 -0.148832 -7.01942 0
M  V30 2873 H 276.433 -1.28868 -2.68695 0
M  V30 2874 H 273.97 -0.646713 -1.32121 0
M  V30 2875 H 275.928 0.746092 -4.10474 0
M  V30 2876 H 274.558 1.12142 -3.02695 0
M  V30 2877 H 273.61 -1.22978 -3.59973 0
M  V30 2878 H 274.922 -1.40337 -4.78651 0
M  V30 2879 H 274.076 0.592409 -6.03801 0
M  V30 2880 H 272.815 0.85777 -4.80097 0
M  V30 2881 H 271.82 -1.38791 -5.31994 0
M  V30 2882 H 273.045 -1.64193 -6.58952 0
M  V30 2883 H 270.991 0.601365 -6.53238 0
M  V30 2884 H 270.908 -0.82391 -7.51497 0
M  V30 2885 H 272.176 0.333527 -7.78786 0
M  V30 2886 N 276.405 1.4127 -0.698611 0
M  V30 2887 C 277.635 2.05205 -0.239644 0
M  V30 2888 C 278.043 1.52684 1.11733 0
M  V30 2889 O 277.386 0.671222 1.70998 0
M  V30 2890 C 277.448 3.59289 -0.123126 0
M  V30 2891 C 277.112 4.34619 -1.41263 0
M  V30 2892 C 278.109 4.63701 -2.35111 0
M  V30 2893 C 275.794 4.73837 -1.66684 0
M  V30 2894 C 277.788 5.30966 -3.52639 0
M  V30 2895 C 275.475 5.40837 -2.84498 0
M  V30 2896 C 276.473 5.69329 -3.77298 0
M  V30 2897 O 276.161 6.34949 -4.93047 0
M  V30 2898 H 275.893 0.66723 -0.108537 0
M  V30 2899 H 278.447 1.81974 -0.952602 0
M  V30 2900 H 276.677 3.81272 0.645628 0
M  V30 2901 H 278.366 4.04797 0.299056 0
M  V30 2902 H 279.132 4.33882 -2.16729 0
M  V30 2903 H 275.011 4.51039 -0.953135 0
M  V30 2904 H 278.555 5.53121 -4.25091 0
M  V30 2905 H 274.452 5.70075 -3.02795 0
M  V30 2906 H 275.22 6.53445 -4.92902 0
M  V30 2907 N 277.883 0.443576 1.51229 0
M  V30 2908 C 279.131 -0.120557 2.0174 0
M  V30 2909 C 279.452 -1.42665 1.32935 0
M  V30 2910 O 278.722 -1.9028 0.465866 0
M  V30 2911 H 277.302 -0.0475426 0.745486 0
M  V30 2912 H 279.964 0.587711 1.85828 0
M  V30 2913 H 279.06 -0.291972 3.10731 0
M  V30 2914 N 279.361 -1.56624 0.175154 0
M  V30 2915 C 280.308 -2.18149 -0.753634 0
M  V30 2916 C 281.278 -1.12265 -1.22417 0
M  V30 2917 O 282.463 -1.40432 -1.29165 0
M  V30 2918 C 279.603 -2.82933 -1.97592 0
M  V30 2919 C 278.716 -4.03289 -1.5486 0
M  V30 2920 C 277.851 -4.55988 -2.72485 0
M  V30 2921 C 276.89 -5.68746 -2.26262 0
M  V30 2922 N 276.027 -6.15938 -3.36994 0
M  V30 2923 H 280.867 -2.9717 -0.222195 0
M  V30 2924 H 278.404 -1.46774 -0.0979422 0
M  V30 2925 H 280.362 -3.18653 -2.69288 0
M  V30 2926 H 278.992 -2.06509 -2.481 0
M  V30 2927 H 278.044 -3.73364 -0.728246 0
M  V30 2928 H 279.356 -4.849 -1.16933 0
M  V30 2929 H 278.51 -4.9391 -3.52332 0
M  V30 2930 H 277.249 -3.73443 -3.13674 0
M  V30 2931 H 276.254 -5.30372 -1.44863 0
M  V30 2932 H 277.479 -6.53095 -1.86127 0
M  V30 2933 H 275.425 -5.36321 -3.77751 0
M  V30 2934 H 275.342 -6.92548 -3.03172 0
M  V30 2935 H 276.61 -6.58511 -4.17114 0
M  V30 2936 N 280.839 0.0985539 -1.57292 0
M  V30 2937 C 282.116 0.834155 -1.76921 0
M  V30 2938 C 282.496 1.97101 -0.755928 0
M  V30 2939 O 281.844 2.27474 0.216245 0
M  V30 2940 C 282.054 1.33194 -3.22584 0
M  V30 2941 C 283.402 1.77611 -3.85668 0
M  V30 2942 O 284.426 1.42825 -3.26312 0
M  V30 2943 O 283.285 2.4192 -4.90038 0
M  V30 2944 H 280.379 0.397628 -0.725135 0
M  V30 2945 H 282.925 0.0807044 -1.69508 0
M  V30 2946 H 281.697 0.517248 -3.87866 0
M  V30 2947 H 281.32 2.1475 -3.34616 0
M  V30 2948 N 282.317 1.53212 0.369288 0
M  V30 2949 C 283.542 1.73423 1.1375 0
M  V30 2950 C 283.967 0.460404 1.82378 0
M  V30 2951 O 283.325 -0.585298 1.71592 0
M  V30 2952 C 283.373 2.89769 2.1463 0
M  V30 2953 O 282.477 2.58119 3.21634 0
M  V30 2954 H 281.818 0.576061 0.330227 0
M  V30 2955 H 284.348 2.00083 0.427547 0
M  V30 2956 H 284.358 3.15829 2.58294 0
M  V30 2957 H 283.033 3.8217 1.64071 0
M  V30 2958 H 281.61 2.42864 2.82969 0
M  V30 2959 N 283.795 -0.628877 1.44509 0
M  V30 2960 C 285.035 -1.39993 1.48934 0
M  V30 2961 C 285.399 -1.91627 0.119604 0
M  V30 2962 O 286.6 -2.68772 0.0385283 0
M  V30 2963 C 284.871 -2.53241 2.52198 0
M  V30 2964 S 286.43 -3.41383 2.75687 0
M  V30 2965 H 283.248 -0.477558 0.526744 0
M  V30 2966 H 285.85 -0.727804 1.81448 0
M  V30 2967 H 284.554 -2.13622 3.50419 0
M  V30 2968 H 284.085 -3.25278 2.21264 0
M  V30 2969 H 286.1 -4.50752 2.07453 0
M  V30 2970 N 285.273 -1.31445 -0.869486 0
M  V30 2971 C 286.205 -1.14955 -1.98287 0
M  V30 2972 C 287.218 -0.0885037 -1.62559 0
M  V30 2973 O 288.407 -0.336044 -1.75308 0
M  V30 2974 C 285.507 -0.734255 -3.3085 0
M  V30 2975 C 284.68 -1.88042 -3.94917 0
M  V30 2976 C 283.739 -1.4511 -5.05796 0
M  V30 2977 O 282.765 -2.16082 -5.2659 0
M  V30 2978 N 283.967 -0.338763 -5.79511 0
M  V30 2979 H 286.732 -2.10856 -2.12979 0
M  V30 2980 H 284.293 -1.23786 -1.04349 0
M  V30 2981 H 286.285 -0.42975 -4.02412 0
M  V30 2982 H 284.855 0.133158 -3.12316 0
M  V30 2983 H 284.075 -2.35222 -3.1633 0
M  V30 2984 H 285.363 -2.6481 -4.34457 0
M  V30 2985 H 284.761 0.252274 -5.65137 0
M  V30 2986 H 283.318 -0.0937925 -6.51733 0
M  V30 2987 N 286.751 1.08385 -1.14413 0
M  V30 2988 C 287.999 1.80419 -0.910679 0
M  V30 2989 C 288.32 1.86658 0.564243 0
M  V30 2990 O 287.59 1.35985 1.41014 0
M  V30 2991 H 286.17 0.668204 -0.333934 0
M  V30 2992 H 288.832 1.31037 -1.44275 0
M  V30 2993 H 287.928 2.83238 -1.31082 0
M  V30 2994 N 288.23 0.939286 1.26551 0
M  V30 2995 C 289.507 0.5038 1.89001 0
M  V30 2996 C 289.887 -1.01854 1.84903 0
M  V30 2997 O 289.235 -1.87773 1.30206 0
M  V30 2998 C 289.445 1.063 3.32417 0
M  V30 2999 C 290.793 1.13051 4.09273 0
M  V30 3000 O 291.817 1.01345 3.41479 0
M  V30 3001 O 290.676 1.31233 5.30509 0
M  V30 3002 H 287.77 0.163897 0.810597 0
M  V30 3003 H 290.316 1.03173 1.34735 0
M  V30 3004 H 289.088 2.10665 3.29752 0
M  V30 3005 H 288.711 0.517408 3.94219 0
M  V30 3006 N 289.708 -1.40897 0.706093 0
M  V30 3007 C 290.933 -2.05895 0.249435 0
M  V30 3008 C 291.358 -1.52823 -1.09666 0
M  V30 3009 O 290.716 -0.659589 -1.68876 0
M  V30 3010 C 290.764 -3.59872 0.22904 0
M  V30 3011 O 289.868 -4.04708 -0.792784 0
M  V30 3012 H 289.209 -0.653206 0.119241 0
M  V30 3013 H 291.739 -1.80471 0.96391 0
M  V30 3014 H 291.749 -4.07951 0.0634791 0
M  V30 3015 H 290.424 -3.97866 1.21141 0
M  V30 3016 H 289.001 -3.68111 -0.59572 0
M  V30 3017 N 291.186 -0.45159 -1.50991 0
M  V30 3018 C 292.434 0.109857 -2.01801 0
M  V30 3019 C 292.755 1.41958 -1.3369 0
M  V30 3020 O 292.025 1.9003 -0.475951 0
M  V30 3021 H 290.605 0.0435884 -0.745727 0
M  V30 3022 H 293.267 -0.597557 -1.85514 0
M  V30 3023 H 292.363 0.275489 -3.10882 0
M  V30 3024 N 292.664 1.56529 -0.183458 0
M  V30 3025 C 293.912 1.96855 0.457452 0
M  V30 3026 C 294.233 1.07104 1.62953 0
M  V30 3027 O 293.503 0.139887 1.954 0
M  V30 3028 H 292.083 0.72693 0.171992 0
M  V30 3029 H 294.745 1.93056 -0.267476 0
M  V30 3030 H 293.841 3.01423 0.809368 0
M  V30 3031 N 294.142 -0.090211 1.57342 0
M  V30 3032 C 295.553 -0.644173 1.75235 0
M  V30 3033 C 295.904 -1.78865 0.806335 0
M  V30 3034 O 295.029 -2.16395 -0.0140128 0
M  V30 3035 C 295.624 -1.17532 3.1776 0
M  V30 3036 C 294.183 -1.67531 3.37061 0
M  V30 3037 C 293.33 -0.58693 2.71017 0
M  V30 3038 H 296.281 0.135884 1.58117 0
M  V30 3039 H 296.302 -2.04455 3.20902 0
M  V30 3040 H 295.814 -0.342138 3.86589 0
M  V30 3041 H 293.915 -2.53234 2.73319 0
M  V30 3042 H 294.028 -1.76493 4.45406 0
M  V30 3043 H 292.392 -1.02756 2.33052 0
M  V30 3044 H 293.175 0.235758 3.4249 0
M  V30 3045 N 295.62 -1.53406 -0.361157 0
M  V30 3046 C 296.55 -1.83136 -1.44857 0
M  V30 3047 C 297.531 -0.685174 -1.5569 0
M  V30 3048 O 298.716 -0.93544 -1.70186 0
M  V30 3049 C 295.846 -2.02522 -2.82138 0
M  V30 3050 C 294.8 -3.18302 -2.86126 0
M  V30 3051 C 294.126 -3.22989 -4.26125 0
M  V30 3052 C 295.426 -4.56796 -2.53248 0
M  V30 3053 H 297.12 -2.74201 -1.20226 0
M  V30 3054 H 294.666 -1.31938 -0.576922 0
M  V30 3055 H 296.619 -2.21904 -3.58241 0
M  V30 3056 H 295.343 -1.08172 -3.08166 0
M  V30 3057 H 294.002 -2.98747 -2.12475 0
M  V30 3058 H 293.65 -2.26267 -4.49235 0
M  V30 3059 H 293.35 -4.00781 -4.29708 0
M  V30 3060 H 294.874 -3.44559 -5.04094 0
M  V30 3061 H 296.288 -4.7631 -3.19064 0
M  V30 3062 H 294.685 -5.36862 -2.68141 0
M  V30 3063 H 295.755 -4.61606 -1.48484 0
M  V30 3064 N 297.098 0.621204 -1.44841 0
M  V30 3065 C 298.344 1.3826 -1.48365 0
M  V30 3066 C 298.677 1.93831 -0.119624 0
M  V30 3067 O 297.952 1.74251 0.864111 0
M  V30 3068 C 298.235 2.54058 -2.55199 0
M  V30 3069 C 298.088 2.03772 -4.00995 0
M  V30 3070 C 299.407 3.56225 -2.58442 0
M  V30 3071 H 296.526 0.501374 -0.540179 0
M  V30 3072 H 299.168 0.7015 -1.76576 0
M  V30 3073 H 297.318 3.12162 -2.31274 0
M  V30 3074 H 298.99 1.50423 -4.36086 0
M  V30 3075 H 297.233 1.34876 -4.12299 0
M  V30 3076 H 297.904 2.87185 -4.71411 0
M  V30 3077 H 300.38 3.07939 -2.79844 0
M  V30 3078 H 299.256 4.34756 -3.3508 0
M  V30 3079 H 299.517 4.10949 -1.63013 0
M  V30 3080 N 298.576 1.31904 0.862503 0
M  V30 3081 C 299.816 1.23324 1.63004 0
M  V30 3082 C 300.18 -0.203724 1.90916 0
M  V30 3083 O 301.381 -0.413132 2.65606 0
M  V30 3084 C 299.652 2.06116 2.91978 0
M  V30 3085 S 301.211 2.14478 3.82812 0
M  V30 3086 H 298.029 0.439117 0.559193 0
M  V30 3087 H 300.631 1.66658 1.02202 0
M  V30 3088 H 299.335 3.09593 2.69407 0
M  V30 3089 H 298.866 1.6353 3.57801 0
M  V30 3090 H 300.881 1.28855 4.79177 0
M  V30 3091 N 300.054 -1.07777 1.14986 0
M  V30 3092 C 301.302 -1.79934 0.920235 0
M  V30 3093 C 301.623 -1.86955 -0.554336 0
M  V30 3094 O 300.893 -1.36731 -1.40291 0
M  V30 3095 H 299.473 -0.666424 0.337473 0
M  V30 3096 H 302.135 -1.3027 1.44968 0
M  V30 3097 H 301.231 -2.82539 1.32583 0
M  V30 3098 N 301.532 -0.945985 -1.26051 0
M  V30 3099 C 302.809 -0.513816 -1.88731 0
M  V30 3100 C 303.189 1.00872 -1.8544 0
M  V30 3101 O 302.537 1.8708 -1.312 0
M  V30 3102 C 302.747 -1.08062 -3.31849 0
M  V30 3103 C 304.095 -1.1522 -4.08668 0
M  V30 3104 O 305.119 -1.03155 -3.40936 0
M  V30 3105 O 303.978 -1.34044 -5.29806 0
M  V30 3106 H 301.072 -0.168193 -0.809716 0
M  V30 3107 H 303.618 -1.03886 -1.34186 0
M  V30 3108 H 302.39 -2.1241 -3.2863 0
M  V30 3109 H 302.013 -0.538307 -3.93939 0
M  V30 3110 N 303.011 1.40521 -0.713556 0
M  V30 3111 C 303.961 2.27971 -0.036165 0
M  V30 3112 C 304.945 1.43151 0.734623 0
M  V30 3113 O 306.137 1.66261 0.607158 0
M  V30 3114 C 303.266 3.31661 0.886331 0
M  V30 3115 C 302.352 4.23955 0.110836 0
M  V30 3116 N 302.743 4.97641 -0.904847 0
M  V30 3117 C 301.041 4.44674 0.343692 0
M  V30 3118 C 301.742 5.65322 -1.37064 0
M  V30 3119 N 300.718 5.39162 -0.693168 0
M  V30 3120 H 304.52 2.82384 -0.814645 0
M  V30 3121 H 302.034 1.52948 -0.545963 0
M  V30 3122 H 304.031 3.93154 1.38692 0
M  V30 3123 H 302.691 2.78808 1.66421 0
M  V30 3124 H 303.702 5.01689 -1.28563 0
M  V30 3125 H 300.379 4.02801 1.09805 0
M  V30 3126 H 301.769 6.34359 -2.21447 0
M  V30 3127 N 304.489 0.459591 1.5075 0
M  V30 3128 C 305.419 -0.330644 2.31147 0
M  V30 3129 C 306.4 -1.00087 1.37538 0
M  V30 3130 O 307.585 -1.00025 1.66459 0
M  V30 3131 C 304.715 -1.41958 3.16962 0
M  V30 3132 C 303.669 -0.871608 4.19031 0
M  V30 3133 C 302.995 -2.05797 4.9351 0
M  V30 3134 C 304.295 0.109251 5.22186 0
M  V30 3135 H 305.989 0.340336 2.97459 0
M  V30 3136 H 303.535 0.165119 1.4305 0
M  V30 3137 H 305.488 -1.9798 3.71997 0
M  V30 3138 H 304.212 -2.11917 2.48513 0
M  V30 3139 H 302.871 -0.333442 3.6508 0
M  V30 3140 H 302.519 -2.74427 4.21544 0
M  V30 3141 H 302.219 -1.6976 5.62544 0
M  V30 3142 H 303.743 -2.62331 5.51375 0
M  V30 3143 H 305.157 -0.361405 5.7216 0
M  V30 3144 H 303.554 0.383316 5.98875 0
M  V30 3145 H 304.624 1.03887 4.73641 0
M  V30 3146 N 305.967 -1.56429 0.191757 0
M  V30 3147 C 307.383 -1.58754 -0.164137 0
M  V30 3148 C 307.583 -1.20782 -1.61288 0
M  V30 3149 O 306.639 -0.928999 -2.34789 0
M  V30 3150 C 307.952 -3.00396 0.135195 0
M  V30 3151 C 309.5 -3.1291 0.0750351 0
M  V30 3152 C 309.975 -4.56679 0.347632 0
M  V30 3153 N 311.466 -4.62252 0.296131 0
M  V30 3154 C 312.201 -5.71379 0.480948 0
M  V30 3155 N 311.697 -6.88986 0.725933 0
M  V30 3156 N 313.49 -5.60563 0.415435 0
M  V30 3157 H 305.641 -1.79393 1.13718 0
M  V30 3158 H 307.904 -0.832414 0.453643 0
M  V30 3159 H 307.61 -3.32726 1.13958 0
M  V30 3160 H 307.484 -3.72963 -0.563773 0
M  V30 3161 H 309.871 -2.80394 -0.919948 0
M  V30 3162 H 309.952 -2.42736 0.807029 0
M  V30 3163 H 309.596 -4.89907 1.33992 0
M  V30 3164 H 309.526 -5.25039 -0.405212 0
M  V30 3165 H 312.017 -3.7773 0.113259 0
M  V30 3166 H 312.33 -7.68046 0.855857 0
M  V30 3167 H 310.675 -6.90801 0.762788 0
M  V30 3168 H 313.866 -4.67561 0.224486 0
M  V30 3169 H 314.039 -6.45551 0.562889 0
M  V30 3170 N 307.445 0.0818655 -1.57387 0
M  V30 3171 C 308.693 0.781368 -1.86384 0
M  V30 3172 C 309.014 1.78618 -0.782342 0
M  V30 3173 O 308.284 1.94976 0.190061 0
M  V30 3174 H 306.864 0.291562 -0.687751 0
M  V30 3175 H 309.526 0.060348 -1.94807 0
M  V30 3176 H 308.622 1.3038 -2.83562 0
M  V30 3177 N 308.923 1.53595 0.353017 0
M  V30 3178 C 309.853 1.83902 1.43883 0
M  V30 3179 C 310.834 0.693421 1.55324 0
M  V30 3180 O 312.019 0.944452 1.69687 0
M  V30 3181 C 309.149 2.04016 2.8106 0
M  V30 3182 C 308.103 3.19814 2.84434 0
M  V30 3183 C 307.429 3.25244 4.24406 0
M  V30 3184 C 308.729 4.58133 2.50822 0
M  V30 3185 H 310.423 2.74835 1.1877 0
M  V30 3186 H 307.969 1.32242 0.569917 0
M  V30 3187 H 309.922 2.238 3.57059 0
M  V30 3188 H 308.646 1.09804 3.07588 0
M  V30 3189 H 307.305 2.9987 2.10887 0
M  V30 3190 H 306.953 2.28646 4.48029 0
M  V30 3191 H 306.653 4.03054 4.27576 0
M  V30 3192 H 308.177 3.47228 5.0226 0
M  V30 3193 H 309.591 4.77995 3.16534 0
M  V30 3194 H 307.988 5.38276 2.6529 0
M  V30 3195 H 309.058 4.62387 1.46034 0
M  V30 3196 N 310.401 -0.613514 1.45168 0
M  V30 3197 C 311.647 -1.37471 1.49096 0
M  V30 3198 C 311.98 -1.93765 0.129901 0
M  V30 3199 O 311.255 -1.74707 -0.854858 0
M  V30 3200 C 311.538 -2.52701 2.56542 0
M  V30 3201 C 311.391 -2.01643 4.0207 0
M  V30 3202 C 312.71 -3.54849 2.60327 0
M  V30 3203 H 309.829 -0.498502 0.54283 0
M  V30 3204 H 312.471 -0.692125 1.76945 0
M  V30 3205 H 310.621 -3.10931 2.32926 0
M  V30 3206 H 312.293 -1.48108 4.36877 0
M  V30 3207 H 310.536 -1.32688 4.13009 0
M  V30 3208 H 311.207 -2.84681 4.72928 0
M  V30 3209 H 313.683 -3.0645 2.81474 0
M  V30 3210 H 312.559 -4.32973 3.37381 0
M  V30 3211 H 312.82 -4.10079 1.6519 0
M  V30 3212 N 311.879 -1.3236 -0.855495 0
M  V30 3213 C 313.104 -1.2601 -1.64731 0
M  V30 3214 C 313.529 0.169068 -1.87339 0
M  V30 3215 O 312.887 1.12016 -1.42556 0
M  V30 3216 C 312.935 -2.02417 -2.98429 0
M  V30 3217 O 312.039 -1.3714 -3.8893 0
M  V30 3218 H 311.38 -0.434325 -0.502253 0
M  V30 3219 H 313.91 -1.74661 -1.06558 0
M  V30 3220 H 313.92 -2.12559 -3.48257 0
M  V30 3221 H 312.595 -3.06343 -2.81295 0
M  V30 3222 H 311.172 -1.3554 -3.47395 0
M  V30 3223 N 313.357 1.07166 -1.15556 0
M  V30 3224 C 314.603 1.80222 -0.942961 0
M  V30 3225 C 314.958 1.85121 0.524209 0
M  V30 3226 O 314.251 1.32531 1.38369 0
M  V30 3227 C 314.445 3.24707 -1.49332 0
M  V30 3228 C 314.274 3.33887 -3.01247 0
M  V30 3229 C 313.044 3.44337 -3.69811 0
M  V30 3230 C 315.242 3.24484 -3.99017 0
M  V30 3231 N 313.224 3.42439 -5.09518 0
M  V30 3232 C 314.595 3.29726 -5.25053 0
M  V30 3233 C 316.65 3.08307 -3.90962 0
M  V30 3234 C 315.353 3.20455 -6.43973 0
M  V30 3235 C 317.379 3.00371 -5.09442 0
M  V30 3236 C 316.741 3.06227 -6.34354 0
M  V30 3237 H 312.84 0.672709 -0.398731 0
M  V30 3238 H 315.424 1.27905 -1.46794 0
M  V30 3239 H 313.595 3.7544 -0.994946 0
M  V30 3240 H 315.327 3.85894 -1.21935 0
M  V30 3241 H 312.082 3.48762 -3.20409 0
M  V30 3242 H 312.506 3.45013 -5.8249 0
M  V30 3243 H 317.148 3.02633 -2.95251 0
M  V30 3244 H 314.866 3.24888 -7.39914 0
M  V30 3245 H 318.452 2.88955 -5.04971 0
M  V30 3246 H 317.332 3.00132 -7.24493 0
M  V30 3247 N 314.835 0.952656 1.25548 0
M  V30 3248 C 316.083 0.605176 1.92826 0
M  V30 3249 C 316.404 -0.860261 1.74999 0
M  V30 3250 O 315.674 -1.6125 1.11244 0
M  V30 3251 H 314.254 0.220832 0.713612 0
M  V30 3252 H 316.916 1.21047 1.52754 0
M  V30 3253 H 316.012 0.832798 3.00784 0
M  V30 3254 N 316.313 -1.40141 0.720998 0
M  V30 3255 C 317.261 -2.3252 0.0608547 0
M  V30 3256 C 318.255 -1.52326 -0.741152 0
M  V30 3257 O 319.461 -1.68089 -0.643911 0
M  V30 3258 H 315.836 -0.751999 0.000876664 0
M  V30 3259 H 317.807 -2.8584 0.856614 0
M  V30 3260 C 316.556 -3.37331 -0.842809 0
M  V30 3261 H 315.879 -3.99108 -0.235084 0
M  V30 3262 H 317.319 -4.04452 -1.27257 0
M  V30 3263 C 315.778 -2.73246 -1.97074 0
M  V30 3264 O 316.308 -2.59998 -3.06209 0
M  V30 3265 N 314.514 -2.31547 -1.75597 0
M  V30 3266 H 314.061 -2.42522 -0.868368 0
M  V30 3267 H 314.019 -1.89007 -2.51244 0
M  V30 3268 N 317.792 -0.46758 -1.50504 0
M  V30 3269 C 319.041 0.0902868 -2.01498 0
M  V30 3270 C 319.354 1.411 -1.35463 0
M  V30 3271 O 320.56 2.0536 -1.77594 0
M  V30 3272 C 319.016 0.21142 -3.59278 0
M  V30 3273 C 318.624 -1.10065 -4.34269 0
M  V30 3274 C 320.368 0.721433 -4.18325 0
M  V30 3275 C 318.275 -0.943505 -5.83825 0
M  V30 3276 H 317.205 0.037517 -0.753066 0
M  V30 3277 H 319.856 -0.601943 -1.73346 0
M  V30 3278 H 318.238 0.967352 -3.84003 0
M  V30 3279 H 319.412 -1.86726 -4.21272 0
M  V30 3280 H 317.727 -1.5415 -3.86816 0
M  V30 3281 H 320.324 0.85598 -5.27804 0
M  V30 3282 H 320.667 1.71186 -3.79475 0
M  V30 3283 H 321.2 0.0229843 -3.97793 0
M  V30 3284 H 317.939 -1.90719 -6.27141 0
M  V30 3285 H 317.459 -0.217213 -5.99407 0
M  V30 3286 H 319.138 -0.608715 -6.4413 0
M  V30 3287 N 319.27 1.56325 -0.20005 0
M  V30 3288 C 320.681 1.8408 0.31167 0
M  V30 3289 C 321.032 1.12087 1.61031 0
M  V30 3290 O 320.157 0.38332 2.12978 0
M  V30 3291 C 320.752 3.33932 0.57226 0
M  V30 3292 C 319.311 3.6208 1.02834 0
M  V30 3293 C 318.458 2.77186 0.079634 0
M  V30 3294 H 321.409 1.52939 -0.423729 0
M  V30 3295 H 321.43 3.52971 1.42096 0
M  V30 3296 H 320.942 3.86303 -0.37308 0
M  V30 3297 H 319.043 3.15147 1.98778 0
M  V30 3298 H 319.156 4.7023 0.917624 0
M  V30 3299 H 317.52 2.47951 0.582448 0
M  V30 3300 H 318.303 3.32347 -0.860238 0
M  V30 3301 N 320.748 -0.0735177 1.57428 0
M  V30 3302 C 321.988 -0.778363 1.89 0
M  V30 3303 C 322.352 -1.7483 0.793634 0
M  V30 3304 O 323.553 -2.49811 0.992367 0
M  V30 3305 C 321.824 -1.46929 3.25802 0
M  V30 3306 S 323.383 -2.20943 3.79117 0
M  V30 3307 H 320.201 -0.258874 0.662197 0
M  V30 3308 H 322.803 -0.0345338 1.95469 0
M  V30 3309 H 321.507 -0.749532 4.03497 0
M  V30 3310 H 321.038 -2.25258 3.22525 0
M  V30 3311 H 323.053 -3.47435 3.54265 0
M  V30 3312 N 322.226 -1.5378 -0.344866 0
M  V30 3313 C 323.474 -1.70625 -1.08311 0
M  V30 3314 C 323.795 -0.471447 -1.89215 0
M  V30 3315 O 323.065 0.514616 -1.8902 0
M  V30 3316 H 321.645 -0.629058 -0.402859 0
M  V30 3317 H 324.307 -1.9103 -0.386459 0
M  V30 3318 H 323.403 -2.57656 -1.76124 0
M  V30 3319 N 323.704 0.605807 -1.45491 0
M  V30 3320 C 324.929 1.39625 -1.53361 0
M  V30 3321 C 325.354 1.87351 -0.167645 0
M  V30 3322 O 324.712 1.60243 0.848051 0
M  V30 3323 C 324.76 2.57559 -2.5238 0
M  V30 3324 O 323.864 3.58248 -2.04285 0
M  V30 3325 H 323.205 0.416771 -0.516912 0
M  V30 3326 H 325.735 0.737103 -1.90861 0
M  V30 3327 H 325.745 3.0478 -2.71244 0
M  V30 3328 H 324.42 2.22171 -3.51586 0
M  V30 3329 H 322.997 3.17664 -1.95305 0
M  V30 3330 N 325.182 1.32811 0.848464 0
M  V30 3331 C 326.129 1.22265 1.95755 0
M  V30 3332 C 327.099 0.103413 1.65778 0
M  V30 3333 O 328.284 0.280033 1.88734 0
M  V30 3334 C 325.424 0.958014 3.31536 0
M  V30 3335 C 324.537 2.16262 3.73971 0
M  V30 3336 C 323.672 1.83295 4.98575 0
M  V30 3337 C 322.711 3.00041 5.33518 0
M  V30 3338 N 321.848 2.67125 6.49299 0
M  V30 3339 H 326.688 2.17128 2.04107 0
M  V30 3340 H 324.225 1.07982 0.998913 0
M  V30 3341 H 326.183 0.785052 4.09747 0
M  V30 3342 H 324.813 0.046159 3.22767 0
M  V30 3343 H 323.865 2.44565 2.91362 0
M  V30 3344 H 325.177 3.03572 3.95785 0
M  V30 3345 H 324.331 1.62586 5.84509 0
M  V30 3346 H 323.07 0.932078 4.7871 0
M  V30 3347 H 322.075 3.21374 4.46093 0
M  V30 3348 H 323.3 3.90869 5.55336 0
M  V30 3349 H 321.246 1.79586 6.3094 0
M  V30 3350 H 321.163 3.47965 6.71161 0
M  V30 3351 H 322.431 2.49861 7.3837 0
M  V30 3352 N 326.66 -1.06551 1.16123 0
M  V30 3353 C 327.57 -2.17484 0.879662 0
M  V30 3354 C 328.586 -1.73377 -0.147104 0
M  V30 3355 O 329.762 -2.01379 0.0289128 0
M  V30 3356 C 326.827 -3.44591 0.381829 0
M  V30 3357 C 325.888 -4.0322 1.4735 0
M  V30 3358 C 325.121 -5.24261 0.999324 0
M  V30 3359 O 325.344 -5.70198 -0.151957 0
M  V30 3360 O 324.278 -5.74775 1.78653 0
M  V30 3361 H 328.104 -2.44075 1.80724 0
M  V30 3362 H 325.689 -1.16042 0.940992 0
M  V30 3363 H 327.571 -4.21254 0.111053 0
M  V30 3364 H 326.246 -3.19532 -0.51777 0
M  V30 3365 H 325.153 -3.2806 1.79798 0
M  V30 3366 H 326.486 -4.32568 2.34831 0
M  V30 3367 N 328.138 -0.959301 -1.25041 0
M  V30 3368 C 329.085 -0.482057 -2.2571 0
M  V30 3369 C 330.055 0.467939 -1.59372 0
M  V30 3370 O 331.24 0.380159 -1.86974 0
M  V30 3371 C 328.38 0.229623 -3.44335 0
M  V30 3372 C 327.493 -0.758156 -4.25295 0
M  V30 3373 C 326.628 -0.0234403 -5.31195 0
M  V30 3374 C 325.667 -1.00184 -6.03846 0
M  V30 3375 N 324.804 -0.29769 -7.01469 0
M  V30 3376 H 329.644 -1.34538 -2.65901 0
M  V30 3377 H 327.181 -0.674592 -1.3072 0
M  V30 3378 H 329.139 0.658856 -4.11965 0
M  V30 3379 H 327.769 1.05696 -3.05005 0
M  V30 3380 H 326.821 -1.30586 -3.57284 0
M  V30 3381 H 328.133 -1.50458 -4.75567 0
M  V30 3382 H 327.287 0.464201 -6.04922 0
M  V30 3383 H 326.026 0.755741 -4.81809 0
M  V30 3384 H 325.031 -1.50044 -5.2893 0
M  V30 3385 H 326.256 -1.78133 -6.55321 0
M  V30 3386 H 324.202 0.462668 -6.54366 0
M  V30 3387 H 324.119 -0.983128 -7.4958 0
M  V30 3388 H 325.387 0.16826 -7.79318 0
M  V30 3389 N 329.616 1.39756 -0.72842 0
M  V30 3390 C 331.027 1.83498 -0.344289 0
M  V30 3391 C 331.378 1.60868 1.12321 0
M  V30 3392 O 330.503 1.09634 1.86573 0
M  V30 3393 C 331.098 3.33114 -0.618112 0
M  V30 3394 C 329.657 3.753 -0.287549 0
M  V30 3395 C 328.804 2.62831 -0.884048 0
M  V30 3396 H 331.755 1.28842 -0.926578 0
M  V30 3397 H 331.776 3.80334 0.112349 0
M  V30 3398 H 331.288 3.49553 -1.68625 0
M  V30 3399 H 329.389 3.64451 0.775012 0
M  V30 3400 H 329.502 4.72945 -0.765512 0
M  V30 3401 H 327.866 2.52792 -0.311149 0
M  V30 3402 H 328.649 2.82078 -1.95671 0
M  V30 3403 N 331.094 0.475555 1.50254 0
M  V30 3404 C 332.342 -0.077738 2.0195 0
M  V30 3405 C 332.663 -1.39813 1.35931 0
M  V30 3406 O 331.933 -1.89249 0.506123 0
M  V30 3407 H 330.513 -0.031719 0.746326 0
M  V30 3408 H 333.175 0.626995 1.84539 0
M  V30 3409 H 332.271 -0.225995 3.11281 0
M  V30 3410 N 332.573 -1.56217 0.208337 0
M  V30 3411 C 333.819 -1.98242 -0.427552 0
M  V30 3412 C 334.152 -1.09554 -1.60348 0
M  V30 3413 O 333.427 -0.15035 -1.93918 0
M  V30 3414 C 333.71 -3.4931 -0.874907 0
M  V30 3415 C 333.563 -4.48773 0.303751 0
M  V30 3416 C 334.882 -4.04424 -1.73577 0
M  V30 3417 H 332.001 -0.720744 -0.153936 0
M  V30 3418 H 334.643 -1.87586 0.30192 0
M  V30 3419 H 332.793 -3.58522 -1.49648 0
M  V30 3420 H 334.465 -4.51586 0.941682 0
M  V30 3421 H 332.708 -4.23194 0.953375 0
M  V30 3422 H 333.379 -5.51976 -0.0519883 0
M  V30 3423 H 335.855 -3.98075 -1.21143 0
M  V30 3424 H 334.731 -5.1047 -2.01771 0
M  V30 3425 H 334.992 -3.50494 -2.69456 0
M  V30 3426 N 334.051 0.0651679 -1.57465 0
M  V30 3427 C 335.281 0.774683 -1.91526 0
M  V30 3428 C 335.689 1.71305 -0.803196 0
M  V30 3429 O 335.032 1.82231 0.231881 0
M  V30 3430 C 335.094 1.61645 -3.21109 0
M  V30 3431 C 334.758 0.846753 -4.49087 0
M  V30 3432 C 335.755 0.163024 -5.19644 0
M  V30 3433 C 333.44 0.811966 -4.95694 0
M  V30 3434 C 335.434 -0.54519 -6.35064 0
M  V30 3435 C 333.121 0.0999836 -6.11018 0
M  V30 3436 C 334.119 -0.577388 -6.80555 0
M  V30 3437 O 333.807 -1.27789 -7.93678 0
M  V30 3438 H 333.539 0.225031 -0.637446 0
M  V30 3439 H 336.093 0.0377134 -2.05365 0
M  V30 3440 H 334.323 2.39638 -3.03497 0
M  V30 3441 H 336.012 2.20525 -3.40769 0
M  V30 3442 H 336.778 0.181163 -4.84662 0
M  V30 3443 H 332.657 1.32867 -4.41438 0
M  V30 3444 H 336.201 -1.07446 -6.89276 0
M  V30 3445 H 332.098 0.0797945 -6.45451 0
M  V30 3446 H 332.866 -1.18784 -8.09835 0
M  V30 3447 N 335.529 1.53961 0.336706 0
M  V30 3448 C 336.757 1.75483 1.09605 0
M  V30 3449 C 337.172 0.4972 1.82136 0
M  V30 3450 O 336.529 -0.53149 1.74589 0
M  V30 3451 C 336.58 2.93943 2.10428 0
M  V30 3452 O 336.301 4.14842 1.40846 0
M  V30 3453 C 337.802 3.27571 2.98684 0
M  V30 3454 H 335.022 0.586166 0.326574 0
M  V30 3455 H 337.566 2.00808 0.38683 0
M  V30 3456 H 335.721 2.70929 2.76905 0
M  V30 3457 H 336.135 4.81383 2.08255 0
M  V30 3458 H 337.609 4.13791 3.6535 0
M  V30 3459 H 338.086 2.44168 3.65074 0
M  V30 3460 H 338.692 3.52615 2.37787 0
M  V30 3461 N 337.007 -0.598083 1.45811 0
M  V30 3462 C 337.955 -1.72932 1.55555 0
M  V30 3463 C 338.949 -1.63984 0.424921 0
M  V30 3464 O 340.155 -1.69663 0.601205 0
M  V30 3465 H 336.53 -0.571489 0.488779 0
M  V30 3466 H 338.501 -1.61842 2.50699 0
M  V30 3467 C 337.25 -3.11318 1.54843 0
M  V30 3468 H 336.573 -3.18867 2.41172 0
M  V30 3469 H 338.013 -3.90274 1.65717 0
M  V30 3470 C 336.472 -3.3578 0.274427 0
M  V30 3471 O 337.002 -3.9654 -0.641778 0
M  V30 3472 N 335.208 -2.90119 0.167139 0
M  V30 3473 H 334.755 -2.40855 0.913596 0
M  V30 3474 H 334.713 -3.0686 -0.684435 0
M  V30 3475 N 338.485 -1.33259 -0.841409 0
M  V30 3476 C 339.731 -1.24757 -1.59886 0
M  V30 3477 C 340.064 0.186913 -1.93298 0
M  V30 3478 O 339.339 1.12757 -1.5848 0
M  V30 3479 C 339.622 -2.12036 -2.91055 0
M  V30 3480 C 339.475 -3.63929 -2.6434 0
M  V30 3481 C 340.794 -1.9916 -3.92458 0
M  V30 3482 H 337.913 -0.454542 -0.580138 0
M  V30 3483 H 340.555 -1.63335 -0.970647 0
M  V30 3484 H 338.705 -1.79265 -3.44669 0
M  V30 3485 H 340.377 -4.06978 -2.17178 0
M  V30 3486 H 338.62 -3.85935 -1.98082 0
M  V30 3487 H 339.291 -4.20341 -3.57796 0
M  V30 3488 H 341.767 -2.27895 -3.48143 0
M  V30 3489 H 340.643 -2.62484 -4.82072 0
M  V30 3490 H 340.904 -0.963082 -4.31482 0
M  V30 3491 N 339.963 1.05934 -1.16686 0
M  V30 3492 C 341.203 1.80382 -0.961345 0
M  V30 3493 C 341.567 1.85331 0.501643 0
M  V30 3494 O 342.768 2.55795 0.825986 0
M  V30 3495 C 341.039 3.20777 -1.57596 0
M  V30 3496 S 342.598 4.11795 -1.51559 0
M  V30 3497 H 339.416 0.621332 -0.345641 0
M  V30 3498 H 342.018 1.27157 -1.48497 0
M  V30 3499 H 340.722 3.14773 -2.63337 0
M  V30 3500 H 340.253 3.79078 -1.05182 0
M  V30 3501 H 342.268 4.93485 -0.518374 0
M  V30 3502 N 341.441 0.965919 1.2453 0
M  V30 3503 C 342.857 0.67216 1.44756 0
M  V30 3504 C 343.057 -0.766609 1.86347 0
M  V30 3505 O 342.113 -1.5407 2.00047 0
M  V30 3506 C 343.426 1.65473 2.51076 0
M  V30 3507 C 344.974 1.66716 2.64905 0
M  V30 3508 C 345.449 2.63766 3.74421 0
M  V30 3509 N 346.94 2.62198 3.81846 0
M  V30 3510 C 347.675 3.33966 4.66106 0
M  V30 3511 N 347.171 4.15245 5.54566 0
M  V30 3512 N 348.964 3.22799 4.60171 0
M  V30 3513 H 341.115 1.89553 0.958293 0
M  V30 3514 H 343.378 0.815979 0.482579 0
M  V30 3515 H 343.084 2.68296 2.27399 0
M  V30 3516 H 342.958 1.4261 3.49202 0
M  V30 3517 H 345.345 0.646057 2.87941 0
M  V30 3518 H 345.426 1.93642 1.67142 0
M  V30 3519 H 345.07 3.6601 3.52135 0
M  V30 3520 H 345 2.34121 4.71694 0
M  V30 3521 H 347.491 2.032 3.18619 0
M  V30 3522 H 347.804 4.66898 6.15814 0
M  V30 3523 H 346.149 4.1934 5.54237 0
M  V30 3524 H 349.34 2.58764 3.90075 0
M  V30 3525 H 349.513 3.78994 5.25612 0
M  V30 3526 N 342.919 -1.39368 0.735821 0
M  V30 3527 C 344.149 -2.04498 0.293967 0
M  V30 3528 C 344.557 -1.55593 -1.07645 0
M  V30 3529 O 343.9 -0.716324 -1.69158 0
M  V30 3530 C 343.962 -3.58836 0.218342 0
M  V30 3531 C 343.626 -4.30721 1.52736 0
M  V30 3532 C 344.623 -4.57305 2.47322 0
M  V30 3533 C 342.308 -4.69251 1.79189 0
M  V30 3534 C 344.302 -5.21429 3.66593 0
M  V30 3535 C 341.989 -5.33104 2.98737 0
M  V30 3536 C 342.987 -5.59125 3.9226 0
M  V30 3537 O 342.675 -6.21653 5.09708 0
M  V30 3538 H 342.407 -0.664118 0.126189 0
M  V30 3539 H 344.961 -1.79385 1.00051 0
M  V30 3540 H 343.191 -3.8285 -0.544314 0
M  V30 3541 H 344.88 -4.05447 -0.191626 0
M  V30 3542 H 345.646 -4.27983 2.28156 0
M  V30 3543 H 341.525 -4.48354 1.07239 0
M  V30 3544 H 345.069 -5.41656 4.39607 0
M  V30 3545 H 340.966 -5.61846 3.17803 0
M  V30 3546 H 341.734 -6.40146 5.10054 0
M  V30 3547 N 344.397 -0.483516 -1.5 0
M  V30 3548 C 345.625 0.0644831 -2.06799 0
M  V30 3549 C 346.04 1.32399 -1.34596 0
M  V30 3550 O 345.397 1.77626 -0.418946 0
M  V30 3551 C 345.448 0.339927 -3.59898 0
M  V30 3552 O 345.169 -0.869635 -4.29382 0
M  V30 3553 C 346.67 0.933515 -4.33359 0
M  V30 3554 H 343.89 -0.0126333 -0.670881 0
M  V30 3555 H 346.434 -0.675864 -1.93009 0
M  V30 3556 H 344.589 1.03022 -3.7345 0
M  V30 3557 H 345.003 -0.62179 -5.20801 0
M  V30 3558 H 346.477 1.07593 -5.41413 0
M  V30 3559 H 346.954 1.92685 -3.94676 0
M  V30 3560 H 347.56 0.281221 -4.24369 0
M  V30 3561 N 345.875 1.56104 -0.216619 0
M  V30 3562 C 346.823 2.21434 0.712036 0
M  V30 3563 C 347.817 1.19218 1.20348 0
M  V30 3564 O 349.023 1.3731 1.16387 0
M  V30 3565 H 345.398 0.70992 0.248026 0
M  V30 3566 H 347.369 2.98083 0.137558 0
M  V30 3567 C 346.118 2.90434 1.91163 0
M  V30 3568 H 345.441 3.68842 1.54258 0
M  V30 3569 H 346.881 3.39552 2.5393 0
M  V30 3570 C 345.34 1.92635 2.76394 0
M  V30 3571 O 345.87 1.44017 3.74996 0
M  V30 3572 N 344.076 1.60392 2.42328 0
M  V30 3573 H 343.623 2.00122 1.622 0
M  V30 3574 H 343.581 0.952159 2.99635 0
M  V30 3575 N 347.353 -0.0568162 1.57498 0
M  V30 3576 C 348.599 -0.748893 1.89111 0
M  V30 3577 C 348.954 -1.74422 0.81208 0
M  V30 3578 O 348.247 -1.90731 -0.182247 0
M  V30 3579 C 348.441 -1.48359 3.25153 0
M  V30 3580 C 348.27 -0.560924 4.46188 0
M  V30 3581 C 347.04 -0.192264 5.04934 0
M  V30 3582 C 349.238 0.148824 5.14085 0
M  V30 3583 N 347.22 0.734555 6.0949 0
M  V30 3584 C 348.591 0.932286 6.12951 0
M  V30 3585 C 350.646 0.218713 4.97419 0
M  V30 3586 C 349.349 1.77917 6.96949 0
M  V30 3587 C 351.375 1.05262 5.81957 0
M  V30 3588 C 350.737 1.82409 6.80372 0
M  V30 3589 H 346.836 -0.249002 0.741298 0
M  V30 3590 H 349.42 -0.00984926 1.94698 0
M  V30 3591 H 347.591 -2.19326 3.20547 0
M  V30 3592 H 349.323 -2.12586 3.44368 0
M  V30 3593 H 346.078 -0.548421 4.70414 0
M  V30 3594 H 346.502 1.19165 6.6643 0
M  V30 3595 H 351.144 -0.363407 4.21235 0
M  V30 3596 H 348.862 2.3722 7.72497 0
M  V30 3597 H 352.448 1.10987 5.71116 0
M  V30 3598 H 351.328 2.45895 7.44651 0
M  V30 3599 N 348.832 -1.54138 -0.328536 0
M  V30 3600 C 350.081 -1.71318 -1.06456 0
M  V30 3601 C 350.394 -0.491109 -1.89334 0
M  V30 3602 O 351.6 -0.54416 -2.65991 0
M  V30 3603 C 350.056 -3.03 -1.94214 0
M  V30 3604 C 349.664 -4.32595 -1.16471 0
M  V30 3605 C 351.408 -3.29544 -2.67583 0
M  V30 3606 C 349.315 -5.55341 -2.03347 0
M  V30 3607 H 348.245 -0.638429 -0.401155 0
M  V30 3608 H 350.896 -1.80633 -0.323106 0
M  V30 3609 H 349.278 -2.87579 -2.72239 0
M  V30 3610 H 350.452 -4.58766 -0.432525 0
M  V30 3611 H 348.767 -4.12777 -0.548063 0
M  V30 3612 H 351.364 -4.18444 -3.3288 0
M  V30 3613 H 351.707 -2.47206 -3.34955 0
M  V30 3614 H 352.24 -3.45809 -1.96623 0
M  V30 3615 H 348.979 -6.40268 -1.40491 0
M  V30 3616 H 348.499 -5.33397 -2.74313 0
M  V30 3617 H 350.178 -5.91557 -2.62049 0
M  V30 3618 N 350.31 0.590341 -1.46126 0
M  V30 3619 C 351.242 1.71427 -1.52136 0
M  V30 3620 C 352.255 1.57542 -0.41042 0
M  V30 3621 O 353.444 1.65106 -0.678389 0
M  V30 3622 C 350.544 3.09605 -1.37834 0
M  V30 3623 C 349.717 3.49566 -2.62912 0
M  V30 3624 C 348.776 4.66773 -2.42918 0
M  V30 3625 O 347.802 4.73019 -3.1661 0
M  V30 3626 N 349.004 5.61161 -1.4859 0
M  V30 3627 H 351.769 1.66728 -2.49042 0
M  V30 3628 H 349.33 0.776113 -1.42085 0
M  V30 3629 H 351.322 3.85796 -1.22243 0
M  V30 3630 H 349.892 3.08714 -0.491393 0
M  V30 3631 H 349.112 2.63158 -2.93499 0
M  V30 3632 H 350.4 3.73028 -3.46017 0
M  V30 3633 H 349.798 5.58844 -0.87808 0
M  V30 3634 H 348.355 6.36814 -1.38965 0
M  V30 3635 N 351.788 1.33704 0.83433 0
M  V30 3636 C 352.735 1.24335 1.94447 0
M  V30 3637 C 353.705 0.120991 1.65659 0
M  V30 3638 O 354.89 0.300035 1.88426 0
M  V30 3639 C 352.03 0.993124 3.30501 0
M  V30 3640 C 351.143 2.20217 3.71657 0
M  V30 3641 C 350.278 1.88572 4.96602 0
M  V30 3642 C 349.317 3.05683 5.30306 0
M  V30 3643 N 348.454 2.73997 6.46429 0
M  V30 3644 H 353.294 2.1928 2.01792 0
M  V30 3645 H 350.831 1.09035 0.987404 0
M  V30 3646 H 352.789 0.828467 4.08892 0
M  V30 3647 H 351.419 0.0803902 3.227 0
M  V30 3648 H 350.471 2.47642 2.88752 0
M  V30 3649 H 351.783 3.07752 3.92543 0
M  V30 3650 H 350.937 1.68776 5.82752 0
M  V30 3651 H 349.676 0.982799 4.77695 0
M  V30 3652 H 348.681 3.26088 4.42659 0
M  V30 3653 H 349.906 3.96737 5.51159 0
M  V30 3654 H 347.852 1.86268 6.28999 0
M  V30 3655 H 347.769 3.55064 6.67432 0
M  V30 3656 H 349.037 2.57679 7.35678 0
M  V30 3657 N 353.266 -1.05314 1.17247 0
M  V30 3658 C 354.494 -1.81971 0.984593 0
M  V30 3659 C 354.909 -1.82929 -0.467166 0
M  V30 3660 O 354.266 -1.25564 -1.32438 0
M  V30 3661 C 354.317 -3.28143 1.51672 0
M  V30 3662 O 354.038 -3.27347 2.91163 0
M  V30 3663 C 355.539 -4.21493 1.37326 0
M  V30 3664 H 352.759 -0.573455 0.348411 0
M  V30 3665 H 355.303 -1.32808 1.55506 0
M  V30 3666 H 353.458 -3.74582 0.988302 0
M  V30 3667 H 353.872 -4.18824 3.15732 0
M  V30 3668 H 355.346 -5.22043 1.79375 0
M  V30 3669 H 355.823 -4.38031 0.320169 0
M  V30 3670 H 356.429 -3.80909 1.89178 0
M  V30 3671 N 354.744 -0.972509 -1.24016 0
M  V30 3672 C 355.993 -0.632603 -1.91523 0
M  V30 3673 C 356.306 0.836641 -1.76804 0
M  V30 3674 O 357.512 1.28728 -2.39043 0
M  V30 3675 C 355.968 -1.08082 -3.43287 0
M  V30 3676 C 355.576 -2.57386 -3.66683 0
M  V30 3677 C 357.32 -0.814288 -4.16617 0
M  V30 3678 C 355.227 -2.95915 -5.12043 0
M  V30 3679 H 354.157 -0.232898 -0.717129 0
M  V30 3680 H 356.808 -1.17936 -1.40582 0
M  V30 3681 H 355.19 -0.462339 -3.93292 0
M  V30 3682 H 356.364 -3.24405 -3.27258 0
M  V30 3683 H 354.679 -2.81701 -3.06649 0
M  V30 3684 H 357.276 -1.0781 -5.23718 0
M  V30 3685 H 357.619 0.24955 -4.15551 0
M  V30 3686 H 358.152 -1.39397 -3.72577 0
M  V30 3687 H 354.891 -4.0139 -5.18234 0
M  V30 3688 H 354.411 -2.33584 -5.52448 0
M  V30 3689 H 356.09 -2.86086 -5.80314 0
M  V30 3690 N 356.222 1.38976 -0.743202 0
M  V30 3691 C 357.154 2.29096 -0.0689228 0
M  V30 3692 C 358.167 1.47229 0.694791 0
M  V30 3693 O 359.356 1.70212 0.537597 0
M  V30 3694 C 356.456 3.25988 0.926548 0
M  V30 3695 C 355.629 4.36833 0.222647 0
M  V30 3696 C 354.688 5.13981 1.12739 0
M  V30 3697 O 353.714 5.6601 0.601795 0
M  V30 3698 N 354.916 5.25966 2.45641 0
M  V30 3699 H 357.681 2.87604 -0.842846 0
M  V30 3700 H 355.242 1.50645 -0.593109 0
M  V30 3701 H 357.234 3.74476 1.5346 0
M  V30 3702 H 355.804 2.68453 1.60162 0
M  V30 3703 H 355.024 3.90116 -0.565983 0
M  V30 3704 H 356.312 5.0811 -0.264841 0
M  V30 3705 H 355.71 4.85228 2.9081 0
M  V30 3706 H 354.267 5.77865 3.01522 0
M  V30 3707 N 357.7 0.491464 1.49741 0
M  V30 3708 C 358.663 -0.280906 2.27472 0
M  V30 3709 C 359.663 -0.902454 1.33088 0
M  V30 3710 O 360.853 -0.768465 1.56334 0
M  V30 3711 C 357.985 -1.40209 3.10732 0
M  V30 3712 H 359.178 0.401056 2.97206 0
M  V30 3713 H 356.731 0.246131 1.5435 0
M  V30 3714 H 357.466 -2.11849 2.45541 0
M  V30 3715 H 357.251 -0.961969 3.80117 0
M  V30 3716 H 358.741 -1.9464 3.69466 0
M  V30 3717 N 359.178 -1.55987 0.224894 0
M  V30 3718 C 360.125 -2.20436 -0.68385 0
M  V30 3719 C 361.095 -1.16102 -1.18783 0
M  V30 3720 O 362.28 -1.4447 -1.24632 0
M  V30 3721 C 359.42 -2.89076 -1.88491 0
M  V30 3722 C 358.533 -4.08012 -1.41951 0
M  V30 3723 C 357.668 -4.64426 -2.5784 0
M  V30 3724 C 356.707 -5.75656 -2.08053 0
M  V30 3725 N 355.844 -6.26347 -3.17227 0
M  V30 3726 H 360.684 -2.97727 -0.12754 0
M  V30 3727 H 358.221 -1.47011 -0.0511978 0
M  V30 3728 H 360.179 -3.27059 -2.59014 0
M  V30 3729 H 358.809 -2.14298 -2.41405 0
M  V30 3730 H 357.861 -3.75492 -0.609095 0
M  V30 3731 H 359.173 -4.88375 -1.01447 0
M  V30 3732 H 358.327 -5.04869 -3.3644 0
M  V30 3733 H 357.066 -3.83233 -3.01635 0
M  V30 3734 H 356.071 -5.34712 -1.27916 0
M  V30 3735 H 357.296 -6.58686 -1.65255 0
M  V30 3736 H 355.242 -5.48067 -3.60497 0
M  V30 3737 H 355.159 -7.01843 -2.80986 0
M  V30 3738 H 356.427 -6.71447 -3.95953 0
M  V30 3739 O 360.695 -0.0887553 -1.61256 0
M  V30 3740 H 361.386 0.514821 -1.86733 0
M  V30 END ATOM
M  V30 BEGIN BOND
M  V30 END BOND
M  V30 END CTAB
M  END
$$$$
