drugbank_target|Q92911 Sodium/iodide cotransporter (DB05382; DB09418)
 OpenBabel12092121123D

  0  0  0     0  0            999 V3000
M  V30 BEGIN CTAB
M  V30 COUNTS 9765 9873 0 0 0
M  V30 BEGIN ATOM
M  V30 1 H -0.908 1.98254 -0.117106 0
M  V30 2 N 0 1.576 0 0
M  V30 3 C 0.933 2.03868 1.02534 0
M  V30 4 C 1.911 0.928543 1.3348 0
M  V30 5 O 3.095 1.19667 1.45644 0
M  V30 6 C 0.222 2.43627 2.35294 0
M  V30 7 C -0.732 3.65373 2.2001 0
M  V30 8 S 0.101 5.13292 1.52614 0
M  V30 9 C 1.257 5.56322 2.86805 0
M  V30 10 H 1.49 2.90518 0.631377 0
M  V30 11 H -0.977 1.52953 0.210867 0
M  V30 12 H 0.981 2.67203 3.11629 0
M  V30 13 H -0.358 1.57376 2.7183 0
M  V30 14 H -1.165 3.90944 3.18086 0
M  V30 15 H -1.563 3.418 1.51819 0
M  V30 16 H 0.729 5.58782 3.83104 0
M  V30 17 H 1.672 6.56266 2.65933 0
M  V30 18 H 2.08 4.83886 2.90714 0
M  V30 19 N 1.4781 -0.272755 1.55222 0
M  V30 20 C 2.3881 -1.35918 1.91216 0
M  V30 21 C 3.4041 -1.54026 0.809436 0
M  V30 22 O 4.5801 -1.68148 1.10852 0
M  V30 23 C 1.6451 -2.69834 2.17693 0
M  V30 24 C 0.7061 -2.6047 3.41253 0
M  V30 25 C -0.0609 -3.88 3.66458 0
M  V30 26 O 0.1621 -4.88693 2.94169 0
M  V30 27 O -0.9039 -3.88189 4.59992 0
M  V30 28 H 2.9221 -1.0839 2.83699 0
M  V30 29 H 0.5071 -0.471301 1.41771 0
M  V30 30 H 2.3891 -3.49017 2.36147 0
M  V30 31 H 1.0641 -2.97148 1.28392 0
M  V30 32 H -0.0289 -1.79663 3.28134 0
M  V30 33 H 1.3041 -2.38106 4.30774 0
M  V30 34 N 2.9562 -1.48159 -0.537278 0
M  V30 35 C 3.9192 -1.61665 -1.62472 0
M  V30 36 C 4.9192 -0.490395 -1.5314 0
M  V30 37 O 6.1092 -0.755998 -1.5694 0
M  V30 38 C 3.2412 -1.57997 -3.02076 0
M  V30 39 H 4.4342 -2.58621 -1.51839 0
M  V30 40 H 1.9872 -1.36647 -0.758771 0
M  V30 41 H 2.7222 -0.624913 -3.18222 0
M  V30 42 H 2.5072 -2.39755 -3.10258 0
M  V30 43 H 3.9972 -1.70627 -3.81151 0
M  V30 44 N 4.4343 0.785586 -1.36625 0
M  V30 45 C 5.6803 1.54591 -1.31261 0
M  V30 46 C 6.0133 1.93906 0.106823 0
M  V30 47 O 5.2883 1.63007 1.06108 0
M  V30 48 C 5.5713 2.82038 -2.23889 0
M  V30 49 C 5.4243 2.49066 -3.74548 0
M  V30 50 C 6.7433 3.83887 -2.15217 0
M  V30 51 H 3.8623 0.560846 -0.478143 0
M  V30 52 H 6.5043 0.902278 -1.67209 0
M  V30 53 H 4.6543 3.36961 -1.93363 0
M  V30 54 H 6.3263 2.00164 -4.15611 0
M  V30 55 H 4.5693 1.81954 -3.93796 0
M  V30 56 H 5.2403 3.40109 -4.34776 0
M  V30 57 H 7.7163 3.38421 -2.42096 0
M  V30 58 H 6.5923 4.70806 -2.82193 0
M  V30 59 H 6.8533 4.27131 -1.14068 0
M  V30 60 N 5.9124 1.20967 1.01018 0
M  V30 61 C 6.8224 0.980157 2.13143 0
M  V30 62 C 7.8384 -0.0660665 1.73875 0
M  V30 63 O 9.0144 0.122821 2.01025 0
M  V30 64 C 6.0794 0.54216 3.42435 0
M  V30 65 C 5.1404 1.65999 3.95908 0
M  V30 66 C 4.3734 1.2428 5.19028 0
M  V30 67 O 4.5964 0.114196 5.70286 0
M  V30 68 O 3.5304 2.05271 5.65816 0
M  V30 69 H 7.3564 1.91913 2.35379 0
M  V30 70 H 4.9414 0.994099 1.11526 0
M  V30 71 H 6.8234 0.30744 4.20277 0
M  V30 72 H 5.4984 -0.36815 3.216 0
M  V30 73 H 4.4054 1.94906 3.19316 0
M  V30 74 H 5.7384 2.54753 4.21143 0
M  V30 75 N 7.3905 -1.2043 1.01659 0
M  V30 76 C 8.6185 -1.93777 0.725132 0
M  V30 77 C 9.0335 -1.74772 -0.714166 0
M  V30 78 O 8.3905 -1.06169 -1.4844 0
M  V30 79 C 8.4415 -3.45876 1.05129 0
M  V30 80 O 8.1625 -3.6426 2.43406 0
M  V30 81 C 9.6635 -4.36368 0.780891 0
M  V30 82 H 6.8835 -0.615901 0.266284 0
M  V30 83 H 9.4275 -1.52922 1.35776 0
M  V30 84 H 7.5825 -3.8461 0.464065 0
M  V30 85 H 7.9965 -4.58246 2.55169 0
M  V30 86 H 9.4705 -5.41743 1.05918 0
M  V30 87 H 9.9475 -4.38275 -0.284937 0
M  V30 88 H 10.5535 -4.03296 1.35027 0
M  V30 89 N 8.8686 -0.792821 -1.36206 0
M  V30 90 C 10.1166 -0.366062 -1.98757 0
M  V30 91 C 10.4376 1.0668 -1.63231 0
M  V30 92 O 9.7076 1.73587 -0.907978 0
M  V30 93 H 8.2876 -0.132364 -0.735179 0
M  V30 94 H 10.9496 -1.01562 -1.66347 0
M  V30 95 H 10.0456 -0.460638 -3.08682 0
M  V30 96 N 10.3467 1.47872 -0.545128 0
M  V30 97 C 11.2567 2.33633 0.212746 0
M  V30 98 C 12.2727 1.4744 0.923983 0
M  V30 99 O 13.4487 1.80393 0.895572 0
M  V30 100 C 10.5137 3.23884 1.23693 0
M  V30 101 C 9.5747 4.25961 0.534417 0
M  V30 102 C 8.8077 5.11899 1.5098 0
M  V30 103 O 9.0307 5.00077 2.7437 0
M  V30 104 O 7.9647 5.92831 1.0409 0
M  V30 105 H 11.7907 2.99714 -0.490416 0
M  V30 106 H 9.3757 1.46235 -0.305871 0
M  V30 107 H 11.2577 3.79666 1.82843 0
M  V30 108 H 9.9327 2.60446 1.92222 0
M  V30 109 H 8.8397 3.73972 -0.0979679 0
M  V30 110 H 10.1727 4.92079 -0.109213 0
M  V30 111 N 11.8248 0.280983 1.55075 0
M  V30 112 C 13.2408 -0.0729964 1.59433 0
M  V30 113 C 13.4408 -1.5411 1.29817 0
M  V30 114 O 12.4968 -2.29086 1.06187 0
M  V30 115 C 13.8098 0.306921 2.9913 0
M  V30 116 C 15.3578 0.254023 3.11968 0
M  V30 117 C 15.8328 0.608467 4.5394 0
M  V30 118 N 17.3238 0.560241 4.59799 0
M  V30 119 C 18.0588 0.80722 5.6769 0
M  V30 120 N 17.5548 1.11912 6.83701 0
M  V30 121 N 19.3478 0.735623 5.57266 0
M  V30 122 H 11.4988 1.238 1.7259 0
M  V30 123 H 13.7618 0.500547 0.805082 0
M  V30 124 H 13.4678 1.32816 3.25657 0
M  V30 125 H 13.3418 -0.349363 3.75579 0
M  V30 126 H 15.7288 -0.75794 2.852 0
M  V30 127 H 15.8098 0.944649 2.37718 0
M  V30 128 H 15.4538 1.61814 4.81434 0
M  V30 129 H 15.3838 -0.104013 5.26497 0
M  V30 130 H 17.8748 0.329288 3.76463 0
M  V30 131 H 18.1878 1.29409 7.61888 0
M  V30 132 H 16.5328 1.15695 6.85303 0
M  V30 133 H 19.7238 0.491752 4.6551 0
M  V30 134 H 19.8968 0.931482 6.4127 0
M  V30 135 N 13.3029 -1.57598 0.00835791 0
M  V30 136 C 14.7139 -1.7892 -0.53333 0
M  V30 137 C 15.0649 -0.916609 -1.73473 0
M  V30 138 O 14.1899 -0.121336 -2.1606 0
M  V30 139 C 14.7849 -3.24488 -0.974313 0
M  V30 140 C 13.3439 -3.46878 -1.46125 0
M  V30 141 C 12.4909 -2.74157 -0.416302 0
M  V30 142 H 15.4419 -1.56958 0.234495 0
M  V30 143 H 15.4629 -3.3306 -1.83988 0
M  V30 144 H 14.9749 -3.87972 -0.099718 0
M  V30 145 H 13.0759 -2.8862 -2.35646 0
M  V30 146 H 13.1889 -4.55572 -1.48295 0
M  V30 147 H 11.5529 -2.39022 -0.87981 0
M  V30 148 H 12.3359 -3.40345 0.44947 0
M  V30 149 N 14.781 0.264519 -1.55364 0
M  V30 150 C 16.009 1.013 -1.80405 0
M  V30 151 C 16.424 1.79618 -0.581622 0
M  V30 152 O 15.781 1.76879 0.449468 0
M  V30 153 C 15.832 1.96487 -3.03439 0
M  V30 154 O 15.553 1.21341 -4.20961 0
M  V30 155 C 17.054 2.83079 -3.41147 0
M  V30 156 H 14.274 0.298875 -0.600762 0
M  V30 157 H 16.818 0.292736 -2.02394 0
M  V30 158 H 14.973 2.63965 -2.83551 0
M  V30 159 H 15.387 1.85573 -4.90574 0
M  V30 160 H 16.861 3.4565 -4.30384 0
M  V30 161 H 17.338 3.53286 -2.60932 0
M  V30 162 H 17.944 2.2108 -3.63323 0
M  V30 163 N 16.2591 1.48442 0.529413 0
M  V30 164 C 17.5061 1.56488 1.28521 0
M  V30 165 C 17.8341 0.239042 1.93025 0
M  V30 166 O 17.0891 -0.770713 1.79885 0
M  V30 167 C 17.3881 2.6523 2.39558 0
M  V30 168 C 17.0541 4.07648 1.92702 0
M  V30 169 C 15.7161 4.46411 1.79641 0
M  V30 170 C 18.0681 4.96896 1.573 0
M  V30 171 C 15.3961 5.72226 1.29514 0
M  V30 172 C 17.7481 6.23202 1.08636 0
M  V30 173 C 16.4121 6.60821 0.941919 0
M  V30 174 H 15.6821 0.572631 0.470292 0
M  V30 175 H 18.3291 1.82161 0.59072 0
M  V30 176 H 16.6341 2.33419 3.14679 0
M  V30 177 H 18.3311 2.68671 2.97686 0
M  V30 178 H 14.9211 3.77036 2.03819 0
M  V30 179 H 19.1051 4.67626 1.66251 0
M  V30 180 H 14.3611 6.00097 1.17019 0
M  V30 181 H 18.5351 6.91753 0.803136 0
M  V30 182 H 16.1621 7.58198 0.5513 0
M  V30 183 N 17.7372 -0.778329 1.37039 0
M  V30 184 C 18.9852 -1.53361 1.31623 0
M  V30 185 C 19.3062 -1.94739 -0.100831 0
M  V30 186 O 18.5762 -1.65797 -1.04347 0
M  V30 187 H 17.1562 -0.568794 0.484234 0
M  V30 188 H 19.8182 -0.926742 1.71457 0
M  V30 189 H 18.9142 -2.43606 1.95096 0
M  V30 190 N 19.2153 -1.21501 -1.00376 0
M  V30 191 C 20.1783 -0.976927 -2.07337 0
M  V30 192 C 21.1783 0.0525322 -1.60714 0
M  V30 193 O 22.3683 -0.184869 -1.73216 0
M  V30 194 C 19.5003 -0.473423 -3.37597 0
M  V30 195 H 20.6933 -1.92587 -2.29892 0
M  V30 196 H 18.2463 -1.03217 -1.17371 0
M  V30 197 H 18.9813 0.480379 -3.20722 0
M  V30 198 H 18.7663 -1.216 -3.72768 0
M  V30 199 H 20.2563 -0.32675 -4.1632 0
M  V30 200 N 20.6934 1.19889 -1.02296 0
M  V30 201 C 21.9394 1.89973 -0.726759 0
M  V30 202 C 22.2944 1.7776 0.73614 0
M  V30 203 O 21.5874 1.15523 1.52856 0
M  V30 204 C 21.7814 3.39883 -1.10518 0
M  V30 205 C 21.6104 3.66684 -2.60332 0
M  V30 206 C 20.3804 3.85045 -3.27213 0
M  V30 207 C 22.5784 3.68727 -3.58532 0
M  V30 208 N 20.5604 3.99422 -4.66192 0
M  V30 209 C 21.9314 3.88604 -4.83101 0
M  V30 210 C 23.9864 3.51722 -3.52414 0
M  V30 211 C 22.6894 3.9324 -6.02292 0
M  V30 212 C 24.7154 3.57632 -4.71013 0
M  V30 213 C 24.0774 3.77988 -5.94394 0
M  V30 214 H 20.1764 0.714551 -0.317712 0
M  V30 215 H 22.7604 1.44123 -1.30907 0
M  V30 216 H 20.9314 3.8447 -0.551142 0
M  V30 217 H 22.6634 3.97464 -0.761853 0
M  V30 218 H 19.4184 3.83689 -2.77632 0
M  V30 219 H 19.8424 4.10473 -5.38368 0
M  V30 220 H 24.4844 3.34945 -2.58015 0
M  V30 221 H 22.2024 4.08811 -6.97065 0
M  V30 222 H 25.7884 3.45773 -4.67902 0
M  V30 223 H 24.6684 3.82428 -6.8463 0
M  V30 224 N 22.1715 0.800033 1.35784 0
M  V30 225 C 23.4485 0.30088 1.93272 0
M  V30 226 C 23.8285 -1.20857 1.73081 0
M  V30 227 O 23.1765 -2.00502 1.09596 0
M  V30 228 C 23.3865 0.70511 3.41803 0
M  V30 229 C 24.7345 0.690871 4.18942 0
M  V30 230 O 25.7585 0.646244 3.50289 0
M  V30 231 O 24.6175 0.74332 5.41421 0
M  V30 232 H 21.7115 0.0771605 0.823393 0
M  V30 233 H 24.2575 0.88329 1.449 0
M  V30 234 H 23.0295 1.74571 3.50201 0
M  V30 235 H 22.6525 0.0971541 3.97481 0
M  V30 236 N 23.6496 -1.47581 0.552962 0
M  V30 237 C 24.8796 -2.06575 0.0320091 0
M  V30 238 C 25.2876 -1.4067 -1.26525 0
M  V30 239 O 24.6306 -0.495808 -1.76883 0
M  V30 240 C 24.6926 -3.58705 -0.238913 0
M  V30 241 C 24.3566 -4.46625 0.968272 0
M  V30 242 C 25.3536 -4.85 1.87274 0
M  V30 243 C 23.0386 -4.88201 1.18175 0
M  V30 244 C 25.0326 -5.63745 2.9744 0
M  V30 245 C 22.7196 -5.66712 2.28651 0
M  V30 246 C 23.7176 -6.04394 3.18114 0
M  V30 247 O 23.4056 -6.81324 4.26676 0
M  V30 248 H 23.1376 -0.674763 0.0408689 0
M  V30 249 H 25.6916 -1.90634 0.764719 0
M  V30 250 H 23.9216 -3.72844 -1.02588 0
M  V30 251 H 25.6106 -3.99735 -0.704731 0
M  V30 252 H 26.3766 -4.53482 1.71984 0
M  V30 253 H 22.2556 -4.58339 0.494593 0
M  V30 254 H 25.7996 -5.93077 3.67296 0
M  V30 255 H 21.6966 -5.97642 2.43915 0
M  V30 256 H 22.4646 -6.99712 4.24671 0
M  V30 257 N 25.1277 -0.289203 -1.54924 0
M  V30 258 C 26.3757 0.322879 -1.99504 0
M  V30 259 C 26.6967 1.55313 -1.1791 0
M  V30 260 O 25.9667 1.94001 -0.272097 0
M  V30 261 H 24.5467 0.122291 -0.736922 0
M  V30 262 H 27.2087 -0.397802 -1.90797 0
M  V30 263 H 26.3047 0.603061 -3.06218 0
M  V30 264 N 26.6058 1.57591 -0.0167156 0
M  V30 265 C 27.8518 1.91567 0.665582 0
M  V30 266 C 28.1848 0.892298 1.72487 0
M  V30 267 O 27.4598 -0.0867127 1.94307 0
M  V30 268 C 27.7428 3.36069 1.29342 0
M  V30 269 C 27.5958 4.49135 0.244541 0
M  V30 270 C 28.9148 3.803 2.21495 0
M  V30 271 H 26.0338 0.69666 0.240488 0
M  V30 272 H 28.6758 1.89866 -0.0714356 0
M  V30 273 H 26.8258 3.3765 1.92158 0
M  V30 274 H 28.4978 4.59689 -0.385228 0
M  V30 275 H 26.7408 4.3165 -0.431379 0
M  V30 276 H 27.4118 5.47242 0.723207 0
M  V30 277 H 29.8878 3.80377 1.68678 0
M  V30 278 H 28.7638 4.82127 2.62382 0
M  V30 279 H 29.0248 3.15104 3.101 0
M  V30 280 N 28.0839 -0.256276 1.55502 0
M  V30 281 C 29.3309 -0.985619 1.76895 0
M  V30 282 C 29.6589 -1.85671 0.579355 0
M  V30 283 O 28.9139 -1.90744 -0.437651 0
M  V30 284 C 29.2129 -1.88432 3.03691 0
M  V30 285 C 28.8789 -1.16936 4.35473 0
M  V30 286 C 27.5409 -0.97173 4.71286 0
M  V30 287 C 29.8929 -0.661889 5.1698 0
M  V30 288 C 27.2209 -0.254179 5.86149 0
M  V30 289 C 29.5729 0.042149 6.32586 0
M  V30 290 C 28.2369 0.25134 6.67027 0
M  V30 291 H 27.5069 -0.360663 0.647304 0
M  V30 292 H 30.1539 -0.256483 1.89775 0
M  V30 293 H 28.4589 -2.68021 2.85783 0
M  V30 294 H 30.1559 -2.45015 3.1744 0
M  V30 295 H 26.7459 -1.33332 4.07333 0
M  V30 296 H 30.9299 -0.802145 4.89775 0
M  V30 297 H 26.1859 -0.0815408 6.11346 0
M  V30 298 H 30.3599 0.443049 6.94989 0
M  V30 299 H 27.9869 0.809314 7.5588 0
M  V30 300 N 29.562 -1.4872 -0.521534 0
M  V30 301 C 30.525 -1.63379 -1.60748 0
M  V30 302 C 31.525 -0.50661 -1.52611 0
M  V30 303 O 32.715 -0.772601 -1.5613 0
M  V30 304 C 29.847 -1.61192 -3.00383 0
M  V30 305 H 31.04 -2.60217 -1.49087 0
M  V30 306 H 28.593 -1.37444 -0.744235 0
M  V30 307 H 29.328 -0.65863 -3.17541 0
M  V30 308 H 29.113 -2.43032 -3.07698 0
M  V30 309 H 30.603 -1.7466 -3.7932 0
M  V30 310 N 31.0401 0.771051 -1.3745 0
M  V30 311 C 31.9701 1.89827 -1.3597 0
M  V30 312 C 32.9511 1.68562 -0.228216 0
M  V30 313 O 34.1361 1.8941 -0.428675 0
M  V30 314 C 31.2661 3.2712 -1.16662 0
M  V30 315 C 30.2201 3.6295 -2.2683 0
M  V30 316 C 29.5461 4.98791 -1.92644 0
M  V30 317 C 30.8461 3.69627 -3.69017 0
M  V30 318 H 32.5401 1.91323 -2.30295 0
M  V30 319 H 30.0861 0.919082 -1.10855 0
M  V30 320 H 32.0391 4.05615 -1.14256 0
M  V30 321 H 30.7631 3.26059 -0.187926 0
M  V30 322 H 29.4221 2.86763 -2.28392 0
M  V30 323 H 29.0701 4.94271 -0.933021 0
M  V30 324 H 28.7701 5.23733 -2.66416 0
M  V30 325 H 30.2941 5.79685 -1.91826 0
M  V30 326 H 31.7081 4.38273 -3.69581 0
M  V30 327 H 30.1051 4.06067 -4.41848 0
M  V30 328 H 31.1751 2.70273 -4.02592 0
M  V30 329 N 32.5182 1.22032 0.997298 0
M  V30 330 C 33.4512 0.929735 2.08401 0
M  V30 331 C 34.4292 -0.125681 1.62114 0
M  V30 332 O 35.6132 0.00495409 1.88499 0
M  V30 333 C 32.7402 0.397488 3.3636 0
M  V30 334 C 31.7862 1.4369 4.01566 0
M  V30 335 S 32.6192 3.00874 4.42984 0
M  V30 336 C 33.7752 2.49276 5.74119 0
M  V30 337 H 34.0082 1.84998 2.32729 0
M  V30 338 H 31.5412 1.0509 1.13117 0
M  V30 339 H 33.4992 0.0969846 4.10385 0
M  V30 340 H 32.1602 -0.501571 3.10069 0
M  V30 341 H 31.3532 1.01427 4.93689 0
M  V30 342 H 30.9552 1.68588 3.33847 0
M  V30 343 H 33.2472 1.90242 6.50242 0
M  V30 344 H 34.1902 3.39872 6.21203 0
M  V30 345 H 34.5982 1.90714 5.31308 0
M  V30 346 N 33.9963 -1.19345 1.0293 0
M  V30 347 C 34.9263 -2.2481 0.631105 0
M  V30 348 C 35.9073 -1.66245 -0.360104 0
M  V30 349 O 37.0923 -1.92677 -0.242726 0
M  V30 350 C 34.2223 -3.47295 -0.0184607 0
M  V30 351 C 33.1763 -4.18536 0.895073 0
M  V30 352 C 32.5023 -5.34586 0.110592 0
M  V30 353 C 33.8023 -4.73287 2.209 0
M  V30 354 H 35.4963 -2.58372 1.51275 0
M  V30 355 H 33.0423 -1.24194 0.728818 0
M  V30 356 H 34.9953 -4.20268 -0.308675 0
M  V30 357 H 33.7193 -3.12933 -0.934907 0
M  V30 358 H 32.3783 -3.47446 1.16949 0
M  V30 359 H 32.0263 -4.96469 -0.807902 0
M  V30 360 H 31.7263 -5.83183 0.719087 0
M  V30 361 H 33.2503 -6.10355 -0.172871 0
M  V30 362 H 34.6643 -5.38013 1.98028 0
M  V30 363 H 33.0613 -5.32373 2.76946 0
M  V30 364 H 34.1313 -3.91331 2.86336 0
M  V30 365 N 35.4744 -0.807222 -1.35358 0
M  V30 366 C 36.4044 -0.232509 -2.3234 0
M  V30 367 C 37.3854 0.642386 -1.57504 0
M  V30 368 O 38.5704 0.572526 -1.85569 0
M  V30 369 C 35.7004 0.619238 -3.41735 0
M  V30 370 C 34.6544 -0.157215 -4.27711 0
M  V30 371 C 33.9804 0.816273 -5.28433 0
M  V30 372 C 35.2804 -1.35656 -5.04376 0
M  V30 373 H 36.9744 -1.04276 -2.80654 0
M  V30 374 H 34.5204 -0.50288 -1.34934 0
M  V30 375 H 36.4734 1.03137 -4.08584 0
M  V30 376 H 35.1974 1.46239 -2.92031 0
M  V30 377 H 33.8564 -0.550525 -3.62443 0
M  V30 378 H 33.5044 1.65494 -4.74996 0
M  V30 379 H 33.2044 0.301067 -5.86828 0
M  V30 380 H 34.7284 1.22659 -5.98153 0
M  V30 381 H 36.1424 -1.01927 -5.64166 0
M  V30 382 H 34.5394 -1.8063 -5.7227 0
M  V30 383 H 35.6094 -2.14288 -4.34981 0
M  V30 384 N 36.9525 1.47285 -0.560781 0
M  V30 385 C 38.1985 2.02764 -0.0381184 0
M  V30 386 C 38.5315 1.43384 1.30976 0
M  V30 387 O 37.8065 0.590733 1.85312 0
M  V30 388 C 38.0895 3.60064 0.0511427 0
M  V30 389 C 37.9425 4.2987 -1.32408 0
M  V30 390 C 39.2615 4.33439 0.762795 0
M  V30 391 H 36.3805 0.736841 -0.0153264 0
M  V30 392 H 39.0225 1.75675 -0.723759 0
M  V30 393 H 37.1725 3.83274 0.635065 0
M  V30 394 H 38.8445 4.17989 -1.95148 0
M  V30 395 H 37.0875 3.90085 -1.8978 0
M  V30 396 H 37.7585 5.38478 -1.21431 0
M  V30 397 H 40.2345 4.15243 0.266965 0
M  V30 398 H 39.1105 5.43124 0.794221 0
M  V30 399 H 39.3715 4.02915 1.81966 0
M  V30 400 N 38.4306 0.297415 1.54768 0
M  V30 401 C 39.6556 -0.318435 2.04941 0
M  V30 402 C 40.0806 -1.4701 1.17345 0
M  V30 403 O 39.4386 -1.80436 0.176758 0
M  V30 404 C 39.4866 -0.755749 3.52592 0
M  V30 405 O 38.5906 -1.86088 3.68028 0
M  V30 406 H 37.9316 -0.062421 0.661059 0
M  V30 407 H 40.4616 0.438215 1.99852 0
M  V30 408 H 40.4716 -1.04552 3.94376 0
M  V30 409 H 39.1466 0.0867233 4.1581 0
M  V30 410 H 37.7236 -1.57193 3.38149 0
M  V30 411 N 39.9087 -1.5758 0.0250728 0
M  V30 412 C 41.1367 -1.9593 -0.664747 0
M  V30 413 C 41.5517 -0.901352 -1.65895 0
M  V30 414 O 40.9087 0.117255 -1.82123 0
M  V30 415 C 40.9597 -3.34342 -1.37468 0
M  V30 416 O 40.6807 -4.36079 -0.420324 0
M  V30 417 C 42.1817 -3.873 -2.1567 0
M  V30 418 H 39.4017 -0.645405 -0.183557 0
M  V30 419 H 41.9457 -2.04329 0.0836372 0
M  V30 420 H 40.1007 -3.27175 -2.0745 0
M  V30 421 H 40.5147 -5.16297 -0.923991 0
M  V30 422 H 41.9887 -4.86504 -2.60803 0
M  V30 423 H 42.4657 -3.21331 -2.99405 0
M  V30 424 H 43.0717 -3.97723 -1.50654 0
M  V30 425 N 41.3868 0.248026 -1.55636 0
M  V30 426 C 42.6348 0.974295 -1.77065 0
M  V30 427 C 42.9558 1.85897 -0.588849 0
M  V30 428 O 42.2258 1.91868 0.395407 0
M  V30 429 H 40.8058 0.362733 -0.653019 0
M  V30 430 H 43.4678 0.266244 -1.93073 0
M  V30 431 H 42.5638 1.59667 -2.68166 0
M  V30 432 N 42.8649 1.48995 0.513639 0
M  V30 433 C 44.1139 1.57093 1.2651 0
M  V30 434 C 44.4269 0.257091 1.93903 0
M  V30 435 O 45.6329 0.216478 2.70636 0
M  V30 436 C 44.0889 2.77118 2.29638 0
M  V30 437 C 43.6969 4.15209 1.68241 0
M  V30 438 C 45.4409 2.94538 3.05692 0
M  V30 439 C 43.3479 5.26474 2.69406 0
M  V30 440 H 42.2779 0.584876 0.475854 0
M  V30 441 H 44.9289 1.7536 0.540487 0
M  V30 442 H 43.3109 2.52319 3.05207 0
M  V30 443 H 44.4849 4.50094 0.987505 0
M  V30 444 H 42.7999 4.03042 1.04623 0
M  V30 445 H 45.3969 3.74832 3.8132 0
M  V30 446 H 45.7399 2.04614 3.62545 0
M  V30 447 H 46.2729 3.19316 2.37238 0
M  V30 448 H 43.0119 6.18417 2.17351 0
M  V30 449 H 42.5319 4.96058 3.37175 0
M  V30 450 H 44.2109 5.55277 3.32078 0
M  V30 451 N 44.343 -0.763751 1.37857 0
M  V30 452 C 45.591 -1.51957 1.33243 0
M  V30 453 C 45.912 -1.94835 -0.0801709 0
M  V30 454 O 45.182 -1.66894 -1.02582 0
M  V30 455 H 43.762 -0.563626 0.49024 0
M  V30 456 H 46.424 -0.908504 1.7243 0
M  V30 457 H 45.52 -2.41523 1.97669 0
M  V30 458 N 45.8211 -1.22559 -0.990812 0
M  V30 459 C 46.7511 -1.0218 -2.09956 0
M  V30 460 C 47.7321 0.0579394 -1.70001 0
M  V30 461 O 48.9171 -0.104684 -1.93918 0
M  V30 462 C 46.0471 -0.601023 -3.4206 0
M  V30 463 C 45.0011 -1.62694 -3.95872 0
M  V30 464 C 44.3271 -1.06193 -5.24049 0
M  V30 465 C 45.6271 -3.01743 -4.2632 0
M  V30 466 H 47.3211 -1.94916 -2.27262 0
M  V30 467 H 44.8671 -0.938566 -1.09211 0
M  V30 468 H 46.8201 -0.445561 -4.19038 0
M  V30 469 H 45.5441 0.362005 -3.24588 0
M  V30 470 H 44.2031 -1.77021 -3.21028 0
M  V30 471 H 43.8511 -0.0901903 -5.02919 0
M  V30 472 H 43.5511 -1.74732 -5.61019 0
M  V30 473 H 45.0751 -0.918092 -6.03658 0
M  V30 474 H 46.4891 -2.90777 -4.94087 0
M  V30 475 H 44.8861 -3.67425 -4.74467 0
M  V30 476 H 45.9561 -3.51518 -3.34011 0
M  V30 477 N 47.2992 1.18797 -1.03562 0
M  V30 478 C 48.5452 1.89192 -0.746867 0
M  V30 479 C 48.9002 1.78531 0.717245 0
M  V30 480 O 48.1932 1.17137 1.51622 0
M  V30 481 C 48.3872 3.38692 -1.14117 0
M  V30 482 C 48.2162 3.63902 -2.64207 0
M  V30 483 C 46.9862 3.81553 -3.31279 0
M  V30 484 C 49.1842 3.64903 -3.62423 0
M  V30 485 N 47.1662 3.94455 -4.70402 0
M  V30 486 C 48.5372 3.83458 -4.87196 0
M  V30 487 C 50.5922 3.47965 -3.56125 0
M  V30 488 C 49.2952 3.86829 -6.06429 0
M  V30 489 C 51.3212 3.52616 -4.7478 0
M  V30 490 C 50.6832 3.71663 -5.9837 0
M  V30 491 H 46.7822 0.711141 -0.325273 0
M  V30 492 H 49.3662 1.42727 -1.32428 0
M  V30 493 H 47.5372 3.83864 -0.591889 0
M  V30 494 H 49.2692 3.96634 -0.803966 0
M  V30 495 H 46.0242 3.80723 -2.81686 0
M  V30 496 H 46.4482 4.0474 -5.42692 0
M  V30 497 H 51.0902 3.32189 -2.61553 0
M  V30 498 H 48.8082 4.01395 -7.01362 0
M  V30 499 H 52.3942 3.40791 -4.71543 0
M  V30 500 H 51.2742 3.75145 -6.88648 0
M  V30 501 N 48.7773 0.814389 1.34928 0
M  V30 502 C 50.0233 0.399013 1.98836 0
M  V30 503 C 50.3563 -1.03314 1.64438 0
M  V30 504 O 49.6313 -1.71811 0.911659 0
M  V30 505 C 49.9143 0.591629 3.55207 0
M  V30 506 C 49.7673 2.06928 3.99376 0
M  V30 507 C 51.0863 0.022199 4.40094 0
M  V30 508 H 48.2053 0.146451 0.722303 0
M  V30 509 H 50.8473 1.02537 1.59957 0
M  V30 510 H 48.9973 0.0584441 3.88456 0
M  V30 511 H 50.6693 2.66544 3.76499 0
M  V30 512 H 48.9123 2.56287 3.49999 0
M  V30 513 H 49.5833 2.1549 5.08201 0
M  V30 514 H 52.0593 0.477643 4.13349 0
M  V30 515 H 50.9353 0.186832 5.48582 0
M  V30 516 H 51.1963 -1.07215 4.28902 0
M  V30 517 N 50.2554 -1.46986 0.568584 0
M  V30 518 C 51.5034 -2.02041 0.0487022 0
M  V30 519 C 51.8244 -1.44408 -1.31039 0
M  V30 520 O 51.0944 -0.623477 -1.85714 0
M  V30 521 H 49.6744 -0.746849 0.015014 0
M  V30 522 H 52.3364 -1.80257 0.741168 0
M  V30 523 H 51.4324 -3.12085 -0.0308961 0
M  V30 524 N 51.7335 -0.305618 -1.54608 0
M  V30 525 C 52.6635 0.561482 -2.26649 0
M  V30 526 C 53.6445 1.13415 -1.26772 0
M  V30 527 O 54.8295 1.16262 -1.55553 0
M  V30 528 C 51.9595 1.73122 -3.01075 0
M  V30 529 C 50.9135 1.2887 -4.08138 0
M  V30 530 C 50.2395 2.54396 -4.70305 0
M  V30 531 C 51.5395 0.416578 -5.20636 0
M  V30 532 H 53.2335 -0.0393902 -2.99374 0
M  V30 533 H 50.7795 -0.020385 -1.43986 0
M  V30 534 H 52.7325 2.34396 -3.50195 0
M  V30 535 H 51.4565 2.3584 -2.25936 0
M  V30 536 H 50.1155 0.698991 -3.59875 0
M  V30 537 H 49.7635 3.15439 -3.918 0
M  V30 538 H 49.4635 2.25486 -5.42614 0
M  V30 539 H 50.9875 3.16464 -5.2219 0
M  V30 540 H 52.4015 0.935116 -5.65622 0
M  V30 541 H 50.7985 0.221046 -5.99693 0
M  V30 542 H 51.8685 -0.557162 -4.81688 0
M  V30 543 N 53.2116 1.57565 -0.0334293 0
M  V30 544 C 54.1746 2.09393 0.932048 0
M  V30 545 C 55.1746 1.00986 1.25134 0
M  V30 546 O 56.3646 1.27129 1.19096 0
M  V30 547 C 53.4966 2.56338 2.2473 0
M  V30 548 H 54.6896 2.95984 0.483085 0
M  V30 549 H 52.2426 1.54819 0.21468 0
M  V30 550 H 52.9776 1.7309 2.74245 0
M  V30 551 H 52.7626 3.35542 2.02865 0
M  V30 552 H 54.2526 2.96646 2.93923 0
M  V30 553 N 54.6897 -0.239769 1.55765 0
M  V30 554 C 56.1057 -0.588624 1.48349 0
M  V30 555 C 56.3057 -1.88005 0.72502 0
M  V30 556 O 55.3617 -2.51186 0.257269 0
M  V30 557 C 56.6747 -0.68474 2.928 0
M  V30 558 C 58.2227 -0.77659 3.03213 0
M  V30 559 C 58.6977 -0.904207 4.48986 0
M  V30 560 N 60.1887 -0.968896 4.52953 0
M  V30 561 C 60.9237 -1.08703 5.63002 0
M  V30 562 N 60.4197 -1.17026 6.82845 0
M  V30 563 N 62.2127 -1.12074 5.50814 0
M  V30 564 H 54.3637 0.607911 2.03515 0
M  V30 565 H 56.6267 0.21083 0.924259 0
M  V30 566 H 56.3327 0.194284 3.51163 0
M  V30 567 H 56.2067 -1.55435 3.43686 0
M  V30 568 H 58.5937 -1.64606 2.44926 0
M  V30 569 H 58.6747 0.118315 2.55526 0
M  V30 570 H 58.3187 -0.0392633 5.07885 0
M  V30 571 H 58.2487 -1.81426 4.9436 0
M  V30 572 H 60.7397 -0.915633 3.6664 0
M  V30 573 H 61.0527 -1.25966 7.62465 0
M  V30 574 H 59.3977 -1.13971 6.85591 0
M  V30 575 H 62.5887 -1.05226 4.5612 0
M  V30 576 H 62.7617 -1.20936 6.36615 0
M  V30 577 N 56.1678 -1.49265 -0.50573 0
M  V30 578 C 57.4158 -1.582 -1.25766 0
M  V30 579 C 57.7368 -0.268482 -1.93143 0
M  V30 580 O 57.0068 0.711833 -1.8251 0
M  V30 581 H 55.5868 -0.582873 -0.467191 0
M  V30 582 H 58.2488 -1.85865 -0.586525 0
M  V30 583 H 57.3448 -2.37563 -2.02412 0
M  V30 584 N 57.6459 0.756429 -1.3826 0
M  V30 585 C 58.8939 1.51248 -1.34047 0
M  V30 586 C 59.2149 1.94875 0.0698372 0
M  V30 587 O 58.4849 1.67436 1.01696 0
M  V30 588 H 57.0649 0.561018 -0.493222 0
M  V30 589 H 59.7269 0.899347 -1.7291 0
M  V30 590 H 58.8229 2.40472 -1.98947 0
M  V30 591 N 59.124 1.23083 0.984299 0
M  V30 592 C 60.056 0.96636 2.07832 0
M  V30 593 C 61.069 -0.0582135 1.62696 0
M  V30 594 O 62.258 0.176843 1.77622 0
M  V30 595 C 59.358 0.433397 3.36117 0
M  V30 596 C 58.531 1.51722 4.10243 0
M  V30 597 C 57.59 0.989821 5.16807 0
M  V30 598 O 56.616 1.67794 5.43906 0
M  V30 599 N 57.818 -0.184367 5.80207 0
M  V30 600 H 60.583 1.90824 2.31098 0
M  V30 601 H 58.144 1.13888 1.1507 0
M  V30 602 H 60.136 0.065699 4.04647 0
M  V30 603 H 58.706 -0.413806 3.09849 0
M  V30 604 H 57.926 2.05786 3.36223 0
M  V30 605 H 59.214 2.24619 4.56534 0
M  V30 606 H 58.612 -0.760062 5.60571 0
M  V30 607 H 57.169 -0.493366 6.4993 0
M  V30 608 N 60.6021 -1.18246 1.0419 0
M  V30 609 C 62.0181 -1.40269 0.761366 0
M  V30 610 C 62.2181 -1.90777 -0.648578 0
M  V30 611 O 61.2741 -2.0929 -1.41258 0
M  V30 612 C 62.5871 -2.40237 1.8085 0
M  V30 613 C 64.1351 -2.53961 1.82955 0
M  V30 614 C 64.6101 -3.57194 2.86664 0
M  V30 615 N 66.1011 -3.64702 2.85563 0
M  V30 616 C 66.8361 -4.44309 3.6246 0
M  V30 617 N 66.3321 -5.27514 4.49111 0
M  V30 618 N 68.1251 -4.39084 3.50944 0
M  V30 619 H 60.2761 -0.837882 1.95175 0
M  V30 620 H 62.5391 -0.430608 0.84456 0
M  V30 621 H 62.2451 -2.10176 2.81991 0
M  V30 622 H 62.1191 -3.39601 1.64168 0
M  V30 623 H 64.5061 -2.83338 0.824855 0
M  V30 624 H 64.5871 -1.54706 2.03715 0
M  V30 625 H 64.2311 -3.28558 3.87314 0
M  V30 626 H 64.1611 -4.5613 2.6316 0
M  V30 627 H 66.6521 -3.05289 2.22727 0
M  V30 628 H 66.9651 -5.85411 5.04493 0
M  V30 629 H 65.3101 -5.2693 4.53178 0
M  V30 630 H 68.5011 -3.7313 2.82651 0
M  V30 631 H 68.6741 -5.00883 4.11121 0
M  V30 632 N 62.0802 -0.821533 -1.34494 0
M  V30 633 C 63.3052 -0.420873 -2.03085 0
M  V30 634 C 63.7302 0.964915 -1.61465 0
M  V30 635 O 63.0882 1.62763 -0.798607 0
M  V30 636 C 63.1362 -0.529414 -3.56693 0
M  V30 637 O 62.2402 0.451302 -4.09923 0
M  V30 638 H 61.5812 -0.173489 -0.640935 0
M  V30 639 H 64.1112 -1.11157 -1.71771 0
M  V30 640 H 64.1212 -0.404671 -4.05988 0
M  V30 641 H 62.7962 -1.54014 -3.86332 0
M  V30 642 H 61.3732 0.285558 -3.71805 0
M  V30 643 N 63.5583 1.46682 -0.576371 0
M  V30 644 C 64.5213 2.28707 0.150239 0
M  V30 645 C 65.5213 1.38035 0.824794 0
M  V30 646 O 66.7113 1.60476 0.677719 0
M  V30 647 C 63.8433 3.18248 1.22192 0
M  V30 648 H 65.0363 2.94423 -0.570521 0
M  V30 649 H 62.5893 1.52688 -0.334078 0
M  V30 650 H 63.3243 2.57265 1.97447 0
M  V30 651 H 63.1093 3.85 0.742812 0
M  V30 652 H 64.5993 3.80001 1.73172 0
M  V30 653 N 65.0364 0.313813 1.54444 0
M  V30 654 C 65.9464 -0.565714 2.27677 0
M  V30 655 C 66.9624 -1.13754 1.31666 0
M  V30 656 O 68.1384 -1.15959 1.64668 0
M  V30 657 C 65.2034 -1.71528 3.01296 0
M  V30 658 C 64.2644 -1.17624 4.12872 0
M  V30 659 C 63.4974 -2.27102 4.8297 0
M  V30 660 O 63.7204 -3.47256 4.52514 0
M  V30 661 O 62.6544 -1.9307 5.70094 0
M  V30 662 H 66.4804 0.0287296 3.03686 0
M  V30 663 H 64.0654 0.0798312 1.49187 0
M  V30 664 H 65.9474 -2.38476 3.4743 0
M  V30 665 H 64.6224 -2.29608 2.2817 0
M  V30 666 H 63.5294 -0.472124 3.71109 0
M  V30 667 H 64.8624 -0.640695 4.88012 0
M  V30 668 N 66.5145 -1.57545 0.0417849 0
M  V30 669 C 67.7915 -1.83642 -0.673433 0
M  V30 670 C 68.1715 -0.928298 -1.89594 0
M  V30 671 O 67.5195 0.0129955 -2.28496 0
M  V30 672 C 67.7295 -3.33155 -1.03964 0
M  V30 673 C 69.0775 -3.99941 -1.42592 0
M  V30 674 O 70.1015 -3.37725 -1.13226 0
M  V30 675 O 68.9605 -5.09619 -1.9736 0
M  V30 676 H 66.0545 -0.757638 -0.331533 0
M  V30 677 H 68.6005 -1.69554 0.070433 0
M  V30 678 H 67.3725 -3.9093 -0.170098 0
M  V30 679 H 66.9955 -3.52396 -1.84126 0
M  V30 680 N 67.9926 0.231505 -1.5589 0
M  V30 681 C 69.2396 0.957352 -1.78441 0
M  V30 682 C 69.5676 1.84726 -0.60882 0
M  V30 683 O 68.8226 1.91416 0.40725 0
M  V30 684 C 69.1216 1.83577 -3.0665 0
M  V30 685 C 68.7876 1.09993 -4.37278 0
M  V30 686 C 67.4496 0.896629 -4.72773 0
M  V30 687 C 69.8016 0.579558 -5.17968 0
M  V30 688 C 67.1296 0.160896 -5.86479 0
M  V30 689 C 69.4816 -0.142783 -6.32439 0
M  V30 690 C 68.1456 -0.357427 -6.66542 0
M  V30 691 H 67.4156 0.35032 -0.65296 0
M  V30 692 H 70.0626 0.226259 -1.90159 0
M  V30 693 H 68.3676 2.63441 -2.90011 0
M  V30 694 H 70.0646 2.39934 -3.21298 0
M  V30 695 H 66.6546 1.26835 -4.09403 0
M  V30 696 H 70.8386 0.724125 -4.90989 0
M  V30 697 H 66.0946 -0.0157293 -6.11398 0
M  V30 698 H 70.2686 -0.553559 -6.94196 0
M  V30 699 H 67.8956 -0.929466 -7.54497 0
M  V30 700 N 69.4707 1.49531 0.497807 0
M  V30 701 C 70.7177 1.59179 1.25173 0
M  V30 702 C 71.0457 0.279932 1.92475 0
M  V30 703 O 70.3007 -0.732383 1.81479 0
M  V30 704 C 70.5997 2.70252 2.33878 0
M  V30 705 C 70.2657 4.11644 1.84012 0
M  V30 706 C 68.9277 4.50121 1.70132 0
M  V30 707 C 71.2797 5.00121 1.46725 0
M  V30 708 C 68.6077 5.74845 1.17348 0
M  V30 709 C 70.9597 6.25366 0.95392 0
M  V30 710 C 69.6237 6.6267 0.801538 0
M  V30 711 H 68.8937 0.582478 0.45804 0
M  V30 712 H 71.5407 1.83373 0.551948 0
M  V30 713 H 69.8457 2.40041 3.09657 0
M  V30 714 H 71.5427 2.74925 2.9192 0
M  V30 715 H 68.1327 3.81274 1.95775 0
M  V30 716 H 72.3167 4.71048 1.56294 0
M  V30 717 H 67.5727 6.02444 1.04264 0
M  V30 718 H 71.7467 6.93301 0.656225 0
M  V30 719 H 69.3737 7.59197 0.390351 0
M  V30 720 N 70.9488 -0.749086 1.3866 0
M  V30 721 C 72.1768 -1.53834 1.38358 0
M  V30 722 C 72.5918 -1.88783 -0.0255219 0
M  V30 723 O 71.9488 -1.53101 -0.993292 0
M  V30 724 C 71.9998 -2.83468 2.2434 0
M  V30 725 O 71.7208 -2.50008 3.5976 0
M  V30 726 C 73.2218 -3.7758 2.32267 0
M  V30 727 H 70.4418 -0.47585 0.473083 0
M  V30 728 H 72.9858 -0.926726 1.82297 0
M  V30 729 H 71.1408 -3.40995 1.83851 0
M  V30 730 H 71.5548 -3.33182 4.05081 0
M  V30 731 H 73.0288 -4.65478 2.96706 0
M  V30 732 H 73.5058 -4.18334 1.33765 0
M  V30 733 H 74.1118 -3.25976 2.73166 0
M  V30 734 N 72.4269 -1.23603 -0.977757 0
M  V30 735 C 73.6749 -1.06759 -1.71601 0
M  V30 736 C 73.9959 0.395929 -1.90938 0
M  V30 737 O 73.2659 1.28356 -1.47992 0
M  V30 738 H 71.8459 -0.392062 -0.635843 0
M  V30 739 H 74.5079 -1.55362 -1.1768 0
M  V30 740 H 73.6039 -1.55763 -2.70452 0
M  V30 741 N 73.905 1.17692 -1.04816 0
M  V30 742 C 75.153 1.87488 -0.754497 0
M  V30 743 C 75.474 1.81205 0.720407 0
M  V30 744 O 74.744 1.23544 1.52032 0
M  V30 745 H 73.324 0.694101 -0.276102 0
M  V30 746 H 75.986 1.42793 -1.32651 0
M  V30 747 H 75.082 2.93328 -1.06606 0
M  V30 748 N 75.3831 0.828654 1.34056 0
M  V30 749 C 76.7991 0.515135 1.51058 0
M  V30 750 C 76.9991 -0.959581 1.77184 0
M  V30 751 O 76.0551 -1.74382 1.82612 0
M  V30 752 C 77.3681 1.37963 2.67183 0
M  V30 753 C 78.9161 1.37735 2.81066 0
M  V30 754 C 79.3911 2.22645 4.00241 0
M  V30 755 N 80.8821 2.203 4.07458 0
M  V30 756 C 81.6171 2.82744 4.98842 0
M  V30 757 N 81.1131 3.54201 5.9541 0
M  V30 758 N 82.9061 2.72268 4.91759 0
M  V30 759 H 75.0571 1.78343 1.15358 0
M  V30 760 H 77.3201 0.760304 0.566252 0
M  V30 761 H 77.0261 2.42714 2.54525 0
M  V30 762 H 76.9001 1.0484 3.62338 0
M  V30 763 H 79.2871 0.337593 2.93163 0
M  V30 764 H 79.3681 1.74859 1.86703 0
M  V30 765 H 79.0121 3.26674 3.88905 0
M  V30 766 H 78.9421 1.82869 4.93829 0
M  V30 767 H 81.4331 1.68327 3.38341 0
M  V30 768 H 81.7461 3.9908 6.61782 0
M  V30 769 H 80.0911 3.58308 5.95517 0
M  V30 770 H 83.2821 2.16014 4.15278 0
M  V30 771 H 83.4551 3.21219 5.62781 0
M  V30 772 N 76.8612 -1.46375 0.584142 0
M  V30 773 C 78.2772 -1.57694 0.245929 0
M  V30 774 C 78.4772 -1.57903 -1.25175 0
M  V30 775 O 77.5332 -1.49676 -2.03355 0
M  V30 776 C 78.8462 -2.87028 0.896402 0
M  V30 777 C 80.3942 -3.00662 0.870127 0
M  V30 778 C 80.8692 -4.32734 1.50017 0
M  V30 779 N 82.3602 -4.39436 1.46458 0
M  V30 780 C 83.0952 -5.40248 1.92144 0
M  V30 781 N 82.5912 -6.47726 2.4581 0
M  V30 782 N 84.3842 -5.31459 1.83052 0
M  V30 783 H 76.5352 -1.44483 1.55687 0
M  V30 784 H 78.7982 -0.689291 0.650831 0
M  V30 785 H 78.5042 -2.9269 1.95002 0
M  V30 786 H 78.3782 -3.75014 0.405486 0
M  V30 787 H 80.7652 -2.94581 -0.174871 0
M  V30 788 H 80.8462 -2.14148 1.39908 0
M  V30 789 H 80.4902 -4.39573 2.54437 0
M  V30 790 H 80.4202 -5.18025 0.946432 0
M  V30 791 H 82.9112 -3.62367 1.07231 0
M  V30 792 H 83.2242 -7.20863 2.78525 0
M  V30 793 H 81.5692 -6.48542 2.49836 0
M  V30 794 H 84.7602 -4.46396 1.40883 0
M  V30 795 H 84.9332 -6.09881 2.18973 0
M  V30 796 N 78.3393 -0.321999 -1.54275 0
M  V30 797 C 79.2693 0.537411 -2.27231 0
M  V30 798 C 80.2503 1.12064 -1.27968 0
M  V30 799 O 81.4353 1.14606 -1.56777 0
M  V30 800 C 78.5653 1.69919 -3.02894 0
M  V30 801 C 77.5193 1.24534 -4.09482 0
M  V30 802 C 76.8453 2.49394 -4.72977 0
M  V30 803 C 78.1453 0.361335 -5.21049 0
M  V30 804 H 79.8393 -0.0711406 -2.99315 0
M  V30 805 H 77.3853 -0.0356555 -1.43956 0
M  V30 806 H 79.3383 2.30668 -3.52662 0
M  V30 807 H 78.0623 2.33431 -2.28424 0
M  V30 808 H 76.7213 0.660782 -3.60596 0
M  V30 809 H 76.3693 3.11265 -3.95124 0
M  V30 810 H 76.0693 2.19718 -5.44975 0
M  V30 811 H 77.5933 3.10908 -5.25517 0
M  V30 812 H 79.0073 0.875072 -5.66582 0
M  V30 813 H 77.4043 0.157428 -5.99893 0
M  V30 814 H 78.4743 -0.60822 -4.8107 0
M  V30 815 N 79.8174 1.5752 -0.0501392 0
M  V30 816 C 80.7804 2.1037 0.909786 0
M  V30 817 C 81.7804 1.02308 1.24056 0
M  V30 818 O 82.9704 1.28385 1.17741 0
M  V30 819 C 80.1024 2.58708 2.21998 0
M  V30 820 H 81.2954 2.96479 0.451665 0
M  V30 821 H 78.8484 1.55038 0.198248 0
M  V30 822 H 79.5834 1.75989 2.72394 0
M  V30 823 H 79.3684 3.37675 1.99295 0
M  V30 824 H 80.8584 2.99747 2.9076 0
M  V30 825 N 81.2955 -0.223234 1.56011 0
M  V30 826 C 82.2585 -1.26014 1.9145 0
M  V30 827 C 83.2585 -1.3989 0.792937 0
M  V30 828 O 84.4485 -1.38184 1.0607 0
M  V30 829 C 81.5805 -2.63422 2.16383 0
M  V30 830 H 82.7735 -0.95796 2.84189 0
M  V30 831 H 80.3265 -0.463576 1.49267 0
M  V30 832 H 81.0615 -2.98741 1.2619 0
M  V30 833 H 80.8465 -2.54728 2.98088 0
M  V30 834 H 82.3365 -3.38249 2.44903 0
M  V30 835 N 82.7736 -1.49793 -0.48987 0
M  V30 836 C 83.7036 -1.70201 -1.59856 0
M  V30 837 C 84.6846 -0.55076 -1.60937 0
M  V30 838 O 85.8696 -0.787841 -1.77501 0
M  V30 839 C 82.9996 -1.77882 -2.98287 0
M  V30 840 C 81.9536 -2.92907 -3.12073 0
M  V30 841 C 81.2796 -2.85712 -4.51965 0
M  V30 842 C 82.5796 -4.3369 -2.91051 0
M  V30 843 H 84.2736 -2.63025 -1.43032 0
M  V30 844 H 81.8196 -1.26574 -0.686664 0
M  V30 845 H 83.7726 -1.90744 -3.75759 0
M  V30 846 H 82.4966 -0.816653 -3.16225 0
M  V30 847 H 81.1556 -2.79665 -2.37029 0
M  V30 848 H 80.8036 -1.8738 -4.66795 0
M  V30 849 H 80.5036 -3.62921 -4.62128 0
M  V30 850 H 82.0276 -3.00598 -5.31482 0
M  V30 851 H 83.4416 -4.47555 -3.58284 0
M  V30 852 H 81.8386 -5.12205 -3.12675 0
M  V30 853 H 82.9086 -4.47362 -1.87071 0
M  V30 854 N 84.2517 0.741722 -1.39055 0
M  V30 855 C 85.6627 1.31966 -1.32068 0
M  V30 856 C 86.0137 1.96192 0.0180797 0
M  V30 857 O 85.1387 1.95861 0.920196 0
M  V30 858 C 85.7337 2.39954 -2.39181 0
M  V30 859 C 84.2927 2.93438 -2.35735 0
M  V30 860 C 83.4397 1.66936 -2.21422 0
M  V30 861 H 86.3907 0.539721 -1.4924 0
M  V30 862 H 86.4117 3.20182 -2.05581 0
M  V30 863 H 85.9237 1.9318 -3.36605 0
M  V30 864 H 84.0247 3.4451 -1.41929 0
M  V30 865 H 84.1377 3.4701 -3.30335 0
M  V30 866 H 82.5017 1.91016 -1.68478 0
M  V30 867 H 83.2847 1.22224 -3.20806 0
M  V30 868 N 85.7298 1.2412 0.971189 0
M  V30 869 C 86.9758 1.08041 1.71625 0
M  V30 870 C 87.3088 -0.380407 1.90438 0
M  V30 871 O 86.5838 -1.28127 1.46334 0
M  V30 872 C 86.8668 1.81682 3.10908 0
M  V30 873 C 86.7198 3.35493 2.99608 0
M  V30 874 C 88.0388 1.58671 4.10501 0
M  V30 875 H 85.1578 0.39388 0.622919 0
M  V30 876 H 87.7998 1.52743 1.13003 0
M  V30 877 H 85.9498 1.43684 3.60953 0
M  V30 878 H 87.6218 3.83068 2.57015 0
M  V30 879 H 85.8648 3.64052 2.35899 0
M  V30 880 H 86.5358 3.82217 3.98264 0
M  V30 881 H 89.0118 1.91719 3.69301 0
M  V30 882 H 87.8878 2.1266 5.06031 0
M  V30 883 H 88.1488 0.524161 4.38982 0
M  V30 884 N 87.2079 -1.17134 1.05439 0
M  V30 885 C 88.4559 -1.87085 0.764429 0
M  V30 886 C 88.7769 -1.81584 -0.710787 0
M  V30 887 O 88.0469 -1.24349 -1.51374 0
M  V30 888 H 86.6269 -0.692627 0.279779 0
M  V30 889 H 89.2889 -1.42087 1.33406 0
M  V30 890 H 88.3849 -2.92759 1.0816 0
M  V30 891 N 88.686 -0.835752 -1.33615 0
M  V30 892 C 89.616 -0.281739 -2.31794 0
M  V30 893 C 90.597 0.608833 -1.58831 0
M  V30 894 O 91.782 0.533035 -1.86741 0
M  V30 895 C 88.912 0.546612 -3.42971 0
M  V30 896 C 87.866 -0.247904 -4.27281 0
M  V30 897 C 87.192 0.704001 -5.30045 0
M  V30 898 C 88.492 -1.46324 -5.01385 0
M  V30 899 H 90.186 -1.10206 -2.78379 0
M  V30 900 H 87.732 -0.531388 -1.33837 0
M  V30 901 H 89.685 0.944467 -4.1068 0
M  V30 902 H 88.409 1.40011 -2.95067 0
M  V30 903 H 87.068 -0.627281 -3.61194 0
M  V30 904 H 86.716 1.55381 -4.78399 0
M  V30 905 H 86.416 0.176524 -5.87335 0
M  V30 906 H 87.94 1.09944 -6.0062 0
M  V30 907 H 89.354 -1.13871 -5.61877 0
M  V30 908 H 87.751 -1.92728 -5.6831 0
M  V30 909 H 88.821 -2.23467 -4.30338 0
M  V30 910 N 90.1641 1.46063 -0.591896 0
M  V30 911 C 91.3891 2.07226 -0.0850314 0
M  V30 912 C 91.8141 1.43625 1.21463 0
M  V30 913 O 91.1721 0.523305 1.73583 0
M  V30 914 C 91.2201 3.60554 0.0576567 0
M  V30 915 O 90.3241 3.97128 1.11188 0
M  V30 916 H 89.6651 0.660615 -0.0669568 0
M  V30 917 H 92.1951 1.8756 -0.81745 0
M  V30 918 H 92.2051 4.07165 0.2609 0
M  V30 919 H 90.8801 4.06235 -0.891416 0
M  V30 920 H 89.4571 3.62213 0.886356 0
M  V30 921 N 91.6422 0.330177 1.54103 0
M  V30 922 C 92.5722 -0.525353 2.27513 0
M  V30 923 C 93.5532 -1.11383 1.2856 0
M  V30 924 O 94.7382 -1.13773 1.57383 0
M  V30 925 C 91.8682 -1.6831 3.03791 0
M  V30 926 C 90.8222 -1.2236 4.10137 0
M  V30 927 C 90.1482 -2.46882 4.74293 0
M  V30 928 C 91.4482 -0.333697 5.21233 0
M  V30 929 H 93.1422 0.087013 2.99274 0
M  V30 930 H 90.6882 0.0432893 1.43935 0
M  V30 931 H 92.6412 -2.28795 3.5388 0
M  V30 932 H 91.3652 -2.32216 2.29659 0
M  V30 933 H 90.0242 -0.64165 3.60941 0
M  V30 934 H 89.6722 -3.09165 3.96769 0
M  V30 935 H 89.3722 -2.16825 5.46133 0
M  V30 936 H 90.8962 -3.08117 5.27159 0
M  V30 937 H 92.3102 -0.845013 5.67038 0
M  V30 938 H 90.7072 -0.125612 5.99969 0
M  V30 939 H 91.7772 0.633724 4.80741 0
M  V30 940 N 93.1203 -1.57491 0.0584922 0
M  V30 941 C 94.3453 -1.97711 -0.62652 0
M  V30 942 C 94.7703 -0.936132 -1.63151 0
M  V30 943 O 94.1283 0.099811 -1.81025 0
M  V30 944 C 94.1763 -3.36989 -1.28338 0
M  V30 945 O 93.2803 -3.35433 -2.39913 0
M  V30 946 H 92.6213 -0.643868 -0.162266 0
M  V30 947 H 95.1513 -2.04193 0.129064 0
M  V30 948 H 95.1613 -3.73879 -1.63335 0
M  V30 949 H 93.8363 -4.12289 -0.546889 0
M  V30 950 H 92.4133 -3.10298 -2.06809 0
M  V30 951 N 94.5984 0.214957 -1.56127 0
M  V30 952 C 95.5614 1.24997 -1.92116 0
M  V30 953 C 96.5614 1.39467 -0.800344 0
M  V30 954 O 97.7514 1.37619 -1.06802 0
M  V30 955 C 94.8834 2.62271 -2.17777 0
M  V30 956 H 96.0764 0.942875 -2.84693 0
M  V30 957 H 93.6294 0.455654 -1.49511 0
M  V30 958 H 94.3644 2.98068 -1.27773 0
M  V30 959 H 94.1494 2.53143 -2.99434 0
M  V30 960 H 95.6394 3.36946 -2.46693 0
M  V30 961 N 96.0765 1.50051 0.48192 0
M  V30 962 C 97.3015 1.64508 1.26301 0
M  V30 963 C 97.7265 0.323851 1.85291 0
M  V30 964 O 97.0845 -0.710969 1.66778 0
M  V30 965 C 97.1325 2.7305 2.35533 0
M  V30 966 O 96.2365 2.3355 3.39895 0
M  V30 967 H 95.5775 0.549978 0.372048 0
M  V30 968 H 98.1075 1.9636 0.574786 0
M  V30 969 H 98.1175 2.95799 2.8101 0
M  V30 970 H 96.7925 3.68946 1.91967 0
M  V30 971 H 95.3695 2.21205 3.00204 0
M  V30 972 N 97.5546 -0.734337 1.39446 0
M  V30 973 C 98.8016 -1.49391 1.36706 0
M  V30 974 C 99.1296 -1.94465 -0.0367813 0
M  V30 975 O 98.3846 -1.67154 -1.01774 0
M  V30 976 C 98.6836 -2.74711 2.28623 0
M  V30 977 C 98.3496 -2.48501 3.76242 0
M  V30 978 C 97.0116 -2.41062 4.16464 0
M  V30 979 C 99.3636 -2.26098 4.69606 0
M  V30 980 C 96.6916 -2.09262 5.48112 0
M  V30 981 C 99.0436 -1.95814 6.01531 0
M  V30 982 C 97.7076 -1.86845 6.40816 0
M  V30 983 H 96.9776 -0.546661 0.500243 0
M  V30 984 H 99.6246 -0.842788 1.71957 0
M  V30 985 H 97.9296 -3.44569 1.86492 0
M  V30 986 H 99.6266 -3.32741 2.23796 0
M  V30 987 H 96.2166 -2.55169 3.44364 0
M  V30 988 H 100.401 -2.30812 4.39363 0
M  V30 989 H 95.6566 -2.00841 5.77471 0
M  V30 990 H 99.8306 -1.77488 6.73403 0
M  V30 991 H 97.4576 -1.6197 7.42745 0
M  V30 992 N 99.0327 -1.24633 -0.964593 0
M  V30 993 C 99.9657 -0.984662 -2.05863 0
M  V30 994 C 100.944 0.0826554 -1.6239 0
M  V30 995 O 102.128 -0.0549296 -1.8842 0
M  V30 996 C 99.2547 -0.486529 -3.35187 0
M  V30 997 C 98.3007 -1.54286 -3.97615 0
M  V30 998 S 99.1337 -3.12513 -4.34851 0
M  V30 999 C 100.29 -2.6441 -5.67308 0
M  V30 1000 H 100.523 -1.91104 -2.27743 0
M  V30 1001 H 98.0557 -1.08052 -1.10291 0
M  V30 1002 H 100.014 -0.205757 -4.09984 0
M  V30 1003 H 98.6747 0.419186 -3.1129 0
M  V30 1004 H 97.8677 -1.14481 -4.90826 0
M  V30 1005 H 97.4697 -1.7738 -3.2926 0
M  V30 1006 H 99.7617 -2.07416 -6.44969 0
M  V30 1007 H 100.705 -3.56222 -6.11973 0
M  V30 1008 H 101.113 -2.04734 -5.26065 0
M  V30 1009 N 100.511 1.16574 -1.06058 0
M  V30 1010 C 101.736 1.91493 -0.796562 0
M  V30 1011 C 102.161 1.76773 0.642868 0
M  V30 1012 O 101.519 1.09142 1.44768 0
M  V30 1013 C 101.567 3.40293 -1.19303 0
M  V30 1014 O 100.671 4.11074 -0.330394 0
M  V30 1015 H 100.012 0.596678 -0.291326 0
M  V30 1016 H 102.542 1.47708 -1.41575 0
M  V30 1017 H 102.552 3.91057 -1.16356 0
M  V30 1018 H 101.227 3.50326 -2.24153 0
M  V30 1019 H 99.8038 3.70513 -0.421225 0
M  V30 1020 N 101.989 0.842826 1.3317 0
M  V30 1021 C 102.952 0.284065 2.27433 0
M  V30 1022 C 103.952 -0.54948 1.5112 0
M  V30 1023 O 105.142 -0.362699 1.70382 0
M  V30 1024 C 102.274 -0.599384 3.35589 0
M  V30 1025 H 103.467 1.11589 2.78366 0
M  V30 1026 H 101.02 0.616221 1.4364 0
M  V30 1027 H 101.755 -1.45349 2.89904 0
M  V30 1028 H 101.54 -0.00291266 3.921 0
M  V30 1029 H 103.03 -0.983488 4.05854 0
M  V30 1030 N 103.467 -1.45747 0.599634 0
M  V30 1031 C 104.713 -2.02592 0.0918643 0
M  V30 1032 C 105.046 -1.46806 -1.27128 0
M  V30 1033 O 104.321 -0.639658 -1.83681 0
M  V30 1034 C 104.604 -3.60073 0.0443398 0
M  V30 1035 C 104.457 -4.26208 1.43759 0
M  V30 1036 C 105.776 -4.35309 -0.647608 0
M  V30 1037 H 102.895 -0.736175 0.034857 0
M  V30 1038 H 105.537 -1.73694 0.770081 0
M  V30 1039 H 103.687 -3.84823 -0.533224 0
M  V30 1040 H 105.359 -4.12668 2.06162 0
M  V30 1041 H 103.602 -3.84916 2.00056 0
M  V30 1042 H 104.273 -5.35069 1.35665 0
M  V30 1043 H 106.749 -4.15805 -0.156776 0
M  V30 1044 H 105.625 -5.45038 -0.649942 0
M  V30 1045 H 105.886 -4.07598 -1.71219 0
M  V30 1046 N 104.945 -0.338344 -1.53925 0
M  V30 1047 C 105.877 0.555117 -2.22376 0
M  V30 1048 C 106.89 1.06812 -1.22862 0
M  V30 1049 O 108.079 0.979163 -1.49247 0
M  V30 1050 C 105.179 1.77609 -2.88631 0
M  V30 1051 C 104.352 1.39927 -4.14414 0
M  V30 1052 C 103.411 2.47936 -4.64127 0
M  V30 1053 O 102.437 2.11461 -5.28463 0
M  V30 1054 N 103.639 3.79107 -4.39612 0
M  V30 1055 H 106.404 -0.0310778 -2.99684 0
M  V30 1056 H 103.965 -0.162226 -1.61085 0
M  V30 1057 H 105.957 2.49287 -3.18807 0
M  V30 1058 H 104.527 2.26978 -2.14941 0
M  V30 1059 H 103.747 0.513481 -3.90841 0
M  V30 1060 H 105.035 1.12341 -4.96243 0
M  V30 1061 H 104.433 4.11531 -3.88148 0
M  V30 1062 H 102.99 4.4697 -4.74406 0
M  V30 1063 N 106.423 1.57458 -0.0668435 0
M  V30 1064 C 107.669 1.93587 0.6043 0
M  V30 1065 C 108.002 0.946722 1.69561 0
M  V30 1066 O 107.277 -0.0248516 1.94484 0
M  V30 1067 C 107.56 3.40014 1.18585 0
M  V30 1068 C 107.413 4.49685 0.101529 0
M  V30 1069 C 108.732 3.87154 2.09284 0
M  V30 1070 H 105.851 0.703958 0.218202 0
M  V30 1071 H 108.493 1.89542 -0.131804 0
M  V30 1072 H 106.643 3.43592 1.81319 0
M  V30 1073 H 108.315 4.5823 -0.531279 0
M  V30 1074 H 106.558 4.30059 -0.568487 0
M  V30 1075 H 107.229 5.49266 0.54874 0
M  V30 1076 H 109.705 3.85551 1.56491 0
M  V30 1077 H 108.581 4.90231 2.46911 0
M  V30 1078 H 108.842 3.2481 2.99918 0
M  V30 1079 N 107.901 -0.206675 1.56239 0
M  V30 1080 C 108.831 -1.25909 1.96645 0
M  V30 1081 C 109.812 -1.48097 0.836734 0
M  V30 1082 O 110.997 -1.6003 1.10019 0
M  V30 1083 C 108.127 -2.6058 2.29599 0
M  V30 1084 C 107.081 -2.53024 3.452 0
M  V30 1085 C 106.407 -3.91861 3.63798 0
M  V30 1086 C 107.707 -2.06524 4.79734 0
M  V30 1087 H 109.401 -0.923369 2.84806 0
M  V30 1088 H 106.947 -0.442735 1.37025 0
M  V30 1089 H 108.9 -3.34375 2.56459 0
M  V30 1090 H 107.624 -2.95869 1.38307 0
M  V30 1091 H 106.283 -1.81684 3.18412 0
M  V30 1092 H 105.931 -4.24483 2.69857 0
M  V30 1093 H 105.631 -3.87683 4.4156 0
M  V30 1094 H 107.155 -4.67296 3.93022 0
M  V30 1095 H 108.569 -2.70072 5.05702 0
M  V30 1096 H 106.966 -2.13374 5.60885 0
M  V30 1097 H 108.036 -1.01802 4.74093 0
M  V30 1098 N 109.379 -1.50304 -0.473955 0
M  V30 1099 C 110.627 -1.60832 -1.22382 0
M  V30 1100 C 110.948 -0.30939 -1.9253 0
M  V30 1101 O 110.218 0.67296 -1.83978 0
M  V30 1102 H 108.798 -0.592652 -0.454723 0
M  V30 1103 H 111.46 -1.87068 -0.546968 0
M  V30 1104 H 110.556 -2.41803 -1.97327 0
M  V30 1105 N 110.857 0.726932 -1.39834 0
M  V30 1106 C 112.103 1.48884 -1.377 0
M  V30 1107 C 112.436 1.94185 0.0244852 0
M  V30 1108 O 111.711 1.67361 0.990986 0
M  V30 1109 C 111.994 2.72288 -2.3565 0
M  V30 1110 C 111.847 2.32956 -3.84775 0
M  V30 1111 C 113.166 3.74414 -2.31306 0
M  V30 1112 H 110.285 0.540062 -0.5015 0
M  V30 1113 H 112.927 0.830547 -1.70886 0
M  V30 1114 H 111.077 3.28457 -2.07481 0
M  V30 1115 H 112.749 1.82356 -4.23726 0
M  V30 1116 H 110.992 1.65088 -4.01159 0
M  V30 1117 H 111.663 3.21362 -4.4881 0
M  V30 1118 H 114.139 3.27849 -2.56231 0
M  V30 1119 H 113.015 4.58414 -3.01907 0
M  V30 1120 H 113.276 4.21909 -1.32081 0
M  V30 1121 N 112.336 1.25143 0.95797 0
M  V30 1122 C 113.747 1.08851 1.51685 0
M  V30 1123 C 114.098 -0.33687 1.93286 0
M  V30 1124 O 113.223 -1.22644 1.7829 0
M  V30 1125 C 113.818 1.96978 2.75654 0
M  V30 1126 C 112.377 1.84881 3.27866 0
M  V30 1127 C 111.524 1.91329 2.0072 0
M  V30 1128 H 114.475 1.38478 0.77522 0
M  V30 1129 H 114.496 1.5078 3.4935 0
M  V30 1130 H 114.008 3.00712 2.45345 0
M  V30 1131 H 112.109 0.840182 3.63004 0
M  V30 1132 H 112.222 2.6951 3.96107 0
M  V30 1133 H 110.586 1.35174 2.15871 0
M  V30 1134 H 111.369 2.96661 1.72764 0
M  V30 1135 N 113.814 -1.1601 1.06675 0
M  V30 1136 C 115.039 -1.91068 0.806706 0
M  V30 1137 C 115.464 -1.77112 -0.633485 0
M  V30 1138 O 114.822 -1.09908 -1.44187 0
M  V30 1139 C 114.87 -3.39655 1.21106 0
M  V30 1140 O 113.974 -4.10893 0.352189 0
M  V30 1141 H 113.315 -0.595125 0.294486 0
M  V30 1142 H 115.845 -1.46955 1.42356 0
M  V30 1143 H 115.855 -3.90434 1.18428 0
M  V30 1144 H 114.53 -3.49132 2.26008 0
M  V30 1145 H 113.107 -3.70285 0.440868 0
M  V30 1146 N 115.292 -0.849877 -1.32721 0
M  V30 1147 C 116.202 -0.293791 -2.32753 0
M  V30 1148 C 117.218 0.585906 -1.63839 0
M  V30 1149 O 118.394 0.487413 -1.95413 0
M  V30 1150 C 115.459 0.512752 -3.42887 0
M  V30 1151 C 114.52 -0.39252 -4.27502 0
M  V30 1152 C 113.753 0.375625 -5.32377 0
M  V30 1153 O 113.976 1.60613 -5.4732 0
M  V30 1154 O 112.91 -0.256094 -6.01355 0
M  V30 1155 H 116.736 -1.12242 -2.82197 0
M  V30 1156 H 114.321 -0.612685 -1.36259 0
M  V30 1157 H 116.203 0.970704 -4.10067 0
M  V30 1158 H 114.878 1.31826 -2.95641 0
M  V30 1159 H 113.785 -0.898547 -3.63149 0
M  V30 1160 H 115.118 -1.16309 -4.7826 0
M  V30 1161 N 116.77 1.45427 -0.607355 0
M  V30 1162 C 117.733 2.28974 0.101693 0
M  V30 1163 C 118.733 1.39754 0.795329 0
M  V30 1164 O 119.923 1.61878 0.643527 0
M  V30 1165 C 117.055 3.20768 1.15414 0
M  V30 1166 H 118.248 2.93147 -0.632844 0
M  V30 1167 H 115.801 1.51945 -0.366391 0
M  V30 1168 H 116.536 2.61395 1.91945 0
M  V30 1169 H 116.321 3.86489 0.66098 0
M  V30 1170 H 117.811 3.83589 1.65073 0
M  V30 1171 N 118.248 0.346503 1.53744 0
M  V30 1172 C 119.478 -0.250047 2.05081 0
M  V30 1173 C 119.886 -1.44529 1.22098 0
M  V30 1174 O 119.229 -1.81992 0.249917 0
M  V30 1175 C 119.291 -0.725934 3.52094 0
M  V30 1176 C 118.955 0.350053 4.55657 0
M  V30 1177 C 119.952 1.19372 5.0601 0
M  V30 1178 C 117.637 0.504827 4.99757 0
M  V30 1179 C 119.631 2.17768 5.99046 0
M  V30 1180 C 117.318 1.49218 5.92602 0
M  V30 1181 C 118.316 2.32706 6.42135 0
M  V30 1182 O 118.004 3.2976 7.33153 0
M  V30 1183 H 117.736 -0.0515469 0.674032 0
M  V30 1184 H 120.29 0.497559 1.99282 0
M  V30 1185 H 118.52 -1.52483 3.55367 0
M  V30 1186 H 120.209 -1.24336 3.86388 0
M  V30 1187 H 120.975 1.08525 4.72702 0
M  V30 1188 H 116.854 -0.135178 4.60802 0
M  V30 1189 H 120.398 2.82971 6.37631 0
M  V30 1190 H 116.295 1.6012 6.25325 0
M  V30 1191 H 117.063 3.25265 7.51096 0
M  V30 1192 N 119.726 -1.57421 0.075193 0
M  V30 1193 C 121.142 -1.57099 -0.281444 0
M  V30 1194 C 121.342 -1.08486 -1.69803 0
M  V30 1195 O 120.398 -0.752279 -2.41033 0
M  V30 1196 C 121.711 -3.00571 -0.0880041 0
M  V30 1197 C 123.259 -3.12605 -0.157281 0
M  V30 1198 C 123.734 -4.57999 0.0079207 0
M  V30 1199 N 125.225 -4.63176 -0.0475725 0
M  V30 1200 C 125.96 -5.73373 0.0557876 0
M  V30 1201 N 125.456 -6.92473 0.21286 0
M  V30 1202 N 127.249 -5.621 -0.00152098 0
M  V30 1203 H 119.4 -1.87335 1.00098 0
M  V30 1204 H 121.663 -0.86377 0.390646 0
M  V30 1205 H 121.369 -3.40262 0.889629 0
M  V30 1206 H 121.243 -3.67754 -0.838875 0
M  V30 1207 H 123.63 -2.72798 -1.1254 0
M  V30 1208 H 123.711 -2.48053 0.62475 0
M  V30 1209 H 123.355 -4.98496 0.972824 0
M  V30 1210 H 123.285 -5.20586 -0.793556 0
M  V30 1211 H 125.776 -3.7753 -0.167244 0
M  V30 1212 H 126.089 -7.72279 0.283781 0
M  V30 1213 H 124.434 -6.94556 0.248267 0
M  V30 1214 H 127.625 -4.67938 -0.122958 0
M  V30 1215 H 127.798 -6.47948 0.0824844 0
M  V30 1216 N 121.204 0.198386 -1.56346 0
M  V30 1217 C 122.434 0.934215 -1.84271 0
M  V30 1218 C 122.842 1.77496 -0.655125 0
M  V30 1219 O 122.185 1.7961 0.385488 0
M  V30 1220 C 122.247 1.88278 -3.06254 0
M  V30 1221 C 121.911 1.22431 -4.40295 0
M  V30 1222 C 122.908 0.602839 -5.16393 0
M  V30 1223 C 120.593 1.22915 -4.87029 0
M  V30 1224 C 122.587 -0.0050083 -6.374 0
M  V30 1225 C 120.274 0.617465 -6.07973 0
M  V30 1226 C 121.272 0.00146341 -6.83 0
M  V30 1227 O 120.96 -0.600642 -8.01653 0
M  V30 1228 H 120.692 0.278245 -0.616081 0
M  V30 1229 H 123.246 0.211626 -2.04307 0
M  V30 1230 H 121.476 2.64498 -2.82095 0
M  V30 1231 H 123.165 2.48612 -3.20853 0
M  V30 1232 H 123.931 0.591265 -4.81382 0
M  V30 1233 H 119.81 1.69801 -4.28589 0
M  V30 1234 H 123.354 -0.48643 -6.95902 0
M  V30 1235 H 119.251 0.62653 -6.42452 0
M  V30 1236 H 120.019 -0.497225 -8.16988 0
M  V30 1237 N 122.682 1.50554 0.465978 0
M  V30 1238 C 123.93 1.61479 1.21528 0
M  V30 1239 C 124.251 0.319596 1.92363 0
M  V30 1240 O 123.521 -0.663194 1.84333 0
M  V30 1241 H 122.101 0.595055 0.451573 0
M  V30 1242 H 124.763 1.87355 0.53704 0
M  V30 1243 H 123.859 2.42846 1.96042 0
M  V30 1244 N 124.16 -0.719506 1.40217 0
M  V30 1245 C 125.09 -1.8465 1.42922 0
M  V30 1246 C 126.071 -1.67599 0.29062 0
M  V30 1247 O 127.256 -1.87688 0.498677 0
M  V30 1248 C 124.386 -3.22565 1.28722 0
M  V30 1249 C 123.34 -3.54281 2.40144 0
M  V30 1250 C 122.666 -4.91298 2.11023 0
M  V30 1251 C 123.966 -3.55676 3.82481 0
M  V30 1252 H 125.66 -1.82644 2.37237 0
M  V30 1253 H 123.206 -0.877305 1.1419 0
M  V30 1254 H 125.159 -4.01095 1.29232 0
M  V30 1255 H 123.883 -3.25137 0.308811 0
M  V30 1256 H 122.542 -2.78088 2.38877 0
M  V30 1257 H 122.19 -4.90468 1.11582 0
M  V30 1258 H 121.89 -5.13485 2.8567 0
M  V30 1259 H 123.414 -5.72166 2.13209 0
M  V30 1260 H 124.828 -4.24254 3.85592 0
M  V30 1261 H 123.225 -3.89388 4.56614 0
M  V30 1262 H 124.295 -2.55144 4.12346 0
M  V30 1263 N 125.638 -1.25649 -0.95132 0
M  V30 1264 C 126.585 -1.06323 -2.04851 0
M  V30 1265 C 127.555 0.0286491 -1.66075 0
M  V30 1266 O 128.74 -0.12917 -1.90362 0
M  V30 1267 C 125.88 -0.691529 -3.381 0
M  V30 1268 C 124.993 -1.85861 -3.89974 0
M  V30 1269 C 124.128 -1.43096 -5.11563 0
M  V30 1270 C 123.167 -2.56696 -5.55674 0
M  V30 1271 N 122.304 -2.14684 -6.68472 0
M  V30 1272 H 127.144 -2.00222 -2.20715 0
M  V30 1273 H 124.681 -0.997027 -1.08156 0
M  V30 1274 H 126.639 -0.456963 -4.1469 0
M  V30 1275 H 125.269 0.210474 -3.22113 0
M  V30 1276 H 124.321 -2.20639 -3.09875 0
M  V30 1277 H 125.633 -2.71161 -4.18657 0
M  V30 1278 H 124.787 -1.15624 -5.9558 0
M  V30 1279 H 123.526 -0.548722 -4.84603 0
M  V30 1280 H 122.531 -2.84909 -4.7022 0
M  V30 1281 H 123.756 -3.45503 -5.8464 0
M  V30 1282 H 121.702 -1.28881 -6.43215 0
M  V30 1283 H 121.619 -2.9353 -6.96689 0
M  V30 1284 H 122.887 -1.90397 -7.5589 0
M  V30 1285 N 127.117 1.15442 -1.07289 0
M  V30 1286 C 128.364 1.86213 -0.795668 0
M  V30 1287 C 128.692 1.82291 0.678238 0
M  V30 1288 O 127.947 1.24057 1.51355 0
M  V30 1289 C 128.246 3.3489 -1.24834 0
M  V30 1290 C 127.912 3.59007 -2.72809 0
M  V30 1291 C 126.574 3.65298 -3.13227 0
M  V30 1292 C 128.926 3.68762 -3.68326 0
M  V30 1293 C 126.254 3.78854 -4.4798 0
M  V30 1294 C 128.606 3.83842 -5.0284 0
M  V30 1295 C 127.27 3.88378 -5.4288 0
M  V30 1296 H 126.54 0.681403 -0.291155 0
M  V30 1297 H 129.187 1.36435 -1.34379 0
M  V30 1298 H 127.492 3.8687 -0.619595 0
M  V30 1299 H 129.189 3.88052 -1.01076 0
M  V30 1300 H 125.779 3.5475 -2.40521 0
M  V30 1301 H 129.963 3.63202 -3.38227 0
M  V30 1302 H 125.219 3.80623 -4.78472 0
M  V30 1303 H 129.393 3.90332 -5.76727 0
M  V30 1304 H 127.02 3.98635 -6.47298 0
M  V30 1305 N 128.595 0.856903 1.32268 0
M  V30 1306 C 129.525 0.31858 2.31316 0
M  V30 1307 C 130.506 -0.583487 1.59779 0
M  V30 1308 O 131.691 -0.503259 1.87566 0
M  V30 1309 C 128.821 -0.491979 3.43798 0
M  V30 1310 C 127.775 0.315849 4.26833 0
M  V30 1311 C 127.101 -0.619586 5.31098 0
M  V30 1312 C 128.401 1.54282 4.98993 0
M  V30 1313 H 130.095 1.14621 2.76591 0
M  V30 1314 H 127.641 0.552613 1.32974 0
M  V30 1315 H 129.594 -0.879012 4.1213 0
M  V30 1316 H 128.318 -1.35299 2.97257 0
M  V30 1317 H 126.977 0.684664 3.6015 0
M  V30 1318 H 126.625 -1.47751 4.8081 0
M  V30 1319 H 126.325 -0.0830621 5.87541 0
M  V30 1320 H 127.849 -1.00375 6.02293 0
M  V30 1321 H 129.263 1.22796 5.59995 0
M  V30 1322 H 127.66 2.01745 5.65172 0
M  V30 1323 H 128.73 2.30285 4.26728 0
M  V30 1324 N 130.073 -1.45103 0.615059 0
M  V30 1325 C 131.319 -2.03035 0.121804 0
M  V30 1326 C 131.674 -1.47393 -1.23665 0
M  V30 1327 O 130.967 -0.642061 -1.80522 0
M  V30 1328 C 131.161 -3.57386 0.0318797 0
M  V30 1329 C 130.99 -4.28 1.38007 0
M  V30 1330 C 129.76 -4.65624 1.9627 0
M  V30 1331 C 131.958 -4.5948 2.31047 0
M  V30 1332 N 129.94 -5.21132 3.24492 0
M  V30 1333 C 131.311 -5.159 3.43872 0
M  V30 1334 C 133.366 -4.41423 2.30326 0
M  V30 1335 C 132.069 -5.56165 4.5615 0
M  V30 1336 C 134.095 -4.82726 3.41658 0
M  V30 1337 C 133.457 -5.39245 4.53205 0
M  V30 1338 H 129.556 -0.77702 0.0881159 0
M  V30 1339 H 132.14 -1.76819 0.815044 0
M  V30 1340 H 130.311 -3.83247 -0.630599 0
M  V30 1341 H 132.043 -4.01976 -0.468721 0
M  V30 1342 H 128.798 -4.49421 1.49392 0
M  V30 1343 H 129.222 -5.53377 3.90004 0
M  V30 1344 H 133.864 -3.97033 1.45343 0
M  V30 1345 H 131.582 -5.99517 5.41854 0
M  V30 1346 H 135.168 -4.7048 3.42257 0
M  V30 1347 H 134.048 -5.70616 5.37929 0
M  V30 1348 N 131.551 -0.354651 -1.53558 0
M  V30 1349 C 132.484 0.540273 -2.21712 0
M  V30 1350 C 133.462 1.09161 -1.2051 0
M  V30 1351 O 134.646 1.14979 -1.49372 0
M  V30 1352 C 131.773 1.74435 -2.90328 0
M  V30 1353 C 130.819 1.32146 -4.05512 0
M  V30 1354 S 131.652 0.331924 -5.3447 0
M  V30 1355 C 132.808 1.54258 -6.06593 0
M  V30 1356 H 133.041 -0.0385776 -2.97275 0
M  V30 1357 H 130.574 -0.138736 -1.53775 0
M  V30 1358 H 132.532 2.43507 -3.30476 0
M  V30 1359 H 131.193 2.29444 -2.1451 0
M  V30 1360 H 130.386 2.21952 -4.52497 0
M  V30 1361 H 129.988 0.710091 -3.67197 0
M  V30 1362 H 132.28 2.47534 -6.30661 0
M  V30 1363 H 133.223 1.11431 -6.99277 0
M  V30 1364 H 133.631 1.74367 -5.36895 0
M  V30 1365 N 133.029 1.57378 -0.0835403 0
M  V30 1366 C 134.269 1.95808 0.586381 0
M  V30 1367 C 134.633 0.963706 1.66062 0
M  V30 1368 O 135.834 1.23608 2.38693 0
M  V30 1369 C 134.105 3.38808 1.13771 0
M  V30 1370 S 135.664 3.99225 1.82112 0
M  V30 1371 H 132.482 0.684675 0.191679 0
M  V30 1372 H 135.084 1.94843 -0.160194 0
M  V30 1373 H 133.788 4.08954 0.344197 0
M  V30 1374 H 133.319 3.43344 1.92038 0
M  V30 1375 H 135.334 3.87087 3.10449 0
M  V30 1376 N 134.507 -0.190092 1.56449 0
M  V30 1377 C 135.437 -1.23816 1.97969 0
M  V30 1378 C 136.418 -1.47201 0.852395 0
M  V30 1379 O 137.603 -1.58854 1.1171 0
M  V30 1380 C 134.733 -2.5813 2.3235 0
M  V30 1381 C 133.687 -2.49348 3.47864 0
M  V30 1382 C 133.013 -3.8798 3.67934 0
M  V30 1383 C 134.313 -2.01424 4.81898 0
M  V30 1384 H 136.007 -0.89311 2.85769 0
M  V30 1385 H 133.553 -0.428177 1.37487 0
M  V30 1386 H 135.506 -3.31637 2.59991 0
M  V30 1387 H 134.23 -2.94386 1.41438 0
M  V30 1388 H 132.889 -1.78297 3.20321 0
M  V30 1389 H 132.537 -4.21597 2.74344 0
M  V30 1390 H 132.237 -3.82978 4.45648 0
M  V30 1391 H 133.761 -4.63101 3.97957 0
M  V30 1392 H 135.175 -2.64693 5.08538 0
M  V30 1393 H 133.572 -2.07413 5.63116 0
M  V30 1394 H 134.642 -0.967677 4.75146 0
M  V30 1395 N 135.985 -1.50799 -0.457987 0
M  V30 1396 C 137.233 -1.62121 -1.2067 0
M  V30 1397 C 137.554 -0.329793 -1.92191 0
M  V30 1398 O 136.824 0.653409 -1.84682 0
M  V30 1399 H 135.404 -0.597441 -0.448411 0
M  V30 1400 H 138.066 -1.87637 -0.527096 0
M  V30 1401 H 137.162 -2.43882 -1.94751 0
M  V30 1402 N 137.463 0.71206 -1.40597 0
M  V30 1403 C 138.395 1.83704 -1.37061 0
M  V30 1404 C 139.408 1.60453 -0.275426 0
M  V30 1405 O 140.597 1.70262 -0.53602 0
M  V30 1406 C 137.697 3.20172 -1.11099 0
M  V30 1407 C 136.87 3.7059 -2.3234 0
M  V30 1408 C 135.929 4.85681 -2.02485 0
M  V30 1409 O 134.955 4.9815 -2.75382 0
M  V30 1410 N 136.157 5.71735 -1.00497 0
M  V30 1411 H 138.922 1.87235 -2.34016 0
M  V30 1412 H 136.483 0.893739 -1.34996 0
M  V30 1413 H 138.475 3.94768 -0.891064 0
M  V30 1414 H 137.045 3.11767 -0.227989 0
M  V30 1415 H 136.265 2.87085 -2.7014 0
M  V30 1416 H 137.553 4.01011 -3.13157 0
M  V30 1417 H 136.951 5.64275 -0.401298 0
M  V30 1418 H 135.508 6.463 -0.844942 0
M  V30 1419 N 138.941 1.26152 0.944643 0
M  V30 1420 C 139.871 1.09902 2.06019 0
M  V30 1421 C 140.852 0.00519538 1.70099 0
M  V30 1422 O 142.037 0.176583 1.93396 0
M  V30 1423 C 139.167 0.727562 3.39594 0
M  V30 1424 C 138.121 1.77274 3.89561 0
M  V30 1425 C 137.447 1.25569 5.19747 0
M  V30 1426 C 138.747 3.17357 4.14827 0
M  V30 1427 H 140.441 2.03217 2.19871 0
M  V30 1428 H 137.987 0.978452 1.05652 0
M  V30 1429 H 139.94 0.600777 4.17095 0
M  V30 1430 H 138.664 -0.241287 3.25707 0
M  V30 1431 H 137.323 1.88814 3.14237 0
M  V30 1432 H 136.971 0.276783 5.02238 0
M  V30 1433 H 136.671 1.95433 5.54148 0
M  V30 1434 H 138.195 1.1415 5.99835 0
M  V30 1435 H 139.609 3.08914 4.82954 0
M  V30 1436 H 138.006 3.84781 4.60504 0
M  V30 1437 H 139.076 3.63673 3.20734 0
M  V30 1438 N 140.419 -1.14872 1.07899 0
M  V30 1439 C 141.349 -2.2193 0.725887 0
M  V30 1440 C 142.33 -1.67622 -0.28927 0
M  V30 1441 O 143.515 -1.93533 -0.160787 0
M  V30 1442 C 140.645 -3.47061 0.128856 0
M  V30 1443 C 139.599 -4.14363 1.07178 0
M  V30 1444 C 138.925 -5.33636 0.337229 0
M  V30 1445 C 140.225 -4.63492 2.40775 0
M  V30 1446 H 141.919 -2.51724 1.62097 0
M  V30 1447 H 139.465 -1.20991 0.780838 0
M  V30 1448 H 141.418 -4.21199 -0.130147 0
M  V30 1449 H 140.142 -3.16617 -0.80134 0
M  V30 1450 H 138.801 -3.42173 1.3158 0
M  V30 1451 H 138.449 -4.99449 -0.596606 0
M  V30 1452 H 138.149 -5.79609 0.965788 0
M  V30 1453 H 139.673 -6.10539 0.0861567 0
M  V30 1454 H 141.087 -5.2913 2.20669 0
M  V30 1455 H 139.484 -5.20148 2.99276 0
M  V30 1456 H 140.554 -3.78834 3.02676 0
M  V30 1457 N 141.898 -0.863906 -1.31812 0
M  V30 1458 C 142.846 -0.30422 -2.30602 0
M  V30 1459 C 143.84 0.577419 -1.59255 0
M  V30 1460 O 145.046 0.464194 -1.73912 0
M  V30 1461 H 141.421 -0.0796877 -0.747766 0
M  V30 1462 H 143.392 -1.15148 -2.75288 0
M  V30 1463 C 142.141 0.484617 -3.44306 0
M  V30 1464 H 141.464 -0.18451 -3.99374 0
M  V30 1465 H 142.904 0.841664 -4.15562 0
M  V30 1466 C 141.363 1.6735 -2.92396 0
M  V30 1467 O 141.893 2.77273 -2.90659 0
M  V30 1468 N 140.099 1.50362 -2.48676 0
M  V30 1469 H 139.646 0.609402 -2.50288 0
M  V30 1470 H 139.604 2.30051 -2.14299 0
M  V30 1471 N 143.376 1.44774 -0.622745 0
M  V30 1472 C 144.601 2.06999 -0.128968 0
M  V30 1473 C 145.026 1.4617 1.1839 0
M  V30 1474 O 144.384 0.560007 1.72434 0
M  V30 1475 C 144.432 3.60595 -0.0188351 0
M  V30 1476 O 143.536 3.99398 1.02739 0
M  V30 1477 H 142.877 0.659047 -0.0809544 0
M  V30 1478 H 145.407 1.85784 -0.85705 0
M  V30 1479 H 145.417 4.07627 0.174476 0
M  V30 1480 H 144.092 4.04252 -0.977384 0
M  V30 1481 H 142.669 3.64011 0.809326 0
M  V30 1482 N 144.854 0.36279 1.53368 0
M  V30 1483 C 146.1 -0.228113 2.01513 0
M  V30 1484 C 146.433 -1.48648 1.2497 0
M  V30 1485 O 145.708 -1.91459 0.342616 0
M  V30 1486 C 145.991 -0.522884 3.56284 0
M  V30 1487 C 145.844 0.74892 4.43521 0
M  V30 1488 C 147.163 -1.32461 4.19693 0
M  V30 1489 H 144.282 -0.0814343 0.732487 0
M  V30 1490 H 146.924 0.48713 1.83649 0
M  V30 1491 H 145.074 -1.1322 3.71636 0
M  V30 1492 H 146.746 1.38648 4.39971 0
M  V30 1493 H 144.989 1.36986 4.11603 0
M  V30 1494 H 145.66 0.497667 5.49752 0
M  V30 1495 H 148.136 -0.809203 4.08156 0
M  V30 1496 H 147.012 -1.49961 5.28018 0
M  V30 1497 H 147.273 -2.33232 3.75573 0
M  V30 1498 N 146.332 -1.57332 0.0918853 0
M  V30 1499 C 147.262 -2.16872 -0.865371 0
M  V30 1500 C 148.243 -1.10118 -1.29646 0
M  V30 1501 O 149.428 -1.38242 -1.36392 0
M  V30 1502 C 146.558 -2.74649 -2.12569 0
M  V30 1503 C 145.512 -3.86747 -1.83333 0
M  V30 1504 C 144.838 -4.31212 -3.16166 0
M  V30 1505 C 146.138 -5.10089 -1.1228 0
M  V30 1506 H 147.832 -2.97114 -0.369307 0
M  V30 1507 H 145.378 -1.42918 -0.176194 0
M  V30 1508 H 147.331 -3.14952 -2.7997 0
M  V30 1509 H 146.055 -1.91657 -2.64452 0
M  V30 1510 H 144.714 -3.46978 -1.18331 0
M  V30 1511 H 144.362 -3.45115 -3.6593 0
M  V30 1512 H 144.062 -5.06788 -2.97388 0
M  V30 1513 H 145.586 -4.74146 -3.84731 0
M  V30 1514 H 147 -5.47582 -1.69785 0
M  V30 1515 H 145.397 -5.91073 -1.03693 0
M  V30 1516 H 146.467 -4.84786 -0.105041 0
M  V30 1517 N 147.81 0.181792 -1.56548 0
M  V30 1518 C 149.038 0.915947 -1.85521 0
M  V30 1519 C 149.453 1.76282 -0.676016 0
M  V30 1520 O 148.81 1.79012 0.355077 0
M  V30 1521 C 148.861 1.80126 -3.13427 0
M  V30 1522 O 148.582 0.988562 -4.26801 0
M  V30 1523 C 150.083 2.64597 -3.55673 0
M  V30 1524 H 147.303 0.26661 -0.61576 0
M  V30 1525 H 149.847 0.185039 -2.03661 0
M  V30 1526 H 148.002 2.48563 -2.97145 0
M  V30 1527 H 148.416 1.59308 -4.99721 0
M  V30 1528 H 149.89 3.2235 -4.48101 0
M  V30 1529 H 150.367 3.38958 -2.79292 0
M  V30 1530 H 150.973 2.0151 -3.74532 0
M  V30 1531 N 149.288 1.51039 0.449983 0
M  V30 1532 C 150.251 1.70863 1.5277 0
M  V30 1533 C 151.251 0.578846 1.5002 0
M  V30 1534 O 152.441 0.846213 1.52266 0
M  V30 1535 C 149.573 1.75341 2.9235 0
M  V30 1536 H 150.766 2.67034 1.36502 0
M  V30 1537 H 148.319 1.40838 0.677812 0
M  V30 1538 H 149.054 0.809383 3.14037 0
M  V30 1539 H 148.839 2.57436 2.95752 0
M  V30 1540 H 150.329 1.92559 3.70555 0
M  V30 1541 N 150.766 -0.704594 1.40972 0
M  V30 1542 C 151.696 -1.83124 1.44872 0
M  V30 1543 C 152.677 -1.67281 0.30838 0
M  V30 1544 O 153.862 -1.87149 0.518556 0
M  V30 1545 C 150.992 -3.21181 1.32136 0
M  V30 1546 C 149.946 -3.51714 2.43888 0
M  V30 1547 C 149.272 -4.89032 2.16222 0
M  V30 1548 C 150.572 -3.516 3.86232 0
M  V30 1549 H 152.266 -1.80117 2.39161 0
M  V30 1550 H 149.812 -0.865145 1.15114 0
M  V30 1551 H 151.765 -3.99702 1.33479 0
M  V30 1552 H 150.489 -3.24791 0.343279 0
M  V30 1553 H 149.148 -2.75539 2.41813 0
M  V30 1554 H 148.796 -4.89256 1.16778 0
M  V30 1555 H 148.496 -5.10426 2.911 0
M  V30 1556 H 150.02 -5.69873 2.19265 0
M  V30 1557 H 151.434 -4.2014 3.9007 0
M  V30 1558 H 149.831 -3.84523 4.60719 0
M  V30 1559 H 150.901 -2.50757 4.15029 0
M  V30 1560 N 152.244 -1.26651 -0.937939 0
M  V30 1561 C 153.174 -1.10993 -2.05433 0
M  V30 1562 C 154.155 -0.0142161 -1.70094 0
M  V30 1563 O 155.34 -0.186837 -1.93299 0
M  V30 1564 C 152.47 -0.745561 -3.39203 0
M  V30 1565 C 151.424 -1.79337 -3.88616 0
M  V30 1566 C 150.75 -1.28324 -5.19073 0
M  V30 1567 C 152.05 -3.19553 -4.13138 0
M  V30 1568 H 153.744 -2.0438 -2.1879 0
M  V30 1569 H 151.29 -0.984041 -1.05131 0
M  V30 1570 H 153.243 -0.622888 -4.16771 0
M  V30 1571 H 151.967 0.22401 -3.25831 0
M  V30 1572 H 150.626 -1.90477 -3.13231 0
M  V30 1573 H 150.274 -0.303414 -5.02084 0
M  V30 1574 H 149.974 -1.98369 -5.53103 0
M  V30 1575 H 151.498 -1.1733 -5.99221 0
M  V30 1576 H 152.912 -3.11471 -4.81309 0
M  V30 1577 H 151.309 -3.87218 -4.58457 0
M  V30 1578 H 152.379 -3.65368 -3.18801 0
M  V30 1579 N 153.722 1.14298 -1.08507 0
M  V30 1580 C 154.969 1.85359 -0.815373 0
M  V30 1581 C 155.297 1.83001 0.658865 0
M  V30 1582 O 154.552 1.25655 1.50031 0
M  V30 1583 C 154.851 3.33547 -1.28379 0
M  V30 1584 C 154.517 3.56093 -2.76602 0
M  V30 1585 C 153.179 3.61955 -3.17084 0
M  V30 1586 C 155.531 3.64834 -3.72217 0
M  V30 1587 C 152.859 3.74082 -4.51973 0
M  V30 1588 C 155.211 3.78487 -5.06883 0
M  V30 1589 C 153.875 3.82598 -5.46969 0
M  V30 1590 H 153.145 0.678276 -0.298366 0
M  V30 1591 H 155.792 1.35002 -1.35819 0
M  V30 1592 H 154.097 3.86191 -0.660593 0
M  V30 1593 H 155.794 3.86959 -1.05186 0
M  V30 1594 H 152.384 3.52179 -2.4427 0
M  V30 1595 H 156.568 3.59595 -3.42061 0
M  V30 1596 H 151.824 3.75527 -4.82483 0
M  V30 1597 H 155.998 3.84193 -5.80834 0
M  V30 1598 H 153.625 3.91747 -6.51489 0
M  V30 1599 N 155.201 0.870884 1.31352 0
M  V30 1600 C 156.134 0.271983 2.26573 0
M  V30 1601 C 157.112 -0.599385 1.51149 0
M  V30 1602 O 158.296 -0.552605 1.80218 0
M  V30 1603 C 155.423 -0.614801 3.33073 0
M  V30 1604 C 154.469 0.185342 4.26097 0
M  V30 1605 S 155.302 1.56444 5.12138 0
M  V30 1606 C 156.458 0.683807 6.22153 0
M  V30 1607 H 156.691 1.07916 2.77023 0
M  V30 1608 H 154.224 0.669459 1.39132 0
M  V30 1609 H 156.182 -1.12074 3.94905 0
M  V30 1610 H 154.843 -1.39593 2.81376 0
M  V30 1611 H 154.036 -0.490771 5.01605 0
M  V30 1612 H 153.638 0.623415 3.68768 0
M  V30 1613 H 155.93 -0.10521 6.77418 0
M  V30 1614 H 156.873 1.41004 6.93919 0
M  V30 1615 H 157.281 0.250952 5.63942 0
M  V30 1616 N 156.679 -1.44442 0.630414 0
M  V30 1617 C 158.09 -1.85434 0.217063 0
M  V30 1618 C 158.441 -1.52748 -1.23136 0
M  V30 1619 O 157.566 -0.965205 -1.93682 0
M  V30 1620 C 158.161 -3.36581 0.387168 0
M  V30 1621 C 156.72 -3.76389 0.0283297 0
M  V30 1622 C 155.867 -2.68296 0.700889 0
M  V30 1623 H 158.818 -1.34919 0.83562 0
M  V30 1624 H 158.839 -3.78657 -0.374086 0
M  V30 1625 H 158.351 -3.60339 1.44144 0
M  V30 1626 H 156.452 -3.58246 -1.02423 0
M  V30 1627 H 156.565 -4.77095 0.437892 0
M  V30 1628 H 154.929 -2.54335 0.136267 0
M  V30 1629 H 155.712 -2.94887 1.75774 0
M  V30 1630 N 158.157 -0.370918 -1.53173 0
M  V30 1631 C 159.403 0.217423 -2.01631 0
M  V30 1632 C 159.736 1.47983 -1.25756 0
M  V30 1633 O 159.011 1.91274 -0.352764 0
M  V30 1634 C 159.294 0.503982 -3.56556 0
M  V30 1635 C 159.147 -0.77243 -4.43118 0
M  V30 1636 C 160.466 1.30234 -4.20389 0
M  V30 1637 H 157.585 0.0775486 -0.732909 0
M  V30 1638 H 160.227 -0.496863 -1.83388 0
M  V30 1639 H 158.377 1.11248 -3.72231 0
M  V30 1640 H 160.049 -1.4098 -4.39229 0
M  V30 1641 H 158.292 -1.39167 -4.10871 0
M  V30 1642 H 158.963 -0.526815 -5.4948 0
M  V30 1643 H 161.439 0.787546 -4.08579 0
M  V30 1644 H 160.315 1.47158 -5.28806 0
M  V30 1645 H 160.576 2.31237 -3.76805 0
M  V30 1646 N 159.635 1.57281 -0.100228 0
M  V30 1647 C 160.882 1.94537 0.562268 0
M  V30 1648 C 161.21 0.982315 1.67871 0
M  V30 1649 O 160.465 0.00280936 1.957 0
M  V30 1650 C 160.764 3.38305 1.15259 0
M  V30 1651 C 160.43 4.50618 0.159409 0
M  V30 1652 C 159.092 4.81066 -0.113741 0
M  V30 1653 C 161.444 5.18615 -0.518461 0
M  V30 1654 C 158.772 5.76835 -1.07137 0
M  V30 1655 C 161.124 6.15412 -1.46459 0
M  V30 1656 C 159.788 6.44262 -1.74592 0
M  V30 1657 H 159.058 0.711863 0.205748 0
M  V30 1658 H 161.705 1.90679 -0.17715 0
M  V30 1659 H 160.01 3.38766 1.96836 0
M  V30 1660 H 161.707 3.64435 1.67297 0
M  V30 1661 H 158.297 4.2689 0.382491 0
M  V30 1662 H 162.481 4.95264 -0.320581 0
M  V30 1663 H 157.737 5.975 -1.29628 0
M  V30 1664 H 161.911 6.67194 -1.99564 0
M  V30 1665 H 159.538 7.1828 -2.48953 0
M  V30 1666 N 161.113 -0.173488 1.56642 0
M  V30 1667 C 162.343 -0.904781 1.85734 0
M  V30 1668 C 162.751 -1.76431 0.68328 0
M  V30 1669 O 162.094 -1.802 -0.356865 0
M  V30 1670 C 162.156 -1.83382 3.09211 0
M  V30 1671 C 161.82 -1.15411 4.42187 0
M  V30 1672 C 162.817 -0.520609 5.17287 0
M  V30 1673 C 160.502 -1.15151 4.88923 0
M  V30 1674 C 162.496 0.106412 6.37311 0
M  V30 1675 C 160.183 -0.520664 6.08878 0
M  V30 1676 C 161.181 0.107196 6.82916 0
M  V30 1677 O 160.869 0.728102 8.00596 0
M  V30 1678 H 160.601 -0.268408 0.62043 0
M  V30 1679 H 163.155 -0.179096 2.04618 0
M  V30 1680 H 161.385 -2.59976 2.86268 0
M  V30 1681 H 163.074 -2.43476 3.24768 0
M  V30 1682 H 163.84 -0.514606 4.82262 0
M  V30 1683 H 159.719 -1.62961 4.31236 0
M  V30 1684 H 163.263 0.597081 6.9504 0
M  V30 1685 H 159.16 -0.524242 6.43368 0
M  V30 1686 H 159.928 0.627138 8.16094 0
M  V30 1687 N 162.591 -1.51276 -0.441967 0
M  V30 1688 C 164.007 -1.39349 -0.778083 0
M  V30 1689 C 164.207 -0.472212 -1.95889 0
M  V30 1690 O 163.263 0.0743551 -2.5239 0
M  V30 1691 C 164.576 -2.81292 -1.0628 0
M  V30 1692 C 166.124 -2.9041 -1.16751 0
M  V30 1693 C 166.599 -4.33251 -1.48519 0
M  V30 1694 N 168.09 -4.36336 -1.55453 0
M  V30 1695 C 168.825 -5.43885 -1.81596 0
M  V30 1696 N 168.321 -6.61601 -2.05562 0
M  V30 1697 N 170.114 -5.3136 -1.8334 0
M  V30 1698 H 162.265 -2.09729 0.335774 0
M  V30 1699 H 164.528 -0.943925 0.0878028 0
M  V30 1700 H 164.234 -3.50678 -0.267905 0
M  V30 1701 H 164.108 -3.20334 -1.99163 0
M  V30 1702 H 166.495 -2.21225 -1.95304 0
M  V30 1703 H 166.576 -2.54871 -0.217801 0
M  V30 1704 H 166.22 -5.02984 -0.704958 0
M  V30 1705 H 166.15 -4.66299 -2.44689 0
M  V30 1706 H 168.641 -3.51466 -1.38853 0
M  V30 1707 H 168.954 -7.39361 -2.24867 0
M  V30 1708 H 167.299 -6.64725 -2.02894 0
M  V30 1709 H 170.49 -4.38382 -1.64132 0
M  V30 1710 H 170.663 -6.15258 -2.03377 0
M  V30 1711 N 164.069 0.697108 -1.41344 0
M  V30 1712 C 164.999 1.82353 -1.45841 0
M  V30 1713 C 165.98 1.67115 -0.317247 0
M  V30 1714 O 167.165 1.86871 -0.528474 0
M  V30 1715 C 164.295 3.20476 -1.33838 0
M  V30 1716 C 163.249 3.50415 -2.4575 0
M  V30 1717 C 162.575 4.87878 -2.18813 0
M  V30 1718 C 163.875 3.49546 -3.88091 0
M  V30 1719 H 165.569 1.78846 -2.40113 0
M  V30 1720 H 163.115 0.859028 -1.15571 0
M  V30 1721 H 165.068 3.98988 -1.35596 0
M  V30 1722 H 163.792 3.24604 -0.360498 0
M  V30 1723 H 162.451 2.74253 -2.43271 0
M  V30 1724 H 162.099 4.8863 -1.19371 0
M  V30 1725 H 161.799 5.08875 -2.93803 0
M  V30 1726 H 163.323 5.68702 -2.22284 0
M  V30 1727 H 164.737 4.18066 -3.92293 0
M  V30 1728 H 163.134 3.82075 -4.62751 0
M  V30 1729 H 164.204 2.48552 -4.16353 0
M  V30 1730 N 165.547 1.27147 0.931209 0
M  V30 1731 C 166.795 1.13055 1.6752 0
M  V30 1732 C 167.116 -0.324791 1.92276 0
M  V30 1733 O 166.386 -1.22775 1.52654 0
M  V30 1734 H 164.966 0.415391 0.620854 0
M  V30 1735 H 167.628 1.59623 1.11833 0
M  V30 1736 H 166.724 1.65694 2.64485 0
M  V30 1737 N 167.025 -1.13721 1.09112 0
M  V30 1738 C 167.955 -2.21148 0.749385 0
M  V30 1739 C 168.936 -1.6792 -0.271475 0
M  V30 1740 O 170.121 -1.93693 -0.140251 0
M  V30 1741 C 167.251 -3.46905 0.165659 0
M  V30 1742 C 166.205 -4.13203 1.11567 0
M  V30 1743 C 165.531 -5.33248 0.393809 0
M  V30 1744 C 166.831 -4.60912 2.45678 0
M  V30 1745 H 168.525 -2.4999 1.64758 0
M  V30 1746 H 166.071 -1.20156 0.793626 0
M  V30 1747 H 168.024 -4.21313 -0.085466 0
M  V30 1748 H 166.748 -3.17449 -0.767714 0
M  V30 1749 H 165.407 -3.40758 1.35202 0
M  V30 1750 H 165.055 -5.00054 -0.543599 0
M  V30 1751 H 164.755 -5.78552 1.02721 0
M  V30 1752 H 166.279 -6.10413 0.150908 0
M  V30 1753 H 167.693 -5.26759 2.26269 0
M  V30 1754 H 166.09 -5.16944 3.04776 0
M  V30 1755 H 167.16 -3.75603 3.06677 0
M  V30 1756 N 168.503 -0.877838 -1.30888 0
M  V30 1757 C 169.731 -0.507414 -2.00581 0
M  V30 1758 C 170.146 0.902216 -1.65848 0
M  V30 1759 O 169.503 1.59225 -0.891831 0
M  V30 1760 C 169.554 -0.664162 -3.55347 0
M  V30 1761 O 169.275 -2.01829 -3.8884 0
M  V30 1762 C 170.776 -0.295787 -4.42312 0
M  V30 1763 H 167.996 -0.196866 -0.641471 0
M  V30 1764 H 170.54 -1.18117 -1.66939 0
M  V30 1765 H 168.695 -0.0378619 -3.87381 0
M  V30 1766 H 169.109 -2.03174 -4.8355 0
M  V30 1767 H 170.583 -0.456388 -5.5011 0
M  V30 1768 H 171.06 0.765663 -4.32475 0
M  V30 1769 H 171.666 -0.898113 -4.15709 0
M  V30 1770 N 169.982 1.44106 -0.638065 0
M  V30 1771 C 171.207 2.0685 -0.150916 0
M  V30 1772 C 171.632 1.47417 1.16833 0
M  V30 1773 O 170.99 0.578264 1.71831 0
M  V30 1774 C 171.038 3.60555 -0.05708 0
M  V30 1775 O 170.142 4.00465 0.984972 0
M  V30 1776 H 169.483 0.658151 -0.0879399 0
M  V30 1777 H 172.013 1.84865 -0.876707 0
M  V30 1778 H 172.023 4.07789 0.131232 0
M  V30 1779 H 170.698 4.03193 -1.02021 0
M  V30 1780 H 169.275 3.64849 0.770672 0
M  V30 1781 N 171.46 0.379036 1.52974 0
M  V30 1782 C 172.688 -0.20679 2.05864 0
M  V30 1783 C 173.103 -1.41356 1.25155 0
M  V30 1784 O 172.46 -1.8009 0.295588 0
M  V30 1785 C 172.511 -0.587045 3.56702 0
M  V30 1786 O 172.232 0.571776 4.34353 0
M  V30 1787 C 173.733 -1.22983 4.25899 0
M  V30 1788 H 170.953 -0.0336123 0.670158 0
M  V30 1789 H 173.497 0.541298 1.97206 0
M  V30 1790 H 171.652 -1.28504 3.65466 0
M  V30 1791 H 172.066 0.261544 5.23847 0
M  V30 1792 H 173.54 -1.44635 5.32715 0
M  V30 1793 H 174.017 -2.19416 3.80465 0
M  V30 1794 H 174.623 -0.572892 4.21424 0
M  V30 1795 N 172.938 -1.57226 0.108567 0
M  V30 1796 C 174.168 -1.9889 -0.559142 0
M  V30 1797 C 174.576 -0.986889 -1.61422 0
M  V30 1798 O 173.919 0.0298705 -1.83676 0
M  V30 1799 C 173.981 -3.36952 -1.25315 0
M  V30 1800 C 173.645 -4.55679 -0.347248 0
M  V30 1801 C 174.642 -5.18281 0.409996 0
M  V30 1802 C 172.327 -5.0162 -0.261367 0
M  V30 1803 C 174.321 -6.25203 1.24096 0
M  V30 1804 C 172.008 -6.08405 0.573238 0
M  V30 1805 C 173.006 -6.70063 1.32304 0
M  V30 1806 O 172.694 -7.74788 2.14381 0
M  V30 1807 H 172.426 -0.658343 -0.153492 0
M  V30 1808 H 174.98 -2.04532 0.188584 0
M  V30 1809 H 173.21 -3.28032 -2.04773 0
M  V30 1810 H 174.899 -3.62974 -1.81673 0
M  V30 1811 H 175.665 -4.8371 0.353457 0
M  V30 1812 H 171.544 -4.53381 -0.834656 0
M  V30 1813 H 175.088 -6.73259 1.82669 0
M  V30 1814 H 170.985 -6.42406 0.631208 0
M  V30 1815 H 171.753 -7.91837 2.07209 0
M  V30 1816 N 174.416 0.165178 -1.56732 0
M  V30 1817 C 175.326 1.22423 -2.00125 0
M  V30 1818 C 176.342 1.48084 -0.913619 0
M  V30 1819 O 177.518 1.60112 -1.22172 0
M  V30 1820 C 174.583 2.54197 -2.35764 0
M  V30 1821 C 173.644 2.36343 -3.58386 0
M  V30 1822 C 172.877 3.61834 -3.92316 0
M  V30 1823 O 173.1 4.67267 -3.27135 0
M  V30 1824 O 172.034 3.55579 -4.85641 0
M  V30 1825 H 175.86 0.885886 -2.90492 0
M  V30 1826 H 173.445 0.372518 -1.44681 0
M  V30 1827 H 175.327 3.3192 -2.59629 0
M  V30 1828 H 174.002 2.87598 -1.48557 0
M  V30 1829 H 172.909 1.56632 -3.39731 0
M  V30 1830 H 174.242 2.07865 -4.46154 0
M  V30 1831 N 175.894 1.51508 0.433938 0
M  V30 1832 C 177.124 1.67914 1.20369 0
M  V30 1833 C 177.532 0.377461 1.85397 0
M  V30 1834 O 176.875 -0.654255 1.71654 0
M  V30 1835 C 176.937 2.74045 2.32679 0
M  V30 1836 C 176.601 4.16543 1.87991 0
M  V30 1837 C 177.598 5.01211 1.38145 0
M  V30 1838 C 175.283 4.6266 1.95579 0
M  V30 1839 C 177.277 6.30056 0.964774 0
M  V30 1840 C 174.964 5.91501 1.53523 0
M  V30 1841 C 175.962 6.75027 1.04055 0
M  V30 1842 O 175.65 8.01459 0.625964 0
M  V30 1843 H 175.382 0.566578 0.368735 0
M  V30 1844 H 177.936 1.98709 0.51999 0
M  V30 1845 H 176.166 2.38572 3.04336 0
M  V30 1846 H 177.855 2.79295 2.94532 0
M  V30 1847 H 178.621 4.66783 1.31675 0
M  V30 1848 H 174.5 3.97767 2.33029 0
M  V30 1849 H 178.044 6.95202 0.57796 0
M  V30 1850 H 173.941 6.25442 1.59665 0
M  V30 1851 H 174.709 8.15043 0.751509 0
M  V30 1852 N 177.372 -0.689602 1.41712 0
M  V30 1853 C 178.302 -1.81577 1.46806 0
M  V30 1854 C 179.283 -1.66945 0.326105 0
M  V30 1855 O 180.468 -1.86588 0.538377 0
M  V30 1856 C 177.598 -3.19762 1.35535 0
M  V30 1857 C 176.552 -3.49107 2.47605 0
M  V30 1858 C 175.878 -4.86711 2.21397 0
M  V30 1859 C 177.178 -3.47483 3.89939 0
M  V30 1860 H 178.872 -1.7757 2.41058 0
M  V30 1861 H 176.418 -0.852887 1.16025 0
M  V30 1862 H 178.371 -3.98263 1.3771 0
M  V30 1863 H 177.095 -3.24409 0.377708 0
M  V30 1864 H 175.754 -2.72959 2.44722 0
M  V30 1865 H 175.402 -4.8799 1.21961 0
M  V30 1866 H 175.102 -5.0731 2.96497 0
M  V30 1867 H 176.626 -5.67515 2.25297 0
M  V30 1868 H 178.04 -4.1598 3.94505 0
M  V30 1869 H 176.437 -3.79615 4.64771 0
M  V30 1870 H 177.507 -2.46341 4.17665 0
M  V30 1871 N 178.85 -1.27639 -0.924453 0
M  V30 1872 C 179.76 -1.12466 -2.05885 0
M  V30 1873 C 180.776 -0.053869 -1.73917 0
M  V30 1874 O 181.952 -0.261012 -1.99702 0
M  V30 1875 C 179.017 -0.776768 -3.37886 0
M  V30 1876 C 178.078 -1.92878 -3.83532 0
M  V30 1877 C 177.311 -1.59739 -5.09234 0
M  V30 1878 O 177.534 -0.506782 -5.68144 0
M  V30 1879 O 176.468 -2.43761 -5.50331 0
M  V30 1880 H 180.294 -2.07671 -2.21599 0
M  V30 1881 H 177.879 -1.06857 -1.04413 0
M  V30 1882 H 179.761 -0.596229 -4.17161 0
M  V30 1883 H 178.436 0.145732 -3.23372 0
M  V30 1884 H 177.343 -2.1644 -3.0513 0
M  V30 1885 H 178.676 -2.8316 -4.02593 0
M  V30 1886 N 180.328 1.1314 -1.09713 0
M  V30 1887 C 181.261 2.17735 -0.683137 0
M  V30 1888 C 182.239 1.59582 0.311841 0
M  V30 1889 O 183.423 1.87298 0.212514 0
M  V30 1890 C 180.55 3.38699 -0.00684324 0
M  V30 1891 C 179.596 4.1546 -0.964102 0
M  V30 1892 S 180.429 4.74733 -2.47767 0
M  V30 1893 C 181.585 5.9904 -1.81387 0
M  V30 1894 H 181.818 2.52515 -1.56918 0
M  V30 1895 H 179.351 1.24484 -0.913404 0
M  V30 1896 H 181.309 4.08765 0.377044 0
M  V30 1897 H 179.97 3.02214 0.85589 0
M  V30 1898 H 179.163 5.02093 -0.43803 0
M  V30 1899 H 178.765 3.51066 -1.28953 0
M  V30 1900 H 181.057 6.67846 -1.13967 0
M  V30 1901 H 182 6.56261 -2.65947 0
M  V30 1902 H 182.408 5.4976 -1.28155 0
M  V30 1903 N 181.806 0.884767 1.30421 0
M  V30 1904 C 183.222 0.57874 1.48737 0
M  V30 1905 C 183.422 -0.883567 1.81095 0
M  V30 1906 O 182.478 -1.6648 1.89844 0
M  V30 1907 C 183.791 1.49171 2.61091 0
M  V30 1908 C 185.339 1.49532 2.74971 0
M  V30 1909 C 185.814 2.39421 3.90438 0
M  V30 1910 N 187.305 2.37383 3.97748 0
M  V30 1911 C 188.04 3.03647 4.86401 0
M  V30 1912 N 187.536 3.79136 5.79852 0
M  V30 1913 N 189.329 2.9288 4.79768 0
M  V30 1914 H 181.48 1.83075 1.0769 0
M  V30 1915 H 183.743 0.783637 0.533495 0
M  V30 1916 H 183.449 2.53291 2.44001 0
M  V30 1917 H 183.323 1.20113 3.57565 0
M  V30 1918 H 185.71 0.46163 2.91467 0
M  V30 1919 H 185.791 1.8262 1.79119 0
M  V30 1920 H 185.435 3.42874 3.74699 0
M  V30 1921 H 185.365 2.03649 4.85628 0
M  V30 1922 H 187.856 1.82525 3.30897 0
M  V30 1923 H 188.169 4.26789 6.4426 0
M  V30 1924 H 186.514 3.83243 5.79784 0
M  V30 1925 H 189.705 2.33433 4.05742 0
M  V30 1926 H 189.878 3.448 5.4865 0
M  V30 1927 N 183.284 -1.43765 0.645699 0
M  V30 1928 C 184.531 -2.01898 0.15604 0
M  V30 1929 C 184.859 -1.50887 -1.22733 0
M  V30 1930 O 184.114 -0.689271 -1.8316 0
M  V30 1931 C 184.413 -3.57238 0.107679 0
M  V30 1932 C 184.079 -4.27564 1.43178 0
M  V30 1933 C 182.741 -4.46492 1.7944 0
M  V30 1934 C 185.093 -4.67454 2.30513 0
M  V30 1935 C 182.421 -5.02573 3.02716 0
M  V30 1936 C 184.773 -5.24901 3.53074 0
M  V30 1937 C 183.437 -5.42046 3.89541 0
M  V30 1938 H 182.707 -0.738797 0.057099 0
M  V30 1939 H 185.354 -1.72341 0.834912 0
M  V30 1940 H 183.659 -3.86293 -0.654618 0
M  V30 1941 H 185.356 -3.99965 -0.287938 0
M  V30 1942 H 181.946 -4.13171 1.13963 0
M  V30 1943 H 186.13 -4.5253 2.0379 0
M  V30 1944 H 181.386 -5.14033 3.31028 0
M  V30 1945 H 185.56 -5.54758 4.20971 0
M  V30 1946 H 183.187 -5.85268 4.85145 0
M  V30 1947 N 184.763 -0.387143 -1.52771 0
M  V30 1948 C 185.988 0.198407 -2.06449 0
M  V30 1949 C 186.413 1.39918 -1.25716 0
M  V30 1950 O 185.771 1.79099 -0.281657 0
M  V30 1951 C 185.819 0.548893 -3.56398 0
M  V30 1952 O 184.923 1.64315 -3.78252 0
M  V30 1953 H 184.264 0.0237731 -0.663574 0
M  V30 1954 H 186.794 -0.553989 -1.96957 0
M  V30 1955 H 186.804 0.813812 -3.99801 0
M  V30 1956 H 185.479 -0.329005 -4.14597 0
M  V30 1957 H 184.056 1.37211 -3.46738 0
M  V30 1958 N 186.241 1.57166 -0.116904 0
M  V30 1959 C 187.657 1.5779 0.239693 0
M  V30 1960 C 187.857 1.1295 1.66867 0
M  V30 1961 O 186.913 0.81592 2.38954 0
M  V30 1962 C 188.226 3.00699 0.00828202 0
M  V30 1963 C 189.774 3.12912 0.0743438 0
M  V30 1964 C 190.249 4.57817 -0.129348 0
M  V30 1965 N 191.74 4.63139 -0.075247 0
M  V30 1966 C 192.475 5.73023 -0.207788 0
M  V30 1967 N 191.971 6.91665 -0.396382 0
M  V30 1968 N 193.764 5.61906 -0.14751 0
M  V30 1969 H 185.915 1.84615 -1.05029 0
M  V30 1970 H 188.178 0.85311 -0.41341 0
M  V30 1971 H 187.884 3.37784 -0.979531 0
M  V30 1972 H 187.758 3.69848 0.741077 0
M  V30 1973 H 190.145 2.75686 1.05268 0
M  V30 1974 H 190.226 2.4631 -0.690297 0
M  V30 1975 H 189.87 4.95742 -1.10465 0
M  V30 1976 H 189.8 5.22507 0.655253 0
M  V30 1977 H 192.291 3.7784 0.0670898 0
M  V30 1978 H 192.604 7.71255 -0.488437 0
M  V30 1979 H 190.949 6.93654 -0.432329 0
M  V30 1980 H 194.14 4.681 -0.00115036 0
M  V30 1981 H 194.313 6.47501 -0.254247 0
M  V30 1982 N 187.719 -0.156864 1.56817 0
M  V30 1983 C 188.682 -1.17781 1.96622 0
M  V30 1984 C 189.682 -1.36401 0.851555 0
M  V30 1985 O 190.872 -1.33561 1.11836 0
M  V30 1986 C 188.004 -2.54008 2.27361 0
M  V30 1987 H 189.197 -0.836564 2.87996 0
M  V30 1988 H 186.75 -0.39985 1.51099 0
M  V30 1989 H 187.485 -2.9312 1.38748 0
M  V30 1990 H 187.27 -2.41856 3.08623 0
M  V30 1991 H 188.76 -3.27558 2.59029 0
M  V30 1992 N 189.197 -1.51736 -0.425897 0
M  V30 1993 C 190.443 -1.65214 -1.1761 0
M  V30 1994 C 190.776 -0.372778 -1.90589 0
M  V30 1995 O 190.051 0.628139 -1.84078 0
M  V30 1996 C 190.334 -2.86312 -2.18398 0
M  V30 1997 C 190.187 -4.24254 -1.49426 0
M  V30 1998 C 191.506 -3.02925 -3.19256 0
M  V30 1999 H 188.625 -0.601263 -0.426206 0
M  V30 2000 H 191.267 -1.8425 -0.463882 0
M  V30 2001 H 189.417 -2.70213 -2.79137 0
M  V30 2002 H 191.089 -4.52046 -0.919362 0
M  V30 2003 H 189.332 -4.26426 -0.796432 0
M  V30 2004 H 190.003 -5.05001 -2.22885 0
M  V30 2005 H 192.479 -3.1781 -2.68581 0
M  V30 2006 H 191.355 -3.89199 -3.8706 0
M  V30 2007 H 191.616 -2.15497 -3.86023 0
M  V30 2008 N 190.675 0.682077 -1.42076 0
M  V30 2009 C 192.091 0.994324 -1.24841 0
M  V30 2010 C 192.291 2.0096 -0.147389 0
M  V30 2011 O 191.347 2.47822 0.483782 0
M  V30 2012 C 192.66 1.50607 -2.60265 0
M  V30 2013 C 194.208 1.62421 -2.6756 0
M  V30 2014 C 194.683 2.16994 -4.03333 0
M  V30 2015 N 196.174 2.24337 -4.0525 0
M  V30 2016 C 196.909 2.67621 -5.07116 0
M  V30 2017 N 196.405 3.1041 -6.19368 0
M  V30 2018 N 198.198 2.67305 -4.94474 0
M  V30 2019 H 190.349 0.00973908 -2.12398 0
M  V30 2020 H 192.612 0.0668593 -0.945639 0
M  V30 2021 H 192.318 0.834583 -3.41654 0
M  V30 2022 H 192.192 2.48602 -2.83684 0
M  V30 2023 H 194.579 2.28678 -1.86521 0
M  V30 2024 H 194.66 0.629352 -2.47937 0
M  V30 2025 H 194.304 1.51349 -4.84826 0
M  V30 2026 H 194.234 3.17258 -4.20304 0
M  V30 2027 H 196.725 1.94158 -3.24209 0
M  V30 2028 H 197.038 3.42103 -6.92954 0
M  V30 2029 H 195.383 3.08286 -6.22884 0
M  V30 2030 H 198.574 2.33233 -4.05857 0
M  V30 2031 H 198.747 3.00718 -5.73997 0
M  V30 2032 N 192.153 1.28127 0.917671 0
M  V30 2033 C 193.083 1.14248 2.03641 0
M  V30 2034 C 194.064 0.0412748 1.7005 0
M  V30 2035 O 195.249 0.217566 1.92977 0
M  V30 2036 C 192.379 0.799431 3.37974 0
M  V30 2037 C 191.333 1.85497 3.85713 0
M  V30 2038 C 190.659 1.36565 5.16966 0
M  V30 2039 C 191.959 3.26085 4.08002 0
M  V30 2040 H 193.653 2.07835 2.15511 0
M  V30 2041 H 191.199 1.00064 1.03553 0
M  V30 2042 H 193.152 0.689114 4.15727 0
M  V30 2043 H 191.876 -0.172145 3.26146 0
M  V30 2044 H 190.535 1.95437 3.10161 0
M  V30 2045 H 190.183 0.383253 5.01538 0
M  V30 2046 H 189.883 2.07143 5.49878 0
M  V30 2047 H 191.407 1.26848 5.97279 0
M  V30 2048 H 192.821 3.19089 4.76293 0
M  V30 2049 H 191.218 3.94462 4.52238 0
M  V30 2050 H 192.288 3.70394 3.12948 0
M  V30 2051 N 193.631 -1.12557 1.10312 0
M  V30 2052 C 194.871 -1.8568 0.854543 0
M  V30 2053 C 195.235 -1.82091 -0.608843 0
M  V30 2054 O 196.436 -2.50544 -0.973717 0
M  V30 2055 C 194.707 -3.2942 1.38626 0
M  V30 2056 S 196.266 -4.19931 1.27293 0
M  V30 2057 H 193.084 -0.640427 0.308827 0
M  V30 2058 H 195.686 -1.35599 1.40831 0
M  V30 2059 H 194.39 -3.2959 2.44537 0
M  V30 2060 H 193.921 -3.84566 0.82902 0
M  V30 2061 H 195.936 -4.95668 0.229776 0
M  V30 2062 N 195.109 -0.891671 -1.2995 0
M  V30 2063 C 196.357 -0.512486 -1.95494 0
M  V30 2064 C 196.678 0.942776 -1.70695 0
M  V30 2065 O 195.948 1.66374 -1.03424 0
M  V30 2066 H 194.528 -0.186533 -0.723336 0
M  V30 2067 H 197.19 -1.13621 -1.58355 0
M  V30 2068 H 196.286 -0.688342 -3.04415 0
M  V30 2069 N 196.587 1.43421 -0.653314 0
M  V30 2070 C 197.815 2.06163 -0.174491 0
M  V30 2071 C 198.23 1.48969 1.1599 0
M  V30 2072 O 197.587 0.621042 1.71608 0
M  V30 2073 C 197.638 3.61417 -0.0774865 0
M  V30 2074 O 197.359 4.16485 -1.35912 0
M  V30 2075 C 198.86 4.41235 0.427402 0
M  V30 2076 H 196.08 0.664946 -0.0899353 0
M  V30 2077 H 198.624 1.83924 -0.893988 0
M  V30 2078 H 196.779 3.82841 0.59257 0
M  V30 2079 H 197.193 5.10153 -1.21839 0
M  V30 2080 H 198.667 5.5021 0.44423 0
M  V30 2081 H 199.144 4.14268 1.45873 0
M  V30 2082 H 199.75 4.2478 -0.210167 0
M  V30 2083 N 198.065 0.39524 1.52563 0
M  V30 2084 C 198.995 -0.428384 2.29537 0
M  V30 2085 C 199.976 -1.05831 1.33169 0
M  V30 2086 O 201.161 -1.06995 1.62067 0
M  V30 2087 C 198.291 -1.55274 3.10656 0
M  V30 2088 C 197.245 -1.04855 4.14957 0
M  V30 2089 C 196.571 -2.26543 4.84337 0
M  V30 2090 C 197.871 -0.112324 5.22179 0
M  V30 2091 H 199.565 0.213867 2.98635 0
M  V30 2092 H 197.111 0.104298 1.43622 0
M  V30 2093 H 199.064 -2.1358 3.63265 0
M  V30 2094 H 197.788 -2.22266 2.39302 0
M  V30 2095 H 196.447 -0.487985 3.63338 0
M  V30 2096 H 196.095 -2.92059 4.09525 0
M  V30 2097 H 195.795 -1.93466 5.54837 0
M  V30 2098 H 197.319 -2.85481 5.39753 0
M  V30 2099 H 198.733 -0.603752 5.70112 0
M  V30 2100 H 197.13 0.128968 5.99961 0
M  V30 2101 H 198.2 0.837052 4.77621 0
M  V30 2102 N 199.544 -1.57102 0.125237 0
M  V30 2103 C 200.476 -2.12726 -0.853237 0
M  V30 2104 C 201.489 -1.07145 -1.22571 0
M  V30 2105 O 202.678 -1.34497 -1.17358 0
M  V30 2106 C 199.778 -2.61709 -2.15317 0
M  V30 2107 C 198.951 -3.91456 -1.95143 0
M  V30 2108 C 198.01 -4.25973 -3.08923 0
M  V30 2109 O 197.036 -4.94682 -2.81564 0
M  V30 2110 N 198.238 -3.83795 -4.35524 0
M  V30 2111 H 201.003 -2.97307 -0.377964 0
M  V30 2112 H 198.564 -1.61792 -0.0590011 0
M  V30 2113 H 200.556 -2.81826 -2.90441 0
M  V30 2114 H 199.126 -1.81974 -2.54174 0
M  V30 2115 H 198.346 -3.80185 -1.04177 0
M  V30 2116 H 199.634 -4.76283 -1.78976 0
M  V30 2117 H 199.032 -3.2839 -4.60626 0
M  V30 2118 H 197.589 -4.09008 -5.07499 0
M  V30 2119 N 201.022 0.148545 -1.56898 0
M  V30 2120 C 202.252 0.875118 -1.8715 0
M  V30 2121 C 202.66 1.75322 -0.711262 0
M  V30 2122 O 202.003 1.80745 0.328151 0
M  V30 2123 C 202.065 1.7844 -3.12089 0
M  V30 2124 C 201.729 1.08361 -4.43967 0
M  V30 2125 C 202.726 0.438247 -5.1805 0
M  V30 2126 C 200.411 1.07358 -4.90693 0
M  V30 2127 C 202.405 -0.20779 -6.37061 0
M  V30 2128 C 200.092 0.42373 -6.09629 0
M  V30 2129 C 201.09 -0.215829 -6.82659 0
M  V30 2130 O 200.778 -0.855378 -7.99336 0
M  V30 2131 H 200.51 0.258504 -0.624621 0
M  V30 2132 H 203.064 0.14652 -2.04877 0
M  V30 2133 H 201.294 2.55389 -2.90367 0
M  V30 2134 H 202.983 2.38279 -3.286 0
M  V30 2135 H 203.749 0.437817 -4.8302 0
M  V30 2136 H 199.628 1.5608 -4.33774 0
M  V30 2137 H 203.172 -0.70758 -6.94002 0
M  V30 2138 H 199.069 0.421822 -6.4412 0
M  V30 2139 H 199.837 -0.756892 -8.14993 0
M  V30 2140 N 202.5 1.5196 0.417844 0
M  V30 2141 C 203.749 1.6482 1.16264 0
M  V30 2142 C 204.062 0.379886 1.91876 0
M  V30 2143 O 205.268 0.388154 2.68711 0
M  V30 2144 C 203.724 2.91161 2.1155 0
M  V30 2145 C 203.332 4.25068 1.41495 0
M  V30 2146 C 205.076 3.13383 2.86341 0
M  V30 2147 C 202.983 5.42541 2.35379 0
M  V30 2148 H 201.913 0.613954 0.437694 0
M  V30 2149 H 204.564 1.78442 0.427871 0
M  V30 2150 H 202.946 2.71218 2.88543 0
M  V30 2151 H 204.12 4.55463 0.699263 0
M  V30 2152 H 202.435 4.0888 0.787792 0
M  V30 2153 H 205.032 3.98324 3.5671 0
M  V30 2154 H 205.375 2.27256 3.48798 0
M  V30 2155 H 205.908 3.33757 2.1645 0
M  V30 2156 H 202.647 6.30987 1.77582 0
M  V30 2157 H 202.167 5.16497 3.04945 0
M  V30 2158 H 203.846 5.75272 2.96093 0
M  V30 2159 N 203.978 -0.674533 1.42435 0
M  V30 2160 C 205.224 -1.43671 1.43131 0
M  V30 2161 C 205.557 -1.94142 0.0476021 0
M  V30 2162 O 204.832 -1.70924 -0.928188 0
M  V30 2163 C 205.115 -2.63355 2.45594 0
M  V30 2164 C 204.968 -2.18514 3.93156 0
M  V30 2165 C 206.287 -3.65571 2.45043 0
M  V30 2166 H 203.406 -0.521077 0.521198 0
M  V30 2167 H 206.048 -0.766551 1.7385 0
M  V30 2168 H 204.198 -3.2053 2.19528 0
M  V30 2169 H 205.87 -1.66504 4.30202 0
M  V30 2170 H 204.113 -1.50086 4.07009 0
M  V30 2171 H 204.784 -3.04484 4.60428 0
M  V30 2172 H 207.26 -3.18113 2.68223 0
M  V30 2173 H 206.136 -4.46893 3.18713 0
M  V30 2174 H 206.397 -4.16716 1.47649 0
M  V30 2175 N 205.456 -1.28612 -0.910864 0
M  V30 2176 C 206.419 -1.12803 -1.9952 0
M  V30 2177 C 207.419 -0.0668264 -1.60661 0
M  V30 2178 O 208.609 -0.312847 -1.71368 0
M  V30 2179 C 205.741 -0.72254 -3.33155 0
M  V30 2180 H 206.934 -2.09109 -2.14973 0
M  V30 2181 H 204.487 -1.11639 -1.09391 0
M  V30 2182 H 205.222 0.241152 -3.23402 0
M  V30 2183 H 205.007 -1.48916 -3.62721 0
M  V30 2184 H 206.497 -0.634666 -4.12749 0
M  V30 2185 N 206.934 1.1197 -1.10907 0
M  V30 2186 C 208.162 1.87402 -0.876824 0
M  V30 2187 C 208.577 1.79894 0.573025 0
M  V30 2188 O 207.934 1.17629 1.39534 0
M  V30 2189 C 207.985 3.36428 -1.32282 0
M  V30 2190 O 207.706 3.43765 -2.71582 0
M  V30 2191 C 209.207 4.28783 -1.12518 0
M  V30 2192 H 206.427 0.592793 -0.314384 0
M  V30 2193 H 208.971 1.41649 -1.47499 0
M  V30 2194 H 207.126 3.79706 -0.768229 0
M  V30 2195 H 207.54 4.3652 -2.90776 0
M  V30 2196 H 209.014 5.31613 -1.48633 0
M  V30 2197 H 209.491 4.39153 -0.0642394 0
M  V30 2198 H 210.097 3.91291 -1.66648 0
M  V30 2199 N 208.412 0.89855 1.29475 0
M  V30 2200 C 209.345 0.319981 2.25945 0
M  V30 2201 C 210.323 -0.567189 1.52387 0
M  V30 2202 O 211.507 -0.514254 1.8135 0
M  V30 2203 C 208.634 -0.544013 3.34303 0
M  V30 2204 C 207.68 0.275682 4.25608 0
M  V30 2205 S 208.513 1.67272 5.08704 0
M  V30 2206 C 209.669 0.815621 6.20563 0
M  V30 2207 H 209.902 1.13767 2.74671 0
M  V30 2208 H 207.435 0.69882 1.3768 0
M  V30 2209 H 209.393 -1.03673 3.97193 0
M  V30 2210 H 208.054 -1.33593 2.84274 0
M  V30 2211 H 207.247 -0.384263 5.02533 0
M  V30 2212 H 206.849 0.701496 3.67362 0
M  V30 2213 H 209.141 0.0385042 6.77489 0
M  V30 2214 H 210.084 1.55691 6.90772 0
M  V30 2215 H 210.492 0.370516 5.63283 0
M  V30 2216 N 209.89 -1.43072 0.660911 0
M  V30 2217 C 210.82 -2.33497 -0.0122829 0
M  V30 2218 C 211.801 -1.49903 -0.803925 0
M  V30 2219 O 212.986 -1.78546 -0.763864 0
M  V30 2220 C 210.116 -3.33363 -0.973994 0
M  V30 2221 C 209.07 -4.27003 -0.291928 0
M  V30 2222 C 208.396 -5.16967 -1.36562 0
M  V30 2223 C 209.696 -5.15816 0.820462 0
M  V30 2224 H 211.39 -2.90038 0.742873 0
M  V30 2225 H 208.936 -1.39461 0.358688 0
M  V30 2226 H 210.889 -3.95524 -1.45392 0
M  V30 2227 H 209.613 -2.75095 -1.7604 0
M  V30 2228 H 208.272 -3.66217 0.167623 0
M  V30 2229 H 207.92 -4.55034 -2.14366 0
M  V30 2230 H 207.62 -5.80441 -0.914454 0
M  V30 2231 H 209.144 -5.82003 -1.84675 0
M  V30 2232 H 210.558 -5.71742 0.422366 0
M  V30 2233 H 208.955 -5.8805 1.19656 0
M  V30 2234 H 210.025 -4.55045 1.67518 0
M  V30 2235 N 211.368 -0.403325 -1.52352 0
M  V30 2236 C 212.598 0.17376 -2.05868 0
M  V30 2237 C 213.006 1.39898 -1.27378 0
M  V30 2238 O 212.349 1.80939 -0.31729 0
M  V30 2239 C 212.411 0.594756 -3.54546 0
M  V30 2240 C 212.075 -0.518926 -4.54044 0
M  V30 2241 C 213.072 -1.3807 -5.01231 0
M  V30 2242 C 210.757 -0.689961 -4.97539 0
M  V30 2243 C 212.751 -2.39852 -5.90551 0
M  V30 2244 C 210.438 -1.71109 -5.86656 0
M  V30 2245 C 211.436 -2.56378 -6.33056 0
M  V30 2246 O 211.124 -3.56743 -7.20409 0
M  V30 2247 H 210.856 0.0264951 -0.675481 0
M  V30 2248 H 213.41 -0.571179 -1.97299 0
M  V30 2249 H 211.64 1.39189 -3.60782 0
M  V30 2250 H 213.329 1.0991 -3.90736 0
M  V30 2251 H 214.095 -1.25994 -4.68349 0
M  V30 2252 H 209.974 -0.035939 -4.60986 0
M  V30 2253 H 213.518 -3.06441 -6.26689 0
M  V30 2254 H 209.415 -1.83218 -6.18952 0
M  V30 2255 H 210.183 -3.52918 -7.38506 0
M  V30 2256 N 212.846 1.57033 -0.133567 0
M  V30 2257 C 214.074 2.00044 0.528195 0
M  V30 2258 C 214.489 1.01349 1.59291 0
M  V30 2259 O 213.846 0.00848369 1.82498 0
M  V30 2260 C 213.897 3.43018 1.1411 0
M  V30 2261 O 213.618 4.37939 0.11892 0
M  V30 2262 C 215.119 4.01237 1.88477 0
M  V30 2263 H 212.339 0.656517 0.138661 0
M  V30 2264 H 214.883 2.03267 -0.224196 0
M  V30 2265 H 213.038 3.40688 1.84418 0
M  V30 2266 H 213.452 5.21436 0.56613 0
M  V30 2267 H 214.926 5.03314 2.26669 0
M  V30 2268 H 215.403 3.41193 2.76558 0
M  V30 2269 H 216.009 4.07156 1.22898 0
M  V30 2270 N 214.325 -0.140222 1.56975 0
M  V30 2271 C 215.573 -0.850005 1.83356 0
M  V30 2272 C 215.894 -1.81399 0.71551 0
M  V30 2273 O 215.164 -1.94136 -0.262294 0
M  V30 2274 H 213.744 -0.316886 0.676456 0
M  V30 2275 H 216.406 -0.132608 1.94448 0
M  V30 2276 H 215.502 -1.40814 2.78528 0
M  V30 2277 N 215.803 -1.52179 -0.40978 0
M  V30 2278 C 217.052 -1.65434 -1.15388 0
M  V30 2279 C 217.365 -0.390056 -1.91671 0
M  V30 2280 O 218.571 -0.402399 -2.68501 0
M  V30 2281 C 217.027 -2.92279 -2.10003 0
M  V30 2282 C 216.635 -4.25813 -1.39239 0
M  V30 2283 C 218.379 -3.14897 -2.84675 0
M  V30 2284 C 216.286 -5.43782 -2.32498 0
M  V30 2285 H 215.216 -0.616267 -0.434432 0
M  V30 2286 H 217.867 -1.78666 -0.418401 0
M  V30 2287 H 216.249 -2.72744 -2.871 0
M  V30 2288 H 217.423 -4.55828 -0.675099 0
M  V30 2289 H 215.738 -4.09292 -0.766097 0
M  V30 2290 H 218.335 -4.0021 -3.54593 0
M  V30 2291 H 218.678 -2.29103 -3.47588 0
M  V30 2292 H 219.211 -3.34901 -2.14677 0
M  V30 2293 H 215.95 -6.3192 -1.74233 0
M  V30 2294 H 215.47 -5.18106 -3.02201 0
M  V30 2295 H 217.149 -5.76834 -2.93038 0
M  V30 2296 N 217.281 0.66697 -1.42791 0
M  V30 2297 C 218.527 1.4291 -1.43891 0
M  V30 2298 C 218.86 1.94114 -0.0578972 0
M  V30 2299 O 218.135 1.71414 0.91911 0
M  V30 2300 C 218.418 2.62049 -2.46987 0
M  V30 2301 C 218.271 2.16426 -3.94309 0
M  V30 2302 C 219.59 3.64266 -2.46978 0
M  V30 2303 H 216.709 0.518306 -0.523954 0
M  V30 2304 H 219.351 0.757321 -1.74255 0
M  V30 2305 H 217.501 3.19361 -2.21225 0
M  V30 2306 H 219.173 1.64221 -4.31079 0
M  V30 2307 H 217.416 1.47925 -4.078 0
M  V30 2308 H 218.087 3.02038 -4.62036 0
M  V30 2309 H 220.563 3.16686 -2.69906 0
M  V30 2310 H 219.439 4.45196 -3.21079 0
M  V30 2311 H 219.7 4.15927 -1.49857 0
M  V30 2312 N 218.759 1.29093 0.90403 0
M  V30 2313 C 220.008 1.16187 1.64874 0
M  V30 2314 C 220.321 -0.286742 1.93487 0
M  V30 2315 O 221.527 -0.537062 2.66135 0
M  V30 2316 C 219.983 2.03177 2.97064 0
M  V30 2317 C 219.591 3.52836 2.76062 0
M  V30 2318 C 221.335 1.98984 3.74974 0
M  V30 2319 C 219.242 4.31945 4.03952 0
M  V30 2320 H 218.172 0.431246 0.618501 0
M  V30 2321 H 220.823 1.53699 1.00243 0
M  V30 2322 H 219.205 1.5853 3.62883 0
M  V30 2323 H 220.379 4.05507 2.18863 0
M  V30 2324 H 218.694 3.58656 2.11553 0
M  V30 2325 H 221.291 2.55351 4.69787 0
M  V30 2326 H 221.634 0.968815 4.0487 0
M  V30 2327 H 222.167 2.41652 3.15989 0
M  V30 2328 H 218.906 5.34667 3.79225 0
M  V30 2329 H 218.426 3.84045 4.60727 0
M  V30 2330 H 220.105 4.42379 4.72133 0
M  V30 2331 N 220.237 -1.11381 1.11499 0
M  V30 2332 C 221.467 -1.86663 0.885464 0
M  V30 2333 C 221.875 -1.80464 -0.568281 0
M  V30 2334 O 221.218 -1.18445 -1.40415 0
M  V30 2335 C 221.28 -3.36337 1.26956 0
M  V30 2336 C 220.944 -3.66304 2.73259 0
M  V30 2337 C 221.941 -3.63733 3.71476 0
M  V30 2338 C 219.626 -3.9529 3.09921 0
M  V30 2339 C 221.62 -3.89725 5.04374 0
M  V30 2340 C 219.307 -4.20941 4.43004 0
M  V30 2341 C 220.305 -4.18147 5.40039 0
M  V30 2342 O 219.993 -4.43153 6.70724 0
M  V30 2343 H 219.725 -0.597114 0.316908 0
M  V30 2344 H 222.279 -1.41782 1.48617 0
M  V30 2345 H 220.509 -3.81826 0.611999 0
M  V30 2346 H 222.198 -3.92986 1.01573 0
M  V30 2347 H 222.964 -3.41389 3.44498 0
M  V30 2348 H 218.843 -3.966 2.35009 0
M  V30 2349 H 222.387 -3.8746 5.80104 0
M  V30 2350 H 218.284 -4.42761 4.69716 0
M  V30 2351 H 219.052 -4.60717 6.76522 0
M  V30 2352 N 221.715 -0.905404 -1.28997 0
M  V30 2353 C 222.678 -0.392253 -2.25819 0
M  V30 2354 C 223.678 0.476753 -1.5357 0
M  V30 2355 O 224.868 0.280994 -1.71919 0
M  V30 2356 C 222 0.438588 -3.38067 0
M  V30 2357 H 223.193 -1.24743 -2.72725 0
M  V30 2358 H 220.746 -0.684051 -1.40536 0
M  V30 2359 H 221.481 1.31352 -2.96508 0
M  V30 2360 H 221.266 -0.184167 -3.91667 0
M  V30 2361 H 222.756 0.78873 -4.10084 0
M  V30 2362 N 223.193 1.4272 -0.668489 0
M  V30 2363 C 224.604 1.84793 -0.266151 0
M  V30 2364 C 224.955 1.55959 1.19043 0
M  V30 2365 O 224.08 1.01622 1.91055 0
M  V30 2366 C 224.675 3.35436 -0.476271 0
M  V30 2367 C 223.234 3.76182 -0.128113 0
M  V30 2368 C 222.381 2.66344 -0.771777 0
M  V30 2369 H 225.332 1.32656 -0.871098 0
M  V30 2370 H 225.353 3.79515 0.273561 0
M  V30 2371 H 224.865 3.5639 -1.53647 0
M  V30 2372 H 222.966 3.60836 0.928891 0
M  V30 2373 H 223.079 4.75766 -0.564231 0
M  V30 2374 H 221.443 2.53885 -0.203652 0
M  V30 2375 H 222.226 2.90123 -1.83531 0
M  V30 2376 N 224.671 0.411399 1.52136 0
M  V30 2377 C 225.634 -0.401089 2.25663 0
M  V30 2378 C 226.634 -0.971732 1.28117 0
M  V30 2379 O 227.824 -0.850254 1.52041 0
M  V30 2380 C 224.956 -1.56483 3.02863 0
M  V30 2381 H 226.149 0.24295 2.98914 0
M  V30 2382 H 223.702 0.163968 1.55438 0
M  V30 2383 H 224.437 -2.24567 2.33967 0
M  V30 2384 H 224.222 -1.16211 3.74483 0
M  V30 2385 H 225.712 -2.13951 3.58629 0
M  V30 2386 N 226.149 -1.5696 0.141893 0
M  V30 2387 C 227.079 -2.19516 -0.795936 0
M  V30 2388 C 228.06 -1.14187 -1.26077 0
M  V30 2389 O 229.245 -1.42511 -1.31925 0
M  V30 2390 C 226.375 -2.81272 -2.03723 0
M  V30 2391 C 225.329 -3.92384 -1.70936 0
M  V30 2392 C 224.655 -4.41052 -3.02287 0
M  V30 2393 C 225.955 -5.13403 -0.959954 0
M  V30 2394 H 227.649 -2.98138 -0.274596 0
M  V30 2395 H 225.195 -1.43406 -0.130636 0
M  V30 2396 H 227.148 -3.237 -2.69808 0
M  V30 2397 H 225.872 -1.99973 -2.58221 0
M  V30 2398 H 224.531 -3.50566 -1.07232 0
M  V30 2399 H 224.179 -3.56582 -3.54765 0
M  V30 2400 H 223.879 -5.15993 -2.81114 0
M  V30 2401 H 225.403 -4.86146 -3.69451 0
M  V30 2402 H 226.817 -5.52706 -1.52279 0
M  V30 2403 H 225.214 -5.94073 -0.848357 0
M  V30 2404 H 226.284 -4.84875 0.0492434 0
M  V30 2405 N 227.627 0.131896 -1.57047 0
M  V30 2406 C 228.876 0.84044 -1.83356 0
M  V30 2407 C 229.189 1.81646 -0.725535 0
M  V30 2408 O 230.395 2.57025 -0.874659 0
M  V30 2409 C 228.851 1.54528 -3.25037 0
M  V30 2410 C 228.459 0.610902 -4.43815 0
M  V30 2411 C 230.203 2.23972 -3.60606 0
M  V30 2412 C 228.11 1.31823 -5.76521 0
M  V30 2413 H 227.04 0.317599 -0.683847 0
M  V30 2414 H 229.691 0.0931561 -1.83263 0
M  V30 2415 H 228.073 2.33873 -3.19561 0
M  V30 2416 H 229.247 -0.148407 -4.60561 0
M  V30 2417 H 227.562 0.0241016 -4.16393 0
M  V30 2418 H 230.159 2.77558 -4.57018 0
M  V30 2419 H 230.502 3.01173 -2.87403 0
M  V30 2420 H 231.035 1.51529 -3.6781 0
M  V30 2421 H 227.774 0.587771 -6.52859 0
M  V30 2422 H 227.294 2.04987 -5.63685 0
M  V30 2423 H 228.973 1.855 -6.19838 0
M  V30 2424 N 229.106 1.52395 0.401703 0
M  V30 2425 C 230.036 1.79231 1.49661 0
M  V30 2426 C 231.017 0.643654 1.57452 0
M  V30 2427 O 232.202 0.889989 1.72606 0
M  V30 2428 C 229.332 1.94971 2.87409 0
M  V30 2429 C 228.286 3.10604 2.94465 0
M  V30 2430 C 227.612 3.11577 4.34538 0
M  V30 2431 C 228.912 4.49921 2.6527 0
M  V30 2432 H 230.606 2.70917 1.27454 0
M  V30 2433 H 228.152 1.30362 0.6117 0
M  V30 2434 H 230.105 2.12328 3.63999 0
M  V30 2435 H 228.829 0.999632 3.10926 0
M  V30 2436 H 227.488 2.93009 2.20321 0
M  V30 2437 H 227.136 2.14277 4.55076 0
M  V30 2438 H 226.836 3.89247 4.40183 0
M  V30 2439 H 228.36 3.31073 5.13053 0
M  V30 2440 H 229.774 4.67683 3.31581 0
M  V30 2441 H 228.171 5.29564 2.82281 0
M  V30 2442 H 229.241 4.57507 1.60671 0
M  V30 2443 N 230.584 -0.659388 1.43143 0
M  V30 2444 C 231.532 -1.79374 1.4808 0
M  V30 2445 C 232.526 -1.65639 0.354988 0
M  V30 2446 O 233.732 -1.7206 0.528704 0
M  V30 2447 H 230.107 -0.591705 0.4641 0
M  V30 2448 H 232.078 -1.72329 2.43609 0
M  V30 2449 C 230.827 -3.17606 1.41499 0
M  V30 2450 H 230.15 -3.28809 2.27431 0
M  V30 2451 H 231.59 -3.96951 1.49015 0
M  V30 2452 C 230.049 -3.36642 0.131765 0
M  V30 2453 O 230.579 -3.93461 -0.809386 0
M  V30 2454 N 228.785 -2.90567 0.0439396 0
M  V30 2455 H 228.332 -2.44513 0.810619 0
M  V30 2456 H 228.29 -3.03681 -0.813969 0
M  V30 2457 N 232.062 -1.29571 -0.897171 0
M  V30 2458 C 232.994 -1.10724 -2.00681 0
M  V30 2459 C 234.007 -0.0540026 -1.6271 0
M  V30 2460 O 235.196 -0.298783 -1.75982 0
M  V30 2461 C 232.296 -0.663912 -3.32333 0
M  V30 2462 C 231.469 -1.79622 -3.98816 0
M  V30 2463 C 230.528 -1.34349 -5.0876 0
M  V30 2464 O 229.554 -2.04864 -5.31055 0
M  V30 2465 N 230.756 -0.215764 -5.80099 0
M  V30 2466 H 233.521 -2.06291 -2.17403 0
M  V30 2467 H 231.082 -1.21544 -1.06951 0
M  V30 2468 H 233.074 -0.344295 -4.03233 0
M  V30 2469 H 231.644 0.199375 -3.11964 0
M  V30 2470 H 230.864 -2.28459 -3.21248 0
M  V30 2471 H 232.152 -2.55535 -4.39976 0
M  V30 2472 H 231.55 0.372091 -5.64475 0
M  V30 2473 H 230.107 0.0444707 -6.51785 0
M  V30 2474 N 233.54 1.10788 -1.12088 0
M  V30 2475 C 234.786 1.82942 -0.875226 0
M  V30 2476 C 235.119 1.84779 0.597538 0
M  V30 2477 O 234.394 1.30578 1.44152 0
M  V30 2478 C 234.677 3.29789 -1.44606 0
M  V30 2479 C 234.53 3.36307 -2.98693 0
M  V30 2480 C 235.849 4.26064 -1.10261 0
M  V30 2481 H 232.968 0.664195 -0.319397 0
M  V30 2482 H 235.61 1.29867 -1.38689 0
M  V30 2483 H 233.76 3.75118 -1.01089 0
M  V30 2484 H 235.432 2.99487 -3.50864 0
M  V30 2485 H 233.675 2.76318 -3.34411 0
M  V30 2486 H 234.346 4.39694 -3.33726 0
M  V30 2487 H 236.822 3.88951 -1.4784 0
M  V30 2488 H 235.698 5.27183 -1.52869 0
M  V30 2489 H 235.959 4.42098 -0.0142953 0
M  V30 2490 N 235.018 0.912232 1.28515 0
M  V30 2491 C 236.246 0.560416 1.99166 0
M  V30 2492 C 236.661 -0.857927 1.68182 0
M  V30 2493 O 236.018 -1.56805 0.933733 0
M  V30 2494 C 236.069 0.758142 3.53461 0
M  V30 2495 O 235.79 2.12067 3.83352 0
M  V30 2496 C 237.291 0.412954 4.41372 0
M  V30 2497 H 234.511 0.213805 0.636026 0
M  V30 2498 H 237.055 1.22502 1.63749 0
M  V30 2499 H 235.21 0.140556 3.87145 0
M  V30 2500 H 235.624 2.15923 4.77993 0
M  V30 2501 H 237.098 0.60208 5.48707 0
M  V30 2502 H 237.575 -0.65073 4.34353 0
M  V30 2503 H 238.181 1.00802 4.13182 0
M  V30 2504 N 236.496 -1.42363 0.676048 0
M  V30 2505 C 237.744 -2.01123 0.198437 0
M  V30 2506 C 238.065 -1.53731 -1.19966 0
M  V30 2507 O 237.335 -0.759518 -1.80577 0
M  V30 2508 H 235.915 -0.743678 0.0703721 0
M  V30 2509 H 238.577 -1.74263 0.872837 0
M  V30 2510 H 237.673 -3.11454 0.200686 0
M  V30 2511 N 237.974 -0.419461 -1.51915 0
M  V30 2512 C 238.904 0.391813 -2.30189 0
M  V30 2513 C 239.885 1.03699 -1.34836 0
M  V30 2514 O 241.07 1.04403 -1.63748 0
M  V30 2515 C 238.2 1.50312 -3.13087 0
M  V30 2516 C 237.154 0.9824 -4.16573 0
M  V30 2517 C 236.48 2.18809 -4.8788 0
M  V30 2518 C 237.78 0.0292356 -5.22292 0
M  V30 2519 H 239.474 -0.26135 -2.98257 0
M  V30 2520 H 237.02 -0.127134 -1.43438 0
M  V30 2521 H 238.973 2.07773 -3.66617 0
M  V30 2522 H 237.697 2.18431 -2.42807 0
M  V30 2523 H 236.356 0.430119 -3.64068 0
M  V30 2524 H 236.004 2.85507 -4.14119 0
M  V30 2525 H 235.704 1.84615 -5.57845 0
M  V30 2526 H 237.228 2.76858 -5.44226 0
M  V30 2527 H 238.642 0.512976 -5.71 0
M  V30 2528 H 237.039 -0.2244 -5.9968 0
M  V30 2529 H 238.109 -0.912931 -4.76228 0
M  V30 2530 N 239.452 1.56882 -0.150215 0
M  V30 2531 C 240.729 1.87844 0.545327 0
M  V30 2532 C 241.109 1.0567 1.82749 0
M  V30 2533 O 240.457 0.144442 2.28043 0
M  V30 2534 C 240.667 3.39526 0.80767 0
M  V30 2535 C 242.015 4.08814 1.14703 0
M  V30 2536 O 243.039 3.44723 0.896917 0
M  V30 2537 O 241.898 5.22004 1.61784 0
M  V30 2538 H 238.992 0.778677 0.278553 0
M  V30 2539 H 241.538 1.68666 -0.187068 0
M  V30 2540 H 240.31 3.91173 -0.0996096 0
M  V30 2541 H 239.933 3.64243 1.59413 0
M  V30 2542 N 240.93 -0.123565 1.57115 0
M  V30 2543 C 242.179 -0.830704 1.83799 0
M  V30 2544 C 242.492 -1.81259 0.735158 0
M  V30 2545 O 243.698 -2.56558 0.888278 0
M  V30 2546 C 242.154 -1.52802 3.25852 0
M  V30 2547 C 241.762 -0.587356 4.44133 0
M  V30 2548 C 243.506 -2.22056 3.61789 0
M  V30 2549 C 241.413 -1.28764 5.77212 0
M  V30 2550 H 240.343 -0.313967 0.685522 0
M  V30 2551 H 242.994 -0.0834359 1.8331 0
M  V30 2552 H 241.376 -2.32175 3.20797 0
M  V30 2553 H 242.55 0.172829 4.60476 0
M  V30 2554 H 240.865 -0.00201892 4.164 0
M  V30 2555 H 243.462 -2.75131 4.58483 0
M  V30 2556 H 243.805 -2.99644 2.88997 0
M  V30 2557 H 244.338 -1.49576 3.68608 0
M  V30 2558 H 241.077 -0.55314 6.53162 0
M  V30 2559 H 240.597 -2.01995 5.64764 0
M  V30 2560 H 242.276 -1.8221 6.20813 0
M  V30 2561 N 242.408 -1.52605 -0.393616 0
M  V30 2562 C 243.654 -1.68624 -1.13743 0
M  V30 2563 C 244.009 -0.418687 -1.87789 0
M  V30 2564 O 243.302 0.58747 -1.82371 0
M  V30 2565 C 243.496 -2.85721 -2.14705 0
M  V30 2566 C 243.325 -4.23742 -1.50575 0
M  V30 2567 C 242.095 -4.89033 -1.2718 0
M  V30 2568 C 244.293 -5.05293 -0.958311 0
M  V30 2569 N 242.275 -6.11048 -0.591058 0
M  V30 2570 C 243.646 -6.18673 -0.405367 0
M  V30 2571 C 245.701 -4.90517 -0.854274 0
M  V30 2572 C 244.404 -7.18895 0.241434 0
M  V30 2573 C 246.43 -5.90986 -0.221301 0
M  V30 2574 C 245.792 -7.03669 0.320894 0
M  V30 2575 H 241.891 -0.670556 -0.402342 0
M  V30 2576 H 244.475 -1.89946 -0.427607 0
M  V30 2577 H 242.646 -2.65987 -2.83029 0
M  V30 2578 H 244.378 -2.90699 -2.8156 0
M  V30 2579 H 241.133 -4.47672 -1.54554 0
M  V30 2580 H 241.557 -6.76474 -0.266862 0
M  V30 2581 H 246.199 -4.03612 -1.25926 0
M  V30 2582 H 243.917 -8.05413 0.658448 0
M  V30 2583 H 247.503 -5.81626 -0.142111 0
M  V30 2584 H 246.383 -7.80078 0.802956 0
M  V30 2585 N 243.887 0.651787 -1.4349 0
M  V30 2586 C 244.85 1.74647 -1.48429 0
M  V30 2587 C 245.85 1.56513 -0.368817 0
M  V30 2588 O 247.04 1.62385 -0.630623 0
M  V30 2589 C 244.172 3.13533 -1.33827 0
M  V30 2590 H 245.365 1.71649 -2.4592 0
M  V30 2591 H 242.918 0.863573 -1.30277 0
M  V30 2592 H 243.653 3.22142 -0.37349 0
M  V30 2593 H 243.438 3.28101 -2.14691 0
M  V30 2594 H 244.928 3.93356 -1.40218 0
M  V30 2595 N 245.365 1.30045 0.890287 0
M  V30 2596 C 246.59 1.21598 1.68014 0
M  V30 2597 C 247.015 -0.218678 1.86825 0
M  V30 2598 O 246.373 -1.15756 1.39536 0
M  V30 2599 C 246.421 1.94434 3.03691 0
M  V30 2600 O 245.525 1.2678 3.92429 0
M  V30 2601 H 244.866 0.420856 0.513592 0
M  V30 2602 H 247.396 1.71775 1.11151 0
M  V30 2603 H 247.406 2.03251 3.5377 0
M  V30 2604 H 246.081 2.98777 2.89318 0
M  V30 2605 H 244.658 1.26282 3.50866 0
M  V30 2606 N 246.843 -1.10192 1.12674 0
M  V30 2607 C 247.773 -2.18652 0.819362 0
M  V30 2608 C 248.754 -1.68698 -0.217915 0
M  V30 2609 O 249.939 -1.94041 -0.0785581 0
M  V30 2610 C 247.069 -3.46202 0.27594 0
M  V30 2611 C 246.023 -4.09444 1.24656 0
M  V30 2612 C 245.349 -5.31725 0.563258 0
M  V30 2613 C 246.649 -4.52863 2.60217 0
M  V30 2614 H 248.343 -2.44622 1.72628 0
M  V30 2615 H 245.889 -1.17571 0.831451 0
M  V30 2616 H 247.842 -4.21372 0.0486149 0
M  V30 2617 H 246.566 -3.1973 -0.666331 0
M  V30 2618 H 245.225 -3.36284 1.45974 0
M  V30 2619 H 244.873 -5.0153 -0.384235 0
M  V30 2620 H 244.573 -5.74991 1.21075 0
M  V30 2621 H 246.097 -6.09624 0.34503 0
M  V30 2622 H 247.511 -5.19294 2.42913 0
M  V30 2623 H 245.908 -5.06986 3.21068 0
M  V30 2624 H 246.978 -3.65656 3.18471 0
M  V30 2625 N 248.321 -0.919034 -1.28029 0
M  V30 2626 C 249.251 -0.428581 -2.29533 0
M  V30 2627 C 250.232 0.50659 -1.62381 0
M  V30 2628 O 251.417 0.413195 -1.89753 0
M  V30 2629 C 248.547 0.327388 -3.45753 0
M  V30 2630 C 247.501 -0.519137 -4.2484 0
M  V30 2631 C 246.827 0.365486 -5.33449 0
M  V30 2632 C 248.127 -1.77914 -4.91064 0
M  V30 2633 H 249.821 -1.27687 -2.70807 0
M  V30 2634 H 247.367 -0.615428 -1.30186 0
M  V30 2635 H 249.32 0.681378 -4.15855 0
M  V30 2636 H 248.044 1.20963 -3.03374 0
M  V30 2637 H 246.703 -0.855717 -3.56473 0
M  V30 2638 H 246.351 1.24642 -4.87312 0
M  V30 2639 H 246.051 -0.197356 -5.87268 0
M  V30 2640 H 247.575 0.715241 -6.06396 0
M  V30 2641 H 248.989 -1.49374 -5.53498 0
M  V30 2642 H 247.386 -2.2848 -5.54903 0
M  V30 2643 H 248.456 -2.50382 -4.15255 0
M  V30 2644 N 249.799 1.42003 -0.683588 0
M  V30 2645 C 251.024 2.06265 -0.216647 0
M  V30 2646 C 251.449 1.51059 1.12083 0
M  V30 2647 O 250.807 0.632638 1.69904 0
M  V30 2648 C 250.855 3.60191 -0.171759 0
M  V30 2649 O 249.959 4.03396 0.857069 0
M  V30 2650 H 249.3 0.65502 -0.108834 0
M  V30 2651 H 251.83 1.81982 -0.935077 0
M  V30 2652 H 251.84 4.08 0.0014303 0
M  V30 2653 H 250.515 3.99743 -1.14796 0
M  V30 2654 H 249.092 3.67117 0.654208 0
M  V30 2655 N 251.277 0.427512 1.51691 0
M  V30 2656 C 252.505 -0.141191 2.06418 0
M  V30 2657 C 252.92 -1.37303 1.29589 0
M  V30 2658 O 252.277 -1.79059 0.352732 0
M  V30 2659 C 252.328 -0.473266 3.58389 0
M  V30 2660 O 252.049 0.709673 4.32314 0
M  V30 2661 C 253.55 -1.09371 4.29596 0
M  V30 2662 H 250.77 -0.0122747 0.670888 0
M  V30 2663 H 253.314 0.603764 1.95384 0
M  V30 2664 H 251.469 -1.16812 3.69369 0
M  V30 2665 H 251.883 0.42807 5.2275 0
M  V30 2666 H 253.357 -1.27613 5.37046 0
M  V30 2667 H 253.834 -2.072 3.87253 0
M  V30 2668 H 254.44 -0.43853 4.23033 0
M  V30 2669 N 252.755 -1.56801 0.158532 0
M  V30 2670 C 254.003 -1.96102 -0.488712 0
M  V30 2671 C 254.324 -1.04498 -1.64636 0
M  V30 2672 O 253.594 -0.108783 -1.95598 0
M  V30 2673 H 252.174 -0.724102 -0.183535 0
M  V30 2674 H 254.836 -1.93457 0.236728 0
M  V30 2675 H 253.932 -3.00097 -0.857219 0
M  V30 2676 N 254.233 0.115231 -1.57178 0
M  V30 2677 C 255.482 0.820945 -1.84237 0
M  V30 2678 C 255.795 1.80866 -0.744761 0
M  V30 2679 O 257.001 2.56083 -0.901871 0
M  V30 2680 C 255.457 1.51072 -3.26658 0
M  V30 2681 C 255.065 0.563795 -4.44438 0
M  V30 2682 C 256.809 2.20134 -3.62962 0
M  V30 2683 C 254.716 1.25701 -5.77887 0
M  V30 2684 H 253.646 0.310328 -0.687177 0
M  V30 2685 H 256.297 0.0737134 -1.83352 0
M  V30 2686 H 254.679 2.30471 -3.22024 0
M  V30 2687 H 255.853 -0.197247 -4.60378 0
M  V30 2688 H 254.168 -0.0200638 -4.16395 0
M  V30 2689 H 256.765 2.72696 -4.59936 0
M  V30 2690 H 257.108 2.98107 -2.90582 0
M  V30 2691 H 257.641 1.47619 -3.69396 0
M  V30 2692 H 254.38 0.518493 -6.53446 0
M  V30 2693 H 253.9 1.98997 -5.65827 0
M  V30 2694 H 255.579 1.78915 -6.2177 0
M  V30 2695 N 255.711 1.52812 0.385517 0
M  V30 2696 C 256.96 1.67249 1.12741 0
M  V30 2697 C 257.273 0.4205 1.91027 0
M  V30 2698 O 258.479 0.445064 2.67827 0
M  V30 2699 C 256.935 2.95583 2.05326 0
M  V30 2700 C 256.543 4.27974 1.32447 0
M  V30 2701 C 258.287 3.19386 2.7963 0
M  V30 2702 C 256.194 5.47412 2.23818 0
M  V30 2703 H 255.124 0.6231 0.424573 0
M  V30 2704 H 257.775 1.79309 0.389924 0
M  V30 2705 H 256.157 2.77277 2.82725 0
M  V30 2706 H 257.331 4.56844 0.602495 0
M  V30 2707 H 255.646 4.10459 0.700885 0
M  V30 2708 H 258.243 4.05801 3.48181 0
M  V30 2709 H 258.586 2.34604 3.43899 0
M  V30 2710 H 259.119 3.38274 2.09322 0
M  V30 2711 H 255.858 6.34612 1.64157 0
M  V30 2712 H 255.378 5.22849 2.93921 0
M  V30 2713 H 257.057 5.81423 2.83824 0
M  V30 2714 N 257.189 -0.644168 1.43834 0
M  V30 2715 C 258.429 -1.41565 1.47441 0
M  V30 2716 C 258.793 -1.91743 0.0992723 0
M  V30 2717 O 259.994 -2.68798 0.0100192 0
M  V30 2718 C 258.265 -2.55902 2.49498 0
M  V30 2719 S 259.824 -3.44287 2.72051 0
M  V30 2720 H 256.642 -0.483118 0.521649 0
M  V30 2721 H 259.244 -0.747008 1.80666 0
M  V30 2722 H 257.948 -2.17327 3.48134 0
M  V30 2723 H 257.479 -3.27607 2.17801 0
M  V30 2724 H 259.494 -4.52927 2.0266 0
M  V30 2725 N 258.668 -1.30515 -0.883378 0
M  V30 2726 C 259.896 -1.22359 -1.66841 0
M  V30 2727 C 260.311 0.213296 -1.87591 0
M  V30 2728 O 259.668 1.14075 -1.42454 0
M  V30 2729 C 259.719 -1.95011 -3.04389 0
M  V30 2730 O 259.44 -3.3309 -2.84575 0
M  V30 2731 C 260.941 -1.93532 -3.98824 0
M  V30 2732 H 258.161 -0.423371 -0.520575 0
M  V30 2733 H 260.705 -1.72167 -1.10357 0
M  V30 2734 H 258.86 -1.48997 -3.57601 0
M  V30 2735 H 259.274 -3.69907 -3.71846 0
M  V30 2736 H 260.748 -2.48902 -4.92699 0
M  V30 2737 H 261.225 -0.914627 -4.29571 0
M  V30 2738 H 261.831 -2.39364 -3.51547 0
M  V30 2739 N 260.146 1.09593 -1.13257 0
M  V30 2740 C 261.393 1.81734 -0.893257 0
M  V30 2741 C 261.721 1.8563 0.580656 0
M  V30 2742 O 260.976 1.31906 1.44566 0
M  V30 2743 C 261.275 3.27802 -1.42411 0
M  V30 2744 C 260.941 3.44041 -2.91456 0
M  V30 2745 C 259.603 3.48181 -3.3215 0
M  V30 2746 C 261.955 3.48719 -3.87356 0
M  V30 2747 C 259.283 3.54575 -4.67433 0
M  V30 2748 C 261.635 3.56648 -5.2248 0
M  V30 2749 C 260.299 3.59055 -5.62704 0
M  V30 2750 H 259.569 0.665011 -0.326866 0
M  V30 2751 H 262.216 1.2912 -1.41422 0
M  V30 2752 H 260.521 3.83042 -0.823795 0
M  V30 2753 H 262.218 3.82149 -1.21503 0
M  V30 2754 H 258.808 3.41502 -2.58987 0
M  V30 2755 H 262.992 3.44763 -3.57004 0
M  V30 2756 H 258.248 3.54725 -4.97976 0
M  V30 2757 H 262.422 3.59212 -5.96607 0
M  V30 2758 H 260.049 3.63763 -6.67518 0
M  V30 2759 N 261.624 0.925811 1.2754 0
M  V30 2760 C 262.854 0.580666 1.98272 0
M  V30 2761 C 263.262 -0.845207 1.69272 0
M  V30 2762 O 262.605 -1.57306 0.948707 0
M  V30 2763 C 262.667 0.724418 3.52126 0
M  V30 2764 C 262.331 2.12206 4.04744 0
M  V30 2765 C 263.328 3.09604 4.17662 0
M  V30 2766 C 261.013 2.4385 4.39138 0
M  V30 2767 C 263.007 4.36755 4.64246 0
M  V30 2768 C 260.694 3.71237 4.85414 0
M  V30 2769 C 261.692 4.67503 4.97926 0
M  V30 2770 O 261.38 5.92624 5.43187 0
M  V30 2771 H 261.112 0.218987 0.639547 0
M  V30 2772 H 263.666 1.24452 1.63404 0
M  V30 2773 H 261.896 0.0034663 3.867 0
M  V30 2774 H 263.585 0.384607 4.04074 0
M  V30 2775 H 264.351 2.86478 3.91351 0
M  V30 2776 H 260.23 1.69665 4.28643 0
M  V30 2777 H 263.774 5.11898 4.73927 0
M  V30 2778 H 259.671 3.94182 5.11166 0
M  V30 2779 H 260.439 5.95585 5.61445 0
M  V30 2780 N 263.102 -1.41638 0.69111 0
M  V30 2781 C 264.33 -2.05628 0.22909 0
M  V30 2782 C 264.745 -1.51992 -1.11999 0
M  V30 2783 O 264.102 -0.666322 -1.69901 0
M  V30 2784 C 264.153 -3.61084 0.173283 0
M  V30 2785 O 263.874 -4.12735 1.46907 0
M  V30 2786 C 265.375 -4.42213 -0.310266 0
M  V30 2787 H 262.595 -0.662327 0.107534 0
M  V30 2788 H 265.139 -1.81489 0.942438 0
M  V30 2789 H 263.294 -3.84278 -0.490858 0
M  V30 2790 H 263.708 -5.06743 1.35322 0
M  V30 2791 H 265.182 -5.51194 -0.298196 0
M  V30 2792 H 265.659 -4.1799 -1.34838 0
M  V30 2793 H 266.265 -4.24074 0.322716 0
M  V30 2794 N 264.58 -0.43555 -1.51462 0
M  V30 2795 C 265.543 0.365137 -2.26273 0
M  V30 2796 C 266.543 0.951227 -1.29647 0
M  V30 2797 O 267.733 0.825958 -1.53374 0
M  V30 2798 C 264.865 1.51645 -3.05314 0
M  V30 2799 H 266.058 -0.290474 -2.9849 0
M  V30 2800 H 263.611 -0.188676 -1.55157 0
M  V30 2801 H 264.346 2.20816 -2.3751 0
M  V30 2802 H 264.131 1.10238 -3.76284 0
M  V30 2803 H 265.621 2.08218 -3.61987 0
M  V30 2804 N 266.058 1.56714 -0.166846 0
M  V30 2805 C 267.304 1.97039 0.479962 0
M  V30 2806 C 267.637 1.05264 1.63197 0
M  V30 2807 O 266.912 0.0988833 1.94248 0
M  V30 2808 C 267.195 3.46867 0.967212 0
M  V30 2809 C 267.048 4.49421 -0.18466 0
M  V30 2810 C 268.367 3.9968 1.84238 0
M  V30 2811 H 265.486 0.71641 0.172992 0
M  V30 2812 H 268.128 1.8832 -0.252079 0
M  V30 2813 H 266.278 3.54428 1.59101 0
M  V30 2814 H 267.95 4.53924 -0.821621 0
M  V30 2815 H 266.193 4.25573 -0.840837 0
M  V30 2816 H 266.864 5.51644 0.198317 0
M  V30 2817 H 269.34 3.94723 1.31655 0
M  V30 2818 H 268.216 5.04941 2.15234 0
M  V30 2819 H 268.477 3.43226 2.78654 0
M  V30 2820 N 267.536 -0.106894 1.57237 0
M  V30 2821 C 268.784 -0.810921 1.85117 0
M  V30 2822 C 269.105 -1.7984 0.753827 0
M  V30 2823 O 268.375 -1.94649 -0.221056 0
M  V30 2824 H 266.955 -0.302466 0.683025 0
M  V30 2825 H 269.617 -0.0913324 1.94686 0
M  V30 2826 H 268.713 -1.34875 2.81452 0
M  V30 2827 N 269.014 -1.53014 -0.377408 0
M  V30 2828 C 270.262 -1.6829 -1.11906 0
M  V30 2829 C 270.583 -0.431206 -1.90173 0
M  V30 2830 O 269.853 0.554595 -1.87886 0
M  V30 2831 H 268.433 -0.620371 -0.416112 0
M  V30 2832 H 271.095 -1.90167 -0.426893 0
M  V30 2833 H 270.191 -2.53862 -1.8155 0
M  V30 2834 N 270.492 0.636531 -1.44174 0
M  V30 2835 C 271.425 1.76139 -1.45087 0
M  V30 2836 C 272.403 1.59611 -0.310326 0
M  V30 2837 O 273.587 1.81568 -0.506477 0
M  V30 2838 C 270.714 3.13648 -1.27839 0
M  V30 2839 C 269.76 3.48838 -2.45386 0
M  V30 2840 S 270.593 3.46927 -4.07924 0
M  V30 2841 C 271.749 4.87064 -3.9309 0
M  V30 2842 H 271.982 1.75096 -2.40268 0
M  V30 2843 H 269.515 0.810666 -1.31406 0
M  V30 2844 H 271.473 3.93002 -1.18575 0
M  V30 2845 H 270.134 3.12235 -0.341787 0
M  V30 2846 H 269.327 4.48886 -2.29167 0
M  V30 2847 H 268.929 2.76935 -2.51362 0
M  V30 2848 H 271.221 5.76153 -3.56446 0
M  V30 2849 H 272.164 5.08337 -4.92949 0
M  V30 2850 H 272.572 4.61384 -3.25246 0
M  V30 2851 N 271.97 1.30982 0.876444 0
M  V30 2852 C 272.917 1.18085 1.98304 0
M  V30 2853 C 273.887 0.0682263 1.6596 0
M  V30 2854 O 275.072 0.239937 1.89285 0
M  V30 2855 C 272.212 0.887475 3.33493 0
M  V30 2856 C 271.325 2.08281 3.78475 0
M  V30 2857 C 270.46 1.72678 5.0235 0
M  V30 2858 C 269.499 2.88657 5.39762 0
M  V30 2859 N 268.636 2.53292 6.54819 0
M  V30 2860 H 273.476 2.1275 2.08666 0
M  V30 2861 H 271.013 1.05839 1.02159 0
M  V30 2862 H 272.971 0.697961 4.1132 0
M  V30 2863 H 271.601 -0.022315 3.22792 0
M  V30 2864 H 270.653 2.3833 2.96484 0
M  V30 2865 H 271.965 2.95108 4.02135 0
M  V30 2866 H 271.119 1.50151 5.87826 0
M  V30 2867 H 269.858 0.830327 4.8058 0
M  V30 2868 H 268.863 3.1184 4.52809 0
M  V30 2869 H 270.088 3.79002 5.63502 0
M  V30 2870 H 268.034 1.66163 6.34607 0
M  V30 2871 H 267.951 3.3365 6.7839 0
M  V30 2872 H 269.219 2.34143 7.43503 0
M  V30 2873 N 273.449 -1.08991 1.13837 0
M  V30 2874 C 274.412 -2.13925 0.822715 0
M  V30 2875 C 275.412 -1.599 -0.1699 0
M  V30 2876 O 276.602 -1.74104 0.0577251 0
M  V30 2877 C 273.734 -3.40155 0.225318 0
M  V30 2878 H 274.927 -2.43358 1.75262 0
M  V30 2879 H 272.48 -1.24603 0.943594 0
M  V30 2880 H 273.215 -3.16352 -0.713594 0
M  V30 2881 H 273 -3.80661 0.940193 0
M  V30 2882 H 274.49 -4.17594 0.0214784 0
M  V30 2883 N 274.927 -0.932562 -1.27047 0
M  V30 2884 C 276.173 -0.576412 -1.94436 0
M  V30 2885 C 276.506 0.880891 -1.73072 0
M  V30 2886 O 275.781 1.62905 -1.06264 0
M  V30 2887 C 276.064 -0.909031 -3.48437 0
M  V30 2888 C 275.917 -2.42044 -3.79123 0
M  V30 2889 C 277.236 -0.418341 -4.38107 0
M  V30 2890 H 274.355 -0.210888 -0.706184 0
M  V30 2891 H 276.997 -1.16522 -1.50075 0
M  V30 2892 H 275.147 -0.407947 -3.86352 0
M  V30 2893 H 276.819 -2.99359 -3.50973 0
M  V30 2894 H 275.062 -2.86758 -3.25503 0
M  V30 2895 H 275.733 -2.6037 -4.86736 0
M  V30 2896 H 278.209 -0.847856 -4.0737 0
M  V30 2897 H 277.085 -0.679981 -5.44672 0
M  V30 2898 H 277.346 0.681642 -4.36814 0
M  V30 2899 N 276.405 1.4127 -0.698611 0
M  V30 2900 C 277.651 2.01478 -0.231207 0
M  V30 2901 C 277.984 1.55215 1.16713 0
M  V30 2902 O 277.259 0.764672 1.78838 0
M  V30 2903 C 277.542 3.58912 -0.292281 0
M  V30 2904 C 277.395 4.15293 -1.72778 0
M  V30 2905 C 278.714 4.38736 0.346194 0
M  V30 2906 H 275.833 0.732025 -0.0854878 0
M  V30 2907 H 278.475 1.67977 -0.887906 0
M  V30 2908 H 276.625 3.87582 0.26686 0
M  V30 2909 H 278.297 3.97486 -2.341 0
M  V30 2910 H 276.54 3.7022 -2.26096 0
M  V30 2911 H 277.211 5.24452 -1.72202 0
M  V30 2912 H 279.687 4.15897 -0.130035 0
M  V30 2913 H 278.563 5.48221 0.272932 0
M  V30 2914 H 278.824 4.18425 1.42734 0
M  V30 2915 N 277.883 0.443576 1.51229 0
M  V30 2916 C 279.129 -0.11321 2.03085 0
M  V30 2917 C 279.484 -1.39841 1.32145 0
M  V30 2918 O 278.777 -1.86723 0.429542 0
M  V30 2919 C 278.971 -0.380579 3.55368 0
M  V30 2920 C 278.8 0.877157 4.41062 0
M  V30 2921 C 277.57 1.4125 4.85156 0
M  V30 2922 C 279.768 1.76503 4.83064 0
M  V30 2923 N 277.75 2.62213 5.55083 0
M  V30 2924 C 279.121 2.82067 5.52122 0
M  V30 2925 C 281.176 1.7787 4.65045 0
M  V30 2926 C 279.879 3.88952 6.05069 0
M  V30 2927 C 281.905 2.83694 5.18914 0
M  V30 2928 C 281.267 3.87978 5.87922 0
M  V30 2929 H 277.366 -0.00210178 0.781997 0
M  V30 2930 H 279.95 0.605641 1.85041 0
M  V30 2931 H 278.121 -1.06847 3.73414 0
M  V30 2932 H 279.853 -0.929274 3.93887 0
M  V30 2933 H 276.608 0.965542 4.63653 0
M  V30 2934 H 277.032 3.23568 5.9467 0
M  V30 2935 H 281.674 0.985744 4.11148 0
M  V30 2936 H 279.392 4.69082 6.58018 0
M  V30 2937 H 282.978 2.85702 5.06819 0
M  V30 2938 H 281.858 4.68517 6.28857 0
M  V30 2939 N 279.361 -1.56624 0.175154 0
M  V30 2940 C 280.589 -2.01374 -0.474971 0
M  V30 2941 C 281.004 -1.05537 -1.56548 0
M  V30 2942 O 280.361 -0.0568668 -1.82411 0
M  V30 2943 C 280.412 -3.45923 -1.04975 0
M  V30 2944 O 280.133 -4.381 -0.00276605 0
M  V30 2945 C 281.634 -4.06093 -1.77773 0
M  V30 2946 H 278.854 -0.659962 -0.121206 0
M  V30 2947 H 281.398 -2.02601 0.27801 0
M  V30 2948 H 279.553 -3.45458 -1.75321 0
M  V30 2949 H 279.967 -5.22753 -0.427681 0
M  V30 2950 H 281.441 -5.09147 -2.13245 0
M  V30 2951 H 281.918 -3.48405 -2.67414 0
M  V30 2952 H 282.524 -4.10272 -1.12059 0
M  V30 2953 N 280.839 0.0985539 -1.57292 0
M  V30 2954 C 282.116 0.834155 -1.76921 0
M  V30 2955 C 282.496 1.97101 -0.755928 0
M  V30 2956 O 281.844 2.27474 0.216245 0
M  V30 2957 C 282.054 1.33194 -3.22584 0
M  V30 2958 C 283.402 1.77611 -3.85668 0
M  V30 2959 O 284.426 1.42825 -3.26312 0
M  V30 2960 O 283.285 2.4192 -4.90038 0
M  V30 2961 H 280.379 0.397628 -0.725135 0
M  V30 2962 H 282.925 0.0807044 -1.69508 0
M  V30 2963 H 281.697 0.517248 -3.87866 0
M  V30 2964 H 281.32 2.1475 -3.34616 0
M  V30 2965 N 282.317 1.53212 0.369288 0
M  V30 2966 C 283.563 1.69466 1.11397 0
M  V30 2967 C 283.896 0.443257 1.89074 0
M  V30 2968 O 283.171 -0.559386 1.86282 0
M  V30 2969 C 283.454 2.9422 2.07621 0
M  V30 2970 C 283.307 4.29508 1.33577 0
M  V30 2971 C 284.626 3.14565 3.07794 0
M  V30 2972 H 281.745 0.616667 0.403597 0
M  V30 2973 H 284.387 1.85845 0.395179 0
M  V30 2974 H 282.537 2.80387 2.68916 0
M  V30 2975 H 284.209 4.55147 0.750955 0
M  V30 2976 H 282.452 4.29088 0.637618 0
M  V30 2977 H 283.123 5.12926 2.03989 0
M  V30 2978 H 285.599 3.2756 2.56601 0
M  V30 2979 H 284.475 4.03297 3.72348 0
M  V30 2980 H 284.736 2.29675 3.77759 0
M  V30 2981 N 283.795 -0.628877 1.44509 0
M  V30 2982 C 285.042 -1.38839 1.47411 0
M  V30 2983 C 285.37 -1.94202 0.10757 0
M  V30 2984 O 284.625 -1.74243 -0.890947 0
M  V30 2985 C 284.924 -2.56995 2.48371 0
M  V30 2986 C 284.59 -2.19908 3.93639 0
M  V30 2987 C 283.252 -2.09506 4.33198 0
M  V30 2988 C 285.604 -1.9064 4.85083 0
M  V30 2989 C 282.932 -1.68028 5.62124 0
M  V30 2990 C 285.284 -1.50655 6.14399 0
M  V30 2991 C 283.948 -1.38796 6.5291 0
M  V30 2992 H 283.218 -0.508048 0.539414 0
M  V30 2993 H 285.865 -0.712913 1.77735 0
M  V30 2994 H 284.17 -3.29786 2.11538 0
M  V30 2995 H 285.867 -3.15223 2.47861 0
M  V30 2996 H 282.457 -2.28922 3.62343 0
M  V30 2997 H 286.641 -1.97585 4.55273 0
M  V30 2998 H 281.897 -1.57452 5.90778 0
M  V30 2999 H 286.071 -1.27048 6.84713 0
M  V30 3000 H 283.698 -1.06429 7.52713 0
M  V30 3001 N 285.273 -1.31445 -0.869486 0
M  V30 3002 C 286.205 -1.14955 -1.98287 0
M  V30 3003 C 287.218 -0.0885037 -1.62559 0
M  V30 3004 O 288.407 -0.336044 -1.75308 0
M  V30 3005 C 285.507 -0.734255 -3.3085 0
M  V30 3006 C 284.68 -1.88042 -3.94917 0
M  V30 3007 C 283.739 -1.4511 -5.05796 0
M  V30 3008 O 282.765 -2.16082 -5.2659 0
M  V30 3009 N 283.967 -0.338763 -5.79511 0
M  V30 3010 H 286.732 -2.10856 -2.12979 0
M  V30 3011 H 284.293 -1.23786 -1.04349 0
M  V30 3012 H 286.285 -0.42975 -4.02412 0
M  V30 3013 H 284.855 0.133158 -3.12316 0
M  V30 3014 H 284.075 -2.35222 -3.1633 0
M  V30 3015 H 285.363 -2.6481 -4.34457 0
M  V30 3016 H 284.761 0.252274 -5.65137 0
M  V30 3017 H 283.318 -0.0937925 -6.51733 0
M  V30 3018 N 286.751 1.08385 -1.14413 0
M  V30 3019 C 287.997 1.81044 -0.913834 0
M  V30 3020 C 288.33 1.86004 0.558209 0
M  V30 3021 O 287.605 1.33606 1.4135 0
M  V30 3022 C 287.888 3.26648 -1.51569 0
M  V30 3023 C 287.741 3.29895 -3.0576 0
M  V30 3024 C 289.06 4.23629 -1.19273 0
M  V30 3025 H 286.179 0.65727 -0.333414 0
M  V30 3026 H 288.821 1.26896 -1.41412 0
M  V30 3027 H 286.971 3.72889 -1.09023 0
M  V30 3028 H 288.643 2.91977 -3.57137 0
M  V30 3029 H 286.886 2.69163 -3.40197 0
M  V30 3030 H 287.557 4.32516 -3.42977 0
M  V30 3031 H 290.033 3.85727 -1.56057 0
M  V30 3032 H 288.909 5.23822 -1.64017 0
M  V30 3033 H 289.17 4.41968 -0.108068 0
M  V30 3034 N 288.23 0.939286 1.26551 0
M  V30 3035 C 289.476 0.586715 1.94128 0
M  V30 3036 C 289.809 -0.8717 1.73537 0
M  V30 3037 O 289.084 -1.62339 1.07127 0
M  V30 3038 C 289.367 0.927497 3.4795 0
M  V30 3039 C 289.22 2.44052 3.77834 0
M  V30 3040 C 290.539 0.441569 4.37879 0
M  V30 3041 H 287.658 0.21463 0.705055 0
M  V30 3042 H 290.3 1.17316 1.49455 0
M  V30 3043 H 288.45 0.428431 3.8613 0
M  V30 3044 H 290.122 3.01216 3.4938 0
M  V30 3045 H 288.365 2.8848 3.23978 0
M  V30 3046 H 289.036 2.62947 4.85348 0
M  V30 3047 H 291.512 0.869448 4.06915 0
M  V30 3048 H 290.388 0.708856 5.44304 0
M  V30 3049 H 290.649 -0.658467 4.37169 0
M  V30 3050 N 289.708 -1.40897 0.706093 0
M  V30 3051 C 290.954 -2.01352 0.241889 0
M  V30 3052 C 291.287 -1.55832 -1.15888 0
M  V30 3053 O 290.562 -0.774145 -1.7843 0
M  V30 3054 C 290.845 -3.58752 0.311311 0
M  V30 3055 C 290.698 -4.1437 1.74978 0
M  V30 3056 C 292.017 -4.38914 -0.322922 0
M  V30 3057 H 289.136 -0.731562 0.0893687 0
M  V30 3058 H 291.778 -1.67504 0.896802 0
M  V30 3059 H 289.928 -3.87718 -0.246302 0
M  V30 3060 H 291.6 -3.96239 2.36205 0
M  V30 3061 H 289.843 -3.69016 2.28057 0
M  V30 3062 H 290.514 -5.23532 1.74981 0
M  V30 3063 H 292.99 -4.15822 0.152089 0
M  V30 3064 H 291.866 -5.48358 -0.243855 0
M  V30 3065 H 292.127 -4.19176 -1.40513 0
M  V30 3066 N 291.186 -0.45159 -1.50991 0
M  V30 3067 C 292.119 0.398179 -2.24699 0
M  V30 3068 C 293.097 1.01276 -1.27208 0
M  V30 3069 O 294.281 1.05247 -1.56382 0
M  V30 3070 C 291.408 1.55618 -3.00833 0
M  V30 3071 C 290.454 1.0609 -4.13095 0
M  V30 3072 S 291.287 -0.00865136 -5.35499 0
M  V30 3073 C 292.443 1.15369 -6.15175 0
M  V30 3074 H 292.676 -0.227555 -2.96428 0
M  V30 3075 H 290.209 -0.236251 -1.52582 0
M  V30 3076 H 292.167 2.21997 -3.45293 0
M  V30 3077 H 290.828 2.15337 -2.28667 0
M  V30 3078 H 290.021 1.92726 -4.65696 0
M  V30 3079 H 289.623 0.47513 -3.7097 0
M  V30 3080 H 291.915 2.06925 -6.45126 0
M  V30 3081 H 292.858 0.667344 -7.04948 0
M  V30 3082 H 293.266 1.3987 -5.46897 0
M  V30 3083 N 292.664 1.56529 -0.183458 0
M  V30 3084 C 293.594 2.21549 0.737456 0
M  V30 3085 C 294.575 1.17489 1.23005 0
M  V30 3086 O 295.76 1.45959 1.281 0
M  V30 3087 C 292.89 2.86575 1.96194 0
M  V30 3088 C 291.844 3.96778 1.60473 0
M  V30 3089 C 291.17 4.48911 2.90487 0
M  V30 3090 C 292.47 5.15767 0.823497 0
M  V30 3091 H 294.164 2.98761 0.195453 0
M  V30 3092 H 291.71 1.43702 0.0925686 0
M  V30 3093 H 293.663 3.30739 2.61131 0
M  V30 3094 H 292.387 2.06749 2.52828 0
M  V30 3095 H 291.046 3.53286 0.978997 0
M  V30 3096 H 290.694 3.65862 3.45186 0
M  V30 3097 H 290.394 5.23265 2.67335 0
M  V30 3098 H 291.918 4.95771 3.56432 0
M  V30 3099 H 293.332 5.56549 1.37571 0
M  V30 3100 H 291.729 5.96114 0.690551 0
M  V30 3101 H 292.799 4.84574 -0.177782 0
M  V30 3102 N 294.142 -0.090211 1.57342 0
M  V30 3103 C 295.367 -0.810082 1.90925 0
M  V30 3104 C 295.792 -1.71248 0.778187 0
M  V30 3105 O 295.15 -1.79278 -0.269991 0
M  V30 3106 C 295.198 -1.59529 3.23393 0
M  V30 3107 O 294.302 -2.70461 3.11327 0
M  V30 3108 H 293.643 -0.222231 0.625707 0
M  V30 3109 H 296.173 -0.0639716 2.045 0
M  V30 3110 H 296.183 -1.97847 3.5682 0
M  V30 3111 H 294.858 -0.933055 4.05299 0
M  V30 3112 H 293.435 -2.35135 2.89423 0
M  V30 3113 N 295.62 -1.53406 -0.361157 0
M  V30 3114 C 296.868 -1.69467 -1.10115 0
M  V30 3115 C 297.189 -0.451352 -1.89705 0
M  V30 3116 O 296.459 0.534636 -1.88463 0
M  V30 3117 H 295.039 -0.624749 -0.409508 0
M  V30 3118 H 297.701 -1.90609 -0.406699 0
M  V30 3119 H 296.797 -2.55774 -1.78847 0
M  V30 3120 N 297.098 0.621204 -1.44841 0
M  V30 3121 C 298.345 1.38055 -1.48145 0
M  V30 3122 C 298.673 1.94143 -0.117867 0
M  V30 3123 O 297.928 1.74713 0.881694 0
M  V30 3124 C 298.227 2.55675 -2.4973 0
M  V30 3125 C 297.893 2.17817 -3.94799 0
M  V30 3126 C 296.555 2.07205 -4.34303 0
M  V30 3127 C 298.907 1.88065 -4.86087 0
M  V30 3128 C 296.235 1.65045 -5.63007 0
M  V30 3129 C 298.587 1.47394 -6.15189 0
M  V30 3130 C 297.251 1.35331 -6.53637 0
M  V30 3131 H 296.521 0.505181 -0.542101 0
M  V30 3132 H 299.168 0.703477 -1.78111 0
M  V30 3133 H 297.473 3.2866 -2.13284 0
M  V30 3134 H 299.17 3.13904 -2.4953 0
M  V30 3135 H 295.76 2.26998 -3.63552 0
M  V30 3136 H 299.944 1.95168 -4.56315 0
M  V30 3137 H 295.2 1.54317 -5.91605 0
M  V30 3138 H 299.374 1.23415 -6.85377 0
M  V30 3139 H 297.001 1.02435 -7.53267 0
M  V30 3140 N 298.576 1.31904 0.862503 0
M  V30 3141 C 299.822 1.23207 1.61838 0
M  V30 3142 C 300.177 -0.206062 1.91293 0
M  V30 3143 O 299.47 -1.14162 1.53875 0
M  V30 3144 C 299.664 2.01713 2.95037 0
M  V30 3145 C 299.493 3.53014 2.78588 0
M  V30 3146 C 298.263 4.22359 2.77382 0
M  V30 3147 C 300.461 4.47819 2.52909 0
M  V30 3148 N 298.443 5.59766 2.52062 0
M  V30 3149 C 299.814 5.72947 2.36922 0
M  V30 3150 C 301.869 4.37162 2.38314 0
M  V30 3151 C 300.572 6.88623 2.07823 0
M  V30 3152 C 302.598 5.5263 2.10604 0
M  V30 3153 C 301.96 6.76752 1.95411 0
M  V30 3154 H 298.059 0.505984 0.596242 0
M  V30 3155 H 300.643 1.66179 1.01452 0
M  V30 3156 H 298.814 1.61098 3.53415 0
M  V30 3157 H 300.546 1.84975 3.59953 0
M  V30 3158 H 297.301 3.74401 2.90036 0
M  V30 3159 H 297.725 6.32135 2.42352 0
M  V30 3160 H 302.367 3.41857 2.48784 0
M  V30 3161 H 300.085 7.83948 1.9609 0
M  V30 3162 H 303.671 5.46307 2.00101 0
M  V30 3163 H 302.551 7.6459 1.74274 0
M  V30 3164 N 300.054 -1.07777 1.14986 0
M  V30 3165 C 301.3 -1.80557 0.923422 0
M  V30 3166 C 301.633 -1.86298 -0.548337 0
M  V30 3167 O 300.908 -1.34354 -1.40639 0
M  V30 3168 C 301.191 -3.25839 1.53299 0
M  V30 3169 C 301.044 -3.28269 3.07505 0
M  V30 3170 C 302.363 -4.22991 1.21518 0
M  V30 3171 H 299.482 -0.655493 0.336894 0
M  V30 3172 H 302.124 -1.26144 1.42083 0
M  V30 3173 H 300.274 -3.72306 1.10999 0
M  V30 3174 H 301.946 -2.90079 3.58681 0
M  V30 3175 H 300.189 -2.67355 3.4162 0
M  V30 3176 H 300.86 -4.30691 3.45266 0
M  V30 3177 H 303.336 -3.84894 1.581 0
M  V30 3178 H 302.212 -5.22945 1.66793 0
M  V30 3179 H 302.473 -4.41904 0.131505 0
M  V30 3180 N 301.532 -0.945985 -1.26051 0
M  V30 3181 C 302.778 -0.597002 -1.93814 0
M  V30 3182 C 303.111 0.862484 -1.73997 0
M  V30 3183 O 302.386 1.61769 -1.07986 0
M  V30 3184 C 302.669 -0.945937 -3.47454 0
M  V30 3185 C 302.522 -2.46052 -3.76535 0
M  V30 3186 C 303.841 -0.464785 -4.37639 0
M  V30 3187 H 300.96 -0.218366 -0.703907 0
M  V30 3188 H 303.602 -1.18107 -1.48831 0
M  V30 3189 H 301.752 -0.448902 -3.85898 0
M  V30 3190 H 303.424 -3.03065 -3.47778 0
M  V30 3191 H 301.667 -2.90194 -3.22444 0
M  V30 3192 H 302.338 -2.65517 -4.83947 0
M  V30 3193 H 304.814 -0.891016 -4.06448 0
M  V30 3194 H 303.69 -0.737712 -5.4392 0
M  V30 3195 H 303.951 0.635274 -4.37512 0
M  V30 3196 N 303.011 1.40521 -0.713556 0
M  V30 3197 C 303.941 2.33381 -0.0743864 0
M  V30 3198 C 304.922 1.52784 0.747735 0
M  V30 3199 O 306.107 1.81258 0.697071 0
M  V30 3200 C 303.237 3.36748 0.849598 0
M  V30 3201 C 302.191 4.27793 0.133247 0
M  V30 3202 C 301.517 5.21679 1.17281 0
M  V30 3203 C 302.817 5.12415 -1.01134 0
M  V30 3204 H 304.511 2.87081 -0.850007 0
M  V30 3205 H 302.057 1.38034 -0.410201 0
M  V30 3206 H 304.01 4.00648 1.30612 0
M  V30 3207 H 302.734 2.81439 1.65709 0
M  V30 3208 H 301.393 3.65342 -0.303426 0
M  V30 3209 H 301.041 4.62677 1.9733 0
M  V30 3210 H 300.741 5.83435 0.698397 0
M  V30 3211 H 302.265 5.88456 1.62947 0
M  V30 3212 H 303.679 5.69781 -0.634274 0
M  V30 3213 H 302.076 5.83203 -1.41399 0
M  V30 3214 H 303.146 4.48514 -1.84292 0
M  V30 3215 N 304.489 0.459591 1.5075 0
M  V30 3216 C 305.452 -0.329093 2.26825 0
M  V30 3217 C 306.452 -0.930481 1.31144 0
M  V30 3218 O 307.642 -0.801453 1.54669 0
M  V30 3219 C 304.774 -1.46768 3.07688 0
M  V30 3220 H 305.967 0.337924 2.9799 0
M  V30 3221 H 303.52 0.213336 1.54837 0
M  V30 3222 H 304.255 -2.17009 2.40993 0
M  V30 3223 H 304.04 -1.04238 3.77991 0
M  V30 3224 H 305.53 -2.02433 3.65254 0
M  V30 3225 N 305.967 -1.56429 0.191757 0
M  V30 3226 C 307.383 -1.58754 -0.164137 0
M  V30 3227 C 307.583 -1.20782 -1.61288 0
M  V30 3228 O 306.639 -0.928999 -2.34789 0
M  V30 3229 C 307.952 -3.00396 0.135195 0
M  V30 3230 C 309.5 -3.1291 0.0750351 0
M  V30 3231 C 309.975 -4.56679 0.347632 0
M  V30 3232 N 311.466 -4.62252 0.296131 0
M  V30 3233 C 312.201 -5.71379 0.480948 0
M  V30 3234 N 311.697 -6.88986 0.725933 0
M  V30 3235 N 313.49 -5.60563 0.415435 0
M  V30 3236 H 305.641 -1.79393 1.13718 0
M  V30 3237 H 307.904 -0.832414 0.453643 0
M  V30 3238 H 307.61 -3.32726 1.13958 0
M  V30 3239 H 307.484 -3.72963 -0.563773 0
M  V30 3240 H 309.871 -2.80394 -0.919948 0
M  V30 3241 H 309.952 -2.42736 0.807029 0
M  V30 3242 H 309.596 -4.89907 1.33992 0
M  V30 3243 H 309.526 -5.25039 -0.405212 0
M  V30 3244 H 312.017 -3.7773 0.113259 0
M  V30 3245 H 312.33 -7.68046 0.855857 0
M  V30 3246 H 310.675 -6.90801 0.762788 0
M  V30 3247 H 313.866 -4.67561 0.224486 0
M  V30 3248 H 314.039 -6.45551 0.562889 0
M  V30 3249 N 307.445 0.0818655 -1.57387 0
M  V30 3250 C 308.693 0.781368 -1.86384 0
M  V30 3251 C 309.014 1.78618 -0.782342 0
M  V30 3252 O 308.284 1.94976 0.190061 0
M  V30 3253 H 306.864 0.291562 -0.687751 0
M  V30 3254 H 309.526 0.060348 -1.94807 0
M  V30 3255 H 308.622 1.3038 -2.83562 0
M  V30 3256 N 308.923 1.53595 0.353017 0
M  V30 3257 C 310.169 1.70638 1.09593 0
M  V30 3258 C 310.502 0.463286 1.88593 0
M  V30 3259 O 309.777 -0.539597 1.86865 0
M  V30 3260 C 310.06 2.96406 2.04489 0
M  V30 3261 C 309.913 4.30901 1.29014 0
M  V30 3262 C 311.232 3.17812 3.0444 0
M  V30 3263 H 308.351 0.620913 0.397034 0
M  V30 3264 H 310.993 1.86254 0.375446 0
M  V30 3265 H 309.143 2.83223 2.65927 0
M  V30 3266 H 310.815 4.55917 0.702638 0
M  V30 3267 H 309.058 4.29741 0.592071 0
M  V30 3268 H 309.729 5.1506 1.98537 0
M  V30 3269 H 312.205 3.30263 2.53112 0
M  V30 3270 H 311.081 4.07223 3.6805 0
M  V30 3271 H 311.342 2.33669 3.75301 0
M  V30 3272 N 310.401 -0.613514 1.45168 0
M  V30 3273 C 311.334 -1.73809 1.47871 0
M  V30 3274 C 312.312 -1.59097 0.33568 0
M  V30 3275 O 313.496 -1.8074 0.535299 0
M  V30 3276 C 310.623 -3.11574 1.32813 0
M  V30 3277 C 309.669 -3.4489 2.50905 0
M  V30 3278 S 310.502 -3.40393 4.13392 0
M  V30 3279 C 311.658 -4.80749 4.00789 0
M  V30 3280 H 311.891 -1.71252 2.43023 0
M  V30 3281 H 309.424 -0.789658 1.32679 0
M  V30 3282 H 311.382 -3.91065 1.24812 0
M  V30 3283 H 310.043 -3.11652 0.391418 0
M  V30 3284 H 309.236 -4.45183 2.36279 0
M  V30 3285 H 308.838 -2.72901 2.55736 0
M  V30 3286 H 311.13 -5.7041 3.65567 0
M  V30 3287 H 312.073 -5.00431 5.00974 0
M  V30 3288 H 312.481 -4.56151 3.32545 0
M  V30 3289 N 311.879 -1.3236 -0.855495 0
M  V30 3290 C 312.809 -1.23833 -1.97958 0
M  V30 3291 C 313.79 -0.122361 -1.69659 0
M  V30 3292 O 314.975 -0.30939 -1.9172 0
M  V30 3293 C 312.105 -0.959772 -3.33775 0
M  V30 3294 C 311.059 -2.03689 -3.76424 0
M  V30 3295 C 310.385 -1.61075 -5.09862 0
M  V30 3296 C 311.685 -3.4518 -3.9198 0
M  V30 3297 H 313.379 -2.1788 -2.0535 0
M  V30 3298 H 310.925 -1.04891 -0.986605 0
M  V30 3299 H 312.878 -0.886678 -4.11966 0
M  V30 3300 H 311.602 0.0163404 -3.26596 0
M  V30 3301 H 310.261 -2.10012 -3.00484 0
M  V30 3302 H 309.909 -0.622107 -4.99138 0
M  V30 3303 H 309.609 -2.33143 -5.39368 0
M  V30 3304 H 311.133 -1.55201 -5.90546 0
M  V30 3305 H 312.547 -3.4145 -4.60526 0
M  V30 3306 H 310.944 -4.1559 -4.32903 0
M  V30 3307 H 312.014 -3.84903 -2.94919 0
M  V30 3308 N 313.357 1.07166 -1.15556 0
M  V30 3309 C 314.603 1.80065 -0.932984 0
M  V30 3310 C 314.936 1.86586 0.53845 0
M  V30 3311 O 314.211 1.35098 1.39924 0
M  V30 3312 C 314.494 3.25022 -1.55025 0
M  V30 3313 C 314.347 3.26634 -3.09242 0
M  V30 3314 C 315.666 4.22341 -1.2376 0
M  V30 3315 H 312.785 0.653697 -0.340366 0
M  V30 3316 H 315.427 1.25389 -1.4275 0
M  V30 3317 H 313.577 3.71712 -1.12972 0
M  V30 3318 H 315.249 2.88173 -3.60214 0
M  V30 3319 H 313.492 2.65539 -3.43033 0
M  V30 3320 H 314.163 4.28854 -3.47546 0
M  V30 3321 H 316.639 3.8405 -1.60139 0
M  V30 3322 H 315.515 5.22053 -1.69564 0
M  V30 3323 H 315.776 4.41828 -0.154938 0
M  V30 3324 N 314.835 0.952656 1.25548 0
M  V30 3325 C 316.083 0.605176 1.92826 0
M  V30 3326 C 316.404 -0.860261 1.74999 0
M  V30 3327 O 315.674 -1.6125 1.11244 0
M  V30 3328 H 314.254 0.220832 0.713612 0
M  V30 3329 H 316.916 1.21047 1.52754 0
M  V30 3330 H 316.012 0.832798 3.00784 0
M  V30 3331 N 316.313 -1.40141 0.720998 0
M  V30 3332 C 317.561 -2.0039 0.262323 0
M  V30 3333 C 317.882 -1.57469 -1.15015 0
M  V30 3334 O 317.152 -0.816582 -1.78069 0
M  V30 3335 H 315.732 -0.741063 0.093996 0
M  V30 3336 H 318.394 -1.71398 0.927835 0
M  V30 3337 H 317.49 -3.10658 0.299671 0
M  V30 3338 N 317.792 -0.46758 -1.50504 0
M  V30 3339 C 319.203 -0.0116166 -1.86696 0
M  V30 3340 C 319.554 1.39202 -1.38265 0
M  V30 3341 O 318.679 2.0313 -0.746132 0
M  V30 3342 C 319.274 -0.0143044 -3.38797 0
M  V30 3343 C 317.833 0.386175 -3.74414 0
M  V30 3344 C 316.98 -0.401287 -2.74381 0
M  V30 3345 H 319.931 -0.682022 -1.43297 0
M  V30 3346 H 319.952 0.788641 -3.72237 0
M  V30 3347 H 319.464 -1.03602 -3.74016 0
M  V30 3348 H 317.565 1.41237 -3.44794 0
M  V30 3349 H 317.678 0.0899596 -4.79016 0
M  V30 3350 H 316.042 0.144536 -2.5429 0
M  V30 3351 H 316.825 -1.42244 -3.12444 0
M  V30 3352 N 319.27 1.56325 -0.20005 0
M  V30 3353 C 320.686 1.58839 0.155716 0
M  V30 3354 C 320.886 1.21636 1.60645 0
M  V30 3355 O 319.942 0.941437 2.34293 0
M  V30 3356 C 321.255 3.0032 -0.151124 0
M  V30 3357 C 322.803 3.12866 -0.0916284 0
M  V30 3358 C 323.278 4.56488 -0.371845 0
M  V30 3359 N 324.769 4.62089 -0.320641 0
M  V30 3360 C 325.504 5.71116 -0.511243 0
M  V30 3361 N 325 6.88592 -0.762461 0
M  V30 3362 N 326.793 5.60335 -0.445157 0
M  V30 3363 H 318.944 1.78788 -1.14668 0
M  V30 3364 H 321.207 0.829996 -0.458051 0
M  V30 3365 H 320.913 3.32117 -1.15721 0
M  V30 3366 H 320.787 3.73257 0.543986 0
M  V30 3367 H 323.174 2.80878 0.905065 0
M  V30 3368 H 323.255 2.42304 -0.81989 0
M  V30 3369 H 322.899 4.89189 -1.36588 0
M  V30 3370 H 322.829 5.25246 0.377362 0
M  V30 3371 H 325.32 3.77665 -0.13329 0
M  V30 3372 H 325.633 7.67581 -0.896576 0
M  V30 3373 H 323.978 6.90387 -0.799412 0
M  V30 3374 H 327.169 4.67436 -0.249278 0
M  V30 3375 H 327.342 6.45243 -0.597116 0
M  V30 3376 N 320.748 -0.0735177 1.57428 0
M  V30 3377 C 321.68 -1.11423 2.00294 0
M  V30 3378 C 322.693 -1.35084 0.908637 0
M  V30 3379 O 323.882 -1.33355 1.18654 0
M  V30 3380 C 320.982 -2.46548 2.32523 0
M  V30 3381 C 320.155 -2.42867 3.63778 0
M  V30 3382 C 319.214 -3.60087 3.83697 0
M  V30 3383 O 318.24 -3.41595 4.55304 0
M  V30 3384 N 319.442 -4.80372 3.25919 0
M  V30 3385 H 322.207 -0.749206 2.90184 0
M  V30 3386 H 319.768 -0.262195 1.59763 0
M  V30 3387 H 321.76 -3.23607 2.43024 0
M  V30 3388 H 320.33 -2.75059 1.48531 0
M  V30 3389 H 319.55 -1.51206 3.64047 0
M  V30 3390 H 320.838 -2.37506 4.49965 0
M  V30 3391 H 320.236 -4.983 2.67795 0
M  V30 3392 H 318.793 -5.54948 3.41871 0
M  V30 3393 N 322.226 -1.5378 -0.344866 0
M  V30 3394 C 323.472 -1.71216 -1.08687 0
M  V30 3395 C 323.805 -0.473281 -1.88345 0
M  V30 3396 O 323.08 0.52968 -1.87149 0
M  V30 3397 C 323.363 -2.97486 -2.02914 0
M  V30 3398 C 323.216 -4.31579 -1.26727 0
M  V30 3399 C 324.535 -3.19422 -3.0275 0
M  V30 3400 H 321.654 -0.62301 -0.393735 0
M  V30 3401 H 324.296 -1.8645 -0.365563 0
M  V30 3402 H 322.446 -2.84629 -2.64421 0
M  V30 3403 H 324.118 -4.56284 -0.67845 0
M  V30 3404 H 322.361 -4.30049 -0.569273 0
M  V30 3405 H 323.032 -5.16106 -1.95803 0
M  V30 3406 H 325.508 -3.316 -2.51357 0
M  V30 3407 H 324.384 -4.09169 -3.65885 0
M  V30 3408 H 324.645 -2.35656 -3.74057 0
M  V30 3409 N 323.704 0.605807 -1.45491 0
M  V30 3410 C 324.634 1.72709 -1.57143 0
M  V30 3411 C 325.615 1.6476 -0.422884 0
M  V30 3412 O 326.8 1.83132 -0.646247 0
M  V30 3413 C 323.93 3.11316 -1.53948 0
M  V30 3414 C 322.884 3.34077 -2.67537 0
M  V30 3415 C 322.21 4.72975 -2.49397 0
M  V30 3416 C 323.51 3.24158 -4.09535 0
M  V30 3417 H 325.204 1.63214 -2.51001 0
M  V30 3418 H 322.75 0.78379 -1.208 0
M  V30 3419 H 324.703 3.89557 -1.60696 0
M  V30 3420 H 323.427 3.21655 -0.566205 0
M  V30 3421 H 322.086 2.58227 -2.6022 0
M  V30 3422 H 321.734 4.8005 -1.50205 0
M  V30 3423 H 321.434 4.8916 -3.25571 0
M  V30 3424 H 322.958 5.53414 -2.58002 0
M  V30 3425 H 324.372 3.92271 -4.18086 0
M  V30 3426 H 322.769 3.51872 -4.86113 0
M  V30 3427 H 323.839 2.2157 -4.31317 0
M  V30 3428 N 325.182 1.32811 0.848464 0
M  V30 3429 C 326.41 1.26739 1.63538 0
M  V30 3430 C 326.825 -0.163484 1.88091 0
M  V30 3431 O 326.182 -1.10258 1.45429 0
M  V30 3432 C 326.233 2.03013 2.99112 0
M  V30 3433 O 325.954 3.40518 2.75643 0
M  V30 3434 C 327.455 2.04038 3.93552 0
M  V30 3435 H 324.675 0.437024 0.509167 0
M  V30 3436 H 327.219 1.75033 1.05753 0
M  V30 3437 H 325.374 1.58426 3.53525 0
M  V30 3438 H 325.788 3.79635 3.61908 0
M  V30 3439 H 327.262 2.61877 4.85926 0
M  V30 3440 H 327.739 1.0282 4.26995 0
M  V30 3441 H 328.345 2.486 3.45077 0
M  V30 3442 N 326.66 -1.06551 1.16123 0
M  V30 3443 C 327.59 -2.15935 0.88851 0
M  V30 3444 C 328.571 -1.69306 -0.164135 0
M  V30 3445 O 329.756 -1.94193 -0.0167857 0
M  V30 3446 C 326.886 -3.45149 0.385942 0
M  V30 3447 C 325.84 -4.05271 1.3762 0
M  V30 3448 C 325.166 -5.29664 0.732137 0
M  V30 3449 C 326.466 -4.44355 2.74493 0
M  V30 3450 H 328.16 -2.39006 1.80323 0
M  V30 3451 H 325.706 -1.14866 0.868435 0
M  V30 3452 H 327.659 -4.21004 0.182647 0
M  V30 3453 H 326.383 -3.21689 -0.564274 0
M  V30 3454 H 325.042 -3.3147 1.56599 0
M  V30 3455 H 324.69 -5.02499 -0.224483 0
M  V30 3456 H 324.39 -5.70848 1.39307 0
M  V30 3457 H 325.914 -6.08218 0.538802 0
M  V30 3458 H 327.328 -5.11303 2.59311 0
M  V30 3459 H 325.725 -4.96515 3.37035 0
M  V30 3460 H 326.795 -3.55339 3.29943 0
M  V30 3461 N 328.138 -0.959301 -1.25041 0
M  V30 3462 C 329.101 -0.487677 -2.23952 0
M  V30 3463 C 330.101 0.41119 -1.55454 0
M  V30 3464 O 331.291 0.207825 -1.72956 0
M  V30 3465 C 328.423 0.294807 -3.39623 0
M  V30 3466 H 329.616 -1.36198 -2.67189 0
M  V30 3467 H 327.169 -0.743042 -1.37508 0
M  V30 3468 H 327.904 1.18658 -3.01813 0
M  V30 3469 H 327.689 -0.35012 -3.90534 0
M  V30 3470 H 329.179 0.614089 -4.1306 0
M  V30 3471 N 329.616 1.39756 -0.72842 0
M  V30 3472 C 330.548 2.29157 -0.0446202 0
M  V30 3473 C 331.561 1.46484 0.710367 0
M  V30 3474 O 332.75 1.69632 0.55562 0
M  V30 3475 C 329.85 3.24987 0.961071 0
M  V30 3476 C 329.023 4.36572 0.268967 0
M  V30 3477 C 328.082 5.12756 1.18184 0
M  V30 3478 O 327.108 5.6534 0.661794 0
M  V30 3479 N 328.31 5.23331 2.51206 0
M  V30 3480 H 331.075 2.88482 -0.812295 0
M  V30 3481 H 328.636 1.51265 -0.577098 0
M  V30 3482 H 330.628 3.72827 1.57423 0
M  V30 3483 H 329.198 2.66739 1.63 0
M  V30 3484 H 328.418 3.90694 -0.524574 0
M  V30 3485 H 329.706 5.08363 -0.210934 0
M  V30 3486 H 329.104 4.82116 2.9594 0
M  V30 3487 H 327.661 5.74634 3.07634 0
M  V30 3488 N 331.094 0.475555 1.50254 0
M  V30 3489 C 332.042 -0.330276 2.30243 0
M  V30 3490 C 333.036 -0.986306 1.37726 0
M  V30 3491 O 334.242 -0.9169 1.54897 0
M  V30 3492 H 330.617 -0.125353 0.741479 0
M  V30 3493 H 332.588 0.364702 2.96163 0
M  V30 3494 C 331.337 -1.39704 3.18399 0
M  V30 3495 H 330.66 -0.901621 3.89501 0
M  V30 3496 H 332.1 -1.93336 3.77355 0
M  V30 3497 C 330.559 -2.4014 2.36293 0
M  V30 3498 O 331.089 -3.45504 2.04914 0
M  V30 3499 N 329.295 -2.1197 1.98789 0
M  V30 3500 H 328.842 -1.2631 2.24507 0
M  V30 3501 H 328.8 -2.79403 1.44157 0
M  V30 3502 N 332.573 -1.56217 0.208337 0
M  V30 3503 C 333.523 -2.16324 -0.720281 0
M  V30 3504 C 334.507 -1.10775 -1.16695 0
M  V30 3505 O 335.699 -1.36801 -1.12314 0
M  V30 3506 C 332.828 -2.83644 -1.93393 0
M  V30 3507 C 331.914 -3.96401 -1.50755 0
M  V30 3508 N 332.305 -4.99546 -0.792937 0
M  V30 3509 C 330.603 -4.08246 -1.79585 0
M  V30 3510 C 331.304 -5.78828 -0.577364 0
M  V30 3511 N 330.28 -5.31723 -1.1301 0
M  V30 3512 H 334.082 -2.93432 -0.165725 0
M  V30 3513 H 331.596 -1.62397 0.00906463 0
M  V30 3514 H 333.593 -3.25107 -2.60981 0
M  V30 3515 H 332.253 -2.08027 -2.49308 0
M  V30 3516 H 333.264 -5.15967 -0.447004 0
M  V30 3517 H 329.941 -3.4377 -2.36915 0
M  V30 3518 H 331.331 -6.71899 -0.00952956 0
M  V30 3519 N 334.051 0.0651679 -1.57465 0
M  V30 3520 C 335.276 0.779605 -1.9219 0
M  V30 3521 C 335.701 1.69988 -0.805333 0
M  V30 3522 O 335.059 1.79685 0.241435 0
M  V30 3523 C 335.107 1.54364 -3.2589 0
M  V30 3524 O 334.211 2.65474 -3.1559 0
M  V30 3525 H 333.552 0.212249 -0.629163 0
M  V30 3526 H 336.082 0.0314294 -2.04576 0
M  V30 3527 H 336.092 1.92146 -3.59922 0
M  V30 3528 H 334.767 0.868457 -4.06732 0
M  V30 3529 H 333.344 2.30501 -2.93128 0
M  V30 3530 N 335.529 1.53961 0.336706 0
M  V30 3531 C 336.945 1.44378 0.680241 0
M  V30 3532 C 337.145 0.606034 1.9217 0
M  V30 3533 O 336.201 0.099688 2.52303 0
M  V30 3534 C 337.514 2.87945 0.8665 0
M  V30 3535 C 339.062 2.97763 0.964682 0
M  V30 3536 C 339.537 4.42453 1.18321 0
M  V30 3537 N 341.028 4.46008 1.25025 0
M  V30 3538 C 341.763 5.55102 1.43697 0
M  V30 3539 N 341.259 6.7419 1.59498 0
M  V30 3540 N 343.052 5.42727 1.463 0
M  V30 3541 H 335.203 2.06918 -0.479455 0
M  V30 3542 H 337.466 0.935634 -0.152619 0
M  V30 3543 H 337.172 3.51691 0.0256937 0
M  V30 3544 H 337.046 3.33293 1.76623 0
M  V30 3545 H 339.433 2.34153 1.796 0
M  V30 3546 H 339.514 2.55766 0.041708 0
M  V30 3547 H 339.158 5.06645 0.356788 0
M  V30 3548 H 339.088 4.82048 2.11985 0
M  V30 3549 H 341.579 3.60196 1.14312 0
M  V30 3550 H 341.892 7.53095 1.734 0
M  V30 3551 H 340.237 6.77123 1.56621 0
M  V30 3552 H 343.428 4.48647 1.33543 0
M  V30 3553 H 343.601 6.27806 1.6051 0
M  V30 3554 N 337.007 -0.598083 1.45811 0
M  V30 3555 C 338.256 -1.35295 1.49594 0
M  V30 3556 C 338.569 -1.95057 0.145679 0
M  V30 3557 O 339.775 -2.71431 0.0612099 0
M  V30 3558 C 338.231 -2.45124 2.63519 0
M  V30 3559 C 337.839 -1.91732 4.04899 0
M  V30 3560 C 339.583 -3.2205 2.76558 0
M  V30 3561 C 337.49 -2.991 5.1019 0
M  V30 3562 H 336.42 -0.508552 0.556679 0
M  V30 3563 H 339.071 -0.639977 1.71978 0
M  V30 3564 H 337.453 -3.19149 2.34435 0
M  V30 3565 H 338.627 -1.24352 4.43704 0
M  V30 3566 H 336.942 -1.27522 3.96393 0
M  V30 3567 H 339.539 -4.0215 3.52391 0
M  V30 3568 H 339.882 -3.73663 1.83526 0
M  V30 3569 H 340.415 -2.55127 3.05213 0
M  V30 3570 H 337.154 -2.52393 6.04961 0
M  V30 3571 H 336.674 -3.65017 4.75944 0
M  V30 3572 H 338.353 -3.63318 5.35359 0
M  V30 3573 N 338.485 -1.33259 -0.841409 0
M  V30 3574 C 339.433 -1.23279 -1.97244 0
M  V30 3575 C 340.427 -0.134706 -1.68864 0
M  V30 3576 O 341.633 -0.298501 -1.77508 0
M  V30 3577 H 338.008 -0.382497 -0.647457 0
M  V30 3578 H 339.979 -2.18906 -2.02787 0
M  V30 3579 C 338.728 -0.986268 -3.33419 0
M  V30 3580 H 338.051 -1.82347 -3.55794 0
M  V30 3581 H 339.491 -0.956728 -4.13065 0
M  V30 3582 C 337.95 0.310842 -3.35463 0
M  V30 3583 O 338.48 1.31838 -3.79449 0
M  V30 3584 N 336.686 0.337485 -2.88634 0
M  V30 3585 H 336.233 -0.482967 -2.53032 0
M  V30 3586 H 336.191 1.20518 -2.90384 0
M  V30 3587 N 339.963 1.05934 -1.16686 0
M  V30 3588 C 340.893 2.1546 -0.899949 0
M  V30 3589 C 341.874 1.69391 0.155154 0
M  V30 3590 O 343.059 1.94199 0.00648693 0
M  V30 3591 C 340.189 3.44939 -0.404241 0
M  V30 3592 C 339.143 4.04536 -1.39767 0
M  V30 3593 C 338.469 5.29268 -0.760216 0
M  V30 3594 C 339.769 4.42893 -2.76845 0
M  V30 3595 H 341.463 2.38046 -1.81588 0
M  V30 3596 H 339.009 1.14404 -0.874514 0
M  V30 3597 H 340.962 4.20901 -0.204971 0
M  V30 3598 H 339.686 3.21983 0.547206 0
M  V30 3599 H 338.345 3.30635 -1.58355 0
M  V30 3600 H 337.993 5.02611 0.197831 0
M  V30 3601 H 337.693 5.70101 -1.42332 0
M  V30 3602 H 339.217 6.07924 -0.57105 0
M  V30 3603 H 340.631 5.09921 -2.62019 0
M  V30 3604 H 339.028 4.94721 -3.39663 0
M  V30 3605 H 340.098 3.53584 -3.31823 0
M  V30 3606 N 341.441 0.965919 1.2453 0
M  V30 3607 C 342.374 0.4393 2.23932 0
M  V30 3608 C 343.352 -0.485615 1.55179 0
M  V30 3609 O 344.536 -0.417402 1.83821 0
M  V30 3610 C 341.663 -0.366042 3.36716 0
M  V30 3611 C 340.709 0.5009 4.23548 0
M  V30 3612 S 341.542 1.94002 4.99123 0
M  V30 3613 C 342.698 1.14342 6.15367 0
M  V30 3614 H 342.931 1.28167 2.68254 0
M  V30 3615 H 340.464 0.770819 1.33782 0
M  V30 3616 H 342.422 -0.824724 4.0213 0
M  V30 3617 H 341.083 -1.18337 2.90956 0
M  V30 3618 H 340.276 -0.117341 5.03863 0
M  V30 3619 H 339.878 0.89524 3.63127 0
M  V30 3620 H 342.17 0.397572 6.76332 0
M  V30 3621 H 343.113 1.92089 6.81548 0
M  V30 3622 H 343.521 0.668579 5.60527 0
M  V30 3623 N 342.919 -1.39368 0.735821 0
M  V30 3624 C 344.196 -1.94465 0.210395 0
M  V30 3625 C 344.576 -1.67254 -1.28799 0
M  V30 3626 O 343.924 -1.00123 -2.05396 0
M  V30 3627 C 344.134 -3.4472 0.544897 0
M  V30 3628 C 345.482 -4.21708 0.494689 0
M  V30 3629 O 346.506 -3.52922 0.482136 0
M  V30 3630 O 345.365 -5.44299 0.489947 0
M  V30 3631 H 342.459 -0.826096 0.0386666 0
M  V30 3632 H 345.005 -1.48863 0.814735 0
M  V30 3633 H 343.777 -3.57963 1.58045 0
M  V30 3634 H 343.4 -3.97502 -0.08837 0
M  V30 3635 N 344.397 -0.483516 -1.5 0
M  V30 3636 C 345.644 0.0671597 -2.02389 0
M  V30 3637 C 345.972 1.38597 -1.36459 0
M  V30 3638 O 345.227 1.89634 -0.483458 0
M  V30 3639 C 345.526 0.286226 -3.56252 0
M  V30 3640 C 345.192 -0.952416 -4.40726 0
M  V30 3641 C 343.854 -1.29199 -4.63531 0
M  V30 3642 C 346.206 -1.77655 -4.89988 0
M  V30 3643 C 343.534 -2.45553 -5.32842 0
M  V30 3644 C 345.886 -2.93147 -5.60578 0
M  V30 3645 C 344.55 -3.27505 -5.81633 0
M  V30 3646 H 343.82 0.0245755 -0.740592 0
M  V30 3647 H 346.467 -0.640124 -1.80485 0
M  V30 3648 H 344.772 1.07587 -3.76739 0
M  V30 3649 H 346.469 0.726473 -3.94365 0
M  V30 3650 H 343.059 -0.677881 -4.23205 0
M  V30 3651 H 347.243 -1.52737 -4.72213 0
M  V30 3652 H 342.499 -2.72431 -5.47349 0
M  V30 3653 H 346.673 -3.57344 -5.97727 0
M  V30 3654 H 344.3 -4.1777 -6.35116 0
M  V30 3655 N 345.875 1.56104 -0.216619 0
M  V30 3656 C 346.823 2.21434 0.712036 0
M  V30 3657 C 347.817 1.19218 1.20348 0
M  V30 3658 O 349.023 1.3731 1.16387 0
M  V30 3659 H 345.398 0.70992 0.248026 0
M  V30 3660 H 347.369 2.98083 0.137558 0
M  V30 3661 C 346.118 2.90434 1.91163 0
M  V30 3662 H 345.441 3.68842 1.54258 0
M  V30 3663 H 346.881 3.39552 2.5393 0
M  V30 3664 C 345.34 1.92635 2.76394 0
M  V30 3665 O 345.87 1.44017 3.74996 0
M  V30 3666 N 344.076 1.60392 2.42328 0
M  V30 3667 H 343.623 2.00122 1.622 0
M  V30 3668 H 343.581 0.952159 2.99635 0
M  V30 3669 N 347.353 -0.0568162 1.57498 0
M  V30 3670 C 348.764 -0.606858 1.76562 0
M  V30 3671 C 349.115 -1.77114 0.844094 0
M  V30 3672 O 348.24 -2.16376 0.0318911 0
M  V30 3673 C 348.835 -1.10766 3.20182 0
M  V30 3674 C 347.394 -1.60344 3.40539 0
M  V30 3675 C 346.541 -0.529311 2.72201 0
M  V30 3676 H 349.492 0.169393 1.57793 0
M  V30 3677 H 349.513 -1.97602 3.25167 0
M  V30 3678 H 349.025 -0.26006 3.87228 0
M  V30 3679 H 347.126 -2.47379 2.78629 0
M  V30 3680 H 347.239 -1.67006 4.4905 0
M  V30 3681 H 345.603 -0.977893 2.35179 0
M  V30 3682 H 346.386 0.308352 3.41912 0
M  V30 3683 N 348.832 -1.54138 -0.328536 0
M  V30 3684 C 350.109 -1.62749 -1.08499 0
M  V30 3685 C 350.489 -0.458198 -2.06067 0
M  V30 3686 O 349.837 0.548046 -2.2183 0
M  V30 3687 C 350.047 -2.99519 -1.79135 0
M  V30 3688 C 351.395 -3.55394 -2.32337 0
M  V30 3689 O 352.419 -3.01792 -1.89209 0
M  V30 3690 O 351.278 -4.49186 -3.11279 0
M  V30 3691 H 348.372 -0.65886 -0.499832 0
M  V30 3692 H 350.918 -1.66484 -0.328826 0
M  V30 3693 H 349.69 -3.76061 -1.08139 0
M  V30 3694 H 349.313 -2.99441 -2.61574 0
M  V30 3695 N 350.31 0.590341 -1.46126 0
M  V30 3696 C 351.721 1.17243 -1.45296 0
M  V30 3697 C 352.072 1.95281 -0.189723 0
M  V30 3698 O 351.197 2.04502 0.707674 0
M  V30 3699 C 351.792 2.13284 -2.6324 0
M  V30 3700 C 350.351 2.66832 -2.65476 0
M  V30 3701 C 349.498 1.42557 -2.3785 0
M  V30 3702 H 352.449 0.378692 -1.54116 0
M  V30 3703 H 352.47 2.96619 -2.38323 0
M  V30 3704 H 351.982 1.56459 -3.55165 0
M  V30 3705 H 350.083 3.27548 -1.77603 0
M  V30 3706 H 350.196 3.10088 -3.65215 0
M  V30 3707 H 348.56 1.72107 -1.87753 0
M  V30 3708 H 349.343 0.875741 -3.31942 0
M  V30 3709 N 351.788 1.33704 0.83433 0
M  V30 3710 C 353.204 1.13137 1.12571 0
M  V30 3711 C 353.404 -0.0747261 2.01361 0
M  V30 3712 O 352.46 -0.753647 2.4099 0
M  V30 3713 C 353.773 2.42105 1.78342 0
M  V30 3714 C 355.321 2.48054 1.90888 0
M  V30 3715 C 355.796 3.76995 2.60075 0
M  V30 3716 N 357.287 3.78092 2.67584 0
M  V30 3717 C 358.022 4.74574 3.21818 0
M  V30 3718 N 357.518 5.81434 3.76705 0
M  V30 3719 N 359.311 4.62044 3.20112 0
M  V30 3720 H 351.462 2.11 0.243489 0
M  V30 3721 H 353.725 0.932532 0.17055 0
M  V30 3722 H 353.431 3.30391 1.20561 0
M  V30 3723 H 353.305 2.54594 2.7832 0
M  V30 3724 H 355.692 1.60215 2.47821 0
M  V30 3725 H 355.773 2.39502 0.898459 0
M  V30 3726 H 355.417 4.65219 2.03799 0
M  V30 3727 H 355.347 3.82825 3.61597 0
M  V30 3728 H 357.838 3.00865 2.28667 0
M  V30 3729 H 358.151 6.51084 4.16305 0
M  V30 3730 H 356.496 5.85163 3.7498 0
M  V30 3731 H 359.687 3.77716 2.76493 0
M  V30 3732 H 359.86 5.37406 3.62076 0
M  V30 3733 N 353.266 -1.05314 1.17247 0
M  V30 3734 C 354.491 -1.82509 0.985148 0
M  V30 3735 C 354.916 -1.82343 -0.461788 0
M  V30 3736 O 354.274 -1.23151 -1.33055 0
M  V30 3737 C 354.322 -3.26566 1.52929 0
M  V30 3738 O 353.426 -4.05666 0.742225 0
M  V30 3739 H 352.767 -0.564347 0.349869 0
M  V30 3740 H 355.297 -1.32718 1.55715 0
M  V30 3741 H 355.307 -3.77369 1.55103 0
M  V30 3742 H 353.982 -3.26001 2.58256 0
M  V30 3743 H 352.559 -3.64397 0.791794 0
M  V30 3744 N 354.744 -0.972509 -1.24016 0
M  V30 3745 C 356.16 -0.679827 -1.44397 0
M  V30 3746 C 356.36 0.756716 -1.86751 0
M  V30 3747 O 355.416 1.53007 -2.00861 0
M  V30 3748 C 356.729 -1.66803 -2.50195 0
M  V30 3749 C 358.277 -1.68119 -2.64017 0
M  V30 3750 C 358.752 -2.65748 -3.73017 0
M  V30 3751 N 360.243 -2.64219 -3.8045 0
M  V30 3752 C 360.978 -3.36433 -4.64328 0
M  V30 3753 N 360.474 -4.1818 -5.52356 0
M  V30 3754 N 362.267 -3.25235 -4.58453 0
M  V30 3755 H 354.418 -1.90059 -0.948228 0
M  V30 3756 H 356.681 -0.818527 -0.478245 0
M  V30 3757 H 356.387 -2.69498 -2.25973 0
M  V30 3758 H 356.261 -1.4446 -3.48441 0
M  V30 3759 H 358.648 -0.661319 -2.87594 0
M  V30 3760 H 358.729 -1.94525 -1.66113 0
M  V30 3761 H 358.373 -3.67872 -3.50189 0
M  V30 3762 H 358.303 -2.36619 -4.70446 0
M  V30 3763 H 360.794 -2.04887 -3.17537 0
M  V30 3764 H 361.107 -4.70157 -6.13329 0
M  V30 3765 H 359.452 -4.22273 -5.52006 0
M  V30 3766 H 362.643 -2.60829 -3.88698 0
M  V30 3767 H 362.816 -3.81776 -5.23594 0
M  V30 3768 N 356.222 1.38976 -0.743202 0
M  V30 3769 C 357.452 2.04339 -0.304807 0
M  V30 3770 C 357.86 1.56162 1.06819 0
M  V30 3771 O 357.203 0.725284 1.68776 0
M  V30 3772 C 357.265 3.58716 -0.237369 0
M  V30 3773 C 356.929 4.29905 -1.55018 0
M  V30 3774 C 357.926 4.55987 -2.49744 0
M  V30 3775 C 355.611 4.68294 -1.81675 0
M  V30 3776 C 357.605 5.19478 -3.69353 0
M  V30 3777 C 355.292 5.31512 -3.0156 0
M  V30 3778 C 356.29 5.57037 -3.9522 0
M  V30 3779 O 355.978 6.18941 -5.12998 0
M  V30 3780 H 355.71 0.663439 -0.12971 0
M  V30 3781 H 358.264 1.78852 -1.01001 0
M  V30 3782 H 356.494 3.83133 0.524003 0
M  V30 3783 H 358.183 4.05543 0.170121 0
M  V30 3784 H 358.949 4.26767 -2.30423 0
M  V30 3785 H 354.828 4.47779 -1.09615 0
M  V30 3786 H 358.372 5.39318 -4.42473 0
M  V30 3787 H 354.269 5.60153 -3.20778 0
M  V30 3788 H 355.037 6.37433 -5.13441 0
M  V30 3789 N 357.7 0.491464 1.49741 0
M  V30 3790 C 358.928 -0.0535151 2.06831 0
M  V30 3791 C 359.343 -1.31683 1.35296 0
M  V30 3792 O 358.7 -1.77402 0.42836 0
M  V30 3793 C 358.751 -0.320835 3.60073 0
M  V30 3794 O 358.472 0.892394 4.28915 0
M  V30 3795 C 359.973 -0.910519 4.33848 0
M  V30 3796 H 357.193 0.0161909 0.670805 0
M  V30 3797 H 359.737 0.68609 1.92647 0
M  V30 3798 H 357.892 -1.0104 3.73991 0
M  V30 3799 H 358.306 0.649401 5.20464 0
M  V30 3800 H 359.78 -1.04721 5.41976 0
M  V30 3801 H 360.257 -1.90589 3.95692 0
M  V30 3802 H 360.863 -0.258712 4.24512 0
M  V30 3803 N 359.178 -1.55987 0.224894 0
M  V30 3804 C 360.425 -1.9839 -0.4059 0
M  V30 3805 C 360.753 -1.11261 -1.59535 0
M  V30 3806 O 360.008 -0.158314 -1.95059 0
M  V30 3807 C 360.307 -3.46394 -0.880106 0
M  V30 3808 C 359.973 -4.5046 0.19918 0
M  V30 3809 C 358.635 -4.7864 0.495661 0
M  V30 3810 C 360.987 -5.12855 0.928939 0
M  V30 3811 C 358.315 -5.66497 1.52636 0
M  V30 3812 C 360.667 -6.01828 1.949 0
M  V30 3813 C 359.331 -6.28351 2.25236 0
M  V30 3814 H 358.601 -0.725961 -0.148529 0
M  V30 3815 H 361.248 -1.88668 0.328113 0
M  V30 3816 H 359.553 -3.53337 -1.69294 0
M  V30 3817 H 361.25 -3.76577 -1.37808 0
M  V30 3818 H 357.84 -4.28579 -0.0420526 0
M  V30 3819 H 362.024 -4.9115 0.713129 0
M  V30 3820 H 357.28 -5.8531 1.76698 0
M  V30 3821 H 361.454 -6.49225 2.51951 0
M  V30 3822 H 359.081 -6.96226 3.05244 0
M  V30 3823 N 360.656 0.0484629 -1.57525 0
M  V30 3824 C 361.902 0.738854 -1.89506 0
M  V30 3825 C 362.257 1.73989 -0.821319 0
M  V30 3826 O 361.55 1.90825 0.172129 0
M  V30 3827 C 361.744 1.46632 -3.25935 0
M  V30 3828 C 361.573 0.537254 -4.46479 0
M  V30 3829 C 360.343 0.165484 -5.05029 0
M  V30 3830 C 362.541 -0.176085 -5.13998 0
M  V30 3831 N 360.523 -0.766868 -6.09091 0
M  V30 3832 C 361.894 -0.96478 -6.12448 0
M  V30 3833 C 363.949 -0.24509 -4.97296 0
M  V30 3834 C 362.652 -1.8161 -6.95996 0
M  V30 3835 C 364.678 -1.08347 -5.81391 0
M  V30 3836 C 364.04 -1.86014 -6.79395 0
M  V30 3837 H 360.139 0.245067 -0.742608 0
M  V30 3838 H 362.723 -0.000476161 -1.947 0
M  V30 3839 H 360.894 2.17623 -3.21706 0
M  V30 3840 H 362.626 2.10757 -3.45491 0
M  V30 3841 H 359.381 0.523466 -4.70698 0
M  V30 3842 H 359.805 -1.22698 -6.65788 0
M  V30 3843 H 364.447 0.341063 -4.21422 0
M  V30 3844 H 362.165 -2.41313 -7.71229 0
M  V30 3845 H 365.751 -1.14014 -5.70519 0
M  V30 3846 H 364.631 -2.4984 -7.43337 0
M  V30 3847 N 362.134 1.5431 0.320358 0
M  V30 3848 C 363.362 1.76636 1.07738 0
M  V30 3849 C 363.777 0.51649 1.81598 0
M  V30 3850 O 363.134 -0.512942 1.75143 0
M  V30 3851 C 363.185 2.96158 2.07299 0
M  V30 3852 O 362.906 4.16313 1.36438 0
M  V30 3853 C 364.407 3.3072 2.95193 0
M  V30 3854 H 361.627 0.589597 0.320339 0
M  V30 3855 H 364.171 2.01207 0.36551 0
M  V30 3856 H 362.326 2.73851 2.74016 0
M  V30 3857 H 362.74 4.83565 2.03138 0
M  V30 3858 H 364.214 4.17643 3.60941 0
M  V30 3859 H 364.691 2.48026 3.62463 0
M  V30 3860 H 365.297 3.55117 2.34034 0
M  V30 3861 N 363.613 -0.582584 1.46437 0
M  V30 3862 C 364.86 -1.34079 1.51753 0
M  V30 3863 C 365.188 -1.93762 0.169299 0
M  V30 3864 O 364.443 -1.76989 -0.835062 0
M  V30 3865 C 364.742 -2.48964 2.56421 0
M  V30 3866 C 364.408 -2.07273 4.00436 0
M  V30 3867 C 363.07 -1.95618 4.39644 0
M  V30 3868 C 365.422 -1.75111 4.90903 0
M  V30 3869 C 362.75 -1.5006 5.67185 0
M  V30 3870 C 365.102 -1.31032 6.18881 0
M  V30 3871 C 363.766 -1.17954 6.56996 0
M  V30 3872 H 363.036 -0.49063 0.555304 0
M  V30 3873 H 365.683 -0.656007 1.79913 0
M  V30 3874 H 363.988 -3.22889 2.21923 0
M  V30 3875 H 365.685 -3.07178 2.57765 0
M  V30 3876 H 362.275 -2.17279 3.69443 0
M  V30 3877 H 366.459 -1.83001 4.61329 0
M  V30 3878 H 361.715 -1.38577 5.95488 0
M  V30 3879 H 365.889 -1.052 6.88408 0
M  V30 3880 H 363.516 -0.824279 7.55718 0
M  V30 3881 N 365.091 -1.34144 -0.827227 0
M  V30 3882 C 366.337 -1.26446 -1.58554 0
M  V30 3883 C 366.67 0.1664 -1.93486 0
M  V30 3884 O 365.945 1.1107 -1.59667 0
M  V30 3885 C 366.228 -2.15111 -2.8879 0
M  V30 3886 C 366.081 -3.66712 -2.60465 0
M  V30 3887 C 367.4 -2.03311 -3.90324 0
M  V30 3888 H 364.519 -0.46067 -0.575284 0
M  V30 3889 H 367.161 -1.64356 -0.953269 0
M  V30 3890 H 365.311 -1.8291 -3.42748 0
M  V30 3891 H 366.983 -4.09259 -2.1285 0
M  V30 3892 H 365.226 -3.88014 -1.93978 0
M  V30 3893 H 365.897 -4.24112 -3.53317 0
M  V30 3894 H 368.373 -2.31574 -3.45706 0
M  V30 3895 H 367.249 -2.67582 -4.79261 0
M  V30 3896 H 367.51 -1.00879 -4.30437 0
M  V30 3897 N 366.569 1.04691 -1.17803 0
M  V30 3898 C 367.815 1.78045 -0.970969 0
M  V30 3899 C 368.148 1.87686 0.498751 0
M  V30 3900 O 367.423 1.38035 1.37027 0
M  V30 3901 C 367.706 3.2166 -1.61884 0
M  V30 3902 C 367.559 3.20001 -3.161 0
M  V30 3903 C 368.878 4.1962 -1.3269 0
M  V30 3904 H 365.997 0.64633 -0.354155 0
M  V30 3905 H 368.639 1.22333 -1.45378 0
M  V30 3906 H 366.789 3.69232 -1.20831 0
M  V30 3907 H 368.461 2.80467 -3.66246 0
M  V30 3908 H 366.704 2.58203 -3.48588 0
M  V30 3909 H 367.375 4.21386 -3.56564 0
M  V30 3910 H 369.851 3.80567 -1.68249 0
M  V30 3911 H 368.727 5.18339 -1.80599 0
M  V30 3912 H 368.988 4.414 -0.248622 0
M  V30 3913 N 368.047 0.979072 1.23499 0
M  V30 3914 C 369.295 0.645941 1.91499 0
M  V30 3915 C 369.616 -0.822948 1.76784 0
M  V30 3916 O 368.886 -1.58854 1.14639 0
M  V30 3917 H 367.466 0.235919 0.708767 0
M  V30 3918 H 370.128 1.2426 1.50152 0
M  V30 3919 H 369.224 0.896411 2.9895 0
M  V30 3920 N 369.525 -1.3858 0.750561 0
M  V30 3921 C 370.773 -1.99789 0.30477 0
M  V30 3922 C 371.094 -1.59874 -1.11649 0
M  V30 3923 O 370.364 -0.85417 -1.76297 0
M  V30 3924 H 368.944 -0.738902 0.109694 0
M  V30 3925 H 371.606 -1.69391 0.963983 0
M  V30 3926 H 370.702 -3.09952 0.365499 0
M  V30 3927 N 371.003 -0.499398 -1.49478 0
M  V30 3928 C 372.231 0.0425456 -2.06856 0
M  V30 3929 C 372.646 1.30964 -1.35992 0
M  V30 3930 O 372.003 1.77172 -0.437762 0
M  V30 3931 C 372.054 0.301735 -3.60239 0
M  V30 3932 O 371.775 -0.915127 -4.28436 0
M  V30 3933 C 373.276 0.887499 -4.34325 0
M  V30 3934 H 370.496 -0.0197482 -0.670709 0
M  V30 3935 H 373.04 -0.696297 -1.92281 0
M  V30 3936 H 371.195 0.990556 -3.74522 0
M  V30 3937 H 371.609 -0.676993 -5.20113 0
M  V30 3938 H 373.083 1.01845 -5.42523 0
M  V30 3939 H 373.56 1.88488 -3.96698 0
M  V30 3940 H 374.166 0.236196 -4.24644 0
M  V30 3941 N 372.481 1.55866 -0.233164 0
M  V30 3942 C 373.411 2.23783 0.666599 0
M  V30 3943 C 374.392 1.21343 1.19205 0
M  V30 3944 O 375.577 1.4996 1.23392 0
M  V30 3945 C 372.707 2.92671 1.86978 0
M  V30 3946 C 371.661 4.01682 1.47768 0
M  V30 3947 C 370.987 4.57926 2.76058 0
M  V30 3948 C 372.287 5.18126 0.658993 0
M  V30 3949 H 373.981 2.99232 0.100306 0
M  V30 3950 H 371.527 1.43924 0.046804 0
M  V30 3951 H 373.48 3.3888 2.50476 0
M  V30 3952 H 372.204 2.14688 2.46123 0
M  V30 3953 H 370.863 3.56222 0.866106 0
M  V30 3954 H 370.511 3.76659 3.33372 0
M  V30 3955 H 370.211 5.31505 2.50552 0
M  V30 3956 H 371.735 5.06859 3.40479 0
M  V30 3957 H 373.149 5.60644 1.19795 0
M  V30 3958 H 371.546 5.98009 0.500552 0
M  V30 3959 H 372.616 4.83763 -0.331856 0
M  V30 3960 N 373.959 -0.0401083 1.57549 0
M  V30 3961 C 375.205 -0.734211 1.89043 0
M  V30 3962 C 375.538 -1.75591 0.829535 0
M  V30 3963 O 374.813 -1.93868 -0.156706 0
M  V30 3964 C 375.096 -1.41374 3.31188 0
M  V30 3965 C 374.949 -0.406299 4.47961 0
M  V30 3966 C 376.268 -2.35061 3.72068 0
M  V30 3967 H 373.387 -0.265447 0.687537 0
M  V30 3968 H 376.029 0.00294087 1.9 0
M  V30 3969 H 374.179 -2.04206 3.30503 0
M  V30 3970 H 375.851 0.219255 4.60779 0
M  V30 3971 H 374.094 0.275485 4.32924 0
M  V30 3972 H 374.765 -0.920022 5.44279 0
M  V30 3973 H 377.241 -1.82282 3.74049 0
M  V30 3974 H 376.117 -2.79593 4.72355 0
M  V30 3975 H 376.378 -3.21258 3.0372 0
M  V30 3976 N 375.437 -1.54477 -0.31217 0
M  V30 3977 C 376.683 -1.74417 -1.04644 0
M  V30 3978 C 377.038 -0.517641 -1.85306 0
M  V30 3979 O 376.331 0.489973 -1.85229 0
M  V30 3980 C 376.525 -2.967 -1.99258 0
M  V30 3981 C 376.354 -4.31128 -1.27901 0
M  V30 3982 C 375.124 -4.95087 -1.01079 0
M  V30 3983 C 377.322 -5.09662 -0.689119 0
M  V30 3984 N 375.304 -6.13322 -0.266323 0
M  V30 3985 C 376.675 -6.19952 -0.0768523 0
M  V30 3986 C 378.73 -4.94355 -0.593061 0
M  V30 3987 C 377.433 -7.16604 0.622165 0
M  V30 3988 C 379.459 -5.91328 0.0922792 0
M  V30 3989 C 378.821 -7.00978 0.693443 0
M  V30 3990 H 374.92 -0.69094 -0.366231 0
M  V30 3991 H 377.504 -1.91946 -0.326319 0
M  V30 3992 H 375.675 -2.80616 -2.68532 0
M  V30 3993 H 377.407 -3.05216 -2.65755 0
M  V30 3994 H 374.162 -4.55235 -1.30607 0
M  V30 3995 H 374.586 -6.76937 0.0920973 0
M  V30 3996 H 379.228 -4.09719 -1.04355 0
M  V30 3997 H 376.946 -8.0079 1.08445 0
M  V30 3998 H 380.532 -5.81562 0.166396 0
M  V30 3999 H 379.412 -7.74725 1.21533 0
M  V30 4000 N 376.915 0.57481 -1.46744 0
M  V30 4001 C 377.845 1.69337 -1.60771 0
M  V30 4002 C 378.826 1.63825 -0.457736 0
M  V30 4003 O 380.011 1.8172 -0.684947 0
M  V30 4004 C 377.141 3.0798 -1.60517 0
M  V30 4005 C 376.095 3.28327 -2.74564 0
M  V30 4006 C 375.421 4.67578 -2.59373 0
M  V30 4007 C 376.721 3.15398 -4.16319 0
M  V30 4008 H 378.415 1.57853 -2.54407 0
M  V30 4009 H 375.961 0.75799 -1.22436 0
M  V30 4010 H 377.914 3.86061 -1.68923 0
M  V30 4011 H 376.638 3.20381 -0.634305 0
M  V30 4012 H 375.297 2.52649 -2.65639 0
M  V30 4013 H 374.945 4.76755 -1.60353 0
M  V30 4014 H 374.645 4.82144 -3.35873 0
M  V30 4015 H 376.169 5.47817 -2.69682 0
M  V30 4016 H 377.583 3.83315 -4.26313 0
M  V30 4017 H 375.98 3.41482 -4.93468 0
M  V30 4018 H 377.05 2.12372 -4.3592 0
M  V30 4019 N 378.394 1.34581 0.820102 0
M  V30 4020 C 379.619 1.30333 1.61332 0
M  V30 4021 C 380.044 -0.119339 1.87721 0
M  V30 4022 O 379.402 -1.08197 1.45475 0
M  V30 4023 C 379.45 2.10258 2.92957 0
M  V30 4024 O 378.554 1.47404 3.85157 0
M  V30 4025 H 377.895 0.447488 0.490561 0
M  V30 4026 H 380.425 1.77425 1.01889 0
M  V30 4027 H 380.435 2.21718 3.42498 0
M  V30 4028 H 379.11 3.13693 2.73074 0
M  V30 4029 H 377.687 1.44703 3.43679 0
M  V30 4030 N 379.872 -1.04064 1.18357 0
M  V30 4031 C 380.805 -2.11618 0.854 0
M  V30 4032 C 381.783 -1.61555 -0.184043 0
M  V30 4033 O 382.967 -1.88395 -0.0630048 0
M  V30 4034 C 380.094 -3.37574 0.27597 0
M  V30 4035 C 379.14 -4.06485 1.2912 0
M  V30 4036 S 379.973 -4.53543 2.84709 0
M  V30 4037 C 381.129 -5.82732 2.28417 0
M  V30 4038 H 381.362 -2.39247 1.76488 0
M  V30 4039 H 378.895 -1.16832 1.00944 0
M  V30 4040 H 380.853 -4.10468 -0.051026 0
M  V30 4041 H 379.514 -3.0806 -0.613028 0
M  V30 4042 H 378.707 -4.97024 0.835633 0
M  V30 4043 H 378.309 -3.39708 1.56443 0
M  V30 4044 H 380.601 -6.56677 1.66677 0
M  V30 4045 H 381.544 -6.33052 3.17256 0
M  V30 4046 H 381.952 -5.37838 1.71436 0
M  V30 4047 N 381.35 -0.985608 -1.22978 0
M  V30 4048 C 382.58 -0.674603 -1.95276 0
M  V30 4049 C 382.988 0.763483 -1.73111 0
M  V30 4050 O 382.331 1.52601 -1.02268 0
M  V30 4051 C 382.393 -0.891597 -3.48268 0
M  V30 4052 C 382.057 -2.31275 -3.94158 0
M  V30 4053 C 383.054 -3.29179 -4.02415 0
M  V30 4054 C 380.739 -2.64524 -4.27004 0
M  V30 4055 C 382.733 -4.58407 -4.42879 0
M  V30 4056 C 380.42 -3.93974 -4.67149 0
M  V30 4057 C 381.418 -4.90727 -4.75053 0
M  V30 4058 O 381.106 -6.17865 -5.14294 0
M  V30 4059 H 380.838 -0.249251 -0.628371 0
M  V30 4060 H 383.392 -1.32106 -1.5728 0
M  V30 4061 H 381.622 -0.187962 -3.86243 0
M  V30 4062 H 383.311 -0.576957 -4.01779 0
M  V30 4063 H 384.077 -3.04823 -3.77237 0
M  V30 4064 H 379.956 -1.89923 -4.2006 0
M  V30 4065 H 383.5 -5.33926 -4.48964 0
M  V30 4066 H 379.397 -4.18122 -4.91777 0
M  V30 4067 H 380.165 -6.21694 -5.32389 0
M  V30 4068 N 382.828 1.3818 -0.7579 0
M  V30 4069 C 384.076 1.99624 -0.315361 0
M  V30 4070 C 384.397 1.60464 1.10799 0
M  V30 4071 O 383.667 0.863507 1.75842 0
M  V30 4072 H 382.247 0.73831 -0.113611 0
M  V30 4073 H 384.909 1.68878 -0.972952 0
M  V30 4074 H 384.005 3.09754 -0.381931 0
M  V30 4075 N 384.306 0.507319 1.49211 0
M  V30 4076 C 385.552 -0.0350047 2.0277 0
M  V30 4077 C 385.885 -1.3606 1.38569 0
M  V30 4078 O 385.16 -1.87321 0.523542 0
M  V30 4079 C 385.443 -0.180916 3.59645 0
M  V30 4080 C 385.296 1.16825 4.34364 0
M  V30 4081 C 386.615 -0.918558 4.30407 0
M  V30 4082 H 383.734 -0.0112473 0.736914 0
M  V30 4083 H 386.376 0.659956 1.7817 0
M  V30 4084 H 384.526 -0.772826 3.80736 0
M  V30 4085 H 386.198 1.79952 4.24753 0
M  V30 4086 H 384.441 1.75594 3.96673 0
M  V30 4087 H 385.112 1.01939 5.42506 0
M  V30 4088 H 387.588 -0.41649 4.1401 0
M  V30 4089 H 386.464 -0.989505 5.39907 0
M  V30 4090 H 386.725 -1.96373 3.96093 0
M  V30 4091 N 385.784 -1.5574 0.241426 0
M  V30 4092 C 386.732 -2.22538 -0.676718 0
M  V30 4093 C 387.726 -1.21117 -1.18436 0
M  V30 4094 O 388.932 -1.39144 -1.14188 0
M  V30 4095 H 385.307 -0.713776 -0.236701 0
M  V30 4096 H 387.278 -2.98264 -0.0901187 0
M  V30 4097 C 386.027 -2.93439 -1.86518 0
M  V30 4098 H 385.35 -3.7125 -1.4837 0
M  V30 4099 H 386.79 -3.43549 -2.48495 0
M  V30 4100 C 385.249 -1.97008 -2.73294 0
M  V30 4101 O 385.779 -1.49965 -3.72657 0
M  V30 4102 N 383.985 -1.64227 -2.39745 0
M  V30 4103 H 383.532 -2.02677 -1.58996 0
M  V30 4104 H 383.49 -0.999708 -2.98083 0
M  V30 4105 N 387.262 0.0317525 -1.57568 0
M  V30 4106 C 388.194 1.06073 -2.03178 0
M  V30 4107 C 389.207 1.32627 -0.944132 0
M  V30 4108 O 390.396 1.30162 -1.22148 0
M  V30 4109 C 387.496 2.40297 -2.38978 0
M  V30 4110 C 386.669 2.33137 -3.70089 0
M  V30 4111 C 385.728 3.49787 -3.9311 0
M  V30 4112 O 384.754 3.29403 -4.64201 0
M  V30 4113 N 385.956 4.71562 -3.38541 0
M  V30 4114 H 388.721 0.672006 -2.92069 0
M  V30 4115 H 386.282 0.219745 -1.60402 0
M  V30 4116 H 388.274 3.1705 -2.51518 0
M  V30 4117 H 386.844 2.71024 -1.55771 0
M  V30 4118 H 386.064 1.415 -3.67928 0
M  V30 4119 H 387.352 2.25493 -4.56104 0
M  V30 4120 H 386.75 4.91024 -2.80912 0
M  V30 4121 H 385.307 5.45689 -3.56464 0
M  V30 4122 N 388.74 1.54641 0.303973 0
M  V30 4123 C 389.703 1.84646 1.35789 0
M  V30 4124 C 390.703 0.7192 1.4382 0
M  V30 4125 O 391.893 0.987491 1.43507 0
M  V30 4126 C 389.025 2.02407 2.74307 0
M  V30 4127 H 390.218 2.78829 1.10429 0
M  V30 4128 H 387.771 1.46658 0.540487 0
M  V30 4129 H 388.506 1.10502 3.04893 0
M  V30 4130 H 388.291 2.84453 2.69868 0
M  V30 4131 H 389.781 2.27002 3.50514 0
M  V30 4132 N 390.218 -0.567019 1.47046 0
M  V30 4133 C 391.15 -1.68985 1.54844 0
M  V30 4134 C 392.163 -1.56869 0.435431 0
M  V30 4135 O 393.352 -1.64006 0.70457 0
M  V30 4136 C 390.452 -3.07373 1.42742 0
M  V30 4137 C 389.625 -3.45339 2.6844 0
M  V30 4138 C 388.684 -4.62849 2.50314 0
M  V30 4139 O 387.71 -4.67922 3.24095 0
M  V30 4140 N 388.912 -5.58726 1.57499 0
M  V30 4141 H 391.677 -1.62745 2.51663 0
M  V30 4142 H 389.238 -0.753411 1.43302 0
M  V30 4143 H 391.23 -3.83803 1.28365 0
M  V30 4144 H 389.8 -3.07893 0.540445 0
M  V30 4145 H 389.02 -2.58455 2.97648 0
M  V30 4146 H 390.308 -3.67476 3.51907 0
M  V30 4147 H 389.706 -5.57376 0.966876 0
M  V30 4148 H 388.263 -6.34523 1.49078 0
M  V30 4149 N 391.696 -1.35014 -0.812953 0
M  V30 4150 C 392.942 -1.2812 -1.57204 0
M  V30 4151 C 393.275 0.145869 -1.93651 0
M  V30 4152 O 392.55 1.0937 -1.60836 0
M  V30 4153 C 392.833 -2.18162 -2.86492 0
M  V30 4154 C 392.686 -3.69454 -2.56561 0
M  V30 4155 C 394.005 -2.07439 -3.88145 0
M  V30 4156 H 391.124 -0.466746 -0.570366 0
M  V30 4157 H 393.766 -1.65357 -0.935783 0
M  V30 4158 H 391.916 -1.86535 -3.40789 0
M  V30 4159 H 393.588 -4.11493 -2.08497 0
M  V30 4160 H 391.831 -3.9005 -1.89851 0
M  V30 4161 H 392.502 -4.27835 -3.48799 0
M  V30 4162 H 394.978 -2.35228 -3.4323 0
M  V30 4163 H 393.854 -2.7265 -4.76396 0
M  V30 4164 H 394.115 -1.05439 -4.29343 0
M  V30 4165 N 393.175 1.03435 -1.18907 0
M  V30 4166 C 394.107 2.1165 -0.879595 0
M  V30 4167 C 395.12 1.62316 0.125439 0
M  V30 4168 O 396.309 1.78201 -0.103245 0
M  V30 4169 C 393.409 3.37622 -0.294042 0
M  V30 4170 C 392.582 4.16166 -1.34629 0
M  V30 4171 C 391.641 5.20457 -0.775274 0
M  V30 4172 O 390.667 5.50379 -1.4516 0
M  V30 4173 N 391.869 5.78949 0.424126 0
M  V30 4174 H 394.634 2.38791 -1.81105 0
M  V30 4175 H 392.195 1.19681 -1.09032 0
M  V30 4176 H 394.187 4.04572 0.101679 0
M  V30 4177 H 392.757 3.07873 0.541575 0
M  V30 4178 H 391.977 3.44444 -1.91707 0
M  V30 4179 H 393.265 4.65432 -2.05549 0
M  V30 4180 H 392.663 5.56948 0.991209 0
M  V30 4181 H 391.22 6.47334 0.761691 0
M  V30 4182 N 394.653 0.992116 1.22453 0
M  V30 4183 C 396.069 0.702713 1.43297 0
M  V30 4184 C 396.269 -0.726909 1.87932 0
M  V30 4185 O 395.325 -1.49792 2.0327 0
M  V30 4186 C 396.638 1.70762 2.47509 0
M  V30 4187 C 398.186 1.72298 2.61309 0
M  V30 4188 C 398.661 2.71649 3.68742 0
M  V30 4189 N 400.152 2.70239 3.76199 0
M  V30 4190 C 400.887 3.43778 4.58917 0
M  V30 4191 N 400.383 4.26914 5.45633 0
M  V30 4192 N 402.176 3.32487 4.5322 0
M  V30 4193 H 394.327 1.91543 0.917871 0
M  V30 4194 H 396.59 0.826031 0.465162 0
M  V30 4195 H 396.296 2.73059 2.21657 0
M  V30 4196 H 396.17 1.49985 3.46099 0
M  V30 4197 H 398.557 0.706989 2.86506 0
M  V30 4198 H 398.638 1.97143 1.62997 0
M  V30 4199 H 398.282 3.73397 3.44292 0
M  V30 4200 H 398.212 2.44074 4.66622 0
M  V30 4201 H 400.703 2.09912 3.14237 0
M  V30 4202 H 401.016 4.79855 6.05771 0
M  V30 4203 H 399.361 4.31002 5.45218 0
M  V30 4204 H 402.552 2.6698 3.84499 0
M  V30 4205 H 402.725 3.90058 5.17454 0
M  V30 4206 N 396.131 -1.37776 0.765217 0
M  V30 4207 C 397.361 -2.03828 0.337277 0
M  V30 4208 C 397.769 -1.57841 -1.04321 0
M  V30 4209 O 397.112 -0.752043 -1.67601 0
M  V30 4210 C 397.174 -3.58292 0.294407 0
M  V30 4211 C 396.838 -4.27384 1.61838 0
M  V30 4212 C 397.835 -4.51956 2.56967 0
M  V30 4213 C 395.52 -4.65345 1.89102 0
M  V30 4214 C 397.514 -5.13536 3.77571 0
M  V30 4215 C 395.201 -5.26647 3.09978 0
M  V30 4216 C 396.199 -5.50679 4.04032 0
M  V30 4217 O 395.887 -6.10702 5.2278 0
M  V30 4218 H 395.619 -0.661292 0.140248 0
M  V30 4219 H 398.173 -1.77222 1.03834 0
M  V30 4220 H 396.403 -3.83918 -0.462983 0
M  V30 4221 H 398.092 -4.05763 -0.105581 0
M  V30 4222 H 398.858 -4.23048 2.37183 0
M  V30 4223 H 394.737 -4.45978 1.16725 0
M  V30 4224 H 398.281 -5.3221 4.50997 0
M  V30 4225 H 394.178 -5.54979 3.29649 0
M  V30 4226 H 394.946 -6.29183 5.23517 0
M  V30 4227 N 397.609 -0.515225 -1.4894 0
M  V30 4228 C 398.855 0.0242508 -2.02785 0
M  V30 4229 C 399.188 1.35323 -1.39289 0
M  V30 4230 O 398.463 1.87041 -0.533469 0
M  V30 4231 C 398.746 0.16184 -3.59736 0
M  V30 4232 C 398.599 -1.19127 -4.33738 0
M  V30 4233 C 399.918 0.895719 -4.30888 0
M  V30 4234 H 397.037 0.00733914 -0.736963 0
M  V30 4235 H 399.679 -0.669395 -1.77818 0
M  V30 4236 H 397.829 0.752624 -3.8114 0
M  V30 4237 H 399.501 -1.82202 -4.23792 0
M  V30 4238 H 397.744 -1.77695 -3.95736 0
M  V30 4239 H 398.415 -1.04815 -5.41957 0
M  V30 4240 H 400.891 0.394528 -4.14225 0
M  V30 4241 H 399.767 0.960859 -5.40425 0
M  V30 4242 H 400.028 1.9427 -3.97129 0
M  V30 4243 N 399.087 1.5561 -0.249682 0
M  V30 4244 C 400.05 2.20217 0.635394 0
M  V30 4245 C 401.05 1.17227 1.10066 0
M  V30 4246 O 402.24 1.42292 1.00492 0
M  V30 4247 C 399.372 2.84794 1.87363 0
M  V30 4248 H 400.565 2.99814 0.0716752 0
M  V30 4249 H 398.118 1.563 -0.000153234 0
M  V30 4250 H 398.853 2.09142 2.47851 0
M  V30 4251 H 398.638 3.60241 1.5482 0
M  V30 4252 H 400.128 3.3423 2.5036 0
M  V30 4253 N 400.565 -0.0233959 1.57583 0
M  V30 4254 C 401.805 -0.71784 1.9138 0
M  V30 4255 C 402.169 -1.72216 0.848853 0
M  V30 4256 O 403.37 -2.46527 1.07134 0
M  V30 4257 C 401.641 -1.36489 3.30311 0
M  V30 4258 S 403.2 -2.0877 3.85954 0
M  V30 4259 H 400.018 -0.237676 0.670098 0
M  V30 4260 H 402.62 0.0276709 1.9548 0
M  V30 4261 H 401.324 -0.620782 4.05678 0
M  V30 4262 H 400.855 -2.14883 3.29528 0
M  V30 4263 H 402.87 -3.35988 3.65139 0
M  V30 4264 N 402.043 -1.548 -0.295768 0
M  V30 4265 C 403.459 -1.4613 -0.641722 0
M  V30 4266 C 403.659 -0.656771 -1.90496 0
M  V30 4267 O 402.715 -0.166547 -2.5195 0
M  V30 4268 C 404.028 -2.90141 -0.789852 0
M  V30 4269 C 405.576 -3.00216 -0.885396 0
M  V30 4270 C 406.051 -4.45434 -1.06548 0
M  V30 4271 N 407.542 -4.49166 -1.13156 0
M  V30 4272 C 408.277 -5.58717 -1.28929 0
M  V30 4273 N 407.773 -6.78182 -1.41567 0
M  V30 4274 N 409.566 -5.46415 -1.31859 0
M  V30 4275 H 401.717 -2.05574 0.534147 0
M  V30 4276 H 403.98 -0.931259 0.177372 0
M  V30 4277 H 403.686 -3.51635 0.0675598 0
M  V30 4278 H 403.56 -3.37859 -1.67724 0
M  V30 4279 H 405.947 -2.38833 -1.73329 0
M  V30 4280 H 406.028 -2.55787 0.0261185 0
M  V30 4281 H 405.672 -5.07413 -0.222335 0
M  V30 4282 H 405.602 -4.87499 -1.9913 0
M  V30 4283 H 408.093 -3.631 -1.04721 0
M  V30 4284 H 408.406 -7.57428 -1.53372 0
M  V30 4285 H 406.751 -6.81037 -1.38613 0
M  V30 4286 H 409.942 -4.5203 -1.21601 0
M  V30 4287 H 410.115 -6.31841 -1.43808 0
M  V30 4288 N 403.521 0.559213 -1.47345 0
M  V30 4289 C 404.749 1.34194 -1.57479 0
M  V30 4290 C 405.164 1.87463 -0.224261 0
M  V30 4291 O 404.521 1.64888 0.782185 0
M  V30 4292 C 404.572 2.51324 -2.59843 0
M  V30 4293 O 404.293 2.00256 -3.89653 0
M  V30 4294 C 405.794 3.43563 -2.80142 0
M  V30 4295 H 403.014 0.409136 -0.531835 0
M  V30 4296 H 405.558 0.677609 -1.92947 0
M  V30 4297 H 403.713 3.13699 -2.27314 0
M  V30 4298 H 404.127 2.76708 -4.4557 0
M  V30 4299 H 405.601 4.2217 -3.55635 0
M  V30 4300 H 406.078 3.9698 -1.87892 0
M  V30 4301 H 406.684 2.87005 -3.1386 0
M  V30 4302 N 404.999 1.35443 0.805782 0
M  V30 4303 C 405.909 1.30546 1.94923 0
M  V30 4304 C 406.925 0.210233 1.72725 0
M  V30 4305 O 408.101 0.43975 1.9654 0
M  V30 4306 C 405.166 1.07782 3.29521 0
M  V30 4307 C 404.227 2.26625 3.64609 0
M  V30 4308 C 403.46 2.04938 4.92784 0
M  V30 4309 O 403.683 1.01624 5.61274 0
M  V30 4310 O 402.617 2.9232 5.26149 0
M  V30 4311 H 406.443 2.26779 2.02002 0
M  V30 4312 H 404.028 1.15823 0.943682 0
M  V30 4313 H 405.91 0.969392 4.10098 0
M  V30 4314 H 404.585 0.146003 3.23371 0
M  V30 4315 H 403.492 2.43033 2.84404 0
M  V30 4316 H 404.825 3.18257 3.75464 0
M  V30 4317 N 406.477 -1.02803 1.19454 0
M  V30 4318 C 407.424 -2.11099 0.933046 0
M  V30 4319 C 408.394 -1.65571 -0.132447 0
M  V30 4320 O 409.579 -1.90797 0.00987576 0
M  V30 4321 C 406.719 -3.41763 0.478747 0
M  V30 4322 C 405.832 -4.00833 1.6111 0
M  V30 4323 C 404.967 -5.19511 1.10825 0
M  V30 4324 C 404.006 -5.70639 2.21445 0
M  V30 4325 N 403.143 -6.80589 1.72461 0
M  V30 4326 H 407.983 -2.32804 1.86028 0
M  V30 4327 H 405.52 -1.14179 0.927441 0
M  V30 4328 H 407.478 -4.16736 0.196745 0
M  V30 4329 H 406.108 -3.20166 -0.411493 0
M  V30 4330 H 405.16 -3.23066 2.00829 0
M  V30 4331 H 406.472 -4.34794 2.4445 0
M  V30 4332 H 405.626 -6.01645 0.781533 0
M  V30 4333 H 404.365 -4.87086 0.244606 0
M  V30 4334 H 403.37 -4.87116 2.54947 0
M  V30 4335 H 404.595 -6.05102 3.08267 0
M  V30 4336 H 402.541 -6.50016 0.884056 0
M  V30 4337 H 402.458 -7.13681 2.49389 0
M  V30 4338 H 403.726 -7.66317 1.42755 0
M  V30 4339 N 407.956 -0.998596 -1.21925 0
M  V30 4340 C 408.888 -0.511879 -2.23411 0
M  V30 4341 C 409.901 0.396094 -1.57908 0
M  V30 4342 O 411.09 0.197316 -1.77406 0
M  V30 4343 C 408.19 0.276802 -3.37768 0
M  V30 4344 C 407.363 -0.628687 -4.32858 0
M  V30 4345 C 406.422 0.109272 -5.26087 0
M  V30 4346 O 405.448 -0.507237 -5.66935 0
M  V30 4347 N 406.65 1.38983 -5.63617 0
M  V30 4348 H 409.415 -1.38457 -2.658 0
M  V30 4349 H 406.976 -0.873981 -1.36283 0
M  V30 4350 H 408.968 0.77928 -3.97126 0
M  V30 4351 H 407.538 1.05063 -2.94415 0
M  V30 4352 H 406.758 -1.31175 -3.71735 0
M  V30 4353 H 408.046 -1.24514 -4.93329 0
M  V30 4354 H 407.444 1.91194 -5.32411 0
M  V30 4355 H 406.001 1.83739 -6.25367 0
M  V30 4356 N 409.434 1.37368 -0.772513 0
M  V30 4357 C 410.397 2.28601 -0.165541 0
M  V30 4358 C 411.397 1.48062 0.627238 0
M  V30 4359 O 412.587 1.68268 0.450715 0
M  V30 4360 C 409.719 3.32023 0.772897 0
M  V30 4361 H 410.912 2.83787 -0.969787 0
M  V30 4362 H 408.465 1.46647 -0.540775 0
M  V30 4363 H 409.2 2.81962 1.60212 0
M  V30 4364 H 408.985 3.91555 0.206585 0
M  V30 4365 H 410.475 4.00197 1.19298 0
M  V30 4366 N 410.912 0.523116 1.48665 0
M  V30 4367 C 411.859 -0.243398 2.29513 0
M  V30 4368 C 412.829 -0.940139 1.36933 0
M  V30 4369 O 414.014 -0.942503 1.65896 0
M  V30 4370 C 411.154 -1.28855 3.20141 0
M  V30 4371 C 410.267 -0.60135 4.27794 0
M  V30 4372 C 409.402 -1.62884 5.05611 0
M  V30 4373 C 408.441 -0.924726 6.05075 0
M  V30 4374 N 407.578 -1.89744 6.75975 0
M  V30 4375 H 412.418 0.452234 2.94549 0
M  V30 4376 H 409.955 0.234858 1.45213 0
M  V30 4377 H 411.913 -1.90674 3.71079 0
M  V30 4378 H 410.543 -1.95266 2.57043 0
M  V30 4379 H 409.595 0.130623 3.80176 0
M  V30 4380 H 410.907 -0.0481585 4.98777 0
M  V30 4381 H 410.061 -2.32149 5.60528 0
M  V30 4382 H 408.8 -2.21592 4.34452 0
M  V30 4383 H 407.805 -0.217966 5.49368 0
M  V30 4384 H 409.03 -0.343851 6.78229 0
M  V30 4385 H 406.976 -2.47373 6.07571 0
M  V30 4386 H 406.893 -1.3955 7.43009 0
M  V30 4387 H 408.161 -2.58229 7.35485 0
M  V30 4388 N 412.39 -1.55475 0.257931 0
M  V30 4389 C 413.32 -2.24815 -0.630912 0
M  V30 4390 C 414.301 -1.23224 -1.17259 0
M  V30 4391 O 415.486 -1.51904 -1.20991 0
M  V30 4392 C 412.616 -2.95609 -1.82298 0
M  V30 4393 C 411.57 -4.03982 -1.41359 0
M  V30 4394 C 410.896 -4.6226 -2.68738 0
M  V30 4395 C 412.196 -5.19109 -0.57648 0
M  V30 4396 H 413.89 -2.99354 -0.0526878 0
M  V30 4397 H 411.436 -1.4398 -0.023901 0
M  V30 4398 H 413.389 -3.42822 -2.45054 0
M  V30 4399 H 412.113 -2.18577 -2.42676 0
M  V30 4400 H 410.772 -3.57555 -0.809324 0
M  V30 4401 H 410.42 -3.81915 -3.27338 0
M  V30 4402 H 410.12 -5.35424 -2.42065 0
M  V30 4403 H 411.644 -5.12212 -3.32372 0
M  V30 4404 H 413.058 -5.62479 -1.10861 0
M  V30 4405 H 411.455 -5.98729 -0.405351 0
M  V30 4406 H 412.525 -4.83174 0.408776 0
M  V30 4407 N 413.868 0.0150385 -1.57593 0
M  V30 4408 C 414.831 0.995996 -2.06428 0
M  V30 4409 C 415.831 1.2818 -0.970903 0
M  V30 4410 O 417.021 1.22949 -1.23406 0
M  V30 4411 C 414.153 2.32506 -2.49307 0
M  V30 4412 H 415.346 0.573873 -2.94358 0
M  V30 4413 H 412.899 0.262186 -1.54085 0
M  V30 4414 H 413.634 2.79438 -1.64575 0
M  V30 4415 H 413.419 2.13087 -3.29145 0
M  V30 4416 H 414.909 3.02906 -2.87468 0
M  V30 4417 N 415.346 1.54954 0.287554 0
M  V30 4418 C 416.276 1.89839 1.35954 0
M  V30 4419 C 417.257 0.758675 1.52244 0
M  V30 4420 O 418.442 1.01557 1.65529 0
M  V30 4421 C 415.572 2.15753 2.72154 0
M  V30 4422 C 414.526 3.3159 2.70614 0
M  V30 4423 C 413.852 3.42952 4.10229 0
M  V30 4424 C 415.152 4.68359 2.31165 0
M  V30 4425 H 416.846 2.79625 1.07007 0
M  V30 4426 H 414.392 1.3454 0.513316 0
M  V30 4427 H 416.345 2.38743 3.47246 0
M  V30 4428 H 415.069 1.22752 3.02654 0
M  V30 4429 H 413.728 3.08545 1.97979 0
M  V30 4430 H 413.376 2.47443 4.37928 0
M  V30 4431 H 413.076 4.20826 4.10097 0
M  V30 4432 H 414.6 3.68218 4.87081 0
M  V30 4433 H 416.014 4.9099 2.95976 0
M  V30 4434 H 414.411 5.49044 2.42221 0
M  V30 4435 H 415.481 4.68165 1.26291 0
M  V30 4436 N 416.824 -0.551391 1.4764 0
M  V30 4437 C 417.754 -1.66757 1.63445 0
M  V30 4438 C 418.735 -1.63077 0.483742 0
M  V30 4439 O 419.92 -1.80607 0.71377 0
M  V30 4440 C 417.05 -3.05387 1.65396 0
M  V30 4441 C 416.004 -3.23918 2.79752 0
M  V30 4442 C 415.33 -4.63393 2.66779 0
M  V30 4443 C 416.63 -3.08735 4.21284 0
M  V30 4444 H 418.324 -1.53786 2.56886 0
M  V30 4445 H 415.87 -0.738415 1.23626 0
M  V30 4446 H 417.823 -3.83325 1.75043 0
M  V30 4447 H 416.547 -3.19332 0.685195 0
M  V30 4448 H 415.206 -2.48391 2.69625 0
M  V30 4449 H 414.854 -4.74144 1.67918 0
M  V30 4450 H 414.554 -4.7674 3.43501 0
M  V30 4451 H 416.078 -5.43458 2.78364 0
M  V30 4452 H 417.492 -3.76484 4.32357 0
M  V30 4453 H 415.889 -3.33588 4.98838 0
M  V30 4454 H 416.959 -2.0541 4.39243 0
M  V30 4455 N 418.302 -1.35869 -0.798587 0
M  V30 4456 C 419.551 -1.28921 -1.5512 0
M  V30 4457 C 419.864 0.13208 -1.95154 0
M  V30 4458 O 421.07 0.323879 -2.69561 0
M  V30 4459 C 419.526 -2.26141 -2.79979 0
M  V30 4460 C 419.134 -3.73658 -2.47151 0
M  V30 4461 C 420.878 -2.28152 -3.57976 0
M  V30 4462 C 418.785 -4.62679 -3.6835 0
M  V30 4463 H 417.715 -0.479031 -0.582276 0
M  V30 4464 H 420.366 -1.61179 -0.877125 0
M  V30 4465 H 418.748 -1.86865 -3.49138 0
M  V30 4466 H 419.922 -4.21616 -1.85947 0
M  V30 4467 H 418.237 -3.74333 -1.82383 0
M  V30 4468 H 420.834 -2.91875 -4.4801 0
M  V30 4469 H 421.177 -1.28748 -3.95891 0
M  V30 4470 H 421.71 -2.65998 -2.95787 0
M  V30 4471 H 418.449 -5.63111 -3.35538 0
M  V30 4472 H 417.969 -4.19442 -4.28752 0
M  V30 4473 H 419.648 -4.78498 -4.35487 0
M  V30 4474 N 419.78 1.02168 -1.19998 0
M  V30 4475 C 420.728 2.12717 -0.940967 0
M  V30 4476 C 421.722 1.69069 0.105841 0
M  V30 4477 O 422.928 1.79946 -0.0440583 0
M  V30 4478 H 419.303 0.695108 -0.28693 0
M  V30 4479 H 421.274 2.3175 -1.87975 0
M  V30 4480 C 420.023 3.44027 -0.504049 0
M  V30 4481 H 419.346 3.78036 -1.30112 0
M  V30 4482 H 420.786 4.22452 -0.361991 0
M  V30 4483 C 419.245 3.27678 0.782878 0
M  V30 4484 O 419.775 3.56949 1.84256 0
M  V30 4485 N 417.981 2.80943 0.742921 0
M  V30 4486 H 417.528 2.57322 -0.119687 0
M  V30 4487 H 417.486 2.70385 1.60435 0
M  V30 4488 N 421.258 1.00505 1.21394 0
M  V30 4489 C 422.19 0.52372 2.23136 0
M  V30 4490 C 423.203 -0.387714 1.58116 0
M  V30 4491 O 424.392 -0.187905 1.77508 0
M  V30 4492 C 421.492 -0.258885 3.3791 0
M  V30 4493 C 420.665 0.651634 4.32519 0
M  V30 4494 C 419.724 -0.0813705 5.26137 0
M  V30 4495 O 418.75 0.537295 5.66658 0
M  V30 4496 N 419.952 -1.35992 5.64346 0
M  V30 4497 H 422.717 1.39865 2.65062 0
M  V30 4498 H 420.278 0.881196 1.35818 0
M  V30 4499 H 422.27 -0.758208 3.97534 0
M  V30 4500 H 420.84 -1.035 2.94968 0
M  V30 4501 H 420.06 1.33145 3.71034 0
M  V30 4502 H 421.348 1.27129 4.92662 0
M  V30 4503 H 420.746 -1.88368 5.33417 0
M  V30 4504 H 419.303 -1.8042 6.26332 0
M  V30 4505 N 422.737 -1.36956 0.779787 0
M  V30 4506 C 423.983 -1.99787 0.348281 0
M  V30 4507 C 424.316 -1.61756 -1.07465 0
M  V30 4508 O 423.591 -0.867639 -1.74075 0
M  V30 4509 C 423.874 -3.56597 0.50104 0
M  V30 4510 C 423.727 -4.04513 1.96697 0
M  V30 4511 C 425.046 -4.40008 -0.0898097 0
M  V30 4512 H 422.165 -0.725796 0.128022 0
M  V30 4513 H 424.807 -1.62514 0.984331 0
M  V30 4514 H 422.957 -3.88479 -0.0404347 0
M  V30 4515 H 424.629 -3.83161 2.56876 0
M  V30 4516 H 422.872 -3.56408 2.47297 0
M  V30 4517 H 423.543 -5.1352 2.02486 0
M  V30 4518 H 426.019 -4.14431 0.372293 0
M  V30 4519 H 424.895 -5.4888 0.0471605 0
M  V30 4520 H 425.156 -4.26035 -1.18096 0
M  V30 4521 N 424.215 -0.530993 -1.48385 0
M  V30 4522 C 425.463 0.00273189 -2.021 0
M  V30 4523 C 425.784 1.34672 -1.41027 0
M  V30 4524 O 425.054 1.8724 -0.576012 0
M  V30 4525 H 423.634 0.00399774 -0.746989 0
M  V30 4526 H 426.296 -0.695054 -1.82085 0
M  V30 4527 H 425.392 0.11031 -3.11905 0
M  V30 4528 N 425.693 1.55336 -0.266172 0
M  V30 4529 C 426.623 2.25146 0.618981 0
M  V30 4530 C 427.604 1.23845 1.16604 0
M  V30 4531 O 428.789 1.52544 1.20183 0
M  V30 4532 C 425.919 2.96572 1.80728 0
M  V30 4533 C 424.873 4.04726 1.39215 0
M  V30 4534 C 424.199 4.63678 2.66283 0
M  V30 4535 C 425.499 5.19407 0.548942 0
M  V30 4536 H 427.193 2.99377 0.0368116 0
M  V30 4537 H 424.739 1.43991 0.0162651 0
M  V30 4538 H 426.692 3.44116 2.43232 0
M  V30 4539 H 425.416 2.19861 2.41514 0
M  V30 4540 H 424.075 3.57979 0.790351 0
M  V30 4541 H 423.723 3.83646 3.25308 0
M  V30 4542 H 423.423 5.367 2.39222 0
M  V30 4543 H 424.947 5.13967 3.29651 0
M  V30 4544 H 426.361 5.63059 1.07876 0
M  V30 4545 H 424.758 5.98936 0.373593 0
M  V30 4546 H 425.828 4.8295 -0.434394 0
M  V30 4547 N 427.171 -0.0066808 1.57599 0
M  V30 4548 C 428.418 -0.69292 1.90276 0
M  V30 4549 C 428.746 -1.74148 0.866192 0
M  V30 4550 O 428.001 -1.95268 -0.129933 0
M  V30 4551 C 428.3 -1.37939 3.29708 0
M  V30 4552 C 427.966 -0.464679 4.48499 0
M  V30 4553 C 426.628 -0.212809 4.80729 0
M  V30 4554 C 428.98 0.16551 5.20937 0
M  V30 4555 C 426.308 0.677653 5.82773 0
M  V30 4556 C 428.66 1.04381 6.23929 0
M  V30 4557 C 427.324 1.30492 6.54621 0
M  V30 4558 H 426.594 -0.253558 0.696268 0
M  V30 4559 H 429.241 0.0474123 1.91441 0
M  V30 4560 H 427.546 -2.1936 3.24636 0
M  V30 4561 H 429.243 -1.9163 3.52249 0
M  V30 4562 H 425.833 -0.671153 4.23313 0
M  V30 4563 H 430.017 -0.0160756 4.96297 0
M  V30 4564 H 425.273 0.88803 6.04917 0
M  V30 4565 H 429.447 1.53851 6.79193 0
M  V30 4566 H 427.074 1.99662 7.33512 0
M  V30 4567 N 428.649 -1.55105 -0.279332 0
M  V30 4568 C 429.579 -1.90557 -1.34945 0
M  V30 4569 C 430.56 -0.766738 -1.51839 0
M  V30 4570 O 431.745 -1.02434 -1.64988 0
M  V30 4571 C 428.875 -2.17193 -2.71006 0
M  V30 4572 C 427.829 -3.33021 -2.68851 0
M  V30 4573 C 427.155 -3.45123 -4.08405 0
M  V30 4574 C 428.455 -4.69578 -2.28678 0
M  V30 4575 H 430.149 -2.80188 -1.05522 0
M  V30 4576 H 427.695 -1.34811 -0.506173 0
M  V30 4577 H 429.648 -2.40581 -3.45975 0
M  V30 4578 H 428.372 -1.24355 -3.01999 0
M  V30 4579 H 427.031 -3.0959 -1.9634 0
M  V30 4580 H 426.679 -2.49762 -4.3661 0
M  V30 4581 H 426.379 -4.22995 -4.07859 0
M  V30 4582 H 427.903 -3.70796 -4.85121 0
M  V30 4583 H 429.317 -4.92553 -2.93368 0
M  V30 4584 H 427.714 -5.5032 -2.39306 0
M  V30 4585 H 428.784 -4.68828 -1.23807 0
M  V30 4586 N 430.127 0.543554 -1.4793 0
M  V30 4587 C 431.376 1.29649 -1.54512 0
M  V30 4588 C 431.689 1.94382 -0.217973 0
M  V30 4589 O 432.895 2.71017 -0.161908 0
M  V30 4590 C 431.351 2.35175 -2.72435 0
M  V30 4591 C 430.959 1.76572 -4.11736 0
M  V30 4592 C 432.703 3.11564 -2.8832 0
M  V30 4593 C 430.61 2.79958 -5.20939 0
M  V30 4594 H 429.54 0.487541 -0.57517 0
M  V30 4595 H 432.191 0.575708 -1.74235 0
M  V30 4596 H 430.573 3.10229 -2.46118 0
M  V30 4597 H 431.747 1.07799 -4.48013 0
M  V30 4598 H 430.062 1.12722 -4.00852 0
M  V30 4599 H 432.659 3.88794 -3.67074 0
M  V30 4600 H 433.002 3.66594 -1.97268 0
M  V30 4601 H 433.535 2.43623 -3.14472 0
M  V30 4602 H 430.274 2.29766 -6.13912 0
M  V30 4603 H 429.794 3.47101 -4.89164 0
M  V30 4604 H 431.473 3.43198 -5.48474 0
M  V30 4605 N 431.605 1.3629 0.791371 0
M  V30 4606 C 432.851 1.30605 1.55146 0
M  V30 4607 C 433.184 -0.115042 1.93859 0
M  V30 4608 O 432.459 -1.06798 1.62556 0
M  V30 4609 C 432.742 2.22692 2.82985 0
M  V30 4610 C 432.595 3.73489 2.50651 0
M  V30 4611 C 433.914 2.13588 3.84796 0
M  V30 4612 H 431.033 0.475761 0.562868 0
M  V30 4613 H 433.675 1.66825 0.909358 0
M  V30 4614 H 431.825 1.91933 3.37778 0
M  V30 4615 H 433.497 4.14758 2.01924 0
M  V30 4616 H 431.74 3.93021 1.83622 0
M  V30 4617 H 432.411 4.3333 3.41949 0
M  V30 4618 H 434.887 2.40659 3.39445 0
M  V30 4619 H 433.763 2.80195 4.71998 0
M  V30 4620 H 434.024 1.12256 4.27611 0
M  V30 4621 N 433.083 -1.0153 1.20538 0
M  V30 4622 C 434.308 -1.79283 1.04271 0
M  V30 4623 C 434.733 -1.8372 -0.403544 0
M  V30 4624 O 434.091 -1.27321 -1.2907 0
M  V30 4625 C 434.139 -3.21535 1.63241 0
M  V30 4626 O 433.243 -4.03099 0.870908 0
M  V30 4627 H 432.584 -0.55293 0.367647 0
M  V30 4628 H 435.114 -1.27696 1.59859 0
M  V30 4629 H 435.124 -3.72243 1.6703 0
M  V30 4630 H 433.799 -3.1762 2.68497 0
M  V30 4631 H 432.376 -3.61693 0.907323 0
M  V30 4632 N 434.561 -1.01147 -1.20859 0
M  V30 4633 C 435.786 -0.716698 -1.94623 0
M  V30 4634 C 436.211 0.715415 -1.73964 0
M  V30 4635 O 435.569 1.49157 -1.03062 0
M  V30 4636 C 435.617 -1.0513 -3.44935 0
M  V30 4637 O 434.721 -0.160131 -4.12089 0
M  V30 4638 H 434.062 -0.266404 -0.608214 0
M  V30 4639 H 436.592 -1.35346 -1.53436 0
M  V30 4640 H 436.602 -1.00086 -3.95533 0
M  V30 4641 H 435.277 -2.09475 -3.59295 0
M  V30 4642 H 433.854 -0.267657 -3.71938 0
M  V30 4643 N 436.039 1.36541 -0.78704 0
M  V30 4644 C 437.002 2.28413 -0.189778 0
M  V30 4645 C 438.002 1.48719 0.611499 0
M  V30 4646 O 439.192 1.68737 0.432842 0
M  V30 4647 C 436.324 3.32824 0.737638 0
M  V30 4648 H 437.517 2.82743 -0.999831 0
M  V30 4649 H 435.07 1.46065 -0.556298 0
M  V30 4650 H 435.805 2.83646 1.57212 0
M  V30 4651 H 435.59 3.91752 0.165044 0
M  V30 4652 H 437.08 4.0144 1.15047 0
M  V30 4653 N 437.518 0.538854 1.48102 0
M  V30 4654 C 438.481 -0.208395 2.28251 0
M  V30 4655 C 439.481 -0.859656 1.35892 0
M  V30 4656 O 440.671 -0.71834 1.58699 0
M  V30 4657 C 437.803 -1.30252 3.15035 0
M  V30 4658 H 438.996 0.495407 2.9578 0
M  V30 4659 H 436.549 0.295112 1.53489 0
M  V30 4660 H 437.284 -2.0393 2.52157 0
M  V30 4661 H 437.069 -0.840551 3.82985 0
M  V30 4662 H 438.559 -1.82787 3.75471 0
M  V30 4663 N 438.996 -1.55193 0.274407 0
M  V30 4664 C 440.236 -2.01488 -0.343778 0
M  V30 4665 C 440.6 -1.1586 -1.53103 0
M  V30 4666 O 441.801 -1.51732 -2.2188 0
M  V30 4667 C 440.072 -3.50134 -0.717021 0
M  V30 4668 S 441.631 -4.18417 -1.32184 0
M  V30 4669 H 438.449 -0.70291 -0.106948 0
M  V30 4670 H 441.051 -1.91446 0.396075 0
M  V30 4671 H 439.755 -4.10104 0.155947 0
M  V30 4672 H 439.286 -3.64159 -1.48835 0
M  V30 4673 H 441.301 -4.21984 -2.61044 0
M  V30 4674 N 440.474 -0.00167713 -1.576 0
M  V30 4675 C 441.714 0.687302 -1.92498 0
M  V30 4676 C 442.078 1.70844 -0.876144 0
M  V30 4677 O 443.279 2.44792 -1.11043 0
M  V30 4678 C 441.55 1.31217 -3.32441 0
M  V30 4679 S 443.109 2.02604 -3.89226 0
M  V30 4680 H 439.927 0.226985 -0.673794 0
M  V30 4681 H 442.529 -0.0587666 -1.95412 0
M  V30 4682 H 441.233 0.556164 -4.06614 0
M  V30 4683 H 440.764 2.09613 -3.32905 0
M  V30 4684 H 442.779 3.30137 -3.70438 0
M  V30 4685 N 441.952 1.55251 0.271103 0
M  V30 4686 C 443.2 1.75599 1.00047 0
M  V30 4687 C 443.521 0.561188 1.8675 0
M  V30 4688 O 442.791 -0.423846 1.9126 0
M  V30 4689 H 441.371 0.647562 0.372387 0
M  V30 4690 H 444.033 1.92656 0.294876 0
M  V30 4691 H 443.129 2.65766 1.6363 0
M  V30 4692 N 443.43 -0.535701 1.48216 0
M  V30 4693 C 444.679 -1.28828 1.55197 0
M  V30 4694 C 444.992 -1.94263 0.228278 0
M  V30 4695 O 446.198 -2.70927 0.176278 0
M  V30 4696 C 444.654 -2.33727 2.73678 0
M  V30 4697 C 444.262 -1.74386 4.12666 0
M  V30 4698 C 446.006 -3.1003 2.89968 0
M  V30 4699 C 443.913 -2.77192 5.22416 0
M  V30 4700 H 442.843 -0.484484 0.577747 0
M  V30 4701 H 445.494 -0.56646 1.74538 0
M  V30 4702 H 443.876 -3.08919 2.4776 0
M  V30 4703 H 445.05 -1.05421 4.48579 0
M  V30 4704 H 443.365 -1.10595 4.01445 0
M  V30 4705 H 445.962 -3.86842 3.6913 0
M  V30 4706 H 446.305 -3.65542 1.9921 0
M  V30 4707 H 446.838 -2.41952 3.15759 0
M  V30 4708 H 443.577 -2.26507 6.15122 0
M  V30 4709 H 443.097 -3.44502 4.90998 0
M  V30 4710 H 444.776 -3.40285 5.50286 0
M  V30 4711 N 444.908 -1.36708 -0.784132 0
M  V30 4712 C 446.154 -1.31426 -1.54451 0
M  V30 4713 C 446.487 0.10476 -1.93917 0
M  V30 4714 O 445.762 1.05934 -1.6312 0
M  V30 4715 C 446.045 -2.24189 -2.818 0
M  V30 4716 C 445.898 -3.74813 -2.48667 0
M  V30 4717 C 447.217 -2.15626 -3.83658 0
M  V30 4718 H 444.336 -0.478739 -0.560337 0
M  V30 4719 H 446.978 -1.67305 -0.900498 0
M  V30 4720 H 445.128 -1.93722 -3.36755 0
M  V30 4721 H 446.8 -4.15823 -1.99722 0
M  V30 4722 H 445.043 -3.93989 -1.81535 0
M  V30 4723 H 445.714 -4.35138 -3.39646 0
M  V30 4724 H 448.19 -2.42456 -3.38163 0
M  V30 4725 H 447.066 -2.82694 -4.70506 0
M  V30 4726 H 447.327 -1.14522 -4.27009 0
M  V30 4727 N 446.386 1.0089 -1.21074 0
M  V30 4728 C 447.319 2.09279 -0.909806 0
M  V30 4729 C 448.297 1.61986 0.141145 0
M  V30 4730 O 449.481 1.88495 0.0130332 0
M  V30 4731 C 446.608 3.36723 -0.365374 0
M  V30 4732 C 445.654 4.02919 -1.39852 0
M  V30 4733 S 446.487 4.45835 -2.96633 0
M  V30 4734 C 447.643 5.76471 -2.43786 0
M  V30 4735 H 447.876 2.34484 -1.82769 0
M  V30 4736 H 445.409 1.14115 -1.04006 0
M  V30 4737 H 447.367 4.10459 -0.0578203 0
M  V30 4738 H 446.028 3.09577 0.531136 0
M  V30 4739 H 445.221 4.94634 -0.967117 0
M  V30 4740 H 444.823 3.35441 -1.65395 0
M  V30 4741 H 447.115 6.52027 -1.84029 0
M  V30 4742 H 448.058 6.24418 -3.33928 0
M  V30 4743 H 448.466 5.33104 -1.85636 0
M  V30 4744 N 447.864 1.01787 1.20321 0
M  V30 4745 C 449.111 0.707936 1.89722 0
M  V30 4746 C 449.439 -0.762535 1.78929 0
M  V30 4747 O 448.694 -1.56977 1.16861 0
M  V30 4748 C 448.993 1.09076 3.40349 0
M  V30 4749 C 448.659 2.55765 3.71342 0
M  V30 4750 C 447.321 2.95845 3.79511 0
M  V30 4751 C 449.673 3.50723 3.85542 0
M  V30 4752 C 447.001 4.2982 3.99339 0
M  V30 4753 C 449.353 4.84387 4.06881 0
M  V30 4754 C 448.017 5.24172 4.1328 0
M  V30 4755 H 447.287 0.259052 0.694243 0
M  V30 4756 H 449.934 1.27868 1.42555 0
M  V30 4757 H 448.239 0.438453 3.89339 0
M  V30 4758 H 449.936 0.828636 3.92345 0
M  V30 4759 H 446.526 2.2371 3.65584 0
M  V30 4760 H 450.71 3.20916 3.78585 0
M  V30 4761 H 445.966 4.60196 4.02529 0
M  V30 4762 H 450.14 5.57891 4.1681 0
M  V30 4763 H 447.767 6.27997 4.28396 0
M  V30 4764 N 449.342 -1.36122 0.79427 0
M  V30 4765 C 450.588 -1.99406 0.369452 0
M  V30 4766 C 450.921 -1.62886 -1.05743 0
M  V30 4767 O 450.196 -0.886053 -1.73145 0
M  V30 4768 C 450.479 -3.56046 0.538833 0
M  V30 4769 C 450.332 -4.02404 2.00976 0
M  V30 4770 C 451.651 -4.40079 -0.0431359 0
M  V30 4771 H 448.77 -0.724397 0.135712 0
M  V30 4772 H 451.412 -1.61461 1.00151 0
M  V30 4773 H 449.562 -3.885 0.000771004 0
M  V30 4774 H 451.234 -3.80415 2.60926 0
M  V30 4775 H 449.477 -3.53765 2.51063 0
M  V30 4776 H 450.148 -5.11344 2.07922 0
M  V30 4777 H 452.624 -4.14013 0.416228 0
M  V30 4778 H 451.5 -5.48799 0.105374 0
M  V30 4779 H 451.761 -4.27264 -1.13571 0
M  V30 4780 N 450.82 -0.546701 -1.47814 0
M  V30 4781 C 452.067 -0.0187407 -2.02491 0
M  V30 4782 C 452.395 1.32685 -1.42215 0
M  V30 4783 O 451.65 1.87413 -0.563454 0
M  V30 4784 C 451.949 0.134869 -3.57145 0
M  V30 4785 C 451.615 -1.13849 -4.3629 0
M  V30 4786 C 450.277 -1.48743 -4.57634 0
M  V30 4787 C 452.629 -1.98277 -4.82012 0
M  V30 4788 C 449.957 -2.67932 -5.21948 0
M  V30 4789 C 452.309 -3.16659 -5.4764 0
M  V30 4790 C 450.973 -3.51879 -5.67219 0
M  V30 4791 H 450.243 -0.0068577 -0.740968 0
M  V30 4792 H 452.89 -0.716097 -1.77607 0
M  V30 4793 H 451.195 0.915118 -3.80963 0
M  V30 4794 H 452.892 0.558556 -3.97091 0
M  V30 4795 H 449.482 -0.856767 -4.19949 0
M  V30 4796 H 453.666 -1.72628 -4.6531 0
M  V30 4797 H 448.922 -2.95401 -5.35302 0
M  V30 4798 H 453.096 -3.82374 -5.82033 0
M  V30 4799 H 450.723 -4.44331 -6.16825 0
M  V30 4800 N 452.299 1.55045 -0.282633 0
M  V30 4801 C 453.529 2.03872 0.334635 0
M  V30 4802 C 453.937 1.16018 1.49454 0
M  V30 4803 O 453.28 0.174449 1.8287 0
M  V30 4804 C 453.342 3.48791 0.870905 0
M  V30 4805 C 453.006 4.56715 -0.161338 0
M  V30 4806 C 454.003 5.10513 -0.983466 0
M  V30 4807 C 451.688 5.01417 -0.297745 0
M  V30 4808 C 453.682 6.07538 -1.92811 0
M  V30 4809 C 451.369 5.98265 -1.24586 0
M  V30 4810 C 452.367 6.51208 -2.05954 0
M  V30 4811 O 452.055 7.46162 -2.99162 0
M  V30 4812 H 451.787 0.671324 0.0793742 0
M  V30 4813 H 454.341 2.01169 -0.41473 0
M  V30 4814 H 452.571 3.48758 1.67047 0
M  V30 4815 H 454.26 3.80916 1.40207 0
M  V30 4816 H 455.026 4.76785 -0.888856 0
M  V30 4817 H 450.905 4.59849 0.325604 0
M  V30 4818 H 454.449 6.48787 -2.56363 0
M  V30 4819 H 450.346 6.31412 -1.34126 0
M  V30 4820 H 451.114 7.63903 -2.93929 0
M  V30 4821 N 453.777 0.010035 1.57597 0
M  V30 4822 C 455.005 -0.683413 1.95287 0
M  V30 4823 C 455.42 -1.66747 0.885481 0
M  V30 4824 O 454.777 -1.82003 -0.134629 0
M  V30 4825 C 454.828 -1.40652 3.33015 0
M  V30 4826 O 454.549 -0.461916 4.35658 0
M  V30 4827 C 456.05 -2.19356 3.85225 0
M  V30 4828 H 453.27 -0.189708 0.643624 0
M  V30 4829 H 455.814 0.0641359 2.04399 0
M  V30 4830 H 453.969 -2.10562 3.2518 0
M  V30 4831 H 454.383 -0.973215 5.15392 0
M  V30 4832 H 455.857 -2.65433 4.83993 0
M  V30 4833 H 456.334 -3.02457 3.18459 0
M  V30 4834 H 456.94 -1.54442 3.96267 0
M  V30 4835 N 455.255 -1.55392 -0.262866 0
M  V30 4836 C 456.532 -1.67204 -1.01499 0
M  V30 4837 C 456.912 -0.545186 -2.03939 0
M  V30 4838 O 456.26 0.453467 -2.23955 0
M  V30 4839 C 456.47 -3.06847 -1.6627 0
M  V30 4840 C 457.818 -3.64928 -2.17054 0
M  V30 4841 O 458.842 -3.09545 -1.76239 0
M  V30 4842 O 457.701 -4.61984 -2.91947 0
M  V30 4843 H 454.795 -0.679467 -0.471438 0
M  V30 4844 H 457.341 -1.67729 -0.257918 0
M  V30 4845 H 456.113 -3.80309 -0.920915 0
M  V30 4846 H 455.736 -3.10266 -2.48638 0
M  V30 4847 N 456.733 0.527833 -1.48498 0
M  V30 4848 C 457.973 1.29401 -1.58224 0
M  V30 4849 C 458.337 1.90348 -0.251327 0
M  V30 4850 O 459.538 2.67868 -0.223588 0
M  V30 4851 C 457.809 2.35266 -2.69044 0
M  V30 4852 S 459.368 3.2158 -2.98549 0
M  V30 4853 H 456.186 0.440138 -0.558391 0
M  V30 4854 H 458.788 0.601079 -1.8603 0
M  V30 4855 H 457.492 1.88975 -3.64303 0
M  V30 4856 H 457.023 3.09263 -2.43146 0
M  V30 4857 H 459.038 4.35391 -2.38011 0
M  V30 4858 N 458.211 1.37122 0.776871 0
M  V30 4859 C 459.488 1.22586 1.52421 0
M  V30 4860 C 459.868 -0.182726 2.10308 0
M  V30 4861 O 459.216 -1.18979 1.9508 0
M  V30 4862 C 459.426 2.31782 2.60918 0
M  V30 4863 C 460.774 2.69071 3.2846 0
M  V30 4864 O 461.798 2.3092 2.71209 0
M  V30 4865 O 460.657 3.3478 4.31954 0
M  V30 4866 H 457.751 0.478045 0.674835 0
M  V30 4867 H 460.297 1.48888 0.814275 0
M  V30 4868 H 459.069 3.26131 2.16227 0
M  V30 4869 H 458.692 2.06916 3.39517 0
M  V30 4870 N 459.689 -1.00246 1.21608 0
M  V30 4871 C 461.1 -1.55511 1.03312 0
M  V30 4872 C 461.451 -1.91946 -0.406332 0
M  V30 4873 O 460.576 -1.73753 -1.28992 0
M  V30 4874 C 461.171 -2.82576 1.86913 0
M  V30 4875 C 459.73 -3.34318 1.72941 0
M  V30 4876 C 458.877 -2.07487 1.83968 0
M  V30 4877 H 461.828 -0.824638 1.35593 0
M  V30 4878 H 461.849 -3.54559 1.38087 0
M  V30 4879 H 461.361 -2.56026 2.91672 0
M  V30 4880 H 459.462 -3.65797 0.70877 0
M  V30 4881 H 459.575 -4.05566 2.55055 0
M  V30 4882 H 457.939 -2.20603 1.27304 0
M  V30 4883 H 458.722 -1.83346 2.9024 0
M  V30 4884 N 461.167 -1.02423 -1.1978 0
M  V30 4885 C 462.097 -0.62157 -2.25075 0
M  V30 4886 C 463.078 0.367148 -1.6609 0
M  V30 4887 O 464.263 0.250892 -1.92573 0
M  V30 4888 C 461.393 0.0331826 -3.47284 0
M  V30 4889 C 460.347 -0.877323 -4.18912 0
M  V30 4890 C 459.673 -0.0879296 -5.34628 0
M  V30 4891 C 460.973 -2.18892 -4.74219 0
M  V30 4892 H 462.667 -1.50179 -2.59011 0
M  V30 4893 H 460.213 -0.723547 -1.24502 0
M  V30 4894 H 462.166 0.326488 -4.20133 0
M  V30 4895 H 460.89 0.948164 -3.12534 0
M  V30 4896 H 459.549 -1.15475 -3.47938 0
M  V30 4897 H 459.197 0.828941 -4.96123 0
M  V30 4898 H 458.897 -0.694359 -5.83483 0
M  V30 4899 H 460.421 0.198743 -6.10276 0
M  V30 4900 H 461.835 -1.95746 -5.38847 0
M  V30 4901 H 460.232 -2.74686 -5.33542 0
M  V30 4902 H 461.302 -2.84674 -3.92541 0
M  V30 4903 N 462.645 1.35699 -0.801477 0
M  V30 4904 C 463.575 2.32436 -0.222658 0
M  V30 4905 C 464.556 1.5723 0.649057 0
M  V30 4906 O 465.741 1.85324 0.580387 0
M  V30 4907 C 462.871 3.41469 0.633719 0
M  V30 4908 C 461.825 4.27774 -0.139083 0
M  V30 4909 C 461.151 5.28082 0.838666 0
M  V30 4910 C 462.451 5.04946 -1.33517 0
M  V30 4911 H 464.145 2.81094 -1.03086 0
M  V30 4912 H 461.691 1.35146 -0.497155 0
M  V30 4913 H 463.644 4.08143 1.04868 0
M  V30 4914 H 462.368 2.91408 1.47475 0
M  V30 4915 H 461.027 3.62673 -0.535156 0
M  V30 4916 H 460.675 4.7429 1.67506 0
M  V30 4917 H 460.375 5.86695 0.32594 0
M  V30 4918 H 461.899 5.97628 1.25194 0
M  V30 4919 H 463.313 5.64593 -0.995349 0
M  V30 4920 H 461.71 5.7303 -1.78202 0
M  V30 4921 H 462.78 4.35886 -2.12442 0
M  V30 4922 N 464.123 0.554532 1.47522 0
M  V30 4923 C 465.053 -0.182974 2.32782 0
M  V30 4924 C 466.034 -0.911377 1.43624 0
M  V30 4925 O 467.219 -0.892366 1.72483 0
M  V30 4926 C 464.349 -1.21513 3.25349 0
M  V30 4927 C 463.303 -0.603355 4.23726 0
M  V30 4928 C 462.629 -1.73995 5.05598 0
M  V30 4929 C 463.929 0.441121 5.20434 0
M  V30 4930 H 465.623 0.52882 2.94693 0
M  V30 4931 H 463.169 0.255759 1.41711 0
M  V30 4932 H 465.122 -1.73922 3.83835 0
M  V30 4933 H 463.846 -1.95683 2.61487 0
M  V30 4934 H 462.505 -0.10059 3.66462 0
M  V30 4935 H 462.153 -2.47063 4.38143 0
M  V30 4936 H 461.853 -1.3364 5.72201 0
M  V30 4937 H 463.377 -2.26735 5.66942 0
M  V30 4938 H 464.791 0.00319931 5.733 0
M  V30 4939 H 463.188 0.763402 5.95224 0
M  V30 4940 H 464.258 1.33799 4.66075 0
M  V30 4941 N 465.601 -1.54893 0.290851 0
M  V30 4942 C 466.849 -1.99538 -0.320756 0
M  V30 4943 C 467.17 -1.18075 -1.55188 0
M  V30 4944 O 466.44 -0.274162 -1.93972 0
M  V30 4945 H 465.02 -0.737052 -0.121507 0
M  V30 4946 H 467.682 -1.90755 0.399832 0
M  V30 4947 H 466.778 -3.06282 -0.599802 0
M  V30 4948 N 467.08 -0.0183926 -1.57589 0
M  V30 4949 C 468.496 0.337897 -1.55982 0
M  V30 4950 C 468.696 1.73604 -1.02294 0
M  V30 4951 O 467.752 2.43589 -0.664895 0
M  V30 4952 C 469.065 0.196305 -3.00059 0
M  V30 4953 C 470.613 0.269875 -3.11834 0
M  V30 4954 C 471.088 0.157197 -4.5773 0
M  V30 4955 N 472.579 0.214521 -4.62703 0
M  V30 4956 C 473.314 0.150955 -5.73201 0
M  V30 4957 N 472.81 0.0369212 -6.9279 0
M  V30 4958 N 474.603 0.204162 -5.61729 0
M  V30 4959 H 466.754 -0.93279 -1.90821 0
M  V30 4960 H 469.017 -0.359253 -0.877292 0
M  V30 4961 H 468.723 -0.766383 -3.43248 0
M  V30 4962 H 468.597 0.970908 -3.6449 0
M  V30 4963 H 470.984 1.22302 -2.68563 0
M  V30 4964 H 471.065 -0.534918 -2.50144 0
M  V30 4965 H 470.709 -0.792479 -5.01679 0
M  V30 4966 H 470.639 0.980717 -5.17387 0
M  V30 4967 H 473.13 0.303238 -3.76681 0
M  V30 4968 H 473.443 -0.00518321 -7.728 0
M  V30 4969 H 471.788 0.0022886 -6.95 0
M  V30 4970 H 474.979 0.291575 -4.67191 0
M  V30 4971 H 475.152 0.15116 -6.47824 0
M  V30 4972 N 468.558 1.5553 0.254621 0
M  V30 4973 C 469.807 1.76202 0.981612 0
M  V30 4974 C 470.12 0.580883 1.86776 0
M  V30 4975 O 471.326 0.670448 2.63092 0
M  V30 4976 C 469.782 3.11921 1.79537 0
M  V30 4977 C 469.39 4.37659 0.956991 0
M  V30 4978 C 471.134 3.41936 2.51555 0
M  V30 4979 C 469.041 5.64411 1.76619 0
M  V30 4980 H 467.971 0.656841 0.370237 0
M  V30 4981 H 470.622 1.81969 0.236556 0
M  V30 4982 H 469.004 3.00241 2.58208 0
M  V30 4983 H 470.178 4.60307 0.21315 0
M  V30 4984 H 468.493 4.14922 0.350497 0
M  V30 4985 H 471.09 4.33849 3.12536 0
M  V30 4986 H 471.433 2.62905 3.22779 0
M  V30 4987 H 471.966 3.54797 1.799 0
M  V30 4988 H 468.705 6.46241 1.09783 0
M  V30 4989 H 468.225 5.45877 2.48551 0
M  V30 4990 H 469.904 6.03386 2.33527 0
M  V30 4991 N 470.036 -0.519951 1.48776 0
M  V30 4992 C 471.261 -1.30447 1.6124 0
M  V30 4993 C 471.686 -1.86055 0.276591 0
M  V30 4994 O 471.044 -1.64915 -0.753183 0
M  V30 4995 C 471.092 -2.42406 2.66967 0
M  V30 4996 O 470.196 -3.45728 2.24824 0
M  V30 4997 H 469.537 -0.385924 0.540332 0
M  V30 4998 H 472.067 -0.624572 1.94834 0
M  V30 4999 H 472.077 -2.88447 2.88552 0
M  V30 5000 H 470.752 -2.01294 3.63941 0
M  V30 5001 H 469.329 -3.05737 2.13494 0
M  V30 5002 N 471.514 -1.37532 -0.769588 0
M  V30 5003 C 472.477 -1.33292 -1.86456 0
M  V30 5004 C 473.477 -0.236537 -1.59051 0
M  V30 5005 O 474.667 -0.492511 -1.67093 0
M  V30 5006 C 471.799 -1.07118 -3.23633 0
M  V30 5007 H 472.992 -2.30692 -1.91628 0
M  V30 5008 H 470.545 -1.22593 -0.969572 0
M  V30 5009 H 471.28 -0.102578 -3.24138 0
M  V30 5010 H 471.065 -1.86479 -3.44917 0
M  V30 5011 H 472.555 -1.06806 -4.03711 0
M  V30 5012 N 472.992 0.995999 -1.22138 0
M  V30 5013 C 474.403 1.54961 -1.04135 0
M  V30 5014 C 474.754 1.92159 0.396147 0
M  V30 5015 O 473.879 1.74435 1.28069 0
M  V30 5016 C 474.474 2.81581 -1.88408 0
M  V30 5017 C 473.033 3.33396 -1.74712 0
M  V30 5018 C 472.18 2.06509 -1.85066 0
M  V30 5019 H 475.131 0.817436 -1.36028 0
M  V30 5020 H 475.152 3.53822 -1.39966 0
M  V30 5021 H 474.664 2.54476 -2.93025 0
M  V30 5022 H 472.765 3.65416 -0.728159 0
M  V30 5023 H 472.878 4.04208 -2.57202 0
M  V30 5024 H 471.242 2.19925 -1.28472 0
M  V30 5025 H 472.025 1.81804 -2.91208 0
M  V30 5026 N 474.47 1.03057 1.19235 0
M  V30 5027 C 475.747 0.642608 1.84743 0
M  V30 5028 C 476.127 -0.878577 1.91948 0
M  V30 5029 O 475.475 -1.77597 1.43776 0
M  V30 5030 C 475.685 1.30665 3.23616 0
M  V30 5031 C 477.033 1.43098 3.9976 0
M  V30 5032 O 478.057 1.26396 3.3302 0
M  V30 5033 O 476.916 1.70223 5.19313 0
M  V30 5034 H 474.01 0.223573 0.796206 0
M  V30 5035 H 476.556 1.12883 1.26711 0
M  V30 5036 H 475.328 2.34544 3.13217 0
M  V30 5037 H 474.951 0.808405 3.89295 0
M  V30 5038 N 475.948 -1.35272 0.808662 0
M  V30 5039 C 476.88 -2.28507 0.178149 0
M  V30 5040 C 477.893 -1.50377 -0.623754 0
M  V30 5041 O 479.082 -1.72583 -0.455774 0
M  V30 5042 C 476.182 -3.30038 -0.769959 0
M  V30 5043 C 475.355 -4.37398 -0.0139749 0
M  V30 5044 C 474.414 -5.18775 -0.880875 0
M  V30 5045 O 473.44 -5.68236 -0.331059 0
M  V30 5046 N 474.642 -5.37087 -2.20267 0
M  V30 5047 H 477.407 -2.83255 0.979106 0
M  V30 5048 H 474.968 -1.47643 0.664308 0
M  V30 5049 H 476.96 -3.81371 -1.35418 0
M  V30 5050 H 475.53 -2.75789 -1.47171 0
M  V30 5051 H 474.75 -3.86971 0.751468 0
M  V30 5052 H 476.038 -5.06268 0.506965 0
M  V30 5053 H 475.436 -4.9855 -2.67328 0
M  V30 5054 H 473.993 -5.91593 -2.73608 0
M  V30 5055 N 477.426 -0.562348 -1.47226 0
M  V30 5056 C 478.656 -0.0451619 -2.06551 0
M  V30 5057 C 479.064 1.25626 -1.41473 0
M  V30 5058 O 478.407 1.76563 -0.507061 0
M  V30 5059 C 478.469 0.216068 -3.5885 0
M  V30 5060 C 478.133 -0.996691 -4.45999 0
M  V30 5061 C 479.13 -1.90358 -4.83797 0
M  V30 5062 C 476.815 -1.21281 -4.87438 0
M  V30 5063 C 478.809 -3.01023 -5.6184 0
M  V30 5064 C 476.496 -2.32255 -5.65244 0
M  V30 5065 C 477.494 -3.21956 -6.02356 0
M  V30 5066 O 477.182 -4.31005 -6.78594 0
M  V30 5067 H 476.914 -0.0451646 -0.67449 0
M  V30 5068 H 479.468 -0.776842 -1.90143 0
M  V30 5069 H 477.698 1.00212 -3.7349 0
M  V30 5070 H 479.387 0.679264 -4.00176 0
M  V30 5071 H 480.153 -1.74868 -4.52378 0
M  V30 5072 H 476.032 -0.523767 -4.58015 0
M  V30 5073 H 479.576 -3.71064 -5.90726 0
M  V30 5074 H 475.473 -2.47715 -5.96077 0
M  V30 5075 H 476.241 -4.29118 -6.96994 0
M  V30 5076 N 478.904 1.54736 -0.299062 0
M  V30 5077 C 479.837 2.1962 0.619851 0
M  V30 5078 C 480.815 1.16496 1.13434 0
M  V30 5079 O 481.999 1.4513 1.2029 0
M  V30 5080 C 479.126 2.8385 1.84788 0
M  V30 5081 C 478.172 4.00484 1.46679 0
M  V30 5082 S 479.005 5.32926 0.524389 0
M  V30 5083 C 480.161 6.00638 1.76026 0
M  V30 5084 H 480.394 2.97221 0.0686177 0
M  V30 5085 H 477.927 1.54176 -0.0832085 0
M  V30 5086 H 479.885 3.21483 2.55263 0
M  V30 5087 H 478.546 2.06099 2.37028 0
M  V30 5088 H 477.739 4.44201 2.38121 0
M  V30 5089 H 477.341 3.64398 0.842008 0
M  V30 5090 H 479.633 6.21327 2.70109 0
M  V30 5091 H 480.576 6.94805 1.36569 0
M  V30 5092 H 480.984 5.3026 1.93609 0
M  V30 5093 N 480.382 0.0267497 1.57577 0
M  V30 5094 C 481.793 -0.512413 1.79531 0
M  V30 5095 C 482.144 -1.72391 0.936791 0
M  V30 5096 O 481.269 -2.15903 0.146543 0
M  V30 5097 C 481.864 -0.936378 3.25603 0
M  V30 5098 C 480.423 -1.42067 3.4856 0
M  V30 5099 C 479.57 -0.384278 2.74624 0
M  V30 5100 H 482.521 0.252797 1.56674 0
M  V30 5101 H 482.542 -1.80088 3.35184 0
M  V30 5102 H 482.054 -0.0544332 3.88062 0
M  V30 5103 H 480.155 -2.32262 2.9135 0
M  V30 5104 H 480.268 -1.42968 4.57271 0
M  V30 5105 H 478.632 -0.851855 2.40032 0
M  V30 5106 H 479.415 0.489159 3.39797 0
M  V30 5107 N 481.861 -1.55662 -0.24637 0
M  V30 5108 C 482.791 -1.93377 -1.30873 0
M  V30 5109 C 483.772 -0.798773 -1.50179 0
M  V30 5110 O 484.957 -1.0591 -1.62778 0
M  V30 5111 C 482.087 -2.22893 -2.66338 0
M  V30 5112 C 481.041 -3.38649 -2.61727 0
M  V30 5113 C 480.367 -3.53708 -4.00992 0
M  V30 5114 C 481.667 -4.74323 -2.18666 0
M  V30 5115 H 483.361 -2.82363 -0.995552 0
M  V30 5116 H 480.907 -1.35854 -0.477464 0
M  V30 5117 H 482.86 -2.47866 -3.40794 0
M  V30 5118 H 481.584 -1.30733 -2.99293 0
M  V30 5119 H 480.243 -3.13685 -1.89729 0
M  V30 5120 H 479.891 -2.58967 -4.31214 0
M  V30 5121 H 479.591 -4.31551 -3.98795 0
M  V30 5122 H 481.115 -3.81003 -4.77147 0
M  V30 5123 H 482.529 -4.98665 -2.82854 0
M  V30 5124 H 480.926 -5.55273 -2.27579 0
M  V30 5125 H 481.996 -4.71349 -1.13834 0
M  V30 5126 N 483.339 0.512053 -1.4905 0
M  V30 5127 C 484.269 1.62365 -1.67809 0
M  V30 5128 C 485.25 1.61737 -0.526809 0
M  V30 5129 O 486.435 1.78651 -0.761404 0
M  V30 5130 C 483.565 3.00895 -1.73435 0
M  V30 5131 C 482.519 3.16387 -2.88242 0
M  V30 5132 C 481.845 4.56157 -2.78971 0
M  V30 5133 C 483.145 2.97457 -4.29321 0
M  V30 5134 H 484.839 1.46921 -2.60873 0
M  V30 5135 H 482.385 0.705379 -1.2554 0
M  V30 5136 H 484.338 3.78549 -1.85145 0
M  V30 5137 H 483.062 3.17403 -0.769619 0
M  V30 5138 H 481.721 2.41155 -2.76116 0
M  V30 5139 H 481.369 4.69525 -1.8043 0
M  V30 5140 H 481.069 4.67465 -3.5602 0
M  V30 5141 H 482.593 5.35886 -2.92675 0
M  V30 5142 H 484.007 3.64888 -4.42187 0
M  V30 5143 H 482.404 3.20245 -5.07507 0
M  V30 5144 H 483.474 1.93692 -4.44535 0
M  V30 5145 N 484.817 1.37938 0.762283 0
M  V30 5146 C 486.063 1.33866 1.52341 0
M  V30 5147 C 486.396 -0.0738961 1.94059 0
M  V30 5148 O 485.671 -1.03326 1.64785 0
M  V30 5149 C 485.954 2.28644 2.78197 0
M  V30 5150 C 485.807 3.78722 2.42672 0
M  V30 5151 C 487.126 2.21702 3.80179 0
M  V30 5152 H 484.245 0.487593 0.55265 0
M  V30 5153 H 486.887 1.68717 0.873767 0
M  V30 5154 H 485.037 1.99055 3.33631 0
M  V30 5155 H 486.709 4.18948 1.93081 0
M  V30 5156 H 484.952 3.96827 1.75244 0
M  V30 5157 H 485.623 4.40486 3.3268 0
M  V30 5158 H 488.099 2.47805 3.34263 0
M  V30 5159 H 486.975 2.90143 4.65949 0
M  V30 5160 H 487.236 1.21301 4.25133 0
M  V30 5161 N 486.295 -0.989507 1.22664 0
M  V30 5162 C 487.225 -2.09847 1.02404 0
M  V30 5163 C 488.206 -1.70007 -0.0561303 0
M  V30 5164 O 489.391 -1.93906 0.106748 0
M  V30 5165 C 486.521 -3.41996 0.604663 0
M  V30 5166 C 485.475 -3.95699 1.63115 0
M  V30 5167 C 484.801 -5.23936 1.0675 0
M  V30 5168 C 486.101 -4.25999 3.02196 0
M  V30 5169 H 487.795 -2.27054 1.95158 0
M  V30 5170 H 485.341 -1.09111 0.939727 0
M  V30 5171 H 487.294 -4.1899 0.45002 0
M  V30 5172 H 486.018 -3.24626 -0.35855 0
M  V30 5173 H 484.677 -3.2084 1.77362 0
M  V30 5174 H 484.325 -5.02909 0.0955422 0
M  V30 5175 H 484.025 -5.60833 1.75328 0
M  V30 5176 H 485.549 -6.0356 0.924516 0
M  V30 5177 H 486.963 -4.93777 2.91303 0
M  V30 5178 H 485.36 -4.74076 3.67929 0
M  V30 5179 H 486.43 -3.33636 3.51873 0
M  V30 5180 N 487.773 -1.03688 -1.18687 0
M  V30 5181 C 489.05 -0.652397 -1.84399 0
M  V30 5182 C 489.43 0.868386 -1.92412 0
M  V30 5183 O 488.778 1.76832 -1.44716 0
M  V30 5184 C 488.988 -1.3238 -3.22919 0
M  V30 5185 C 490.336 -1.45216 -3.98996 0
M  V30 5186 O 491.36 -1.2816 -3.32345 0
M  V30 5187 O 490.219 -1.72975 -5.18403 0
M  V30 5188 H 487.313 -0.227793 -0.795009 0
M  V30 5189 H 489.859 -1.13553 -1.2611 0
M  V30 5190 H 488.631 -2.36202 -3.11968 0
M  V30 5191 H 488.254 -0.829039 -3.88861 0
M  V30 5192 N 489.251 1.34841 -0.815825 0
M  V30 5193 C 490.5 1.97755 -0.396976 0
M  V30 5194 C 490.813 1.65422 1.04379 0
M  V30 5195 O 492.019 2.21771 1.5662 0
M  V30 5196 C 490.475 3.53818 -0.658869 0
M  V30 5197 C 490.083 3.95051 -2.11278 0
M  V30 5198 C 491.827 4.23397 -0.305834 0
M  V30 5199 C 489.734 5.43997 -2.31994 0
M  V30 5200 H 488.664 0.739985 -0.1447 0
M  V30 5201 H 491.315 1.53781 -1.00118 0
M  V30 5202 H 489.697 3.95997 0.0154112 0
M  V30 5203 H 490.871 3.63998 -2.82564 0
M  V30 5204 H 489.186 3.38388 -2.42657 0
M  V30 5205 H 491.783 5.32899 -0.43854 0
M  V30 5206 H 492.126 4.09508 0.748952 0
M  V30 5207 H 492.659 3.8667 -0.934403 0
M  V30 5208 H 489.398 5.62865 -3.35952 0
M  V30 5209 H 488.918 5.76589 -1.65244 0
M  V30 5210 H 490.597 6.10584 -2.14001 0
M  V30 5211 N 490.729 0.570148 1.46925 0
M  V30 5212 C 491.976 0.0509529 2.02436 0
M  V30 5213 C 492.304 -1.30405 1.44308 0
M  V30 5214 O 491.559 -1.86493 0.593198 0
M  V30 5215 C 491.858 -0.0780336 3.57315 0
M  V30 5216 C 491.524 1.20775 4.34424 0
M  V30 5217 C 490.186 1.56004 4.5521 0
M  V30 5218 C 492.538 2.0592 4.78797 0
M  V30 5219 C 489.866 2.76201 5.17619 0
M  V30 5220 C 492.218 3.25332 5.42533 0
M  V30 5221 C 490.882 3.60859 5.61549 0
M  V30 5222 H 490.152 0.018645 0.740765 0
M  V30 5223 H 492.799 0.744262 1.76445 0
M  V30 5224 H 491.104 -0.854394 3.82371 0
M  V30 5225 H 492.801 -0.495312 3.97929 0
M  V30 5226 H 489.391 0.923469 4.18533 0
M  V30 5227 H 493.575 1.80008 4.62505 0
M  V30 5228 H 488.831 3.0388 5.30535 0
M  V30 5229 H 493.005 3.91586 5.75876 0
M  V30 5230 H 490.632 4.54088 6.09678 0
M  V30 5231 N 492.207 -1.54576 0.307264 0
M  V30 5232 C 493.117 -2.27435 -0.57536 0
M  V30 5233 C 494.133 -1.31183 -1.14311 0
M  V30 5234 O 495.309 -1.64175 -1.16656 0
M  V30 5235 C 492.374 -3.00566 -1.72803 0
M  V30 5236 C 491.435 -4.12369 -1.19373 0
M  V30 5237 C 490.668 -4.82003 -2.29147 0
M  V30 5238 O 490.891 -4.51038 -3.49171 0
M  V30 5239 O 489.825 -5.69271 -1.95485 0
M  V30 5240 H 493.651 -3.03696 0.0158558 0
M  V30 5241 H 491.236 -1.49219 0.0735064 0
M  V30 5242 H 493.118 -3.46416 -2.39946 0
M  V30 5243 H 491.793 -2.27195 -2.30574 0
M  V30 5244 H 490.7 -3.70905 -0.487851 0
M  V30 5245 H 492.033 -4.87736 -0.661376 0
M  V30 5246 N 493.685 -0.035106 -1.57561 0
M  V30 5247 C 494.962 0.681212 -1.83354 0
M  V30 5248 C 495.342 1.89986 -0.920252 0
M  V30 5249 O 494.69 2.28489 0.0226815 0
M  V30 5250 C 494.9 1.05376 -3.32712 0
M  V30 5251 C 496.248 1.44286 -3.99333 0
M  V30 5252 O 497.272 1.14656 -3.37242 0
M  V30 5253 O 496.131 1.99518 -5.08778 0
M  V30 5254 H 493.225 0.334741 -0.756226 0
M  V30 5255 H 495.771 -0.0632448 -1.69582 0
M  V30 5256 H 494.543 0.186668 -3.90854 0
M  V30 5257 H 494.166 1.85619 -3.51613 0
M  V30 5258 N 495.163 1.55791 0.238111 0
M  V30 5259 C 496.093 1.94068 1.29846 0
M  V30 5260 C 497.074 0.806726 1.49753 0
M  V30 5261 O 498.259 1.06772 1.62214 0
M  V30 5262 C 495.389 2.24302 2.65153 0
M  V30 5263 C 494.343 3.40032 2.59927 0
M  V30 5264 C 493.669 3.55829 3.99111 0
M  V30 5265 C 494.969 4.75476 2.16148 0
M  V30 5266 H 496.663 2.82887 0.980563 0
M  V30 5267 H 494.209 1.36105 0.470253 0
M  V30 5268 H 496.162 2.4967 3.39475 0
M  V30 5269 H 494.886 1.32318 2.98596 0
M  V30 5270 H 493.545 3.14687 1.88063 0
M  V30 5271 H 493.193 2.6125 4.29834 0
M  V30 5272 H 492.893 4.3366 3.96501 0
M  V30 5273 H 494.417 3.83528 4.7512 0
M  V30 5274 H 495.831 5.00158 2.80205 0
M  V30 5275 H 494.228 5.56472 2.24631 0
M  V30 5276 H 495.298 4.71946 1.11333 0
M  V30 5277 N 496.642 -0.504142 1.49319 0
M  V30 5278 C 498.053 -1.08572 1.51885 0
M  V30 5279 C 498.404 -1.93842 0.303255 0
M  V30 5280 O 497.529 -2.0828 -0.58724 0
M  V30 5281 C 498.124 -1.97574 2.75227 0
M  V30 5282 C 496.683 -2.509 2.80581 0
M  V30 5283 C 495.83 -1.28447 2.45757 0
M  V30 5284 H 498.781 -0.288194 1.56061 0
M  V30 5285 H 498.802 -2.82219 2.55211 0
M  V30 5286 H 498.314 -1.35486 3.63683 0
M  V30 5287 H 496.415 -3.16636 1.96398 0
M  V30 5288 H 496.528 -2.88268 3.82673 0
M  V30 5289 H 494.892 -1.60868 1.97468 0
M  V30 5290 H 495.675 -0.68072 3.36483 0
M  V30 5291 N 498.12 -1.38341 -0.754957 0
M  V30 5292 C 499.368 -1.34208 -1.51105 0
M  V30 5293 C 499.689 0.0677634 -1.94882 0
M  V30 5294 O 498.959 1.01517 -1.67544 0
M  V30 5295 H 497.539 -0.493819 -0.560493 0
M  V30 5296 H 500.201 -1.73005 -0.897507 0
M  V30 5297 H 499.297 -1.99203 -2.4026 0
M  V30 5298 N 499.598 0.982988 -1.23187 0
M  V30 5299 C 500.844 1.72648 -1.06398 0
M  V30 5300 C 501.177 1.90066 0.398561 0
M  V30 5301 O 500.452 1.45105 1.29518 0
M  V30 5302 C 500.735 3.12627 -1.78707 0
M  V30 5303 C 500.588 3.02795 -3.32618 0
M  V30 5304 C 501.907 4.11997 -1.54747 0
M  V30 5305 H 499.026 0.626649 -0.387918 0
M  V30 5306 H 501.668 1.14455 -1.51658 0
M  V30 5307 H 499.818 3.62308 -1.40234 0
M  V30 5308 H 501.49 2.60659 -3.80598 0
M  V30 5309 H 499.733 2.39362 -3.61785 0
M  V30 5310 H 500.404 4.01893 -3.78399 0
M  V30 5311 H 502.88 3.71114 -1.88186 0
M  V30 5312 H 501.756 5.08037 -2.07821 0
M  V30 5313 H 502.017 4.39462 -0.482249 0
M  V30 5314 N 501.076 1.04316 1.18135 0
M  V30 5315 C 502.487 0.775505 1.69832 0
M  V30 5316 C 502.838 -0.703348 1.8316 0
M  V30 5317 O 501.963 -1.54729 1.51287 0
M  V30 5318 C 502.558 1.40112 3.0847 0
M  V30 5319 C 501.117 1.18172 3.57368 0
M  V30 5320 C 500.264 1.49022 2.33854 0
M  V30 5321 H 503.215 1.20925 1.02775 0
M  V30 5322 H 503.236 0.805672 3.71873 0
M  V30 5323 H 502.748 2.47744 2.98738 0
M  V30 5324 H 500.849 0.124258 3.72393 0
M  V30 5325 H 500.962 1.8805 4.40652 0
M  V30 5326 H 499.326 0.909995 2.37889 0
M  V30 5327 H 500.109 2.57768 2.26738 0
M  V30 5328 N 502.554 -1.34406 0.822964 0
M  V30 5329 C 503.802 -1.97892 0.410245 0
M  V30 5330 C 504.123 -1.65567 -1.03017 0
M  V30 5331 O 503.393 -0.94642 -1.71522 0
M  V30 5332 H 501.973 -0.732049 0.148707 0
M  V30 5333 H 504.635 -1.64043 1.05242 0
M  V30 5334 H 503.731 -3.07579 0.529284 0
M  V30 5335 N 504.032 -0.577932 -1.46621 0
M  V30 5336 C 504.962 0.145917 -2.33044 0
M  V30 5337 C 505.943 0.888412 -1.45056 0
M  V30 5338 O 507.128 0.864812 -1.73881 0
M  V30 5339 C 504.258 1.16322 -3.27241 0
M  V30 5340 C 503.212 0.535868 -4.24632 0
M  V30 5341 C 502.538 1.65929 -5.08303 0
M  V30 5342 C 503.838 -0.523861 -5.19666 0
M  V30 5343 H 505.532 -0.575636 -2.93814 0
M  V30 5344 H 503.078 -0.278272 -1.41286 0
M  V30 5345 H 505.031 1.67793 -3.86553 0
M  V30 5346 H 503.755 1.91498 -2.64567 0
M  V30 5347 H 502.414 0.0422759 -3.66576 0
M  V30 5348 H 502.062 2.40061 -4.42018 0
M  V30 5349 H 501.762 1.2452 -5.74255 0
M  V30 5350 H 503.286 2.17686 -5.70478 0
M  V30 5351 H 504.7 -0.0944059 -5.73222 0
M  V30 5352 H 503.097 -0.858 -5.93935 0
M  V30 5353 H 504.167 -1.41197 -4.63887 0
M  V30 5354 N 505.51 1.54411 -0.315457 0
M  V30 5355 C 506.757 2.00419 0.289543 0
M  V30 5356 C 507.085 1.20373 1.52776 0
M  V30 5357 O 506.34 0.271769 1.93804 0
M  V30 5358 C 506.639 3.50936 0.676652 0
M  V30 5359 C 506.305 4.48532 -0.461472 0
M  V30 5360 C 504.967 4.74936 -0.773879 0
M  V30 5361 C 507.319 5.06567 -1.22637 0
M  V30 5362 C 504.647 5.56634 -1.85405 0
M  V30 5363 C 506.999 5.89441 -2.29657 0
M  V30 5364 C 505.663 6.1415 -2.61488 0
M  V30 5365 H 504.933 0.733386 0.105951 0
M  V30 5366 H 507.58 1.86434 -0.437554 0
M  V30 5367 H 505.885 3.62606 1.48405 0
M  V30 5368 H 507.582 3.83971 1.15618 0
M  V30 5369 H 504.172 4.28096 -0.207893 0
M  V30 5370 H 508.356 4.86157 -0.998271 0
M  V30 5371 H 503.612 5.74012 -2.10523 0
M  V30 5372 H 507.786 6.33432 -2.89374 0
M  V30 5373 H 505.413 6.77245 -3.45317 0
M  V30 5374 N 506.988 0.0434614 1.5754 0
M  V30 5375 C 507.918 -0.931651 2.14109 0
M  V30 5376 C 508.899 -1.32971 1.06079 0
M  V30 5377 O 510.084 -1.40579 1.33982 0
M  V30 5378 C 507.214 -2.20914 2.67982 0
M  V30 5379 C 506.168 -1.95139 3.80926 0
M  V30 5380 C 505.494 -3.29276 4.21285 0
M  V30 5381 C 506.794 -1.27913 5.06395 0
M  V30 5382 H 508.488 -0.460497 2.95837 0
M  V30 5383 H 506.034 -0.220058 1.42309 0
M  V30 5384 H 507.987 -2.89522 3.06194 0
M  V30 5385 H 506.711 -2.70221 1.83434 0
M  V30 5386 H 505.37 -1.28945 3.43175 0
M  V30 5387 H 505.018 -3.76369 3.33699 0
M  V30 5388 H 504.718 -3.12831 4.97404 0
M  V30 5389 H 506.242 -3.99129 4.62091 0
M  V30 5390 H 507.656 -1.86544 5.42102 0
M  V30 5391 H 506.053 -1.2182 5.87605 0
M  V30 5392 H 507.123 -0.254066 4.84234 0
M  V30 5393 N 508.466 -1.55915 -0.229846 0
M  V30 5394 C 509.429 -1.90914 -1.26824 0
M  V30 5395 C 510.429 -0.786999 -1.40225 0
M  V30 5396 O 511.619 -1.05484 -1.38632 0
M  V30 5397 C 508.751 -2.15264 -2.64337 0
M  V30 5398 H 509.944 -2.8378 -0.969998 0
M  V30 5399 H 507.497 -1.49069 -0.4699 0
M  V30 5400 H 508.232 -1.24923 -2.99274 0
M  V30 5401 H 508.017 -2.97005 -2.55989 0
M  V30 5402 H 509.507 -2.43467 -3.39284 0
M  V30 5403 N 509.944 0.496216 -1.49584 0
M  V30 5404 C 511.184 1.26015 -1.60933 0
M  V30 5405 C 511.548 1.89772 -0.291646 0
M  V30 5406 O 512.749 2.67334 -0.280357 0
M  V30 5407 C 511.02 2.29506 -2.73974 0
M  V30 5408 S 512.579 3.15175 -3.05303 0
M  V30 5409 H 509.397 0.428194 -0.567601 0
M  V30 5410 H 511.999 0.561484 -1.87263 0
M  V30 5411 H 510.703 1.81205 -3.68229 0
M  V30 5412 H 510.234 3.04036 -2.49651 0
M  V30 5413 H 512.249 4.30244 -2.47193 0
M  V30 5414 N 511.423 1.38739 0.74761 0
M  V30 5415 C 512.386 1.36241 1.84312 0
M  V30 5416 C 513.386 0.261811 1.58654 0
M  V30 5417 O 514.576 0.519031 1.66288 0
M  V30 5418 C 511.708 1.12253 3.21888 0
M  V30 5419 H 512.901 2.33712 1.87933 0
M  V30 5420 H 510.454 1.2412 0.949946 0
M  V30 5421 H 511.189 0.154133 3.23934 0
M  V30 5422 H 510.974 1.91943 3.41907 0
M  V30 5423 H 512.464 1.13215 4.0196 0
M  V30 5424 N 512.901 -0.976442 1.23707 0
M  V30 5425 C 514.131 -1.75087 1.09673 0
M  V30 5426 C 514.539 -1.85852 -0.354344 0
M  V30 5427 O 513.882 -1.33985 -1.25673 0
M  V30 5428 C 513.944 -3.19272 1.65245 0
M  V30 5429 C 513.608 -3.32004 3.14042 0
M  V30 5430 C 514.605 -3.18017 4.11292 0
M  V30 5431 C 512.29 -3.56525 3.53829 0
M  V30 5432 C 514.284 -3.28363 5.46312 0
M  V30 5433 C 511.971 -3.6651 4.88993 0
M  V30 5434 C 512.969 -3.52439 5.85043 0
M  V30 5435 O 512.657 -3.62063 7.1775 0
M  V30 5436 H 512.389 -0.556164 0.384262 0
M  V30 5437 H 514.943 -1.23518 1.64111 0
M  V30 5438 H 513.173 -3.72107 1.05231 0
M  V30 5439 H 514.862 -3.7849 1.46629 0
M  V30 5440 H 515.628 -2.98966 3.81896 0
M  V30 5441 H 511.507 -3.66547 2.79579 0
M  V30 5442 H 515.051 -3.17297 6.21263 0
M  V30 5443 H 510.948 -3.85072 5.18063 0
M  V30 5444 H 511.716 -3.78833 7.25553 0
M  V30 5445 N 514.379 -1.04941 -1.1758 0
M  V30 5446 C 515.604 -0.778253 -1.92245 0
M  V30 5447 C 516.029 0.659707 -1.76152 0
M  V30 5448 O 515.387 1.45803 -1.07755 0
M  V30 5449 C 515.435 -1.16051 -3.41416 0
M  V30 5450 O 514.539 -0.291153 -4.11371 0
M  V30 5451 H 513.88 -0.285619 -0.599431 0
M  V30 5452 H 516.41 -1.40159 -1.49052 0
M  V30 5453 H 516.42 -1.12619 -3.92149 0
M  V30 5454 H 515.095 -2.208 -3.52449 0
M  V30 5455 H 513.672 -0.385851 -3.70898 0
M  V30 5456 N 515.857 1.33968 -0.830081 0
M  V30 5457 C 517.105 1.97672 -0.420734 0
M  V30 5458 C 517.426 1.66111 1.02138 0
M  V30 5459 O 516.696 0.955503 1.71017 0
M  V30 5460 H 515.276 0.73125 -0.152587 0
M  V30 5461 H 517.938 1.63483 -1.0611 0
M  V30 5462 H 517.034 3.07294 -0.545588 0
M  V30 5463 N 517.335 0.585699 1.46312 0
M  V30 5464 C 518.563 0.0781299 2.06752 0
M  V30 5465 C 518.978 -1.22812 1.43396 0
M  V30 5466 O 518.335 -1.74318 0.540314 0
M  V30 5467 C 518.386 -0.0911927 3.61385 0
M  V30 5468 O 518.107 1.16336 4.22371 0
M  V30 5469 C 519.608 -0.632765 4.38761 0
M  V30 5470 H 516.828 0.0588188 0.668417 0
M  V30 5471 H 519.372 0.807218 1.87894 0
M  V30 5472 H 517.527 -0.770514 3.7966 0
M  V30 5473 H 517.941 0.979082 5.15281 0
M  V30 5474 H 519.415 -0.70041 5.47538 0
M  V30 5475 H 519.892 -1.65039 4.07012 0
M  V30 5476 H 520.498 0.0117856 4.25298 0
M  V30 5477 N 518.813 -1.54241 0.323641 0
M  V30 5478 C 519.743 -2.27289 -0.534993 0
M  V30 5479 C 520.724 -1.28087 -1.11927 0
M  V30 5480 O 521.909 -1.56899 -1.14439 0
M  V30 5481 C 519.039 -3.03075 -1.69596 0
M  V30 5482 C 517.993 -4.09614 -1.24098 0
M  V30 5483 C 517.319 -4.73242 -2.4889 0
M  V30 5484 C 518.619 -5.21087 -0.355789 0
M  V30 5485 H 520.313 -2.99308 0.0743257 0
M  V30 5486 H 517.859 -1.43952 0.0371874 0
M  V30 5487 H 519.812 -3.52907 -2.30293 0
M  V30 5488 H 518.536 -2.28673 -2.33187 0
M  V30 5489 H 517.195 -3.60666 -0.656945 0
M  V30 5490 H 516.843 -3.95455 -3.10845 0
M  V30 5491 H 516.543 -5.45209 -2.19138 0
M  V30 5492 H 518.067 -5.25848 -3.10348 0
M  V30 5493 H 519.481 -5.66675 -0.869042 0
M  V30 5494 H 517.878 -5.9991 -0.151045 0
M  V30 5495 H 518.948 -4.81005 0.613339 0
M  V30 5496 N 520.291 -0.0518155 -1.57515 0
M  V30 5497 C 521.516 0.634896 -1.97443 0
M  V30 5498 C 521.941 1.63546 -0.929207 0
M  V30 5499 O 521.299 1.80981 0.107484 0
M  V30 5500 C 521.347 1.29765 -3.36442 0
M  V30 5501 O 520.451 2.41333 -3.34413 0
M  V30 5502 H 519.792 0.164994 -0.643174 0
M  V30 5503 H 522.322 -0.120407 -2.04245 0
M  V30 5504 H 522.332 1.64918 -3.73184 0
M  V30 5505 H 521.007 0.564361 -4.12053 0
M  V30 5506 H 519.584 2.08122 -3.09418 0
M  V30 5507 N 521.769 1.56035 0.221574 0
M  V30 5508 C 522.997 1.8313 0.962864 0
M  V30 5509 C 523.412 0.630934 1.77946 0
M  V30 5510 O 522.769 -0.400519 1.78051 0
M  V30 5511 C 522.82 3.08742 1.88045 0
M  V30 5512 O 522.541 4.24147 1.09686 0
M  V30 5513 C 524.042 3.48824 2.73563 0
M  V30 5514 H 521.262 0.608775 0.282194 0
M  V30 5515 H 523.806 2.03124 0.23681 0
M  V30 5516 H 521.961 2.90723 2.56045 0
M  V30 5517 H 522.375 4.95505 1.71974 0
M  V30 5518 H 523.849 4.39752 3.3365 0
M  V30 5519 H 524.326 2.70575 3.45956 0
M  V30 5520 H 524.932 3.69282 2.10976 0
M  V30 5521 N 523.247 -0.488276 1.49845 0
M  V30 5522 C 524.21 -1.57069 1.66919 0
M  V30 5523 C 525.21 -1.51445 0.540479 0
M  V30 5524 O 526.4 -1.5437 0.807188 0
M  V30 5525 C 523.532 -2.96718 1.67844 0
M  V30 5526 H 524.725 -1.43254 2.63474 0
M  V30 5527 H 522.278 -0.713435 1.39068 0
M  V30 5528 H 523.013 -3.15996 0.7292 0
M  V30 5529 H 522.798 -3.02208 2.49826 0
M  V30 5530 H 524.288 -3.75335 1.83066 0
M  V30 5531 N 524.725 -1.39134 -0.740242 0
M  V30 5532 C 525.95 -1.39518 -1.53459 0
M  V30 5533 C 526.375 0.00968883 -1.88098 0
M  V30 5534 O 525.733 0.995312 -1.51536 0
M  V30 5535 C 525.781 -2.26981 -2.802 0
M  V30 5536 O 524.885 -1.69609 -3.75908 0
M  V30 5537 H 524.226 -0.475328 -0.463637 0
M  V30 5538 H 526.756 -1.83064 -0.913717 0
M  V30 5539 H 526.766 -2.41309 -3.28989 0
M  V30 5540 H 525.441 -3.29081 -2.5432 0
M  V30 5541 H 524.018 -1.64495 -3.34658 0
M  V30 5542 N 526.204 0.969867 -1.24223 0
M  V30 5543 C 527.432 1.74756 -1.10761 0
M  V30 5544 C 527.847 1.85713 0.340041 0
M  V30 5545 O 527.204 1.34389 1.23474 0
M  V30 5546 C 527.255 3.16915 -1.73917 0
M  V30 5547 O 526.976 3.06511 -3.13021 0
M  V30 5548 C 528.477 4.11032 -1.66036 0
M  V30 5549 H 525.697 0.548092 -0.387087 0
M  V30 5550 H 528.241 1.2178 -1.64286 0
M  V30 5551 H 526.396 3.66884 -1.244 0
M  V30 5552 H 526.81 3.96079 -3.43834 0
M  V30 5553 H 528.284 5.08446 -2.14911 0
M  V30 5554 H 528.761 4.34785 -0.621159 0
M  V30 5555 H 529.367 3.66972 -2.14969 0
M  V30 5556 N 527.682 1.05563 1.17022 0
M  V30 5557 C 528.907 0.788437 1.91829 0
M  V30 5558 C 529.332 -0.650356 1.76499 0
M  V30 5559 O 528.69 -1.45229 1.08527 0
M  V30 5560 C 528.738 1.1786 3.40795 0
M  V30 5561 O 527.842 0.312965 4.11211 0
M  V30 5562 H 527.183 0.288794 0.597908 0
M  V30 5563 H 529.713 1.40948 1.48307 0
M  V30 5564 H 529.723 1.14697 3.91546 0
M  V30 5565 H 528.398 2.22666 3.51273 0
M  V30 5566 H 526.975 0.405515 3.70689 0
M  V30 5567 N 529.16 -1.33526 0.837174 0
M  V30 5568 C 530.409 -1.97098 0.428387 0
M  V30 5569 C 530.722 -1.67062 -1.01734 0
M  V30 5570 O 531.928 -2.24235 -1.53072 0
M  V30 5571 C 530.384 -3.52725 0.715075 0
M  V30 5572 C 529.992 -3.9164 2.17537 0
M  V30 5573 C 531.736 -4.22857 0.373154 0
M  V30 5574 C 529.643 -5.40237 2.40619 0
M  V30 5575 H 528.573 -0.737589 0.156455 0
M  V30 5576 H 531.224 -1.52169 1.02552 0
M  V30 5577 H 529.606 -3.95971 0.0475904 0
M  V30 5578 H 530.78 -3.59456 2.88319 0
M  V30 5579 H 529.095 -3.34485 2.4801 0
M  V30 5580 H 531.692 -5.32133 0.523264 0
M  V30 5581 H 532.035 -4.10647 -0.683708 0
M  V30 5582 H 532.568 -3.85135 0.995801 0
M  V30 5583 H 529.307 -5.57449 3.44864 0
M  V30 5584 H 528.827 -5.73887 1.74396 0
M  V30 5585 H 530.506 -6.07102 2.23688 0
M  V30 5586 N 530.638 -0.59345 -1.46 0
M  V30 5587 C 531.586 0.146268 -2.3214 0
M  V30 5588 C 532.58 0.873743 -1.45128 0
M  V30 5589 O 533.786 0.790912 -1.61693 0
M  V30 5590 H 530.161 0.0660349 -0.749095 0
M  V30 5591 H 532.132 -0.598895 -2.92328 0
M  V30 5592 C 530.881 1.1396 -3.28494 0
M  V30 5593 H 530.204 0.589252 -3.95434 0
M  V30 5594 H 531.644 1.62738 -3.91526 0
M  V30 5595 C 530.103 2.20604 -2.54628 0
M  V30 5596 O 530.633 3.28128 -2.31722 0
M  V30 5597 N 528.839 1.95502 -2.15005 0
M  V30 5598 H 528.386 1.0807 -2.33834 0
M  V30 5599 H 528.344 2.67064 -1.65904 0
M  V30 5600 N 532.116 1.54067 -0.331816 0
M  V30 5601 C 533.079 2.23275 0.517768 0
M  V30 5602 C 534.079 1.22897 1.03697 0
M  V30 5603 O 535.269 1.47419 0.928084 0
M  V30 5604 C 532.401 2.94326 1.72004 0
M  V30 5605 H 533.594 2.99773 -0.0873507 0
M  V30 5606 H 531.147 1.56079 -0.0830042 0
M  V30 5607 H 531.882 2.21986 2.36417 0
M  V30 5608 H 531.667 3.67941 1.35507 0
M  V30 5609 H 533.157 3.47031 2.32291 0
M  V30 5610 N 533.594 0.0601682 1.57485 0
M  V30 5611 C 534.527 -0.94676 2.07634 0
M  V30 5612 C 535.505 -1.29837 0.978826 0
M  V30 5613 O 536.689 -1.40969 1.2514 0
M  V30 5614 C 533.816 -2.25822 2.52433 0
M  V30 5615 C 532.862 -2.05901 3.73507 0
M  V30 5616 S 533.695 -1.32907 5.18745 0
M  V30 5617 C 534.851 -2.65356 5.66866 0
M  V30 5618 H 535.084 -0.520003 2.92717 0
M  V30 5619 H 532.617 -0.152319 1.53647 0
M  V30 5620 H 534.575 -3.01201 2.78905 0
M  V30 5621 H 533.236 -2.65624 1.67639 0
M  V30 5622 H 532.429 -3.02929 4.02803 0
M  V30 5623 H 532.031 -1.38659 3.47347 0
M  V30 5624 H 534.323 -3.61492 5.73001 0
M  V30 5625 H 535.266 -2.40685 6.6594 0
M  V30 5626 H 535.674 -2.72028 4.94632 0
M  V30 5627 N 535.072 -1.5615 -0.213296 0
M  V30 5628 C 536.035 -1.92249 -1.24792 0
M  V30 5629 C 537.035 -0.801828 -1.39382 0
M  V30 5630 O 538.225 -1.06948 -1.37506 0
M  V30 5631 C 535.357 -2.18056 -2.62039 0
M  V30 5632 H 536.55 -2.84793 -0.939845 0
M  V30 5633 H 534.103 -1.49559 -0.454062 0
M  V30 5634 H 534.838 -1.2809 -2.97932 0
M  V30 5635 H 534.623 -2.99703 -2.52825 0
M  V30 5636 H 536.113 -2.47051 -3.36683 0
M  V30 5637 N 536.55 0.480323 -1.50102 0
M  V30 5638 C 537.513 1.56181 -1.6775 0
M  V30 5639 C 538.513 1.51156 -0.548503 0
M  V30 5640 O 539.703 1.5394 -0.815363 0
M  V30 5641 C 536.835 2.95823 -1.69415 0
M  V30 5642 H 538.028 1.41855 -2.6423 0
M  V30 5643 H 535.581 0.70605 -1.39444 0
M  V30 5644 H 536.316 3.15604 -0.745948 0
M  V30 5645 H 536.101 3.00878 -2.51425 0
M  V30 5646 H 537.591 3.74359 -1.85054 0
M  V30 5647 N 538.028 1.39524 0.732853 0
M  V30 5648 C 539.274 1.37068 1.49467 0
M  V30 5649 C 539.607 -0.0327166 1.94172 0
M  V30 5650 O 538.882 -0.998071 1.66939 0
M  V30 5651 C 539.165 2.34494 2.73285 0
M  V30 5652 C 539.018 3.83784 2.34585 0
M  V30 5653 C 540.337 2.29717 3.75391 0
M  V30 5654 H 537.456 0.499206 0.542183 0
M  V30 5655 H 540.098 1.70532 0.837783 0
M  V30 5656 H 538.248 2.06087 3.29333 0
M  V30 5657 H 539.92 4.22949 1.84151 0
M  V30 5658 H 538.163 4.00455 1.66787 0
M  V30 5659 H 538.834 4.47444 3.23262 0
M  V30 5660 H 541.31 2.54839 3.28932 0
M  V30 5661 H 540.186 2.99962 4.59689 0
M  V30 5662 H 540.447 1.30291 4.22465 0
M  V30 5663 N 539.506 -0.963266 1.24736 0
M  V30 5664 C 540.734 -1.74166 1.11686 0
M  V30 5665 C 541.149 -1.8589 -0.330187 0
M  V30 5666 O 540.506 -1.35042 -1.2276 0
M  V30 5667 C 540.557 -3.15989 1.75595 0
M  V30 5668 O 540.278 -3.04847 3.14642 0
M  V30 5669 C 541.779 -4.10145 1.68213 0
M  V30 5670 H 538.999 -0.546031 0.389989 0
M  V30 5671 H 541.543 -1.20907 1.64929 0
M  V30 5672 H 539.698 -3.66219 1.26343 0
M  V30 5673 H 540.112 -3.9425 3.4593 0
M  V30 5674 H 541.586 -5.07299 2.17604 0
M  V30 5675 H 542.063 -4.3445 0.644208 0
M  V30 5676 H 542.669 -3.65827 2.16912 0
M  V30 5677 N 540.985 -1.06182 -1.16461 0
M  V30 5678 C 542.231 -0.779015 -1.87241 0
M  V30 5679 C 542.564 0.692715 -1.81425 0
M  V30 5680 O 541.839 1.5074 -1.22913 0
M  V30 5681 C 542.122 -1.2728 -3.36856 0
M  V30 5682 C 541.975 -2.80821 -3.51368 0
M  V30 5683 C 543.294 -0.879799 -4.31216 0
M  V30 5684 H 540.413 -0.284464 -0.679889 0
M  V30 5685 H 543.055 -1.31755 -1.36896 0
M  V30 5686 H 541.205 -0.814673 -3.79862 0
M  V30 5687 H 542.877 -3.34833 -3.17308 0
M  V30 5688 H 541.12 -3.19606 -2.93316 0
M  V30 5689 H 541.791 -3.10435 -4.56436 0
M  V30 5690 H 544.267 -1.27436 -3.96105 0
M  V30 5691 H 543.143 -1.25278 -5.34412 0
M  V30 5692 H 543.404 0.215372 -4.41575 0
M  V30 5693 N 542.463 1.3308 -0.844243 0
M  V30 5694 C 543.373 2.32876 -0.283922 0
M  V30 5695 C 544.389 1.63589 0.592846 0
M  V30 5696 O 545.565 1.95205 0.495693 0
M  V30 5697 C 542.63 3.42667 0.527283 0
M  V30 5698 C 541.691 4.27664 -0.374394 0
M  V30 5699 C 540.924 5.32212 0.39819 0
M  V30 5700 O 541.147 5.46635 1.62932 0
M  V30 5701 O 540.081 6.01458 -0.2306 0
M  V30 5702 H 543.907 2.82671 -1.11045 0
M  V30 5703 H 541.492 1.36518 -0.606903 0
M  V30 5704 H 543.374 4.09652 0.988078 0
M  V30 5705 H 542.049 2.95079 1.33078 0
M  V30 5706 H 540.956 3.63526 -0.883144 0
M  V30 5707 H 542.289 4.78749 -1.1428 0
M  V30 5708 N 543.941 0.601185 1.45683 0
M  V30 5709 C 545.218 0.0261659 1.95582 0
M  V30 5710 C 545.598 -1.4399 1.5437 0
M  V30 5711 O 544.946 -2.13919 0.80318 0
M  V30 5712 C 545.156 0.217557 3.48321 0
M  V30 5713 C 546.504 0.0950076 4.24494 0
M  V30 5714 O 547.528 0.147345 3.55895 0
M  V30 5715 O 546.387 -0.025261 5.46494 0
M  V30 5716 H 543.481 -0.0393688 0.826062 0
M  V30 5717 H 546.027 0.670798 1.55879 0
M  V30 5718 H 544.799 1.23601 3.71266 0
M  V30 5719 H 544.422 -0.46264 3.94899 0
M  V30 5720 N 545.419 -1.53889 0.339982 0
M  V30 5721 C 546.349 -2.27843 -0.510856 0
M  V30 5722 C 547.33 -1.29267 -1.10563 0
M  V30 5723 O 548.515 -1.58104 -1.12768 0
M  V30 5724 C 545.645 -3.04857 -1.66372 0
M  V30 5725 C 544.599 -4.10907 -1.19746 0
M  V30 5726 C 543.925 -4.75855 -2.43857 0
M  V30 5727 C 545.225 -5.21435 -0.300501 0
M  V30 5728 H 546.919 -2.99212 0.106067 0
M  V30 5729 H 544.465 -1.43904 0.0524533 0
M  V30 5730 H 546.418 -3.5533 -2.26537 0
M  V30 5731 H 545.142 -2.31133 -2.30749 0
M  V30 5732 H 543.801 -3.61342 -0.618654 0
M  V30 5733 H 543.449 -3.9873 -3.06633 0
M  V30 5734 H 543.149 -5.47502 -2.13343 0
M  V30 5735 H 544.673 -5.2911 -3.04754 0
M  V30 5736 H 546.087 -5.67565 -0.80889 0
M  V30 5737 H 544.484 -6.00036 -0.0874076 0
M  V30 5738 H 545.554 -4.80328 0.664321 0
M  V30 5739 N 546.897 -0.0685191 -1.57451 0
M  V30 5740 C 548.146 0.600898 -1.92541 0
M  V30 5741 C 548.459 1.70967 -0.950239 0
M  V30 5742 O 549.665 2.43844 -1.19384 0
M  V30 5743 C 548.121 1.12019 -3.42023 0
M  V30 5744 C 547.729 0.0426028 -4.4798 0
M  V30 5745 C 549.473 1.76386 -3.86119 0
M  V30 5746 C 547.38 0.575759 -5.88591 0
M  V30 5747 H 546.31 0.228225 -0.71863 0
M  V30 5748 H 548.961 -0.140223 -1.82963 0
M  V30 5749 H 547.343 1.91418 -3.46663 0
M  V30 5750 H 548.517 -0.73182 -4.54952 0
M  V30 5751 H 546.832 -0.504642 -4.13331 0
M  V30 5752 H 549.429 2.17302 -4.88553 0
M  V30 5753 H 549.772 2.62255 -3.23308 0
M  V30 5754 H 550.305 1.03615 -3.84069 0
M  V30 5755 H 547.044 -0.245691 -6.55039 0
M  V30 5756 H 546.564 1.31778 -5.85145 0
M  V30 5757 H 548.243 1.0532 -6.3837 0
M  V30 5758 N 548.375 1.56261 0.205012 0
M  V30 5759 C 549.322 1.93754 1.25411 0
M  V30 5760 C 550.292 0.796826 1.45739 0
M  V30 5761 O 551.477 1.05414 1.59036 0
M  V30 5762 C 548.617 2.27383 2.59598 0
M  V30 5763 C 547.73 3.5447 2.46931 0
M  V30 5764 C 546.865 3.77468 3.73753 0
M  V30 5765 C 545.904 4.98014 3.55877 0
M  V30 5766 N 545.041 5.17316 4.74688 0
M  V30 5767 H 549.881 2.83203 0.92737 0
M  V30 5768 H 547.418 1.40158 0.446574 0
M  V30 5769 H 549.376 2.44895 3.37761 0
M  V30 5770 H 548.006 1.41088 2.90335 0
M  V30 5771 H 547.058 3.45061 1.60116 0
M  V30 5772 H 548.37 4.42789 2.29651 0
M  V30 5773 H 547.524 3.95165 4.60358 0
M  V30 5774 H 546.263 2.87461 3.93976 0
M  V30 5775 H 545.268 4.80249 2.67657 0
M  V30 5776 H 546.493 5.8952 3.37109 0
M  V30 5777 H 544.439 4.30255 4.95194 0
M  V30 5778 H 544.356 5.99796 4.60197 0
M  V30 5779 H 545.624 5.39463 5.62672 0
M  V30 5780 N 549.853 -0.472356 1.50355 0
M  V30 5781 C 551.264 -1.05326 1.54154 0
M  V30 5782 C 551.615 -1.93155 0.344303 0
M  V30 5783 O 550.74 -2.09479 -0.542928 0
M  V30 5784 C 551.335 -1.91691 2.79356 0
M  V30 5785 C 549.894 -2.44892 2.8584 0
M  V30 5786 C 549.041 -1.23205 2.48426 0
M  V30 5787 H 551.992 -0.255027 1.56637 0
M  V30 5788 H 552.013 -2.76742 2.6114 0
M  V30 5789 H 551.525 -1.27741 3.66475 0
M  V30 5790 H 549.626 -3.12399 2.0307 0
M  V30 5791 H 549.739 -2.80086 3.88701 0
M  V30 5792 H 548.103 -1.56643 2.00836 0
M  V30 5793 H 548.886 -0.609194 3.37852 0
M  V30 5794 N 551.331 -1.39911 -0.725443 0
M  V30 5795 C 552.747 -1.21725 -1.03224 0
M  V30 5796 C 552.947 -0.0855224 -2.01318 0
M  V30 5797 O 552.003 0.55976 -2.46217 0
M  V30 5798 C 553.316 -2.55511 -1.58539 0
M  V30 5799 C 554.864 -2.62439 -1.70572 0
M  V30 5800 C 555.339 -3.9647 -2.29294 0
M  V30 5801 N 556.83 -3.98159 -2.36692 0
M  V30 5802 C 557.565 -4.98647 -2.83088 0
M  V30 5803 N 557.061 -6.0953 -3.2931 0
M  V30 5804 N 558.854 -4.8602 -2.82384 0
M  V30 5805 H 551.005 -2.12267 -0.075048 0
M  V30 5806 H 553.268 -0.943136 -0.0959066 0
M  V30 5807 H 552.974 -3.38926 -0.939249 0
M  V30 5808 H 552.848 -2.75905 -2.57208 0
M  V30 5809 H 555.235 -1.79401 -2.34306 0
M  V30 5810 H 555.316 -2.45885 -0.705297 0
M  V30 5811 H 554.96 -4.79942 -1.66186 0
M  V30 5812 H 554.89 -4.10349 -3.30032 0
M  V30 5813 H 557.381 -3.18085 -2.04035 0
M  V30 5814 H 557.694 -6.82106 -3.6325 0
M  V30 5815 H 556.039 -6.1311 -3.27294 0
M  V30 5816 H 559.23 -3.98493 -2.45603 0
M  V30 5817 H 559.403 -5.64478 -3.18226 0
M  V30 5818 N 552.809 0.956637 -1.25245 0
M  V30 5819 C 553.739 2.07058 -1.07931 0
M  V30 5820 C 554.72 1.70096 0.0110361 0
M  V30 5821 O 555.905 1.93555 -0.158121 0
M  V30 5822 C 553.035 3.40272 -0.695124 0
M  V30 5823 C 551.989 3.91235 -1.73549 0
M  V30 5824 C 551.315 5.20921 -1.20604 0
M  V30 5825 C 552.615 4.17837 -3.13385 0
M  V30 5826 H 554.309 2.218 -2.01109 0
M  V30 5827 H 551.855 1.06581 -0.968326 0
M  V30 5828 H 553.808 4.1765 -0.560949 0
M  V30 5829 H 552.532 3.25462 0.272355 0
M  V30 5830 H 551.191 3.16025 -1.85807 0
M  V30 5831 H 550.839 5.02479 -0.228846 0
M  V30 5832 H 550.539 5.55987 -1.90136 0
M  V30 5833 H 552.063 6.00897 -1.08421 0
M  V30 5834 H 553.477 4.8588 -3.04292 0
M  V30 5835 H 551.874 4.64154 -3.80369 0
M  V30 5836 H 552.944 3.2419 -3.60595 0
M  V30 5837 N 554.287 1.06798 1.15896 0
M  V30 5838 C 555.703 0.792423 1.38538 0
M  V30 5839 C 555.903 -0.60592 1.92174 0
M  V30 5840 O 554.959 -1.36561 2.12385 0
M  V30 5841 C 556.272 1.86157 2.36149 0
M  V30 5842 C 557.82 1.88567 2.49823 0
M  V30 5843 C 558.295 2.9455 3.5072 0
M  V30 5844 N 559.786 2.93616 3.58251 0
M  V30 5845 C 560.521 3.72267 4.36125 0
M  V30 5846 N 560.017 4.60751 5.17379 0
M  V30 5847 N 561.81 3.60637 4.31158 0
M  V30 5848 H 553.961 1.96993 0.794198 0
M  V30 5849 H 556.224 0.853942 0.411688 0
M  V30 5850 H 555.93 2.86603 2.03843 0
M  V30 5851 H 555.804 1.71692 3.3586 0
M  V30 5852 H 558.191 0.887765 2.8143 0
M  V30 5853 H 558.272 2.0711 1.5013 0
M  V30 5854 H 557.916 3.94537 3.19849 0
M  V30 5855 H 557.846 2.73255 4.50155 0
M  V30 5856 H 560.337 2.29472 3.00252 0
M  V30 5857 H 560.65 5.17408 5.74028 0
M  V30 5858 H 558.995 4.64803 5.16704 0
M  V30 5859 H 562.186 2.90892 3.66742 0
M  V30 5860 H 562.359 4.22176 4.91601 0
M  V30 5861 N 555.766 -1.3263 0.851289 0
M  V30 5862 C 556.991 -2.02097 0.466006 0
M  V30 5863 C 557.416 -1.63574 -0.928709 0
M  V30 5864 O 556.774 -0.834665 -1.60944 0
M  V30 5865 C 556.822 -3.55425 0.608737 0
M  V30 5866 O 555.926 -4.10827 -0.359878 0
M  V30 5867 H 555.267 -0.636911 0.187724 0
M  V30 5868 H 557.797 -1.69253 1.14955 0
M  V30 5869 H 557.807 -4.04986 0.495006 0
M  V30 5870 H 556.482 -3.82806 1.62581 0
M  V30 5871 H 555.059 -3.72349 -0.202666 0
M  V30 5872 N 557.244 -0.608902 -1.45362 0
M  V30 5873 C 558.174 0.0964526 -2.33301 0
M  V30 5874 C 559.155 0.857444 -1.46908 0
M  V30 5875 O 560.34 0.827735 -1.75676 0
M  V30 5876 C 557.47 1.09354 -3.29635 0
M  V30 5877 C 556.424 0.445676 -4.25673 0
M  V30 5878 C 555.75 1.5511 -5.11708 0
M  V30 5879 C 557.05 -0.633972 -5.18438 0
M  V30 5880 H 558.744 -0.637829 -2.92527 0
M  V30 5881 H 556.29 -0.308178 -1.40664 0
M  V30 5882 H 558.243 1.59556 -3.90025 0
M  V30 5883 H 556.967 1.85843 -2.6857 0
M  V30 5884 H 555.626 -0.0354897 -3.66583 0
M  V30 5885 H 555.274 2.30631 -4.4701 0
M  V30 5886 H 554.974 1.12311 -5.76767 0
M  V30 5887 H 556.498 2.05537 -5.74967 0
M  V30 5888 H 557.912 -0.215974 -5.72893 0
M  V30 5889 H 556.309 -0.983789 -5.91981 0
M  V30 5890 H 557.379 -1.51005 -4.60788 0
M  V30 5891 N 558.722 1.53707 -0.348139 0
M  V30 5892 C 559.685 2.23812 0.494058 0
M  V30 5893 C 560.685 1.23989 1.02388 0
M  V30 5894 O 561.875 1.48395 0.912396 0
M  V30 5895 C 559.007 2.96133 1.68872 0
M  V30 5896 H 560.2 2.99663 -0.119141 0
M  V30 5897 H 557.753 1.55983 -0.0995539 0
M  V30 5898 H 558.488 2.24481 2.34049 0
M  V30 5899 H 558.273 3.69357 1.31596 0
M  V30 5900 H 559.763 3.49475 2.28597 0
M  V30 5901 N 560.2 0.0768682 1.57412 0
M  V30 5902 C 561.611 -0.455037 1.8107 0
M  V30 5903 C 561.962 -1.69323 0.991162 0
M  V30 5904 O 561.087 -2.15328 0.215156 0
M  V30 5905 C 561.682 -0.832316 3.28417 0
M  V30 5906 C 560.241 -1.30906 3.52903 0
M  V30 5907 C 559.388 -0.296714 2.75708 0
M  V30 5908 H 562.339 0.302514 1.5579 0
M  V30 5909 H 562.36 -1.69333 3.40744 0
M  V30 5910 H 561.872 0.0690532 3.88039 0
M  V30 5911 H 559.973 -2.22875 2.98592 0
M  V30 5912 H 560.086 -1.28348 4.61588 0
M  V30 5913 H 558.45 -0.775059 2.42621 0
M  V30 5914 H 559.233 0.597015 3.38069 0
M  V30 5915 N 561.678 -1.56367 -0.196722 0
M  V30 5916 C 563.094 -1.49916 -0.54749 0
M  V30 5917 C 563.294 -0.77659 -1.85934 0
M  V30 5918 O 562.35 -0.32644 -2.50381 0
M  V30 5919 C 563.663 -2.94577 -0.603734 0
M  V30 5920 C 565.211 -3.05239 -0.692677 0
M  V30 5921 C 565.686 -4.51308 -0.780046 0
M  V30 5922 N 567.177 -4.55453 -0.843616 0
M  V30 5923 C 567.912 -5.65786 -0.931358 0
M  V30 5924 N 567.408 -6.85812 -0.981503 0
M  V30 5925 N 569.201 -5.53695 -0.968421 0
M  V30 5926 H 561.352 -2.01761 0.663803 0
M  V30 5927 H 563.615 -0.918094 0.236238 0
M  V30 5928 H 563.321 -3.50494 0.29105 0
M  V30 5929 H 563.195 -3.47841 -1.45898 0
M  V30 5930 H 565.582 -2.49372 -1.57789 0
M  V30 5931 H 565.663 -2.55103 0.188736 0
M  V30 5932 H 565.307 -5.078 0.100811 0
M  V30 5933 H 565.237 -4.99176 -1.67724 0
M  V30 5934 H 567.728 -3.69025 -0.814176 0
M  V30 5935 H 568.041 -7.65648 -1.04892 0
M  V30 5936 H 566.386 -6.88474 -0.950208 0
M  V30 5937 H 569.577 -4.58848 -0.926072 0
M  V30 5938 H 569.75 -6.39708 -1.03334 0
M  V30 5939 N 563.156 0.464375 -1.50603 0
M  V30 5940 C 564.103 1.56152 -1.69956 0
M  V30 5941 C 565.073 1.57046 -0.54091 0
M  V30 5942 O 566.258 1.74473 -0.772258 0
M  V30 5943 C 563.398 2.94079 -1.80586 0
M  V30 5944 C 562.511 3.02923 -3.07996 0
M  V30 5945 C 561.646 4.31806 -3.09382 0
M  V30 5946 C 560.685 4.34417 -4.31218 0
M  V30 5947 N 559.822 5.54782 -4.30304 0
M  V30 5948 H 564.662 1.38955 -2.6362 0
M  V30 5949 H 562.199 0.675482 -1.30674 0
M  V30 5950 H 564.157 3.74073 -1.8473 0
M  V30 5951 H 562.787 3.09896 -0.903556 0
M  V30 5952 H 561.839 2.1576 -3.13292 0
M  V30 5953 H 563.151 3.00712 -3.97962 0
M  V30 5954 H 562.305 5.20153 -3.12292 0
M  V30 5955 H 561.044 4.36636 -2.17257 0
M  V30 5956 H 560.049 3.44467 -4.28512 0
M  V30 5957 H 561.274 4.31273 -5.24576 0
M  V30 5958 H 559.22 5.60384 -3.41037 0
M  V30 5959 H 559.137 5.54339 -5.14047 0
M  V30 5960 H 560.405 6.45235 -4.3737 0
M  V30 5961 N 564.634 1.40294 0.718013 0
M  V30 5962 C 565.564 1.43118 1.84498 0
M  V30 5963 C 566.545 0.292403 1.67568 0
M  V30 5964 O 567.73 0.500675 1.87635 0
M  V30 5965 C 564.86 1.29065 3.22427 0
M  V30 5966 C 563.814 2.40521 3.54025 0
M  V30 5967 C 563.14 2.11546 4.91073 0
M  V30 5968 C 564.44 3.82859 3.55269 0
M  V30 5969 H 566.134 2.37432 1.82391 0
M  V30 5970 H 563.68 1.14283 0.87609 0
M  V30 5971 H 565.633 1.29658 4.00957 0
M  V30 5972 H 564.357 0.312271 3.25104 0
M  V30 5973 H 563.016 2.39173 2.77834 0
M  V30 5974 H 562.664 1.12104 4.90348 0
M  V30 5975 H 562.364 2.86216 5.1318 0
M  V30 5976 H 563.888 2.13817 5.71939 0
M  V30 5977 H 565.302 3.86044 4.23843 0
M  V30 5978 H 563.699 4.57029 3.88902 0
M  V30 5979 H 564.769 4.12617 2.54706 0
M  V30 5980 N 566.112 -0.949982 1.2575 0
M  V30 5981 C 567.358 -1.69766 1.10938 0
M  V30 5982 C 567.691 -1.91056 -0.348028 0
M  V30 5983 O 566.966 -1.48488 -1.25625 0
M  V30 5984 C 567.249 -3.07779 1.86933 0
M  V30 5985 C 567.102 -2.9387 3.4053 0
M  V30 5986 C 568.421 -4.07749 1.65616 0
M  V30 5987 H 565.54 -0.616144 0.404396 0
M  V30 5988 H 568.182 -1.10394 1.54639 0
M  V30 5989 H 566.332 -3.58462 1.4979 0
M  V30 5990 H 568.004 -2.50476 3.87375 0
M  V30 5991 H 566.247 -2.29686 3.68004 0
M  V30 5992 H 566.918 -3.91719 3.88922 0
M  V30 5993 H 569.394 -3.65994 1.97959 0
M  V30 5994 H 568.27 -5.02348 2.21218 0
M  V30 5995 H 568.531 -4.38029 0.598595 0
M  V30 5996 N 567.59 -1.07411 -1.15328 0
M  V30 5997 C 568.839 -0.792643 -1.85473 0
M  V30 5998 C 569.152 0.683789 -1.83259 0
M  V30 5999 O 570.358 1.08005 -2.49093 0
M  V30 6000 C 568.814 -1.36787 -3.32892 0
M  V30 6001 C 568.422 -2.87536 -3.43551 0
M  V30 6002 C 570.166 -1.16444 -4.08217 0
M  V30 6003 C 568.073 -3.38247 -4.85122 0
M  V30 6004 H 567.003 -0.292838 -0.694811 0
M  V30 6005 H 569.654 -1.29426 -1.30082 0
M  V30 6006 H 568.036 -0.793993 -3.87958 0
M  V30 6007 H 569.21 -3.50973 -2.98588 0
M  V30 6008 H 567.525 -3.06676 -2.81672 0
M  V30 6009 H 570.122 -1.51808 -5.12697 0
M  V30 6010 H 570.465 -0.10353 -4.16171 0
M  V30 6011 H 570.998 -1.70472 -3.59422 0
M  V30 6012 H 567.737 -4.43866 -4.82351 0
M  V30 6013 H 567.257 -2.79564 -5.30664 0
M  V30 6014 H 568.936 -3.34238 -5.5398 0
M  V30 6015 N 569.068 1.32177 -0.85831 0
M  V30 6016 C 570.317 1.96392 -0.459689 0
M  V30 6017 C 570.63 1.68659 0.990632 0
M  V30 6018 O 571.836 2.26641 1.49485 0
M  V30 6019 C 570.292 3.51542 -0.7711 0
M  V30 6020 C 569.9 3.8813 -2.2374 0
M  V30 6021 C 571.644 4.2221 -0.44038 0
M  V30 6022 C 569.551 5.36341 -2.49183 0
M  V30 6023 H 568.481 0.735007 -0.168169 0
M  V30 6024 H 571.132 1.50518 -1.0496 0
M  V30 6025 H 569.514 3.95846 -0.11058 0
M  V30 6026 H 570.688 3.54824 -2.94001 0
M  V30 6027 H 569.003 3.30497 -2.533 0
M  V30 6028 H 571.6 5.31234 -0.607855 0
M  V30 6029 H 571.943 4.11683 0.618291 0
M  V30 6030 H 572.476 3.83502 -1.05695 0
M  V30 6031 H 569.215 5.51892 -3.53689 0
M  V30 6032 H 568.735 5.7104 -1.83504 0
M  V30 6033 H 570.414 6.03466 -2.33318 0
M  V30 6034 N 570.547 0.616602 1.45037 0
M  V30 6035 C 571.772 0.120192 2.07051 0
M  V30 6036 C 572.197 -1.19008 1.45666 0
M  V30 6037 O 571.555 -1.7267 0.552692 0
M  V30 6038 C 571.603 0.00354901 3.606 0
M  V30 6039 O 570.707 -1.04431 3.98958 0
M  V30 6040 H 570.048 0.0781599 0.659384 0
M  V30 6041 H 572.578 0.849167 1.86146 0
M  V30 6042 H 572.588 -0.191754 4.07549 0
M  V30 6043 H 571.263 0.960239 4.04663 0
M  V30 6044 H 569.84 -0.824749 3.63665 0
M  V30 6045 N 572.025 -1.5352 0.356285 0
M  V30 6046 C 572.972 -2.25439 -0.494569 0
M  V30 6047 C 573.942 -1.25752 -1.08516 0
M  V30 6048 O 575.127 -1.54513 -1.1194 0
M  V30 6049 C 572.267 -3.04011 -1.63313 0
M  V30 6050 C 571.38 -4.18574 -1.06862 0
M  V30 6051 C 570.515 -4.84607 -2.17552 0
M  V30 6052 C 569.554 -5.91218 -1.58518 0
M  V30 6053 N 568.691 -6.50979 -2.63003 0
M  V30 6054 H 573.531 -2.97737 0.125244 0
M  V30 6055 H 571.068 -1.46916 0.0735789 0
M  V30 6056 H 573.026 -3.47834 -2.30363 0
M  V30 6057 H 571.656 -2.33986 -2.22374 0
M  V30 6058 H 570.708 -3.79303 -0.288672 0
M  V30 6059 H 572.02 -4.95215 -0.596924 0
M  V30 6060 H 571.174 -5.31566 -2.92442 0
M  V30 6061 H 569.913 -4.07418 -2.6807 0
M  V30 6062 H 568.918 -5.4363 -0.821391 0
M  V30 6063 H 570.143 -6.70322 -1.08836 0
M  V30 6064 H 568.089 -5.76648 -3.12751 0
M  V30 6065 H 568.006 -7.23131 -2.20493 0
M  V30 6066 H 569.274 -7.02589 -3.37623 0
M  V30 6067 N 573.503 -0.0852151 -1.57369 0
M  V30 6068 C 574.751 0.579658 -1.93609 0
M  V30 6069 C 575.072 1.69332 -0.967043 0
M  V30 6070 O 574.342 1.95892 -0.0174215 0
M  V30 6071 H 572.922 0.217113 -0.714752 0
M  V30 6072 H 575.584 -0.146226 -1.94351 0
M  V30 6073 H 574.68 0.996276 -2.95771 0
M  V30 6074 N 574.981 1.5647 0.188427 0
M  V30 6075 C 575.911 1.98101 1.23606 0
M  V30 6076 C 576.892 0.853961 1.47111 0
M  V30 6077 O 578.077 1.11879 1.58735 0
M  V30 6078 C 575.207 2.32624 2.57882 0
M  V30 6079 C 574.161 3.48129 2.48978 0
M  V30 6080 C 573.487 3.68347 3.87588 0
M  V30 6081 C 574.787 4.82112 2.00911 0
M  V30 6082 H 576.481 2.85864 0.890068 0
M  V30 6083 H 574.027 1.37532 0.426714 0
M  V30 6084 H 575.98 2.60343 3.3136 0
M  V30 6085 H 574.704 1.41751 2.94235 0
M  V30 6086 H 573.363 3.20511 1.77956 0
M  V30 6087 H 573.011 2.74793 4.21305 0
M  V30 6088 H 572.711 4.46055 3.82503 0
M  V30 6089 H 574.235 3.98449 4.62678 0
M  V30 6090 H 575.649 5.08819 2.64151 0
M  V30 6091 H 574.046 5.63337 2.06814 0
M  V30 6092 H 575.116 4.75249 0.96262 0
M  V30 6093 N 576.459 -0.456382 1.50847 0
M  V30 6094 C 577.684 -1.2349 1.66628 0
M  V30 6095 C 578.109 -1.84715 0.355254 0
M  V30 6096 O 577.467 -1.67961 -0.682559 0
M  V30 6097 C 577.515 -2.30865 2.77009 0
M  V30 6098 O 576.619 -3.35882 2.39285 0
M  V30 6099 H 575.96 -0.36266 0.556214 0
M  V30 6100 H 578.49 -0.541374 1.97308 0
M  V30 6101 H 578.5 -2.75949 3.00526 0
M  V30 6102 H 577.175 -1.85677 3.72152 0
M  V30 6103 H 575.752 -2.96406 2.26269 0
M  V30 6104 N 577.937 -1.40673 -0.710563 0
M  V30 6105 C 578.867 -1.44095 -1.83736 0
M  V30 6106 C 579.848 -0.301286 -1.67411 0
M  V30 6107 O 581.033 -0.510618 -1.87367 0
M  V30 6108 C 578.163 -1.30773 -3.21738 0
M  V30 6109 C 577.117 -2.42395 -3.52745 0
M  V30 6110 C 576.443 -2.14147 -4.89944 0
M  V30 6111 C 577.743 -3.84738 -3.53234 0
M  V30 6112 H 579.437 -2.38396 -1.81129 0
M  V30 6113 H 576.983 -1.14746 -0.870017 0
M  V30 6114 H 578.936 -1.31783 -4.00264 0
M  V30 6115 H 577.66 -0.329507 -3.24934 0
M  V30 6116 H 576.319 -2.40643 -2.76562 0
M  V30 6117 H 575.967 -1.14703 -4.89747 0
M  V30 6118 H 575.667 -2.88934 -5.11655 0
M  V30 6119 H 577.191 -2.16848 -5.70797 0
M  V30 6120 H 578.605 -3.88286 -4.2179 0
M  V30 6121 H 577.002 -4.59085 -3.86473 0
M  V30 6122 H 578.072 -4.13962 -2.52514 0
M  V30 6123 N 579.415 0.9433 -1.26252 0
M  V30 6124 C 580.664 1.68369 -1.11062 0
M  V30 6125 C 580.977 1.92514 0.346104 0
M  V30 6126 O 582.183 2.64358 0.618646 0
M  V30 6127 C 580.639 3.03171 -1.93946 0
M  V30 6128 C 580.247 2.86782 -3.4418 0
M  V30 6129 C 581.991 3.80916 -1.87359 0
M  V30 6130 C 579.898 4.17044 -4.19319 0
M  V30 6131 H 578.828 0.631469 -0.412023 0
M  V30 6132 H 581.479 1.04922 -1.50544 0
M  V30 6133 H 579.861 3.67587 -1.47296 0
M  V30 6134 H 581.035 2.31229 -3.98585 0
M  V30 6135 H 579.35 2.22482 -3.51981 0
M  V30 6136 H 581.947 4.77417 -2.40784 0
M  V30 6137 H 582.29 4.07658 -0.843857 0
M  V30 6138 H 582.823 3.2327 -2.31821 0
M  V30 6139 H 579.562 3.95487 -5.22753 0
M  V30 6140 H 579.082 4.72319 -3.69696 0
M  V30 6141 H 580.761 4.85513 -4.27651 0
M  V30 6142 N 580.893 1.08022 1.14757 0
M  V30 6143 C 582.123 0.827646 1.89298 0
M  V30 6144 C 582.531 -0.623506 1.78631 0
M  V30 6145 O 581.874 -1.43991 1.14071 0
M  V30 6146 C 581.936 1.16553 3.40082 0
M  V30 6147 C 581.6 2.61866 3.74533 0
M  V30 6148 C 582.597 3.60116 3.74984 0
M  V30 6149 C 580.282 2.97619 4.04633 0
M  V30 6150 C 582.276 4.92151 4.05051 0
M  V30 6151 C 579.963 4.2985 4.34364 0
M  V30 6152 C 580.961 5.26926 4.34555 0
M  V30 6153 O 580.649 6.5678 4.63568 0
M  V30 6154 H 580.381 0.298396 0.606577 0
M  V30 6155 H 582.935 1.44187 1.46285 0
M  V30 6156 H 581.165 0.494296 3.83528 0
M  V30 6157 H 582.854 0.894407 3.95923 0
M  V30 6158 H 583.62 3.33837 3.51821 0
M  V30 6159 H 579.499 2.22702 4.03639 0
M  V30 6160 H 583.043 5.67915 4.05115 0
M  V30 6161 H 578.94 4.55879 4.56995 0
M  V30 6162 H 579.708 6.62035 4.81303 0
M  V30 6163 N 582.371 -1.3172 0.865308 0
M  V30 6164 C 583.619 -1.96487 0.472995 0
M  V30 6165 C 583.94 -1.68761 -0.976975 0
M  V30 6166 O 583.21 -1.00051 -1.68424 0
M  V30 6167 H 581.79 -0.726947 0.171922 0
M  V30 6168 H 584.452 -1.60612 1.10407 0
M  V30 6169 H 583.548 -3.0574 0.62687 0
M  V30 6170 N 583.85 -0.624285 -1.44708 0
M  V30 6171 C 585.075 -0.131171 -2.06985 0
M  V30 6172 C 585.5 1.18234 -1.46295 0
M  V30 6173 O 584.858 1.72375 -0.561842 0
M  V30 6174 C 584.906 -0.0226724 -3.60593 0
M  V30 6175 O 584.01 1.02314 -3.99507 0
M  V30 6176 H 583.351 -0.0816556 -0.65896 0
M  V30 6177 H 585.88 -0.859027 -1.85693 0
M  V30 6178 H 585.891 0.170138 -4.07645 0
M  V30 6179 H 584.566 -0.981685 -4.04148 0
M  V30 6180 H 583.143 0.805452 -3.64097 0
M  V30 6181 N 585.328 1.53329 -0.364422 0
M  V30 6182 C 586.291 2.24323 0.470292 0
M  V30 6183 C 587.291 1.25068 1.01067 0
M  V30 6184 O 588.481 1.49354 0.896605 0
M  V30 6185 C 585.613 2.97908 1.65722 0
M  V30 6186 H 586.806 2.9952 -0.150917 0
M  V30 6187 H 584.359 1.55868 -0.116092 0
M  V30 6188 H 585.094 2.2695 2.31655 0
M  V30 6189 H 584.879 3.70732 1.27671 0
M  V30 6190 H 586.369 3.5188 2.24878 0
M  V30 6191 N 586.806 0.0935595 1.57322 0
M  V30 6192 C 588.046 -0.573901 1.96178 0
M  V30 6193 C 588.41 -1.65445 0.97426 0
M  V30 6194 O 589.611 -2.37901 1.25126 0
M  V30 6195 C 587.882 -1.11612 3.39526 0
M  V30 6196 S 589.441 -1.79566 4.00377 0
M  V30 6197 H 586.259 -0.187315 0.685882 0
M  V30 6198 H 588.861 0.172597 1.94737 0
M  V30 6199 H 587.565 -0.31815 4.09165 0
M  V30 6200 H 587.096 -1.89848 3.4456 0
M  V30 6201 H 589.111 -3.07978 3.89056 0
M  V30 6202 N 588.284 -1.56567 -0.180126 0
M  V30 6203 C 589.214 -1.98753 -1.22553 0
M  V30 6204 C 590.195 -0.86175 -1.46656 0
M  V30 6205 O 591.38 -1.12719 -1.58139 0
M  V30 6206 C 588.51 -2.33988 -2.56645 0
M  V30 6207 C 587.464 -3.49445 -2.47128 0
M  V30 6208 C 586.79 -3.70397 -3.8563 0
M  V30 6209 C 588.09 -4.83171 -1.98352 0
M  V30 6210 H 589.784 -2.86332 -0.874896 0
M  V30 6211 H 587.33 -1.37757 -0.419414 0
M  V30 6212 H 589.283 -2.62097 -3.29974 0
M  V30 6213 H 588.007 -1.43309 -2.93479 0
M  V30 6214 H 586.666 -3.2145 -1.76254 0
M  V30 6215 H 586.314 -2.77023 -4.19842 0
M  V30 6216 H 586.014 -4.48077 -3.80132 0
M  V30 6217 H 587.538 -4.00897 -4.60558 0
M  V30 6218 H 588.952 -5.10213 -2.61449 0
M  V30 6219 H 587.349 -5.64425 -2.03823 0
M  V30 6220 H 588.419 -4.75753 -0.937402 0
M  V30 6221 N 589.762 0.448376 -1.51087 0
M  V30 6222 C 590.99 1.22143 -1.66999 0
M  V30 6223 C 591.405 1.85283 -0.362699 0
M  V30 6224 O 590.762 1.70236 0.65772 0
M  V30 6225 C 590.813 2.31357 -2.7777 0
M  V30 6226 O 590.534 1.70801 -4.03434 0
M  V30 6227 C 592.035 3.21836 -3.04855 0
M  V30 6228 H 589.255 0.368558 -0.560719 0
M  V30 6229 H 591.799 0.532618 -1.97442 0
M  V30 6230 H 589.954 2.95973 -2.49958 0
M  V30 6231 H 590.368 2.42895 -4.64868 0
M  V30 6232 H 591.842 3.94627 -3.85971 0
M  V30 6233 H 592.319 3.81949 -2.16821 0
M  V30 6234 H 592.925 2.62933 -3.34285 0
M  V30 6235 N 591.24 1.41047 0.703093 0
M  V30 6236 C 592.486 1.40207 1.46526 0
M  V30 6237 C 592.819 0.00847763 1.94198 0
M  V30 6238 O 592.094 -0.962437 1.69019 0
M  V30 6239 C 592.377 2.40238 2.6825 0
M  V30 6240 C 592.23 3.88674 2.26391 0
M  V30 6241 C 593.549 2.37627 3.70434 0
M  V30 6242 H 590.668 0.510594 0.531472 0
M  V30 6243 H 593.31 1.72271 0.801422 0
M  V30 6244 H 591.46 2.13026 3.24888 0
M  V30 6245 H 593.132 4.2676 1.75138 0
M  V30 6246 H 591.375 4.03903 1.58255 0
M  V30 6247 H 592.046 4.542 3.13698 0
M  V30 6248 H 594.522 2.61759 3.23452 0
M  V30 6249 H 593.398 3.09645 4.53223 0
M  V30 6250 H 593.659 1.39223 4.19606 0
M  V30 6251 N 592.718 -0.936591 1.26751 0
M  V30 6252 C 593.681 -2.01752 1.08761 0
M  V30 6253 C 594.681 -1.60763 0.0344435 0
M  V30 6254 O 595.871 -1.71963 0.278258 0
M  V30 6255 C 593.003 -3.34543 0.655271 0
M  V30 6256 H 594.196 -2.19143 2.04735 0
M  V30 6257 H 591.749 -1.11618 1.09413 0
M  V30 6258 H 592.484 -3.22851 -0.30626 0
M  V30 6259 H 592.269 -3.65647 1.41578 0
M  V30 6260 H 593.759 -4.13944 0.551378 0
M  V30 6261 N 594.196 -1.08629 -1.14182 0
M  V30 6262 C 595.159 -0.722027 -2.1753 0
M  V30 6263 C 596.159 0.244305 -1.58933 0
M  V30 6264 O 597.349 0.0235545 -1.74184 0
M  V30 6265 C 594.481 -0.0663966 -3.40835 0
M  V30 6266 H 595.674 -1.63719 -2.51269 0
M  V30 6267 H 593.227 -0.884442 -1.28869 0
M  V30 6268 H 593.962 0.860389 -3.12678 0
M  V30 6269 H 593.747 -0.761598 -3.84632 0
M  V30 6270 H 595.237 0.173346 -4.1724 0
M  V30 6271 N 595.674 1.31259 -0.872281 0
M  V30 6272 C 596.604 2.30929 -0.345554 0
M  V30 6273 C 597.585 1.60449 0.5648 0
M  V30 6274 O 598.77 1.8814 0.481335 0
M  V30 6275 C 595.9 3.44348 0.451823 0
M  V30 6276 C 594.854 4.26435 -0.365641 0
M  V30 6277 C 594.18 5.31785 0.557562 0
M  V30 6278 C 595.48 4.97159 -1.60095 0
M  V30 6279 H 597.174 2.75234 -1.17841 0
M  V30 6280 H 594.72 1.3232 -0.568094 0
M  V30 6281 H 596.673 4.13128 0.830854 0
M  V30 6282 H 595.397 2.98816 1.31821 0
M  V30 6283 H 594.056 3.59326 -0.726649 0
M  V30 6284 H 593.704 4.82502 1.4213 0
M  V30 6285 H 593.404 5.87598 0.0144878 0
M  V30 6286 H 594.928 6.03424 0.933387 0
M  V30 6287 H 596.342 5.58523 -1.29323 0
M  V30 6288 H 594.739 5.62779 -2.08327 0
M  V30 6289 H 595.809 4.24012 -2.35249 0
M  V30 6290 N 597.152 0.631951 1.44375 0
M  V30 6291 C 598.377 0.142146 2.06912 0
M  V30 6292 C 598.802 -1.17456 1.4692 0
M  V30 6293 O 598.16 -1.72074 0.570975 0
M  V30 6294 C 598.208 0.0417952 3.60576 0
M  V30 6295 O 597.312 -1.00194 4.00044 0
M  V30 6296 H 596.653 0.0851491 0.658518 0
M  V30 6297 H 599.183 0.868863 1.85235 0
M  V30 6298 H 599.193 -0.148517 4.0773 0
M  V30 6299 H 597.868 1.0031 4.03622 0
M  V30 6300 H 596.445 -0.786131 3.64519 0
M  V30 6301 N 598.631 -1.53133 0.372548 0
M  V30 6302 C 599.856 -2.0625 -0.218098 0
M  V30 6303 C 600.281 -1.24375 -1.41111 0
M  V30 6304 O 599.639 -0.264554 -1.79359 0
M  V30 6305 C 599.687 -3.55858 -0.582876 0
M  V30 6306 O 598.791 -3.76667 -1.67917 0
M  V30 6307 H 598.132 -0.663317 -0.030104 0
M  V30 6308 H 600.662 -1.97477 0.535169 0
M  V30 6309 H 600.672 -3.99007 -0.851925 0
M  V30 6310 H 599.347 -4.14892 0.289428 0
M  V30 6311 H 597.924 -3.45413 -1.40513 0
M  V30 6312 N 600.109 -0.101901 -1.5727 0
M  V30 6313 C 601.039 0.851544 -2.17419 0
M  V30 6314 C 602.02 1.28942 -1.10941 0
M  V30 6315 O 603.205 1.35509 -1.39107 0
M  V30 6316 C 600.335 2.10816 -2.75996 0
M  V30 6317 C 599.289 1.80867 -3.87906 0
M  V30 6318 C 598.615 3.13413 -4.33216 0
M  V30 6319 C 599.915 1.0903 -5.10793 0
M  V30 6320 H 601.609 0.350381 -2.97343 0
M  V30 6321 H 599.155 0.16709 -1.43027 0
M  V30 6322 H 601.108 2.77959 -3.16729 0
M  V30 6323 H 599.832 2.63227 -1.93337 0
M  V30 6324 H 598.491 1.16119 -3.47724 0
M  V30 6325 H 598.139 3.63725 -3.47438 0
M  V30 6326 H 597.839 2.94155 -5.08671 0
M  V30 6327 H 599.363 3.81704 -4.76586 0
M  V30 6328 H 600.777 1.66295 -5.48652 0
M  V30 6329 H 599.174 0.99927 -5.91722 0
M  V30 6330 H 600.244 0.0741704 -4.84843 0
M  V30 6331 N 601.587 1.56661 0.17182 0
M  V30 6332 C 602.517 1.99401 1.21498 0
M  V30 6333 C 603.498 0.869516 1.46197 0
M  V30 6334 O 604.683 1.13556 1.57539 0
M  V30 6335 C 601.813 2.35346 2.55401 0
M  V30 6336 C 600.767 3.5075 2.45272 0
M  V30 6337 C 600.093 3.72437 3.8366 0
M  V30 6338 C 601.393 4.84216 1.95787 0
M  V30 6339 H 603.087 2.86792 0.859699 0
M  V30 6340 H 600.633 1.37977 0.412103 0
M  V30 6341 H 602.586 2.63843 3.2858 0
M  V30 6342 H 601.31 1.44864 2.92715 0
M  V30 6343 H 599.969 3.2238 1.74547 0
M  V30 6344 H 599.617 2.79246 4.18367 0
M  V30 6345 H 599.317 4.50087 3.77751 0
M  V30 6346 H 600.841 4.03334 4.58426 0
M  V30 6347 H 602.255 5.11592 2.5874 0
M  V30 6348 H 600.652 5.65498 2.00827 0
M  V30 6349 H 601.722 4.76243 0.912159 0
M  V30 6350 N 603.065 -0.440357 1.51323 0
M  V30 6351 C 604.313 -1.18769 1.63518 0
M  V30 6352 C 604.634 -1.91793 0.352201 0
M  V30 6353 O 603.904 -1.85432 -0.631811 0
M  V30 6354 H 602.484 -0.441408 0.602634 0
M  V30 6355 H 605.146 -0.505162 1.8824 0
M  V30 6356 H 604.242 -1.91892 2.46138 0
M  V30 6357 N 604.543 -1.41418 -0.695603 0
M  V30 6358 C 605.791 -1.40496 -1.45277 0
M  V30 6359 C 606.112 -0.0149538 -1.94994 0
M  V30 6360 O 605.382 0.9432 -1.71699 0
M  V30 6361 H 603.962 -0.517147 -0.539044 0
M  V30 6362 H 606.624 -1.76656 -0.823321 0
M  V30 6363 H 605.72 -2.09214 -2.31595 0
M  V30 6364 N 606.021 0.929856 -1.27246 0
M  V30 6365 C 607.269 1.674 -1.13233 0
M  V30 6366 C 607.59 1.92311 0.322744 0
M  V30 6367 O 606.86 1.52784 1.22612 0
M  V30 6368 H 605.44 0.620411 -0.416052 0
M  V30 6369 H 608.102 1.11663 -1.59741 0
M  V30 6370 H 607.198 2.64308 -1.65975 0
M  V30 6371 N 607.499 1.09233 1.13605 0
M  V30 6372 C 608.745 0.828385 1.8511 0
M  V30 6373 C 609.078 -0.64437 1.83198 0
M  V30 6374 O 608.353 -1.47428 1.26867 0
M  V30 6375 C 608.636 1.36167 3.33363 0
M  V30 6376 C 608.489 2.90038 3.438 0
M  V30 6377 C 609.808 0.993819 4.28732 0
M  V30 6378 H 606.927 0.30239 0.672108 0
M  V30 6379 H 609.569 1.35339 1.33355 0
M  V30 6380 H 607.719 0.9151 3.77569 0
M  V30 6381 H 609.391 3.43128 3.08319 0
M  V30 6382 H 607.634 3.27271 2.84739 0
M  V30 6383 H 608.305 3.22428 4.48045 0
M  V30 6384 H 610.781 1.37893 3.92587 0
M  V30 6385 H 609.657 1.39403 5.30903 0
M  V30 6386 H 609.918 -0.0982206 4.41991 0
M  V30 6387 N 608.977 -1.30795 0.87923 0
M  V30 6388 C 609.907 -2.30742 0.357796 0
M  V30 6389 C 610.888 -1.60747 -0.556283 0
M  V30 6390 O 612.073 -1.88393 -0.47135 0
M  V30 6391 C 609.203 -3.44583 -0.433555 0
M  V30 6392 C 608.157 -4.26235 0.388251 0
M  V30 6393 C 607.483 -5.32073 -0.529352 0
M  V30 6394 C 608.783 -4.96303 1.62729 0
M  V30 6395 H 610.477 -2.74605 1.19299 0
M  V30 6396 H 608.023 -1.32017 0.575104 0
M  V30 6397 H 609.976 -4.13563 -0.808934 0
M  V30 6398 H 608.7 -2.99511 -1.30234 0
M  V30 6399 H 607.359 -3.58936 0.745695 0
M  V30 6400 H 607.007 -4.83249 -1.39569 0
M  V30 6401 H 606.707 -5.87598 0.0166741 0
M  V30 6402 H 608.231 -6.0391 -0.901373 0
M  V30 6403 H 609.645 -5.5783 1.32283 0
M  V30 6404 H 608.042 -5.61666 2.11309 0
M  V30 6405 H 609.112 -4.22758 2.37494 0
M  V30 6406 N 610.455 -0.639598 -1.44038 0
M  V30 6407 C 611.387 0.0987684 -2.28987 0
M  V30 6408 C 612.4 0.80058 -1.41755 0
M  V30 6409 O 613.589 0.660611 -1.65826 0
M  V30 6410 C 610.689 1.16242 -3.18341 0
M  V30 6411 C 609.862 0.541447 -4.34036 0
M  V30 6412 C 608.921 1.50017 -5.04362 0
M  V30 6413 O 607.947 1.01403 -5.60095 0
M  V30 6414 N 609.149 2.83441 -5.06598 0
M  V30 6415 H 611.914 -0.630305 -2.92997 0
M  V30 6416 H 609.475 -0.481376 -1.54578 0
M  V30 6417 H 611.467 1.80429 -3.62253 0
M  V30 6418 H 610.037 1.79362 -2.56024 0
M  V30 6419 H 609.257 -0.27923 -3.9321 0
M  V30 6420 H 610.545 0.107379 -5.08687 0
M  V30 6421 H 609.943 3.2551 -4.62666 0
M  V30 6422 H 608.5 3.42966 -5.54272 0
M  V30 6423 N 611.933 1.52934 -0.380664 0
M  V30 6424 C 613.181 2.01069 0.203874 0
M  V30 6425 C 613.502 1.26922 1.4804 0
M  V30 6426 O 612.772 0.386787 1.92044 0
M  V30 6427 H 611.352 0.742882 0.0783279 0
M  V30 6428 H 614.014 1.88099 -0.510368 0
M  V30 6429 H 613.11 3.09258 0.42021 0
M  V30 6430 N 613.412 0.11024 1.57214 0
M  V30 6431 C 614.637 -0.561179 1.99664 0
M  V30 6432 C 615.062 -1.59985 0.989266 0
M  V30 6433 O 614.42 -1.81255 -0.0402399 0
M  V30 6434 C 614.468 -1.17189 3.41027 0
M  V30 6435 O 613.572 -2.28755 3.4314 0
M  V30 6436 H 612.913 -0.14101 0.648855 0
M  V30 6437 H 615.443 0.196128 2.03658 0
M  V30 6438 H 615.453 -1.50954 3.79047 0
M  V30 6439 H 614.128 -0.411041 4.13864 0
M  V30 6440 H 612.705 -1.96495 3.16929 0
M  V30 6441 N 614.89 -1.56749 -0.16351 0
M  V30 6442 C 616.137 -1.82434 -0.878866 0
M  V30 6443 C 616.465 -0.688557 -1.81904 0
M  V30 6444 O 615.72 0.323644 -1.93005 0
M  V30 6445 C 616.019 -3.14342 -1.70071 0
M  V30 6446 C 615.685 -4.41647 -0.908775 0
M  V30 6447 C 614.347 -4.76224 -0.690236 0
M  V30 6448 C 616.699 -5.19998 -0.353815 0
M  V30 6449 C 614.027 -5.86624 0.0942374 0
M  V30 6450 C 616.379 -6.3122 0.41761 0
M  V30 6451 C 615.043 -6.64358 0.646879 0
M  V30 6452 H 614.313 -0.667574 -0.3216 0
M  V30 6453 H 616.96 -1.90963 -0.14337 0
M  V30 6454 H 615.265 -3.0119 -2.50583 0
M  V30 6455 H 616.962 -3.31426 -2.25738 0
M  V30 6456 H 613.552 -4.1453 -1.08916 0
M  V30 6457 H 617.736 -4.93673 -0.509975 0
M  V30 6458 H 612.992 -6.10751 0.281529 0
M  V30 6459 H 617.166 -6.91133 0.854849 0
M  V30 6460 H 614.793 -7.49742 1.25662 0
M  V30 6461 N 616.368 0.432326 -1.51554 0
M  V30 6462 C 617.596 1.20364 -1.68286 0
M  V30 6463 C 618.011 1.84888 -0.38233 0
M  V30 6464 O 617.368 1.70924 0.639627 0
M  V30 6465 C 617.419 2.28398 -2.80208 0
M  V30 6466 O 617.14 1.66512 -4.05223 0
M  V30 6467 C 618.641 3.18584 -3.08251 0
M  V30 6468 H 615.861 0.36259 -0.564596 0
M  V30 6469 H 618.405 0.511647 -1.97996 0
M  V30 6470 H 616.56 2.93305 -2.53083 0
M  V30 6471 H 616.974 2.37951 -4.67418 0
M  V30 6472 H 618.448 3.90511 -3.90135 0
M  V30 6473 H 618.925 3.79628 -2.2086 0
M  V30 6474 H 619.531 2.59372 -3.37055 0
M  V30 6475 N 617.846 1.41785 0.688094 0
M  V30 6476 C 619.092 1.41753 1.4503 0
M  V30 6477 C 619.425 0.0290745 1.94178 0
M  V30 6478 O 618.7 -0.944456 1.7003 0
M  V30 6479 C 618.983 2.43069 2.65686 0
M  V30 6480 C 618.836 3.91053 2.22256 0
M  V30 6481 C 620.155 2.41543 3.67893 0
M  V30 6482 H 617.274 0.516202 0.526027 0
M  V30 6483 H 619.916 1.73111 0.783105 0
M  V30 6484 H 618.066 2.1646 3.2261 0
M  V30 6485 H 619.738 4.28594 1.70602 0
M  V30 6486 H 617.981 4.05559 1.53963 0
M  V30 6487 H 618.652 4.57501 3.08863 0
M  V30 6488 H 621.128 2.65175 3.20658 0
M  V30 6489 H 620.004 3.14434 4.49914 0
M  V30 6490 H 620.265 1.43666 4.18106 0
M  V30 6491 N 619.324 -0.923095 1.27737 0
M  V30 6492 C 620.257 -2.02515 1.05181 0
M  V30 6493 C 621.235 -1.62574 -0.0292204 0
M  V30 6494 O 622.419 -1.88137 0.116848 0
M  V30 6495 C 619.546 -3.33407 0.596468 0
M  V30 6496 C 618.592 -3.92328 1.67276 0
M  V30 6497 S 619.425 -4.24342 3.26641 0
M  V30 6498 C 620.581 -5.58308 2.82919 0
M  V30 6499 H 620.814 -2.21336 1.98488 0
M  V30 6500 H 618.347 -1.06679 1.1162 0
M  V30 6501 H 620.305 -4.09086 0.34044 0
M  V30 6502 H 618.966 -3.125 -0.316614 0
M  V30 6503 H 618.159 -4.86797 1.30556 0
M  V30 6504 H 617.761 -3.2325 1.8811 0
M  V30 6505 H 620.053 -6.37801 2.28509 0
M  V30 6506 H 620.996 -5.99931 3.7615 0
M  V30 6507 H 621.404 -5.19049 2.21919 0
M  V30 6508 N 620.802 -1.09834 -1.13024 0
M  V30 6509 C 622.05 -0.835297 -1.8403 0
M  V30 6510 C 622.371 0.640944 -1.84165 0
M  V30 6511 O 621.641 1.46517 -1.30037 0
M  V30 6512 H 620.221 -0.306018 -0.681441 0
M  V30 6513 H 622.883 -1.38734 -1.36891 0
M  V30 6514 H 621.979 -1.19258 -2.88416 0
M  V30 6515 N 622.28 1.30327 -0.886154 0
M  V30 6516 C 623.526 1.96388 -0.505941 0
M  V30 6517 C 623.859 1.69784 0.942712 0
M  V30 6518 O 623.134 1.00322 1.6663 0
M  V30 6519 C 623.417 3.51488 -0.782826 0
M  V30 6520 C 623.27 3.87603 -2.28219 0
M  V30 6521 C 624.589 4.39331 -0.260128 0
M  V30 6522 H 621.708 0.713327 -0.185292 0
M  V30 6523 H 624.35 1.54178 -1.11036 0
M  V30 6524 H 622.5 3.87572 -0.268399 0
M  V30 6525 H 624.172 3.61537 -2.86512 0
M  V30 6526 H 622.415 3.3563 -2.74837 0
M  V30 6527 H 623.086 4.95806 -2.42653 0
M  V30 6528 H 625.562 4.10162 -0.700444 0
M  V30 6529 H 624.438 5.46769 -0.483179 0
M  V30 6530 H 624.699 4.34072 0.838674 0
M  V30 6531 N 623.758 0.647228 1.43697 0
M  V30 6532 C 625.007 0.155552 2.01099 0
M  V30 6533 C 625.32 -1.23569 1.51624 0
M  V30 6534 O 626.526 -1.82226 2.01261 0
M  V30 6535 C 624.982 0.227296 3.59182 0
M  V30 6536 C 624.59 1.62086 4.17651 0
M  V30 6537 C 626.334 -0.207085 4.23995 0
M  V30 6538 C 624.241 1.64685 5.68008 0
M  V30 6539 H 623.171 0.0543895 0.752036 0
M  V30 6540 H 625.822 0.808386 1.64734 0
M  V30 6541 H 624.204 -0.492937 3.9292 0
M  V30 6542 H 625.378 2.36597 3.95422 0
M  V30 6543 H 623.693 2.0007 3.65186 0
M  V30 6544 H 626.29 -0.207426 5.34298 0
M  V30 6545 H 626.633 -1.23742 3.97484 0
M  V30 6546 H 627.166 0.461193 3.95118 0
M  V30 6547 H 623.905 2.65608 5.99277 0
M  V30 6548 H 623.425 0.944914 5.9231 0
M  V30 6549 H 625.104 1.38792 6.31938 0
M  V30 6550 N 625.236 -1.5273 0.388769 0
M  V30 6551 C 626.461 -2.0647 -0.19621 0
M  V30 6552 C 626.886 -1.25865 -1.39784 0
M  V30 6553 O 626.244 -0.283562 -1.79069 0
M  V30 6554 C 626.292 -3.56456 -0.5451 0
M  V30 6555 O 625.396 -3.78426 -1.63912 0
M  V30 6556 H 624.737 -0.663599 -0.023067 0
M  V30 6557 H 627.267 -1.96898 0.556084 0
M  V30 6558 H 627.277 -3.99888 -0.809557 0
M  V30 6559 H 625.952 -4.14561 0.333417 0
M  V30 6560 H 624.529 -3.46884 -1.36842 0
M  V30 6561 N 626.714 -0.118576 -1.57153 0
M  V30 6562 C 627.962 0.538461 -1.94795 0
M  V30 6563 C 628.283 1.67243 -1.00274 0
M  V30 6564 O 627.553 1.95811 -0.0589692 0
M  V30 6565 H 626.133 0.201904 -0.719197 0
M  V30 6566 H 628.795 -0.187418 -1.93997 0
M  V30 6567 H 627.891 0.933315 -2.97818 0
M  V30 6568 N 628.193 1.56834 0.155195 0
M  V30 6569 C 629.604 1.72421 0.716082 0
M  V30 6570 C 629.955 0.731685 1.82046 0
M  V30 6571 O 629.08 -0.103481 2.16152 0
M  V30 6572 C 629.675 3.12629 1.30571 0
M  V30 6573 C 628.234 3.29846 1.81325 0
M  V30 6574 C 627.381 2.68359 0.698494 0
M  V30 6575 H 630.332 1.58544 -0.0703861 0
M  V30 6576 H 630.353 3.12174 2.1755 0
M  V30 6577 H 629.865 3.84844 0.501701 0
M  V30 6578 H 627.966 2.62614 2.64319 0
M  V30 6579 H 628.079 4.37727 1.9476 0
M  V30 6580 H 626.443 2.28604 1.12305 0
M  V30 6581 H 627.226 3.43171 -0.0939366 0
M  V30 6582 N 629.671 -0.424282 1.51781 0
M  V30 6583 C 630.601 -1.52305 1.7699 0
M  V30 6584 C 631.582 -1.5839 0.620209 0
M  V30 6585 O 632.767 -1.73908 0.864268 0
M  V30 6586 C 629.897 -2.90271 1.90683 0
M  V30 6587 C 628.851 -2.99043 3.06198 0
M  V30 6588 C 628.177 -4.39116 3.05092 0
M  V30 6589 C 629.477 -2.7192 4.45934 0
M  V30 6590 H 631.171 -1.31461 2.68995 0
M  V30 6591 H 628.717 -0.630985 1.29439 0
M  V30 6592 H 630.67 -3.6711 2.06901 0
M  V30 6593 H 629.394 -3.12376 0.953365 0
M  V30 6594 H 628.053 -2.24646 2.89706 0
M  V30 6595 H 627.701 -4.58207 2.07498 0
M  V30 6596 H 627.401 -4.45912 3.82669 0
M  V30 6597 H 628.925 -5.17911 3.2342 0
M  V30 6598 H 630.339 -3.38487 4.62709 0
M  V30 6599 H 628.736 -2.90111 5.25315 0
M  V30 6600 H 629.806 -1.67445 4.55072 0
M  V30 6601 N 631.149 -1.42148 -0.680565 0
M  V30 6602 C 632.079 -1.4796 -1.80638 0
M  V30 6603 C 633.06 -0.336728 -1.66734 0
M  V30 6604 O 634.245 -0.550247 -1.86242 0
M  V30 6605 C 631.375 -1.37569 -3.18892 0
M  V30 6606 C 630.329 -2.49823 -3.47524 0
M  V30 6607 C 629.655 -2.24491 -4.85291 0
M  V30 6608 C 630.955 -3.92144 -3.44994 0
M  V30 6609 H 632.649 -2.42184 -1.76032 0
M  V30 6610 H 630.195 -1.16566 -0.845481 0
M  V30 6611 H 632.148 -1.40243 -3.97379 0
M  V30 6612 H 630.872 -0.398357 -3.24162 0
M  V30 6613 H 629.531 -2.46455 -2.71395 0
M  V30 6614 H 629.179 -1.25066 -4.87204 0
M  V30 6615 H 628.879 -2.99722 -5.05411 0
M  V30 6616 H 630.403 -2.28906 -5.66069 0
M  V30 6617 H 631.817 -3.97145 -4.13459 0
M  V30 6618 H 630.214 -4.67179 -3.76648 0
M  V30 6619 H 631.284 -4.19225 -2.43676 0
M  V30 6620 N 632.627 0.916307 -1.28225 0
M  V30 6621 C 633.875 1.6619 -1.15002 0
M  V30 6622 C 634.196 1.92642 0.302329 0
M  V30 6623 O 633.466 1.54076 1.20985 0
M  V30 6624 H 632.046 0.615964 -0.422608 0
M  V30 6625 H 634.708 1.09963 -1.60917 0
M  V30 6626 H 633.804 2.62533 -1.68769 0
M  V30 6627 N 634.105 1.10431 1.1244 0
M  V30 6628 C 635.068 0.756542 2.16354 0
M  V30 6629 C 636.068 -0.21899 1.59302 0
M  V30 6630 O 637.258 0.00415969 1.742 0
M  V30 6631 C 634.39 0.120612 3.40687 0
M  V30 6632 H 635.583 1.67696 2.48632 0
M  V30 6633 H 633.136 0.904832 1.27446 0
M  V30 6634 H 633.871 -0.810536 3.14008 0
M  V30 6635 H 633.656 0.822693 3.83372 0
M  V30 6636 H 635.146 -0.106945 4.17463 0
M  V30 6637 N 635.583 -1.29855 0.893053 0
M  V30 6638 C 636.83 -1.95826 0.515585 0
M  V30 6639 C 637.158 -1.70451 -0.936842 0
M  V30 6640 O 636.413 -1.00657 -1.67829 0
M  V30 6641 C 636.712 -3.49515 0.746588 0
M  V30 6642 C 636.378 -3.94955 2.17535 0
M  V30 6643 C 635.04 -4.07073 2.56603 0
M  V30 6644 C 637.392 -4.18536 3.10607 0
M  V30 6645 C 634.72 -4.40138 3.87938 0
M  V30 6646 C 637.072 -4.53073 4.41484 0
M  V30 6647 C 635.736 -4.634 4.80434 0
M  V30 6648 H 635.006 -0.71658 0.188666 0
M  V30 6649 H 637.653 -1.54574 1.13045 0
M  V30 6650 H 635.958 -3.9177 0.0487551 0
M  V30 6651 H 637.655 -3.98644 0.434009 0
M  V30 6652 H 634.245 -3.86035 1.86212 0
M  V30 6653 H 638.429 -4.08646 2.81641 0
M  V30 6654 H 633.685 -4.46335 4.17846 0
M  V30 6655 H 637.859 -4.70269 5.13634 0
M  V30 6656 H 635.486 -4.88775 5.82239 0
M  V30 6657 N 637.061 -0.65484 -1.43351 0
M  V30 6658 C 638.31 -0.166215 -2.01014 0
M  V30 6659 C 638.623 1.22764 -1.52278 0
M  V30 6660 O 639.829 1.81156 -2.02224 0
M  V30 6661 C 638.285 -0.246341 -3.59056 0
M  V30 6662 C 637.893 -1.64299 -4.16785 0
M  V30 6663 C 639.637 0.184597 -4.24098 0
M  V30 6664 C 637.544 -1.67695 -5.67126 0
M  V30 6665 H 636.474 -0.0583769 -0.751737 0
M  V30 6666 H 639.125 -0.817111 -1.64303 0
M  V30 6667 H 637.507 0.472092 -3.93176 0
M  V30 6668 H 638.681 -2.3869 -3.94162 0
M  V30 6669 H 636.996 -2.02004 -3.6412 0
M  V30 6670 H 639.593 0.179088 -5.344 0
M  V30 6671 H 639.936 1.21632 -3.98135 0
M  V30 6672 H 640.469 -0.482141 -3.94867 0
M  V30 6673 H 637.208 -2.68783 -5.9786 0
M  V30 6674 H 636.728 -0.976313 -5.91801 0
M  V30 6675 H 638.407 -1.42142 -6.31193 0
M  V30 6676 N 638.539 1.52521 -0.396863 0
M  V30 6677 C 639.469 2.29582 0.425941 0
M  V30 6678 C 640.45 1.33281 1.05689 0
M  V30 6679 O 641.635 1.62181 1.06823 0
M  V30 6680 C 638.765 3.10821 1.54943 0
M  V30 6681 C 637.719 4.15069 1.04413 0
M  V30 6682 C 637.045 4.84578 2.26028 0
M  V30 6683 C 638.345 5.22191 0.106767 0
M  V30 6684 H 640.039 2.98612 -0.217045 0
M  V30 6685 H 637.585 1.43611 -0.105826 0
M  V30 6686 H 639.538 3.63492 2.13193 0
M  V30 6687 H 638.262 2.39538 2.22011 0
M  V30 6688 H 636.921 3.63389 0.484118 0
M  V30 6689 H 636.569 4.09835 2.91623 0
M  V30 6690 H 636.269 5.55043 1.92876 0
M  V30 6691 H 637.793 5.40056 2.84906 0
M  V30 6692 H 639.207 5.70176 0.597685 0
M  V30 6693 H 637.604 5.99947 -0.135352 0
M  V30 6694 H 638.674 4.77531 -0.842134 0
M  V30 6695 N 640.017 0.126909 1.57088 0
M  V30 6696 C 641.265 -0.528123 1.95078 0
M  V30 6697 C 641.586 -1.66708 1.0116 0
M  V30 6698 O 640.856 -1.95777 0.0693527 0
M  V30 6699 H 639.436 -0.198087 0.720257 0
M  V30 6700 H 642.098 0.197703 1.93895 0
M  V30 6701 H 641.194 -0.917507 2.98309 0
M  V30 6702 N 641.495 -1.56914 -0.146875 0
M  V30 6703 C 642.428 -1.93425 -1.21087 0
M  V30 6704 C 643.406 -0.800106 -1.41552 0
M  V30 6705 O 644.59 -1.05572 -1.56162 0
M  V30 6706 C 641.717 -2.20639 -2.56975 0
M  V30 6707 C 640.763 -3.43279 -2.53104 0
M  V30 6708 S 641.596 -4.96836 -1.99786 0
M  V30 6709 C 642.752 -5.27172 -3.37403 0
M  V30 6710 H 642.985 -2.8337 -0.899378 0
M  V30 6711 H 640.518 -1.50322 -0.352494 0
M  V30 6712 H 642.476 -2.36998 -3.35175 0
M  V30 6713 H 641.137 -1.31357 -2.85314 0
M  V30 6714 H 640.33 -3.59599 -3.53136 0
M  V30 6715 H 639.932 -3.26163 -1.83012 0
M  V30 6716 H 642.224 -5.20647 -4.33513 0
M  V30 6717 H 643.167 -6.28626 -3.25937 0
M  V30 6718 H 643.575 -4.54687 -3.34544 0
M  V30 6719 N 642.974 0.416227 -1.52004 0
M  V30 6720 C 644.221 1.16383 -1.65714 0
M  V30 6721 C 644.549 1.9068 -0.383594 0
M  V30 6722 O 643.804 1.85174 0.633185 0
M  V30 6723 C 644.103 2.18923 -2.82502 0
M  V30 6724 C 643.769 1.61485 -4.20991 0
M  V30 6725 C 642.431 1.45545 -4.58661 0
M  V30 6726 C 644.783 1.19468 -5.07323 0
M  V30 6727 C 642.111 0.860937 -5.80349 0
M  V30 6728 C 644.463 0.614386 -6.29609 0
M  V30 6729 C 643.127 0.442056 -6.66035 0
M  V30 6730 H 642.397 0.425875 -0.606392 0
M  V30 6731 H 645.044 0.45199 -1.8609 0
M  V30 6732 H 643.349 2.96225 -2.56433 0
M  V30 6733 H 645.046 2.76628 -2.90307 0
M  V30 6734 H 641.636 1.74873 -3.91302 0
M  V30 6735 H 645.82 1.30596 -4.78809 0
M  V30 6736 H 641.076 0.715372 -6.072 0
M  V30 6737 H 645.25 0.280393 -6.95835 0
M  V30 6738 H 642.877 -0.0207218 -7.60197 0
M  V30 6739 N 644.452 1.42507 0.673017 0
M  V30 6740 C 645.382 1.48916 1.79851 0
M  V30 6741 C 646.363 0.345566 1.66553 0
M  V30 6742 O 647.548 0.560116 1.85947 0
M  V30 6743 C 644.678 1.39258 3.18158 0
M  V30 6744 C 643.632 2.51662 3.46194 0
M  V30 6745 C 642.958 2.27062 4.84094 0
M  V30 6746 C 644.258 3.93968 3.42909 0
M  V30 6747 H 645.952 2.43114 1.74745 0
M  V30 6748 H 643.498 1.17013 0.839288 0
M  V30 6749 H 645.451 1.42349 3.96629 0
M  V30 6750 H 644.175 0.415542 3.23946 0
M  V30 6751 H 642.834 2.47891 2.70084 0
M  V30 6752 H 642.482 1.27648 4.86534 0
M  V30 6753 H 642.182 3.02398 5.03815 0
M  V30 6754 H 643.706 2.31905 5.64847 0
M  V30 6755 H 645.12 3.99332 4.11347 0
M  V30 6756 H 643.517 4.6917 3.74165 0
M  V30 6757 H 644.587 4.20512 2.41449 0
M  V30 6758 N 645.93 -0.909495 1.28709 0
M  V30 6759 C 647.341 -1.47419 1.14563 0
M  V30 6760 C 647.692 -1.94432 -0.262832 0
M  V30 6761 O 646.817 -1.82842 -1.15748 0
M  V30 6762 C 647.412 -2.67933 2.07358 0
M  V30 6763 C 645.971 -3.20568 1.97264 0
M  V30 6764 C 645.118 -1.93269 1.98852 0
M  V30 6765 H 648.069 -0.721787 1.41336 0
M  V30 6766 H 648.09 -3.43339 1.64007 0
M  V30 6767 H 647.602 -2.33685 3.09859 0
M  V30 6768 H 645.703 -3.59531 0.978157 0
M  V30 6769 H 645.816 -3.85529 2.84436 0
M  V30 6770 H 644.18 -2.10553 1.43317 0
M  V30 6771 H 644.963 -1.61312 3.0304 0
M  V30 6772 N 647.408 -1.11026 -1.11852 0
M  V30 6773 C 648.371 -0.768006 -2.1595 0
M  V30 6774 C 649.371 0.210538 -1.59416 0
M  V30 6775 O 650.561 -0.0133978 -1.74195 0
M  V30 6776 C 647.693 -0.138678 -3.40618 0
M  V30 6777 H 648.886 -1.69012 -2.4774 0
M  V30 6778 H 646.439 -0.911578 -1.26964 0
M  V30 6779 H 647.174 0.793872 -3.14433 0
M  V30 6780 H 646.959 -0.843012 -3.8293 0
M  V30 6781 H 648.449 0.0848039 -4.17514 0
M  V30 6782 N 648.886 1.2938 -0.899927 0
M  V30 6783 C 650.126 1.97332 -0.532871 0
M  V30 6784 C 650.49 1.69385 0.904029 0
M  V30 6785 O 651.691 2.30793 1.37797 0
M  V30 6786 C 649.962 3.47927 -0.817393 0
M  V30 6787 S 651.521 4.3528 -0.55468 0
M  V30 6788 H 648.339 0.682966 -0.197683 0
M  V30 6789 H 650.941 1.57189 -1.16241 0
M  V30 6790 H 649.645 3.65761 -1.86138 0
M  V30 6791 H 649.176 3.93006 -0.175978 0
M  V30 6792 H 651.191 4.92557 0.600182 0
M  V30 6793 N 650.364 0.662433 1.43002 0
M  V30 6794 C 651.312 -0.035345 2.32573 0
M  V30 6795 C 652.306 -0.803505 1.49131 0
M  V30 6796 O 653.512 -0.712865 1.65282 0
M  V30 6797 H 649.887 -0.0302194 0.751393 0
M  V30 6798 H 651.858 0.737686 2.89138 0
M  V30 6799 C 650.607 -0.981575 3.33557 0
M  V30 6800 H 649.93 -0.399914 3.97795 0
M  V30 6801 H 651.37 -1.43873 3.98844 0
M  V30 6802 C 649.829 -2.08204 2.64863 0
M  V30 6803 O 650.359 -3.16698 2.47113 0
M  V30 6804 N 648.565 -1.85022 2.24088 0
M  V30 6805 H 648.112 -0.967909 2.38724 0
M  V30 6806 H 648.07 -2.58845 1.78457 0
M  V30 6807 N 651.842 -1.52309 0.404946 0
M  V30 6808 C 653.07 -2.06185 -0.171818 0
M  V30 6809 C 653.485 -1.27536 -1.39212 0
M  V30 6810 O 652.842 -0.326112 -1.79563 0
M  V30 6811 C 652.893 -3.57647 -0.526417 0
M  V30 6812 O 652.614 -4.3332 0.645417 0
M  V30 6813 C 654.115 -4.27925 -1.15736 0
M  V30 6814 H 651.335 -0.670632 -0.0222328 0
M  V30 6815 H 653.879 -1.96259 0.574692 0
M  V30 6816 H 652.034 -3.67595 -1.22282 0
M  V30 6817 H 652.448 -5.23328 0.35042 0
M  V30 6818 H 653.922 -5.35093 -1.35572 0
M  V30 6819 H 654.399 -3.84134 -2.12926 0
M  V30 6820 H 655.005 -4.22335 -0.501281 0
M  V30 6821 N 653.32 -0.135238 -1.57019 0
M  V30 6822 C 654.731 0.387521 -1.82634 0
M  V30 6823 C 655.082 1.65528 -1.05332 0
M  V30 6824 O 654.207 2.14381 -0.294926 0
M  V30 6825 C 654.802 0.709852 -3.3128 0
M  V30 6826 C 653.361 1.17718 -3.57518 0
M  V30 6827 C 652.508 0.194183 -2.76619 0
M  V30 6828 H 655.459 -0.360126 -1.5456 0
M  V30 6829 H 655.48 1.5657 -3.46794 0
M  V30 6830 H 654.992 -0.213024 -3.87515 0
M  V30 6831 H 653.093 2.1164 -3.06658 0
M  V30 6832 H 653.206 1.11128 -4.66034 0
M  V30 6833 H 651.57 0.684478 -2.4533 0
M  V30 6834 H 652.353 -0.722076 -3.3562 0
M  V30 6835 N 654.798 1.5699 0.138552 0
M  V30 6836 C 656.046 1.83446 0.848053 0
M  V30 6837 C 656.367 0.71744 1.81322 0
M  V30 6838 O 655.637 -0.260228 1.94164 0
M  V30 6839 H 654.217 0.676792 0.316166 0
M  V30 6840 H 656.879 1.94462 0.130538 0
M  V30 6841 H 655.975 2.78677 1.40518 0
M  V30 6842 N 656.276 -0.40816 1.52223 0
M  V30 6843 C 657.522 -1.15673 1.66576 0
M  V30 6844 C 657.855 -1.90141 0.394996 0
M  V30 6845 O 657.13 -1.84798 -0.606613 0
M  V30 6846 C 657.413 -2.15042 2.88841 0
M  V30 6847 C 657.266 -1.44465 4.25969 0
M  V30 6848 C 658.585 -3.15699 3.0663 0
M  V30 6849 H 655.704 -0.41916 0.606196 0
M  V30 6850 H 658.346 -0.442348 1.84779 0
M  V30 6851 H 656.496 -2.75964 2.73452 0
M  V30 6852 H 658.168 -0.866544 4.53088 0
M  V30 6853 H 656.411 -0.746612 4.27327 0
M  V30 6854 H 657.082 -2.16976 5.07568 0
M  V30 6855 H 659.558 -2.64854 3.20923 0
M  V30 6856 H 658.434 -3.82491 3.9369 0
M  V30 6857 H 658.695 -3.83481 2.19987 0
M  V30 6858 N 657.755 -1.42862 -0.66545 0
M  V30 6859 C 658.685 -1.49867 -1.79059 0
M  V30 6860 C 659.666 -0.354394 -1.66367 0
M  V30 6861 O 660.851 -0.569969 -1.85647 0
M  V30 6862 C 657.981 -1.40943 -3.17415 0
M  V30 6863 C 656.935 -2.53495 -3.44854 0
M  V30 6864 C 656.261 -2.29626 -4.82883 0
M  V30 6865 C 657.561 -3.95781 -3.40815 0
M  V30 6866 H 659.255 -2.44037 -1.73453 0
M  V30 6867 H 656.801 -1.17456 -0.833071 0
M  V30 6868 H 658.754 -1.4445 -3.95869 0
M  V30 6869 H 657.478 -0.432716 -3.23721 0
M  V30 6870 H 656.137 -2.4932 -2.68766 0
M  V30 6871 H 655.785 -1.30226 -4.8585 0
M  V30 6872 H 655.485 -3.05065 -5.02204 0
M  V30 6873 H 657.009 -2.34897 -5.63609 0
M  V30 6874 H 658.423 -4.01508 -4.09224 0
M  V30 6875 H 656.82 -4.71148 -3.71672 0
M  V30 6876 H 657.89 -4.21786 -2.39216 0
M  V30 6877 N 659.233 0.902656 -1.29189 0
M  V30 6878 C 660.196 1.98797 -1.14071 0
M  V30 6879 C 661.196 1.60615 -0.0770549 0
M  V30 6880 O 662.386 1.71165 -0.323753 0
M  V30 6881 C 659.518 3.32688 -0.743739 0
M  V30 6882 H 660.711 2.13637 -2.10473 0
M  V30 6883 H 658.264 1.08678 -1.12334 0
M  V30 6884 H 658.999 3.23549 0.220554 0
M  V30 6885 H 658.784 3.61765 -1.51223 0
M  V30 6886 H 660.274 4.12337 -0.660935 0
M  V30 6887 N 660.711 1.11618 1.11262 0
M  V30 6888 C 661.959 0.864469 1.82678 0
M  V30 6889 C 662.28 -0.611564 1.85162 0
M  V30 6890 O 661.55 -1.44429 1.32352 0
M  V30 6891 H 660.13 0.316821 0.676486 0
M  V30 6892 H 662.792 1.40894 1.34666 0
M  V30 6893 H 661.888 1.23832 2.86482 0
M  V30 6894 N 662.189 -1.289 0.906776 0
M  V30 6895 C 663.119 -2.29932 0.406659 0
M  V30 6896 C 664.1 -1.6189 -0.522061 0
M  V30 6897 O 665.285 -1.8935 -0.431283 0
M  V30 6898 C 662.415 -3.45425 -0.360366 0
M  V30 6899 C 661.369 -4.25316 0.478574 0
M  V30 6900 C 660.695 -5.33076 -0.416373 0
M  V30 6901 C 661.995 -4.92739 1.7322 0
M  V30 6902 H 663.689 -2.72013 1.25097 0
M  V30 6903 H 661.235 -1.30768 0.602977 0
M  V30 6904 H 663.188 -4.15186 -0.721029 0
M  V30 6905 H 661.912 -3.02206 -1.23852 0
M  V30 6906 H 660.571 -3.57273 0.821662 0
M  V30 6907 H 660.219 -4.86101 -1.29287 0
M  V30 6908 H 659.919 -5.8743 0.141309 0
M  V30 6909 H 661.443 -6.05686 -0.773072 0
M  V30 6910 H 662.857 -5.54898 1.44086 0
M  V30 6911 H 661.254 -5.57057 2.23175 0
M  V30 6912 H 662.324 -4.17625 2.46408 0
M  V30 6913 N 663.667 -0.670007 -1.42649 0
M  V30 6914 C 664.915 -0.18991 -2.01206 0
M  V30 6915 C 665.236 1.20617 -1.53221 0
M  V30 6916 O 664.506 1.80898 -0.751856 0
M  V30 6917 H 663.086 -0.0672189 -0.743969 0
M  V30 6918 H 665.748 -0.865442 -1.74631 0
M  V30 6919 H 664.844 -0.187481 -3.11536 0
M  V30 6920 N 665.145 1.52092 -0.413018 0
M  V30 6921 C 666.108 2.25706 0.398687 0
M  V30 6922 C 667.108 1.28221 0.970368 0
M  V30 6923 O 668.298 1.52131 0.848635 0
M  V30 6924 C 665.43 3.03029 1.5616 0
M  V30 6925 H 666.623 2.98888 -0.246131 0
M  V30 6926 H 664.176 1.5542 -0.165622 0
M  V30 6927 H 664.911 2.34205 2.24317 0
M  V30 6928 H 664.696 3.74606 1.15812 0
M  V30 6929 H 666.186 3.58857 2.13569 0
M  V30 6930 N 666.623 0.143563 1.56945 0
M  V30 6931 C 667.871 -0.507402 1.95627 0
M  V30 6932 C 668.192 -1.65626 1.02922 0
M  V30 6933 O 667.462 -1.95693 0.0901136 0
M  V30 6934 H 666.042 -0.190436 0.722318 0
M  V30 6935 H 668.704 0.218257 1.93674 0
M  V30 6936 H 667.8 -0.885816 2.99265 0
M  V30 6937 N 668.101 -1.57061 -0.130224 0
M  V30 6938 C 669.031 -2.02552 -1.16168 0
M  V30 6939 C 670.012 -0.907971 -1.4384 0
M  V30 6940 O 671.197 -1.17693 -1.54473 0
M  V30 6941 C 668.327 -2.42035 -2.49071 0
M  V30 6942 C 667.281 -3.5713 -2.35886 0
M  V30 6943 C 666.607 -3.82478 -3.7365 0
M  V30 6944 C 667.907 -4.89236 -1.8288 0
M  V30 6945 H 669.601 -2.8897 -0.783359 0
M  V30 6946 H 667.147 -1.39021 -0.375376 0
M  V30 6947 H 669.1 -2.72462 -3.21469 0
M  V30 6948 H 667.824 -1.52573 -2.88771 0
M  V30 6949 H 666.483 -3.26895 -1.65938 0
M  V30 6950 H 666.131 -2.9024 -4.10816 0
M  V30 6951 H 665.831 -4.59944 -3.65685 0
M  V30 6952 H 667.355 -4.15347 -4.47571 0
M  V30 6953 H 668.769 -5.18272 -2.45085 0
M  V30 6954 H 667.166 -5.70624 -1.85763 0
M  V30 6955 H 668.236 -4.78494 -0.785571 0
M  V30 6956 N 669.579 0.400081 -1.52437 0
M  V30 6957 C 670.542 1.4707 -1.75793 0
M  V30 6958 C 671.542 1.48036 -0.627856 0
M  V30 6959 O 672.732 1.49401 -0.895817 0
M  V30 6960 C 669.864 2.86427 -1.84858 0
M  V30 6961 H 671.057 1.27649 -2.71377 0
M  V30 6962 H 668.61 0.631141 -1.42991 0
M  V30 6963 H 669.345 3.11207 -0.912194 0
M  V30 6964 H 669.13 2.87128 -2.6702 0
M  V30 6965 H 670.62 3.64023 -2.04638 0
M  V30 6966 N 671.057 1.43213 0.657864 0
M  V30 6967 C 671.987 1.50815 1.78262 0
M  V30 6968 C 672.968 0.363211 1.66177 0
M  V30 6969 O 674.153 0.579806 1.85343 0
M  V30 6970 C 671.283 1.42625 3.16663 0
M  V30 6971 C 670.237 2.5532 3.43505 0
M  V30 6972 C 669.563 2.32184 4.81658 0
M  V30 6973 C 670.863 3.97583 3.38711 0
M  V30 6974 H 672.557 2.44954 1.72157 0
M  V30 6975 H 670.103 1.17896 0.82683 0
M  V30 6976 H 672.056 1.46548 3.95097 0
M  V30 6977 H 670.78 0.449877 3.23487 0
M  V30 6978 H 669.439 2.50742 2.6744 0
M  V30 6979 H 669.087 1.32801 4.85153 0
M  V30 6980 H 668.787 3.07724 5.00579 0
M  V30 6981 H 670.311 2.37883 5.62356 0
M  V30 6982 H 671.725 4.03673 4.07089 0
M  V30 6983 H 670.122 4.73112 3.69168 0
M  V30 6984 H 671.192 4.23049 2.36976 0
M  V30 6985 N 672.536 -0.895792 1.29666 0
M  V30 6986 C 673.761 -1.68528 1.20885 0
M  V30 6987 C 674.186 -1.8673 -0.226595 0
M  V30 6988 O 673.544 -1.39044 -1.16347 0
M  V30 6989 C 673.592 -3.04512 1.93144 0
M  V30 6990 O 672.696 -3.92963 1.25115 0
M  V30 6991 H 672.037 -0.515371 0.418675 0
M  V30 6992 H 674.567 -1.11878 1.71302 0
M  V30 6993 H 674.577 -3.54628 2.0175 0
M  V30 6994 H 673.252 -2.90582 2.97548 0
M  V30 6995 H 671.829 -3.51399 1.24794 0
M  V30 6996 N 674.014 -1.12206 -1.10668 0
M  V30 6997 C 674.944 -0.810086 -2.18997 0
M  V30 6998 C 675.925 0.225065 -1.68604 0
M  V30 6999 O 677.11 0.086783 -1.94006 0
M  V30 7000 C 674.24 -0.261262 -3.46316 0
M  V30 7001 C 673.194 -1.2292 -4.09969 0
M  V30 7002 C 672.52 -0.540713 -5.31959 0
M  V30 7003 C 673.82 -2.58295 -4.53962 0
M  V30 7004 H 675.514 -1.7159 -2.45352 0
M  V30 7005 H 673.06 -0.82646 -1.17922 0
M  V30 7006 H 675.013 -0.0307522 -4.21389 0
M  V30 7007 H 673.737 0.679879 -3.19445 0
M  V30 7008 H 672.396 -1.44548 -3.369 0
M  V30 7009 H 672.044 0.405492 -5.01363 0
M  V30 7010 H 671.744 -1.18637 -5.75499 0
M  V30 7011 H 673.268 -0.319184 -6.09765 0
M  V30 7012 H 674.682 -2.40709 -5.20319 0
M  V30 7013 H 673.079 -3.18916 -5.08343 0
M  V30 7014 H 674.149 -3.16918 -3.67002 0
M  V30 7015 N 675.492 1.28418 -0.913599 0
M  V30 7016 C 676.738 1.95627 -0.556933 0
M  V30 7017 C 677.093 1.706 0.889565 0
M  V30 7018 O 676.386 1.01637 1.6242 0
M  V30 7019 C 676.58 3.48283 -0.802099 0
M  V30 7020 C 676.409 3.88151 -2.27088 0
M  V30 7021 C 675.179 4.1232 -2.92096 0
M  V30 7022 C 677.377 3.98819 -3.24728 0
M  V30 7023 N 675.359 4.3886 -4.29272 0
M  V30 7024 C 676.73 4.29571 -4.47067 0
M  V30 7025 C 678.785 3.81342 -3.20129 0
M  V30 7026 C 677.488 4.44667 -5.65388 0
M  V30 7027 C 679.514 3.97656 -4.37749 0
M  V30 7028 C 678.876 4.2878 -5.58862 0
M  V30 7029 H 674.975 0.739715 -0.253664 0
M  V30 7030 H 677.559 1.55074 -1.1773 0
M  V30 7031 H 675.73 3.87826 -0.211007 0
M  V30 7032 H 677.462 4.02623 -0.409478 0
M  V30 7033 H 674.217 4.06611 -2.42826 0
M  V30 7034 H 674.641 4.56214 -5.00198 0
M  V30 7035 H 679.283 3.56331 -2.2757 0
M  V30 7036 H 677.001 4.68509 -6.58426 0
M  V30 7037 H 680.587 3.85569 -4.35692 0
M  V30 7038 H 679.467 4.41136 -6.48359 0
M  V30 7039 N 676.97 0.677563 1.42291 0
M  V30 7040 C 678.216 0.201272 2.01799 0
M  V30 7041 C 678.549 -1.19004 1.53465 0
M  V30 7042 O 677.824 -1.79953 0.738039 0
M  V30 7043 C 678.107 0.238968 3.59306 0
M  V30 7044 C 677.96 1.66594 4.17812 0
M  V30 7045 C 679.279 -0.411287 4.38174 0
M  V30 7046 H 676.398 0.0746114 0.733214 0
M  V30 7047 H 679.04 0.862872 1.69276 0
M  V30 7048 H 677.19 -0.324368 3.87144 0
M  V30 7049 H 678.862 2.28173 4.00917 0
M  V30 7050 H 677.105 2.20576 3.73536 0
M  V30 7051 H 677.776 1.64398 5.26951 0
M  V30 7052 H 680.252 0.0682804 4.16044 0
M  V30 7053 H 679.128 -0.354286 5.47755 0
M  V30 7054 H 679.389 -1.4893 4.1626 0
M  V30 7055 N 678.448 -1.51871 0.421078 0
M  V30 7056 C 679.411 -2.25914 -0.386712 0
M  V30 7057 C 680.411 -1.28733 -0.963555 0
M  V30 7058 O 681.601 -1.52579 -0.840556 0
M  V30 7059 C 678.733 -3.03853 -1.54551 0
M  V30 7060 H 679.926 -2.98754 0.261978 0
M  V30 7061 H 677.479 -1.5533 0.173862 0
M  V30 7062 H 678.214 -2.35392 -2.23072 0
M  V30 7063 H 677.999 -3.75215 -1.13824 0
M  V30 7064 H 679.489 -3.59984 -2.11663 0
M  V30 7065 N 679.926 -0.151884 -1.56866 0
M  V30 7066 C 680.856 0.781943 -2.20018 0
M  V30 7067 C 681.837 1.25347 -1.14987 0
M  V30 7068 O 683.022 1.31015 -1.43348 0
M  V30 7069 C 680.152 2.01928 -2.82564 0
M  V30 7070 C 679.106 1.68434 -3.93464 0
M  V30 7071 C 678.432 2.99472 -4.42968 0
M  V30 7072 C 679.732 0.927244 -5.14003 0
M  V30 7073 H 681.426 0.255607 -2.98307 0
M  V30 7074 H 678.972 0.121502 -1.43486 0
M  V30 7075 H 680.925 2.67741 -3.25411 0
M  V30 7076 H 679.649 2.56943 -2.01614 0
M  V30 7077 H 678.308 1.04998 -3.51242 0
M  V30 7078 H 677.956 3.52488 -3.58834 0
M  V30 7079 H 677.656 2.77823 -5.17772 0
M  V30 7080 H 679.18 3.66348 -4.88489 0
M  V30 7081 H 680.594 1.48756 -5.53665 0
M  V30 7082 H 678.991 0.810513 -5.94601 0
M  V30 7083 H 680.061 -0.0801163 -4.84834 0
M  V30 7084 N 681.404 1.57128 0.121893 0
M  V30 7085 C 682.652 1.84335 0.828548 0
M  V30 7086 C 682.973 0.736632 1.80551 0
M  V30 7087 O 682.243 -0.23962 1.94429 0
M  V30 7088 H 680.823 0.680108 0.30897 0
M  V30 7089 H 683.485 1.9459 0.109906 0
M  V30 7090 H 682.581 2.80152 1.37554 0
M  V30 7091 N 682.882 -0.391992 1.52647 0
M  V30 7092 C 683.845 -1.46135 1.7657 0
M  V30 7093 C 684.845 -1.47701 0.635698 0
M  V30 7094 O 686.035 -1.48924 0.903728 0
M  V30 7095 C 683.167 -2.85443 1.86374 0
M  V30 7096 H 684.36 -1.26208 2.72051 0
M  V30 7097 H 681.913 -0.623549 1.43323 0
M  V30 7098 H 682.648 -3.10718 0.928685 0
M  V30 7099 H 682.433 -2.85708 2.68539 0
M  V30 7100 H 683.923 -3.62933 2.06566 0
M  V30 7101 N 684.36 -1.4356 -0.65026 0
M  V30 7102 C 685.588 -1.48779 -1.43779 0
M  V30 7103 C 686.003 -0.106593 -1.88499 0
M  V30 7104 O 685.36 0.883766 -1.59674 0
M  V30 7105 C 685.411 -2.43618 -2.67081 0
M  V30 7106 O 685.132 -3.76367 -2.24231 0
M  V30 7107 C 686.633 -2.5811 -3.60409 0
M  V30 7108 H 683.853 -0.50521 -0.441593 0
M  V30 7109 H 686.397 -1.88332 -0.796941 0
M  V30 7110 H 684.552 -2.07253 -3.273 0
M  V30 7111 H 684.966 -4.27394 -3.0403 0
M  V30 7112 H 686.44 -3.28539 -4.43583 0
M  V30 7113 H 686.917 -1.627 -4.07953 0
M  V30 7114 H 687.523 -2.95298 -3.0607 0
M  V30 7115 N 685.838 0.888903 -1.30139 0
M  V30 7116 C 686.768 2.01046 -1.18755 0
M  V30 7117 C 687.749 1.69916 -0.0791438 0
M  V30 7118 O 688.934 1.92445 -0.260498 0
M  V30 7119 C 686.064 3.36109 -0.874518 0
M  V30 7120 C 685.018 3.81486 -1.94043 0
M  V30 7121 C 684.344 5.13796 -1.48047 0
M  V30 7122 C 685.644 4.00637 -3.35093 0
M  V30 7123 H 687.338 2.10828 -2.12584 0
M  V30 7124 H 684.884 1.01298 -1.02346 0
M  V30 7125 H 686.837 4.14089 -0.781548 0
M  V30 7126 H 685.561 3.26449 0.0994519 0
M  V30 7127 H 684.22 3.05731 -2.02297 0
M  V30 7128 H 683.868 5.0056 -0.494878 0
M  V30 7129 H 683.568 5.45127 -2.19341 0
M  V30 7130 H 685.092 5.94305 -1.40121 0
M  V30 7131 H 686.506 4.69067 -3.2962 0
M  V30 7132 H 684.903 4.43339 -4.04438 0
M  V30 7133 H 685.973 3.0462 -3.77273 0
M  V30 7134 N 687.317 1.12792 1.10072 0
M  V30 7135 C 688.547 0.907189 1.85617 0
M  V30 7136 C 688.955 -0.547181 1.81115 0
M  V30 7137 O 688.298 -1.39024 1.20075 0
M  V30 7138 C 688.36 1.30872 3.34832 0
M  V30 7139 C 688.024 2.77516 3.6309 0
M  V30 7140 C 689.021 3.75696 3.59373 0
M  V30 7141 C 686.706 3.14513 3.91646 0
M  V30 7142 C 688.7 5.08888 3.83812 0
M  V30 7143 C 686.387 4.47886 4.15742 0
M  V30 7144 C 687.385 5.44882 4.11816 0
M  V30 7145 O 687.073 6.7585 4.35295 0
M  V30 7146 H 686.805 0.323855 0.593375 0
M  V30 7147 H 689.359 1.50262 1.40038 0
M  V30 7148 H 687.589 0.656518 3.81086 0
M  V30 7149 H 689.278 1.06153 3.91773 0
M  V30 7150 H 690.044 3.48458 3.37345 0
M  V30 7151 H 685.923 2.39622 3.93831 0
M  V30 7152 H 689.467 5.84586 3.80663 0
M  V30 7153 H 685.364 4.74851 4.37249 0
M  V30 7154 H 686.132 6.81853 4.52791 0
M  V30 7155 N 688.795 -1.27931 0.920396 0
M  V30 7156 C 690.206 -1.76707 0.602616 0
M  V30 7157 C 690.557 -1.75249 -0.882159 0
M  V30 7158 O 689.682 -1.35135 -1.69019 0
M  V30 7159 C 690.277 -3.20884 1.08714 0
M  V30 7160 C 688.836 -3.67356 0.820157 0
M  V30 7161 C 687.983 -2.47525 1.25006 0
M  V30 7162 H 690.934 -1.14301 1.10095 0
M  V30 7163 H 690.955 -3.78045 0.431535 0
M  V30 7164 H 690.467 -3.21913 2.1678 0
M  V30 7165 H 688.568 -3.7178 -0.247012 0
M  V30 7166 H 688.681 -4.57181 1.43257 0
M  V30 7167 H 687.045 -2.45765 0.668698 0
M  V30 7168 H 687.828 -2.51269 2.3392 0
M  V30 7169 N 690.273 -0.685099 -1.4193 0
M  V30 7170 C 691.684 -0.287699 -1.8447 0
M  V30 7171 C 692.035 1.17215 -1.57338 0
M  V30 7172 O 691.16 1.89856 -1.03845 0
M  V30 7173 C 691.755 -0.515385 -3.34857 0
M  V30 7174 C 690.314 -0.172006 -3.76007 0
M  V30 7175 C 689.461 -0.802808 -2.65425 0
M  V30 7176 H 692.412 -0.88652 -1.3163 0
M  V30 7177 H 692.433 0.229251 -3.79809 0
M  V30 7178 H 691.945 -1.57796 -3.54573 0
M  V30 7179 H 690.046 0.886716 -3.61895 0
M  V30 7180 H 690.159 -0.619717 -4.75075 0
M  V30 7181 H 688.523 -0.233267 -2.5363 0
M  V30 7182 H 689.306 -1.86904 -2.87961 0
M  V30 7183 N 691.751 1.51645 -0.429126 0
M  V30 7184 C 692.976 2.06917 0.141399 0
M  V30 7185 C 693.401 1.29527 1.36398 0
M  V30 7186 O 692.759 0.33094 1.78254 0
M  V30 7187 C 692.807 3.57776 0.4504 0
M  V30 7188 O 691.911 3.82639 1.53821 0
M  V30 7189 H 691.252 0.663978 0.0054647 0
M  V30 7190 H 693.782 1.95355 -0.608093 0
M  V30 7191 H 693.792 4.01894 0.703249 0
M  V30 7192 H 692.467 4.13532 -0.443213 0
M  V30 7193 H 691.044 3.5039 1.27597 0
M  V30 7194 N 693.229 0.160201 1.56784 0
M  V30 7195 C 694.139 -0.787167 2.21 0
M  V30 7196 C 695.155 -1.26167 1.19825 0
M  V30 7197 O 696.331 -1.31611 1.52448 0
M  V30 7198 C 693.396 -2.00364 2.8294 0
M  V30 7199 C 692.457 -1.5771 3.99282 0
M  V30 7200 C 691.69 -2.73558 4.58259 0
M  V30 7201 O 691.913 -3.90129 4.16119 0
M  V30 7202 O 690.847 -2.48271 5.48311 0
M  V30 7203 H 694.673 -0.270462 3.02493 0
M  V30 7204 H 692.258 -0.0674666 1.49248 0
M  V30 7205 H 694.14 -2.71529 3.22257 0
M  V30 7206 H 692.815 -2.50961 2.04451 0
M  V30 7207 H 691.722 -0.835274 3.64656 0
M  V30 7208 H 693.055 -1.11815 4.79331 0
M  V30 7209 N 694.707 -1.5719 -0.113559 0
M  V30 7210 C 695.639 -1.97393 -1.16484 0
M  V30 7211 C 696.652 -0.873964 -1.37352 0
M  V30 7212 O 697.841 -1.15222 -1.36331 0
M  V30 7213 C 694.941 -2.26174 -2.52386 0
M  V30 7214 C 694.114 -3.57479 -2.52046 0
M  V30 7215 C 693.173 -3.74409 -3.69735 0
M  V30 7216 O 692.199 -4.46463 -3.53071 0
M  V30 7217 N 693.401 -3.13588 -4.88511 0
M  V30 7218 H 696.166 -2.88184 -0.822814 0
M  V30 7219 H 693.727 -1.59044 -0.302769 0
M  V30 7220 H 695.719 -2.3471 -3.29687 0
M  V30 7221 H 694.289 -1.41483 -2.7875 0
M  V30 7222 H 693.509 -3.60081 -1.60421 0
M  V30 7223 H 694.797 -4.43775 -2.48881 0
M  V30 7224 H 694.195 -2.55026 -5.04953 0
M  V30 7225 H 692.752 -3.27637 -5.63469 0
M  V30 7226 N 696.185 0.383891 -1.52853 0
M  V30 7227 C 697.413 1.1495 -1.7203 0
M  V30 7228 C 697.828 1.83578 -0.440957 0
M  V30 7229 O 697.185 1.72872 0.584925 0
M  V30 7230 C 697.236 2.19368 -2.87333 0
M  V30 7231 O 696.957 1.53536 -4.10315 0
M  V30 7232 C 698.458 3.08616 -3.18231 0
M  V30 7233 H 695.678 0.344445 -0.575846 0
M  V30 7234 H 698.222 0.448397 -1.99524 0
M  V30 7235 H 696.377 2.85105 -2.62286 0
M  V30 7236 H 696.791 2.2296 -4.74752 0
M  V30 7237 H 698.265 3.77902 -4.02361 0
M  V30 7238 H 698.742 3.72409 -2.32826 0
M  V30 7239 H 699.348 2.48518 -3.45136 0
M  V30 7240 N 697.663 1.43903 0.642637 0
M  V30 7241 C 698.596 1.44339 1.76753 0
M  V30 7242 C 699.574 0.303558 1.59741 0
M  V30 7243 O 700.758 0.498775 1.81781 0
M  V30 7244 C 697.885 1.26508 3.14187 0
M  V30 7245 C 696.931 2.43905 3.49875 0
M  V30 7246 S 697.764 4.0645 3.48653 0
M  V30 7247 C 698.92 3.91021 4.88726 0
M  V30 7248 H 699.153 2.39523 1.76113 0
M  V30 7249 H 696.686 1.31061 0.81623 0
M  V30 7250 H 698.644 1.16908 3.93501 0
M  V30 7251 H 697.305 0.328548 3.12377 0
M  V30 7252 H 696.498 2.27262 4.49853 0
M  V30 7253 H 696.1 2.50186 2.77998 0
M  V30 7254 H 698.392 3.54 5.77659 0
M  V30 7255 H 699.335 4.9079 5.10423 0
M  V30 7256 H 699.743 3.23287 4.62759 0
M  V30 7257 N 699.141 -0.881989 1.30609 0
M  V30 7258 C 700.557 -1.16576 1.09005 0
M  V30 7259 C 700.757 -2.00961 -0.14727 0
M  V30 7260 O 699.813 -2.38117 -0.840036 0
M  V30 7261 C 701.126 -1.86954 2.35518 0
M  V30 7262 C 702.674 -1.99706 2.41011 0
M  V30 7263 C 703.149 -2.73497 3.67374 0
M  V30 7264 N 704.64 -2.8104 3.68199 0
M  V30 7265 C 705.375 -3.38718 4.62664 0
M  V30 7266 N 704.871 -3.97421 5.67475 0
M  V30 7267 N 706.664 -3.36561 4.50203 0
M  V30 7268 H 698.815 -0.319398 2.09985 0
M  V30 7269 H 701.078 -0.204058 0.925778 0
M  V30 7270 H 700.784 -1.32393 3.2583 0
M  V30 7271 H 700.658 -2.87317 2.44395 0
M  V30 7272 H 703.045 -2.53436 1.51176 0
M  V30 7273 H 703.126 -0.984218 2.36108 0
M  V30 7274 H 702.77 -2.20438 4.57569 0
M  V30 7275 H 702.7 -3.75163 3.6954 0
M  V30 7276 H 705.191 -2.39365 2.92426 0
M  V30 7277 H 705.504 -4.39507 6.35652 0
M  V30 7278 H 703.849 -3.95832 5.71264 0
M  V30 7279 H 707.04 -2.8993 3.67503 0
M  V30 7280 H 707.213 -3.81215 5.24003 0
M  V30 7281 N 700.619 -1.13374 -1.09472 0
M  V30 7282 C 701.865 -0.896516 -1.81908 0
M  V30 7283 C 702.198 0.575933 -1.85463 0
M  V30 7284 O 701.473 1.42618 -1.32251 0
M  V30 7285 C 701.756 -1.48445 -3.28079 0
M  V30 7286 C 701.609 -3.02598 -3.32798 0
M  V30 7287 C 702.928 -1.15226 -4.24748 0
M  V30 7288 H 700.047 -0.327127 -0.660422 0
M  V30 7289 H 702.689 -1.40195 -1.2824 0
M  V30 7290 H 700.839 -1.0546 -3.73912 0
M  V30 7291 H 702.511 -3.54335 -2.95372 0
M  V30 7292 H 700.754 -3.37613 -2.72397 0
M  V30 7293 H 701.425 -3.38835 -4.3577 0
M  V30 7294 H 703.901 -1.52369 -3.87199 0
M  V30 7295 H 702.777 -1.59012 -5.25363 0
M  V30 7296 H 703.038 -0.0658891 -4.42051 0
M  V30 7297 N 702.098 1.27442 -0.927168 0
M  V30 7298 C 703.028 2.29256 -0.443188 0
M  V30 7299 C 704.009 1.62701 0.49624 0
M  V30 7300 O 705.194 1.90013 0.401105 0
M  V30 7301 C 702.324 3.45955 0.305366 0
M  V30 7302 C 701.278 4.24501 -0.546178 0
M  V30 7303 C 700.604 5.33671 0.331512 0
M  V30 7304 C 701.904 4.89921 -1.81037 0
M  V30 7305 H 703.598 2.69988 -1.29409 0
M  V30 7306 H 701.144 1.29792 -0.623705 0
M  V30 7307 H 703.097 4.1628 0.654885 0
M  V30 7308 H 701.821 3.04138 1.19029 0
M  V30 7309 H 700.48 3.55921 -0.878398 0
M  V30 7310 H 700.128 4.88096 1.21537 0
M  V30 7311 H 699.828 5.87131 -0.234746 0
M  V30 7312 H 701.352 6.0684 0.676614 0
M  V30 7313 H 702.766 5.52536 -1.52895 0
M  V30 7314 H 701.163 5.53436 -2.32009 0
M  V30 7315 H 702.233 4.13652 -2.53021 0
M  V30 7316 N 703.576 0.692616 1.41565 0
M  V30 7317 C 704.987 0.297478 1.84315 0
M  V30 7318 C 705.338 -1.16379 1.57957 0
M  V30 7319 O 704.463 -1.89303 1.0485 0
M  V30 7320 C 705.058 0.533136 3.34579 0
M  V30 7321 C 703.617 0.191944 3.7591 0
M  V30 7322 C 702.764 0.816873 2.64995 0
M  V30 7323 H 705.715 0.893488 1.31158 0
M  V30 7324 H 705.736 -0.209105 3.79925 0
M  V30 7325 H 705.248 1.59674 3.53731 0
M  V30 7326 H 703.349 -0.867512 3.6236 0
M  V30 7327 H 703.462 0.644902 4.7474 0
M  V30 7328 H 701.826 0.246715 2.53502 0
M  V30 7329 H 702.609 1.88429 2.86966 0
M  V30 7330 N 705.054 -1.51416 0.437162 0
M  V30 7331 C 706.279 -2.0699 -0.130424 0
M  V30 7332 C 706.704 -1.30249 -1.35709 0
M  V30 7333 O 706.062 -0.340388 -1.78076 0
M  V30 7334 C 706.11 -3.5801 -0.43142 0
M  V30 7335 O 705.214 -3.8345 -1.5179 0
M  V30 7336 H 704.555 -0.663997 -0.00194339 0
M  V30 7337 H 707.085 -1.95029 0.618445 0
M  V30 7338 H 707.095 -4.02261 -0.681926 0
M  V30 7339 H 705.77 -4.13291 0.465137 0
M  V30 7340 H 704.347 -3.51062 -1.25737 0
M  V30 7341 N 706.532 -0.168513 -1.56696 0
M  V30 7342 C 707.757 0.486688 -2.01609 0
M  V30 7343 C 708.182 1.56203 -1.04796 0
M  V30 7344 O 707.54 1.8128 -0.0270596 0
M  V30 7345 C 707.588 1.04451 -3.45141 0
M  V30 7346 O 706.692 2.15862 -3.51393 0
M  V30 7347 H 706.033 0.116831 -0.653641 0
M  V30 7348 H 708.563 -0.271579 -2.0279 0
M  V30 7349 H 708.573 1.36782 -3.84389 0
M  V30 7350 H 707.248 0.257155 -4.15104 0
M  V30 7351 H 705.825 1.84597 -3.24004 0
M  V30 7352 N 708.01 1.57248 0.105221 0
M  V30 7353 C 708.973 2.00388 1.11252 0
M  V30 7354 C 709.973 0.89594 1.33527 0
M  V30 7355 O 711.163 1.16166 1.29811 0
M  V30 7356 C 708.295 2.35589 2.46395 0
M  V30 7357 H 709.488 2.90591 0.741424 0
M  V30 7358 H 707.041 1.52332 0.349956 0
M  V30 7359 H 707.776 1.4831 2.884 0
M  V30 7360 H 707.561 3.16408 2.31578 0
M  V30 7361 H 709.051 2.69658 3.18864 0
M  V30 7362 N 709.488 -0.375779 1.53054 0
M  V30 7363 C 710.451 -1.44254 1.7811 0
M  V30 7364 C 711.451 -1.47018 0.651328 0
M  V30 7365 O 712.641 -1.47957 0.919472 0
M  V30 7366 C 709.773 -2.8345 1.89391 0
M  V30 7367 H 710.966 -1.23316 2.73374 0
M  V30 7368 H 708.519 -0.608312 1.43977 0
M  V30 7369 H 709.254 -3.09716 0.961589 0
M  V30 7370 H 709.039 -2.82844 2.71555 0
M  V30 7371 H 710.529 -3.60722 2.10404 0
M  V30 7372 N 710.966 -1.44241 -0.634997 0
M  V30 7373 C 712.382 -1.28043 -0.952742 0
M  V30 7374 C 712.582 -0.21338 -2.00367 0
M  V30 7375 O 711.638 0.402042 -2.49279 0
M  V30 7376 C 712.951 -2.65076 -1.41968 0
M  V30 7377 C 714.499 -2.72755 -1.53537 0
M  V30 7378 C 714.974 -4.10249 -2.03616 0
M  V30 7379 N 716.465 -4.12406 -2.10892 0
M  V30 7380 C 717.2 -5.15641 -2.50803 0
M  V30 7381 N 716.696 -6.29239 -2.89879 0
M  V30 7382 N 718.489 -5.02995 -2.50903 0
M  V30 7383 H 710.64 -2.12315 0.060098 0
M  V30 7384 H 712.903 -0.947326 -0.0357325 0
M  V30 7385 H 712.609 -3.44213 -0.721804 0
M  V30 7386 H 712.483 -2.91704 -2.39141 0
M  V30 7387 H 714.87 -1.93939 -2.22422 0
M  V30 7388 H 714.951 -2.49872 -0.547496 0
M  V30 7389 H 714.595 -4.8954 -1.35327 0
M  V30 7390 H 714.525 -4.30507 -3.03268 0
M  V30 7391 H 717.016 -3.30417 -1.83393 0
M  V30 7392 H 717.329 -7.03827 -3.19135 0
M  V30 7393 H 715.674 -6.32683 -2.8764 0
M  V30 7394 H 718.865 -4.13306 -2.19763 0
M  V30 7395 H 719.038 -5.83574 -2.81683 0
M  V30 7396 N 712.444 0.87505 -1.31075 0
M  V30 7397 C 713.684 1.64174 -1.21763 0
M  V30 7398 C 714.048 1.90713 0.221933 0
M  V30 7399 O 715.249 2.652 0.438458 0
M  V30 7400 C 713.52 2.93932 -2.0332 0
M  V30 7401 S 715.079 3.84841 -2.10815 0
M  V30 7402 H 711.897 0.563358 -0.433761 0
M  V30 7403 H 714.499 1.03788 -1.65675 0
M  V30 7404 H 713.203 2.72349 -3.07009 0
M  V30 7405 H 712.734 3.59345 -1.60108 0
M  V30 7406 H 714.749 4.80385 -1.24276 0
M  V30 7407 N 713.922 1.13953 1.08869 0
M  V30 7408 C 715.168 0.906151 1.8143 0
M  V30 7409 C 715.501 -0.566089 1.85766 0
M  V30 7410 O 714.776 -1.41915 1.33006 0
M  V30 7411 C 715.059 1.50183 3.27287 0
M  V30 7412 C 714.912 3.04359 3.31189 0
M  V30 7413 C 716.231 1.17477 4.24131 0
M  V30 7414 H 713.35 0.330624 0.658678 0
M  V30 7415 H 715.992 1.40873 1.27495 0
M  V30 7416 H 714.142 1.07442 3.73348 0
M  V30 7417 H 715.814 3.55896 2.93488 0
M  V30 7418 H 714.057 3.39053 2.70602 0
M  V30 7419 H 714.728 3.41141 4.33966 0
M  V30 7420 H 717.204 1.5442 3.86385 0
M  V30 7421 H 716.08 1.61795 5.24513 0
M  V30 7422 H 716.341 0.0893312 4.4201 0
M  V30 7423 N 715.4 -1.26948 0.933913 0
M  V30 7424 C 716.363 -2.24889 0.442457 0
M  V30 7425 C 717.363 -1.54594 -0.442426 0
M  V30 7426 O 718.553 -1.72502 -0.242629 0
M  V30 7427 C 715.685 -3.3896 -0.363173 0
M  V30 7428 H 716.878 -2.69879 1.30787 0
M  V30 7429 H 714.431 -1.38978 0.715187 0
M  V30 7430 H 715.166 -2.99361 -1.24714 0
M  V30 7431 H 714.951 -3.9116 0.271366 0
M  V30 7432 H 716.441 -4.11739 -0.697186 0
M  V30 7433 N 716.879 -0.700114 -1.41195 0
M  V30 7434 C 717.809 -0.0521132 -2.33442 0
M  V30 7435 C 718.79 0.76228 -1.52063 0
M  V30 7436 O 719.975 0.714336 -1.80585 0
M  V30 7437 C 717.105 0.881693 -3.35922 0
M  V30 7438 C 716.059 0.174062 -4.27646 0
M  V30 7439 C 715.385 1.22254 -5.20536 0
M  V30 7440 C 716.685 -0.962396 -5.13357 0
M  V30 7441 H 718.379 -0.822574 -2.87879 0
M  V30 7442 H 715.925 -0.397011 -1.38419 0
M  V30 7443 H 717.878 1.34429 -3.99383 0
M  V30 7444 H 716.602 1.68387 -2.79845 0
M  V30 7445 H 715.261 -0.268551 -3.65615 0
M  V30 7446 H 714.909 2.01736 -4.60773 0
M  V30 7447 H 714.609 0.754038 -5.82742 0
M  V30 7448 H 716.133 1.68555 -5.86874 0
M  V30 7449 H 717.547 -0.579875 -5.7036 0
M  V30 7450 H 715.944 -1.35828 -5.84526 0
M  V30 7451 H 717.014 -1.80003 -4.50252 0
M  V30 7452 N 718.357 1.51182 -0.445186 0
M  V30 7453 C 719.582 2.07056 0.119445 0
M  V30 7454 C 720.007 1.30966 1.35016 0
M  V30 7455 O 719.365 0.349827 1.77893 0
M  V30 7456 C 719.413 3.58234 0.412428 0
M  V30 7457 O 718.517 3.84249 1.49754 0
M  V30 7458 H 717.858 0.663998 -0.00157797 0
M  V30 7459 H 720.388 1.94699 -0.628779 0
M  V30 7460 H 720.398 4.02617 0.660583 0
M  V30 7461 H 719.073 4.13038 -0.487049 0
M  V30 7462 H 717.65 3.51724 1.23873 0
M  V30 7463 N 719.835 0.176821 1.56605 0
M  V30 7464 C 721.081 -0.467406 1.9734 0
M  V30 7465 C 721.414 -1.62523 1.06301 0
M  V30 7466 O 720.689 -1.94182 0.11125 0
M  V30 7467 C 720.972 -0.945106 3.47476 0
M  V30 7468 C 720.825 0.213273 4.49294 0
M  V30 7469 C 722.144 -1.8169 4.00845 0
M  V30 7470 H 719.263 -0.168426 0.717497 0
M  V30 7471 H 721.905 0.264065 1.88156 0
M  V30 7472 H 720.055 -1.56841 3.55434 0
M  V30 7473 H 721.727 0.850508 4.53392 0
M  V30 7474 H 719.97 0.867918 4.25029 0
M  V30 7475 H 720.641 -0.163187 5.51759 0
M  V30 7476 H 723.117 -1.29139 3.95553 0
M  V30 7477 H 721.993 -2.12015 5.06301 0
M  V30 7478 H 722.254 -2.76463 3.44994 0
M  V30 7479 N 721.313 -1.57302 -0.09688 0
M  V30 7480 C 722.261 -2.02942 -1.13654 0
M  V30 7481 C 723.255 -0.930173 -1.41577 0
M  V30 7482 O 724.461 -1.11535 -1.41279 0
M  V30 7483 H 720.836 -0.646726 -0.383731 0
M  V30 7484 H 722.807 -2.89452 -0.725267 0
M  V30 7485 C 721.556 -2.46815 -2.44903 0
M  V30 7486 H 720.879 -3.30979 -2.24261 0
M  V30 7487 H 722.319 -2.82527 -3.16156 0
M  V30 7488 C 720.778 -1.34071 -3.09074 0
M  V30 7489 O 721.308 -0.668856 -3.96092 0
M  V30 7490 N 719.514 -1.09214 -2.69296 0
M  V30 7491 H 719.061 -1.64029 -1.98626 0
M  V30 7492 H 719.019 -0.339785 -3.12559 0
M  V30 7493 N 722.791 0.367657 -1.53252 0
M  V30 7494 C 723.754 1.43308 -1.78873 0
M  V30 7495 C 724.754 1.46671 -0.659115 0
M  V30 7496 O 725.944 1.47468 -0.927306 0
M  V30 7497 C 723.076 2.82442 -1.90892 0
M  V30 7498 H 724.269 1.21864 -2.74024 0
M  V30 7499 H 721.822 0.600668 -1.44297 0
M  V30 7500 H 722.557 3.09202 -0.978 0
M  V30 7501 H 722.342 2.81399 -2.73051 0
M  V30 7502 H 723.832 3.59601 -2.12314 0
M  V30 7503 N 724.269 1.44576 0.627338 0
M  V30 7504 C 725.494 1.51271 1.41887 0
M  V30 7505 C 725.919 0.139814 1.8758 0
M  V30 7506 O 725.277 -0.871746 1.58966 0
M  V30 7507 C 725.325 2.48529 2.61277 0
M  V30 7508 O 724.429 1.98944 3.61241 0
M  V30 7509 H 723.77 0.510668 0.424399 0
M  V30 7510 H 726.3 1.89746 0.765356 0
M  V30 7511 H 726.31 2.66689 3.08773 0
M  V30 7512 H 724.985 3.48249 2.27366 0
M  V30 7513 H 723.562 1.90568 3.20528 0
M  V30 7514 N 725.747 -0.868086 1.31537 0
M  V30 7515 C 726.995 -1.61807 1.21091 0
M  V30 7516 C 727.316 -1.93631 -0.230623 0
M  V30 7517 O 726.586 -1.5846 -1.15183 0
M  V30 7518 H 725.166 -0.599854 0.445178 0
M  V30 7519 H 727.828 -1.03915 1.64887 0
M  V30 7520 H 726.924 -2.56088 1.78396 0
M  V30 7521 N 727.225 -1.14528 -1.08264 0
M  V30 7522 C 728.155 -0.856356 -2.1723 0
M  V30 7523 C 729.136 0.189251 -1.69044 0
M  V30 7524 O 730.321 0.0456119 -1.94146 0
M  V30 7525 C 727.451 -0.334662 -3.45684 0
M  V30 7526 C 726.405 -1.31588 -4.0727 0
M  V30 7527 C 725.731 -0.653428 -5.30692 0
M  V30 7528 C 727.031 -2.67866 -4.48381 0
M  V30 7529 H 728.725 -1.76755 -2.41657 0
M  V30 7530 H 726.271 -0.851287 -1.16143 0
M  V30 7531 H 728.224 -0.120128 -4.21229 0
M  V30 7532 H 726.948 0.611967 -3.20815 0
M  V30 7533 H 725.607 -1.51661 -3.33758 0
M  V30 7534 H 725.255 0.299054 -5.0211 0
M  V30 7535 H 724.955 -1.30817 -5.72853 0
M  V30 7536 H 726.479 -0.448453 -6.08951 0
M  V30 7537 H 727.893 -2.51692 -5.15096 0
M  V30 7538 H 726.29 -3.29627 -5.01464 0
M  V30 7539 H 727.36 -3.24632 -3.60198 0
M  V30 7540 N 728.703 1.26451 -0.940633 0
M  V30 7541 C 729.633 2.28773 -0.467479 0
M  V30 7542 C 730.614 1.63218 0.478955 0
M  V30 7543 O 731.799 1.90427 0.380929 0
M  V30 7544 C 728.929 3.46259 0.268656 0
M  V30 7545 C 727.883 4.23898 -0.591171 0
M  V30 7546 C 727.209 5.33993 0.274891 0
M  V30 7547 C 728.509 4.87974 -1.86223 0
M  V30 7548 H 730.203 2.68601 -1.32265 0
M  V30 7549 H 727.749 1.29123 -0.637436 0
M  V30 7550 H 729.702 4.16951 0.610696 0
M  V30 7551 H 728.426 3.05383 1.15796 0
M  V30 7552 H 727.085 3.54969 -0.916098 0
M  V30 7553 H 726.733 4.89358 1.16353 0
M  V30 7554 H 726.433 5.86849 -0.297006 0
M  V30 7555 H 727.957 6.07523 0.612213 0
M  V30 7556 H 729.371 5.50883 -1.58747 0
M  V30 7557 H 727.768 5.50945 -2.37866 0
M  V30 7558 H 728.838 4.10945 -2.57394 0
M  V30 7559 N 730.181 0.707592 1.40822 0
M  V30 7560 C 731.458 0.171172 1.9485 0
M  V30 7561 C 731.838 -1.32143 1.64625 0
M  V30 7562 O 731.186 -2.07372 0.959647 0
M  V30 7563 C 731.396 0.475334 3.45748 0
M  V30 7564 C 732.744 0.409625 4.22619 0
M  V30 7565 O 733.768 0.410934 3.53822 0
M  V30 7566 O 732.627 0.380185 5.45176 0
M  V30 7567 H 729.721 0.022015 0.826707 0
M  V30 7568 H 732.267 0.784577 1.50474 0
M  V30 7569 H 731.039 1.50801 3.61075 0
M  V30 7570 H 730.662 -0.168439 3.97243 0
M  V30 7571 N 731.66 -1.50943 0.453197 0
M  V30 7572 C 733.071 -1.86699 -0.00619892 0
M  V30 7573 C 733.422 -1.3693 -1.40515 0
M  V30 7574 O 732.547 -0.726715 -2.03833 0
M  V30 7575 C 733.142 -3.38795 -0.018025 0
M  V30 7576 C 731.701 -3.74028 -0.421885 0
M  V30 7577 C 730.848 -2.74752 0.375087 0
M  V30 7578 H 733.799 -1.43942 0.668317 0
M  V30 7579 H 733.82 -3.71468 -0.824125 0
M  V30 7580 H 733.332 -3.74988 1.00028 0
M  V30 7581 H 731.433 -3.43431 -1.44521 0
M  V30 7582 H 731.546 -4.78908 -0.135664 0
M  V30 7583 H 729.91 -2.5414 -0.168794 0
M  V30 7584 H 730.693 -3.13787 1.39256 0
M  V30 7585 N 733.138 -0.185124 -1.56509 0
M  V30 7586 C 734.101 0.72591 -2.17401 0
M  V30 7587 C 735.101 1.14819 -1.12575 0
M  V30 7588 O 736.291 1.0629 -1.38015 0
M  V30 7589 C 733.423 1.98979 -2.76803 0
M  V30 7590 H 734.616 0.195588 -2.99262 0
M  V30 7591 H 732.169 0.0644772 -1.56167 0
M  V30 7592 H 732.904 2.56287 -1.98714 0
M  V30 7593 H 732.689 1.69583 -3.53531 0
M  V30 7594 H 734.179 2.63966 -3.23592 0
M  V30 7595 N 734.616 1.57351 0.0885366 0
M  V30 7596 C 735.546 2.05561 1.10757 0
M  V30 7597 C 736.527 0.945789 1.41382 0
M  V30 7598 O 737.712 1.21747 1.51299 0
M  V30 7599 C 734.842 2.48554 2.42566 0
M  V30 7600 C 733.796 3.63259 2.26334 0
M  V30 7601 C 733.122 3.9225 3.63378 0
M  V30 7602 C 734.422 4.93913 1.69844 0
M  V30 7603 H 736.116 2.90946 0.706468 0
M  V30 7604 H 733.662 1.39968 0.338385 0
M  V30 7605 H 735.615 2.8089 3.14132 0
M  V30 7606 H 734.339 1.60176 2.84625 0
M  V30 7607 H 732.998 3.31179 1.57213 0
M  V30 7608 H 732.646 3.0103 4.02976 0
M  V30 7609 H 732.346 4.69478 3.53362 0
M  V30 7610 H 733.87 4.27067 4.36401 0
M  V30 7611 H 735.284 5.24588 2.31258 0
M  V30 7612 H 733.681 5.75349 1.70569 0
M  V30 7613 H 734.751 4.80409 0.65843 0
M  V30 7614 N 736.094 -0.359525 1.53444 0
M  V30 7615 C 737.024 -1.44662 1.8329 0
M  V30 7616 C 738.005 -1.55617 0.68683 0
M  V30 7617 O 739.19 -1.70086 0.93725 0
M  V30 7618 C 736.32 -2.81923 2.02822 0
M  V30 7619 C 735.274 -2.85787 3.18606 0
M  V30 7620 C 734.6 -4.25781 3.23442 0
M  V30 7621 C 735.9 -2.52762 4.57065 0
M  V30 7622 H 737.594 -1.19934 2.74329 0
M  V30 7623 H 735.14 -0.575517 1.31999 0
M  V30 7624 H 737.093 -3.58005 2.22285 0
M  V30 7625 H 735.817 -3.08051 1.085 0
M  V30 7626 H 734.476 -2.12157 2.98973 0
M  V30 7627 H 734.124 -4.48994 2.26745 0
M  V30 7628 H 733.824 -4.29281 4.01238 0
M  V30 7629 H 735.348 -5.03727 3.45096 0
M  V30 7630 H 736.762 -3.18557 4.76649 0
M  V30 7631 H 735.159 -2.67569 5.37147 0
M  V30 7632 H 736.229 -1.47993 4.61764 0
M  V30 7633 N 737.572 -1.44907 -0.619662 0
M  V30 7634 C 738.983 -1.42905 -1.20146 0
M  V30 7635 C 739.334 -0.150341 -1.95623 0
M  V30 7636 O 738.459 0.748732 -2.03034 0
M  V30 7637 C 739.054 -2.58889 -2.18545 0
M  V30 7638 C 737.613 -2.60046 -2.72127 0
M  V30 7639 C 736.76 -2.3493 -1.4732 0
M  V30 7640 H 739.711 -1.53321 -0.409666 0
M  V30 7641 H 739.732 -2.32298 -3.0136 0
M  V30 7642 H 739.244 -3.51941 -1.63583 0
M  V30 7643 H 737.345 -1.70968 -3.3106 0
M  V30 7644 H 737.458 -3.58893 -3.17384 0
M  V30 7645 H 735.822 -1.84248 -1.75855 0
M  V30 7646 H 736.605 -3.3011 -0.942442 0
M  V30 7647 N 739.05 0.861098 -1.31996 0
M  V30 7648 C 740.013 1.95068 -1.20338 0
M  V30 7649 C 741.013 1.60289 -0.128114 0
M  V30 7650 O 742.203 1.70048 -0.378044 0
M  V30 7651 C 739.335 3.30153 -0.849205 0
M  V30 7652 H 740.528 2.06833 -2.17164 0
M  V30 7653 H 738.081 1.05049 -1.15734 0
M  V30 7654 H 738.816 3.24087 0.117508 0
M  V30 7655 H 738.601 3.56771 -1.62655 0
M  V30 7656 H 740.091 4.10025 -0.791782 0
M  V30 7657 N 740.528 1.15101 1.07655 0
M  V30 7658 C 741.476 0.840714 2.16875 0
M  V30 7659 C 742.47 -0.184594 1.68391 0
M  V30 7660 O 743.676 -0.0399315 1.79956 0
M  V30 7661 H 740.051 0.254192 0.707736 0
M  V30 7662 H 742.022 1.76959 2.40266 0
M  V30 7663 C 740.771 0.343018 3.46004 0
M  V30 7664 H 740.094 1.12335 3.83694 0
M  V30 7665 H 741.534 0.16453 4.23681 0
M  V30 7666 C 739.993 -0.934881 3.23669 0
M  V30 7667 O 740.523 -2.00706 3.47965 0
M  V30 7668 N 738.729 -0.873167 2.77172 0
M  V30 7669 H 738.276 -0.000479072 2.576 0
M  V30 7670 H 738.234 -1.72873 2.62607 0
M  V30 7671 N 742.006 -1.2595 0.947325 0
M  V30 7672 C 743.283 -1.88676 0.515824 0
M  V30 7673 C 743.663 -1.85547 -1.00675 0
M  V30 7674 O 743.011 -1.31399 -1.8694 0
M  V30 7675 C 743.221 -3.31734 1.08415 0
M  V30 7676 C 744.569 -4.08545 1.15654 0
M  V30 7677 O 745.593 -3.40826 1.03517 0
M  V30 7678 O 744.452 -5.29663 1.34608 0
M  V30 7679 H 741.546 -0.809537 0.169055 0
M  V30 7680 H 744.092 -1.34075 1.04029 0
M  V30 7681 H 742.864 -3.28404 2.1276 0
M  V30 7682 H 742.487 -3.93882 0.542499 0
M  V30 7683 N 743.484 -0.715051 -1.40445 0
M  V30 7684 C 744.709 -0.26254 -2.05732 0
M  V30 7685 C 745.134 1.08691 -1.53519 0
M  V30 7686 O 744.492 1.68453 -0.670328 0
M  V30 7687 C 744.54 -0.25195 -3.59719 0
M  V30 7688 O 743.644 0.766998 -4.05205 0
M  V30 7689 H 742.985 -0.123398 -0.652433 0
M  V30 7690 H 745.515 -0.975382 -1.79854 0
M  V30 7691 H 745.525 -0.0894537 -4.07902 0
M  V30 7692 H 744.2 -1.23672 -3.97087 0
M  V30 7693 H 742.777 0.572269 -3.68483 0
M  V30 7694 N 744.962 1.50701 -0.461195 0
M  V30 7695 C 746.187 2.07171 0.0974773 0
M  V30 7696 C 746.612 1.32391 1.3362 0
M  V30 7697 O 745.97 0.368676 1.77512 0
M  V30 7698 C 746.018 3.58651 0.374409 0
M  V30 7699 O 745.122 3.85816 1.4567 0
M  V30 7700 H 744.463 0.663944 -0.00862047 0
M  V30 7701 H 746.993 1.94021 -0.649394 0
M  V30 7702 H 747.003 4.03295 0.617843 0
M  V30 7703 H 745.678 4.12498 -0.530829 0
M  V30 7704 H 744.255 3.53018 1.20136 0
M  V30 7705 N 746.441 0.193421 1.56409 0
M  V30 7706 C 747.857 -0.162447 1.58771 0
M  V30 7707 C 748.057 -1.6116 1.20954 0
M  V30 7708 O 747.113 -2.3469 0.931497 0
M  V30 7709 C 748.426 0.138391 3.00381 0
M  V30 7710 C 749.974 0.0783649 3.12902 0
M  V30 7711 C 750.449 0.352491 4.56642 0
M  V30 7712 N 751.94 0.30105 4.62221 0
M  V30 7713 C 752.675 0.487028 5.71328 0
M  V30 7714 N 752.171 0.733265 6.88909 0
M  V30 7715 N 753.964 0.4214 5.60518 0
M  V30 7716 H 746.115 1.13909 1.79272 0
M  V30 7717 H 748.378 0.454528 0.83193 0
M  V30 7718 H 748.084 1.14312 3.32604 0
M  V30 7719 H 747.958 -0.559804 3.73023 0
M  V30 7720 H 750.345 -0.916963 2.80492 0
M  V30 7721 H 750.426 0.809611 2.4265 0
M  V30 7722 H 750.07 1.34513 4.89764 0
M  V30 7723 H 750 -0.399624 5.25081 0
M  V30 7724 H 752.491 0.117279 3.77718 0
M  V30 7725 H 752.804 0.86403 7.67955 0
M  V30 7726 H 751.149 0.770138 6.9072 0
M  V30 7727 H 754.34 0.229461 4.67537 0
M  V30 7728 H 754.513 0.569758 6.4549 0
M  V30 7729 N 747.919 -1.57396 -0.0801906 0
M  V30 7730 C 748.882 -2.02133 -1.0805 0
M  V30 7731 C 749.882 -0.91707 -1.32085 0
M  V30 7732 O 751.072 -1.18217 -1.27947 0
M  V30 7733 C 748.204 -2.39479 -2.42616 0
M  V30 7734 H 749.397 -2.91733 -0.6951 0
M  V30 7735 H 746.95 -1.52869 -0.325677 0
M  V30 7736 H 747.685 -1.52879 -2.86004 0
M  V30 7737 H 747.47 -3.20052 -2.26515 0
M  V30 7738 H 748.96 -2.74697 -3.14534 0
M  V30 7739 N 749.397 0.351382 -1.53633 0
M  V30 7740 C 750.808 0.927429 -1.62036 0
M  V30 7741 C 751.159 1.89809 -0.496706 0
M  V30 7742 O 750.284 2.1313 0.374749 0
M  V30 7743 C 750.879 1.68886 -2.93706 0
M  V30 7744 C 749.438 2.21404 -3.04397 0
M  V30 7745 C 748.585 1.03075 -2.57431 0
M  V30 7746 H 751.536 0.129748 -1.58169 0
M  V30 7747 H 751.557 2.55116 -2.82305 0
M  V30 7748 H 751.069 0.982149 -3.75467 0
M  V30 7749 H 749.17 2.95274 -2.27253 0
M  V30 7750 H 749.283 2.48312 -4.09729 0
M  V30 7751 H 747.647 1.40188 -2.12649 0
M  V30 7752 H 748.43 0.338793 -3.41624 0
M  V30 7753 N 750.875 1.45233 0.611969 0
M  V30 7754 C 752.1 1.52767 1.40274 0
M  V30 7755 C 752.525 0.159701 1.87421 0
M  V30 7756 O 751.883 -0.854837 1.59882 0
M  V30 7757 C 751.931 2.51286 2.58626 0
M  V30 7758 O 751.035 2.02764 3.59111 0
M  V30 7759 H 750.376 0.515141 0.418958 0
M  V30 7760 H 752.906 1.90547 0.745188 0
M  V30 7761 H 752.916 2.69949 3.05927 0
M  V30 7762 H 751.591 3.50641 2.23659 0
M  V30 7763 H 750.168 1.93957 3.18489 0
M  V30 7764 N 752.353 -0.854086 1.3245 0
M  V30 7765 C 753.578 -1.64597 1.26185 0
M  V30 7766 C 754.003 -1.87357 -0.167074 0
M  V30 7767 O 753.361 -1.42675 -1.11864 0
M  V30 7768 C 753.409 -2.98213 2.02734 0
M  V30 7769 O 752.513 -3.88784 1.37554 0
M  V30 7770 H 751.854 -0.50179 0.434859 0
M  V30 7771 H 754.384 -1.06372 1.74775 0
M  V30 7772 H 754.394 -3.4803 2.1293 0
M  V30 7773 H 753.069 -2.80969 3.06642 0
M  V30 7774 H 751.646 -3.4725 1.3591 0
M  V30 7775 N 753.831 -1.1567 -1.07043 0
M  V30 7776 C 755.079 -0.931673 -1.79344 0
M  V30 7777 C 755.4 0.542421 -1.87304 0
M  V30 7778 O 754.67 1.39418 -1.37621 0
M  V30 7779 H 753.25 -0.34171 -0.664262 0
M  V30 7780 H 755.912 -1.45795 -1.29344 0
M  V30 7781 H 755.008 -1.34379 -2.81689 0
M  V30 7782 N 755.309 1.25446 -0.953992 0
M  V30 7783 C 756.242 2.24341 -0.417912 0
M  V30 7784 C 757.22 1.54709 0.5004 0
M  V30 7785 O 758.404 1.83414 0.434923 0
M  V30 7786 C 755.531 3.36352 0.398155 0
M  V30 7787 C 754.577 4.24007 -0.460461 0
M  V30 7788 S 755.41 5.00951 -1.89231 0
M  V30 7789 C 756.566 6.1643 -1.08465 0
M  V30 7790 H 756.799 2.69465 -1.25602 0
M  V30 7791 H 754.332 1.34512 -0.758018 0
M  V30 7792 H 756.29 4.01325 0.863059 0
M  V30 7793 H 754.951 2.89813 1.21108 0
M  V30 7794 H 754.144 5.03728 0.165415 0
M  V30 7795 H 753.746 3.63965 -0.860549 0
M  V30 7796 H 756.038 6.76681 -0.333017 0
M  V30 7797 H 756.981 6.8335 -1.85577 0
M  V30 7798 H 757.389 5.61139 -0.615062 0
M  V30 7799 N 756.787 0.722489 1.40064 0
M  V30 7800 C 758.064 0.191829 1.94657 0
M  V30 7801 C 758.444 -1.30389 1.66018 0
M  V30 7802 O 757.792 -2.06342 0.981588 0
M  V30 7803 C 758.002 0.511978 3.45224 0
M  V30 7804 C 759.35 0.454426 4.22161 0
M  V30 7805 O 760.374 0.448438 3.53366 0
M  V30 7806 O 759.233 0.437986 5.44742 0
M  V30 7807 H 756.327 0.0307821 0.826427 0
M  V30 7808 H 758.873 0.800493 1.49634 0
M  V30 7809 H 757.645 1.54622 3.59455 0
M  V30 7810 H 757.268 -0.126296 3.97399 0
M  V30 7811 N 758.265 -1.50454 0.469181 0
M  V30 7812 C 759.228 -2.2703 -0.314643 0
M  V30 7813 C 760.228 -1.31734 -0.922111 0
M  V30 7814 O 761.418 -1.55176 -0.791588 0
M  V30 7815 C 758.55 -3.08616 -1.44806 0
M  V30 7816 H 759.743 -2.97769 0.356892 0
M  V30 7817 H 757.296 -1.54698 0.223191 0
M  V30 7818 H 758.031 -2.42369 -2.1547 0
M  V30 7819 H 757.816 -3.78647 -1.01829 0
M  V30 7820 H 759.306 -3.66536 -2.00103 0
M  V30 7821 N 759.743 -0.201713 -1.56304 0
M  V30 7822 C 760.968 0.443815 -2.02596 0
M  V30 7823 C 761.393 1.53945 -1.08086 0
M  V30 7824 O 760.751 1.81182 -0.0655056 0
M  V30 7825 C 760.799 0.971066 -3.47279 0
M  V30 7826 O 759.903 2.0836 -3.55893 0
M  V30 7827 H 759.244 0.10294 -0.655972 0
M  V30 7828 H 761.774 -0.314533 -2.02168 0
M  V30 7829 H 761.784 1.28598 -3.87204 0
M  V30 7830 H 760.459 0.169048 -4.15556 0
M  V30 7831 H 759.036 1.77683 -3.27846 0
M  V30 7832 N 761.222 1.57436 0.0718424 0
M  V30 7833 C 762.638 1.53792 0.426628 0
M  V30 7834 C 762.838 0.921887 1.79174 0
M  V30 7835 O 761.894 0.524374 2.46995 0
M  V30 7836 C 763.207 2.98443 0.367739 0
M  V30 7837 C 764.755 3.09778 0.447928 0
M  V30 7838 C 765.23 4.5608 0.418946 0
M  V30 7839 N 766.721 4.60716 0.479022 0
M  V30 7840 C 767.456 5.71397 0.47881 0
M  V30 7841 N 766.952 6.91443 0.433417 0
M  V30 7842 N 768.745 5.59639 0.525364 0
M  V30 7843 H 760.896 1.95848 -0.822033 0
M  V30 7844 H 763.159 0.896418 -0.308447 0
M  V30 7845 H 762.865 3.47072 -0.56865 0
M  V30 7846 H 762.739 3.58335 1.17795 0
M  V30 7847 H 765.126 2.61122 1.37474 0
M  V30 7848 H 765.207 2.52796 -0.390857 0
M  V30 7849 H 764.851 5.05393 -0.504016 0
M  V30 7850 H 764.781 5.10925 1.27526 0
M  V30 7851 H 767.272 3.74328 0.518355 0
M  V30 7852 H 767.585 7.71562 0.43718 0
M  V30 7853 H 765.93 6.93847 0.400106 0
M  V30 7854 H 769.121 4.64756 0.558519 0
M  V30 7855 H 769.294 6.45896 0.52173 0
M  V30 7856 N 762.7 -0.34323 1.53817 0
M  V30 7857 C 764.111 -0.918823 1.62525 0
M  V30 7858 C 764.462 -1.89542 0.506765 0
M  V30 7859 O 763.587 -2.13326 -0.363441 0
M  V30 7860 C 764.182 -1.67326 2.94597 0
M  V30 7861 C 762.741 -2.19786 3.05567 0
M  V30 7862 C 761.888 -1.01708 2.57974 0
M  V30 7863 H 764.839 -0.121358 1.58235 0
M  V30 7864 H 764.86 -2.53615 2.83654 0
M  V30 7865 H 764.372 -0.962223 3.75983 0
M  V30 7866 H 762.473 -2.94065 2.28816 0
M  V30 7867 H 762.586 -2.46135 4.1104 0
M  V30 7868 H 760.95 -1.39058 2.13389 0
M  V30 7869 H 761.733 -0.320671 3.41799 0
M  V30 7870 N 764.178 -1.45556 -0.604258 0
M  V30 7871 C 765.141 -1.54091 -1.69672 0
M  V30 7872 C 766.141 -0.420076 -1.55216 0
M  V30 7873 O 767.331 -0.683671 -1.60224 0
M  V30 7874 C 764.463 -1.44063 -3.08964 0
M  V30 7875 H 765.656 -2.51431 -1.6347 0
M  V30 7876 H 763.209 -1.33046 -0.820273 0
M  V30 7877 H 763.944 -0.479201 -3.2074 0
M  V30 7878 H 763.729 -2.25362 -3.20865 0
M  V30 7879 H 765.219 -1.53075 -3.88533 0
M  V30 7880 N 765.656 0.84705 -1.32902 0
M  V30 7881 C 766.586 1.97166 -1.25091 0
M  V30 7882 C 767.567 1.69578 -0.133161 0
M  V30 7883 O 768.752 1.91519 -0.321591 0
M  V30 7884 C 765.882 3.33157 -0.981006 0
M  V30 7885 C 764.836 3.75119 -2.06082 0
M  V30 7886 C 764.162 5.08826 -1.64318 0
M  V30 7887 C 765.462 3.89774 -3.47669 0
M  V30 7888 H 767.156 2.03958 -2.19184 0
M  V30 7889 H 764.702 0.979907 -1.05517 0
M  V30 7890 H 766.655 4.11393 -0.912891 0
M  V30 7891 H 765.379 3.266 -0.00445559 0
M  V30 7892 H 764.038 2.9914 -2.11921 0
M  V30 7893 H 763.686 4.98732 -0.653876 0
M  V30 7894 H 763.386 5.37873 -2.36572 0
M  V30 7895 H 764.91 5.89546 -1.58958 0
M  V30 7896 H 766.324 4.58343 -3.44376 0
M  V30 7897 H 764.721 4.30248 -4.18338 0
M  V30 7898 H 765.791 2.92463 -3.86773 0
M  V30 7899 N 767.134 1.16236 1.06428 0
M  V30 7900 C 768.097 0.870163 2.1204 0
M  V30 7901 C 769.097 -0.134239 1.60239 0
M  V30 7902 O 770.287 0.0964932 1.73933 0
M  V30 7903 C 767.419 0.301033 3.39568 0
M  V30 7904 H 768.612 1.8064 2.39394 0
M  V30 7905 H 766.165 0.971116 1.2247 0
M  V30 7906 H 766.9 -0.642948 3.17863 0
M  V30 7907 H 766.685 1.02475 3.78472 0
M  V30 7908 H 768.175 0.114494 4.17443 0
M  V30 7909 N 768.612 -1.24939 0.960631 0
M  V30 7910 C 769.889 -1.88118 0.535807 0
M  V30 7911 C 770.269 -1.86605 -0.987009 0
M  V30 7912 O 769.617 -1.33375 -1.85536 0
M  V30 7913 C 769.827 -3.30565 1.11927 0
M  V30 7914 C 771.175 -4.07296 1.19981 0
M  V30 7915 O 772.199 -3.39709 1.07126 0
M  V30 7916 O 771.058 -5.28206 1.40218 0
M  V30 7917 H 768.152 -0.807698 0.177631 0
M  V30 7918 H 770.698 -1.32964 1.05445 0
M  V30 7919 H 769.47 -3.26128 2.16231 0
M  V30 7920 H 769.093 -3.93284 0.584245 0
M  V30 7921 N 770.09 -0.729906 -1.39679 0
M  V30 7922 C 771.315 -0.284345 -2.05442 0
M  V30 7923 C 771.74 1.07056 -1.54663 0
M  V30 7924 O 771.098 1.67732 -0.688157 0
M  V30 7925 C 771.146 -0.290089 -3.59431 0
M  V30 7926 O 770.25 0.723978 -4.05995 0
M  V30 7927 H 769.591 -0.130311 -0.651088 0
M  V30 7928 H 772.121 -0.994403 -1.78809 0
M  V30 7929 H 772.131 -0.132712 -4.07784 0
M  V30 7930 H 770.806 -1.27877 -3.95753 0
M  V30 7931 H 769.383 0.533154 -3.69069 0
M  V30 7932 N 771.568 1.50203 -0.477153 0
M  V30 7933 C 772.815 2.02358 0.0757385 0
M  V30 7934 C 773.143 1.3587 1.39174 0
M  V30 7935 O 772.398 0.475415 1.89838 0
M  V30 7936 C 772.697 3.56127 0.301325 0
M  V30 7937 C 772.363 4.41126 -0.933725 0
M  V30 7938 C 771.025 4.64075 -1.27233 0
M  V30 7939 C 773.377 4.90737 -1.75576 0
M  V30 7940 C 770.705 5.33878 -2.43292 0
M  V30 7941 C 773.057 5.61816 -2.90768 0
M  V30 7942 C 771.721 5.83016 -3.25036 0
M  V30 7943 H 770.991 0.740482 0.0277147 0
M  V30 7944 H 773.638 1.80754 -0.632467 0
M  V30 7945 H 771.943 3.76279 1.09183 0
M  V30 7946 H 773.64 3.94053 0.743184 0
M  V30 7947 H 770.23 4.23489 -0.659935 0
M  V30 7948 H 774.414 4.72856 -1.50734 0
M  V30 7949 H 769.67 5.48499 -2.70109 0
M  V30 7950 H 773.844 5.99237 -3.54807 0
M  V30 7951 H 771.471 6.36881 -4.15074 0
M  V30 7952 N 773.046 0.209999 1.56195 0
M  V30 7953 C 774.276 -0.429373 2.02089 0
M  V30 7954 C 774.684 -1.54703 1.0892 0
M  V30 7955 O 774.027 -1.83485 0.0889535 0
M  V30 7956 C 774.089 -1.03266 3.44349 0
M  V30 7957 C 773.753 -0.0518873 4.56971 0
M  V30 7958 C 774.75 0.744249 5.14545 0
M  V30 7959 C 772.435 0.0635185 5.0226 0
M  V30 7960 C 774.429 1.64261 6.15871 0
M  V30 7961 C 772.116 0.965423 6.03426 0
M  V30 7962 C 773.114 1.75352 6.60106 0
M  V30 7963 O 772.802 2.64029 7.59305 0
M  V30 7964 H 772.534 -0.110604 0.66689 0
M  V30 7965 H 775.088 0.320436 2.02885 0
M  V30 7966 H 773.318 -1.83134 3.40586 0
M  V30 7967 H 775.007 -1.57823 3.73961 0
M  V30 7968 H 775.773 0.665476 4.80413 0
M  V30 7969 H 771.652 -0.539762 4.57829 0
M  V30 7970 H 775.196 2.25819 6.60039 0
M  V30 7971 H 771.093 1.04526 6.36981 0
M  V30 7972 H 771.861 2.57974 7.76783 0
M  V30 7973 N 774.524 -1.57472 -0.0634922 0
M  V30 7974 C 775.487 -2.03268 -1.059 0
M  V30 7975 C 776.487 -0.931028 -1.31105 0
M  V30 7976 O 777.677 -1.19567 -1.26686 0
M  V30 7977 C 774.809 -2.42039 -2.40062 0
M  V30 7978 H 776.002 -2.92454 -0.664119 0
M  V30 7979 H 773.555 -1.53206 -0.309444 0
M  V30 7980 H 774.29 -1.55904 -2.84367 0
M  V30 7981 H 774.075 -3.22437 -2.23108 0
M  V30 7982 H 775.565 -2.78017 -3.11603 0
M  V30 7983 N 776.003 0.335068 -1.53997 0
M  V30 7984 C 777.252 1.07182 -1.70865 0
M  V30 7985 C 777.565 1.89541 -0.483078 0
M  V30 7986 O 778.771 2.66219 -0.532879 0
M  V30 7987 C 777.227 1.95497 -3.02174 0
M  V30 7988 C 776.835 1.18304 -4.32097 0
M  V30 7989 C 778.579 2.68978 -3.28407 0
M  V30 7990 C 776.486 2.05699 -5.54474 0
M  V30 7991 H 775.416 0.403857 -0.636722 0
M  V30 7992 H 778.067 0.33076 -1.80494 0
M  V30 7993 H 776.449 2.73456 -2.86423 0
M  V30 7994 H 777.623 0.451969 -4.58578 0
M  V30 7995 H 775.938 0.565556 -4.12541 0
M  V30 7996 H 778.535 3.34651 -4.17029 0
M  V30 7997 H 778.878 3.36 -2.45784 0
M  V30 7998 H 779.411 1.98087 -3.44973 0
M  V30 7999 H 776.15 1.43204 -6.39666 0
M  V30 8000 H 775.67 2.76572 -5.32229 0
M  V30 8001 H 777.349 2.64554 -5.90441 0
M  V30 8002 N 777.481 1.45874 0.596531 0
M  V30 8003 C 778.706 1.54247 1.38646 0
M  V30 8004 C 779.131 0.179571 1.87241 0
M  V30 8005 O 778.489 -0.837831 1.6078 0
M  V30 8006 C 778.537 2.54015 2.55946 0
M  V30 8007 O 777.641 2.06561 3.5694 0
M  V30 8008 H 776.982 0.519555 0.413471 0
M  V30 8009 H 779.512 1.91327 0.724936 0
M  V30 8010 H 779.522 2.73179 3.03047 0
M  V30 8011 H 778.197 3.52994 2.19928 0
M  V30 8012 H 776.774 1.97324 3.16414 0
M  V30 8013 N 778.959 -0.83999 1.33349 0
M  V30 8014 C 780.189 -1.62492 1.27593 0
M  V30 8015 C 780.597 -1.88559 -0.155597 0
M  V30 8016 O 779.94 -1.46537 -1.10782 0
M  V30 8017 C 780.002 -2.99984 1.98116 0
M  V30 8018 C 779.666 -2.96892 3.47425 0
M  V30 8019 C 780.663 -2.72688 4.42648 0
M  V30 8020 C 778.348 -3.17063 3.89585 0
M  V30 8021 C 780.342 -2.68681 5.78004 0
M  V30 8022 C 778.029 -3.12682 5.25046 0
M  V30 8023 C 779.027 -2.88522 6.19067 0
M  V30 8024 O 778.715 -2.84042 7.52047 0
M  V30 8025 H 778.447 -0.512358 0.440982 0
M  V30 8026 H 781.001 -1.0545 1.76265 0
M  V30 8027 H 779.231 -3.58875 1.44034 0
M  V30 8028 H 780.92 -3.6084 1.85875 0
M  V30 8029 H 781.686 -2.56856 4.114 0
M  V30 8030 H 777.565 -3.34889 3.16813 0
M  V30 8031 H 781.109 -2.49743 6.51363 0
M  V30 8032 H 777.006 -3.28063 5.55918 0
M  V30 8033 H 777.774 -2.99892 7.61582 0
M  V30 8034 N 780.437 -1.16799 -1.0581 0
M  V30 8035 C 781.367 -0.902241 -2.15364 0
M  V30 8036 C 782.348 0.153351 -1.69407 0
M  V30 8037 O 783.533 0.00442032 -1.94199 0
M  V30 8038 C 780.663 -0.407911 -3.44896 0
M  V30 8039 C 779.617 -1.40197 -4.04387 0
M  V30 8040 C 778.943 -0.765848 -5.29187 0
M  V30 8041 C 780.243 -2.77316 -4.42598 0
M  V30 8042 H 781.937 -1.81841 -2.37853 0
M  V30 8043 H 779.483 -0.875731 -1.14311 0
M  V30 8044 H 781.436 -0.20945 -4.20879 0
M  V30 8045 H 780.16 0.54378 -3.22041 0
M  V30 8046 H 778.819 -1.58707 -3.30466 0
M  V30 8047 H 778.467 0.192482 -5.02632 0
M  V30 8048 H 778.167 -1.42939 -5.69949 0
M  V30 8049 H 779.691 -0.577519 -6.07863 0
M  V30 8050 H 781.105 -2.62561 -5.09642 0
M  V30 8051 H 779.502 -3.4019 -4.94359 0
M  V30 8052 H 780.572 -3.32199 -3.53231 0
M  V30 8053 N 781.915 1.24427 -0.967243 0
M  V30 8054 C 783.145 1.96256 -0.64554 0
M  V30 8055 C 783.553 1.71959 0.789098 0
M  V30 8056 O 782.896 0.999913 1.54102 0
M  V30 8057 C 782.958 3.49553 -0.839798 0
M  V30 8058 C 782.622 3.97548 -2.25399 0
M  V30 8059 C 783.619 4.07257 -3.23168 0
M  V30 8060 C 781.304 4.30884 -2.58156 0
M  V30 8061 C 783.298 4.49635 -4.51782 0
M  V30 8062 C 780.985 4.72946 -3.86996 0
M  V30 8063 C 781.983 4.82286 -4.83621 0
M  V30 8064 O 781.671 5.23409 -6.10162 0
M  V30 8065 H 781.403 0.632002 -0.239895 0
M  V30 8066 H 783.957 1.59224 -1.29757 0
M  V30 8067 H 782.187 3.86479 -0.130603 0
M  V30 8068 H 783.876 4.02591 -0.517249 0
M  V30 8069 H 784.642 3.8172 -2.9919 0
M  V30 8070 H 780.521 4.22833 -1.83666 0
M  V30 8071 H 784.065 4.5684 -5.27203 0
M  V30 8072 H 779.962 4.9793 -4.10775 0
M  V30 8073 H 780.73 5.4156 -6.13722 0
M  V30 8074 N 783.393 0.737304 1.3929 0
M  V30 8075 C 784.623 0.296143 2.04467 0
M  V30 8076 C 785.031 -1.0748 1.55707 0
M  V30 8077 O 784.374 -1.69082 0.718123 0
M  V30 8078 C 784.436 0.222161 3.58813 0
M  V30 8079 C 784.1 1.53195 4.30558 0
M  V30 8080 C 785.097 2.47809 4.57041 0
M  V30 8081 C 782.782 1.79688 4.6906 0
M  V30 8082 C 784.776 3.67147 5.21039 0
M  V30 8083 C 782.463 2.99304 5.32785 0
M  V30 8084 C 783.461 3.92855 5.58708 0
M  V30 8085 O 783.149 5.1037 6.2111 0
M  V30 8086 H 782.881 0.126896 0.663983 0
M  V30 8087 H 785.435 1.00242 1.79278 0
M  V30 8088 H 783.665 -0.540239 3.82908 0
M  V30 8089 H 785.354 -0.187311 4.05468 0
M  V30 8090 H 786.12 2.28611 4.2774 0
M  V30 8091 H 781.999 1.07716 4.48239 0
M  V30 8092 H 785.543 4.40183 5.41188 0
M  V30 8093 H 781.44 3.18401 5.61508 0
M  V30 8094 H 782.208 5.10735 6.39603 0
M  V30 8095 N 784.871 -1.49948 0.485112 0
M  V30 8096 C 786.119 -2.01996 -0.0648775 0
M  V30 8097 C 786.44 -1.36819 -1.38945 0
M  V30 8098 O 785.71 -0.518163 -1.88923 0
M  V30 8099 H 784.29 -0.746513 -0.0269662 0
M  V30 8100 H 786.952 -1.84136 0.638733 0
M  V30 8101 H 786.048 -3.11418 -0.20617 0
M  V30 8102 N 786.349 -0.21828 -1.56081 0
M  V30 8103 C 787.312 0.679633 -2.18892 0
M  V30 8104 C 788.312 1.12405 -1.14986 0
M  V30 8105 O 789.502 1.03339 -1.40238 0
M  V30 8106 C 786.634 1.93063 -2.80962 0
M  V30 8107 H 787.827 0.132066 -2.99609 0
M  V30 8108 H 785.38 0.0313374 -1.56269 0
M  V30 8109 H 786.115 2.52015 -2.04106 0
M  V30 8110 H 785.9 1.62046 -3.57048 0
M  V30 8111 H 787.39 2.57043 -3.29118 0
M  V30 8112 N 787.827 1.57504 0.0551401 0
M  V30 8113 C 788.757 2.07864 1.06372 0
M  V30 8114 C 789.738 0.975565 1.39344 0
M  V30 8115 O 790.923 1.24929 1.48682 0
M  V30 8116 C 788.053 2.53643 2.3724 0
M  V30 8117 C 787.007 3.67978 2.18578 0
M  V30 8118 C 786.333 3.9987 3.54976 0
M  V30 8119 C 787.633 4.97405 1.59329 0
M  V30 8120 H 789.327 2.92379 0.644595 0
M  V30 8121 H 786.873 1.40654 0.308619 0
M  V30 8122 H 788.826 2.8749 3.08103 0
M  V30 8123 H 787.55 1.66177 2.81163 0
M  V30 8124 H 786.209 3.3444 1.50152 0
M  V30 8125 H 785.857 3.0951 3.965 0
M  V30 8126 H 785.557 4.76867 3.43324 0
M  V30 8127 H 787.081 4.36228 4.27244 0
M  V30 8128 H 788.495 5.29375 2.20078 0
M  V30 8129 H 786.892 5.78837 1.58327 0
M  V30 8130 H 787.962 4.81697 0.55638 0
M  V30 8131 N 789.305 -0.326896 1.54172 0
M  V30 8132 C 790.553 -1.06313 1.71878 0
M  V30 8133 C 790.874 -1.88652 0.493498 0
M  V30 8134 O 790.144 -1.89608 -0.492522 0
M  V30 8135 H 788.724 -0.39549 0.633716 0
M  V30 8136 H 791.386 -0.364139 1.91468 0
M  V30 8137 H 790.482 -1.73105 2.59694 0
M  V30 8138 N 790.784 -1.46188 -0.588786 0
M  V30 8139 C 792.012 -1.54743 -1.37339 0
M  V30 8140 C 792.427 -0.186446 -1.87877 0
M  V30 8141 O 791.784 0.815247 -1.63279 0
M  V30 8142 C 791.835 -2.54727 -2.56508 0
M  V30 8143 O 791.556 -3.85539 -2.08066 0
M  V30 8144 C 793.057 -2.73163 -3.49137 0
M  V30 8145 H 790.277 -0.523484 -0.419768 0
M  V30 8146 H 792.821 -1.91543 -0.716345 0
M  V30 8147 H 790.976 -2.20948 -3.18215 0
M  V30 8148 H 791.39 -4.39905 -2.85629 0
M  V30 8149 H 792.864 -3.47057 -4.2925 0
M  V30 8150 H 793.341 -1.79856 -4.00685 0
M  V30 8151 H 793.947 -3.08014 -2.9327 0
M  V30 8152 N 792.262 0.832906 -1.33792 0
M  V30 8153 C 793.192 1.95828 -1.27176 0
M  V30 8154 C 794.173 1.69427 -0.15114 0
M  V30 8155 O 795.358 1.91167 -0.341886 0
M  V30 8156 C 792.488 3.32098 -1.01629 0
M  V30 8157 C 791.442 3.72912 -2.10049 0
M  V30 8158 C 790.768 5.07054 -1.69706 0
M  V30 8159 C 792.068 3.86064 -3.51783 0
M  V30 8160 H 793.762 2.01622 -2.21334 0
M  V30 8161 H 791.308 0.96866 -1.0655 0
M  V30 8162 H 793.261 4.10402 -0.956474 0
M  V30 8163 H 791.985 3.26577 -0.0390956 0
M  V30 8164 H 790.644 2.96876 -2.15082 0
M  V30 8165 H 790.292 4.9801 -0.706737 0
M  V30 8166 H 789.992 5.35333 -2.42264 0
M  V30 8167 H 791.516 5.87827 -1.65202 0
M  V30 8168 H 792.93 4.54665 -3.49218 0
M  V30 8169 H 791.327 4.25787 -4.22878 0
M  V30 8170 H 792.397 2.88344 -3.89854 0
M  V30 8171 N 793.74 1.17359 1.05189 0
M  V30 8172 C 794.968 0.986529 1.81866 0
M  V30 8173 C 795.383 -0.46522 1.82979 0
M  V30 8174 O 794.74 -1.32305 1.25705 0
M  V30 8175 C 794.791 1.52021 3.27982 0
M  V30 8176 O 794.512 2.91511 3.27037 0
M  V30 8177 C 796.013 1.37774 4.21347 0
M  V30 8178 H 793.233 0.349021 0.573084 0
M  V30 8179 H 795.777 1.55648 1.32643 0
M  V30 8180 H 793.932 0.992287 3.74476 0
M  V30 8181 H 794.346 3.16178 4.18488 0
M  V30 8182 H 795.82 1.7993 5.21852 0
M  V30 8183 H 796.297 0.32483 4.37997 0
M  V30 8184 H 796.903 1.89583 3.80708 0
M  V30 8185 N 795.218 -1.23913 0.973828 0
M  V30 8186 C 796.446 -1.96195 0.656891 0
M  V30 8187 C 796.861 -1.72166 -0.774876 0
M  V30 8188 O 796.218 -1.0091 -1.52064 0
M  V30 8189 C 796.269 -3.49342 0.929638 0
M  V30 8190 O 795.99 -3.72553 2.30512 0
M  V30 8191 C 797.491 -4.38833 0.627739 0
M  V30 8192 H 794.711 -0.624841 0.244572 0
M  V30 8193 H 797.255 -1.57579 1.30343 0
M  V30 8194 H 795.41 -3.85999 0.329216 0
M  V30 8195 H 795.824 -4.66893 2.3898 0
M  V30 8196 H 797.298 -5.45117 0.868991 0
M  V30 8197 H 797.775 -4.37009 -0.438104 0
M  V30 8198 H 798.381 -4.07773 1.20834 0
M  V30 8199 N 796.696 -0.74468 -1.38897 0
M  V30 8200 C 797.942 -0.297324 -2.00609 0
M  V30 8201 C 798.275 1.11547 -1.58968 0
M  V30 8202 O 797.55 1.76227 -0.823057 0
M  V30 8203 C 797.833 -0.410125 -3.57757 0
M  V30 8204 C 797.686 -1.86338 -4.09387 0
M  V30 8205 C 799.005 0.20176 -4.39637 0
M  V30 8206 H 796.124 -0.109509 -0.728819 0
M  V30 8207 H 798.766 -0.942653 -1.64967 0
M  V30 8208 H 796.916 0.139287 -3.8825 0
M  V30 8209 H 798.588 -2.47042 -3.89574 0
M  V30 8210 H 796.831 -2.38146 -3.62586 0
M  V30 8211 H 797.502 -1.89352 -5.18507 0
M  V30 8212 H 799.978 -0.266703 -4.15244 0
M  V30 8213 H 798.854 0.0925415 -5.48822 0
M  V30 8214 H 799.115 1.289 -4.22891 0
M  V30 8215 N 798.174 1.49689 -0.493057 0
M  V30 8216 C 799.104 2.31826 0.279073 0
M  V30 8217 C 800.085 1.39733 0.969987 0
M  V30 8218 O 801.27 1.68646 0.962925 0
M  V30 8219 C 798.4 3.20046 1.34862 0
M  V30 8220 C 797.354 4.20869 0.77805 0
M  V30 8221 C 796.68 4.97971 1.94753 0
M  V30 8222 C 797.98 5.21813 -0.225543 0
M  V30 8223 H 799.674 2.96627 -0.406512 0
M  V30 8224 H 797.22 1.42647 -0.196943 0
M  V30 8225 H 799.173 3.76315 1.89645 0
M  V30 8226 H 797.897 2.53172 2.06328 0
M  V30 8227 H 796.556 3.65733 0.252036 0
M  V30 8228 H 796.204 4.27552 2.64969 0
M  V30 8229 H 795.904 5.66186 1.57187 0
M  V30 8230 H 797.428 5.57082 2.49984 0
M  V30 8231 H 798.842 5.72823 0.233864 0
M  V30 8232 H 797.239 5.97872 -0.516622 0
M  V30 8233 H 798.309 4.71209 -1.14412 0
M  V30 8234 N 799.652 0.226554 1.55963 0
M  V30 8235 C 800.892 -0.405574 2.00336 0
M  V30 8236 C 801.256 -1.56593 1.11097 0
M  V30 8237 O 802.457 -2.26441 1.44838 0
M  V30 8238 C 800.728 -0.82435 3.47763 0
M  V30 8239 S 802.287 -1.44988 4.14154 0
M  V30 8240 H 799.105 -0.128512 0.699289 0
M  V30 8241 H 801.707 0.337017 1.92573 0
M  V30 8242 H 800.411 0.0297636 4.10389 0
M  V30 8243 H 799.942 -1.59963 3.5941 0
M  V30 8244 H 801.957 -2.73897 4.13757 0
M  V30 8245 N 801.13 -1.57531 -0.0467866 0
M  V30 8246 C 802.378 -1.88078 -0.739656 0
M  V30 8247 C 802.699 -0.821936 -1.76831 0
M  V30 8248 O 801.969 0.146582 -1.95351 0
M  V30 8249 H 800.549 -0.694075 -0.276169 0
M  V30 8250 H 803.211 -1.94893 -0.0169391 0
M  V30 8251 H 802.307 -2.86396 -1.24031 0
M  V30 8252 N 802.608 0.318715 -1.54344 0
M  V30 8253 C 803.571 1.37545 -1.83342 0
M  V30 8254 C 804.571 1.445 -0.705444 0
M  V30 8255 O 805.761 1.44443 -0.973752 0
M  V30 8256 C 802.893 2.76225 -1.99781 0
M  V30 8257 H 804.086 1.13084 -2.77762 0
M  V30 8258 H 801.639 0.554457 -1.46135 0
M  V30 8259 H 802.374 3.05934 -1.07588 0
M  V30 8260 H 802.159 2.7257 -2.81865 0
M  V30 8261 H 803.649 3.52664 -2.23647 0
M  V30 8262 N 804.086 1.46499 0.581025 0
M  V30 8263 C 805.016 1.60052 1.70017 0
M  V30 8264 C 805.997 0.450788 1.64018 0
M  V30 8265 O 807.182 0.677237 1.82009 0
M  V30 8266 C 804.312 1.5921 3.08658 0
M  V30 8267 C 803.266 2.73169 3.29488 0
M  V30 8268 C 802.592 2.57389 4.68674 0
M  V30 8269 C 803.892 4.14978 3.1716 0
M  V30 8270 H 805.586 2.53735 1.5893 0
M  V30 8271 H 803.132 1.22113 0.763173 0
M  V30 8272 H 805.085 1.67285 3.86773 0
M  V30 8273 H 803.809 0.620718 3.20647 0
M  V30 8274 H 802.468 2.64566 2.53773 0
M  V30 8275 H 802.116 1.58331 4.77431 0
M  V30 8276 H 801.816 3.33826 4.83564 0
M  V30 8277 H 803.34 2.67358 5.48956 0
M  V30 8278 H 804.754 4.24684 3.85119 0
M  V30 8279 H 803.151 4.92016 3.4357 0
M  V30 8280 H 804.221 4.35016 2.14218 0
M  V30 8281 N 805.565 -0.825799 1.34232 0
M  V30 8282 C 806.814 -1.57686 1.2577 0
M  V30 8283 C 807.127 -1.94848 -0.171372 0
M  V30 8284 O 808.333 -2.68854 -0.378123 0
M  V30 8285 C 806.789 -2.84478 2.20454 0
M  V30 8286 C 806.397 -2.54629 3.68603 0
M  V30 8287 C 808.141 -3.625 2.20893 0
M  V30 8288 C 806.048 -3.77597 4.55164 0
M  V30 8289 H 804.978 -0.591809 0.467203 0
M  V30 8290 H 807.629 -0.909421 1.59379 0
M  V30 8291 H 806.011 -3.52832 1.79793 0
M  V30 8292 H 807.185 -1.94404 4.17784 0
M  V30 8293 H 805.5 -1.89888 3.70582 0
M  V30 8294 H 808.097 -4.538 2.82789 0
M  V30 8295 H 808.44 -3.98404 1.20746 0
M  V30 8296 H 808.973 -3.01086 2.59985 0
M  V30 8297 H 805.712 -3.46815 5.56237 0
M  V30 8298 H 805.232 -4.37116 4.10719 0
M  V30 8299 H 806.911 -4.45039 4.69627 0
M  V30 8300 N 807.043 -1.17915 -1.04565 0
M  V30 8301 C 808.268 -0.996749 -1.81878 0
M  V30 8302 C 808.693 0.450169 -1.82634 0
M  V30 8303 O 808.051 1.32268 -1.23995 0
M  V30 8304 C 808.099 -1.55005 -3.25585 0
M  V30 8305 O 807.203 -0.76804 -4.05185 0
M  V30 8306 H 806.544 -0.353456 -0.562108 0
M  V30 8307 H 809.074 -1.56557 -1.31723 0
M  V30 8308 H 809.084 -1.57503 -3.76373 0
M  V30 8309 H 807.759 -2.60327 -3.2435 0
M  V30 8310 H 806.336 -0.81498 -3.63885 0
M  V30 8311 N 808.521 1.23394 -0.980386 0
M  V30 8312 C 809.761 1.93543 -0.657288 0
M  V30 8313 C 810.125 1.74791 0.794477 0
M  V30 8314 O 811.326 2.39089 1.2284 0
M  V30 8315 C 809.597 3.42025 -1.03701 0
M  V30 8316 S 811.156 4.30871 -0.830379 0
M  V30 8317 H 807.974 0.669012 -0.240717 0
M  V30 8318 H 810.576 1.49478 -1.26002 0
M  V30 8319 H 809.28 3.53183 -2.09022 0
M  V30 8320 H 808.811 3.91091 -0.425559 0
M  V30 8321 H 810.826 4.95377 0.285719 0
M  V30 8322 N 809.999 0.752036 1.385 0
M  V30 8323 C 810.929 0.138718 2.33088 0
M  V30 8324 C 811.91 -0.705318 1.54788 0
M  V30 8325 O 813.095 -0.646821 1.83112 0
M  V30 8326 C 810.225 -0.75641 3.38963 0
M  V30 8327 C 809.179 -0.0152239 4.27997 0
M  V30 8328 C 808.505 -1.0285 5.24715 0
M  V30 8329 C 809.805 1.15226 5.09431 0
M  V30 8330 H 811.499 0.928852 2.84627 0
M  V30 8331 H 809.045 0.448111 1.3685 0
M  V30 8332 H 810.998 -1.19513 4.04097 0
M  V30 8333 H 809.722 -1.57885 2.85902 0
M  V30 8334 H 808.381 0.404061 3.64366 0
M  V30 8335 H 808.029 -1.84496 4.67943 0
M  V30 8336 H 807.729 -0.537238 5.85139 0
M  V30 8337 H 809.253 -1.46657 5.92726 0
M  V30 8338 H 810.667 0.791161 5.67815 0
M  V30 8339 H 809.064 1.57428 5.79082 0
M  V30 8340 H 810.134 1.9659 4.43261 0
M  V30 8341 N 811.477 -1.49425 0.500989 0
M  V30 8342 C 812.705 -2.06861 -0.0403443 0
M  V30 8343 C 813.12 -1.36132 -1.30819 0
M  V30 8344 O 812.477 -0.439647 -1.77125 0
M  V30 8345 C 812.528 -3.6027 -0.297902 0
M  V30 8346 O 812.249 -4.28338 0.919686 0
M  V30 8347 C 813.75 -4.34419 -0.882876 0
M  V30 8348 H 810.97 -0.670688 0.0204619 0
M  V30 8349 H 813.514 -1.92207 0.698342 0
M  V30 8350 H 811.669 -3.74627 -0.98657 0
M  V30 8351 H 812.083 -5.2004 0.682528 0
M  V30 8352 H 813.557 -5.42631 -1.01268 0
M  V30 8353 H 814.034 -3.96898 -1.88066 0
M  V30 8354 H 814.64 -4.24669 -0.231677 0
M  V30 8355 N 812.955 -0.234822 -1.55841 0
M  V30 8356 C 814.203 0.392483 -1.98252 0
M  V30 8357 C 814.524 1.59344 -1.12404 0
M  V30 8358 O 813.794 1.94834 -0.204055 0
M  V30 8359 H 812.374 0.147999 -0.732192 0
M  V30 8360 H 815.036 -0.330804 -1.92072 0
M  V30 8361 H 814.132 0.709829 -3.03921 0
M  V30 8362 N 814.433 1.57553 0.0384317 0
M  V30 8363 C 815.844 1.77258 0.586211 0
M  V30 8364 C 816.195 0.864706 1.76117 0
M  V30 8365 O 815.32 0.057141 2.16325 0
M  V30 8366 C 815.915 3.21453 1.07021 0
M  V30 8367 C 814.474 3.42387 1.56358 0
M  V30 8368 C 813.621 2.72801 0.497508 0
M  V30 8369 H 816.572 1.57585 -0.187796 0
M  V30 8370 H 816.593 3.27451 1.93794 0
M  V30 8371 H 816.105 3.87505 0.214851 0
M  V30 8372 H 814.206 2.81497 2.44111 0
M  V30 8373 H 814.319 4.50968 1.61754 0
M  V30 8374 H 812.683 2.36305 0.95038 0
M  V30 8375 H 813.466 3.41529 -0.348234 0
M  V30 8376 N 815.911 -0.310526 1.54511 0
M  V30 8377 C 817.139 -1.06611 1.77318 0
M  V30 8378 C 817.554 -1.81265 0.528043 0
M  V30 8379 O 816.911 -1.75466 -0.50178 0
M  V30 8380 C 816.962 -2.05409 2.97472 0
M  V30 8381 O 816.683 -1.33785 4.17173 0
M  V30 8382 C 818.184 -2.93082 3.32593 0
M  V30 8383 H 815.404 -0.316578 0.591624 0
M  V30 8384 H 817.948 -0.352691 2.01436 0
M  V30 8385 H 816.103 -2.72266 2.7559 0
M  V30 8386 H 816.517 -2.00055 4.84849 0
M  V30 8387 H 817.991 -3.58274 4.19933 0
M  V30 8388 H 818.468 -3.60877 2.50329 0
M  V30 8389 H 819.074 -2.31768 3.566 0
M  V30 8390 N 817.389 -1.46805 -0.573248 0
M  V30 8391 C 818.336 -1.58084 -1.68161 0
M  V30 8392 C 819.306 -0.424636 -1.6058 0
M  V30 8393 O 820.491 -0.642623 -1.79652 0
M  V30 8394 C 817.631 -1.58601 -3.06496 0
M  V30 8395 C 816.744 -2.85023 -3.24632 0
M  V30 8396 C 815.879 -2.76981 -4.53271 0
M  V30 8397 C 814.918 -3.983 -4.64783 0
M  V30 8398 N 814.055 -3.88589 -5.84759 0
M  V30 8399 H 818.895 -2.52755 -1.57858 0
M  V30 8400 H 816.432 -1.25385 -0.769218 0
M  V30 8401 H 818.39 -1.56885 -3.86579 0
M  V30 8402 H 817.02 -0.674553 -3.15673 0
M  V30 8403 H 816.072 -2.96678 -2.38089 0
M  V30 8404 H 817.384 -3.7491 -3.29004 0
M  V30 8405 H 816.538 -2.73424 -5.41594 0
M  V30 8406 H 815.277 -1.84751 -4.51352 0
M  V30 8407 H 814.282 -4.02179 -3.74876 0
M  V30 8408 H 815.507 -4.91639 -4.68474 0
M  V30 8409 H 813.453 -2.99151 -5.83819 0
M  V30 8410 H 813.37 -4.7214 -5.90441 0
M  V30 8411 H 814.638 -3.89022 -6.75486 0
M  V30 8412 N 818.867 0.818669 -1.34668 0
M  V30 8413 C 820.283 1.11243 -1.14443 0
M  V30 8414 C 820.483 2.01435 0.0512212 0
M  V30 8415 O 819.539 2.41854 0.725471 0
M  V30 8416 C 820.852 1.75504 -2.4417 0
M  V30 8417 C 822.4 1.8798 -2.50265 0
M  V30 8418 C 822.875 2.55657 -3.80004 0
M  V30 8419 N 824.366 2.63153 -3.81189 0
M  V30 8420 C 825.101 3.16258 -4.78298 0
M  V30 8421 N 824.597 3.69893 -5.85791 0
M  V30 8422 N 826.39 3.14698 -4.65748 0
M  V30 8423 H 818.541 0.218848 -2.1127 0
M  V30 8424 H 820.804 0.159655 -0.934459 0
M  V30 8425 H 820.51 1.16697 -3.31775 0
M  V30 8426 H 820.384 2.75329 -2.57825 0
M  V30 8427 H 822.771 2.45934 -1.63096 0
M  V30 8428 H 822.852 0.870447 -2.40535 0
M  V30 8429 H 822.496 1.98356 -4.67565 0
M  V30 8430 H 822.426 3.57105 -3.87019 0
M  V30 8431 H 824.917 2.2514 -3.03513 0
M  V30 8432 H 825.23 4.08678 -6.55898 0
M  V30 8433 H 823.575 3.68125 -5.89499 0
M  V30 8434 H 826.766 2.72066 -3.80917 0
M  V30 8435 H 826.939 3.5578 -5.41594 0
M  V30 8436 N 820.346 1.18468 1.03938 0
M  V30 8437 C 821.571 1.00638 1.81347 0
M  V30 8438 C 821.996 -0.440477 1.8287 0
M  V30 8439 O 821.354 -1.31609 1.24695 0
M  V30 8440 C 821.402 1.5673 3.24759 0
M  V30 8441 O 820.506 0.789517 4.04772 0
M  V30 8442 H 819.847 0.356432 0.560225 0
M  V30 8443 H 822.377 1.57253 1.30891 0
M  V30 8444 H 822.387 1.59496 3.75533 0
M  V30 8445 H 821.062 2.62043 3.22965 0
M  V30 8446 H 819.639 0.834267 3.63448 0
M  V30 8447 N 821.824 -1.22873 0.986916 0
M  V30 8448 C 823.052 -1.95487 0.677663 0
M  V30 8449 C 823.467 -1.72978 -0.756572 0
M  V30 8450 O 822.824 -1.02517 -1.50985 0
M  V30 8451 C 822.875 -3.48337 0.966638 0
M  V30 8452 O 822.596 -3.70087 2.34451 0
M  V30 8453 C 824.097 -4.38142 0.674248 0
M  V30 8454 H 821.317 -0.622211 0.251185 0
M  V30 8455 H 823.861 -1.56187 1.32007 0
M  V30 8456 H 822.016 -3.85628 0.370137 0
M  V30 8457 H 822.43 -4.64332 2.43918 0
M  V30 8458 H 823.904 -5.44165 0.926759 0
M  V30 8459 H 824.381 -4.3745 -0.391728 0
M  V30 8460 H 824.987 -4.06469 1.25152 0
M  V30 8461 N 823.302 -0.75937 -1.38099 0
M  V30 8462 C 824.232 -0.151077 -2.33011 0
M  V30 8463 C 825.213 0.697099 -1.5516 0
M  V30 8464 O 826.398 0.637101 -1.83452 0
M  V30 8465 C 823.528 0.738423 -3.39359 0
M  V30 8466 C 822.482 -0.0074741 -4.27999 0
M  V30 8467 C 821.808 1.00066 -5.25253 0
M  V30 8468 C 823.108 -1.17926 -5.08813 0
M  V30 8469 H 824.802 -0.943933 -2.84131 0
M  V30 8470 H 822.348 -0.455362 -1.36611 0
M  V30 8471 H 824.301 1.17369 -4.04725 0
M  V30 8472 H 823.025 1.56366 -2.86735 0
M  V30 8473 H 821.684 -0.423379 -3.64147 0
M  V30 8474 H 821.332 1.82012 -4.68914 0
M  V30 8475 H 821.032 0.506199 -5.85416 0
M  V30 8476 H 822.556 1.43512 -5.93495 0
M  V30 8477 H 823.97 -0.821262 -5.67387 0
M  V30 8478 H 822.367 -1.60497 -5.78239 0
M  V30 8479 H 823.437 -1.98938 -4.42212 0
M  V30 8480 N 824.78 1.49157 -0.508906 0
M  V30 8481 C 825.743 2.27784 0.25434 0
M  V30 8482 C 826.743 1.34132 0.88686 0
M  V30 8483 O 827.933 1.5722 0.750168 0
M  V30 8484 C 825.065 3.12347 1.36573 0
M  V30 8485 H 826.258 2.96718 -0.435714 0
M  V30 8486 H 823.811 1.54052 -0.264128 0
M  V30 8487 H 824.546 2.47997 2.08969 0
M  V30 8488 H 824.331 3.81213 0.917543 0
M  V30 8489 H 825.821 3.71712 1.90315 0
M  V30 8490 N 826.258 0.243083 1.55714 0
M  V30 8491 C 827.669 -0.260788 1.8487 0
M  V30 8492 C 828.02 -1.57879 1.16485 0
M  V30 8493 O 827.145 -2.1184 0.441908 0
M  V30 8494 C 827.74 -0.479954 3.35383 0
M  V30 8495 C 826.299 -0.928096 3.64778 0
M  V30 8496 C 825.446 -0.00316416 2.773 0
M  V30 8497 H 828.397 0.465743 1.51712 0
M  V30 8498 H 828.418 -1.32308 3.56756 0
M  V30 8499 H 827.93 0.479468 3.85127 0
M  V30 8500 H 826.031 -1.90012 3.20509 0
M  V30 8501 H 826.144 -0.7876 4.72582 0
M  V30 8502 H 824.508 -0.513849 2.49463 0
M  V30 8503 H 825.291 0.951562 3.29849 0
M  V30 8504 N 827.736 -1.57571 -0.0300757 0
M  V30 8505 C 828.984 -1.88852 -0.719666 0
M  V30 8506 C 829.305 -0.840645 -1.75949 0
M  V30 8507 O 828.575 0.125854 -1.95495 0
M  V30 8508 H 827.155 -0.696965 -0.268792 0
M  V30 8509 H 829.817 -1.949 0.00373285 0
M  V30 8510 H 828.913 -2.87695 -1.20987 0
M  V30 8511 N 829.214 0.302327 -1.54673 0
M  V30 8512 C 830.144 1.37759 -1.88533 0
M  V30 8513 C 831.125 1.52961 -0.744113 0
M  V30 8514 O 832.31 1.6649 -0.999731 0
M  V30 8515 C 829.44 2.74201 -2.13146 0
M  V30 8516 C 828.394 2.73765 -3.28993 0
M  V30 8517 C 827.72 4.13483 -3.39022 0
M  V30 8518 C 829.02 2.35624 -4.66132 0
M  V30 8519 H 830.714 1.0967 -2.78591 0
M  V30 8520 H 828.26 0.52613 -1.34044 0
M  V30 8521 H 830.213 3.49508 -2.35419 0
M  V30 8522 H 828.937 3.03812 -1.19858 0
M  V30 8523 H 827.596 2.00914 -3.06642 0
M  V30 8524 H 827.244 4.40269 -2.43253 0
M  V30 8525 H 826.944 4.14093 -4.16894 0
M  V30 8526 H 828.468 4.90572 -3.63553 0
M  V30 8527 H 829.882 3.00647 -4.88143 0
M  V30 8528 H 828.279 2.47449 -5.46707 0
M  V30 8529 H 829.349 1.30753 -4.66939 0
M  V30 8530 N 830.692 1.47107 0.565454 0
M  V30 8531 C 831.622 1.61846 1.68309 0
M  V30 8532 C 832.603 0.468159 1.63531 0
M  V30 8533 O 833.788 0.696504 1.8128 0
M  V30 8534 C 830.918 1.62474 3.06952 0
M  V30 8535 C 829.872 2.76649 3.26572 0
M  V30 8536 C 829.198 2.62345 4.65917 0
M  V30 8537 C 830.498 4.18319 3.12741 0
M  V30 8538 H 832.192 2.55407 1.5623 0
M  V30 8539 H 829.738 1.22916 0.750179 0
M  V30 8540 H 831.691 1.71378 3.84977 0
M  V30 8541 H 830.415 0.654692 3.19971 0
M  V30 8542 H 829.074 2.67242 2.50952 0
M  V30 8543 H 828.722 1.63386 4.75725 0
M  V30 8544 H 828.422 3.38936 4.79996 0
M  V30 8545 H 829.946 2.73165 5.46089 0
M  V30 8546 H 831.36 4.28745 3.80593 0
M  V30 8547 H 829.757 4.95632 3.38333 0
M  V30 8548 H 830.827 4.37263 2.09592 0
M  V30 8549 N 832.17 -0.811516 1.35101 0
M  V30 8550 C 833.416 -1.57016 1.29296 0
M  V30 8551 C 833.771 -1.91941 -0.13288 0
M  V30 8552 O 833.064 -1.58121 -1.08204 0
M  V30 8553 C 833.258 -2.87121 2.1283 0
M  V30 8554 C 833.087 -2.64908 3.63392 0
M  V30 8555 C 831.857 -2.61055 4.32641 0
M  V30 8556 C 834.055 -2.35628 4.57148 0
M  V30 8557 N 832.037 -2.30508 5.68981 0
M  V30 8558 C 833.408 -2.14876 5.81574 0
M  V30 8559 C 835.463 -2.2145 4.45942 0
M  V30 8560 C 834.166 -1.81381 6.96055 0
M  V30 8561 C 836.192 -1.89352 5.60267 0
M  V30 8562 C 835.554 -1.69432 6.83719 0
M  V30 8563 H 831.653 -0.57649 0.528378 0
M  V30 8564 H 834.237 -0.950338 1.69931 0
M  V30 8565 H 832.408 -3.47007 1.74473 0
M  V30 8566 H 834.14 -3.52629 1.98582 0
M  V30 8567 H 830.895 -2.75531 3.85201 0
M  V30 8568 H 831.319 -2.18042 6.40927 0
M  V30 8569 H 835.961 -2.35551 3.51106 0
M  V30 8570 H 833.679 -1.66018 7.90863 0
M  V30 8571 H 837.265 -1.79098 5.53548 0
M  V30 8572 H 836.145 -1.44957 7.70686 0
M  V30 8573 N 833.648 -1.19017 -1.03309 0
M  V30 8574 C 834.894 -1.0017 -1.77024 0
M  V30 8575 C 835.249 0.463062 -1.86744 0
M  V30 8576 O 834.542 1.33937 -1.37009 0
M  V30 8577 C 834.736 -1.59927 -3.19622 0
M  V30 8578 C 834.565 -3.12062 -3.23802 0
M  V30 8579 C 833.335 -3.80932 -3.31992 0
M  V30 8580 C 835.533 -4.0947 -3.1119 0
M  V30 8581 N 833.515 -5.20502 -3.25502 0
M  V30 8582 C 834.886 -5.3561 -3.12285 0
M  V30 8583 C 836.941 -4.00887 -2.95287 0
M  V30 8584 C 835.644 -6.54161 -2.99109 0
M  V30 8585 C 837.67 -5.19042 -2.83459 0
M  V30 8586 C 837.032 -6.44079 -2.85205 0
M  V30 8587 H 833.131 -0.420633 -0.659236 0
M  V30 8588 H 835.715 -1.5092 -1.23009 0
M  V30 8589 H 833.886 -1.11785 -3.71966 0
M  V30 8590 H 835.618 -1.34557 -3.81676 0
M  V30 8591 H 832.373 -3.31702 -3.38039 0
M  V30 8592 H 832.797 -5.93519 -3.25675 0
M  V30 8593 H 837.439 -3.05042 -2.92762 0
M  V30 8594 H 835.157 -7.50196 -3.00386 0
M  V30 8595 H 838.743 -5.14199 -2.72197 0
M  V30 8596 H 837.623 -7.33969 -2.7615 0
M  V30 8597 N 835.127 1.22348 -0.993418 0
M  V30 8598 C 836.404 1.86632 -0.585495 0
M  V30 8599 C 836.784 1.89156 0.937187 0
M  V30 8600 O 836.132 1.38247 1.81934 0
M  V30 8601 C 836.342 3.27481 -1.20652 0
M  V30 8602 C 837.69 4.03971 -1.30738 0
M  V30 8603 O 838.714 3.3675 -1.16096 0
M  V30 8604 O 837.573 5.24302 -1.54173 0
M  V30 8605 H 834.667 0.802704 -0.198984 0
M  V30 8606 H 837.213 1.30122 -1.08933 0
M  V30 8607 H 835.985 3.20281 -2.24802 0
M  V30 8608 H 835.608 3.91597 -0.688312 0
M  V30 8609 N 836.605 0.766683 1.37694 0
M  V30 8610 C 837.535 0.163432 2.32927 0
M  V30 8611 C 838.516 -0.688861 1.55527 0
M  V30 8612 O 839.701 -0.627363 1.83787 0
M  V30 8613 C 836.831 -0.720416 3.39746 0
M  V30 8614 C 835.785 0.0301718 4.27989 0
M  V30 8615 C 835.111 -0.972788 5.25776 0
M  V30 8616 C 836.411 1.20623 5.0818 0
M  V30 8617 H 838.105 0.958988 2.83626 0
M  V30 8618 H 835.651 0.462601 1.36367 0
M  V30 8619 H 837.604 -1.15221 4.05342 0
M  V30 8620 H 836.328 -1.54844 2.8756 0
M  V30 8621 H 834.987 0.442685 3.63917 0
M  V30 8622 H 834.635 -1.79522 4.69873 0
M  V30 8623 H 834.335 -0.475145 5.85676 0
M  V30 8624 H 835.859 -1.40362 5.94248 0
M  V30 8625 H 837.273 0.851341 5.66944 0
M  V30 8626 H 835.67 1.63561 5.7738 0
M  V30 8627 H 836.74 2.01281 4.41151 0
M  V30 8628 N 838.083 -1.48885 0.516809 0
M  V30 8629 C 839.046 -2.27916 -0.242256 0
M  V30 8630 C 840.046 -1.34601 -0.879735 0
M  V30 8631 O 841.236 -1.57616 -0.74182 0
M  V30 8632 C 838.368 -3.13067 -1.34914 0
M  V30 8633 H 839.561 -2.96483 0.451444 0
M  V30 8634 H 837.114 -1.5391 0.272294 0
M  V30 8635 H 837.849 -2.49102 -2.07651 0
M  V30 8636 H 837.634 -3.81695 -0.897313 0
M  V30 8637 H 839.124 -3.72716 -1.88341 0
M  V30 8638 N 839.561 -0.251338 -1.55583 0
M  V30 8639 C 840.977 0.103409 -1.59265 0
M  V30 8640 C 841.177 1.56559 -1.26852 0
M  V30 8641 O 840.233 2.31071 -1.01796 0
M  V30 8642 C 841.546 -0.249781 -2.99661 0
M  V30 8643 C 843.094 -0.194442 -3.12395 0
M  V30 8644 C 843.569 -0.521728 -4.55019 0
M  V30 8645 N 845.06 -0.472393 -4.60785 0
M  V30 8646 C 845.795 -0.698737 -5.69127 0
M  V30 8647 N 845.291 -0.988443 -6.85713 0
M  V30 8648 N 847.084 -0.629143 -5.58568 0
M  V30 8649 H 839.235 -1.20484 -1.74921 0
M  V30 8650 H 841.498 -0.485092 -0.814488 0
M  V30 8651 H 841.204 -1.26577 -3.28133 0
M  V30 8652 H 841.078 0.420973 -3.74844 0
M  V30 8653 H 843.465 0.812229 -2.83702 0
M  V30 8654 H 843.546 -0.899111 -2.39478 0
M  V30 8655 H 843.19 -1.52597 -4.84434 0
M  V30 8656 H 843.12 0.204468 -5.26203 0
M  V30 8657 H 845.611 -0.257386 -3.77022 0
M  V30 8658 H 845.924 -1.14846 -7.64219 0
M  V30 8659 H 844.269 -1.02596 -6.87386 0
M  V30 8660 H 847.46 -0.402826 -4.66364 0
M  V30 8661 H 847.633 -0.808935 -6.42931 0
M  V30 8662 N 841.039 1.57585 0.0217189 0
M  V30 8663 C 841.971 2.03849 1.04777 0
M  V30 8664 C 842.984 0.952558 1.32023 0
M  V30 8665 O 844.173 1.22974 1.29381 0
M  V30 8666 C 841.273 2.40504 2.3877 0
M  V30 8667 C 840.446 3.71566 2.30775 0
M  V30 8668 C 839.505 3.95329 3.47277 0
M  V30 8669 O 838.531 4.66289 3.26441 0
M  V30 8670 N 839.733 3.41536 4.69397 0
M  V30 8671 H 842.498 2.92491 0.653395 0
M  V30 8672 H 840.059 1.60538 0.209527 0
M  V30 8673 H 842.051 2.53532 3.15442 0
M  V30 8674 H 840.621 1.57494 2.70027 0
M  V30 8675 H 839.841 3.68822 1.39155 0
M  V30 8676 H 841.129 4.5753 2.22584 0
M  V30 8677 H 840.527 2.84033 4.89226 0
M  V30 8678 H 839.084 3.59932 5.43408 0
M  V30 8679 N 842.517 -0.29412 1.54831 0
M  V30 8680 C 843.745 -1.04724 1.78439 0
M  V30 8681 C 844.16 -1.80695 0.547239 0
M  V30 8682 O 843.517 -1.75989 -0.483141 0
M  V30 8683 C 843.568 -2.02242 2.99634 0
M  V30 8684 O 843.289 -1.29352 4.18568 0
M  V30 8685 C 844.79 -2.89537 3.35683 0
M  V30 8686 H 842.01 -0.310285 0.594949 0
M  V30 8687 H 844.554 -0.331306 2.01798 0
M  V30 8688 H 842.709 -2.69328 2.78462 0
M  V30 8689 H 843.123 -1.94901 4.86943 0
M  V30 8690 H 844.597 -3.538 4.23709 0
M  V30 8691 H 845.074 -3.58201 2.54143 0
M  V30 8692 H 845.68 -2.27973 3.59038 0
M  V30 8693 N 843.995 -1.47404 -0.557645 0
M  V30 8694 C 844.958 -1.59411 -1.64684 0
M  V30 8695 C 845.958 -0.469244 -1.53801 0
M  V30 8696 O 847.148 -0.734298 -1.57967 0
M  V30 8697 C 844.28 -1.5382 -3.04224 0
M  V30 8698 H 845.473 -2.56504 -1.55389 0
M  V30 8699 H 843.026 -1.35588 -0.777531 0
M  V30 8700 H 843.761 -0.581 -3.19053 0
M  V30 8701 H 843.546 -2.35456 -3.13533 0
M  V30 8702 H 845.036 -1.65358 -3.83466 0
M  V30 8703 N 845.473 0.80434 -1.35529 0
M  V30 8704 C 846.698 1.598 -1.32207 0
M  V30 8705 C 847.123 1.87848 0.0974226 0
M  V30 8706 O 846.481 1.46728 1.06492 0
M  V30 8707 C 846.529 2.90483 -2.13663 0
M  V30 8708 O 845.633 3.83411 -1.51888 0
M  V30 8709 H 844.974 0.485305 -0.453183 0
M  V30 8710 H 847.504 0.998119 -1.78602 0
M  V30 8711 H 847.514 3.39888 -2.257 0
M  V30 8712 H 846.189 2.69395 -3.16859 0
M  V30 8713 H 844.766 3.41967 -1.48704 0
M  V30 8714 N 846.951 1.19563 1.02676 0
M  V30 8715 C 848.197 1.00105 1.76371 0
M  V30 8716 C 848.53 -0.466823 1.88506 0
M  V30 8717 O 847.805 -1.34665 1.40341 0
M  V30 8718 C 848.088 1.67321 3.18866 0
M  V30 8719 C 847.941 3.21486 3.1459 0
M  V30 8720 C 849.26 1.39794 4.17308 0
M  V30 8721 H 846.379 0.365075 0.640226 0
M  V30 8722 H 849.021 1.47433 1.19848 0
M  V30 8723 H 847.171 1.27081 3.67128 0
M  V30 8724 H 848.843 3.70953 2.7421 0
M  V30 8725 H 847.086 3.5292 2.52249 0
M  V30 8726 H 847.757 3.63665 4.15273 0
M  V30 8727 H 850.233 1.74685 3.77657 0
M  V30 8728 H 849.109 1.89371 5.15199 0
M  V30 8729 H 849.37 0.323505 4.40915 0
M  V30 8730 N 848.429 -1.21819 0.999893 0
M  V30 8731 C 849.392 -2.22227 0.561044 0
M  V30 8732 C 850.392 -1.56722 -0.359858 0
M  V30 8733 O 851.582 -1.73546 -0.150848 0
M  V30 8734 C 848.714 -3.40409 -0.182987 0
M  V30 8735 H 849.907 -2.62567 1.44909 0
M  V30 8736 H 847.46 -1.34991 0.78785 0
M  V30 8737 H 848.195 -3.05551 -1.08671 0
M  V30 8738 H 847.98 -3.89171 0.47833 0
M  V30 8739 H 849.47 -4.14856 -0.477952 0
M  V30 8740 N 849.908 -0.773975 -1.37286 0
M  V30 8741 C 851.319 -0.404433 -1.82267 0
M  V30 8742 C 851.67 1.06971 -1.64474 0
M  V30 8743 O 850.795 1.82867 -1.15708 0
M  V30 8744 C 851.39 -0.727298 -3.30902 0
M  V30 8745 C 849.949 -0.410784 -3.74152 0
M  V30 8746 C 849.096 -0.969983 -2.59782 0
M  V30 8747 H 852.047 -0.968437 -1.25726 0
M  V30 8748 H 852.068 -0.0127575 -3.80498 0
M  V30 8749 H 851.58 -1.80026 -3.4382 0
M  V30 8750 H 849.681 0.65477 -3.66802 0
M  V30 8751 H 849.794 -0.920592 -4.70172 0
M  V30 8752 H 848.158 -0.394094 -2.51633 0
M  V30 8753 H 848.941 -2.04839 -2.75492 0
M  V30 8754 N 851.386 1.48609 -0.524698 0
M  V30 8755 C 852.333 2.29539 0.240956 0
M  V30 8756 C 853.303 1.37033 0.938681 0
M  V30 8757 O 854.488 1.65996 0.940737 0
M  V30 8758 C 851.628 3.20278 1.28514 0
M  V30 8759 C 850.741 4.27858 0.596798 0
M  V30 8760 C 849.876 5.05784 1.62346 0
M  V30 8761 C 848.915 6.05173 0.918287 0
M  V30 8762 N 848.052 6.76176 1.89025 0
M  V30 8763 H 852.892 2.945 -0.455368 0
M  V30 8764 H 850.429 1.45188 -0.236403 0
M  V30 8765 H 852.387 3.71281 1.90279 0
M  V30 8766 H 851.017 2.57251 1.94992 0
M  V30 8767 H 850.069 3.80162 -0.134668 0
M  V30 8768 H 851.381 4.98782 0.0428506 0
M  V30 8769 H 850.535 5.60775 2.31553 0
M  V30 8770 H 849.274 4.34687 2.2113 0
M  V30 8771 H 848.279 5.49391 0.21212 0
M  V30 8772 H 849.504 6.78265 0.336633 0
M  V30 8773 H 847.45 6.07834 2.46726 0
M  V30 8774 H 847.367 7.43157 1.3876 0
M  V30 8775 H 848.635 7.35759 2.57446 0
M  V30 8776 N 852.864 0.259585 1.55447 0
M  V30 8777 C 853.774 -0.645026 2.25558 0
M  V30 8778 C 854.79 -1.18291 1.27606 0
M  V30 8779 O 855.966 -1.21649 1.6051 0
M  V30 8780 C 853.031 -1.81964 2.9511 0
M  V30 8781 C 852.092 -1.31997 4.08504 0
M  V30 8782 C 851.325 -2.43861 4.74729 0
M  V30 8783 O 851.548 -3.62876 4.40088 0
M  V30 8784 O 850.482 -2.12898 5.6299 0
M  V30 8785 H 854.308 -0.0775399 3.03601 0
M  V30 8786 H 851.893 0.0275859 1.49375 0
M  V30 8787 H 853.775 -2.50485 3.38873 0
M  V30 8788 H 852.45 -2.37451 2.19997 0
M  V30 8789 H 851.357 -0.601676 3.6923 0
M  V30 8790 H 852.69 -0.811045 4.85472 0
M  V30 8791 N 854.342 -1.57594 -0.0133615 0
M  V30 8792 C 855.252 -2.10991 -1.02566 0
M  V30 8793 C 856.268 -1.05208 -1.3859 0
M  V30 8794 O 857.444 -1.37034 -1.47593 0
M  V30 8795 C 854.509 -2.59165 -2.30292 0
M  V30 8796 C 853.57 -3.79495 -2.00704 0
M  V30 8797 C 852.803 -4.25361 -3.22341 0
M  V30 8798 O 853.026 -3.70645 -4.33565 0
M  V30 8799 O 851.96 -5.17649 -3.07121 0
M  V30 8800 H 855.786 -2.97678 -0.601806 0
M  V30 8801 H 853.371 -1.47598 -0.23135 0
M  V30 8802 H 855.253 -2.90409 -3.05354 0
M  V30 8803 H 853.928 -1.75582 -2.71942 0
M  V30 8804 H 852.835 -3.53245 -1.23161 0
M  V30 8805 H 854.168 -4.64109 -1.639 0
M  V30 8806 N 855.82 0.285905 -1.54985 0
M  V30 8807 C 857.066 1.02071 -1.75241 0
M  V30 8808 C 857.399 1.864 -0.544842 0
M  V30 8809 O 856.674 1.89034 0.457844 0
M  V30 8810 C 856.957 1.91409 -3.05016 0
M  V30 8811 C 856.81 1.10158 -4.36102 0
M  V30 8812 C 858.129 2.90335 -3.30747 0
M  V30 8813 H 855.248 0.369663 -0.637588 0
M  V30 8814 H 857.89 0.294114 -1.8771 0
M  V30 8815 H 856.04 2.53362 -2.94517 0
M  V30 8816 H 857.712 0.503756 -4.58541 0
M  V30 8817 H 855.955 0.404675 -4.31908 0
M  V30 8818 H 856.626 1.75956 -5.23205 0
M  V30 8819 H 859.102 2.38514 -3.40955 0
M  V30 8820 H 857.978 3.49997 -4.2284 0
M  V30 8821 H 858.239 3.64787 -2.49765 0
M  V30 8822 N 857.298 1.47698 0.54982 0
M  V30 8823 C 858.261 1.60282 1.63837 0
M  V30 8824 C 859.261 0.477394 1.5355 0
M  V30 8825 O 860.451 0.742665 1.57576 0
M  V30 8826 C 857.583 1.55431 3.03404 0
M  V30 8827 H 858.776 2.57325 1.54026 0
M  V30 8828 H 856.329 1.35999 0.770329 0
M  V30 8829 H 857.064 0.597912 3.1874 0
M  V30 8830 H 856.849 2.37116 3.12279 0
M  V30 8831 H 858.339 1.6739 3.82584 0
M  V30 8832 N 858.776 -0.797141 1.35954 0
M  V30 8833 C 860.025 -1.54983 1.29086 0
M  V30 8834 C 860.338 -1.95167 -0.130003 0
M  V30 8835 O 861.544 -2.69596 -0.32101 0
M  V30 8836 C 860 -2.79738 2.26439 0
M  V30 8837 C 859.608 -2.46753 3.73921 0
M  V30 8838 C 861.352 -3.57733 2.28533 0
M  V30 8839 C 859.259 -3.67858 4.63071 0
M  V30 8840 H 858.189 -0.581766 0.479651 0
M  V30 8841 H 860.84 -0.87541 1.61273 0
M  V30 8842 H 859.222 -3.48939 1.87236 0
M  V30 8843 H 860.396 -1.85499 4.21814 0
M  V30 8844 H 858.711 -1.81985 3.74527 0
M  V30 8845 H 861.308 -4.47699 2.92351 0
M  V30 8846 H 861.651 -3.95754 1.29169 0
M  V30 8847 H 862.184 -2.95504 2.66313 0
M  V30 8848 H 858.923 -3.34939 5.63468 0
M  V30 8849 H 858.443 -4.28305 4.19898 0
M  V30 8850 H 860.122 -4.34977 4.78961 0
M  V30 8851 N 860.254 -1.20106 -1.0204 0
M  V30 8852 C 861.184 -0.970301 -2.12385 0
M  V30 8853 C 862.165 0.099378 -1.69809 0
M  V30 8854 O 863.35 -0.057365 -1.94115 0
M  V30 8855 C 860.48 -0.517431 -3.43424 0
M  V30 8856 C 859.434 -1.52992 -3.99722 0
M  V30 8857 C 858.76 -0.933817 -5.26483 0
M  V30 8858 C 860.06 -2.91257 -4.33551 0
M  V30 8859 H 861.754 -1.89316 -2.31948 0
M  V30 8860 H 859.3 -0.911655 -1.11467 0
M  V30 8861 H 861.253 -0.343243 -4.2 0
M  V30 8862 H 859.977 0.441049 -3.23608 0
M  V30 8863 H 858.636 -1.6914 -3.2525 0
M  V30 8864 H 858.284 0.0324763 -5.0299 0
M  V30 8865 H 857.984 -1.60999 -5.65113 0
M  V30 8866 H 859.508 -0.770614 -6.05718 0
M  V30 8867 H 860.922 -2.78642 -5.0103 0
M  V30 8868 H 859.319 -3.55745 -4.83286 0
M  V30 8869 H 860.389 -3.43269 -3.42483 0
M  V30 8870 N 861.732 1.21287 -1.00634 0
M  V30 8871 C 863.009 1.86 -0.605257 0
M  V30 8872 C 863.389 1.90139 0.917072 0
M  V30 8873 O 862.737 1.40169 1.80458 0
M  V30 8874 C 862.947 3.26183 -1.24119 0
M  V30 8875 C 864.295 4.02562 -1.35015 0
M  V30 8876 O 865.319 3.35499 -1.19661 0
M  V30 8877 O 864.178 5.22638 -1.59726 0
M  V30 8878 H 861.272 0.800549 -0.207486 0
M  V30 8879 H 863.818 1.28959 -1.10307 0
M  V30 8880 H 862.59 3.17878 -2.28186 0
M  V30 8881 H 862.213 3.90845 -0.729807 0
M  V30 8882 N 863.21 0.781244 1.36873 0
M  V30 8883 C 864.487 0.274217 1.93668 0
M  V30 8884 C 864.867 -1.2323 1.71399 0
M  V30 8885 O 864.215 -2.01993 1.06822 0
M  V30 8886 C 864.425 0.657939 3.42742 0
M  V30 8887 C 865.773 0.63307 4.19854 0
M  V30 8888 O 866.797 0.597909 3.51146 0
M  V30 8889 O 865.656 0.668636 5.42394 0
M  V30 8890 H 862.75 0.0658059 0.824378 0
M  V30 8891 H 865.296 0.863238 1.46104 0
M  V30 8892 H 864.068 1.69728 3.52573 0
M  V30 8893 H 863.691 0.0423678 3.97577 0
M  V30 8894 N 864.689 -1.48329 0.532571 0
M  V30 8895 C 865.637 -2.31336 -0.242133 0
M  V30 8896 C 866.631 -1.41391 -0.933006 0
M  V30 8897 O 867.837 -1.58284 -0.857096 0
M  V30 8898 H 864.212 -0.745724 -0.0969536 0
M  V30 8899 H 866.183 -2.94555 0.477504 0
M  V30 8900 C 864.932 -3.23501 -1.27446 0
M  V30 8901 H 864.255 -3.92659 -0.752261 0
M  V30 8902 H 865.695 -3.84461 -1.78789 0
M  V30 8903 C 864.154 -2.45288 -2.30944 0
M  V30 8904 O 864.684 -2.17955 -3.37429 0
M  V30 8905 N 862.89 -2.06737 -2.04226 0
M  V30 8906 H 862.437 -2.29166 -1.17647 0
M  V30 8907 H 862.395 -1.54719 -2.73696 0
M  V30 8908 N 866.167 -0.267825 -1.55308 0
M  V30 8909 C 867.097 0.616585 -2.25212 0
M  V30 8910 C 868.078 1.16472 -1.23969 0
M  V30 8911 O 869.263 1.20021 -1.52672 0
M  V30 8912 C 866.393 1.80412 -2.96764 0
M  V30 8913 C 865.347 1.38784 -4.04874 0
M  V30 8914 C 864.673 2.65789 -4.63961 0
M  V30 8915 C 865.973 0.543415 -5.19465 0
M  V30 8916 H 867.667 0.0336257 -2.99381 0
M  V30 8917 H 865.213 0.0147328 -1.43992 0
M  V30 8918 H 867.166 2.42866 -3.44375 0
M  V30 8919 H 865.89 2.4128 -2.20118 0
M  V30 8920 H 864.549 0.786541 -3.58063 0
M  V30 8921 H 864.197 3.24899 -3.83992 0
M  V30 8922 H 863.897 2.38651 -5.36954 0
M  V30 8923 H 865.421 3.29104 -5.14318 0
M  V30 8924 H 866.835 1.07277 -5.63174 0
M  V30 8925 H 865.232 0.367219 -5.98975 0
M  V30 8926 H 866.302 -0.439534 -4.82904 0
M  V30 8927 N 867.645 1.57599 0.00500368 0
M  V30 8928 C 868.891 1.90631 0.691919 0
M  V30 8929 C 869.224 0.868443 1.737 0
M  V30 8930 O 868.499 -0.113482 1.94169 0
M  V30 8931 C 868.782 3.34255 1.33961 0
M  V30 8932 C 868.635 4.48755 0.306413 0
M  V30 8933 C 869.954 3.77211 2.26715 0
M  V30 8934 H 867.073 0.693279 0.250066 0
M  V30 8935 H 869.715 1.89946 -0.0452634 0
M  V30 8936 H 867.865 3.3497 1.96793 0
M  V30 8937 H 869.537 4.60176 -0.321841 0
M  V30 8938 H 867.78 4.32203 -0.371852 0
M  V30 8939 H 868.451 5.46193 0.798554 0
M  V30 8940 H 870.927 3.78017 1.73904 0
M  V30 8941 H 869.803 4.78466 2.69002 0
M  V30 8942 H 870.064 3.10801 3.14413 0
M  V30 8943 N 869.123 -0.277682 1.55134 0
M  V30 8944 C 870.07 -1.34313 1.87693 0
M  V30 8945 C 871.04 -1.49298 0.727973 0
M  V30 8946 O 872.225 -1.6378 0.978807 0
M  V30 8947 C 869.365 -2.69922 2.15026 0
M  V30 8948 C 868.478 -2.63197 3.42565 0
M  V30 8949 C 867.613 -3.90955 3.59622 0
M  V30 8950 C 866.652 -3.78722 4.8087 0
M  V30 8951 N 865.789 -4.98303 4.94609 0
M  V30 8952 H 870.629 -1.05847 2.78569 0
M  V30 8953 H 868.166 -0.511469 1.37922 0
M  V30 8954 H 870.124 -3.48817 2.28872 0
M  V30 8955 H 868.754 -2.966 1.2739 0
M  V30 8956 H 867.806 -1.76038 3.37216 0
M  V30 8957 H 869.118 -2.50056 4.31594 0
M  V30 8958 H 868.272 -4.78291 3.7326 0
M  V30 8959 H 867.011 -4.06957 2.6877 0
M  V30 8960 H 866.016 -2.89769 4.67241 0
M  V30 8961 H 867.241 -3.64242 5.73153 0
M  V30 8962 H 865.187 -5.14725 4.06687 0
M  V30 8963 H 865.104 -4.87675 5.77676 0
M  V30 8964 H 866.372 -5.87225 5.12628 0
M  V30 8965 N 870.601 -1.47988 -0.541979 0
M  V30 8966 C 871.849 -1.55086 -1.29587 0
M  V30 8967 C 872.17 -0.221304 -1.9374 0
M  V30 8968 O 871.44 0.756128 -1.80719 0
M  V30 8969 H 870.02 -0.571307 -0.481266 0
M  V30 8970 H 872.682 -1.8438 -0.631675 0
M  V30 8971 H 871.778 -2.32556 -2.08144 0
M  V30 8972 N 872.079 0.78992 -1.36375 0
M  V30 8973 C 873.49 1.36506 -1.2737 0
M  V30 8974 C 873.841 1.96008 0.086711 0
M  V30 8975 O 872.966 1.92521 0.988159 0
M  V30 8976 C 873.561 2.48175 -2.30639 0
M  V30 8977 C 872.12 3.01506 -2.25325 0
M  V30 8978 C 871.267 1.74581 -2.15445 0
M  V30 8979 H 874.218 0.591606 -1.47261 0
M  V30 8980 H 874.239 3.27179 -1.94253 0
M  V30 8981 H 873.751 2.04838 -3.2964 0
M  V30 8982 H 871.852 3.49265 -1.29788 0
M  V30 8983 H 871.965 3.58355 -3.17992 0
M  V30 8984 H 870.329 1.96794 -1.61692 0
M  V30 8985 H 871.112 1.33373 -3.16333 0
M  V30 8986 N 873.557 1.20646 1.01402 0
M  V30 8987 C 874.467 0.973385 2.13453 0
M  V30 8988 C 875.483 -0.0715865 1.73853 0
M  V30 8989 O 876.659 0.116438 2.01063 0
M  V30 8990 C 873.724 0.531285 3.42605 0
M  V30 8991 C 872.785 1.64741 3.96433 0
M  V30 8992 C 872.018 1.22631 5.1942 0
M  V30 8993 O 872.241 0.0960891 5.70319 0
M  V30 8994 O 871.175 2.03474 5.66465 0
M  V30 8995 H 875.001 1.91164 2.35987 0
M  V30 8996 H 872.586 0.990553 1.11841 0
M  V30 8997 H 874.468 0.294095 4.20373 0
M  V30 8998 H 873.143 -0.378358 3.21481 0
M  V30 8999 H 872.05 1.93891 3.19933 0
M  V30 9000 H 873.383 2.53415 4.2195 0
M  V30 9001 N 875.035 -1.20752 1.01276 0
M  V30 9002 C 875.945 -2.27079 0.589277 0
M  V30 9003 C 876.961 -1.6999 -0.371389 0
M  V30 9004 O 878.137 -2.00044 -0.233294 0
M  V30 9005 C 875.202 -3.4663 -0.0696715 0
M  V30 9006 C 874.263 -4.18962 0.936454 0
M  V30 9007 C 873.496 -5.32806 0.308856 0
M  V30 9008 O 873.719 -5.63376 -0.8924 0
M  V30 9009 O 872.653 -5.93131 1.02367 0
M  V30 9010 H 876.479 -2.6551 1.47438 0
M  V30 9011 H 874.064 -1.27297 0.782045 0
M  V30 9012 H 875.946 -4.19119 -0.437873 0
M  V30 9013 H 874.621 -3.10082 -0.929029 0
M  V30 9014 H 873.528 -3.48661 1.35595 0
M  V30 9015 H 874.861 -4.59441 1.76565 0
M  V30 9016 N 876.513 -0.788492 -1.36457 0
M  V30 9017 C 877.443 -0.200468 -2.32638 0
M  V30 9018 C 878.424 0.664031 -1.56603 0
M  V30 9019 O 879.609 0.598045 -1.84762 0
M  V30 9020 C 876.739 0.666274 -3.40849 0
M  V30 9021 C 875.693 -0.0982574 -4.27887 0
M  V30 9022 C 875.019 0.889018 -5.27258 0
M  V30 9023 C 876.319 -1.28692 -5.06197 0
M  V30 9024 H 878.013 -1.00399 -2.82065 0
M  V30 9025 H 875.559 -0.484237 -1.35614 0
M  V30 9026 H 877.512 1.08757 -4.07124 0
M  V30 9027 H 876.236 1.50249 -2.89987 0
M  V30 9028 H 874.895 -0.500525 -3.63167 0
M  V30 9029 H 874.543 1.72024 -4.7267 0
M  V30 9030 H 874.243 0.381909 -5.86358 0
M  V30 9031 H 875.767 1.30891 -5.96406 0
M  V30 9032 H 877.181 -0.941429 -5.65517 0
M  V30 9033 H 875.578 -1.72726 -5.74705 0
M  V30 9034 H 876.648 -2.08273 -4.37893 0
M  V30 9035 N 877.991 1.48044 -0.54043 0
M  V30 9036 C 879.402 1.86418 -0.102662 0
M  V30 9037 C 879.753 1.4489 1.32293 0
M  V30 9038 O 878.878 0.844319 1.99249 0
M  V30 9039 C 879.473 3.38324 -0.179533 0
M  V30 9040 C 878.032 3.75852 0.203098 0
M  V30 9041 C 877.179 2.72097 -0.534637 0
M  V30 9042 H 880.13 1.398 -0.751103 0
M  V30 9043 H 880.151 3.75641 0.606147 0
M  V30 9044 H 879.663 3.68518 -1.21721 0
M  V30 9045 H 877.764 3.51272 1.24252 0
M  V30 9046 H 877.877 4.78884 -0.143784 0
M  V30 9047 H 876.241 2.54692 0.0203358 0
M  V30 9048 H 877.024 3.05135 -1.57314 0
M  V30 9049 N 879.47 0.276058 1.55163 0
M  V30 9050 C 880.698 -0.343772 2.04024 0
M  V30 9051 C 881.113 -1.49397 1.15438 0
M  V30 9052 O 880.47 -1.81662 0.174692 0
M  V30 9053 C 880.521 -0.823885 3.51986 0
M  V30 9054 O 880.242 0.280507 4.37201 0
M  V30 9055 C 881.743 -1.51143 4.16738 0
M  V30 9056 H 878.963 -0.07828 0.666418 0
M  V30 9057 H 881.507 0.408427 2.0038 0
M  V30 9058 H 879.662 -1.52617 3.56071 0
M  V30 9059 H 880.076 -0.0887831 5.24425 0
M  V30 9060 H 881.55 -1.79878 5.2187 0
M  V30 9061 H 882.027 -2.44327 3.64967 0
M  V30 9062 H 882.633 -0.852975 4.16659 0
M  V30 9063 N 880.948 -1.576 0.00335426 0
M  V30 9064 C 882.196 -1.90336 -0.679446 0
M  V30 9065 C 882.517 -0.877777 -1.74127 0
M  V30 9066 O 881.787 0.0843585 -1.95718 0
M  V30 9067 H 880.367 -0.702509 -0.253948 0
M  V30 9068 H 883.029 -1.94848 0.0450731 0
M  V30 9069 H 882.125 -2.90197 -1.14857 0
M  V30 9070 N 882.426 0.269451 -1.5528 0
M  V30 9071 C 883.374 1.35303 -1.89198 0
M  V30 9072 C 884.368 1.50956 -0.768671 0
M  V30 9073 O 885.574 1.52699 -0.953054 0
M  V30 9074 H 881.949 0.452591 -0.600554 0
M  V30 9075 H 883.92 1.03949 -2.79709 0
M  V30 9076 C 882.669 2.70585 -2.18356 0
M  V30 9077 H 881.992 2.59332 -3.04281 0
M  V30 9078 H 883.432 3.45335 -2.46007 0
M  V30 9079 C 881.891 3.21954 -0.992327 0
M  V30 9080 O 882.421 4.01048 -0.228769 0
M  V30 9081 N 880.627 2.79682 -0.789062 0
M  V30 9082 H 880.174 2.15475 -1.41167 0
M  V30 9083 H 880.132 3.14399 0.00634776 0
M  V30 9084 N 883.904 1.48273 0.534124 0
M  V30 9085 C 884.851 1.62487 1.6391 0
M  V30 9086 C 885.821 0.467062 1.59398 0
M  V30 9087 O 887.006 0.690029 1.77885 0
M  V30 9088 C 884.146 1.66671 3.02183 0
M  V30 9089 C 883.259 2.9353 3.16961 0
M  V30 9090 C 882.394 2.88902 4.45768 0
M  V30 9091 C 881.433 4.10483 4.54059 0
M  V30 9092 N 880.57 4.03956 5.74251 0
M  V30 9093 H 885.41 2.56851 1.51101 0
M  V30 9094 H 882.947 1.27381 0.735704 0
M  V30 9095 H 884.905 1.67079 3.82283 0
M  V30 9096 H 883.535 0.758011 3.13774 0
M  V30 9097 H 882.587 3.02886 2.3014 0
M  V30 9098 H 883.899 3.83501 3.18949 0
M  V30 9099 H 883.053 2.87688 5.34154 0
M  V30 9100 H 881.792 1.96652 4.46295 0
M  V30 9101 H 880.797 4.11977 3.64081 0
M  V30 9102 H 882.022 5.03887 4.55274 0
M  V30 9103 H 879.968 3.14525 5.75682 0
M  V30 9104 H 879.885 4.87628 5.77715 0
M  V30 9105 H 881.153 4.06795 6.64935 0
M  V30 9106 N 885.382 -0.782676 1.36792 0
M  V30 9107 C 886.329 -1.89558 1.31667 0
M  V30 9108 C 887.299 -1.65076 0.184147 0
M  V30 9109 O 888.484 -1.87143 0.371753 0
M  V30 9110 C 885.624 -3.26469 1.11858 0
M  V30 9111 C 884.737 -3.62978 2.34245 0
M  V30 9112 C 883.872 -4.89041 2.07394 0
M  V30 9113 C 882.911 -5.18249 3.25706 0
M  V30 9114 N 882.048 -6.35497 2.98476 0
M  V30 9115 H 886.888 -1.93274 2.26824 0
M  V30 9116 H 884.425 -0.945057 1.12726 0
M  V30 9117 H 886.383 -4.05431 0.983968 0
M  V30 9118 H 885.013 -3.22158 0.203531 0
M  V30 9119 H 884.065 -2.79087 2.58485 0
M  V30 9120 H 885.377 -3.80507 3.22514 0
M  V30 9121 H 884.531 -5.75883 1.90901 0
M  V30 9122 H 883.27 -4.73594 1.16446 0
M  V30 9123 H 882.275 -4.29887 3.4275 0
M  V30 9124 H 883.5 -5.35611 4.1749 0
M  V30 9125 H 881.446 -6.21429 2.10146 0
M  V30 9126 H 881.363 -6.5339 3.80286 0
M  V30 9127 H 882.631 -7.25304 2.85577 0
M  V30 9128 N 886.86 -1.21182 -1.00761 0
M  V30 9129 C 888.271 -1.02652 -1.55947 0
M  V30 9130 C 888.622 0.414466 -1.91772 0
M  V30 9131 O 887.747 1.29727 -1.73204 0
M  V30 9132 C 888.342 -1.85713 -2.83366 0
M  V30 9133 C 886.901 -1.71523 -3.35048 0
M  V30 9134 C 886.048 -1.83087 -2.08265 0
M  V30 9135 H 888.999 -1.35242 -0.830379 0
M  V30 9136 H 889.02 -1.36583 -3.55141 0
M  V30 9137 H 888.532 -2.90584 -2.5726 0
M  V30 9138 H 886.633 -0.693257 -3.66094 0
M  V30 9139 H 886.746 -2.53333 -4.06644 0
M  V30 9140 H 885.11 -1.26367 -2.21141 0
M  V30 9141 H 885.893 -2.8946 -1.84575 0
M  V30 9142 N 888.338 1.20213 -1.01915 0
M  V30 9143 C 889.749 1.7136 -0.741131 0
M  V30 9144 C 890.1 1.81705 0.740107 0
M  V30 9145 O 889.225 1.48139 1.57746 0
M  V30 9146 C 889.82 3.11231 -1.33869 0
M  V30 9147 C 888.379 3.59677 -1.10948 0
M  V30 9148 C 887.526 2.36809 -1.4428 0
M  V30 9149 H 890.477 1.05191 -1.1883 0
M  V30 9150 H 890.498 3.7342 -0.730585 0
M  V30 9151 H 890.01 3.03669 -2.41675 0
M  V30 9152 H 888.111 3.72568 -0.0492052 0
M  V30 9153 H 888.224 4.44351 -1.79134 0
M  V30 9154 H 886.588 2.39674 -0.861881 0
M  V30 9155 H 887.371 2.31886 -2.53148 0
M  V30 9156 N 889.816 0.795718 1.36037 0
M  V30 9157 C 891.064 0.370291 1.98679 0
M  V30 9158 C 891.385 -1.06332 1.63458 0
M  V30 9159 O 890.655 -1.73394 0.911671 0
M  V30 9160 H 889.235 0.133928 0.734896 0
M  V30 9161 H 891.897 1.01915 1.6613 0
M  V30 9162 H 890.993 0.467207 3.08583 0
M  V30 9163 N 891.294 -1.47756 0.548274 0
M  V30 9164 C 892.541 -2.02489 0.0208955 0
M  V30 9165 C 892.869 -1.42356 -1.32533 0
M  V30 9166 O 892.124 -0.565448 -1.87353 0
M  V30 9167 C 892.423 -3.5716 -0.131069 0
M  V30 9168 C 892.089 -4.36169 1.14313 0
M  V30 9169 C 890.751 -4.57476 1.4923 0
M  V30 9170 C 893.103 -4.81801 1.9879 0
M  V30 9171 C 890.431 -5.21662 2.68487 0
M  V30 9172 C 892.783 -5.47303 3.17242 0
M  V30 9173 C 891.447 -5.66844 3.52483 0
M  V30 9174 H 890.717 -0.740961 0.00764621 0
M  V30 9175 H 893.364 -1.77531 0.717987 0
M  V30 9176 H 891.669 -3.8106 -0.911063 0
M  V30 9177 H 893.366 -3.9715 -0.55433 0
M  V30 9178 H 889.956 -4.19858 0.861235 0
M  V30 9179 H 894.14 -4.65126 1.73123 0
M  V30 9180 H 889.396 -5.34987 2.95971 0
M  V30 9181 H 893.57 -5.81626 3.82994 0
M  V30 9182 H 891.197 -6.16352 4.44988 0
M  V30 9183 N 892.772 -0.284283 -1.55015 0
M  V30 9184 C 893.702 0.592663 -2.25853 0
M  V30 9185 C 894.683 1.15151 -1.25197 0
M  V30 9186 O 895.868 1.18395 -1.53936 0
M  V30 9187 C 892.998 1.77254 -2.98661 0
M  V30 9188 C 891.952 1.34482 -4.06323 0
M  V30 9189 C 891.278 2.60853 -4.66754 0
M  V30 9190 C 892.578 0.488288 -5.20013 0
M  V30 9191 H 894.272 0.00187041 -2.994 0
M  V30 9192 H 891.818 -0.000540402 -1.44 0
M  V30 9193 H 893.771 2.39199 -3.46932 0
M  V30 9194 H 892.495 2.38931 -2.22664 0
M  V30 9195 H 891.154 0.748519 -3.58877 0
M  V30 9196 H 890.802 3.20808 -3.87416 0
M  V30 9197 H 890.502 2.32942 -5.39455 0
M  V30 9198 H 892.026 3.23631 -5.1778 0
M  V30 9199 H 893.44 1.01298 -5.6428 0
M  V30 9200 H 891.837 0.303669 -5.99331 0
M  V30 9201 H 892.907 -0.490727 -4.8241 0
M  V30 9202 N 894.251 1.57596 -0.0117121 0
M  V30 9203 C 895.662 1.79033 0.529521 0
M  V30 9204 C 896.013 0.920299 1.73277 0
M  V30 9205 O 895.138 0.125934 2.16033 0
M  V30 9206 C 895.733 3.24695 0.967405 0
M  V30 9207 C 894.292 3.47188 1.45387 0
M  V30 9208 C 893.439 2.74245 0.410466 0
M  V30 9209 H 896.39 1.56908 -0.237836 0
M  V30 9210 H 896.411 3.33451 1.83278 0
M  V30 9211 H 895.923 3.87992 0.0914605 0
M  V30 9212 H 894.024 2.89121 2.35032 0
M  V30 9213 H 894.137 4.55886 1.47325 0
M  V30 9214 H 892.501 2.39209 0.874721 0
M  V30 9215 H 893.284 3.40248 -0.456713 0
M  V30 9216 N 895.729 -0.261212 1.5542 0
M  V30 9217 C 896.957 -1.00916 1.8062 0
M  V30 9218 C 897.372 -1.79494 0.585444 0
M  V30 9219 O 896.729 -1.76974 -0.445702 0
M  V30 9220 C 896.78 -1.95841 3.03856 0
M  V30 9221 O 896.501 -1.20445 4.21218 0
M  V30 9222 C 898.002 -2.82352 3.41749 0
M  V30 9223 H 895.222 -0.297596 0.601397 0
M  V30 9224 H 897.766 -0.288427 2.02456 0
M  V30 9225 H 895.921 -2.63361 2.84112 0
M  V30 9226 H 896.335 -1.84528 4.90968 0
M  V30 9227 H 897.809 -3.44733 4.31118 0
M  V30 9228 H 898.286 -3.5273 2.61683 0
M  V30 9229 H 898.892 -2.20306 3.63793 0
M  V30 9230 N 897.207 -1.48554 -0.526253 0
M  V30 9231 C 898.155 -1.63804 -1.65139 0
M  V30 9232 C 899.149 -0.504398 -1.61716 0
M  V30 9233 O 900.355 -0.683241 -1.66529 0
M  V30 9234 H 896.73 -0.516071 -0.546969 0
M  V30 9235 H 898.701 -2.58294 -1.49421 0
M  V30 9236 C 897.45 -1.69843 -3.03395 0
M  V30 9237 H 896.773 -2.56438 -3.06724 0
M  V30 9238 H 898.213 -1.84555 -3.81727 0
M  V30 9239 C 896.672 -0.437875 -3.34042 0
M  V30 9240 O 897.202 0.447604 -3.99198 0
M  V30 9241 N 895.408 -0.308444 -2.88958 0
M  V30 9242 H 894.955 -1.02998 -2.36112 0
M  V30 9243 H 894.913 0.533952 -3.09833 0
M  V30 9244 N 898.685 0.775411 -1.37205 0
M  V30 9245 C 899.595 1.91967 -1.34855 0
M  V30 9246 C 900.611 1.72214 -0.248656 0
M  V30 9247 O 901.787 1.95512 -0.483421 0
M  V30 9248 C 898.852 3.27038 -1.15096 0
M  V30 9249 C 897.913 3.5947 -2.34691 0
M  V30 9250 C 897.146 4.88097 -2.15865 0
M  V30 9251 O 897.369 5.58871 -1.14102 0
M  V30 9252 O 896.303 5.19507 -3.03967 0
M  V30 9253 H 900.129 1.969 -2.31223 0
M  V30 9254 H 897.714 0.917647 -1.17897 0
M  V30 9255 H 899.596 4.07837 -1.0605 0
M  V30 9256 H 898.271 3.22965 -0.217999 0
M  V30 9257 H 897.178 2.7892 -2.49308 0
M  V30 9258 H 898.511 3.68282 -3.26541 0
M  V30 9259 N 900.163 1.21714 1.00117 0
M  V30 9260 C 901.44 0.945391 1.71236 0
M  V30 9261 C 901.82 -0.541772 2.0403 0
M  V30 9262 O 901.168 -1.50763 1.71705 0
M  V30 9263 C 901.378 1.83444 2.96899 0
M  V30 9264 C 902.726 2.08558 3.69849 0
M  V30 9265 O 903.75 1.80824 3.06889 0
M  V30 9266 O 902.609 2.55485 4.83104 0
M  V30 9267 H 899.703 0.354834 0.747009 0
M  V30 9268 H 902.249 1.32661 1.05825 0
M  V30 9269 H 901.021 2.84075 2.69105 0
M  V30 9270 H 900.644 1.45428 3.70049 0
M  V30 9271 N 901.641 -1.19671 1.02551 0
M  V30 9272 C 903.057 -1.41305 0.741963 0
M  V30 9273 C 903.257 -1.89865 -0.674807 0
M  V30 9274 O 902.313 -2.07323 -1.44129 0
M  V30 9275 C 903.626 -2.42706 1.77522 0
M  V30 9276 C 905.174 -2.56458 1.79438 0
M  V30 9277 C 905.649 -3.61111 2.81715 0
M  V30 9278 N 907.14 -3.68603 2.8051 0
M  V30 9279 C 907.875 -4.49262 3.56302 0
M  V30 9280 N 907.371 -5.33653 4.41799 0
M  V30 9281 N 909.164 -4.43879 3.44859 0
M  V30 9282 H 901.315 -0.8647 1.94002 0
M  V30 9283 H 903.578 -0.442206 0.838545 0
M  V30 9284 H 903.284 -2.14042 2.79068 0
M  V30 9285 H 903.158 -3.41831 1.59472 0
M  V30 9286 H 905.545 -2.84447 0.78573 0
M  V30 9287 H 905.626 -1.57499 2.01563 0
M  V30 9288 H 905.27 -3.33864 3.82749 0
M  V30 9289 H 905.2 -4.59713 2.56849 0
M  V30 9290 H 907.691 -3.08329 2.18498 0
M  V30 9291 H 908.004 -5.92308 4.96378 0
M  V30 9292 H 906.349 -5.33125 4.45873 0
M  V30 9293 H 909.54 -3.7699 2.77482 0
M  V30 9294 H 909.713 -5.06501 4.04179 0
M  V30 9295 N 903.119 -0.802921 -1.35613 0
M  V30 9296 C 904.049 -0.225131 -2.32412 0
M  V30 9297 C 905.03 0.647383 -1.57299 0
M  V30 9298 O 906.215 0.578414 -1.85386 0
M  V30 9299 C 903.345 0.630085 -3.41537 0
M  V30 9300 C 902.299 -0.143635 -4.27759 0
M  V30 9301 C 901.625 0.833046 -5.28171 0
M  V30 9302 C 902.925 -1.34054 -5.04804 0
M  V30 9303 H 904.619 -1.03385 -2.80984 0
M  V30 9304 H 902.165 -0.498593 -1.35093 0
M  V30 9305 H 904.118 1.04433 -4.08254 0
M  V30 9306 H 902.842 1.47165 -2.91565 0
M  V30 9307 H 901.501 -0.539015 -3.62616 0
M  V30 9308 H 901.149 1.67001 -4.74468 0
M  V30 9309 H 900.849 0.319697 -5.8673 0
M  V30 9310 H 902.373 1.24558 -5.97761 0
M  V30 9311 H 903.787 -1.00136 -5.64487 0
M  V30 9312 H 902.184 -1.78812 -5.72841 0
M  V30 9313 H 903.254 -2.12906 -4.35659 0
M  V30 9314 N 904.597 1.47463 -0.556102 0
M  V30 9315 C 905.844 2.02475 -0.0316337 0
M  V30 9316 C 906.172 1.43057 1.31777 0
M  V30 9317 O 905.427 0.575376 1.87051 0
M  V30 9318 C 905.726 3.57224 0.112126 0
M  V30 9319 C 905.392 4.35557 -1.16624 0
M  V30 9320 C 904.054 4.56678 -1.51654 0
M  V30 9321 C 906.406 4.8074 -2.01342 0
M  V30 9322 C 903.734 5.20231 -2.7125 0
M  V30 9323 C 906.086 5.45613 -3.2014 0
M  V30 9324 C 904.75 5.64967 -3.55484 0
M  V30 9325 H 904.02 0.74091 -0.0115756 0
M  V30 9326 H 906.667 1.77148 -0.727392 0
M  V30 9327 H 904.972 3.81538 0.890842 0
M  V30 9328 H 906.669 3.97438 0.533261 0
M  V30 9329 H 903.259 4.19395 -0.883489 0
M  V30 9330 H 907.443 4.64201 -1.75587 0
M  V30 9331 H 902.699 5.3341 -2.98804 0
M  V30 9332 H 906.873 5.79587 -3.86073 0
M  V30 9333 H 904.5 6.13984 -4.4825 0
M  V30 9334 N 906.075 0.2925 1.54862 0
M  V30 9335 C 907.322 -0.319263 1.99967 0
M  V30 9336 C 907.65 -1.54547 1.18092 0
M  V30 9337 O 906.905 -1.94186 0.242969 0
M  V30 9338 C 907.204 -0.728674 3.49893 0
M  V30 9339 C 906.87 0.394836 4.49168 0
M  V30 9340 C 905.532 0.703289 4.76033 0
M  V30 9341 C 907.884 1.15103 5.08331 0
M  V30 9342 C 905.212 1.77121 5.59325 0
M  V30 9343 C 907.564 2.20881 5.92785 0
M  V30 9344 C 906.228 2.52342 6.17964 0
M  V30 9345 H 905.498 -0.116827 0.731733 0
M  V30 9346 H 908.145 0.40983 1.87063 0
M  V30 9347 H 906.45 -1.53772 3.60363 0
M  V30 9348 H 908.147 -1.21305 3.82212 0
M  V30 9349 H 904.737 0.144319 4.28357 0
M  V30 9350 H 908.921 0.92599 4.87585 0
M  V30 9351 H 904.177 2.01978 5.77074 0
M  V30 9352 H 908.351 2.79939 6.37657 0
M  V30 9353 H 905.978 3.35225 6.82296 0
M  V30 9354 N 907.553 -1.57587 0.0200696 0
M  V30 9355 C 908.483 -2.12702 -0.963333 0
M  V30 9356 C 909.464 -1.04094 -1.34531 0
M  V30 9357 O 910.649 -1.31881 -1.42552 0
M  V30 9358 C 907.779 -2.64673 -2.24868 0
M  V30 9359 C 906.733 -3.77987 -2.00772 0
M  V30 9360 C 906.059 -4.16351 -3.35494 0
M  V30 9361 C 907.359 -5.0444 -1.35416 0
M  V30 9362 H 909.053 -2.95121 -0.504363 0
M  V30 9363 H 906.599 -1.41966 -0.24116 0
M  V30 9364 H 908.552 -3.01862 -2.94036 0
M  V30 9365 H 907.276 -1.79403 -2.72914 0
M  V30 9366 H 905.935 -3.41223 -1.34025 0
M  V30 9367 H 905.583 -3.28075 -3.81282 0
M  V30 9368 H 905.283 -4.92705 -3.20181 0
M  V30 9369 H 906.807 -4.56115 -4.05945 0
M  V30 9370 H 908.221 -5.39273 -1.94571 0
M  V30 9371 H 906.618 -5.85732 -1.30529 0
M  V30 9372 H 907.688 -4.83803 -0.325923 0
M  V30 9373 N 909.032 0.252966 -1.55557 0
M  V30 9374 C 910.28 0.979912 -1.76754 0
M  V30 9375 C 910.601 1.86083 -0.582944 0
M  V30 9376 O 909.871 1.91742 0.401497 0
M  V30 9377 H 908.451 0.364805 -0.651864 0
M  V30 9378 H 911.113 0.272372 -1.92987 0
M  V30 9379 H 910.209 1.60518 -2.67657 0
M  V30 9380 N 910.51 1.48831 0.518367 0
M  V30 9381 C 911.442 1.60317 1.63802 0
M  V30 9382 C 912.455 0.486771 1.55352 0
M  V30 9383 O 913.644 0.758111 1.61601 0
M  V30 9384 C 910.744 1.52771 3.02513 0
M  V30 9385 C 909.917 2.79649 3.36326 0
M  V30 9386 C 908.976 2.65396 4.54369 0
M  V30 9387 O 908.002 3.39304 4.57013 0
M  V30 9388 N 909.204 1.75784 5.53245 0
M  V30 9389 H 911.969 2.56878 1.54383 0
M  V30 9390 H 909.53 1.45701 0.705889 0
M  V30 9391 H 911.522 1.40914 3.79375 0
M  V30 9392 H 910.092 0.641381 3.05949 0
M  V30 9393 H 909.312 3.05985 2.48529 0
M  V30 9394 H 910.6 3.63799 3.55707 0
M  V30 9395 H 909.998 1.14961 5.53896 0
M  V30 9396 H 908.555 1.69859 6.29278 0
M  V30 9397 N 911.988 -0.768124 1.37614 0
M  V30 9398 C 912.935 -1.88151 1.33671 0
M  V30 9399 C 913.905 -1.64871 0.201645 0
M  V30 9400 O 915.09 -1.86739 0.391582 0
M  V30 9401 C 912.23 -3.25264 1.15314 0
M  V30 9402 C 911.343 -3.60473 2.38082 0
M  V30 9403 C 910.478 -4.86814 2.12569 0
M  V30 9404 C 909.517 -5.14765 3.31184 0
M  V30 9405 N 908.654 -6.32295 3.052 0
M  V30 9406 H 913.494 -1.90857 2.28862 0
M  V30 9407 H 911.031 -0.933048 1.13722 0
M  V30 9408 H 912.989 -4.04364 1.02691 0
M  V30 9409 H 911.619 -3.21924 0.237689 0
M  V30 9410 H 910.671 -2.7633 2.61431 0
M  V30 9411 H 911.983 -3.77065 3.26532 0
M  V30 9412 H 911.137 -5.73826 1.96999 0
M  V30 9413 H 909.876 -4.72333 1.21462 0
M  V30 9414 H 908.881 -4.26227 3.4729 0
M  V30 9415 H 910.106 -5.31153 4.23147 0
M  V30 9416 H 908.052 -6.19166 2.16726 0
M  V30 9417 H 907.969 -6.4932 3.87195 0
M  V30 9418 H 909.237 -7.22234 2.93254 0
M  V30 9419 N 913.466 -1.22244 -0.994698 0
M  V30 9420 C 914.376 -1.00722 -2.11878 0
M  V30 9421 C 915.392 0.043919 -1.73945 0
M  V30 9422 O 916.568 -0.148411 -2.00852 0
M  V30 9423 C 913.633 -0.585723 -3.41717 0
M  V30 9424 C 912.694 -1.71027 -3.93762 0
M  V30 9425 C 911.927 -1.30879 -5.17403 0
M  V30 9426 O 912.15 -0.18681 -5.70094 0
M  V30 9427 O 911.084 -2.1246 -5.63156 0
M  V30 9428 H 914.91 -1.94894 -2.32916 0
M  V30 9429 H 912.495 -1.00822 -1.10251 0
M  V30 9430 H 914.377 -0.360935 -4.19851 0
M  V30 9431 H 913.052 0.327166 -3.22042 0
M  V30 9432 H 911.959 -1.98956 -3.16808 0
M  V30 9433 H 913.292 -2.60096 -4.17865 0
M  V30 9434 N 914.944 1.19125 -1.03184 0
M  V30 9435 C 915.874 2.24675 -0.635889 0
M  V30 9436 C 916.855 1.66321 0.356565 0
M  V30 9437 O 918.04 1.92728 0.238625 0
M  V30 9438 C 915.17 3.47298 0.011069 0
M  V30 9439 C 914.124 4.18345 -0.903979 0
M  V30 9440 C 913.45 5.34561 -0.12197 0
M  V30 9441 C 914.75 4.72816 -2.21907 0
M  V30 9442 H 916.444 2.5805 -1.51825 0
M  V30 9443 H 913.99 1.24039 -0.73146 0
M  V30 9444 H 915.943 4.20333 0.299729 0
M  V30 9445 H 914.667 3.13131 0.928245 0
M  V30 9446 H 913.326 3.47196 -1.17688 0
M  V30 9447 H 912.974 4.9664 0.797334 0
M  V30 9448 H 912.674 5.83029 -0.731498 0
M  V30 9449 H 914.198 6.10391 0.159881 0
M  V30 9450 H 915.612 5.3759 -1.99173 0
M  V30 9451 H 914.009 5.31782 -2.78078 0
M  V30 9452 H 915.079 3.9072 -2.87168 0
M  V30 9453 N 916.422 0.810101 1.35185 0
M  V30 9454 C 917.332 0.224565 2.33523 0
M  V30 9455 C 918.348 -0.634287 1.62027 0
M  V30 9456 O 919.524 -0.545211 1.9388 0
M  V30 9457 C 916.589 -0.614319 3.41214 0
M  V30 9458 C 915.65 0.265435 4.28479 0
M  V30 9459 C 914.883 -0.533506 5.31027 0
M  V30 9460 O 915.106 -1.7679 5.42311 0
M  V30 9461 O 914.04 0.0774573 6.0185 0
M  V30 9462 H 917.866 1.03815 2.85405 0
M  V30 9463 H 915.451 0.571964 1.38018 0
M  V30 9464 H 917.333 -1.09201 4.07005 0
M  V30 9465 H 916.008 -1.40545 2.91597 0
M  V30 9466 H 914.915 0.790343 3.65656 0
M  V30 9467 H 916.248 1.0206 4.81503 0
M  V30 9468 N 917.9 -1.47166 0.563914 0
M  V30 9469 C 919.148 -2.02056 0.0422873 0
M  V30 9470 C 919.469 -1.43992 -1.31497 0
M  V30 9471 O 918.739 -0.617578 -1.85911 0
M  V30 9472 H 917.319 -0.746893 0.0126427 0
M  V30 9473 H 919.981 -1.80492 0.735441 0
M  V30 9474 H 919.077 -3.12073 -0.0408044 0
M  V30 9475 N 919.378 -0.300708 -1.54705 0
M  V30 9476 C 920.341 0.562648 -2.22187 0
M  V30 9477 C 921.341 1.06152 -1.20782 0
M  V30 9478 O 922.531 0.957596 -1.45519 0
M  V30 9479 C 919.663 1.77899 -2.908 0
M  V30 9480 H 920.856 -0.0269361 -2.99888 0
M  V30 9481 H 918.409 -0.0515412 -1.56215 0
M  V30 9482 H 919.144 2.40841 -2.17177 0
M  V30 9483 H 918.929 1.42892 -3.65136 0
M  V30 9484 H 920.419 2.39236 -3.42281 0
M  V30 9485 N 920.856 1.57574 -0.0284266 0
M  V30 9486 C 922.104 1.91393 0.649079 0
M  V30 9487 C 922.425 0.905368 1.72708 0
M  V30 9488 O 921.695 -0.0532107 1.95828 0
M  V30 9489 H 920.275 0.70646 0.24274 0
M  V30 9490 H 922.937 1.94752 -0.076066 0
M  V30 9491 H 922.033 2.91988 1.10226 0
M  V30 9492 N 922.334 -0.244713 1.55689 0
M  V30 9493 C 923.559 -0.994157 1.8202 0
M  V30 9494 C 923.984 -1.78079 0.60577 0
M  V30 9495 O 923.342 -1.75748 -0.445221 0
M  V30 9496 C 923.39 -1.90599 3.06111 0
M  V30 9497 O 922.494 -2.99804 2.8318 0
M  V30 9498 H 921.835 -0.282767 0.600782 0
M  V30 9499 H 924.365 -0.26504 2.02876 0
M  V30 9500 H 924.375 -2.32023 3.35603 0
M  V30 9501 H 923.05 -1.32763 3.9414 0
M  V30 9502 H 921.627 -2.62493 2.64862 0
M  V30 9503 N 923.813 -1.49104 -0.510467 0
M  V30 9504 C 925.059 -1.59322 -1.26444 0
M  V30 9505 C 925.414 -0.27219 -1.90465 0
M  V30 9506 O 924.707 0.726762 -1.77281 0
M  V30 9507 C 924.901 -2.68259 -2.36161 0
M  V30 9508 C 924.73 -4.10827 -1.82897 0
M  V30 9509 C 923.5 -4.77732 -1.64623 0
M  V30 9510 C 925.698 -4.96367 -1.34625 0
M  V30 9511 N 923.68 -6.04646 -1.06189 0
M  V30 9512 C 925.051 -6.13685 -0.882656 0
M  V30 9513 C 927.106 -4.8244 -1.2311 0
M  V30 9514 C 925.809 -7.18609 -0.315306 0
M  V30 9515 C 927.835 -5.87504 -0.677726 0
M  V30 9516 C 927.197 -7.04043 -0.224308 0
M  V30 9517 H 923.296 -0.637429 -0.453 0
M  V30 9518 H 925.88 -1.8607 -0.573237 0
M  V30 9519 H 924.051 -2.433 -3.02753 0
M  V30 9520 H 925.783 -2.68052 -3.032 0
M  V30 9521 H 922.538 -4.34377 -1.88716 0
M  V30 9522 H 922.962 -6.72383 -0.78927 0
M  V30 9523 H 927.604 -3.92663 -1.56766 0
M  V30 9524 H 925.322 -8.08093 0.0335425 0
M  V30 9525 H 928.908 -5.78785 -0.591535 0
M  V30 9526 H 927.788 -7.83952 0.197212 0
M  V30 9527 N 925.291 0.760815 -1.38019 0
M  V30 9528 C 926.519 1.55001 -1.37048 0
M  V30 9529 C 926.934 1.88754 0.0415261 0
M  V30 9530 O 926.291 1.52254 1.00624 0
M  V30 9531 C 926.342 2.8536 -2.21928 0
M  V30 9532 O 926.063 2.53049 -3.57628 0
M  V30 9533 C 927.564 3.79536 -2.29057 0
M  V30 9534 H 924.784 0.479844 -0.469032 0
M  V30 9535 H 927.328 0.942148 -1.81504 0
M  V30 9536 H 925.483 3.42542 -1.80953 0
M  V30 9537 H 925.897 3.36604 -4.02241 0
M  V30 9538 H 927.371 4.67977 -2.92749 0
M  V30 9539 H 927.848 4.19453 -1.30213 0
M  V30 9540 H 928.454 3.28281 -2.70392 0
M  V30 9541 N 926.769 1.22769 0.988202 0
M  V30 9542 C 928.18 1.0512 1.54294 0
M  V30 9543 C 928.531 -0.383904 1.92407 0
M  V30 9544 O 927.656 -1.26955 1.75246 0
M  V30 9545 C 928.251 1.90198 2.80375 0
M  V30 9546 C 926.81 1.76831 3.32276 0
M  V30 9547 C 925.957 1.86377 2.05326 0
M  V30 9548 H 928.908 1.36546 0.808758 0
M  V30 9549 H 928.929 1.42216 3.52923 0
M  V30 9550 H 928.441 2.9464 2.52605 0
M  V30 9551 H 926.542 0.751412 3.64945 0
M  V30 9552 H 926.655 2.59771 4.02562 0
M  V30 9553 H 925.019 1.2987 2.19103 0
M  V30 9554 H 925.802 2.9236 1.79946 0
M  V30 9555 N 928.247 -1.18576 1.03814 0
M  V30 9556 C 929.487 -1.90187 0.748882 0
M  V30 9557 C 929.851 -1.78383 -0.710177 0
M  V30 9558 O 931.052 -2.44678 -1.11293 0
M  V30 9559 C 929.323 -3.36688 1.19901 0
M  V30 9560 S 930.882 -4.26419 1.03501 0
M  V30 9561 H 927.7 -0.656765 0.272362 0
M  V30 9562 H 930.302 -1.43296 1.32991 0
M  V30 9563 H 929.006 -3.42808 2.25635 0
M  V30 9564 H 928.537 -3.88616 0.611669 0
M  V30 9565 H 930.552 -4.96176 -0.0490431 0
M  V30 9566 N 929.725 -0.817259 -1.34754 0
M  V30 9567 C 930.971 -0.403244 -1.98751 0
M  V30 9568 C 931.304 1.02963 -1.64658 0
M  V30 9569 O 930.579 1.71617 -0.915314 0
M  V30 9570 C 930.862 -0.599188 -3.5508 0
M  V30 9571 C 930.715 -2.07777 -3.98934 0
M  V30 9572 C 932.034 -0.0315656 -4.40089 0
M  V30 9573 H 929.153 -0.147988 -0.721989 0
M  V30 9574 H 931.795 -1.02877 -1.59738 0
M  V30 9575 H 929.945 -0.0667116 -3.88443 0
M  V30 9576 H 931.617 -2.67345 -3.75931 0
M  V30 9577 H 929.86 -2.57031 -3.49453 0
M  V30 9578 H 930.531 -2.16571 -5.07741 0
M  V30 9579 H 933.007 -0.48644 -4.13247 0
M  V30 9580 H 931.883 -0.198507 -5.48541 0
M  V30 9581 H 932.144 1.06302 -4.2913 0
M  V30 9582 N 931.203 1.46865 -0.571711 0
M  V30 9583 C 932.451 2.0203 -0.0530022 0
M  V30 9584 C 932.772 1.44687 1.30731 0
M  V30 9585 O 932.042 0.627429 1.85581 0
M  V30 9586 H 930.622 0.746815 -0.0166035 0
M  V30 9587 H 933.284 1.80099 -0.745003 0
M  V30 9588 H 932.38 3.12091 0.0242538 0
M  V30 9589 N 932.681 0.308908 1.54543 0
M  V30 9590 C 933.631 -0.578902 2.20528 0
M  V30 9591 C 934.615 -1.09288 1.18088 0
M  V30 9592 O 935.807 -1.03234 1.43777 0
M  V30 9593 C 932.936 -1.74649 2.95555 0
M  V30 9594 C 932.022 -1.24809 4.05319 0
M  V30 9595 N 932.413 -0.46828 5.03628 0
M  V30 9596 C 930.711 -1.52813 4.19004 0
M  V30 9597 C 931.412 -0.201896 5.8135 0
M  V30 9598 N 930.388 -0.783927 5.37918 0
M  V30 9599 H 934.19 0.0243496 2.9389 0
M  V30 9600 H 931.704 0.114049 1.61999 0
M  V30 9601 H 933.701 -2.39414 3.41301 0
M  V30 9602 H 932.361 -2.35336 2.23712 0
M  V30 9603 H 933.372 -0.112453 5.17778 0
M  V30 9604 H 930.049 -2.14191 3.58369 0
M  V30 9605 H 931.439 0.424929 6.70555 0
M  V30 9606 N 934.159 -1.57557 0.0367827 0
M  V30 9607 C 935.436 -1.83427 -0.679261 0
M  V30 9608 C 935.816 -0.922274 -1.89888 0
M  V30 9609 O 935.164 0.02025 -2.28491 0
M  V30 9610 C 935.374 -3.32823 -1.05022 0
M  V30 9611 C 936.722 -3.99486 -1.43861 0
M  V30 9612 O 937.746 -3.37364 -1.14297 0
M  V30 9613 O 936.605 -5.0899 -1.98977 0
M  V30 9614 H 933.699 -0.756581 -0.333936 0
M  V30 9615 H 936.245 -1.69575 0.0650494 0
M  V30 9616 H 935.017 -3.90874 -0.182509 0
M  V30 9617 H 934.64 -3.5181 -1.85244 0
M  V30 9618 N 935.637 0.236453 -1.55816 0
M  V30 9619 C 936.885 0.96111 -1.77784 0
M  V30 9620 C 937.206 1.85454 -0.602648 0
M  V30 9621 O 936.476 1.92157 0.381137 0
M  V30 9622 H 935.056 0.35787 -0.655697 0
M  V30 9623 H 937.718 0.251888 -1.93265 0
M  V30 9624 H 936.814 1.5767 -2.69345 0
M  V30 9625 N 937.115 1.49373 0.502552 0
M  V30 9626 C 938.363 1.58467 1.25429 0
M  V30 9627 C 938.684 0.272593 1.93085 0
M  V30 9628 O 937.954 -0.707947 1.82661 0
M  V30 9629 H 936.534 0.583866 0.46595 0
M  V30 9630 H 939.196 1.8599 0.582568 0
M  V30 9631 H 938.292 2.37993 2.01906 0
M  V30 9632 N 938.594 -0.753485 1.38421 0
M  V30 9633 C 940.01 -1.05656 1.1962 0
M  V30 9634 C 940.21 -2.0145 0.0449443 0
M  V30 9635 O 939.266 -2.45039 -0.609253 0
M  V30 9636 C 940.579 -1.63655 2.52265 0
M  V30 9637 C 942.127 -1.75825 2.58949 0
M  V30 9638 C 942.602 -2.37236 3.91769 0
M  V30 9639 N 944.093 -2.44666 3.9331 0
M  V30 9640 C 944.828 -2.93077 4.92842 0
M  V30 9641 N 944.324 -3.41523 6.02772 0
M  V30 9642 N 946.117 -2.92118 4.80232 0
M  V30 9643 H 938.268 -0.117799 2.12073 0
M  V30 9644 H 940.531 -0.114889 0.941012 0
M  V30 9645 H 940.237 -1.00734 3.36965 0
M  V30 9646 H 940.111 -2.62715 2.70667 0
M  V30 9647 H 942.498 -2.37873 1.74644 0
M  V30 9648 H 942.579 -0.754693 2.44414 0
M  V30 9649 H 942.223 -1.75822 4.76497 0
M  V30 9650 H 942.153 -3.38233 4.03616 0
M  V30 9651 H 944.644 -2.10403 3.1391 0
M  V30 9652 H 944.957 -3.76919 6.74649 0
M  V30 9653 H 943.302 -3.3958 6.06391 0
M  V30 9654 H 946.493 -2.53582 3.93464 0
M  V30 9655 H 946.666 -3.29535 5.57952 0
M  V30 9656 N 940.072 -1.23292 -0.981677 0
M  V30 9657 C 941.349 -0.972514 -1.6971 0
M  V30 9658 C 941.729 0.509244 -2.04866 0
M  V30 9659 O 941.077 1.48013 -1.74082 0
M  V30 9660 C 941.287 -1.88144 -2.93943 0
M  V30 9661 C 942.635 -2.14416 -3.66485 0
M  V30 9662 O 943.659 -1.85684 -3.03974 0
M  V30 9663 O 942.518 -2.63139 -4.78978 0
M  V30 9664 H 939.612 -0.366673 -0.741269 0
M  V30 9665 H 942.158 -1.34328 -1.03701 0
M  V30 9666 H 940.93 -2.8832 -2.64551 0
M  V30 9667 H 940.553 -1.51296 -3.67689 0
M  V30 9668 N 941.55 1.18024 -1.04442 0
M  V30 9669 C 942.482 2.21294 -0.596799 0
M  V30 9670 C 943.495 1.59305 0.33552 0
M  V30 9671 O 944.684 1.7803 0.129443 0
M  V30 9672 C 941.784 3.38578 0.147648 0
M  V30 9673 C 940.957 4.30143 -0.793484 0
M  V30 9674 C 940.016 5.2612 -0.0916561 0
M  V30 9675 O 939.042 5.64586 -0.72331 0
M  V30 9676 N 940.244 5.68512 1.17364 0
M  V30 9677 H 943.009 2.6032 -1.48504 0
M  V30 9678 H 940.57 1.32847 -0.925374 0
M  V30 9679 H 942.562 3.99812 0.627098 0
M  V30 9680 H 941.132 2.98212 0.937466 0
M  V30 9681 H 940.352 3.66456 -1.45272 0
M  V30 9682 H 941.64 4.88216 -1.43258 0
M  V30 9683 H 941.038 5.39322 1.70729 0
M  V30 9684 H 939.595 6.31925 1.5973 0
M  V30 9685 N 943.028 0.824394 1.34319 0
M  V30 9686 C 943.96 0.204805 2.28283 0
M  V30 9687 C 944.973 -0.606162 1.51094 0
M  V30 9688 O 946.162 -0.435602 1.73103 0
M  V30 9689 C 943.262 -0.73139 3.30914 0
M  V30 9690 C 942.435 0.0370723 4.37384 0
M  V30 9691 C 941.494 -0.820272 5.19767 0
M  V30 9692 O 940.52 -0.264721 5.68584 0
M  V30 9693 N 941.722 -2.13984 5.39621 0
M  V30 9694 H 944.487 1.0121 2.82093 0
M  V30 9695 H 942.048 0.681494 1.46858 0
M  V30 9696 H 944.04 -1.30958 3.82926 0
M  V30 9697 H 942.61 -1.43943 2.77487 0
M  V30 9698 H 941.83 0.796578 3.86068 0
M  V30 9699 H 943.118 0.566014 5.05642 0
M  V30 9700 H 942.516 -2.61492 5.01636 0
M  V30 9701 H 941.073 -2.66685 5.94746 0
M  V30 9702 N 944.506 -1.46559 0.579492 0
M  V30 9703 C 945.416 -2.34066 -0.15816 0
M  V30 9704 C 946.432 -1.49556 -0.88932 0
M  V30 9705 O 947.608 -1.82434 -0.853226 0
M  V30 9706 C 944.673 -3.26683 -1.161 0
M  V30 9707 C 943.734 -4.27092 -0.434855 0
M  V30 9708 C 942.967 -5.15283 -1.38992 0
M  V30 9709 O 943.19 -5.06345 -2.62623 0
M  V30 9710 O 942.124 -5.95099 -0.902253 0
M  V30 9711 H 945.95 -2.98488 0.560234 0
M  V30 9712 H 943.535 -1.45482 0.339918 0
M  V30 9713 H 945.417 -3.8383 -1.73932 0
M  V30 9714 H 944.092 -2.64862 -1.86091 0
M  V30 9715 H 942.999 -3.73641 0.185224 0
M  V30 9716 H 944.332 -4.9169 0.224031 0
M  V30 9717 N 945.984 -0.3171 -1.54377 0
M  V30 9718 C 947.212 0.289558 -2.04864 0
M  V30 9719 C 947.627 1.46284 -1.19359 0
M  V30 9720 O 946.984 1.81135 -0.222795 0
M  V30 9721 C 947.035 0.730273 -3.54047 0
M  V30 9722 O 946.756 -0.396325 -4.36304 0
M  V30 9723 C 948.257 1.40041 -4.20599 0
M  V30 9724 H 945.477 0.0605836 -0.668259 0
M  V30 9725 H 948.021 -0.461411 -1.99227 0
M  V30 9726 H 946.176 1.43123 -3.59992 0
M  V30 9727 H 946.59 -0.0502901 -5.24476 0
M  V30 9728 H 948.064 1.65979 -5.26455 0
M  V30 9729 H 948.541 2.34565 -3.71316 0
M  V30 9730 H 949.147 0.742206 -4.18774 0
M  V30 9731 N 947.462 1.57535 -0.0451378 0
M  V30 9732 C 948.41 2.12351 0.949205 0
M  V30 9733 C 949.404 1.05386 1.32628 0
M  V30 9734 O 950.61 1.23802 1.30664 0
M  V30 9735 H 946.985 0.678648 0.323945 0
M  V30 9736 H 948.956 2.94806 0.461718 0
M  V30 9737 C 947.705 2.67862 2.21687 0
M  V30 9738 H 947.028 3.49826 1.93551 0
M  V30 9739 H 948.468 3.09844 2.89435 0
M  V30 9740 C 946.927 1.61353 2.95748 0
M  V30 9741 O 947.457 1.02276 3.88462 0
M  V30 9742 N 945.663 1.33017 2.5837 0
M  V30 9743 H 945.21 1.81246 1.83051 0
M  V30 9744 H 945.168 0.619812 3.0823 0
M  V30 9745 N 948.94 -0.228186 1.55939 0
M  V30 9746 C 949.87 -1.28607 1.94891 0
M  V30 9747 C 950.851 -1.49236 0.816245 0
M  V30 9748 O 952.036 -1.61531 1.07803 0
M  V30 9749 C 949.166 -2.63719 2.25986 0
M  V30 9750 C 948.12 -2.57757 3.4168 0
M  V30 9751 C 947.446 -3.96837 3.58364 0
M  V30 9752 C 948.746 -2.13116 4.76843 0
M  V30 9753 H 950.44 -0.962531 2.83506 0
M  V30 9754 H 947.986 -0.461577 1.36402 0
M  V30 9755 H 949.939 -3.37878 2.51826 0
M  V30 9756 H 948.663 -2.97747 1.34217 0
M  V30 9757 H 947.322 -1.86055 3.15878 0
M  V30 9758 H 946.97 -4.28162 2.63982 0
M  V30 9759 H 946.67 -3.93731 4.36176 0
M  V30 9760 H 948.194 -4.72668 3.86545 0
M  V30 9761 H 949.608 -2.77015 5.01932 0
M  V30 9762 H 948.005 -2.21083 5.57891 0
M  V30 9763 H 949.075 -1.08326 4.72645 0
M  V30 9764 O 950.457 -1.57117 -0.373689 0
M  V30 9765 H 951.148 -1.6437 -1.02481 0
M  V30 END ATOM
M  V30 BEGIN BOND
M  V30 END BOND
M  V30 END CTAB
M  END
$$$$
