drugbank_target|Q92934 Bcl2-associated agonist of cell death (DB12340)
 OpenBabel12092120323D

  0  0  0     0  0            999 V3000
M  V30 BEGIN CTAB
M  V30 COUNTS 2492 2530 0 0 0
M  V30 BEGIN ATOM
M  V30 1 H -0.908 1.98254 -0.117106 0
M  V30 2 N 0 1.576 0 0
M  V30 3 C 0.933 2.03868 1.02534 0
M  V30 4 C 1.911 0.928543 1.3348 0
M  V30 5 O 3.095 1.19667 1.45644 0
M  V30 6 C 0.222 2.43627 2.35294 0
M  V30 7 C -0.732 3.65373 2.2001 0
M  V30 8 S 0.101 5.13292 1.52614 0
M  V30 9 C 1.257 5.56322 2.86805 0
M  V30 10 H 1.49 2.90518 0.631377 0
M  V30 11 H -0.977 1.52953 0.210867 0
M  V30 12 H 0.981 2.67203 3.11629 0
M  V30 13 H -0.358 1.57376 2.7183 0
M  V30 14 H -1.165 3.90944 3.18086 0
M  V30 15 H -1.563 3.418 1.51819 0
M  V30 16 H 0.729 5.58782 3.83104 0
M  V30 17 H 1.672 6.56266 2.65933 0
M  V30 18 H 2.08 4.83886 2.90714 0
M  V30 19 N 1.4781 -0.272755 1.55222 0
M  V30 20 C 2.7251 -1.00433 1.7584 0
M  V30 21 C 3.0531 -1.86275 0.559629 0
M  V30 22 O 2.3081 -1.90269 -0.457857 0
M  V30 23 C 2.6071 -1.91642 3.01675 0
M  V30 24 C 2.2731 -1.21548 4.34208 0
M  V30 25 C 0.9351 -1.02166 4.70229 0
M  V30 26 C 3.2871 -0.716684 5.16249 0
M  V30 27 C 0.6151 -0.316334 5.85847 0
M  V30 28 C 2.9671 -0.0249476 6.32595 0
M  V30 29 C 1.6311 0.180579 6.67256 0
M  V30 30 H 0.9011 -0.367509 0.643443 0
M  V30 31 H 3.5481 -0.276596 1.89492 0
M  V30 32 H 1.8531 -2.71037 2.82924 0
M  V30 33 H 3.5501 -2.48369 3.14824 0
M  V30 34 H 0.1401 -1.37645 4.05896 0
M  V30 35 H 4.3241 -0.854047 4.88896 0
M  V30 36 H -0.4199 -0.146378 6.11225 0
M  V30 37 H 3.7541 0.369311 6.9542 0
M  V30 38 H 1.3811 0.729098 7.56696 0
M  V30 39 N 2.9562 -1.48159 -0.537278 0
M  V30 40 C 3.8882 -1.58218 -1.65831 0
M  V30 41 C 4.9012 -0.466948 -1.5596 0
M  V30 42 O 6.0902 -0.73747 -1.62553 0
M  V30 43 C 3.1902 -1.48906 -3.04434 0
M  V30 44 C 2.3632 -2.75343 -3.3986 0
M  V30 45 C 1.4222 -2.59588 -4.57712 0
M  V30 46 O 0.4482 -3.33457 -4.61297 0
M  V30 47 N 1.6502 -1.68724 -5.55439 0
M  V30 48 H 4.4152 -2.54891 -1.57641 0
M  V30 49 H 1.9762 -1.4479 -0.724386 0
M  V30 50 H 3.9682 -1.36072 -3.81139 0
M  V30 51 H 2.5382 -0.602368 -3.06741 0
M  V30 52 H 1.7582 -3.02795 -2.52406 0
M  V30 53 H 3.0462 -3.5924 -3.60311 0
M  V30 54 H 2.4442 -1.07898 -5.55315 0
M  V30 55 H 1.0012 -1.61832 -6.3139 0
M  V30 56 N 4.4343 0.785586 -1.36625 0
M  V30 57 C 5.6833 1.53883 -1.30396 0
M  V30 58 C 5.9963 1.95271 0.113452 0
M  V30 59 O 7.2023 2.69858 0.298142 0
M  V30 60 C 5.6583 2.77808 -2.28802 0
M  V30 61 C 5.2663 2.43574 -3.75999 0
M  V30 62 C 7.0103 3.55783 -2.31558 0
M  V30 63 C 4.9173 3.63919 -4.66173 0
M  V30 64 H 3.8473 0.577678 -0.484566 0
M  V30 65 H 6.4983 0.861705 -1.62009 0
M  V30 66 H 4.8803 3.47339 -1.90188 0
M  V30 67 H 6.0543 1.81916 -4.23371 0
M  V30 68 H 4.3693 1.78803 -3.76056 0
M  V30 69 H 6.9663 4.45205 -2.96137 0
M  V30 70 H 7.3093 3.94644 -1.3252 0
M  V30 71 H 7.8423 2.93235 -2.68809 0
M  V30 72 H 4.5813 3.3015 -5.66287 0
M  V30 73 H 4.1013 4.2473 -4.23515 0
M  V30 74 H 5.7803 4.30901 -4.82632 0
M  V30 75 N 5.9124 1.20967 1.01018 0
M  V30 76 C 7.3234 1.02319 1.56165 0
M  V30 77 C 7.6744 -0.418546 1.91684 0
M  V30 78 O 6.7994 -1.30096 1.72928 0
M  V30 79 C 7.3944 1.85109 2.8376 0
M  V30 80 C 5.9534 1.70809 3.35412 0
M  V30 81 C 5.1004 1.82643 2.08655 0
M  V30 82 H 8.0514 1.35065 0.833255 0
M  V30 83 H 8.0724 1.35827 3.55431 0
M  V30 84 H 7.5844 2.90035 2.57878 0
M  V30 85 H 5.6854 0.685464 3.66241 0
M  V30 86 H 5.7984 2.52467 4.07182 0
M  V30 87 H 4.1624 1.25896 2.21409 0
M  V30 88 H 4.9454 2.89066 1.85191 0
M  V30 89 N 7.3905 -1.2043 1.01659 0
M  V30 90 C 8.3005 -2.2689 0.596484 0
M  V30 91 C 9.3165 -1.70107 -0.36599 0
M  V30 92 O 10.4925 -2.00117 -0.226942 0
M  V30 93 C 7.5575 -3.4665 -0.0586659 0
M  V30 94 C 6.6185 -4.18662 0.949751 0
M  V30 95 C 5.8515 -5.32705 0.32577 0
M  V30 96 O 6.0745 -5.63656 -0.874509 0
M  V30 97 O 5.0085 -5.92803 1.04249 0
M  V30 98 H 8.8345 -2.65041 1.4828 0
M  V30 99 H 6.4195 -1.27048 0.786082 0
M  V30 100 H 8.3015 -4.19256 -0.424564 0
M  V30 101 H 6.9765 -3.10375 -0.91918 0
M  V30 102 H 5.8835 -3.48229 1.36702 0
M  V30 103 H 7.2165 -4.58878 1.78023 0
M  V30 104 N 8.8686 -0.792821 -1.36206 0
M  V30 105 C 10.1156 -0.366786 -1.99151 0
M  V30 106 C 10.4436 1.06243 -1.62919 0
M  V30 107 O 9.6986 1.74927 -0.877442 0
M  V30 108 C 9.9976 -0.481501 -3.54142 0
M  V30 109 C 9.6636 -1.87202 -4.10203 0
M  V30 110 C 8.3256 -2.25248 -4.25226 0
M  V30 111 C 10.6776 -2.78237 -4.40719 0
M  V30 112 C 8.0056 -3.53723 -4.68078 0
M  V30 113 C 10.3576 -4.06144 -4.85005 0
M  V30 114 C 9.0216 -4.44207 -4.98234 0
M  V30 115 H 8.2916 -0.134217 -0.728743 0
M  V30 116 H 10.9386 -1.01094 -1.62641 0
M  V30 117 H 9.2436 0.246146 -3.91026 0
M  V30 118 H 10.9406 -0.132844 -4.0078 0
M  V30 119 H 7.5306 -1.56639 -3.98951 0
M  V30 120 H 11.7146 -2.50097 -4.28679 0
M  V30 121 H 6.9706 -3.8308 -4.76508 0
M  V30 122 H 11.1446 -4.76796 -5.07581 0
M  V30 123 H 8.7716 -5.43814 -5.31197 0
M  V30 124 N 10.3467 1.47872 -0.545128 0
M  V30 125 C 11.2567 2.33633 0.212746 0
M  V30 126 C 12.2727 1.4744 0.923983 0
M  V30 127 O 13.4487 1.80393 0.895572 0
M  V30 128 C 10.5137 3.23884 1.23693 0
M  V30 129 C 9.5747 4.25961 0.534417 0
M  V30 130 C 8.8077 5.11899 1.5098 0
M  V30 131 O 9.0307 5.00077 2.7437 0
M  V30 132 O 7.9647 5.92831 1.0409 0
M  V30 133 H 11.7907 2.99714 -0.490416 0
M  V30 134 H 9.3757 1.46235 -0.305871 0
M  V30 135 H 11.2577 3.79666 1.82843 0
M  V30 136 H 9.9327 2.60446 1.92222 0
M  V30 137 H 8.8397 3.73972 -0.0979679 0
M  V30 138 H 10.1727 4.92079 -0.109213 0
M  V30 139 N 11.8248 0.280983 1.55075 0
M  V30 140 C 13.2358 -0.215629 1.85451 0
M  V30 141 C 13.5868 -1.54991 1.203 0
M  V30 142 O 12.7118 -2.10699 0.493435 0
M  V30 143 C 13.3068 -0.398026 3.36454 0
M  V30 144 C 11.8658 -0.838866 3.66933 0
M  V30 145 C 11.0128 0.064458 2.77225 0
M  V30 146 H 13.9638 0.502601 1.50531 0
M  V30 147 H 13.9848 -1.23569 3.59876 0
M  V30 148 H 13.4968 0.573241 3.83843 0
M  V30 149 H 11.5978 -1.8214 3.25048 0
M  V30 150 H 11.7108 -0.672123 4.74362 0
M  V30 151 H 10.0748 -0.452863 2.50642 0
M  V30 152 H 10.8578 1.03172 3.2743 0
M  V30 153 N 13.3029 -1.57598 0.00835791 0
M  V30 154 C 14.5279 -1.95617 -0.689103 0
M  V30 155 C 14.9529 -0.883753 -1.66046 0
M  V30 156 O 14.3109 0.157352 -1.80616 0
M  V30 157 C 14.3589 -3.32736 -1.38994 0
M  V30 158 O 13.4629 -3.27631 -2.50463 0
M  V30 159 H 12.8039 -0.638379 -0.182668 0
M  V30 160 H 15.3339 -2.045 0.064036 0
M  V30 161 H 15.3439 -3.68494 -1.75147 0
M  V30 162 H 14.0189 -4.1034 -0.677778 0
M  V30 163 H 12.5959 -3.03561 -2.16576 0
M  V30 164 N 14.781 0.264519 -1.55364 0
M  V30 165 C 15.691 1.34902 -1.91934 0
M  V30 166 C 16.707 1.53595 -0.817593 0
M  V30 167 O 17.883 1.67558 -1.11742 0
M  V30 168 C 14.948 2.68676 -2.19121 0
M  V30 169 C 14.009 2.58657 -3.4263 0
M  V30 170 C 13.242 3.86051 -3.68511 0
M  V30 171 O 13.465 4.87126 -2.96757 0
M  V30 172 O 12.399 3.85744 -4.62045 0
M  V30 173 H 16.225 1.06883 -2.8427 0
M  V30 174 H 13.81 0.463775 -1.42019 0
M  V30 175 H 15.692 3.47759 -2.37995 0
M  V30 176 H 14.367 2.96463 -1.29966 0
M  V30 177 H 13.274 1.7792 -3.29082 0
M  V30 178 H 14.607 2.35818 -4.32031 0
M  V30 179 N 16.2591 1.48442 0.529413 0
M  V30 180 C 17.1911 1.59095 1.64989 0
M  V30 181 C 18.2041 0.475212 1.5571 0
M  V30 182 O 19.3931 0.746081 1.6216 0
M  V30 183 C 16.4931 1.50518 3.0364 0
M  V30 184 C 15.6661 2.77142 3.38395 0
M  V30 185 C 14.7251 2.62012 4.56329 0
M  V30 186 O 13.7511 3.35898 4.59522 0
M  V30 187 N 14.9531 1.71667 5.54536 0
M  V30 188 H 17.7181 2.55723 1.56287 0
M  V30 189 H 15.2791 1.45173 0.716697 0
M  V30 190 H 17.2711 1.38091 3.80412 0
M  V30 191 H 15.8411 0.618627 3.06418 0
M  V30 192 H 15.0611 3.0413 2.50796 0
M  V30 193 H 16.3491 3.61146 3.58401 0
M  V30 194 H 15.7471 1.10841 5.54735 0
M  V30 195 H 14.3041 1.65178 6.30523 0
M  V30 196 N 17.7372 -0.778329 1.37039 0
M  V30 197 C 18.6472 -1.92253 1.34446 0
M  V30 198 C 19.6632 -1.72267 0.244991 0
M  V30 199 O 20.8392 -1.95615 0.479258 0
M  V30 200 C 17.9042 -3.27282 1.144 0
M  V30 201 C 16.9652 -3.59969 2.33925 0
M  V30 202 C 16.1982 -4.88555 2.14825 0
M  V30 203 O 16.4212 -5.59113 1.12912 0
M  V30 204 O 15.3552 -5.20153 3.02861 0
M  V30 205 H 19.1812 -1.97392 2.30803 0
M  V30 206 H 16.7662 -0.920154 1.17701 0
M  V30 207 H 18.6482 -4.08062 1.05182 0
M  V30 208 H 17.3232 -3.23011 0.211124 0
M  V30 209 H 16.2302 -2.7945 2.48714 0
M  V30 210 H 17.5632 -3.68976 3.25757 0
M  V30 211 N 19.2153 -1.21501 -1.00376 0
M  V30 212 C 20.4923 -0.941745 -1.71437 0
M  V30 213 C 20.8723 0.546114 -2.03914 0
M  V30 214 O 20.2203 1.51128 -1.71384 0
M  V30 215 C 20.4303 -1.82812 -2.97289 0
M  V30 216 C 21.7783 -2.07771 -3.70292 0
M  V30 217 O 22.8023 -1.80171 -3.07273 0
M  V30 218 O 21.6613 -2.54456 -4.83647 0
M  V30 219 H 18.7553 -0.353243 -0.747762 0
M  V30 220 H 21.3013 -1.32436 -1.06108 0
M  V30 221 H 20.0733 -2.83501 -2.69709 0
M  V30 222 H 19.6963 -1.4464 -3.70358 0
M  V30 223 N 20.6934 1.19889 -1.02296 0
M  V30 224 C 21.9184 1.9393 -0.735237 0
M  V30 225 C 22.3434 1.74639 0.698782 0
M  V30 226 O 21.7014 1.04481 1.48167 0
M  V30 227 C 21.7494 3.43916 -1.08417 0
M  V30 228 O 20.8534 4.11917 -0.199446 0
M  V30 229 H 20.1944 0.605645 -0.272196 0
M  V30 230 H 22.7244 1.52137 -1.36804 0
M  V30 231 H 22.7344 3.9456 -1.03856 0
M  V30 232 H 21.4094 3.5728 -2.12894 0
M  V30 233 H 19.9864 3.71666 -0.303136 0
M  V30 234 N 22.1715 0.800033 1.35784 0
M  V30 235 C 23.3965 0.388511 2.03729 0
M  V30 236 C 23.8215 -0.990481 1.5991 0
M  V30 237 O 23.1795 -1.64013 0.772612 0
M  V30 238 C 23.2275 0.4726 3.5749 0
M  V30 239 O 22.3315 -0.51646 4.09153 0
M  V30 240 H 21.6725 0.163271 0.643614 0
M  V30 241 H 24.2025 1.0841 1.73518 0
M  V30 242 H 24.2125 0.34003 4.06581 0
M  V30 243 H 22.8875 1.47848 3.88734 0
M  V30 244 H 21.4645 -0.344673 3.71304 0
M  V30 245 N 23.6496 -1.47581 0.552962 0
M  V30 246 C 24.8746 -2.07378 0.0300593 0
M  V30 247 C 25.2996 -1.40355 -1.25229 0
M  V30 248 O 24.6576 -0.477099 -1.7491 0
M  V30 249 C 24.7056 -3.60274 -0.153231 0
M  V30 250 O 23.8096 -3.94041 -1.21678 0
M  V30 251 H 23.1506 -0.662158 0.0494182 0
M  V30 252 H 25.6806 -1.89662 0.767434 0
M  V30 253 H 25.6906 -4.0633 -0.368761 0
M  V30 254 H 24.3656 -4.08455 0.783397 0
M  V30 255 H 22.9426 -3.59735 -0.982079 0
M  V30 256 N 25.1277 -0.289203 -1.54924 0
M  V30 257 C 26.0907 0.579144 -2.21762 0
M  V30 258 C 27.0907 1.07047 -1.1999 0
M  V30 259 O 28.2807 0.968384 -1.44803 0
M  V30 260 C 25.4127 1.80055 -2.8947 0
M  V30 261 H 26.6057 -0.00464908 -2.999 0
M  V30 262 H 24.1587 -0.0399306 -1.56249 0
M  V30 263 H 24.8937 2.42449 -2.15381 0
M  V30 264 H 24.6787 1.45602 -3.64064 0
M  V30 265 H 26.1687 2.41773 -3.40493 0
M  V30 266 N 26.6058 1.57591 -0.0167156 0
M  V30 267 C 27.5158 2.1291 0.98521 0
M  V30 268 C 28.5318 1.07834 1.36557 0
M  V30 269 O 29.7078 1.39826 1.44951 0
M  V30 270 C 26.7728 2.63512 2.25305 0
M  V30 271 C 25.8338 3.83256 1.93426 0
M  V30 272 C 25.0668 4.31435 3.14165 0
M  V30 273 O 25.2898 3.78851 4.26413 0
M  V30 274 O 24.2238 5.23416 2.97186 0
M  V30 275 H 28.0498 2.98772 0.544888 0
M  V30 276 H 25.6348 1.48012 0.203141 0
M  V30 277 H 27.5168 2.96183 2.99756 0
M  V30 278 H 26.1918 1.8074 2.68542 0
M  V30 279 H 25.0988 3.55531 1.16398 0
M  V30 280 H 26.4318 4.67153 1.55013 0
M  V30 281 N 28.0839 -0.256276 1.55502 0
M  V30 282 C 29.4999 -0.604325 1.47716 0
M  V30 283 C 29.6999 -1.88763 0.705039 0
M  V30 284 O 28.7559 -2.51445 0.230613 0
M  V30 285 C 30.0689 -0.715756 2.92057 0
M  V30 286 C 31.6169 -0.808706 3.02372 0
M  V30 287 C 32.0919 -0.951777 4.48001 0
M  V30 288 N 33.5829 -1.01688 4.519 0
M  V30 289 C 34.3179 -1.14668 5.61817 0
M  V30 290 N 33.8139 -1.24261 6.81565 0
M  V30 291 N 35.6069 -1.1791 5.49594 0
M  V30 292 H 27.7579 0.586291 2.04148 0
M  V30 293 H 30.0209 0.201015 0.926443 0
M  V30 294 H 29.7269 0.157027 3.51349 0
M  V30 295 H 29.6009 -1.59071 3.42018 0
M  V30 296 H 31.9879 -1.67195 2.43166 0
M  V30 297 H 32.0689 0.0912063 2.55637 0
M  V30 298 H 31.7129 -0.0931291 5.07815 0
M  V30 299 H 31.6429 -1.86659 4.92408 0
M  V30 300 H 34.1339 -0.954468 3.65648 0
M  V30 301 H 34.4469 -1.34046 7.61086 0
M  V30 302 H 32.7919 -1.21236 6.84344 0
M  V30 303 H 35.9829 -1.10057 4.54978 0
M  V30 304 H 36.1559 -1.27681 6.35296 0
M  V30 305 N 29.562 -1.4872 -0.521534 0
M  V30 306 C 30.81 -1.56857 -1.27437 0
M  V30 307 C 31.131 -0.247982 -1.93417 0
M  V30 308 O 30.401 0.731151 -1.81744 0
M  V30 309 H 28.981 -0.577885 -0.473347 0
M  V30 310 H 31.643 -1.85233 -0.606205 0
M  V30 311 H 30.739 -2.35402 -2.0492 0
M  V30 312 N 31.0401 0.771051 -1.3745 0
M  V30 313 C 31.9701 1.89827 -1.3597 0
M  V30 314 C 32.9511 1.68562 -0.228216 0
M  V30 315 O 34.1361 1.8941 -0.428675 0
M  V30 316 C 31.2661 3.2712 -1.16662 0
M  V30 317 C 30.2201 3.6295 -2.2683 0
M  V30 318 C 29.5461 4.98791 -1.92644 0
M  V30 319 C 30.8461 3.69627 -3.69017 0
M  V30 320 H 32.5401 1.91323 -2.30295 0
M  V30 321 H 30.0861 0.919082 -1.10855 0
M  V30 322 H 32.0391 4.05615 -1.14256 0
M  V30 323 H 30.7631 3.26059 -0.187926 0
M  V30 324 H 29.4221 2.86763 -2.28392 0
M  V30 325 H 29.0701 4.94271 -0.933021 0
M  V30 326 H 28.7701 5.23733 -2.66416 0
M  V30 327 H 30.2941 5.79685 -1.91826 0
M  V30 328 H 31.7081 4.38273 -3.69581 0
M  V30 329 H 30.1051 4.06067 -4.41848 0
M  V30 330 H 31.1751 2.70273 -4.02592 0
M  V30 331 N 32.5182 1.22032 0.997298 0
M  V30 332 C 33.7662 1.04016 1.73278 0
M  V30 333 C 34.0872 -0.426255 1.90284 0
M  V30 334 O 33.3572 -1.30694 1.45931 0
M  V30 335 H 31.9372 0.381897 0.642 0
M  V30 336 H 34.5992 1.5347 1.20137 0
M  V30 337 H 33.6952 1.51441 2.72896 0
M  V30 338 N 33.9963 -1.19345 1.0293 0
M  V30 339 C 35.4073 -1.70725 0.755633 0
M  V30 340 C 35.7583 -1.82326 -0.724676 0
M  V30 341 O 34.8833 -1.49471 -1.56484 0
M  V30 342 C 35.4783 -3.10084 1.36503 0
M  V30 343 C 34.0373 -3.58723 1.13994 0
M  V30 344 C 33.1843 -2.35577 1.46283 0
M  V30 345 H 36.1353 -1.0418 1.19718 0
M  V30 346 H 36.1563 -3.72787 0.762217 0
M  V30 347 H 35.6683 -3.01609 2.44241 0
M  V30 348 H 33.7693 -3.72512 0.0807901 0
M  V30 349 H 33.8823 -4.42816 1.82894 0
M  V30 350 H 32.2463 -2.38935 0.88217 0
M  V30 351 H 33.0293 -2.29731 2.55105 0
M  V30 352 N 35.4744 -0.807222 -1.35358 0
M  V30 353 C 36.6994 -0.399309 -2.0352 0
M  V30 354 C 37.1244 0.981986 -1.60433 0
M  V30 355 O 36.4824 1.63601 -0.781299 0
M  V30 356 C 36.5304 -0.491552 -3.57234 0
M  V30 357 O 35.6344 0.494754 -4.09421 0
M  V30 358 H 34.9754 -0.166682 -0.642739 0
M  V30 359 H 37.5054 -1.09328 -1.72941 0
M  V30 360 H 37.5154 -0.361588 -4.06395 0
M  V30 361 H 36.1904 -1.49907 -3.87944 0
M  V30 362 H 34.7674 0.324977 -3.71481 0
M  V30 363 N 36.9525 1.47285 -0.560781 0
M  V30 364 C 38.3635 1.86258 -0.128343 0
M  V30 365 C 38.7145 1.46699 1.30284 0
M  V30 366 O 37.8395 0.871698 1.98067 0
M  V30 367 C 38.4345 3.38044 -0.22614 0
M  V30 368 C 36.9935 3.76096 0.151283 0
M  V30 369 C 36.1405 2.71335 -0.572084 0
M  V30 370 H 39.0915 1.38752 -0.770297 0
M  V30 371 H 39.1125 3.76441 0.554322 0
M  V30 372 H 38.6245 3.66806 -1.26788 0
M  V30 373 H 36.7255 3.52951 1.19399 0
M  V30 374 H 36.8385 4.78641 -0.209765 0
M  V30 375 H 35.2025 2.54696 -0.0147653 0
M  V30 376 H 35.9855 3.02938 -1.61504 0
M  V30 377 N 38.4306 0.297415 1.54768 0
M  V30 378 C 39.3936 -0.567375 2.22066 0
M  V30 379 C 40.3936 -1.06409 1.20556 0
M  V30 380 O 41.5836 -0.960691 1.45315 0
M  V30 381 C 38.7156 -1.78517 2.90421 0
M  V30 382 H 39.9086 0.0205534 2.99893 0
M  V30 383 H 37.4616 0.0482163 1.56226 0
M  V30 384 H 38.1966 -2.41303 2.16664 0
M  V30 385 H 37.9816 -1.43669 3.64831 0
M  V30 386 H 39.4716 -2.39964 3.41771 0
M  V30 387 N 39.9087 -1.5758 0.0250728 0
M  V30 388 C 41.1567 -1.91255 -0.653151 0
M  V30 389 C 41.4777 -0.901691 -1.729 0
M  V30 390 O 40.7477 0.0573785 -1.95816 0
M  V30 391 H 39.3277 -0.705942 -0.244243 0
M  V30 392 H 41.9897 -1.94767 0.0719209 0
M  V30 393 H 41.0857 -2.91752 -1.10847 0
M  V30 394 N 41.3868 0.248026 -1.55636 0
M  V30 395 C 42.6638 0.998988 -1.68165 0
M  V30 396 C 43.0438 2.03409 -0.564621 0
M  V30 397 O 42.3918 2.24378 0.432076 0
M  V30 398 C 42.6018 1.63334 -3.0842 0
M  V30 399 C 43.9498 2.13562 -3.66983 0
M  V30 400 O 44.9738 1.73277 -3.11213 0
M  V30 401 O 43.8328 2.87526 -4.64749 0
M  V30 402 H 40.9268 0.464933 -0.683935 0
M  V30 403 H 43.4728 0.241902 -1.67967 0
M  V30 404 H 42.2448 0.884583 -3.8117 0
M  V30 405 H 41.8678 2.45666 -3.12624 0
M  V30 406 N 42.8649 1.48995 0.513639 0
M  V30 407 C 44.1129 1.57531 1.26604 0
M  V30 408 C 44.4339 0.258236 1.93283 0
M  V30 409 O 43.7039 -0.721502 1.8213 0
M  V30 410 H 42.2839 0.580387 0.470276 0
M  V30 411 H 44.9459 1.85552 0.596373 0
M  V30 412 H 44.0419 2.36486 2.03669 0
M  V30 413 N 44.343 -0.763751 1.37857 0
M  V30 414 C 45.754 -1.3405 1.29952 0
M  V30 415 C 46.105 -1.96138 -0.0492898 0
M  V30 416 O 45.23 -1.94372 -0.951239 0
M  V30 417 C 45.825 -2.43729 2.35333 0
M  V30 418 C 44.384 -2.97151 2.31037 0
M  V30 419 C 43.531 -1.70438 2.18738 0
M  V30 420 H 46.482 -0.563396 1.48363 0
M  V30 421 H 46.503 -3.23412 2.00462 0
M  V30 422 H 46.015 -1.9851 3.33489 0
M  V30 423 H 44.116 -3.46724 1.3643 0
M  V30 424 H 44.229 -3.52221 3.24772 0
M  V30 425 H 42.593 -1.93673 1.65418 0
M  V30 426 H 43.376 -1.27312 3.18821 0
M  V30 427 N 45.8211 -1.22559 -0.990812 0
M  V30 428 C 47.0461 -1.07862 -1.77145 0
M  V30 429 C 47.4711 0.366447 -1.84496 0
M  V30 430 O 46.8291 1.26478 -1.29896 0
M  V30 431 C 46.8771 -1.69686 -3.18181 0
M  V30 432 O 45.9811 -0.951946 -4.01263 0
M  V30 433 H 45.3221 -0.378712 -0.545411 0
M  V30 434 H 47.8521 -1.62399 -1.2445 0
M  V30 435 H 47.8621 -1.74496 -3.68802 0
M  V30 436 H 46.5371 -2.74841 -3.12146 0
M  V30 437 H 45.1141 -0.980011 -3.59792 0
M  V30 438 N 47.2992 1.18797 -1.03562 0
M  V30 439 C 48.5472 1.88278 -0.734569 0
M  V30 440 C 48.8682 1.8043 0.739586 0
M  V30 441 O 48.1382 1.21925 1.53333 0
M  V30 442 H 46.7182 0.696991 -0.268725 0
M  V30 443 H 49.3802 1.44192 -1.31129 0
M  V30 444 H 48.4762 2.94443 -1.03489 0
M  V30 445 N 48.7773 0.814389 1.34928 0
M  V30 446 C 50.0023 0.410097 2.03305 0
M  V30 447 C 50.4273 -0.973464 1.60951 0
M  V30 448 O 49.7853 -1.63185 0.789964 0
M  V30 449 C 49.8333 0.51049 3.56968 0
M  V30 450 O 48.9373 -0.473035 4.09678 0
M  V30 451 H 48.2783 0.170088 0.641846 0
M  V30 452 H 50.8083 1.10244 1.72358 0
M  V30 453 H 50.8183 0.383135 4.06197 0
M  V30 454 H 49.4933 1.51963 3.87144 0
M  V30 455 H 48.0703 -0.305272 3.71648 0
M  V30 456 N 50.2554 -1.46986 0.568584 0
M  V30 457 C 51.5034 -2.02041 0.0487022 0
M  V30 458 C 51.8244 -1.44408 -1.31039 0
M  V30 459 O 51.0944 -0.623477 -1.85714 0
M  V30 460 H 49.6744 -0.746849 0.015014 0
M  V30 461 H 52.3364 -1.80257 0.741168 0
M  V30 462 H 51.4324 -3.12085 -0.0308961 0
M  V30 463 N 51.7335 -0.305618 -1.54608 0
M  V30 464 C 52.6805 0.568421 -2.23691 0
M  V30 465 C 53.6505 1.12592 -1.22116 0
M  V30 466 O 54.8355 1.16959 -1.50749 0
M  V30 467 C 51.9755 1.7322 -2.98477 0
M  V30 468 C 51.0885 1.20566 -4.14835 0
M  V30 469 C 50.2235 2.33368 -4.77193 0
M  V30 470 C 49.2625 1.7787 -5.85686 0
M  V30 471 N 48.3995 2.84263 -6.4198 0
M  V30 472 H 53.2395 -0.0272867 -2.97988 0
M  V30 473 H 50.7765 -0.0252363 -1.47078 0
M  V30 474 H 52.7345 2.41675 -3.40072 0
M  V30 475 H 51.3645 2.29947 -2.26548 0
M  V30 476 H 50.4165 0.413223 -3.78149 0
M  V30 477 H 51.7285 0.759417 -4.92985 0
M  V30 478 H 50.8825 3.09761 -5.21664 0
M  V30 479 H 49.6215 2.8132 -3.98385 0
M  V30 480 H 48.6265 0.99968 -5.40635 0
M  V30 481 H 49.8515 1.30816 -6.66381 0
M  V30 482 H 47.7975 3.31541 -5.66053 0
M  V30 483 H 47.7145 2.44149 -7.15491 0
M  V30 484 H 48.9825 3.6054 -6.91109 0
M  V30 485 N 53.2116 1.57565 -0.0334293 0
M  V30 486 C 54.1616 2.06978 0.956237 0
M  V30 487 C 55.1456 0.971193 1.28283 0
M  V30 488 O 56.3376 1.23471 1.26822 0
M  V30 489 C 53.4666 2.60393 2.23719 0
M  V30 490 C 52.5526 3.7719 1.93877 0
M  V30 491 N 52.9436 4.87639 1.34321 0
M  V30 492 C 51.2416 3.85758 2.23845 0
M  V30 493 C 51.9426 5.68825 1.21709 0
M  V30 494 N 50.9186 5.1587 1.71404 0
M  V30 495 H 54.7206 2.89773 0.490815 0
M  V30 496 H 52.2346 1.61492 0.171478 0
M  V30 497 H 54.2316 2.94088 2.95496 0
M  V30 498 H 52.8916 1.79031 2.70884 0
M  V30 499 H 53.9026 5.07803 1.01767 0
M  V30 500 H 50.5796 3.1531 2.73653 0
M  V30 501 H 51.9696 6.67631 0.75621 0
M  V30 502 N 54.6897 -0.239769 1.55765 0
M  V30 503 C 55.6397 -1.30002 1.87306 0
M  V30 504 C 56.6237 -1.43156 0.73452 0
M  V30 505 O 57.8157 -1.46277 0.99659 0
M  V30 506 C 54.9447 -2.65409 2.17745 0
M  V30 507 C 54.0307 -2.56231 3.37945 0
M  V30 508 N 54.4217 -2.16689 4.57033 0
M  V30 509 C 52.7197 -2.87229 3.41197 0
M  V30 510 C 53.4207 -2.18318 5.39177 0
M  V30 511 N 52.3967 -2.58098 4.78421 0
M  V30 512 H 56.1987 -0.984912 2.76906 0
M  V30 513 H 53.7127 -0.448381 1.56087 0
M  V30 514 H 55.7097 -3.41934 2.38509 0
M  V30 515 H 54.3697 -2.97781 1.29448 0
M  V30 516 H 55.3807 -1.88116 4.82528 0
M  V30 517 H 52.0577 -3.24094 2.63191 0
M  V30 518 H 53.4477 -1.90025 6.44469 0
M  V30 519 N 56.1678 -1.49265 -0.50573 0
M  V30 520 C 57.5838 -1.35923 -0.836486 0
M  V30 521 C 57.7838 -0.388704 -1.97715 0
M  V30 522 O 56.8398 0.181336 -2.51848 0
M  V30 523 C 58.1528 -2.76531 -1.18115 0
M  V30 524 C 59.7008 -2.85197 -1.28964 0
M  V30 525 C 60.1758 -4.26561 -1.66761 0
M  V30 526 N 61.6668 -4.2935 -1.73819 0
M  V30 527 C 62.4018 -5.35693 -2.045 0
M  V30 528 N 61.8978 -6.52287 -2.33438 0
M  V30 529 N 63.6908 -5.23105 -2.05711 0
M  V30 530 H 55.8418 -2.10965 0.246519 0
M  V30 531 H 58.1048 -0.9468 0.0476887 0
M  V30 532 H 57.8108 -3.49226 -0.416398 0
M  V30 533 H 57.6848 -3.11599 -2.1257 0
M  V30 534 H 60.0718 -2.12742 -2.04511 0
M  V30 535 H 60.1528 -2.53718 -0.325704 0
M  V30 536 H 59.7968 -4.99541 -0.917656 0
M  V30 537 H 59.7268 -4.55502 -2.64246 0
M  V30 538 H 62.2178 -3.4526 -1.53635 0
M  V30 539 H 62.5308 -7.29158 -2.56024 0
M  V30 540 H 60.8758 -6.55521 -2.30905 0
M  V30 541 H 64.0668 -4.31026 -1.82577 0
M  V30 542 H 64.2398 -6.06078 -2.29289 0
M  V30 543 N 57.6459 0.756429 -1.3826 0
M  V30 544 C 58.5779 1.87971 -1.31147 0
M  V30 545 C 59.5909 1.61248 -0.224239 0
M  V30 546 O 60.7799 1.71881 -0.481581 0
M  V30 547 C 57.8799 3.23545 -1.00857 0
M  V30 548 C 57.0529 3.77794 -2.20432 0
M  V30 549 C 56.1119 4.91877 -1.86931 0
M  V30 550 O 55.1379 5.06659 -2.59395 0
M  V30 551 N 56.3399 5.74643 -0.822568 0
M  V30 552 H 59.1049 1.94585 -2.2794 0
M  V30 553 H 56.6659 0.936234 -1.32084 0
M  V30 554 H 58.6579 3.97403 -0.765021 0
M  V30 555 H 57.2279 3.12335 -0.128687 0
M  V30 556 H 56.4479 2.95534 -2.6087 0
M  V30 557 H 57.7359 4.10771 -3.00241 0
M  V30 558 H 57.1339 5.65266 -0.221575 0
M  V30 559 H 55.6909 6.48661 -0.638899 0
M  V30 560 N 59.124 1.23083 0.984299 0
M  V30 561 C 60.087 1.00979 2.05757 0
M  V30 562 C 61.087 -0.0269573 1.60777 0
M  V30 563 O 62.277 0.212403 1.729 0
M  V30 564 C 59.409 0.527072 3.36801 0
M  V30 565 H 60.602 1.9622 2.26799 0
M  V30 566 H 58.155 1.05072 1.15714 0
M  V30 567 H 58.89 -0.429294 3.21446 0
M  V30 568 H 58.675 1.27515 3.70786 0
M  V30 569 H 60.165 0.392942 4.15747 0
M  V30 570 N 60.6021 -1.18246 1.0419 0
M  V30 571 C 62.0131 -1.69914 0.773698 0
M  V30 572 C 62.3641 -1.83085 -0.705297 0
M  V30 573 O 61.4891 -1.51123 -1.5489 0
M  V30 574 C 62.0841 -3.08619 1.39784 0
M  V30 575 C 60.6431 -3.57494 1.17792 0
M  V30 576 C 59.7901 -2.34013 1.48773 0
M  V30 577 H 62.7411 -1.02904 1.20816 0
M  V30 578 H 62.7621 -3.71958 0.801714 0
M  V30 579 H 62.2741 -2.99001 2.47426 0
M  V30 580 H 60.3751 -3.72406 0.120295 0
M  V30 581 H 60.4881 -4.40852 1.87581 0
M  V30 582 H 58.8521 -2.37986 0.907463 0
M  V30 583 H 59.6351 -2.27013 2.57527 0
M  V30 584 N 62.0802 -0.821533 -1.34494 0
M  V30 585 C 63.3282 -0.408139 -1.97936 0
M  V30 586 C 63.6492 1.03193 -1.65457 0
M  V30 587 O 62.9192 1.71622 -0.944595 0
M  V30 588 H 61.4992 -0.147928 -0.732206 0
M  V30 589 H 64.1612 -1.05067 -1.64155 0
M  V30 590 H 63.2572 -0.52601 -3.07635 0
M  V30 591 N 63.5583 1.46682 -0.576371 0
M  V30 592 C 64.4883 2.33028 0.148397 0
M  V30 593 C 65.4693 1.44961 0.889956 0
M  V30 594 O 66.6543 1.73789 0.866662 0
M  V30 595 C 63.7843 3.27117 1.1667 0
M  V30 596 C 62.7383 4.24575 0.540386 0
M  V30 597 C 62.0643 5.08126 1.6647 0
M  V30 598 C 63.3643 5.19722 -0.518331 0
M  V30 599 H 65.0583 2.93875 -0.572509 0
M  V30 600 H 62.6043 1.41315 -0.276768 0
M  V30 601 H 64.5573 3.86374 1.68204 0
M  V30 602 H 63.2813 2.64364 1.9178 0
M  V30 603 H 61.9403 3.66571 0.0461769 0
M  V30 604 H 61.5883 4.41762 2.40531 0
M  V30 605 H 61.2883 5.74122 1.25131 0
M  V30 606 H 62.8123 5.70246 2.18293 0
M  V30 607 H 64.2263 5.73232 -0.0883058 0
M  V30 608 H 62.6233 5.94026 -0.851679 0
M  V30 609 H 63.6933 4.64037 -1.40703 0
M  V30 610 N 65.0364 0.313813 1.54444 0
M  V30 611 C 65.9664 -0.549454 2.26943 0
M  V30 612 C 66.9474 -1.12741 1.27372 0
M  V30 613 O 68.1324 -1.15436 1.56167 0
M  V30 614 C 65.2624 -1.71523 3.01989 0
M  V30 615 C 64.2164 -1.26703 4.08816 0
M  V30 616 C 63.5424 -2.51898 4.71647 0
M  V30 617 C 64.8424 -0.388962 5.2085 0
M  V30 618 H 66.5364 0.0552661 2.99349 0
M  V30 619 H 64.0824 0.0280207 1.43973 0
M  V30 620 H 66.0354 -2.32535 3.51433 0
M  V30 621 H 64.7594 -2.34639 2.27183 0
M  V30 622 H 63.4184 -0.679896 3.6024 0
M  V30 623 H 63.0664 -3.13356 3.93468 0
M  V30 624 H 62.7664 -2.22605 5.43802 0
M  V30 625 H 64.2904 -3.1369 5.23861 0
M  V30 626 H 65.7044 -0.905107 5.6611 0
M  V30 627 H 64.1014 -0.18924 5.99802 0
M  V30 628 H 65.1714 0.582699 4.81386 0
M  V30 629 N 66.5145 -1.57545 0.0417849 0
M  V30 630 C 67.7605 -1.93424 -0.629168 0
M  V30 631 C 68.1155 -0.919564 -1.69002 0
M  V30 632 O 67.4085 0.0626178 -1.91498 0
M  V30 633 C 67.6025 -3.33794 -1.27735 0
M  V30 634 C 67.4315 -4.48822 -0.280806 0
M  V30 635 C 66.2015 -5.05148 0.123869 0
M  V30 636 C 68.3995 -5.12148 0.470012 0
M  V30 637 N 66.3815 -6.03703 1.11426 0
M  V30 638 C 67.7525 -6.05921 1.31377 0
M  V30 639 C 69.8075 -4.95078 0.529343 0
M  V30 640 C 68.5105 -6.84459 2.21152 0
M  V30 641 C 70.5365 -5.74235 1.41448 0
M  V30 642 C 69.8985 -6.67634 2.24598 0
M  V30 643 H 65.9975 -0.755418 -0.202158 0
M  V30 644 H 68.5815 -1.94378 0.111923 0
M  V30 645 H 66.7525 -3.33635 -1.98852 0
M  V30 646 H 68.4845 -3.56988 -1.90635 0
M  V30 647 H 65.2395 -4.72923 -0.253178 0
M  V30 648 H 65.6635 -6.57674 1.60607 0
M  V30 649 H 70.3055 -4.22683 -0.0992798 0
M  V30 650 H 68.0235 -7.56151 2.85063 0
M  V30 651 H 71.6095 -5.63057 1.46484 0
M  V30 652 H 70.4895 -7.27817 2.9198 0
M  V30 653 N 67.9926 0.231505 -1.5589 0
M  V30 654 C 69.2696 0.981096 -1.69215 0
M  V30 655 C 69.6496 2.02799 -0.586164 0
M  V30 656 O 68.9976 2.24823 0.408253 0
M  V30 657 C 69.2076 1.60054 -3.10135 0
M  V30 658 C 70.5556 2.09658 -3.69227 0
M  V30 659 O 71.5796 1.69967 -3.13033 0
M  V30 660 O 70.4386 2.8258 -4.67772 0
M  V30 661 H 67.5326 0.457653 -0.688827 0
M  V30 662 H 70.0786 0.224073 -1.68214 0
M  V30 663 H 68.8506 0.844105 -3.82087 0
M  V30 664 H 68.4736 2.42336 -3.15212 0
M  V30 665 N 69.4707 1.49531 0.497807 0
M  V30 666 C 70.4337 1.65916 1.58128 0
M  V30 667 C 71.4337 0.530825 1.51786 0
M  V30 668 O 72.6237 0.797342 1.54881 0
M  V30 669 C 69.7557 1.65951 2.9778 0
M  V30 670 H 70.9487 2.62556 1.44929 0
M  V30 671 H 68.5017 1.38611 0.722275 0
M  V30 672 H 69.2367 0.709065 3.16453 0
M  V30 673 H 69.0217 2.47897 3.03792 0
M  V30 674 H 70.5117 1.80673 3.76493 0
M  V30 675 N 70.9488 -0.749086 1.3866 0
M  V30 676 C 72.1738 -1.54344 1.38538 0
M  V30 677 C 72.5988 -1.88088 -0.0216655 0
M  V30 678 O 71.9568 -1.50899 -1.00494 0
M  V30 679 C 72.0048 -2.8164 2.25192 0
M  V30 680 O 71.1088 -3.7698 1.67212 0
M  V30 681 H 70.4498 -0.466654 0.472367 0
M  V30 682 H 72.9798 -0.925355 1.82478 0
M  V30 683 H 72.9898 -3.30519 2.3921 0
M  V30 684 H 71.6648 -2.56411 3.27454 0
M  V30 685 H 70.2418 -3.35699 1.6236 0
M  V30 686 N 72.4269 -1.23603 -0.977757 0
M  V30 687 C 73.3769 -0.986664 -2.05545 0
M  V30 688 C 74.3609 0.0683009 -1.60755 0
M  V30 689 O 75.5529 -0.144162 -1.76412 0
M  V30 690 C 72.6819 -0.582623 -3.3832 0
M  V30 691 C 71.7679 -1.67313 -3.89701 0
M  V30 692 N 72.1589 -2.90394 -4.14132 0
M  V30 693 C 70.4569 -1.54832 -4.18262 0
M  V30 694 C 71.1579 -3.61017 -4.56116 0
M  V30 695 N 70.1339 -2.8854 -4.60701 0
M  V30 696 H 73.9359 -1.92139 -2.22396 0
M  V30 697 H 71.4499 -1.1358 -1.16074 0
M  V30 698 H 73.4469 -0.38524 -4.15116 0
M  V30 699 H 72.1069 0.34503 -3.22862 0
M  V30 700 H 73.1179 -3.26673 -4.01877 0
M  V30 701 H 69.7949 -0.687969 -4.11793 0
M  V30 702 H 71.1849 -4.66544 -4.83514 0
M  V30 703 N 73.905 1.17692 -1.04816 0
M  V30 704 C 74.837 2.21103 -0.603822 0
M  V30 705 C 75.85 1.59411 0.33046 0
M  V30 706 O 77.039 1.7807 0.12379 0
M  V30 707 C 74.139 3.38623 0.136898 0
M  V30 708 C 73.312 4.29888 -0.807137 0
M  V30 709 C 72.371 5.26088 -0.10836 0
M  V30 710 O 71.397 5.64353 -0.741232 0
M  V30 711 N 72.599 5.68882 1.15558 0
M  V30 712 H 75.364 2.59848 -1.49329 0
M  V30 713 H 72.925 1.32553 -0.929587 0
M  V30 714 H 74.917 4.00009 0.614401 0
M  V30 715 H 73.487 2.98508 0.927993 0
M  V30 716 H 72.707 3.65993 -1.46434 0
M  V30 717 H 73.995 4.87759 -1.44807 0
M  V30 718 H 73.393 5.39861 1.69015 0
M  V30 719 H 71.95 6.32429 1.57722 0
M  V30 720 N 75.3831 0.828654 1.34056 0
M  V30 721 C 76.3151 0.212052 2.28217 0
M  V30 722 C 77.3281 -0.601362 1.51286 0
M  V30 723 O 78.5171 -0.430104 1.73241 0
M  V30 724 C 75.6171 -0.72088 3.31144 0
M  V30 725 C 74.7901 0.0509587 4.3737 0
M  V30 726 C 73.8491 -0.803766 5.20025 0
M  V30 727 O 72.8751 -0.246667 5.68665 0
M  V30 728 N 74.0771 -2.1227 5.40298 0
M  V30 729 H 76.8421 1.02105 2.81771 0
M  V30 730 H 74.4031 0.686153 1.46641 0
M  V30 731 H 76.3951 -1.29742 3.8334 0
M  V30 732 H 74.9651 -1.43061 2.77943 0
M  V30 733 H 74.1851 0.808831 3.85813 0
M  V30 734 H 75.4731 0.582065 5.0546 0
M  V30 735 H 74.8711 -2.59898 5.02464 0
M  V30 736 H 73.4281 -2.64796 5.95589 0
M  V30 737 N 76.8612 -1.46375 0.584142 0
M  V30 738 C 77.7712 -2.34115 -0.150728 0
M  V30 739 C 78.7872 -1.49838 -0.884567 0
M  V30 740 O 79.9632 -1.82704 -0.847429 0
M  V30 741 C 77.0282 -3.2705 -1.15062 0
M  V30 742 C 76.0892 -4.27228 -0.421293 0
M  V30 743 C 75.3222 -5.15722 -1.37355 0
M  V30 744 O 75.5452 -5.07176 -2.61014 0
M  V30 745 O 74.4792 -5.95383 -0.883355 0
M  V30 746 H 78.3052 -2.98309 0.569708 0
M  V30 747 H 75.8902 -1.45373 0.344535 0
M  V30 748 H 77.7722 -3.84381 -1.72712 0
M  V30 749 H 76.4472 -2.65451 -1.8525 0
M  V30 750 H 75.3542 -3.7358 0.197085 0
M  V30 751 H 76.6872 -4.91616 0.239641 0
M  V30 752 N 78.3393 -0.321999 -1.54275 0
M  V30 753 C 79.2713 0.578671 -2.21775 0
M  V30 754 C 80.2843 1.08109 -1.21722 0
M  V30 755 O 81.4733 0.994938 -1.482 0
M  V30 756 C 78.5733 1.80661 -2.86731 0
M  V30 757 C 77.7463 1.44314 -4.12907 0
M  V30 758 C 76.8053 2.52845 -4.61472 0
M  V30 759 O 75.8313 2.17054 -5.2619 0
M  V30 760 N 77.0333 3.83748 -4.35566 0
M  V30 761 H 79.7983 0.000709447 -2.997 0
M  V30 762 H 77.3593 -0.145132 -1.61248 0
M  V30 763 H 79.3513 2.52655 -3.16145 0
M  V30 764 H 77.9213 2.29245 -2.12521 0
M  V30 765 H 77.1413 0.554906 -3.90275 0
M  V30 766 H 78.4293 1.17598 -4.95023 0
M  V30 767 H 77.8273 4.15625 -3.83761 0
M  V30 768 H 76.3843 4.51977 -4.69638 0
M  V30 769 N 79.8174 1.5752 -0.0501392 0
M  V30 770 C 81.2284 1.80271 0.485705 0
M  V30 771 C 81.5794 0.96228 1.70981 0
M  V30 772 O 80.7044 0.178578 2.15662 0
M  V30 773 C 81.2994 3.26957 0.887938 0
M  V30 774 C 79.8584 3.5063 1.36877 0
M  V30 775 C 79.0054 2.75165 0.343468 0
M  V30 776 H 81.9564 1.56281 -0.276028 0
M  V30 777 H 81.9774 3.37821 1.75093 0
M  V30 778 H 81.4894 3.881 -0.0031809 0
M  V30 779 H 79.5904 2.94766 2.27911 0
M  V30 780 H 79.7034 4.59343 1.36164 0
M  V30 781 H 78.0674 2.4127 0.816128 0
M  V30 782 H 78.8504 3.39034 -0.539548 0
M  V30 783 N 81.2955 -0.223234 1.56011 0
M  V30 784 C 82.5235 -0.964812 1.83027 0
M  V30 785 C 82.9385 -1.78013 0.62904 0
M  V30 786 O 82.2955 -1.78008 -0.402414 0
M  V30 787 C 82.3465 -1.88373 3.08542 0
M  V30 788 O 82.0675 -1.10137 4.2403 0
M  V30 789 C 83.5685 -2.73934 3.48533 0
M  V30 790 H 80.7885 -0.282842 0.608475 0
M  V30 791 H 83.3325 -0.238971 2.03099 0
M  V30 792 H 81.4875 -2.56354 2.9045 0
M  V30 793 H 81.9015 -1.72501 4.95322 0
M  V30 794 H 83.3755 -3.34117 4.39397 0
M  V30 795 H 83.8525 -3.46244 2.70207 0
M  V30 796 H 84.4585 -2.11369 3.69057 0
M  V30 797 N 82.7736 -1.49793 -0.48987 0
M  V30 798 C 83.9986 -1.63836 -1.27172 0
M  V30 799 C 84.4236 -0.31402 -1.8546 0
M  V30 800 O 83.7816 0.719803 -1.66399 0
M  V30 801 C 83.8296 -2.71797 -2.36978 0
M  V30 802 O 82.9336 -2.31744 -3.41128 0
M  V30 803 H 82.2746 -0.547997 -0.37496 0
M  V30 804 H 84.8046 -1.96053 -0.585191 0
M  V30 805 H 84.8146 -2.94305 -2.82575 0
M  V30 806 H 83.4896 -3.67923 -1.93921 0
M  V30 807 H 82.0666 -2.1961 -3.01373 0
M  V30 808 N 84.2517 0.741722 -1.39055 0
M  V30 809 C 85.4767 1.53607 -1.39354 0
M  V30 810 C 85.9017 1.88096 0.0116905 0
M  V30 811 O 85.2597 1.5143 0.996924 0
M  V30 812 C 85.3077 2.80441 -2.26682 0
M  V30 813 O 84.4117 3.76088 -1.69208 0
M  V30 814 H 83.7527 0.464142 -0.474835 0
M  V30 815 H 86.2827 0.915665 -1.82967 0
M  V30 816 H 86.2927 3.29246 -2.40959 0
M  V30 817 H 84.9677 2.5467 -3.2881 0
M  V30 818 H 83.5447 3.34833 -1.64138 0
M  V30 819 N 85.7298 1.2412 0.971189 0
M  V30 820 C 86.9548 1.10667 1.75407 0
M  V30 821 C 87.3798 -0.337048 1.85056 0
M  V30 822 O 86.7378 -1.24396 1.31892 0
M  V30 823 C 86.7858 1.74726 3.15441 0
M  V30 824 O 85.8898 1.01566 3.99697 0
M  V30 825 H 85.2308 0.387341 0.539317 0
M  V30 826 H 87.7608 1.64358 1.2185 0
M  V30 827 H 87.7708 1.80341 3.6598 0
M  V30 828 H 86.4458 2.79773 3.07734 0
M  V30 829 H 85.0228 1.03713 3.58187 0
M  V30 830 N 87.2079 -1.17134 1.05439 0
M  V30 831 C 88.1579 -2.1919 0.627675 0
M  V30 832 C 89.1419 -1.57328 -0.337147 0
M  V30 833 O 90.3339 -1.76329 -0.153976 0
M  V30 834 C 87.4629 -3.43299 0.00651435 0
M  V30 835 C 86.5489 -4.12255 0.995312 0
M  V30 836 N 86.9399 -4.56997 2.16765 0
M  V30 837 C 85.2379 -4.38316 0.824336 0
M  V30 838 C 85.9389 -5.10239 2.7934 0
M  V30 839 N 84.9149 -5.02595 2.07122 0
M  V30 840 H 88.7169 -2.5149 1.52086 0
M  V30 841 H 86.2309 -1.33491 0.924868 0
M  V30 842 H 88.2279 -4.15693 -0.316965 0
M  V30 843 H 86.8879 -3.1249 -0.882033 0
M  V30 844 H 87.8989 -4.51006 2.54587 0
M  V30 845 H 84.5759 -4.17498 -0.0129526 0
M  V30 846 H 85.9659 -5.54961 3.78772 0
M  V30 847 N 88.686 -0.835752 -1.33615 0
M  V30 848 C 89.636 -0.238856 -2.26745 0
M  V30 849 C 90.62 0.604343 -1.49119 0
M  V30 850 O 91.812 0.456822 -1.71003 0
M  V30 851 C 88.941 0.587725 -3.38232 0
M  V30 852 C 88.027 -0.266811 -4.2326 0
M  V30 853 N 88.418 -1.34403 -4.87616 0
M  V30 854 C 86.716 -0.0533131 -4.45968 0
M  V30 855 C 87.417 -1.86819 -5.50884 0
M  V30 856 N 86.393 -1.17013 -5.30857 0
M  V30 857 H 90.195 -1.06266 -2.74016 0
M  V30 858 H 87.709 -0.679881 -1.47483 0
M  V30 859 H 89.706 1.03161 -4.03935 0
M  V30 860 H 88.366 1.40954 -2.9251 0
M  V30 861 H 89.377 -1.7269 -4.88261 0
M  V30 862 H 86.054 0.735312 -4.10974 0
M  V30 863 H 87.444 -2.7701 -6.1214 0
M  V30 864 N 90.1641 1.46063 -0.591896 0
M  V30 865 C 91.4121 2.01938 -0.0808391 0
M  V30 866 C 91.7331 1.46475 1.28725 0
M  V30 867 O 91.0031 0.652944 1.84698 0
M  V30 868 H 89.5831 0.746516 -0.0268938 0
M  V30 869 H 92.2451 1.79055 -0.769752 0
M  V30 870 H 91.3411 3.12094 -0.0187578 0
M  V30 871 N 91.6422 0.330177 1.54103 0
M  V30 872 C 92.8902 -0.269871 2.0029 0
M  V30 873 C 93.2112 -1.52133 1.21986 0
M  V30 874 O 92.4812 -1.93212 0.323438 0
M  V30 875 H 91.0612 -0.10271 0.739905 0
M  V30 876 H 93.7232 0.448249 1.89675 0
M  V30 877 H 92.8192 -0.52166 3.07709 0
M  V30 878 N 93.1203 -1.57491 0.0584922 0
M  V30 879 C 94.0833 -2.1085 -0.898617 0
M  V30 880 C 95.0833 -1.02964 -1.23511 0
M  V30 881 O 96.2733 -1.29007 -1.17059 0
M  V30 882 C 93.4053 -2.59881 -2.20623 0
M  V30 883 H 94.5983 -2.96715 -0.435936 0
M  V30 884 H 92.1513 -1.55141 -0.190023 0
M  V30 885 H 92.8863 -1.77431 -2.71457 0
M  V30 886 H 92.6713 -3.38727 -1.97501 0
M  V30 887 H 94.1613 -3.01285 -2.89166 0
M  V30 888 N 94.5984 0.214957 -1.56127 0
M  V30 889 C 95.8464 0.936518 -1.79091 0
M  V30 890 C 96.1674 1.84606 -0.628148 0
M  V30 891 O 95.4374 1.92664 0.35462 0
M  V30 892 H 94.0174 0.3488 -0.660566 0
M  V30 893 H 96.6794 0.22523 -1.93594 0
M  V30 894 H 95.7754 1.53943 -2.71492 0
M  V30 895 N 96.0765 1.50051 0.48192 0
M  V30 896 C 97.0395 1.67584 1.5636 0
M  V30 897 C 98.0395 0.546894 1.51214 0
M  V30 898 O 99.2295 0.813725 1.54026 0
M  V30 899 C 96.3615 1.691 2.96003 0
M  V30 900 H 97.5545 2.64078 1.42136 0
M  V30 901 H 95.1075 1.39369 0.707533 0
M  V30 902 H 95.8425 0.742589 3.15684 0
M  V30 903 H 95.6275 2.51105 3.01146 0
M  V30 904 H 97.1175 1.84656 3.74556 0
M  V30 905 N 97.5546 -0.734337 1.39446 0
M  V30 906 C 98.8006 -1.49613 1.36908 0
M  V30 907 C 99.1336 -1.94169 -0.0347829 0
M  V30 908 O 98.4086 -1.66833 -0.999847 0
M  V30 909 C 98.6916 -2.73534 2.34203 0
M  V30 910 C 98.5446 -2.34993 3.83534 0
M  V30 911 C 99.8636 -3.75635 2.29317 0
M  V30 912 H 96.9826 -0.542714 0.498629 0
M  V30 913 H 99.6246 -0.839597 1.70443 0
M  V30 914 H 97.7746 -3.29553 2.05736 0
M  V30 915 H 99.4466 -1.84601 4.22753 0
M  V30 916 H 97.6896 -1.67213 4.00278 0
M  V30 917 H 98.3606 -3.23738 4.47099 0
M  V30 918 H 100.837 -3.29203 2.54489 0
M  V30 919 H 99.7126 -4.60008 2.99472 0
M  V30 920 H 99.9736 -4.22603 1.29842 0
M  V30 921 N 99.0327 -1.24633 -0.964593 0
M  V30 922 C 99.9427 -1.05859 -2.09359 0
M  V30 923 C 100.959 0.00148855 -1.74 0
M  V30 924 O 102.135 -0.197346 -2.00431 0
M  V30 925 C 99.1997 -0.668879 -3.40187 0
M  V30 926 C 98.2607 -1.80578 -3.89474 0
M  V30 927 C 97.4937 -1.43457 -5.14058 0
M  V30 928 O 97.7167 -0.325775 -5.69469 0
M  V30 929 O 96.6507 -2.2613 -5.57807 0
M  V30 930 H 100.477 -2.00516 -2.28094 0
M  V30 931 H 98.0617 -1.03481 -1.0776 0
M  V30 932 H 99.9437 -0.463211 -4.18846 0
M  V30 933 H 98.6187 0.248536 -3.22744 0
M  V30 934 H 97.5257 -2.06623 -3.11862 0
M  V30 935 H 98.8587 -2.70208 -4.11398 0
M  V30 936 N 100.511 1.16574 -1.06058 0
M  V30 937 C 101.76 1.86385 -0.770944 0
M  V30 938 C 102.073 1.82448 0.705129 0
M  V30 939 O 103.279 2.47815 1.10905 0
M  V30 940 C 101.735 3.34466 -1.32893 0
M  V30 941 C 101.343 3.46883 -2.83507 0
M  V30 942 C 103.087 4.09548 -1.11672 0
M  V30 943 C 100.994 4.89036 -3.32562 0
M  V30 944 H 99.9238 0.698181 -0.284709 0
M  V30 945 H 102.575 1.31583 -1.27899 0
M  V30 946 H 100.957 3.88859 -0.748662 0
M  V30 947 H 102.131 3.02663 -3.47465 0
M  V30 948 H 100.446 2.85232 -3.03368 0
M  V30 949 H 103.043 5.14434 -1.45814 0
M  V30 950 H 103.386 4.16264 -0.0549535 0
M  V30 951 H 103.919 3.61387 -1.66265 0
M  V30 952 H 100.658 4.87499 -4.38207 0
M  V30 953 H 100.178 5.3389 -2.73351 0
M  V30 954 H 101.857 5.57843 -3.2775 0
M  V30 955 N 101.989 0.842826 1.3317 0
M  V30 956 C 103.405 0.531128 1.50503 0
M  V30 957 C 103.605 -0.940734 1.78192 0
M  V30 958 O 102.661 -1.72436 1.84451 0
M  V30 959 C 103.974 1.40789 2.65705 0
M  V30 960 C 105.522 1.40708 2.79589 0
M  V30 961 C 105.997 2.26878 3.97857 0
M  V30 962 N 107.488 2.24609 4.05099 0
M  V30 963 C 108.223 2.88019 4.95815 0
M  V30 964 N 107.719 3.60496 5.9162 0
M  V30 965 N 109.512 2.77469 4.88843 0
M  V30 966 H 101.663 1.79557 1.1346 0
M  V30 967 H 103.926 0.766267 0.558156 0
M  V30 968 H 103.632 2.454 2.51936 0
M  V30 969 H 103.506 1.08677 3.61205 0
M  V30 970 H 105.893 0.368668 2.92788 0
M  V30 971 H 105.974 1.76829 1.84838 0
M  V30 972 H 105.618 3.3078 3.85418 0
M  V30 973 H 105.548 1.88096 4.91861 0
M  V30 974 H 108.039 1.71906 3.36536 0
M  V30 975 H 108.352 4.06076 6.57512 0
M  V30 976 H 106.697 3.64604 5.91683 0
M  V30 977 H 109.888 2.20406 4.12963 0
M  V30 978 H 110.061 3.2717 5.59342 0
M  V30 979 N 103.467 -1.45747 0.599634 0
M  V30 980 C 104.692 -2.07178 0.0960198 0
M  V30 981 C 105.117 -1.44268 -1.207 0
M  V30 982 O 104.475 -0.532503 -1.73303 0
M  V30 983 C 104.523 -3.60579 -0.0385348 0
M  V30 984 O 103.627 -3.97713 -1.0908 0
M  V30 985 H 102.968 -0.660251 0.0704593 0
M  V30 986 H 105.498 -1.87124 0.827385 0
M  V30 987 H 105.508 -4.07298 -0.239304 0
M  V30 988 H 104.183 -4.05756 0.912947 0
M  V30 989 H 102.76 -3.62678 -0.867135 0
M  V30 990 N 104.945 -0.338344 -1.53925 0
M  V30 991 C 106.361 0.0137736 -1.59594 0
M  V30 992 C 106.561 1.49186 -1.35447 0
M  V30 993 O 105.617 2.24987 -1.14616 0
M  V30 994 C 106.93 -0.41773 -2.97784 0
M  V30 995 C 108.478 -0.369633 -3.1081 0
M  V30 996 C 108.953 -0.776524 -4.51369 0
M  V30 997 N 110.444 -0.730506 -4.57403 0
M  V30 998 C 111.179 -1.01736 -5.64303 0
M  V30 999 N 110.675 -1.3721 -6.79077 0
M  V30 1000 N 112.468 -0.941942 -5.54151 0
M  V30 1001 H 104.619 -1.3012 -1.67876 0
M  V30 1002 H 106.882 -0.530082 -0.78595 0
M  V30 1003 H 106.588 -1.44811 -3.20504 0
M  V30 1004 H 106.462 0.209729 -3.76616 0
M  V30 1005 H 108.849 0.651568 -2.87817 0
M  V30 1006 H 108.93 -1.03223 -2.34049 0
M  V30 1007 H 108.574 -1.79571 -4.75096 0
M  V30 1008 H 108.504 -0.0914649 -5.26521 0
M  V30 1009 H 110.995 -0.468783 -3.74981 0
M  V30 1010 H 111.308 -1.57597 -7.5656 0
M  V30 1011 H 109.653 -1.4105 -6.80536 0
M  V30 1012 H 112.844 -0.664184 -4.63364 0
M  V30 1013 H 113.017 -1.16884 -6.37371 0
M  V30 1014 N 106.423 1.57458 -0.0668435 0
M  V30 1015 C 107.373 2.0896 0.912119 0
M  V30 1016 C 108.357 0.998186 1.26195 0
M  V30 1017 O 109.549 1.26133 1.24175 0
M  V30 1018 C 106.678 2.6508 2.18145 0
M  V30 1019 C 105.764 3.81218 1.85832 0
M  V30 1020 N 106.155 4.90378 1.23948 0
M  V30 1021 C 104.453 3.9042 2.15612 0
M  V30 1022 C 105.154 5.71279 1.09616 0
M  V30 1023 N 104.13 5.19389 1.60423 0
M  V30 1024 H 107.932 2.90749 0.42924 0
M  V30 1025 H 105.446 1.6182 0.137184 0
M  V30 1026 H 107.443 3.0029 2.89192 0
M  V30 1027 H 106.103 1.84736 2.67025 0
M  V30 1028 H 107.114 5.09847 0.909731 0
M  V30 1029 H 103.791 3.21043 2.66903 0
M  V30 1030 H 105.181 6.69085 0.614425 0
M  V30 1031 N 107.901 -0.206675 1.56239 0
M  V30 1032 C 109.126 -0.949474 1.8439 0
M  V30 1033 C 109.551 -1.76549 0.649016 0
M  V30 1034 O 108.909 -1.76782 -0.402231 0
M  V30 1035 C 108.957 -1.83078 3.10668 0
M  V30 1036 O 108.061 -2.9281 2.90407 0
M  V30 1037 H 107.402 -0.268033 0.607499 0
M  V30 1038 H 109.932 -0.215488 2.03462 0
M  V30 1039 H 109.942 -2.2377 3.41161 0
M  V30 1040 H 108.617 -1.23112 3.97261 0
M  V30 1041 H 107.194 -2.55956 2.71184 0
M  V30 1042 N 109.379 -1.50304 -0.473955 0
M  V30 1043 C 110.604 -1.65175 -1.25427 0
M  V30 1044 C 111.029 -0.333673 -1.85117 0
M  V30 1045 O 110.387 0.702114 -1.67153 0
M  V30 1046 C 110.435 -2.74295 -2.34082 0
M  V30 1047 O 109.539 -2.35349 -3.38651 0
M  V30 1048 H 108.88 -0.551944 -0.369126 0
M  V30 1049 H 111.41 -1.96662 -0.564364 0
M  V30 1050 H 111.42 -2.97285 -2.79438 0
M  V30 1051 H 110.095 -3.69959 -1.90008 0
M  V30 1052 H 108.672 -2.22794 -2.99027 0
M  V30 1053 N 110.857 0.726932 -1.39834 0
M  V30 1054 C 112.087 1.51393 -1.40583 0
M  V30 1055 C 112.495 1.892 -0.000740625 0
M  V30 1056 O 111.838 1.55189 0.982951 0
M  V30 1057 C 111.9 2.82588 -2.22226 0
M  V30 1058 C 111.564 2.67169 -3.70769 0
M  V30 1059 C 112.561 2.3518 -4.63666 0
M  V30 1060 C 110.246 2.83788 -4.14451 0
M  V30 1061 C 112.24 2.20002 -5.98229 0
M  V30 1062 C 109.927 2.68229 -5.49087 0
M  V30 1063 C 110.925 2.36382 -6.4079 0
M  V30 1064 O 110.613 2.2093 -7.72946 0
M  V30 1065 H 110.345 0.474168 -0.48181 0
M  V30 1066 H 112.899 0.905247 -1.84376 0
M  V30 1067 H 111.129 3.45746 -1.73195 0
M  V30 1068 H 112.818 3.44247 -2.15055 0
M  V30 1069 H 113.584 2.21984 -4.31217 0
M  V30 1070 H 109.463 3.07566 -3.43401 0
M  V30 1071 H 113.007 1.95067 -6.69772 0
M  V30 1072 H 108.904 2.81006 -5.81125 0
M  V30 1073 H 109.672 2.35937 -7.83757 0
M  V30 1074 N 112.336 1.25143 0.95797 0
M  V30 1075 C 113.747 1.08851 1.51685 0
M  V30 1076 C 114.098 -0.33687 1.93286 0
M  V30 1077 O 113.223 -1.22644 1.7829 0
M  V30 1078 C 113.818 1.96978 2.75654 0
M  V30 1079 C 112.377 1.84881 3.27866 0
M  V30 1080 C 111.524 1.91329 2.0072 0
M  V30 1081 H 114.475 1.38478 0.77522 0
M  V30 1082 H 114.496 1.5078 3.4935 0
M  V30 1083 H 114.008 3.00712 2.45345 0
M  V30 1084 H 112.109 0.840182 3.63004 0
M  V30 1085 H 112.222 2.6951 3.96107 0
M  V30 1086 H 110.586 1.35174 2.15871 0
M  V30 1087 H 111.369 2.96661 1.72764 0
M  V30 1088 N 113.814 -1.1601 1.06675 0
M  V30 1089 C 114.777 -2.18724 0.685001 0
M  V30 1090 C 115.777 -1.58496 -0.271246 0
M  V30 1091 O 116.967 -1.74119 -0.0531156 0
M  V30 1092 C 114.099 -3.40899 0.00853648 0
M  V30 1093 H 115.292 -2.54011 1.59431 0
M  V30 1094 H 112.845 -1.30352 0.862441 0
M  V30 1095 H 113.58 -3.11173 -0.913337 0
M  V30 1096 H 113.365 -3.8587 0.696204 0
M  V30 1097 H 114.855 -4.16886 -0.24414 0
M  V30 1098 N 115.292 -0.849877 -1.32721 0
M  V30 1099 C 116.54 -0.450032 -1.97026 0
M  V30 1100 C 116.861 0.996604 -1.67609 0
M  V30 1101 O 116.131 1.6958 -0.980786 0
M  V30 1102 H 114.711 -0.163426 -0.728904 0
M  V30 1103 H 117.373 -1.08526 -1.6189 0
M  V30 1104 H 116.469 -0.591146 -3.0645 0
M  V30 1105 N 116.77 1.45427 -0.607355 0
M  V30 1106 C 117.998 2.06614 -0.108814 0
M  V30 1107 C 118.413 1.45204 1.2067 0
M  V30 1108 O 117.77 0.566132 1.73497 0
M  V30 1109 C 117.821 3.61481 0.0375347 0
M  V30 1110 O 117.542 4.20598 -1.22593 0
M  V30 1111 C 119.043 4.39652 0.567561 0
M  V30 1112 H 116.263 0.66747 -0.0687351 0
M  V30 1113 H 118.807 1.86675 -0.835022 0
M  V30 1114 H 116.962 3.80762 0.714068 0
M  V30 1115 H 117.376 5.1377 -1.05547 0
M  V30 1116 H 118.85 5.48518 0.61905 0
M  V30 1117 H 119.327 4.09417 1.58978 0
M  V30 1118 H 119.933 4.25234 -0.0749202 0
M  V30 1119 N 118.248 0.346503 1.53744 0
M  V30 1120 C 119.158 -0.517293 2.28826 0
M  V30 1121 C 120.174 -1.10935 1.3405 0
M  V30 1122 O 121.35 -1.1244 1.6709 0
M  V30 1123 C 118.415 -1.65098 3.04866 0
M  V30 1124 C 117.476 -1.0884 4.15274 0
M  V30 1125 C 116.709 -2.16806 4.87679 0
M  V30 1126 O 116.932 -3.3758 4.59778 0
M  V30 1127 O 115.866 -1.80934 5.74061 0
M  V30 1128 H 119.692 0.0931396 3.03557 0
M  V30 1129 H 117.277 0.111458 1.48984 0
M  V30 1130 H 119.159 -2.31053 3.5241 0
M  V30 1131 H 117.834 -2.24717 2.32989 0
M  V30 1132 H 116.741 -0.3933 3.72027 0
M  V30 1133 H 118.074 -0.537036 4.89261 0
M  V30 1134 N 119.726 -1.57421 0.075193 0
M  V30 1135 C 121.003 -1.85029 -0.634329 0
M  V30 1136 C 121.383 -0.968305 -1.87582 0
M  V30 1137 O 120.731 -0.0354749 -2.28472 0
M  V30 1138 C 120.941 -3.35286 -0.968742 0
M  V30 1139 C 122.289 -4.02875 -1.34077 0
M  V30 1140 O 123.313 -3.40051 -1.06037 0
M  V30 1141 O 122.172 -5.13691 -1.86506 0
M  V30 1142 H 119.266 -0.7645 -0.315387 0
M  V30 1143 H 121.812 -1.69366 0.106382 0
M  V30 1144 H 120.584 -3.91203 -0.0871376 0
M  V30 1145 H 120.207 -3.56223 -1.7661 0
M  V30 1146 N 121.204 0.198386 -1.56346 0
M  V30 1147 C 122.481 0.944982 -1.71258 0
M  V30 1148 C 122.861 2.0151 -0.629048 0
M  V30 1149 O 122.209 2.25639 0.360473 0
M  V30 1150 C 122.419 1.5344 -3.1346 0
M  V30 1151 C 123.767 2.01778 -3.73591 0
M  V30 1152 O 124.791 1.63288 -3.16568 0
M  V30 1153 O 123.65 2.72594 -4.73661 0
M  V30 1154 H 120.744 0.442939 -0.69838 0
M  V30 1155 H 123.29 0.188342 -1.68652 0
M  V30 1156 H 122.062 0.762869 -3.83792 0
M  V30 1157 H 121.685 2.35596 -3.20282 0
M  V30 1158 N 122.682 1.50554 0.465978 0
M  V30 1159 C 123.592 1.72585 1.58907 0
M  V30 1160 C 124.608 0.60911 1.6299 0
M  V30 1161 O 125.784 0.88804 1.80765 0
M  V30 1162 C 122.849 1.81995 2.95091 0
M  V30 1163 C 121.91 3.05751 3.01355 0
M  V30 1164 C 121.143 3.14702 4.31043 0
M  V30 1165 O 121.366 2.30313 5.21835 0
M  V30 1166 O 120.3 4.07468 4.43005 0
M  V30 1167 H 124.126 2.67799 1.43239 0
M  V30 1168 H 121.711 1.34711 0.646013 0
M  V30 1169 H 123.593 1.90335 3.75966 0
M  V30 1170 H 122.268 0.899659 3.10947 0
M  V30 1171 H 121.175 3.02908 2.19539 0
M  V30 1172 H 122.508 3.97375 2.90437 0
M  V30 1173 N 124.16 -0.719506 1.40217 0
M  V30 1174 C 125.408 -1.47641 1.3801 0
M  V30 1175 C 125.729 -1.94992 -0.018145 0
M  V30 1176 O 124.999 -1.70073 -0.972207 0
M  V30 1177 H 123.579 -0.547744 0.507923 0
M  V30 1178 H 126.241 -0.853187 1.75233 0
M  V30 1179 H 125.337 -2.35112 2.05253 0
M  V30 1180 N 125.638 -1.25649 -0.95132 0
M  V30 1181 C 126.571 -1.00644 -2.04807 0
M  V30 1182 C 127.549 0.0654271 -1.62468 0
M  V30 1183 O 128.733 -0.074911 -1.88351 0
M  V30 1184 C 125.86 -0.522052 -3.34653 0
M  V30 1185 C 124.906 -1.58495 -3.95957 0
M  V30 1186 S 125.739 -3.17108 -4.31512 0
M  V30 1187 C 126.895 -2.70412 -5.64471 0
M  V30 1188 H 127.128 -1.93508 -2.25703 0
M  V30 1189 H 124.661 -1.09216 -1.09139 0
M  V30 1190 H 126.619 -0.24923 -4.09743 0
M  V30 1191 H 125.28 0.386146 -3.11717 0
M  V30 1192 H 124.473 -1.1968 -4.89584 0
M  V30 1193 H 124.075 -1.80862 -3.2736 0
M  V30 1194 H 126.367 -2.14245 -6.42733 0
M  V30 1195 H 127.31 -3.62693 -6.08161 0
M  V30 1196 H 127.718 -2.10302 -5.23864 0
M  V30 1197 N 127.117 1.15442 -1.07289 0
M  V30 1198 C 128.365 1.85845 -0.794096 0
M  V30 1199 C 128.686 1.82692 0.681809 0
M  V30 1200 O 127.956 1.26741 1.49377 0
M  V30 1201 H 126.536 0.688089 -0.290763 0
M  V30 1202 H 129.198 1.39947 -1.3565 0
M  V30 1203 H 128.294 2.91001 -1.12804 0
M  V30 1204 N 128.595 0.856903 1.32268 0
M  V30 1205 C 129.505 0.306131 2.32594 0
M  V30 1206 C 130.521 -0.577209 1.64147 0
M  V30 1207 O 131.697 -0.477043 1.95669 0
M  V30 1208 C 128.762 -0.494561 3.43154 0
M  V30 1209 C 127.823 0.415186 4.27288 0
M  V30 1210 C 127.056 -0.347387 5.32568 0
M  V30 1211 O 127.279 -1.57708 5.48165 0
M  V30 1212 O 126.213 0.287982 6.01211 0
M  V30 1213 H 130.039 1.13737 2.81598 0
M  V30 1214 H 127.624 0.619902 1.35932 0
M  V30 1215 H 129.506 -0.948944 4.10576 0
M  V30 1216 H 128.181 -1.30257 2.96336 0
M  V30 1217 H 127.088 0.917793 3.62667 0
M  V30 1218 H 128.421 1.18844 4.77637 0
M  V30 1219 N 130.073 -1.45103 0.615059 0
M  V30 1220 C 130.983 -2.34382 -0.101034 0
M  V30 1221 C 131.999 -1.51681 -0.852585 0
M  V30 1222 O 133.175 -1.8446 -0.808484 0
M  V30 1223 C 130.24 -3.29417 -1.08099 0
M  V30 1224 C 129.301 -4.28025 -0.330577 0
M  V30 1225 C 128.534 -5.1852 -1.26385 0
M  V30 1226 O 128.757 -5.12598 -2.50198 0
M  V30 1227 O 127.691 -5.97122 -0.756866 0
M  V30 1228 H 131.517 -2.97033 0.632855 0
M  V30 1229 H 129.102 -1.4461 0.375293 0
M  V30 1230 H 130.984 -3.87958 -1.6452 0
M  V30 1231 H 129.659 -2.69321 -1.79577 0
M  V30 1232 H 128.566 -3.73078 0.276283 0
M  V30 1233 H 129.899 -4.90997 0.343866 0
M  V30 1234 N 131.551 -0.354651 -1.53558 0
M  V30 1235 C 132.962 0.126902 -1.86268 0
M  V30 1236 C 133.313 1.49075 -1.27558 0
M  V30 1237 O 132.438 2.08105 -0.5934 0
M  V30 1238 C 133.033 0.237046 -3.3797 0
M  V30 1239 C 131.592 0.662842 -3.70518 0
M  V30 1240 C 130.739 -0.196652 -2.76602 0
M  V30 1241 H 133.69 -0.573849 -1.47962 0
M  V30 1242 H 133.711 1.06259 -3.65362 0
M  V30 1243 H 133.223 -0.755725 -3.80671 0
M  V30 1244 H 131.324 1.66424 -3.33367 0
M  V30 1245 H 131.437 0.445034 -4.77029 0
M  V30 1246 H 129.801 0.332763 -2.52517 0
M  V30 1247 H 130.584 -1.18676 -3.22135 0
M  V30 1248 N 133.029 1.57378 -0.0835403 0
M  V30 1249 C 134.254 1.98682 0.594987 0
M  V30 1250 C 134.679 0.961969 1.61641 0
M  V30 1251 O 134.037 -0.0709989 1.81161 0
M  V30 1252 C 134.085 3.38988 1.2296 0
M  V30 1253 O 133.189 3.39208 2.34546 0
M  V30 1254 H 132.53 0.646368 0.152002 0
M  V30 1255 H 135.06 2.03961 -0.161533 0
M  V30 1256 H 135.07 3.76431 1.57366 0
M  V30 1257 H 133.745 4.13107 0.481228 0
M  V30 1258 H 132.322 3.13548 2.01846 0
M  V30 1259 N 134.507 -0.190092 1.56449 0
M  V30 1260 C 135.918 -0.754312 1.70784 0
M  V30 1261 C 136.269 -1.83631 0.690951 0
M  V30 1262 O 135.394 -2.15868 -0.151604 0
M  V30 1263 C 135.989 -1.37503 3.09642 0
M  V30 1264 C 134.548 -1.88628 3.25725 0
M  V30 1265 C 133.695 -0.758098 2.66736 0
M  V30 1266 H 136.646 0.0350524 1.58661 0
M  V30 1267 H 136.667 -2.2445 3.0725 0
M  V30 1268 H 136.179 -0.587302 3.83631 0
M  V30 1269 H 134.28 -2.70103 2.56661 0
M  V30 1270 H 134.393 -2.04462 4.3328 0
M  V30 1271 H 132.757 -1.17369 2.26046 0
M  V30 1272 H 133.54 0.0174705 3.43296 0
M  V30 1273 N 135.985 -1.50799 -0.457987 0
M  V30 1274 C 137.232 -1.62442 -1.20908 0
M  V30 1275 C 137.56 -0.330865 -1.91665 0
M  V30 1276 O 136.815 0.68401 -1.83357 0
M  V30 1277 C 137.114 -2.76358 -2.2663 0
M  V30 1278 C 136.78 -4.16378 -1.73033 0
M  V30 1279 C 135.442 -4.54473 -1.58138 0
M  V30 1280 C 137.794 -5.03836 -1.33413 0
M  V30 1281 C 135.122 -5.77754 -1.02065 0
M  V30 1282 C 137.474 -6.27676 -0.78778 0
M  V30 1283 C 136.138 -6.64562 -0.625561 0
M  V30 1284 H 135.408 -0.594417 -0.442435 0
M  V30 1285 H 138.055 -1.84772 -0.503136 0
M  V30 1286 H 136.36 -2.48167 -3.03184 0
M  V30 1287 H 138.057 -2.82568 -2.84528 0
M  V30 1288 H 134.647 -3.86331 -1.85598 0
M  V30 1289 H 138.831 -4.75026 -1.4375 0
M  V30 1290 H 134.087 -6.04997 -0.882547 0
M  V30 1291 H 138.261 -6.94797 -0.472177 0
M  V30 1292 H 135.888 -7.59965 -0.188926 0
M  V30 1293 N 137.463 0.71206 -1.40597 0
M  V30 1294 C 138.879 1.02058 -1.22704 0
M  V30 1295 C 139.079 2.01228 -0.104729 0
M  V30 1296 O 138.135 2.4674 0.53624 0
M  V30 1297 C 139.448 1.56094 -2.57012 0
M  V30 1298 C 140.996 1.6806 -2.64054 0
M  V30 1299 C 141.471 2.25501 -3.9864 0
M  V30 1300 N 142.962 2.32882 -4.004 0
M  V30 1301 C 143.697 2.78317 -5.01325 0
M  V30 1302 N 143.193 3.23478 -6.12645 0
M  V30 1303 N 144.986 2.77733 -4.88693 0
M  V30 1304 H 137.137 0.0547896 -2.12329 0
M  V30 1305 H 139.4 0.0869027 -0.944008 0
M  V30 1306 H 139.106 0.906865 -3.39807 0
M  V30 1307 H 138.98 2.54564 -2.78347 0
M  V30 1308 H 141.367 2.32583 -1.81629 0
M  V30 1309 H 141.448 0.681802 -2.46546 0
M  V30 1310 H 141.092 1.61598 -4.81506 0
M  V30 1311 H 141.022 3.26102 -4.13479 0
M  V30 1312 H 143.513 2.00991 -3.20017 0
M  V30 1313 H 143.826 3.56725 -6.85542 0
M  V30 1314 H 142.171 3.21429 -6.16205 0
M  V30 1315 H 145.362 2.4179 -4.00818 0
M  V30 1316 H 145.535 3.12826 -5.67489 0
M  V30 1317 N 138.941 1.26152 0.944643 0
M  V30 1318 C 140.189 1.11271 1.6871 0
M  V30 1319 C 140.51 -0.345166 1.91921 0
M  V30 1320 O 139.78 -1.24387 1.51343 0
M  V30 1321 H 138.36 0.408783 0.625224 0
M  V30 1322 H 141.022 1.58427 1.1352 0
M  V30 1323 H 140.118 1.62879 2.66227 0
M  V30 1324 N 140.419 -1.14872 1.07899 0
M  V30 1325 C 141.835 -1.37776 0.805606 0
M  V30 1326 C 142.035 -1.92743 -0.587555 0
M  V30 1327 O 141.091 -2.13678 -1.34528 0
M  V30 1328 C 142.404 -2.34361 1.88402 0
M  V30 1329 C 143.952 -2.48012 1.90942 0
M  V30 1330 C 144.427 -3.47893 2.97883 0
M  V30 1331 N 145.918 -3.55433 2.97021 0
M  V30 1332 C 146.653 -4.32553 3.76412 0
M  V30 1333 N 146.149 -5.12959 4.65666 0
M  V30 1334 N 147.942 -4.27697 3.64735 0
M  V30 1335 H 140.093 -0.775365 1.97742 0
M  V30 1336 H 142.356 -0.403521 0.857831 0
M  V30 1337 H 142.062 -2.01098 2.88535 0
M  V30 1338 H 141.936 -3.34206 1.74889 0
M  V30 1339 H 144.323 -2.8057 0.914579 0
M  V30 1340 H 144.404 -1.48147 2.08534 0
M  V30 1341 H 144.048 -3.16069 3.97571 0
M  V30 1342 H 143.978 -4.47527 2.77538 0
M  V30 1343 H 146.469 -2.98048 2.32326 0
M  V30 1344 H 146.782 -5.69065 5.22862 0
M  V30 1345 H 145.127 -5.12245 4.69712 0
M  V30 1346 H 148.318 -3.63949 2.94378 0
M  V30 1347 H 148.491 -4.8755 4.26848 0
M  V30 1348 N 141.898 -0.863906 -1.31812 0
M  V30 1349 C 143.123 -0.48527 -2.01643 0
M  V30 1350 C 143.548 0.913058 -1.64453 0
M  V30 1351 O 142.906 1.6014 -0.849985 0
M  V30 1352 C 142.954 -0.642625 -3.54828 0
M  V30 1353 O 142.058 0.320659 -4.11151 0
M  V30 1354 H 141.399 -0.193793 -0.635091 0
M  V30 1355 H 143.929 -1.16565 -1.68148 0
M  V30 1356 H 143.939 -0.533628 -4.04495 0
M  V30 1357 H 142.614 -1.66227 -3.81237 0
M  V30 1358 H 141.191 0.167126 -3.72525 0
M  V30 1359 N 143.376 1.44774 -0.622745 0
M  V30 1360 C 144.792 1.56986 -0.287652 0
M  V30 1361 C 144.992 1.61167 1.20944 0
M  V30 1362 O 144.048 1.55015 1.99315 0
M  V30 1363 C 145.361 2.84551 -0.972188 0
M  V30 1364 C 146.909 2.9825 -0.949536 0
M  V30 1365 C 147.384 4.28605 -1.61437 0
M  V30 1366 N 148.875 4.35399 -1.58057 0
M  V30 1367 C 149.61 5.34964 -2.064 0
M  V30 1368 N 149.106 6.40981 -2.62897 0
M  V30 1369 N 150.899 5.26419 -1.97078 0
M  V30 1370 H 143.05 1.40304 -1.59463 0
M  V30 1371 H 145.313 0.671794 -0.668878 0
M  V30 1372 H 145.019 2.87417 -2.02693 0
M  V30 1373 H 144.893 3.73807 -0.504771 0
M  V30 1374 H 147.28 2.94941 0.0967067 0
M  V30 1375 H 147.361 2.10364 -1.45536 0
M  V30 1376 H 147.005 4.32672 -2.66002 0
M  V30 1377 H 146.935 5.15334 -1.08344 0
M  V30 1378 H 149.426 3.59397 -1.16801 0
M  V30 1379 H 149.739 7.13225 -2.97539 0
M  V30 1380 H 148.084 6.4169 -2.66943 0
M  V30 1381 H 151.275 4.42504 -1.52669 0
M  V30 1382 H 151.448 6.03861 -2.35066 0
M  V30 1383 N 144.854 0.36279 1.53368 0
M  V30 1384 C 146.079 -0.231226 2.06107 0
M  V30 1385 C 146.504 -1.419 1.23474 0
M  V30 1386 O 145.862 -1.79524 0.253128 0
M  V30 1387 C 145.91 -0.605523 3.5548 0
M  V30 1388 O 145.014 -1.70312 3.7559 0
M  V30 1389 H 144.355 -0.034327 0.663112 0
M  V30 1390 H 146.885 0.522584 1.97814 0
M  V30 1391 H 146.895 -0.877314 3.98456 0
M  V30 1392 H 145.57 0.263004 4.15068 0
M  V30 1393 H 144.147 -1.4271 3.44512 0
M  V30 1394 N 146.332 -1.57332 0.0918853 0
M  V30 1395 C 147.295 -2.12708 -0.85369 0
M  V30 1396 C 148.295 -1.05561 -1.213 0
M  V30 1397 O 149.485 -1.31461 -1.14296 0
M  V30 1398 C 146.617 -2.64503 -2.15061 0
M  V30 1399 H 147.81 -2.97573 -0.3729 0
M  V30 1400 H 145.363 -1.55509 -0.157072 0
M  V30 1401 H 146.098 -1.83149 -2.67632 0
M  V30 1402 H 145.883 -3.4284 -1.90272 0
M  V30 1403 H 147.373 -3.07351 -2.82711 0
M  V30 1404 N 147.81 0.181792 -1.56548 0
M  V30 1405 C 149.221 0.745244 -1.71181 0
M  V30 1406 C 149.572 1.83262 -0.70068 0
M  V30 1407 O 148.697 2.15946 0.140154 0
M  V30 1408 C 149.292 1.35859 -3.10367 0
M  V30 1409 C 147.851 1.86898 -3.2672 0
M  V30 1410 C 146.998 0.743942 -2.67134 0
M  V30 1411 H 149.949 -0.0434661 -1.5864 0
M  V30 1412 H 149.97 2.22817 -3.08436 0
M  V30 1413 H 149.482 0.566948 -3.83937 0
M  V30 1414 H 147.583 2.68738 -2.5809 0
M  V30 1415 H 147.696 2.02162 -4.34359 0
M  V30 1416 H 146.06 1.16169 -2.26665 0
M  V30 1417 H 146.843 -0.035676 -3.43281 0
M  V30 1418 N 149.288 1.51039 0.449983 0
M  V30 1419 C 150.699 1.557 1.03026 0
M  V30 1420 C 151.05 0.372939 1.92623 0
M  V30 1421 O 150.175 -0.511771 2.10261 0
M  V30 1422 C 150.77 2.82171 1.87523 0
M  V30 1423 C 149.329 2.89444 2.40622 0
M  V30 1424 C 148.476 2.50228 1.19504 0
M  V30 1425 H 151.427 1.56999 0.231745 0
M  V30 1426 H 151.448 2.65219 2.72835 0
M  V30 1427 H 150.96 3.68331 1.22286 0
M  V30 1428 H 149.061 2.07685 3.0935 0
M  V30 1429 H 149.174 3.92816 2.74285 0
M  V30 1430 H 147.538 2.03139 1.53644 0
M  V30 1431 H 148.321 3.38719 0.558972 0
M  V30 1432 N 150.766 -0.704594 1.40972 0
M  V30 1433 C 151.714 -1.83994 1.42299 0
M  V30 1434 C 152.708 -1.66684 0.302111 0
M  V30 1435 O 153.914 -1.73655 0.473697 0
M  V30 1436 H 150.289 -0.606171 0.44504 0
M  V30 1437 H 152.26 -1.79992 2.38003 0
M  V30 1438 C 151.009 -3.21946 1.31323 0
M  V30 1439 H 150.332 -3.35878 2.16855 0
M  V30 1440 H 151.772 -4.01491 1.36311 0
M  V30 1441 C 150.231 -3.36891 0.0245977 0
M  V30 1442 O 150.761 -3.90687 -0.934153 0
M  V30 1443 N 148.967 -2.90559 -0.0485243 0
M  V30 1444 H 148.514 -2.46968 0.732419 0
M  V30 1445 H 148.472 -3.00937 -0.910171 0
M  V30 1446 N 152.244 -1.26651 -0.937939 0
M  V30 1447 C 153.174 -1.10993 -2.05433 0
M  V30 1448 C 154.155 -0.0142161 -1.70094 0
M  V30 1449 O 155.34 -0.186837 -1.93299 0
M  V30 1450 C 152.47 -0.745561 -3.39203 0
M  V30 1451 C 151.424 -1.79337 -3.88616 0
M  V30 1452 C 150.75 -1.28324 -5.19073 0
M  V30 1453 C 152.05 -3.19553 -4.13138 0
M  V30 1454 H 153.744 -2.0438 -2.1879 0
M  V30 1455 H 151.29 -0.984041 -1.05131 0
M  V30 1456 H 153.243 -0.622888 -4.16771 0
M  V30 1457 H 151.967 0.22401 -3.25831 0
M  V30 1458 H 150.626 -1.90477 -3.13231 0
M  V30 1459 H 150.274 -0.303414 -5.02084 0
M  V30 1460 H 149.974 -1.98369 -5.53103 0
M  V30 1461 H 151.498 -1.1733 -5.99221 0
M  V30 1462 H 152.912 -3.11471 -4.81309 0
M  V30 1463 H 151.309 -3.87218 -4.58457 0
M  V30 1464 H 152.379 -3.65368 -3.18801 0
M  V30 1465 N 153.722 1.14298 -1.08507 0
M  V30 1466 C 154.968 1.85854 -0.826438 0
M  V30 1467 C 155.323 1.81413 0.640878 0
M  V30 1468 O 154.616 1.23463 1.46518 0
M  V30 1469 C 154.81 3.33547 -1.28379 0
M  V30 1470 C 154.639 3.52369 -2.79403 0
M  V30 1471 C 153.409 3.67159 -3.47164 0
M  V30 1472 C 155.607 3.49203 -3.77573 0
M  V30 1473 N 153.589 3.74149 -4.86709 0
M  V30 1474 C 154.96 3.6245 -5.03021 0
M  V30 1475 C 157.015 3.32547 -3.70563 0
M  V30 1476 C 155.718 3.60761 -6.2229 0
M  V30 1477 C 157.744 3.32162 -4.89308 0
M  V30 1478 C 157.106 3.45949 -6.13595 0
M  V30 1479 H 153.205 0.696705 -0.355143 0
M  V30 1480 H 155.789 1.36981 -1.38362 0
M  V30 1481 H 153.96 3.81008 -0.754166 0
M  V30 1482 H 155.692 3.92867 -0.971469 0
M  V30 1483 H 152.447 3.68433 -2.9758 0
M  V30 1484 H 152.871 3.81359 -5.5937 0
M  V30 1485 H 157.513 3.20797 -2.75407 0
M  V30 1486 H 155.231 3.71286 -7.17755 0
M  V30 1487 H 158.817 3.20485 -4.85573 0
M  V30 1488 H 157.697 3.456 -7.03939 0
M  V30 1489 N 155.201 0.870884 1.31352 0
M  V30 1490 C 156.164 0.332243 2.26779 0
M  V30 1491 C 157.164 -0.517302 1.52252 0
M  V30 1492 O 158.354 -0.326477 1.71113 0
M  V30 1493 C 155.486 -0.528066 3.36785 0
M  V30 1494 H 156.679 1.17469 2.75937 0
M  V30 1495 H 154.232 0.64655 1.423 0
M  V30 1496 H 154.967 -1.39167 2.92922 0
M  V30 1497 H 154.752 0.0802582 3.92018 0
M  V30 1498 H 156.242 -0.897179 4.07849 0
M  V30 1499 N 156.679 -1.44442 0.630414 0
M  V30 1500 C 157.642 -2.29107 -0.0652523 0
M  V30 1501 C 158.642 -1.41002 -0.772995 0
M  V30 1502 O 159.832 -1.62881 -0.617692 0
M  V30 1503 C 156.964 -3.22564 -1.10296 0
M  V30 1504 H 158.157 -2.92103 0.679401 0
M  V30 1505 H 155.71 -1.51343 0.390517 0
M  V30 1506 H 156.445 -2.64416 -1.87762 0
M  V30 1507 H 156.23 -3.87491 -0.59941 0
M  V30 1508 H 157.72 -3.86167 -1.5895 0
M  V30 1509 N 158.157 -0.370918 -1.53173 0
M  V30 1510 C 159.089 0.507823 -2.23503 0
M  V30 1511 C 160.102 1.04182 -1.251 0
M  V30 1512 O 161.291 0.947286 -1.5129 0
M  V30 1513 C 158.391 1.71447 -2.92334 0
M  V30 1514 C 157.564 1.31105 -4.17289 0
M  V30 1515 C 156.623 2.38035 -4.69282 0
M  V30 1516 O 155.649 2.00204 -5.32829 0
M  V30 1517 N 156.851 3.69697 -4.47554 0
M  V30 1518 H 159.616 -0.0946382 -2.99551 0
M  V30 1519 H 157.177 -0.196358 -1.60705 0
M  V30 1520 H 159.169 2.42469 -3.24023 0
M  V30 1521 H 157.739 2.22368 -2.19707 0
M  V30 1522 H 156.959 0.430462 -3.91843 0
M  V30 1523 H 158.247 1.0179 -4.98514 0
M  V30 1524 H 157.645 4.03205 -3.9679 0
M  V30 1525 H 156.202 4.36807 -4.8378 0
M  V30 1526 N 159.635 1.57281 -0.100228 0
M  V30 1527 C 161.051 1.57527 0.256416 0
M  V30 1528 C 161.251 1.11173 1.68056 0
M  V30 1529 O 160.307 0.79053 2.39806 0
M  V30 1530 C 161.62 3.00673 0.0401747 0
M  V30 1531 C 163.168 3.12815 0.107528 0
M  V30 1532 C 163.643 4.57929 -0.0807834 0
M  V30 1533 N 165.134 4.63193 -0.0261207 0
M  V30 1534 C 165.869 5.73212 -0.146999 0
M  V30 1535 N 165.365 6.92047 -0.322999 0
M  V30 1536 N 167.158 5.62031 -0.0879044 0
M  V30 1537 H 159.309 1.85718 -1.03065 0
M  V30 1538 H 161.572 0.857446 -0.404339 0
M  V30 1539 H 161.278 3.38804 -0.943649 0
M  V30 1540 H 161.152 3.69042 0.780262 0
M  V30 1541 H 163.539 2.74554 1.08186 0
M  V30 1542 H 163.62 2.47028 -0.664134 0
M  V30 1543 H 163.264 4.96886 -1.05201 0
M  V30 1544 H 163.194 5.21783 0.710635 0
M  V30 1545 H 165.685 3.77748 0.107161 0
M  V30 1546 H 165.998 7.7173 -0.406608 0
M  V30 1547 H 164.343 6.94074 -0.358733 0
M  V30 1548 H 167.534 4.68075 0.048498 0
M  V30 1549 H 167.707 6.47734 -0.185557 0
M  V30 1550 N 161.113 -0.173488 1.56642 0
M  V30 1551 C 162.343 -0.904781 1.85734 0
M  V30 1552 C 162.751 -1.76431 0.68328 0
M  V30 1553 O 162.094 -1.802 -0.356865 0
M  V30 1554 C 162.156 -1.83382 3.09211 0
M  V30 1555 C 161.82 -1.15411 4.42187 0
M  V30 1556 C 162.817 -0.520609 5.17287 0
M  V30 1557 C 160.502 -1.15151 4.88923 0
M  V30 1558 C 162.496 0.106412 6.37311 0
M  V30 1559 C 160.183 -0.520664 6.08878 0
M  V30 1560 C 161.181 0.107196 6.82916 0
M  V30 1561 O 160.869 0.728102 8.00596 0
M  V30 1562 H 160.601 -0.268408 0.62043 0
M  V30 1563 H 163.155 -0.179096 2.04618 0
M  V30 1564 H 161.385 -2.59976 2.86268 0
M  V30 1565 H 163.074 -2.43476 3.24768 0
M  V30 1566 H 163.84 -0.514606 4.82262 0
M  V30 1567 H 159.719 -1.62961 4.31236 0
M  V30 1568 H 163.263 0.597081 6.9504 0
M  V30 1569 H 159.16 -0.524242 6.43368 0
M  V30 1570 H 159.928 0.627138 8.16094 0
M  V30 1571 N 162.591 -1.51276 -0.441967 0
M  V30 1572 C 163.839 -1.63392 -1.18943 0
M  V30 1573 C 164.16 -0.350159 -1.9183 0
M  V30 1574 O 163.43 0.633784 -1.85364 0
M  V30 1575 H 162.01 -0.602164 -0.442049 0
M  V30 1576 H 164.672 -1.88186 -0.507165 0
M  V30 1577 H 163.768 -2.45934 -1.92154 0
M  V30 1578 N 164.069 0.697108 -1.41344 0
M  V30 1579 C 165.485 1.00751 -1.2378 0
M  V30 1580 C 165.685 2.01105 -0.126066 0
M  V30 1581 O 164.741 2.47295 0.51004 0
M  V30 1582 C 166.054 1.53359 -2.58653 0
M  V30 1583 C 167.602 1.6525 -2.65822 0
M  V30 1584 C 168.077 2.2126 -4.01009 0
M  V30 1585 N 169.568 2.28622 -4.02847 0
M  V30 1586 C 170.303 2.72984 -5.04249 0
M  V30 1587 N 169.799 3.16962 -6.16041 0
M  V30 1588 N 171.592 2.72534 -4.91611 0
M  V30 1589 H 163.743 0.0322662 -2.12375 0
M  V30 1590 H 166.006 0.0768853 -0.944877 0
M  V30 1591 H 165.712 0.870773 -3.4075 0
M  V30 1592 H 165.586 2.51597 -2.81032 0
M  V30 1593 H 167.973 2.30644 -1.84086 0
M  V30 1594 H 168.054 0.655614 -2.47256 0
M  V30 1595 H 167.698 1.56482 -4.83193 0
M  V30 1596 H 167.628 3.21698 -4.16915 0
M  V30 1597 H 170.119 1.97585 -3.22131 0
M  V30 1598 H 170.432 3.49434 -6.89287 0
M  V30 1599 H 168.777 3.14875 -6.1958 0
M  V30 1600 H 171.968 2.37525 -4.0336 0
M  V30 1601 H 172.141 3.06789 -5.70775 0
M  V30 1602 N 165.547 1.27147 0.931209 0
M  V30 1603 C 166.457 1.11372 2.06478 0
M  V30 1604 C 167.473 0.044645 1.73943 0
M  V30 1605 O 168.649 0.250417 1.99837 0
M  V30 1606 C 165.714 0.758838 3.38294 0
M  V30 1607 C 164.775 1.90841 3.84549 0
M  V30 1608 C 164.008 1.57036 5.10074 0
M  V30 1609 O 164.231 0.476645 5.68405 0
M  V30 1610 O 163.165 2.40839 5.51616 0
M  V30 1611 H 166.991 2.06493 2.22698 0
M  V30 1612 H 164.576 1.06301 1.04978 0
M  V30 1613 H 166.458 0.574098 4.17471 0
M  V30 1614 H 165.133 -0.162879 3.2329 0
M  V30 1615 H 164.04 2.14819 3.06274 0
M  V30 1616 H 165.373 2.81021 4.04089 0
M  V30 1617 N 167.025 -1.13721 1.09112 0
M  V30 1618 C 167.955 -2.21148 0.749385 0
M  V30 1619 C 168.936 -1.6792 -0.271475 0
M  V30 1620 O 170.121 -1.93693 -0.140251 0
M  V30 1621 C 167.251 -3.46905 0.165659 0
M  V30 1622 C 166.205 -4.13203 1.11567 0
M  V30 1623 C 165.531 -5.33248 0.393809 0
M  V30 1624 C 166.831 -4.60912 2.45678 0
M  V30 1625 H 168.525 -2.4999 1.64758 0
M  V30 1626 H 166.071 -1.20156 0.793626 0
M  V30 1627 H 168.024 -4.21313 -0.085466 0
M  V30 1628 H 166.748 -3.17449 -0.767714 0
M  V30 1629 H 165.407 -3.40758 1.35202 0
M  V30 1630 H 165.055 -5.00054 -0.543599 0
M  V30 1631 H 164.755 -5.78552 1.02721 0
M  V30 1632 H 166.279 -6.10413 0.150908 0
M  V30 1633 H 167.693 -5.26759 2.26269 0
M  V30 1634 H 166.09 -5.16944 3.04776 0
M  V30 1635 H 167.16 -3.75603 3.06677 0
M  V30 1636 N 168.503 -0.877838 -1.30888 0
M  V30 1637 C 169.919 -0.570844 -1.49042 0
M  V30 1638 C 170.119 0.893159 -1.80624 0
M  V30 1639 O 169.175 1.67485 -1.88958 0
M  V30 1640 C 170.488 -1.47784 -2.61878 0
M  V30 1641 C 172.036 -1.48071 -2.75761 0
M  V30 1642 C 172.511 -2.37347 -3.91702 0
M  V30 1643 N 174.002 -2.35271 -3.99001 0
M  V30 1644 C 174.737 -3.01063 -4.88004 0
M  V30 1645 N 174.233 -3.76055 -5.81854 0
M  V30 1646 N 176.026 -2.90332 -4.81315 0
M  V30 1647 H 168.177 -1.82502 -1.0866 0
M  V30 1648 H 170.44 -0.780797 -0.537644 0
M  V30 1649 H 170.146 -2.51993 -2.45341 0
M  V30 1650 H 170.02 -1.18215 -3.58197 0
M  V30 1651 H 172.407 -0.446166 -2.91708 0
M  V30 1652 H 172.488 -1.81668 -1.80085 0
M  V30 1653 H 172.132 -3.40883 -3.76512 0
M  V30 1654 H 172.062 -2.01071 -4.86701 0
M  V30 1655 H 174.553 -1.80768 -3.3186 0
M  V30 1656 H 174.866 -4.23366 -6.46514 0
M  V30 1657 H 173.211 -3.80163 -5.81808 0
M  V30 1658 H 176.402 -2.31278 -4.06974 0
M  V30 1659 H 176.575 -3.41885 -5.50471 0
M  V30 1660 N 169.982 1.44106 -0.638065 0
M  V30 1661 C 171.398 1.56672 -0.304286 0
M  V30 1662 C 171.598 1.6244 1.19228 0
M  V30 1663 O 170.654 1.57121 1.9766 0
M  V30 1664 C 171.967 2.83503 -1.00231 0
M  V30 1665 C 173.515 2.97226 -0.981116 0
M  V30 1666 C 173.99 4.26868 -1.65974 0
M  V30 1667 N 175.481 4.33698 -1.62666 0
M  V30 1668 C 176.216 5.32745 -2.12063 0
M  V30 1669 N 175.712 6.38157 -2.6968 0
M  V30 1670 N 177.505 5.24299 -2.02651 0
M  V30 1671 H 169.656 1.38605 -1.60942 0
M  V30 1672 H 171.919 0.664661 -0.675965 0
M  V30 1673 H 171.625 2.85251 -2.0573 0
M  V30 1674 H 171.499 3.73251 -0.54439 0
M  V30 1675 H 173.886 2.95027 0.0654188 0
M  V30 1676 H 173.967 2.08808 -1.47759 0
M  V30 1677 H 173.611 4.29826 -2.70576 0
M  V30 1678 H 173.541 5.14156 -1.13804 0
M  V30 1679 H 176.032 3.58138 -1.20606 0
M  V30 1680 H 176.345 7.10029 -3.05087 0
M  V30 1681 H 174.69 6.38823 -2.73734 0
M  V30 1682 H 177.881 4.4086 -1.57353 0
M  V30 1683 H 178.054 6.01334 -2.41457 0
M  V30 1684 N 171.46 0.379036 1.52974 0
M  V30 1685 C 172.393 -0.504932 2.22544 0
M  V30 1686 C 173.371 -1.0723 1.22231 0
M  V30 1687 O 174.555 -1.12589 1.51182 0
M  V30 1688 C 171.682 -1.69794 2.93066 0
M  V30 1689 C 170.728 -1.25678 4.07563 0
M  V30 1690 S 171.561 -0.246852 5.34931 0
M  V30 1691 C 172.717 -1.44588 6.08971 0
M  V30 1692 H 172.95 0.0858666 2.97176 0
M  V30 1693 H 170.483 0.163183 1.53535 0
M  V30 1694 H 172.441 -2.38219 3.34308 0
M  V30 1695 H 171.102 -2.26002 2.18133 0
M  V30 1696 H 170.295 -2.14725 4.5597 0
M  V30 1697 H 169.897 -0.651584 3.6828 0
M  V30 1698 H 172.189 -2.37469 6.34519 0
M  V30 1699 H 173.132 -1.00292 7.00962 0
M  V30 1700 H 173.54 -1.65804 5.39601 0
M  V30 1701 N 172.938 -1.57226 0.108567 0
M  V30 1702 C 174.163 -1.99604 -0.563303 0
M  V30 1703 C 174.588 -0.987563 -1.6009 0
M  V30 1704 O 173.946 0.0421687 -1.81251 0
M  V30 1705 C 173.994 -3.40902 -1.17552 0
M  V30 1706 O 173.098 -3.42896 -2.2912 0
M  V30 1707 H 172.439 -0.648704 -0.1417 0
M  V30 1708 H 174.969 -2.03679 0.193961 0
M  V30 1709 H 174.979 -3.78886 -1.51357 0
M  V30 1710 H 173.654 -4.1382 -0.415445 0
M  V30 1711 H 172.231 -3.1672 -1.96832 0
M  V30 1712 N 174.416 0.165178 -1.56732 0
M  V30 1713 C 175.693 0.908443 -1.73224 0
M  V30 1714 C 176.073 2.0013 -0.67165 0
M  V30 1715 O 175.421 2.26353 0.31253 0
M  V30 1716 C 175.631 1.46756 -3.16644 0
M  V30 1717 C 176.979 1.93809 -3.77787 0
M  V30 1718 O 178.003 1.56537 -3.1996 0
M  V30 1719 O 176.862 2.62486 -4.79336 0
M  V30 1720 H 173.956 0.428025 -0.707618 0
M  V30 1721 H 176.502 0.152526 -1.69013 0
M  V30 1722 H 175.274 0.68129 -3.85323 0
M  V30 1723 H 174.897 2.28749 -3.25207 0
M  V30 1724 N 175.894 1.51508 0.433938 0
M  V30 1725 C 176.804 1.75917 1.5521 0
M  V30 1726 C 177.82 0.643545 1.61662 0
M  V30 1727 O 178.996 0.926183 1.7884 0
M  V30 1728 C 176.061 1.88213 2.91164 0
M  V30 1729 C 175.122 3.12074 2.94802 0
M  V30 1730 C 174.355 3.23774 4.24271 0
M  V30 1731 O 174.578 2.4133 5.16833 0
M  V30 1732 O 173.512 4.16774 4.34262 0
M  V30 1733 H 177.338 2.70777 1.37527 0
M  V30 1734 H 174.923 1.36051 0.617293 0
M  V30 1735 H 176.805 1.98267 3.71845 0
M  V30 1736 H 175.48 0.965413 3.08968 0
M  V30 1737 H 174.387 3.07497 2.13065 0
M  V30 1738 H 175.72 4.03446 2.81943 0
M  V30 1739 N 177.372 -0.689602 1.41712 0
M  V30 1740 C 178.619 -1.44966 1.4139 0
M  V30 1741 C 178.947 -1.94484 0.025105 0
M  V30 1742 O 178.202 -1.70307 -0.964048 0
M  V30 1743 C 178.501 -2.67298 2.37247 0
M  V30 1744 C 178.167 -2.36405 3.83958 0
M  V30 1745 C 176.829 -2.27691 4.23923 0
M  V30 1746 C 179.181 -2.11043 4.76561 0
M  V30 1747 C 176.509 -1.91719 5.54492 0
M  V30 1748 C 178.861 -1.76578 6.07456 0
M  V30 1749 C 177.525 -1.66363 6.46436 0
M  V30 1750 H 176.795 -0.53047 0.517381 0
M  V30 1751 H 179.442 -0.787655 1.74552 0
M  V30 1752 H 177.747 -3.38461 1.9736 0
M  V30 1753 H 179.444 -3.25452 2.34269 0
M  V30 1754 H 176.034 -2.44085 3.52308 0
M  V30 1755 H 180.218 -2.16717 4.46483 0
M  V30 1756 H 175.474 -1.82367 5.83568 0
M  V30 1757 H 179.648 -1.55974 6.78708 0
M  V30 1758 H 177.275 -1.38258 7.47522 0
M  V30 1759 N 178.85 -1.27639 -0.924453 0
M  V30 1760 C 180.096 -1.14336 -1.67497 0
M  V30 1761 C 180.429 0.309465 -1.91718 0
M  V30 1762 O 179.704 1.22608 -1.50989 0
M  V30 1763 C 179.987 -1.93096 -3.0395 0
M  V30 1764 C 179.84 -3.46381 -2.8695 0
M  V30 1765 C 181.159 -1.73798 -4.0433 0
M  V30 1766 H 178.278 -0.416728 -0.607871 0
M  V30 1767 H 180.92 -1.56832 -1.07256 0
M  V30 1768 H 179.07 -1.56982 -3.55372 0
M  V30 1769 H 180.742 -3.92343 -2.42621 0
M  V30 1770 H 178.985 -3.72557 -2.22225 0
M  V30 1771 H 179.656 -3.96735 -3.83804 0
M  V30 1772 H 182.132 -2.05293 -3.61931 0
M  V30 1773 H 181.008 -2.31294 -4.97789 0
M  V30 1774 H 181.269 -0.686725 -4.36734 0
M  V30 1775 N 180.328 1.1314 -1.09713 0
M  V30 1776 C 181.605 1.80762 -0.747302 0
M  V30 1777 C 181.985 1.96663 0.767265 0
M  V30 1778 O 181.333 1.53706 1.69076 0
M  V30 1779 C 181.543 3.15606 -1.48975 0
M  V30 1780 C 182.891 3.90914 -1.65746 0
M  V30 1781 O 183.915 3.25239 -1.45251 0
M  V30 1782 O 182.774 5.08718 -1.9967 0
M  V30 1783 H 179.868 0.782103 -0.268782 0
M  V30 1784 H 182.414 1.20041 -1.19951 0
M  V30 1785 H 181.186 2.99278 -2.52088 0
M  V30 1786 H 180.809 3.84029 -1.02991 0
M  V30 1787 N 181.806 0.884767 1.30421 0
M  V30 1788 C 183.031 0.517288 2.00845 0
M  V30 1789 C 183.456 -0.886779 1.65885 0
M  V30 1790 O 182.814 -1.58768 0.875354 0
M  V30 1791 C 182.862 0.698994 3.5376 0
M  V30 1792 O 181.966 -0.255208 4.1161 0
M  V30 1793 H 181.307 0.203872 0.631927 0
M  V30 1794 H 183.837 1.19225 1.66272 0
M  V30 1795 H 183.847 0.597912 4.03595 0
M  V30 1796 H 182.522 1.72271 3.78544 0
M  V30 1797 H 181.099 -0.10784 3.72744 0
M  V30 1798 N 183.284 -1.43765 0.645699 0
M  V30 1799 C 184.531 -2.01898 0.15604 0
M  V30 1800 C 184.859 -1.50887 -1.22733 0
M  V30 1801 O 184.114 -0.689271 -1.8316 0
M  V30 1802 C 184.413 -3.57238 0.107679 0
M  V30 1803 C 184.079 -4.27564 1.43178 0
M  V30 1804 C 182.741 -4.46492 1.7944 0
M  V30 1805 C 185.093 -4.67454 2.30513 0
M  V30 1806 C 182.421 -5.02573 3.02716 0
M  V30 1807 C 184.773 -5.24901 3.53074 0
M  V30 1808 C 183.437 -5.42046 3.89541 0
M  V30 1809 H 182.707 -0.738797 0.057099 0
M  V30 1810 H 185.354 -1.72341 0.834912 0
M  V30 1811 H 183.659 -3.86293 -0.654618 0
M  V30 1812 H 185.356 -3.99965 -0.287938 0
M  V30 1813 H 181.946 -4.13171 1.13963 0
M  V30 1814 H 186.13 -4.5253 2.0379 0
M  V30 1815 H 181.386 -5.14033 3.31028 0
M  V30 1816 H 185.56 -5.54758 4.20971 0
M  V30 1817 H 183.187 -5.85268 4.85145 0
M  V30 1818 N 184.763 -0.387143 -1.52771 0
M  V30 1819 C 185.71 0.449048 -2.26389 0
M  V30 1820 C 186.68 1.05961 -1.27912 0
M  V30 1821 O 187.865 1.08804 -1.56737 0
M  V30 1822 C 185.005 1.57155 -3.0724 0
M  V30 1823 C 184.118 0.984066 -4.20643 0
M  V30 1824 C 183.253 2.07745 -4.88892 0
M  V30 1825 C 182.292 1.46574 -5.94292 0
M  V30 1826 N 181.429 2.49834 -6.56146 0
M  V30 1827 H 186.269 -0.185205 -2.97424 0
M  V30 1828 H 183.806 -0.103164 -1.46738 0
M  V30 1829 H 185.764 2.23309 -3.52405 0
M  V30 1830 H 184.394 2.17615 -2.38419 0
M  V30 1831 H 183.446 0.212193 -3.79808 0
M  V30 1832 H 184.758 0.497029 -4.96318 0
M  V30 1833 H 183.912 2.81673 -5.3735 0
M  V30 1834 H 182.651 2.59807 -4.12737 0
M  V30 1835 H 181.656 0.711696 -5.45174 0
M  V30 1836 H 182.881 0.953088 -6.72379 0
M  V30 1837 H 180.827 3.0107 -5.82832 0
M  V30 1838 H 180.744 2.05879 -7.27427 0
M  V30 1839 H 182.012 3.23399 -7.09249 0
M  V30 1840 N 186.241 1.57166 -0.116904 0
M  V30 1841 C 187.188 2.15202 0.83408 0
M  V30 1842 C 188.158 1.07644 1.26499 0
M  V30 1843 O 189.343 1.35541 1.34288 0
M  V30 1844 C 186.483 2.75405 2.07957 0
M  V30 1845 C 185.596 3.97264 1.69721 0
M  V30 1846 C 184.731 4.45561 2.89221 0
M  V30 1847 C 183.77 5.59956 2.47215 0
M  V30 1848 N 182.907 6.03006 3.59622 0
M  V30 1849 H 187.747 2.96141 0.332335 0
M  V30 1850 H 185.284 1.46309 0.152349 0
M  V30 1851 H 187.242 3.08439 2.80929 0
M  V30 1852 H 185.872 1.97159 2.55594 0
M  V30 1853 H 184.924 3.70404 0.866316 0
M  V30 1854 H 186.236 4.80226 1.34849 0
M  V30 1855 H 185.39 4.80493 3.7042 0
M  V30 1856 H 184.129 3.61544 3.27318 0
M  V30 1857 H 183.134 5.2463 1.64448 0
M  V30 1858 H 184.359 6.45738 2.10238 0
M  V30 1859 H 182.305 5.21931 3.97396 0
M  V30 1860 H 182.222 6.80819 3.28667 0
M  V30 1861 H 183.49 6.42576 4.41267 0
M  V30 1862 N 187.719 -0.156864 1.56817 0
M  V30 1863 C 188.967 -0.869404 1.82444 0
M  V30 1864 C 189.288 -1.82147 0.69623 0
M  V30 1865 O 188.558 -1.93847 -0.28287 0
M  V30 1866 H 187.138 -0.324043 0.673056 0
M  V30 1867 H 189.8 -0.153224 1.94297 0
M  V30 1868 H 188.896 -1.43761 2.77019 0
M  V30 1869 N 189.197 -1.51736 -0.425897 0
M  V30 1870 C 190.127 -1.76827 -1.52494 0
M  V30 1871 C 191.108 -0.618524 -1.58456 0
M  V30 1872 O 192.293 -0.862416 -1.74 0
M  V30 1873 C 189.423 -1.90374 -2.90474 0
M  V30 1874 C 188.377 -3.0588 -2.99369 0
M  V30 1875 C 187.703 -3.04625 -4.3944 0
M  V30 1876 C 189.003 -4.45644 -2.72394 0
M  V30 1877 H 190.697 -2.68855 -1.31748 0
M  V30 1878 H 188.243 -1.29372 -0.632362 0
M  V30 1879 H 190.196 -2.0651 -3.6733 0
M  V30 1880 H 188.92 -0.95004 -3.12477 0
M  V30 1881 H 187.579 -2.89467 -2.24954 0
M  V30 1882 H 187.227 -2.0701 -4.58428 0
M  V30 1883 H 186.927 -3.82195 -4.46319 0
M  V30 1884 H 188.451 -3.22869 -5.18255 0
M  V30 1885 H 189.865 -4.62348 -3.38979 0
M  V30 1886 H 188.262 -5.25006 -2.9067 0
M  V30 1887 H 189.332 -4.54893 -1.67929 0
M  V30 1888 N 190.675 0.682077 -1.42076 0
M  V30 1889 C 192.086 1.26246 -1.37546 0
M  V30 1890 C 192.437 1.96092 -0.0651481 0
M  V30 1891 O 191.562 1.99587 0.836297 0
M  V30 1892 C 192.157 2.29594 -2.49143 0
M  V30 1893 C 190.716 2.83175 -2.47969 0
M  V30 1894 C 189.863 1.57395 -2.28303 0
M  V30 1895 H 192.814 0.475937 -1.51395 0
M  V30 1896 H 192.835 3.11175 -2.18976 0
M  V30 1897 H 192.347 1.78729 -3.44496 0
M  V30 1898 H 190.448 3.3818 -1.56413 0
M  V30 1899 H 190.561 3.32687 -3.44755 0
M  V30 1900 H 188.925 1.83699 -1.76428 0
M  V30 1901 H 189.708 1.08507 -3.25701 0
M  V30 1902 N 192.153 1.28127 0.917671 0
M  V30 1903 C 193.569 1.05749 1.19538 0
M  V30 1904 C 193.769 -0.202633 2.00479 0
M  V30 1905 O 192.825 -0.905382 2.3571 0
M  V30 1906 C 194.138 2.30273 1.93378 0
M  V30 1907 C 195.686 2.35412 2.06277 0
M  V30 1908 C 196.161 3.59692 2.83524 0
M  V30 1909 N 197.652 3.60309 2.91087 0
M  V30 1910 C 198.387 4.53147 3.51348 0
M  V30 1911 N 197.883 5.563 4.12919 0
M  V30 1912 N 199.676 4.40751 3.48849 0
M  V30 1913 H 191.827 2.09024 0.377184 0
M  V30 1914 H 194.09 0.919798 0.22951 0
M  V30 1915 H 193.796 3.22055 1.41328 0
M  V30 1916 H 193.67 2.36378 2.93947 0
M  V30 1917 H 196.057 1.4413 2.57508 0
M  V30 1918 H 196.138 2.33304 1.04895 0
M  V30 1919 H 195.782 4.51316 2.32973 0
M  V30 1920 H 195.712 3.59054 3.85211 0
M  V30 1921 H 198.203 2.85714 2.47338 0
M  V30 1922 H 198.516 6.2329 4.56869 0
M  V30 1923 H 196.861 5.60131 4.11435 0
M  V30 1924 H 200.052 3.59367 2.99955 0
M  V30 1925 H 200.225 5.13291 3.9552 0
M  V30 1926 N 193.631 -1.12557 1.10312 0
M  V30 1927 C 195.042 -1.65574 0.862678 0
M  V30 1928 C 195.393 -1.86566 -0.607256 0
M  V30 1929 O 194.518 -1.59121 -1.46662 0
M  V30 1930 C 195.113 -3.00776 1.55947 0
M  V30 1931 C 193.672 -3.50748 1.36576 0
M  V30 1932 C 192.819 -2.25797 1.60968 0
M  V30 1933 H 195.77 -0.963552 1.26101 0
M  V30 1934 H 195.791 -3.67185 0.997753 0
M  V30 1935 H 195.303 -2.85465 2.62928 0
M  V30 1936 H 193.404 -3.71245 0.317531 0
M  V30 1937 H 193.517 -4.30289 2.10686 0
M  V30 1938 H 191.881 -2.32841 1.03234 0
M  V30 1939 H 192.664 -2.13043 2.69198 0
M  V30 1940 N 195.109 -0.891671 -1.2995 0
M  V30 1941 C 196.056 -0.361736 -2.27948 0
M  V30 1942 C 197.026 0.551761 -1.56668 0
M  V30 1943 O 198.211 0.478736 -1.84696 0
M  V30 1944 C 195.351 0.411825 -3.42634 0
M  V30 1945 C 194.464 -0.531651 -4.28716 0
M  V30 1946 C 193.599 0.258167 -5.30572 0
M  V30 1947 C 192.638 -0.680349 -6.08307 0
M  V30 1948 N 191.775 0.0745613 -7.0206 0
M  V30 1949 H 196.615 -1.20254 -2.72659 0
M  V30 1950 H 194.152 -0.604352 -1.34112 0
M  V30 1951 H 196.11 0.876304 -4.07893 0
M  V30 1952 H 194.74 1.21715 -2.98974 0
M  V30 1953 H 193.792 -1.11463 -3.63703 0
M  V30 1954 H 195.104 -1.25038 -4.82874 0
M  V30 1955 H 194.258 0.784204 -6.0161 0
M  V30 1956 H 192.997 1.01008 -4.77126 0
M  V30 1957 H 192.002 -1.21796 -5.3614 0
M  V30 1958 H 193.227 -1.43145 -6.63842 0
M  V30 1959 H 191.173 0.808883 -6.50994 0
M  V30 1960 H 191.09 -0.584409 -7.53738 0
M  V30 1961 H 192.358 0.581123 -7.77331 0
M  V30 1962 N 196.587 1.43421 -0.653314 0
M  V30 1963 C 197.812 2.06678 -0.172846 0
M  V30 1964 C 198.237 1.48648 1.15262 0
M  V30 1965 O 197.595 0.596457 1.71208 0
M  V30 1966 C 197.643 3.60474 -0.0953184 0
M  V30 1967 O 196.747 4.01487 0.942442 0
M  V30 1968 H 196.088 0.657181 -0.0949155 0
M  V30 1969 H 198.618 1.83925 -0.896265 0
M  V30 1970 H 198.628 4.07905 0.0879728 0
M  V30 1971 H 197.303 4.02088 -1.06291 0
M  V30 1972 H 195.88 3.65646 0.731932 0
M  V30 1973 N 198.065 0.39524 1.52563 0
M  V30 1974 C 199.028 -0.425001 2.25225 0
M  V30 1975 C 200.028 -0.985266 1.27079 0
M  V30 1976 O 201.218 -0.866332 1.5113 0
M  V30 1977 C 198.35 -1.59686 3.01186 0
M  V30 1978 H 199.543 0.211233 2.99155 0
M  V30 1979 H 197.096 0.147472 1.55603 0
M  V30 1980 H 197.831 -2.27035 2.31572 0
M  V30 1981 H 197.616 -1.20176 3.73229 0
M  V30 1982 H 199.106 -2.17743 3.5634 0
M  V30 1983 N 199.544 -1.57102 0.125237 0
M  V30 1984 C 200.792 -1.95021 -0.530198 0
M  V30 1985 C 201.113 -1.00982 -1.66816 0
M  V30 1986 O 200.383 -0.0672693 -1.95784 0
M  V30 1987 H 198.963 -0.720046 -0.198853 0
M  V30 1988 H 201.625 -1.93916 0.19564 0
M  V30 1989 H 200.721 -2.98211 -0.920681 0
M  V30 1990 N 201.022 0.148545 -1.56898 0
M  V30 1991 C 202.25 0.876389 -1.87422 0
M  V30 1992 C 202.665 1.74809 -0.713256 0
M  V30 1993 O 202.022 1.79725 0.317025 0
M  V30 1994 C 202.073 1.73438 -3.17178 0
M  V30 1995 O 201.794 0.897809 -4.28802 0
M  V30 1996 C 203.295 2.56993 -3.61205 0
M  V30 1997 H 200.515 0.253489 -0.621277 0
M  V30 1998 H 203.059 0.141798 -2.04008 0
M  V30 1999 H 201.214 2.42205 -3.0235 0
M  V30 2000 H 201.628 1.48672 -5.02988 0
M  V30 2001 H 203.102 3.12773 -4.54838 0
M  V30 2002 H 203.579 3.32958 -2.86419 0
M  V30 2003 H 204.185 1.9352 -3.78722 0
M  V30 2004 N 202.5 1.5196 0.417844 0
M  V30 2005 C 203.463 1.74065 1.49111 0
M  V30 2006 C 204.463 0.610537 1.48758 0
M  V30 2007 O 205.653 0.87832 1.50437 0
M  V30 2008 C 202.785 1.81502 2.88565 0
M  V30 2009 H 203.978 2.69869 1.30807 0
M  V30 2010 H 201.531 1.42244 0.647785 0
M  V30 2011 H 202.266 0.875813 3.1225 0
M  V30 2012 H 202.051 2.63651 2.90225 0
M  V30 2013 H 203.541 2.00376 3.66387 0
M  V30 2014 N 203.978 -0.674533 1.42435 0
M  V30 2015 C 205.206 -1.46283 1.46317 0
M  V30 2016 C 205.621 -1.88653 0.0745836 0
M  V30 2017 O 204.978 -1.58151 -0.91074 0
M  V30 2018 C 205.029 -2.71178 2.3905 0
M  V30 2019 O 204.75 -2.30586 3.72507 0
M  V30 2020 C 206.251 -3.64738 2.51955 0
M  V30 2021 H 203.471 -0.450104 0.497642 0
M  V30 2022 H 206.015 -0.828792 1.86953 0
M  V30 2023 H 204.17 -3.3077 2.01667 0
M  V30 2024 H 204.584 -3.11241 4.22172 0
M  V30 2025 H 206.058 -4.49096 3.20962 0
M  V30 2026 H 206.535 -4.10656 1.55752 0
M  V30 2027 H 207.141 -3.11038 2.90061 0
M  V30 2028 N 205.456 -1.28612 -0.910864 0
M  V30 2029 C 206.388 -1.08589 -2.01844 0
M  V30 2030 C 207.401 -0.0367419 -1.62759 0
M  V30 2031 O 208.59 -0.280101 -1.76289 0
M  V30 2032 C 205.69 -0.628626 -3.33019 0
M  V30 2033 C 204.863 -1.75382 -4.00699 0
M  V30 2034 C 203.922 -1.28945 -5.10156 0
M  V30 2035 O 202.948 -1.9922 -5.33198 0
M  V30 2036 N 204.15 -0.154224 -5.80295 0
M  V30 2037 H 206.915 -2.03973 -2.19579 0
M  V30 2038 H 204.476 -1.20403 -1.08234 0
M  V30 2039 H 206.468 -0.301508 -4.03575 0
M  V30 2040 H 205.038 0.232451 -3.11735 0
M  V30 2041 H 204.258 -2.25039 -3.23653 0
M  V30 2042 H 205.546 -2.50854 -4.42662 0
M  V30 2043 H 204.944 0.43194 -5.64049 0
M  V30 2044 H 203.501 0.113599 -6.51701 0
M  V30 2045 N 206.934 1.1197 -1.10907 0
M  V30 2046 C 207.867 2.16998 -0.706192 0
M  V30 2047 C 208.845 1.59903 0.294897 0
M  V30 2048 O 210.029 1.87513 0.192636 0
M  V30 2049 C 207.156 3.38673 -0.0427664 0
M  V30 2050 C 206.202 4.14414 -1.00811 0
M  V30 2051 S 207.035 4.72079 -2.52789 0
M  V30 2052 C 208.191 5.97083 -1.87731 0
M  V30 2053 H 208.424 2.50837 -1.59587 0
M  V30 2054 H 205.957 1.23508 -0.926555 0
M  V30 2055 H 207.915 4.09142 0.333668 0
M  V30 2056 H 206.576 3.03105 0.823788 0
M  V30 2057 H 205.769 5.016 -0.491259 0
M  V30 2058 H 205.371 3.49678 -1.3267 0
M  V30 2059 H 207.663 6.66599 -1.21044 0
M  V30 2060 H 208.606 6.53403 -2.72892 0
M  V30 2061 H 209.014 5.4837 -1.33979 0
M  V30 2062 N 208.412 0.89855 1.29475 0
M  V30 2063 C 209.828 0.594483 1.48115 0
M  V30 2064 C 210.028 -0.86431 1.82022 0
M  V30 2065 O 209.084 -1.64457 1.91599 0
M  V30 2066 C 210.397 1.51932 2.59494 0
M  V30 2067 C 211.945 1.5244 2.7337 0
M  V30 2068 C 212.42 2.43548 3.87877 0
M  V30 2069 N 213.911 2.41589 3.95208 0
M  V30 2070 C 214.646 3.08789 4.83153 0
M  V30 2071 N 214.142 3.85265 5.75798 0
M  V30 2072 N 215.935 2.97952 4.76635 0
M  V30 2073 H 208.086 1.84207 1.05742 0
M  V30 2074 H 210.349 0.789251 0.525154 0
M  V30 2075 H 210.055 2.55865 2.41301 0
M  V30 2076 H 209.929 1.23899 3.56271 0
M  V30 2077 H 212.316 0.492518 2.90961 0
M  V30 2078 H 212.397 1.8451 1.77172 0
M  V30 2079 H 212.041 3.46829 3.71041 0
M  V30 2080 H 211.971 2.08788 4.83441 0
M  V30 2081 H 214.462 1.86025 3.28943 0
M  V30 2082 H 214.775 4.33598 6.39697 0
M  V30 2083 H 213.12 3.89371 5.75687 0
M  V30 2084 H 216.311 2.37723 4.03244 0
M  V30 2085 H 216.484 3.50599 5.44962 0
M  V30 2086 N 209.89 -1.43072 0.660911 0
M  V30 2087 C 210.822 -2.29108 -0.0647641 0
M  V30 2088 C 211.835 -1.42928 -0.779448 0
M  V30 2089 O 213.024 -1.66788 -0.635921 0
M  V30 2090 C 210.124 -3.20032 -1.11503 0
M  V30 2091 C 209.297 -4.34792 -0.476955 0
M  V30 2092 C 208.356 -5.06534 -1.42513 0
M  V30 2093 O 207.382 -5.61538 -0.930771 0
M  V30 2094 N 208.584 -5.1075 -2.75889 0
M  V30 2095 H 211.349 -2.92029 0.673731 0
M  V30 2096 H 208.91 -1.53846 0.50427 0
M  V30 2097 H 210.902 -3.64892 -1.75032 0
M  V30 2098 H 209.472 -2.58658 -1.75541 0
M  V30 2099 H 208.692 -3.92752 0.337572 0
M  V30 2100 H 209.98 -5.0879 -0.0318525 0
M  V30 2101 H 209.378 -4.67447 -3.18606 0
M  V30 2102 H 207.935 -5.59302 -3.347 0
M  V30 2103 N 211.368 -0.403325 -1.52352 0
M  V30 2104 C 212.593 0.176499 -2.06648 0
M  V30 2105 C 213.018 1.38577 -1.27193 0
M  V30 2106 O 212.376 1.7879 -0.300637 0
M  V30 2107 C 212.424 0.511061 -3.5696 0
M  V30 2108 O 211.528 1.60294 -3.79973 0
M  V30 2109 H 210.869 0.0167337 -0.663789 0
M  V30 2110 H 213.399 -0.574848 -1.96359 0
M  V30 2111 H 213.409 0.771362 -4.00642 0
M  V30 2112 H 212.084 -0.37296 -4.14224 0
M  V30 2113 H 210.661 1.33526 -3.48174 0
M  V30 2114 N 212.846 1.57033 -0.133567 0
M  V30 2115 C 214.071 2.00475 0.531477 0
M  V30 2116 C 214.496 1.01291 1.58499 0
M  V30 2117 O 213.854 -0.0133279 1.81295 0
M  V30 2118 C 213.902 3.42729 1.12113 0
M  V30 2119 O 213.006 3.46498 2.23636 0
M  V30 2120 H 212.347 0.650876 0.131362 0
M  V30 2121 H 214.877 2.03344 -0.22634 0
M  V30 2122 H 214.887 3.81246 1.4531 0
M  V30 2123 H 213.562 4.14428 0.349557 0
M  V30 2124 H 212.139 3.19811 1.91769 0
M  V30 2125 N 214.325 -0.140222 1.56975 0
M  V30 2126 C 215.55 -0.870414 1.88251 0
M  V30 2127 C 215.975 -1.73637 0.723312 0
M  V30 2128 O 215.333 -1.78329 -0.32689 0
M  V30 2129 C 215.381 -1.69737 3.18154 0
M  V30 2130 O 214.485 -2.80229 3.02565 0
M  V30 2131 H 213.826 -0.242025 0.61832 0
M  V30 2132 H 216.356 -0.128999 2.04193 0
M  V30 2133 H 216.366 -2.09099 3.50345 0
M  V30 2134 H 215.041 -1.06152 4.02125 0
M  V30 2135 H 213.618 -2.44224 2.81796 0
M  V30 2136 N 215.803 -1.52179 -0.40978 0
M  V30 2137 C 217.049 -1.67408 -1.15525 0
M  V30 2138 C 217.404 -0.398746 -1.88223 0
M  V30 2139 O 216.697 0.60678 -1.81738 0
M  V30 2140 C 216.891 -2.83428 -2.17723 0
M  V30 2141 C 216.72 -4.22121 -1.55061 0
M  V30 2142 C 215.49 -4.87657 -1.3236 0
M  V30 2143 C 217.688 -5.04248 -1.01185 0
M  V30 2144 N 215.67 -6.10387 -0.655834 0
M  V30 2145 C 217.041 -6.18209 -0.470963 0
M  V30 2146 C 219.096 -4.89583 -0.906252 0
M  V30 2147 C 217.799 -7.1911 0.165172 0
M  V30 2148 C 219.825 -5.90718 -0.28397 0
M  V30 2149 C 219.187 -7.03969 0.246243 0
M  V30 2150 H 215.286 -0.666251 -0.409431 0
M  V30 2151 H 217.87 -1.89482 -0.447729 0
M  V30 2152 H 216.041 -2.6297 -2.85834 0
M  V30 2153 H 217.773 -2.87697 -2.84627 0
M  V30 2154 H 214.528 -4.46007 -1.59294 0
M  V30 2155 H 214.952 -6.76153 -0.338596 0
M  V30 2156 H 219.594 -4.02253 -1.302 0
M  V30 2157 H 217.312 -8.06066 0.572986 0
M  V30 2158 H 220.898 -5.81443 -0.203792 0
M  V30 2159 H 219.778 -7.80886 0.720173 0
M  V30 2160 N 217.281 0.66697 -1.42791 0
M  V30 2161 C 218.509 1.45505 -1.47091 0
M  V30 2162 C 218.924 1.8861 -0.0845873 0
M  V30 2163 O 218.281 1.58632 0.90234 0
M  V30 2164 C 218.332 2.69906 -2.40485 0
M  V30 2165 O 218.053 2.28608 -3.73725 0
M  V30 2166 C 219.554 3.63396 -2.53886 0
M  V30 2167 H 216.774 0.447459 -0.500022 0
M  V30 2168 H 219.318 0.818866 -1.8739 0
M  V30 2169 H 217.473 3.29696 -2.03419 0
M  V30 2170 H 217.887 3.08997 -4.23817 0
M  V30 2171 H 219.361 4.47387 -3.2334 0
M  V30 2172 H 219.838 4.09824 -1.57927 0
M  V30 2173 H 220.444 3.09495 -2.91706 0
M  V30 2174 N 218.759 1.29093 0.90403 0
M  V30 2175 C 220.175 1.07011 1.1841 0
M  V30 2176 C 220.375 -0.181358 2.00682 0
M  V30 2177 O 219.431 -0.880331 2.36657 0
M  V30 2178 C 220.744 2.32311 1.90924 0
M  V30 2179 C 222.292 2.37587 2.03768 0
M  V30 2180 C 222.767 3.62679 2.79693 0
M  V30 2181 N 224.258 3.63376 2.87249 0
M  V30 2182 C 224.993 4.56848 3.46522 0
M  V30 2183 N 224.489 5.60648 4.06996 0
M  V30 2184 N 226.282 4.44426 3.44154 0
M  V30 2185 H 218.433 2.09412 0.354993 0
M  V30 2186 H 220.696 0.922181 0.219742 0
M  V30 2187 H 220.402 3.23536 1.37905 0
M  V30 2188 H 220.276 2.39483 2.91424 0
M  V30 2189 H 222.663 1.46853 2.55965 0
M  V30 2190 H 222.744 2.34403 1.02415 0
M  V30 2191 H 222.388 4.53762 2.28173 0
M  V30 2192 H 222.318 3.63119 3.81381 0
M  V30 2193 H 224.809 2.88321 2.44293 0
M  V30 2194 H 225.122 6.28101 4.50232 0
M  V30 2195 H 223.467 5.64463 4.05471 0
M  V30 2196 H 226.658 3.62529 2.96126 0
M  V30 2197 H 226.831 5.17457 3.90054 0
M  V30 2198 N 220.237 -1.11381 1.11499 0
M  V30 2199 C 221.483 -1.83403 0.865512 0
M  V30 2200 C 221.816 -1.84459 -0.607329 0
M  V30 2201 O 221.091 -1.29811 -1.44842 0
M  V30 2202 C 221.374 -3.30552 1.42855 0
M  V30 2203 C 221.227 -3.37886 2.96906 0
M  V30 2204 C 222.546 -4.26643 1.08 0
M  V30 2205 H 219.665 -0.665879 0.31587 0
M  V30 2206 H 222.307 -1.30601 1.37998 0
M  V30 2207 H 220.457 -3.75648 0.990985 0
M  V30 2208 H 222.129 -3.01343 3.49271 0
M  V30 2209 H 220.372 -2.78088 3.32941 0
M  V30 2210 H 221.043 -4.41458 3.31389 0
M  V30 2211 H 223.519 -3.89729 1.45775 0
M  V30 2212 H 222.395 -5.27986 1.50072 0
M  V30 2213 H 222.656 -4.42099 -0.00915037 0
M  V30 2214 N 221.715 -0.905404 -1.28997 0
M  V30 2215 C 222.962 -0.534248 -1.95325 0
M  V30 2216 C 223.29 0.920535 -1.71337 0
M  V30 2217 O 222.545 1.66861 -1.02254 0
M  V30 2218 C 222.844 -0.779906 -3.48787 0
M  V30 2219 C 222.51 -2.21293 -3.92861 0
M  V30 2220 C 221.172 -2.60475 -4.04606 0
M  V30 2221 C 223.524 -3.14587 -4.15553 0
M  V30 2222 C 220.852 -3.9212 -4.36416 0
M  V30 2223 C 223.204 -4.45787 -4.48839 0
M  V30 2224 C 221.868 -4.84834 -4.58794 0
M  V30 2225 H 221.138 -0.195495 -0.714747 0
M  V30 2226 H 223.785 -1.14514 -1.53488 0
M  V30 2227 H 222.09 -0.0861365 -3.91705 0
M  V30 2228 H 223.787 -0.472029 -3.98212 0
M  V30 2229 H 220.377 -1.89887 -3.84241 0
M  V30 2230 H 224.561 -2.85528 -4.0594 0
M  V30 2231 H 219.817 -4.22086 -4.42327 0
M  V30 2232 H 223.991 -5.18098 -4.65346 0
M  V30 2233 H 221.618 -5.86877 -4.83197 0
M  V30 2234 N 223.193 1.4272 -0.668489 0
M  V30 2235 C 224.125 2.2914 0.052613 0
M  V30 2236 C 225.138 1.43339 0.771857 0
M  V30 2237 O 226.327 1.67123 0.627067 0
M  V30 2238 C 223.427 3.20618 1.09804 0
M  V30 2239 C 222.6 4.35039 0.45389 0
M  V30 2240 C 221.659 5.07282 1.39825 0
M  V30 2241 O 220.685 5.62024 0.900978 0
M  V30 2242 N 221.887 5.12206 2.73176 0
M  V30 2243 H 224.652 2.91668 -0.689209 0
M  V30 2244 H 222.213 1.53577 -0.512422 0
M  V30 2245 H 224.205 3.65815 1.73094 0
M  V30 2246 H 222.775 2.59585 1.74167 0
M  V30 2247 H 221.995 3.92567 -0.358396 0
M  V30 2248 H 223.283 5.088 0.00486972 0
M  V30 2249 H 222.681 4.6913 3.16122 0
M  V30 2250 H 221.238 5.61069 3.31729 0
M  V30 2251 N 224.671 0.411399 1.52136 0
M  V30 2252 C 225.896 -0.165538 2.06738 0
M  V30 2253 C 226.321 -1.379 1.27926 0
M  V30 2254 O 225.679 -1.78628 0.310114 0
M  V30 2255 C 225.727 -0.492124 3.57226 0
M  V30 2256 O 224.831 -1.58276 3.80818 0
M  V30 2257 H 224.172 -0.0132132 0.663869 0
M  V30 2258 H 226.702 0.585253 1.96051 0
M  V30 2259 H 226.712 -0.750104 4.01045 0
M  V30 2260 H 225.387 0.394922 4.14021 0
M  V30 2261 H 223.964 -1.31677 3.48877 0
M  V30 2262 N 226.149 -1.5696 0.141893 0
M  V30 2263 C 227.395 -1.97034 -0.504884 0
M  V30 2264 C 227.75 -1.02518 -1.62812 0
M  V30 2265 O 227.043 -0.0592943 -1.91508 0
M  V30 2266 C 227.237 -3.41242 -1.06249 0
M  V30 2267 C 227.066 -4.497 0.00519653 0
M  V30 2268 C 225.836 -5.03338 0.444873 0
M  V30 2269 C 228.034 -5.08122 0.794767 0
M  V30 2270 N 226.016 -5.95395 1.49593 0
M  V30 2271 C 227.387 -5.96339 1.69645 0
M  V30 2272 C 229.442 -4.9071 0.843122 0
M  V30 2273 C 228.145 -6.69009 2.64233 0
M  V30 2274 C 230.171 -5.64077 1.77681 0
M  V30 2275 C 229.533 -6.51999 2.66603 0
M  V30 2276 H 225.632 -0.766745 -0.153707 0
M  V30 2277 H 228.216 -1.93273 0.235313 0
M  V30 2278 H 226.387 -3.45606 -1.77231 0
M  V30 2279 H 228.119 -3.68389 -1.67546 0
M  V30 2280 H 224.874 -4.73576 0.0480959 0
M  V30 2281 H 225.298 -6.46128 2.02107 0
M  V30 2282 H 229.94 -4.22459 0.169732 0
M  V30 2283 H 227.658 -7.36492 3.32575 0
M  V30 2284 H 231.244 -5.52602 1.81996 0
M  V30 2285 H 230.124 -7.07775 3.37675 0
M  V30 2286 N 227.627 0.131896 -1.57047 0
M  V30 2287 C 228.873 0.838268 -1.85323 0
M  V30 2288 C 229.228 1.78098 -0.727937 0
M  V30 2289 O 228.521 1.89645 0.27304 0
M  V30 2290 C 228.715 1.63703 -3.17704 0
M  V30 2291 C 228.544 0.773167 -4.43004 0
M  V30 2292 C 227.314 0.432956 -5.03442 0
M  V30 2293 C 229.512 0.0966216 -5.14209 0
M  V30 2294 N 227.494 -0.442924 -6.123 0
M  V30 2295 C 228.865 -0.638778 -6.16701 0
M  V30 2296 C 230.92 0.018861 -4.97896 0
M  V30 2297 C 229.623 -1.44462 -7.04644 0
M  V30 2298 C 231.649 -0.773762 -5.86316 0
M  V30 2299 C 231.011 -1.4974 -6.883 0
M  V30 2300 H 227.11 0.284086 -0.728573 0
M  V30 2301 H 229.694 0.102731 -1.94429 0
M  V30 2302 H 227.865 2.3437 -3.09718 0
M  V30 2303 H 229.597 2.28774 -3.33833 0
M  V30 2304 H 226.352 0.772237 -4.67262 0
M  V30 2305 H 226.776 -0.872332 -6.71356 0
M  V30 2306 H 231.418 0.56397 -4.19022 0
M  V30 2307 H 229.136 -2.00093 -7.82936 0
M  V30 2308 H 232.722 -0.83612 -5.75761 0
M  V30 2309 H 231.602 -2.10087 -7.55535 0
M  V30 2310 N 229.106 1.52395 0.401703 0
M  V30 2311 C 230.383 1.57387 1.16141 0
M  V30 2312 C 230.763 0.359359 2.08019 0
M  V30 2313 O 230.111 -0.65326 2.18963 0
M  V30 2314 C 230.321 2.90631 1.93221 0
M  V30 2315 C 231.669 3.43904 2.49028 0
M  V30 2316 O 232.693 2.92421 2.03393 0
M  V30 2317 O 231.552 4.33823 3.32356 0
M  V30 2318 H 228.646 0.634262 0.530698 0
M  V30 2319 H 231.192 1.64725 0.407883 0
M  V30 2320 H 229.964 3.70473 1.25958 0
M  V30 2321 H 229.587 2.8662 2.75563 0
M  V30 2322 N 230.584 -0.659388 1.43143 0
M  V30 2323 C 232 -0.974337 1.26407 0
M  V30 2324 C 232.2 -2.007 0.179341 0
M  V30 2325 O 231.256 -2.4856 -0.444295 0
M  V30 2326 C 232.569 -1.46447 2.62628 0
M  V30 2327 C 234.117 -1.58144 2.7011 0
M  V30 2328 C 234.592 -2.1055 4.06734 0
M  V30 2329 N 236.083 -2.17861 4.08767 0
M  V30 2330 C 236.818 -2.59519 5.1131 0
M  V30 2331 N 236.314 -3.00518 6.24228 0
M  V30 2332 N 238.107 -2.59404 4.98664 0
M  V30 2333 H 230.258 0.0240528 2.12386 0
M  V30 2334 H 232.521 -0.0518065 0.946583 0
M  V30 2335 H 232.227 -0.780123 3.42939 0
M  V30 2336 H 232.101 -2.44058 2.87603 0
M  V30 2337 H 234.488 -2.25682 1.90136 0
M  V30 2338 H 234.569 -0.589828 2.48907 0
M  V30 2339 H 234.213 -1.43616 4.87172 0
M  V30 2340 H 234.143 -3.10531 4.25298 0
M  V30 2341 H 236.634 -1.88975 3.27257 0
M  V30 2342 H 236.947 -3.31036 6.98309 0
M  V30 2343 H 235.292 -2.98337 6.2771 0
M  V30 2344 H 238.483 -2.26747 4.09516 0
M  V30 2345 H 238.656 -2.91548 5.78709 0
M  V30 2346 N 232.062 -1.29571 -0.897171 0
M  V30 2347 C 233.01 -1.14802 -2.02295 0
M  V30 2348 C 234.004 -0.0629637 -1.69283 0
M  V30 2349 O 235.21 -0.222945 -1.78614 0
M  V30 2350 H 231.585 -0.354692 -0.663097 0
M  V30 2351 H 233.556 -2.10108 -2.11889 0
M  V30 2352 C 232.305 -0.843966 -3.37302 0
M  V30 2353 H 231.628 -1.67093 -3.63208 0
M  V30 2354 H 233.068 -0.780672 -4.16751 0
M  V30 2355 C 231.527 0.452843 -3.33843 0
M  V30 2356 O 232.057 1.47813 -3.73516 0
M  V30 2357 N 230.263 0.459601 -2.86943 0
M  V30 2358 H 229.81 -0.375213 -2.54853 0
M  V30 2359 H 229.768 1.32726 -2.85011 0
M  V30 2360 N 233.54 1.10788 -1.12088 0
M  V30 2361 C 234.47 2.19083 -0.807755 0
M  V30 2362 C 235.451 1.6858 0.226859 0
M  V30 2363 O 236.636 1.93997 0.0888475 0
M  V30 2364 C 233.766 3.46344 -0.257576 0
M  V30 2365 C 232.72 4.101 -1.22483 0
M  V30 2366 C 232.046 5.32016 -0.535052 0
M  V30 2367 C 233.346 4.54236 -2.57811 0
M  V30 2368 H 235.04 2.45534 -1.71328 0
M  V30 2369 H 232.586 1.1801 -0.825205 0
M  V30 2370 H 234.539 4.21392 -0.0262679 0
M  V30 2371 H 233.263 3.19373 0.683278 0
M  V30 2372 H 231.922 3.37054 -1.44189 0
M  V30 2373 H 231.57 5.01319 0.410827 0
M  V30 2374 H 231.27 5.75625 -1.18024 0
M  V30 2375 H 232.794 6.09799 -0.312695 0
M  V30 2376 H 234.208 5.20575 -2.40155 0
M  V30 2377 H 232.605 5.08682 -3.18375 0
M  V30 2378 H 233.675 3.6734 -3.16528 0
M  V30 2379 N 235.018 0.912232 1.28515 0
M  V30 2380 C 236.266 0.543523 1.94654 0
M  V30 2381 C 236.587 -0.9155 1.72173 0
M  V30 2382 O 235.857 -1.64708 1.06058 0
M  V30 2383 H 234.437 0.198017 0.720277 0
M  V30 2384 H 237.099 1.16126 1.56527 0
M  V30 2385 H 236.195 0.736684 3.03281 0
M  V30 2386 N 236.496 -1.42363 0.676048 0
M  V30 2387 C 237.912 -1.55811 0.345718 0
M  V30 2388 C 238.112 -1.65544 -1.14879 0
M  V30 2389 O 237.168 -1.62306 -1.93424 0
M  V30 2390 C 238.481 -2.80746 1.07713 0
M  V30 2391 C 240.029 -2.9452 1.05958 0
M  V30 2392 C 240.504 -4.22318 1.77233 0
M  V30 2393 N 241.995 -4.29233 1.74108 0
M  V30 2394 C 242.73 -5.26935 2.26113 0
M  V30 2395 N 242.226 -6.30783 2.86505 0
M  V30 2396 N 244.019 -5.18741 2.1648 0
M  V30 2397 H 236.17 -1.34289 1.6456 0
M  V30 2398 H 238.433 -0.646506 0.69335 0
M  V30 2399 H 238.139 -2.79696 2.13221 0
M  V30 2400 H 238.013 -3.71676 0.64316 0
M  V30 2401 H 240.4 -2.95097 0.0128255 0
M  V30 2402 H 240.481 -2.04817 1.53244 0
M  V30 2403 H 240.125 -4.22502 2.81877 0
M  V30 2404 H 240.055 -5.10958 1.27396 0
M  V30 2405 H 242.546 -3.54814 1.30059 0
M  V30 2406 H 242.859 -7.01691 3.23805 0
M  V30 2407 H 241.204 -6.31341 2.90575 0
M  V30 2408 H 244.395 -4.36533 1.68987 0
M  V30 2409 H 244.568 -5.94721 2.57316 0
M  V30 2410 N 237.974 -0.419461 -1.51915 0
M  V30 2411 C 239.222 0.152637 -2.01523 0
M  V30 2412 C 239.543 1.44762 -1.30649 0
M  V30 2413 O 238.813 1.90997 -0.435535 0
M  V30 2414 H 237.393 0.0593966 -0.744635 0
M  V30 2415 H 240.055 -0.558073 -1.86739 0
M  V30 2416 H 239.151 0.341369 -3.10227 0
M  V30 2417 N 239.452 1.56882 -0.150215 0
M  V30 2418 C 240.677 2.01027 0.510184 0
M  V30 2419 C 241.102 1.02966 1.57415 0
M  V30 2420 O 240.46 0.00590158 1.81299 0
M  V30 2421 C 240.508 3.43899 1.08472 0
M  V30 2422 O 239.612 3.4885 2.19948 0
M  V30 2423 H 238.953 0.652233 0.124451 0
M  V30 2424 H 241.483 2.03093 -0.247894 0
M  V30 2425 H 241.493 3.82766 1.41259 0
M  V30 2426 H 240.168 4.14776 0.305582 0
M  V30 2427 H 238.745 3.21827 1.88366 0
M  V30 2428 N 240.93 -0.123565 1.57115 0
M  V30 2429 C 242.155 -0.850398 1.89164 0
M  V30 2430 C 242.58 -1.7286 0.741688 0
M  V30 2431 O 241.938 -1.78665 -0.307958 0
M  V30 2432 C 241.986 -1.66353 3.19936 0
M  V30 2433 O 241.09 -2.77004 3.0552 0
M  V30 2434 H 240.431 -0.235454 0.620852 0
M  V30 2435 H 242.961 -0.107335 2.04318 0
M  V30 2436 H 242.971 -2.05372 3.52543 0
M  V30 2437 H 241.646 -1.01881 4.03228 0
M  V30 2438 H 240.223 -2.41221 2.84371 0
M  V30 2439 N 242.408 -1.52605 -0.393616 0
M  V30 2440 C 243.371 -1.76415 -1.46323 0
M  V30 2441 C 244.371 -0.634126 -1.47768 0
M  V30 2442 O 245.561 -0.902142 -1.4902 0
M  V30 2443 C 242.693 -1.8607 -2.85641 0
M  V30 2444 H 243.886 -2.71916 -1.26498 0
M  V30 2445 H 241.439 -1.43257 -0.625073 0
M  V30 2446 H 242.174 -0.925378 -3.10817 0
M  V30 2447 H 241.959 -2.68235 -2.85993 0
M  V30 2448 H 243.449 -2.06179 -3.63153 0
M  V30 2449 N 243.887 0.651787 -1.4349 0
M  V30 2450 C 245.298 1.233 -1.40193 0
M  V30 2451 C 245.649 1.9591 -0.106727 0
M  V30 2452 O 244.774 2.01316 0.793773 0
M  V30 2453 C 245.369 2.24257 -2.53957 0
M  V30 2454 C 243.928 2.77852 -2.5392 0
M  V30 2455 C 243.075 1.52517 -2.3159 0
M  V30 2456 H 246.026 0.443717 -1.52371 0
M  V30 2457 H 246.047 3.0646 -2.25528 0
M  V30 2458 H 245.559 1.71382 -3.4821 0
M  V30 2459 H 243.66 3.34786 -1.63551 0
M  V30 2460 H 243.773 3.25299 -3.51735 0
M  V30 2461 H 242.137 1.79915 -1.80285 0
M  V30 2462 H 242.92 1.01574 -3.27929 0
M  V30 2463 N 245.365 1.30045 0.890287 0
M  V30 2464 C 246.59 1.21598 1.68014 0
M  V30 2465 C 247.015 -0.218678 1.86825 0
M  V30 2466 O 246.373 -1.15756 1.39536 0
M  V30 2467 C 246.421 1.94434 3.03691 0
M  V30 2468 O 245.525 1.2678 3.92429 0
M  V30 2469 H 244.866 0.420856 0.513592 0
M  V30 2470 H 247.396 1.71775 1.11151 0
M  V30 2471 H 247.406 2.03251 3.5377 0
M  V30 2472 H 246.081 2.98777 2.89318 0
M  V30 2473 H 244.658 1.26282 3.50866 0
M  V30 2474 N 246.843 -1.10192 1.12674 0
M  V30 2475 C 247.775 -2.16418 0.754701 0
M  V30 2476 C 248.788 -1.61309 -0.21986 0
M  V30 2477 O 249.977 -1.785 -0.000826841 0
M  V30 2478 C 247.077 -3.38762 0.096698 0
M  V30 2479 C 246.25 -4.23307 1.10136 0
M  V30 2480 C 245.309 -5.24092 0.470513 0
M  V30 2481 O 244.335 -5.57906 1.12824 0
M  V30 2482 N 245.537 -5.75491 -0.760948 0
M  V30 2483 H 248.302 -2.48943 1.66875 0
M  V30 2484 H 245.863 -1.25834 1.01869 0
M  V30 2485 H 247.855 -4.03291 -0.337384 0
M  V30 2486 H 246.425 -3.04192 -0.720153 0
M  V30 2487 H 245.645 -3.55036 1.71299 0
M  V30 2488 H 246.933 -4.76624 1.78064 0
M  V30 2489 H 246.331 -5.50222 -1.31424 0
M  V30 2490 H 244.888 -6.41792 -1.13781 0
M  V30 2491 O 248.36 -1.05067 -1.22651 0
M  V30 2492 H 249.051 -0.726261 -1.79569 0
M  V30 END ATOM
M  V30 BEGIN BOND
M  V30 END BOND
M  V30 END CTAB
M  END
$$$$
