drugbank_target|Q92930 Ras-related protein Rab-8B (DB02082; DB04315)
 OpenBabel12092120533D

  0  0  0     0  0            999 V3000
M  V30 BEGIN CTAB
M  V30 COUNTS 3332 3356 0 0 0
M  V30 BEGIN ATOM
M  V30 1 H -0.908 1.98254 -0.117106 0
M  V30 2 N 0 1.576 0 0
M  V30 3 C 0.933 2.03868 1.02534 0
M  V30 4 C 1.911 0.928543 1.3348 0
M  V30 5 O 3.095 1.19667 1.45644 0
M  V30 6 C 0.222 2.43627 2.35294 0
M  V30 7 C -0.732 3.65373 2.2001 0
M  V30 8 S 0.101 5.13292 1.52614 0
M  V30 9 C 1.257 5.56322 2.86805 0
M  V30 10 H 1.49 2.90518 0.631377 0
M  V30 11 H -0.977 1.52953 0.210867 0
M  V30 12 H 0.981 2.67203 3.11629 0
M  V30 13 H -0.358 1.57376 2.7183 0
M  V30 14 H -1.165 3.90944 3.18086 0
M  V30 15 H -1.563 3.418 1.51819 0
M  V30 16 H 0.729 5.58782 3.83104 0
M  V30 17 H 1.672 6.56266 2.65933 0
M  V30 18 H 2.08 4.83886 2.90714 0
M  V30 19 N 1.4781 -0.272755 1.55222 0
M  V30 20 C 2.4411 -1.32041 1.87344 0
M  V30 21 C 3.4411 -1.42342 0.74803 0
M  V30 22 O 4.6311 -1.41488 1.0162 0
M  V30 23 C 1.7631 -2.70173 2.07893 0
M  V30 24 H 2.9561 -1.04789 2.80997 0
M  V30 25 H 0.5091 -0.51083 1.47717 0
M  V30 26 H 1.2441 -3.02605 1.16622 0
M  V30 27 H 1.0291 -2.64082 2.89833 0
M  V30 28 H 2.5191 -3.45869 2.34017 0
M  V30 29 N 2.9562 -1.48159 -0.537278 0
M  V30 30 C 3.9032 -1.62138 -1.64256 0
M  V30 31 C 4.8732 -0.463668 -1.59497 0
M  V30 32 O 6.0582 -0.686241 -1.78032 0
M  V30 33 C 3.1982 -1.66028 -3.02537 0
M  V30 34 C 2.3112 -2.92855 -3.17585 0
M  V30 35 C 1.4462 -2.87952 -4.46382 0
M  V30 36 C 0.4852 -4.09516 -4.54932 0
M  V30 37 N -0.3778 -4.02733 -5.75109 0
M  V30 38 H 4.4622 -2.56529 -1.51647 0
M  V30 39 H 1.9992 -1.27224 -0.738414 0
M  V30 40 H 3.9572 -1.66265 -3.82638 0
M  V30 41 H 2.5872 -0.751331 -3.13934 0
M  V30 42 H 1.6392 -3.02395 -2.30784 0
M  V30 43 H 2.9512 -3.82822 -3.19764 0
M  V30 44 H 2.1052 -2.8655 -5.34765 0
M  V30 45 H 0.8442 -1.95702 -4.46712 0
M  V30 46 H -0.1508 -4.11201 -3.64957 0
M  V30 47 H 1.0742 -5.02917 -4.56346 0
M  V30 48 H -0.9798 -3.13299 -5.76351 0
M  V30 49 H -1.0628 -4.86397 -5.78752 0
M  V30 50 H 0.2052 -4.05379 -6.65799 0
M  V30 51 N 4.4343 0.785586 -1.36625 0
M  V30 52 C 5.6623 1.57448 -1.3423 0
M  V30 53 C 6.0773 1.88649 0.0755653 0
M  V30 54 O 5.4343 1.50414 1.03354 0
M  V30 55 C 5.4853 2.89316 -2.16745 0
M  V30 56 O 5.2063 2.59459 -3.53005 0
M  V30 57 C 6.7073 3.83606 -2.22174 0
M  V30 58 H 3.9273 0.488226 -0.4603 0
M  V30 59 H 6.4713 0.974733 -1.79775 0
M  V30 60 H 4.6263 3.4575 -1.74745 0
M  V30 61 H 5.0403 3.43804 -3.96105 0
M  V30 62 H 6.5143 4.73181 -2.8426 0
M  V30 63 H 6.9913 4.21734 -1.22627 0
M  V30 64 H 7.5973 3.33104 -2.64427 0
M  V30 65 N 5.9124 1.20967 1.01018 0
M  V30 66 C 7.1424 1.04803 1.78044 0
M  V30 67 C 7.5504 -0.405462 1.84804 0
M  V30 68 O 6.8934 -1.2932 1.30468 0
M  V30 69 C 6.9554 1.56377 3.23707 0
M  V30 70 C 6.6194 3.04767 3.40538 0
M  V30 71 C 7.6164 4.02366 3.29239 0
M  V30 72 C 5.3014 3.43862 3.66147 0
M  V30 73 C 7.2954 5.37049 3.43304 0
M  V30 74 C 4.9824 4.78699 3.79855 0
M  V30 75 C 5.9804 5.75101 3.68439 0
M  V30 76 O 5.6684 7.07493 3.81719 0
M  V30 77 H 5.4004 0.368778 0.56655 0
M  V30 78 H 7.9544 1.60642 1.27997 0
M  V30 79 H 6.1844 0.949297 3.74867 0
M  V30 80 H 7.8734 1.36136 3.8239 0
M  V30 81 H 8.6394 3.73506 3.09384 0
M  V30 82 H 4.5184 2.69364 3.74118 0
M  V30 83 H 8.0624 6.12277 3.34309 0
M  V30 84 H 3.9594 5.07247 3.99213 0
M  V30 85 H 4.7274 7.1483 3.98697 0
M  V30 86 N 7.3905 -1.2043 1.01659 0
M  V30 87 C 8.6675 -1.8548 0.621004 0
M  V30 88 C 9.0475 -1.9091 -0.900919 0
M  V30 89 O 8.3955 -1.41694 -1.79263 0
M  V30 90 C 8.6055 -3.25119 1.2688 0
M  V30 91 C 9.9535 -4.01403 1.38423 0
M  V30 92 O 10.9775 -3.34473 1.22501 0
M  V30 93 O 9.8365 -5.21265 1.64151 0
M  V30 94 H 6.9305 -0.798761 0.214266 0
M  V30 95 H 9.4765 -1.28019 1.11396 0
M  V30 96 H 8.2485 -3.15932 2.30873 0
M  V30 97 H 7.8715 -3.90212 0.762917 0
M  V30 98 N 8.8686 -0.792821 -1.36206 0
M  V30 99 C 10.0986 -0.378275 -2.03107 0
M  V30 100 C 10.5066 1.01119 -1.59911 0
M  V30 101 O 9.8496 1.66052 -0.785658 0
M  V30 102 C 9.9116 -0.366535 -3.57627 0
M  V30 103 C 9.5756 -1.70416 -4.24037 0
M  V30 104 C 10.5726 -2.6602 -4.46687 0
M  V30 105 C 8.2576 -1.98439 -4.6144 0
M  V30 106 C 10.2516 -3.8784 -5.05825 0
M  V30 107 C 7.9386 -3.20525 -5.20295 0
M  V30 108 C 8.9366 -4.15044 -5.42427 0
M  V30 109 O 8.6246 -5.34978 -6.00045 0
M  V30 110 H 8.3566 -0.153543 -0.658332 0
M  V30 111 H 10.9106 -1.07383 -1.75094 0
M  V30 112 H 9.1406 0.385539 -3.84773 0
M  V30 113 H 10.8296 0.0238088 -4.05893 0
M  V30 114 H 11.5956 -2.45658 -4.18183 0
M  V30 115 H 7.4746 -1.25686 -4.43536 0
M  V30 116 H 11.0186 -4.61628 -5.23015 0
M  V30 117 H 6.9156 -3.40764 -5.48225 0
M  V30 118 H 7.6836 -5.36088 -6.18508 0
M  V30 119 N 10.3467 1.47872 -0.545128 0
M  V30 120 C 11.2767 2.32661 0.197793 0
M  V30 121 C 12.2577 1.43041 0.920504 0
M  V30 122 O 13.4427 1.71912 0.90333 0
M  V30 123 C 10.5727 3.24569 1.23582 0
M  V30 124 C 9.5267 4.23333 0.630323 0
M  V30 125 C 8.8527 5.0448 1.77211 0
M  V30 126 C 10.1527 5.20704 -0.407974 0
M  V30 127 H 11.8467 2.95024 -0.510045 0
M  V30 128 H 9.3927 1.4187 -0.246731 0
M  V30 129 H 11.3457 3.8272 1.76362 0
M  V30 130 H 10.0697 2.60236 1.97344 0
M  V30 131 H 8.7287 3.6639 0.123922 0
M  V30 132 H 8.3767 4.36561 2.49847 0
M  V30 133 H 8.0767 5.71339 1.37281 0
M  V30 134 H 9.6007 5.65487 2.3034 0
M  V30 135 H 11.0147 5.7329 0.033305 0
M  V30 136 H 9.4117 5.95699 -0.725486 0
M  V30 137 H 10.4817 4.66917 -1.30828 0
M  V30 138 N 11.8248 0.280983 1.55075 0
M  V30 139 C 13.0718 -0.334115 1.99725 0
M  V30 140 C 13.3998 -1.5542 1.1694 0
M  V30 141 O 12.6548 -1.94361 0.228531 0
M  V30 142 C 12.9538 -0.754656 3.49342 0
M  V30 143 C 12.6198 0.361445 4.49449 0
M  V30 144 C 11.2818 0.667893 4.76542 0
M  V30 145 C 13.6338 1.11322 5.09173 0
M  V30 146 C 10.9618 1.7296 5.60626 0
M  V30 147 C 13.3138 2.1647 5.9441 0
M  V30 148 C 11.9778 2.47742 6.19822 0
M  V30 149 H 11.2478 -0.122261 0.730844 0
M  V30 150 H 13.8948 0.395917 1.87363 0
M  V30 151 H 12.1998 -1.56446 3.5921 0
M  V30 152 H 13.8968 -1.24142 3.813 0
M  V30 153 H 10.4868 0.112481 4.28452 0
M  V30 154 H 14.6708 0.88973 4.8826 0
M  V30 155 H 9.9268 1.97684 5.78559 0
M  V30 156 H 14.1008 2.75193 6.3972 0
M  V30 157 H 11.7278 3.30145 6.84769 0
M  V30 158 N 13.3029 -1.57598 0.00835791 0
M  V30 159 C 14.2499 -2.08945 -0.980346 0
M  V30 160 C 15.2199 -0.986738 -1.33614 0
M  V30 161 O 16.4049 -1.25968 -1.43306 0
M  V30 162 C 13.5449 -2.60425 -2.26435 0
M  V30 163 C 12.6579 -3.84628 -1.96685 0
M  V30 164 C 11.7929 -4.24579 -3.19228 0
M  V30 165 C 10.8319 -5.41596 -2.85202 0
M  V30 166 N 9.9689 -5.768 -4.00307 0
M  V30 167 H 14.8089 -2.93148 -0.535551 0
M  V30 168 H 12.3459 -1.44912 -0.252776 0
M  V30 169 H 14.3039 -2.88354 -3.01509 0
M  V30 170 H 12.9339 -1.79083 -2.68568 0
M  V30 171 H 11.9859 -3.63556 -1.11942 0
M  V30 172 H 13.2979 -4.69796 -1.67611 0
M  V30 173 H 12.4519 -4.53834 -4.02641 0
M  V30 174 H 11.1909 -3.38137 -3.51447 0
M  V30 175 H 10.1959 -5.12056 -2.00198 0
M  V30 176 H 11.4209 -6.29721 -2.54222 0
M  V30 177 H 9.3669 -4.93316 -4.32407 0
M  V30 178 H 9.2839 -6.5656 -3.74786 0
M  V30 179 H 10.5519 -6.10652 -4.84484 0
M  V30 180 N 14.781 0.264519 -1.55364 0
M  V30 181 C 15.711 1.33121 -1.91836 0
M  V30 182 C 16.692 1.51101 -0.781192 0
M  V30 183 O 17.877 1.64003 -1.04003 0
M  V30 184 C 15.007 2.68921 -2.19769 0
M  V30 185 C 13.961 2.65661 -3.35571 0
M  V30 186 C 13.287 4.05093 -3.49004 0
M  V30 187 C 14.587 2.24187 -4.71739 0
M  V30 188 H 16.281 1.02844 -2.81182 0
M  V30 189 H 13.827 0.493286 -1.35287 0
M  V30 190 H 15.78 3.43663 -2.43872 0
M  V30 191 H 14.504 3.00799 -1.27231 0
M  V30 192 H 13.163 1.93377 -3.1145 0
M  V30 193 H 12.811 4.34206 -2.53917 0
M  V30 194 H 12.511 4.03804 -4.26868 0
M  V30 195 H 14.035 4.81561 -3.75408 0
M  V30 196 H 15.449 2.88654 -4.9533 0
M  V30 197 H 13.846 2.34044 -5.52579 0
M  V30 198 H 14.916 1.19327 -4.69988 0
M  V30 199 N 16.2591 1.48442 0.529413 0
M  V30 200 C 17.1891 1.65902 1.64313 0
M  V30 201 C 18.1701 0.507897 1.6234 0
M  V30 202 O 19.3551 0.740503 1.79528 0
M  V30 203 C 16.4851 1.69911 3.02898 0
M  V30 204 C 15.4391 2.8453 3.19729 0
M  V30 205 C 14.7651 2.73629 4.59381 0
M  V30 206 C 16.0651 4.25821 3.02447 0
M  V30 207 H 17.7591 2.5914 1.49955 0
M  V30 208 H 15.3051 1.24709 0.719982 0
M  V30 209 H 17.2581 1.80715 3.80684 0
M  V30 210 H 15.9821 0.732524 3.18279 0
M  V30 211 H 14.6411 2.73283 2.44361 0
M  V30 212 H 14.2891 1.74938 4.71599 0
M  V30 213 H 13.9891 3.50541 4.71588 0
M  V30 214 H 15.5131 2.86401 5.39265 0
M  V30 215 H 16.9271 4.37898 3.70024 0
M  V30 216 H 15.3241 5.03735 3.26146 0
M  V30 217 H 16.3941 4.42244 1.98867 0
M  V30 218 N 17.7372 -0.778329 1.37039 0
M  V30 219 C 18.6672 -1.90546 1.34962 0
M  V30 220 C 19.6482 -1.68681 0.219274 0
M  V30 221 O 20.8332 -1.89634 0.418624 0
M  V30 222 C 17.9632 -3.27734 1.14925 0
M  V30 223 C 16.9172 -3.64147 2.24902 0
M  V30 224 C 16.2432 -4.99806 1.89996 0
M  V30 225 C 17.5432 -3.71579 3.67051 0
M  V30 226 H 19.2372 -1.92541 2.29277 0
M  V30 227 H 16.7832 -0.924948 1.10366 0
M  V30 228 H 18.7362 -4.06215 1.12104 0
M  V30 229 H 17.4602 -3.26154 0.170631 0
M  V30 230 H 16.1192 -2.8797 2.26868 0
M  V30 231 H 15.7672 -4.94759 0.906796 0
M  V30 232 H 15.4672 -5.25139 2.63634 0
M  V30 233 H 16.9912 -5.80694 1.88749 0
M  V30 234 H 18.4052 -4.40227 3.67251 0
M  V30 235 H 16.8022 -4.08405 4.39688 0
M  V30 236 H 17.8722 -2.72404 4.01154 0
M  V30 237 N 19.2153 -1.21501 -1.00376 0
M  V30 238 C 20.4643 -1.02718 -1.73586 0
M  V30 239 C 20.7773 0.439589 -1.90596 0
M  V30 240 O 21.9833 0.746848 -2.61026 0
M  V30 241 C 20.4393 -1.78929 -3.1227 0
M  V30 242 C 20.0473 -3.29783 -3.03228 0
M  V30 243 C 21.7913 -1.68557 -3.89601 0
M  V30 244 C 19.6983 -3.98479 -4.36999 0
M  V30 245 H 18.6283 -0.380733 -0.650814 0
M  V30 246 H 21.2793 -1.45248 -1.1214 0
M  V30 247 H 19.6613 -1.29192 -3.74333 0
M  V30 248 H 20.8353 -3.86832 -2.50395 0
M  V30 249 H 19.1503 -3.40711 -2.39385 0
M  V30 250 H 21.7473 -2.17211 -4.88593 0
M  V30 251 H 22.0903 -0.644021 -4.11288 0
M  V30 252 H 22.6233 -2.15778 -3.34193 0
M  V30 253 H 19.3623 -5.02841 -4.20513 0
M  V30 254 H 18.8823 -3.46219 -4.89788 0
M  V30 255 H 20.5613 -4.03462 -5.05794 0
M  V30 256 N 20.6934 1.19889 -1.02296 0
M  V30 257 C 21.9414 1.89046 -0.714558 0
M  V30 258 C 22.2624 1.79636 0.758681 0
M  V30 259 O 21.5324 1.20292 1.54618 0
M  V30 260 H 20.1124 0.699802 -0.261317 0
M  V30 261 H 22.7744 1.45574 -1.29592 0
M  V30 262 H 21.8704 2.95524 -1.0036 0
M  V30 263 N 22.1715 0.800033 1.35784 0
M  V30 264 C 23.4485 0.30088 1.93272 0
M  V30 265 C 23.8285 -1.20857 1.73081 0
M  V30 266 O 23.1765 -2.00502 1.09596 0
M  V30 267 C 23.3865 0.70511 3.41803 0
M  V30 268 C 24.7345 0.690871 4.18942 0
M  V30 269 O 25.7585 0.646244 3.50289 0
M  V30 270 O 24.6175 0.74332 5.41421 0
M  V30 271 H 21.7115 0.0771605 0.823393 0
M  V30 272 H 24.2575 0.88329 1.449 0
M  V30 273 H 23.0295 1.74571 3.50201 0
M  V30 274 H 22.6525 0.0971541 3.97481 0
M  V30 275 N 23.6496 -1.47581 0.552962 0
M  V30 276 C 24.8746 -2.07378 0.0300593 0
M  V30 277 C 25.2996 -1.40355 -1.25229 0
M  V30 278 O 24.6576 -0.477099 -1.7491 0
M  V30 279 C 24.7056 -3.60274 -0.153231 0
M  V30 280 O 23.8096 -3.94041 -1.21678 0
M  V30 281 H 23.1506 -0.662158 0.0494182 0
M  V30 282 H 25.6806 -1.89662 0.767434 0
M  V30 283 H 25.6906 -4.0633 -0.368761 0
M  V30 284 H 24.3656 -4.08455 0.783397 0
M  V30 285 H 22.9426 -3.59735 -0.982079 0
M  V30 286 N 25.1277 -0.289203 -1.54924 0
M  V30 287 C 26.3757 0.322879 -1.99504 0
M  V30 288 C 26.6967 1.55313 -1.1791 0
M  V30 289 O 25.9667 1.94001 -0.272097 0
M  V30 290 H 24.5467 0.122291 -0.736922 0
M  V30 291 H 27.2087 -0.397802 -1.90797 0
M  V30 292 H 26.3047 0.603061 -3.06218 0
M  V30 293 N 26.6058 1.57591 -0.0167156 0
M  V30 294 C 27.8518 1.91567 0.665582 0
M  V30 295 C 28.1848 0.892298 1.72487 0
M  V30 296 O 27.4598 -0.0867127 1.94307 0
M  V30 297 C 27.7428 3.36069 1.29342 0
M  V30 298 C 27.5958 4.49135 0.244541 0
M  V30 299 C 28.9148 3.803 2.21495 0
M  V30 300 H 26.0338 0.69666 0.240488 0
M  V30 301 H 28.6758 1.89866 -0.0714356 0
M  V30 302 H 26.8258 3.3765 1.92158 0
M  V30 303 H 28.4978 4.59689 -0.385228 0
M  V30 304 H 26.7408 4.3165 -0.431379 0
M  V30 305 H 27.4118 5.47242 0.723207 0
M  V30 306 H 29.8878 3.80377 1.68678 0
M  V30 307 H 28.7638 4.82127 2.62382 0
M  V30 308 H 29.0248 3.15104 3.101 0
M  V30 309 N 28.0839 -0.256276 1.55502 0
M  V30 310 C 29.3319 -0.983672 1.76545 0
M  V30 311 C 29.6529 -1.86206 0.578982 0
M  V30 312 O 28.9229 -1.91656 -0.405577 0
M  V30 313 H 27.5029 -0.366191 0.651086 0
M  V30 314 H 30.1649 -0.276479 1.92929 0
M  V30 315 H 29.2609 -1.61087 2.67315 0
M  V30 316 N 29.562 -1.4872 -0.521534 0
M  V30 317 C 30.509 -1.63871 -1.62527 0
M  V30 318 C 31.479 -0.480559 -1.58996 0
M  V30 319 O 32.664 -0.705085 -1.77294 0
M  V30 320 C 29.804 -1.69227 -3.00759 0
M  V30 321 C 28.917 -2.96207 -3.14461 0
M  V30 322 C 28.052 -2.92671 -4.43303 0
M  V30 323 C 27.091 -4.14318 -4.50563 0
M  V30 324 N 26.228 -4.0881 -5.70805 0
M  V30 325 H 31.068 -2.58123 -1.48918 0
M  V30 326 H 28.605 -1.28 -0.724878 0
M  V30 327 H 30.563 -1.70314 -3.80853 0
M  V30 328 H 29.193 -0.784586 -3.1312 0
M  V30 329 H 28.245 -3.04826 -2.27564 0
M  V30 330 H 29.557 -3.86192 -3.15686 0
M  V30 331 H 28.711 -2.92206 -5.31696 0
M  V30 332 H 27.45 -2.00429 -4.44612 0
M  V30 333 H 26.455 -4.15049 -3.60575 0
M  V30 334 H 27.68 -5.07729 -4.50986 0
M  V30 335 H 25.626 -3.19394 -5.72995 0
M  V30 336 H 25.543 -4.92509 -5.7356 0
M  V30 337 H 26.811 -4.12418 -6.61462 0
M  V30 338 N 31.0401 0.771051 -1.3745 0
M  V30 339 C 32.2681 1.56015 -1.35893 0
M  V30 340 C 32.6831 1.88718 0.0555523 0
M  V30 341 O 32.0401 1.51502 1.01752 0
M  V30 342 C 32.0911 2.87001 -2.19801 0
M  V30 343 O 31.8121 2.557 -3.55738 0
M  V30 344 C 33.3131 3.81228 -2.26231 0
M  V30 345 H 30.5331 0.483317 -0.465453 0
M  V30 346 H 33.0771 0.955611 -1.80799 0
M  V30 347 H 31.2321 3.43877 -1.78402 0
M  V30 348 H 31.6461 3.39584 -3.99729 0
M  V30 349 H 33.1201 4.70139 -2.89263 0
M  V30 350 H 33.5971 4.20409 -1.27093 0
M  V30 351 H 34.2031 3.30281 -2.67945 0
M  V30 352 N 32.5182 1.22032 0.997298 0
M  V30 353 C 33.7582 1.05375 1.75144 0
M  V30 354 C 34.1222 -0.404696 1.87686 0
M  V30 355 O 35.3232 -0.691998 2.5974 0
M  V30 356 C 33.5942 1.74046 3.12158 0
M  V30 357 S 35.1532 1.72745 4.03366 0
M  V30 358 H 31.9712 0.377449 0.602539 0
M  V30 359 H 34.5732 1.54902 1.19272 0
M  V30 360 H 33.2772 2.79332 3.00669 0
M  V30 361 H 32.8082 1.24731 3.73103 0
M  V30 362 H 34.8232 0.774015 4.90126 0
M  V30 363 N 33.9963 -1.19345 1.0293 0
M  V30 364 C 34.9263 -2.2481 0.631105 0
M  V30 365 C 35.9073 -1.66245 -0.360104 0
M  V30 366 O 37.0923 -1.92677 -0.242726 0
M  V30 367 C 34.2223 -3.47295 -0.0184607 0
M  V30 368 C 33.1763 -4.18536 0.895073 0
M  V30 369 C 32.5023 -5.34586 0.110592 0
M  V30 370 C 33.8023 -4.73287 2.209 0
M  V30 371 H 35.4963 -2.58372 1.51275 0
M  V30 372 H 33.0423 -1.24194 0.728818 0
M  V30 373 H 34.9953 -4.20268 -0.308675 0
M  V30 374 H 33.7193 -3.12933 -0.934907 0
M  V30 375 H 32.3783 -3.47446 1.16949 0
M  V30 376 H 32.0263 -4.96469 -0.807902 0
M  V30 377 H 31.7263 -5.83183 0.719087 0
M  V30 378 H 33.2503 -6.10355 -0.172871 0
M  V30 379 H 34.6643 -5.38013 1.98028 0
M  V30 380 H 33.0613 -5.32373 2.76946 0
M  V30 381 H 34.1313 -3.91331 2.86336 0
M  V30 382 N 35.4744 -0.807222 -1.35358 0
M  V30 383 C 36.4044 -0.232509 -2.3234 0
M  V30 384 C 37.3854 0.642386 -1.57504 0
M  V30 385 O 38.5704 0.572526 -1.85569 0
M  V30 386 C 35.7004 0.619238 -3.41735 0
M  V30 387 C 34.6544 -0.157215 -4.27711 0
M  V30 388 C 33.9804 0.816273 -5.28433 0
M  V30 389 C 35.2804 -1.35656 -5.04376 0
M  V30 390 H 36.9744 -1.04276 -2.80654 0
M  V30 391 H 34.5204 -0.50288 -1.34934 0
M  V30 392 H 36.4734 1.03137 -4.08584 0
M  V30 393 H 35.1974 1.46239 -2.92031 0
M  V30 394 H 33.8564 -0.550525 -3.62443 0
M  V30 395 H 33.5044 1.65494 -4.74996 0
M  V30 396 H 33.2044 0.301067 -5.86828 0
M  V30 397 H 34.7284 1.22659 -5.98153 0
M  V30 398 H 36.1424 -1.01927 -5.64166 0
M  V30 399 H 34.5394 -1.8063 -5.7227 0
M  V30 400 H 35.6094 -2.14288 -4.34981 0
M  V30 401 N 36.9525 1.47285 -0.560781 0
M  V30 402 C 38.1995 2.02464 -0.038062 0
M  V30 403 C 38.5275 1.43474 1.31322 0
M  V30 404 O 37.7825 0.581311 1.86867 0
M  V30 405 C 38.0815 3.57258 0.100784 0
M  V30 406 C 37.7475 4.35184 -1.18007 0
M  V30 407 C 36.4095 4.56194 -1.53103 0
M  V30 408 C 38.7615 4.80098 -2.02867 0
M  V30 409 C 36.0895 5.19367 -2.729 0
M  V30 410 C 38.4415 5.44593 -3.21871 0
M  V30 411 C 37.1055 5.63835 -3.57276 0
M  V30 412 H 36.3755 0.740869 -0.0139279 0
M  V30 413 H 39.0225 1.76916 -0.733012 0
M  V30 414 H 37.3275 3.81819 0.878724 0
M  V30 415 H 39.0245 3.97606 0.520639 0
M  V30 416 H 35.6145 4.19113 -0.8968 0
M  V30 417 H 39.7985 4.63642 -1.7706 0
M  V30 418 H 35.0545 5.32459 -3.00496 0
M  V30 419 H 39.2285 5.78358 -3.87911 0
M  V30 420 H 36.8555 6.12557 -4.50197 0
M  V30 421 N 38.4306 0.297415 1.54768 0
M  V30 422 C 39.8466 -0.0560823 1.59501 0
M  V30 423 C 40.0466 -1.52725 1.31444 0
M  V30 424 O 39.1026 -2.27947 1.08611 0
M  V30 425 C 40.4156 0.338631 2.98787 0
M  V30 426 C 41.9636 0.287097 3.11681 0
M  V30 427 C 42.4386 0.656579 4.53269 0
M  V30 428 N 43.9296 0.608977 4.59179 0
M  V30 429 C 44.6646 0.867385 5.66802 0
M  V30 430 N 44.1606 1.19157 6.82476 0
M  V30 431 N 45.9536 0.794687 5.56454 0
M  V30 432 H 38.1046 1.25624 1.71267 0
M  V30 433 H 40.3676 0.509057 0.799728 0
M  V30 434 H 40.0736 1.36263 3.2423 0
M  V30 435 H 39.9476 -0.309508 3.75928 0
M  V30 436 H 42.3346 -0.727649 2.85988 0
M  V30 437 H 42.4156 0.969809 2.36703 0
M  V30 438 H 42.0596 1.66912 4.7969 0
M  V30 439 H 41.9896 -0.0481649 5.26578 0
M  V30 440 H 44.4806 0.369198 3.76092 0
M  V30 441 H 44.7936 1.37482 7.60473 0
M  V30 442 H 43.1386 1.22958 6.84037 0
M  V30 443 H 46.3296 0.541098 4.64962 0
M  V30 444 H 46.5026 0.999445 6.40246 0
M  V30 445 N 39.9087 -1.5758 0.0250728 0
M  V30 446 C 41.1557 -1.91633 -0.654444 0
M  V30 447 C 41.4837 -0.901103 -1.72367 0
M  V30 448 O 40.7387 0.0905647 -1.9549 0
M  V30 449 C 41.0377 -3.32421 -1.31268 0
M  V30 450 C 40.7037 -4.49344 -0.374223 0
M  V30 451 C 39.3657 -4.8106 -0.115911 0
M  V30 452 C 41.7177 -5.20498 0.270432 0
M  V30 453 C 39.0457 -5.8129 0.79493 0
M  V30 454 C 41.3977 -6.21699 1.1693 0
M  V30 455 C 40.0617 -6.51859 1.43655 0
M  V30 456 H 39.3317 -0.701236 -0.239478 0
M  V30 457 H 41.9787 -1.91307 0.0859734 0
M  V30 458 H 40.2837 -3.28989 -2.12775 0
M  V30 459 H 41.9807 -3.56038 -1.84494 0
M  V30 460 H 38.5707 -4.24579 -0.58573 0
M  V30 461 H 42.7547 -4.96229 0.0839194 0
M  V30 462 H 38.0107 -6.03005 1.00973 0
M  V30 463 H 42.1847 -6.75955 1.67504 0
M  V30 464 H 39.8117 -7.2934 2.144 0
M  V30 465 N 41.3868 0.248026 -1.55636 0
M  V30 466 C 42.6118 0.998028 -1.81808 0
M  V30 467 C 43.0368 1.78207 -0.601979 0
M  V30 468 O 42.3948 1.75653 0.448961 0
M  V30 469 C 42.4428 1.9125 -3.05705 0
M  V30 470 O 41.5468 3.00406 -2.82542 0
M  V30 471 H 40.8878 0.284045 -0.600179 0
M  V30 472 H 43.4178 0.269357 -2.02819 0
M  V30 473 H 43.4278 2.32737 -3.35108 0
M  V30 474 H 42.1028 1.33602 -3.93857 0
M  V30 475 H 40.6798 2.63056 -2.64303 0
M  V30 476 N 42.8649 1.48995 0.513639 0
M  V30 477 C 43.7749 1.67443 1.64317 0
M  V30 478 C 44.7909 0.556947 1.64846 0
M  V30 479 O 45.9669 0.830082 1.83498 0
M  V30 480 C 43.0319 1.72515 3.00732 0
M  V30 481 C 42.0929 2.96009 3.1093 0
M  V30 482 C 41.3259 3.00829 4.40837 0
M  V30 483 O 41.5489 2.13594 5.28898 0
M  V30 484 O 40.4829 3.93168 4.55744 0
M  V30 485 H 44.3089 2.63106 1.51687 0
M  V30 486 H 41.8939 1.32588 0.688543 0
M  V30 487 H 43.7759 1.78277 3.81831 0
M  V30 488 H 42.4509 0.800278 3.13651 0
M  V30 489 H 41.3579 2.9577 2.29065 0
M  V30 490 H 42.6909 3.87934 3.02933 0
M  V30 491 N 44.343 -0.763751 1.37857 0
M  V30 492 C 45.62 -1.51244 1.24035 0
M  V30 493 C 46 -2.10472 -0.162649 0
M  V30 494 O 45.348 -1.96206 -1.17112 0
M  V30 495 C 45.558 -2.58694 2.34261 0
M  V30 496 C 46.906 -3.25878 2.72193 0
M  V30 497 O 47.93 -2.68993 2.33497 0
M  V30 498 O 46.789 -4.2874 3.38887 0
M  V30 499 H 43.883 -0.670243 0.484462 0
M  V30 500 H 46.429 -0.800031 1.49658 0
M  V30 501 H 45.201 -2.13105 3.2818 0
M  V30 502 H 44.824 -3.37527 2.10146 0
M  V30 503 N 45.8211 -1.22559 -0.990812 0
M  V30 504 C 46.7841 -0.998863 -2.0629 0
M  V30 505 C 47.7841 0.0354834 -1.60761 0
M  V30 506 O 48.9741 -0.203231 -1.7301 0
M  V30 507 C 46.1061 -0.509203 -3.37076 0
M  V30 508 H 47.2991 -1.95014 -2.27837 0
M  V30 509 H 44.8521 -1.04456 -1.16269 0
M  V30 510 H 45.5871 0.446335 -3.21214 0
M  V30 511 H 45.3721 -1.25547 -3.71457 0
M  V30 512 H 46.8621 -0.370888 -4.1595 0
M  V30 513 N 47.2992 1.18797 -1.03562 0
M  V30 514 C 48.5462 1.8865 -0.736023 0
M  V30 515 C 48.8742 1.80041 0.735889 0
M  V30 516 O 48.1292 1.19179 1.55225 0
M  V30 517 C 48.4282 3.38692 -1.14117 0
M  V30 518 C 48.0942 3.67504 -2.6125 0
M  V30 519 C 46.7562 3.75078 -3.01447 0
M  V30 520 C 49.1082 3.80293 -3.56408 0
M  V30 521 C 46.4362 3.92915 -4.35701 0
M  V30 522 C 48.7882 3.99645 -4.90374 0
M  V30 523 C 47.4522 4.05453 -5.30249 0
M  V30 524 H 46.7222 0.690321 -0.26933 0
M  V30 525 H 49.3692 1.40641 -1.29971 0
M  V30 526 H 47.6742 3.88645 -0.496202 0
M  V30 527 H 49.3712 3.91072 -0.886789 0
M  V30 528 H 45.9612 3.62223 -2.29113 0
M  V30 529 H 50.1452 3.73779 -3.26501 0
M  V30 530 H 45.4012 3.95653 -4.66121 0
M  V30 531 H 49.5752 4.08482 -5.64017 0
M  V30 532 H 47.2022 4.19027 -6.34288 0
M  V30 533 N 48.7773 0.814389 1.34928 0
M  V30 534 C 49.7253 0.218424 2.31572 0
M  V30 535 C 50.7193 -0.636128 1.57002 0
M  V30 536 O 51.9253 -0.52842 1.72069 0
M  V30 537 H 48.3003 0.0518799 0.750208 0
M  V30 538 H 50.2713 1.04852 2.79372 0
M  V30 539 C 49.0203 -0.61207 3.4227 0
M  V30 540 H 48.3433 0.0361578 3.99784 0
M  V30 541 H 49.7833 -0.995317 4.12152 0
M  V30 542 C 48.2423 -1.78087 2.85984 0
M  V30 543 O 48.7723 -2.8787 2.80168 0
M  V30 544 N 46.9783 -1.59488 2.42924 0
M  V30 545 H 46.5253 -0.701874 2.47854 0
M  V30 546 H 46.4833 -2.37846 2.05613 0
M  V30 547 N 50.2554 -1.46986 0.568584 0
M  V30 548 C 51.4834 -2.0683 0.0539956 0
M  V30 549 C 51.8984 -1.41953 -1.24478 0
M  V30 550 O 51.2554 -0.519933 -1.74937 0
M  V30 551 C 51.3064 -3.61254 -0.133362 0
M  V30 552 O 51.0274 -4.237 1.11399 0
M  V30 553 C 52.5284 -4.37992 -0.683927 0
M  V30 554 H 49.7484 -0.669058 0.0510141 0
M  V30 555 H 52.2924 -1.88824 0.785234 0
M  V30 556 H 50.4474 -3.78735 -0.81477 0
M  V30 557 H 50.8614 -5.16388 0.91888 0
M  V30 558 H 52.3354 -5.46684 -0.764263 0
M  V30 559 H 52.8124 -4.05058 -1.69778 0
M  V30 560 H 53.4184 -4.25283 -0.0378494 0
M  V30 561 N 51.7335 -0.305618 -1.54608 0
M  V30 562 C 52.9615 0.304775 -2.04643 0
M  V30 563 C 53.3765 1.47167 -1.18268 0
M  V30 564 O 52.7335 1.81296 -0.209328 0
M  V30 565 C 52.7845 0.756564 -3.53495 0
M  V30 566 O 52.5055 -0.36389 -4.36586 0
M  V30 567 C 54.0065 1.43163 -4.19546 0
M  V30 568 H 51.2265 0.0655481 -0.667791 0
M  V30 569 H 53.7705 -0.446592 -1.99564 0
M  V30 570 H 51.9255 1.45794 -3.58919 0
M  V30 571 H 52.3395 -0.0113121 -5.24499 0
M  V30 572 H 53.8135 1.69886 -5.25207 0
M  V30 573 H 54.2905 2.37318 -3.69563 0
M  V30 574 H 54.8965 0.773307 -4.18211 0
M  V30 575 N 53.2116 1.57565 -0.0334293 0
M  V30 576 C 54.4586 1.91978 0.644272 0
M  V30 577 C 54.7866 0.910231 1.71887 0
M  V30 578 O 54.0416 -0.0801961 1.95536 0
M  V30 579 C 54.3406 3.33112 1.29504 0
M  V30 580 C 54.0066 4.49537 0.350388 0
M  V30 581 C 52.6686 4.81115 0.0903974 0
M  V30 582 C 55.0206 5.20347 -0.298032 0
M  V30 583 C 52.3486 5.8086 -0.825746 0
M  V30 584 C 54.7006 6.2107 -1.20226 0
M  V30 585 C 53.3646 6.51088 -1.4711 0
M  V30 586 H 52.6346 0.702496 0.235756 0
M  V30 587 H 55.2816 1.91259 -0.0961176 0
M  V30 588 H 53.5866 3.30113 2.11028 0
M  V30 589 H 55.2836 3.57011 1.82603 0
M  V30 590 H 51.8736 4.24883 0.563205 0
M  V30 591 H 56.0576 4.96178 -0.110234 0
M  V30 592 H 51.3136 6.02461 -1.04169 0
M  V30 593 H 55.4876 6.75057 -1.71086 0
M  V30 594 H 53.1146 7.28193 -2.18264 0
M  V30 595 N 54.6897 -0.239769 1.55765 0
M  V30 596 C 55.9387 -0.964754 1.77131 0
M  V30 597 C 56.2517 -1.86213 0.59868 0
M  V30 598 O 57.4577 -2.6244 0.695522 0
M  V30 599 C 55.9137 -1.76552 3.1362 0
M  V30 600 C 55.5217 -0.915185 4.38553 0
M  V30 601 C 57.2657 -2.48281 3.44321 0
M  V30 602 C 55.1727 -1.71225 5.66071 0
M  V30 603 H 54.1027 -0.363953 0.660344 0
M  V30 604 H 56.7537 -0.219181 1.82186 0
M  V30 605 H 55.1357 -2.55331 3.02691 0
M  V30 606 H 56.3097 -0.169217 4.60489 0
M  V30 607 H 54.6247 -0.310889 4.15238 0
M  V30 608 H 57.2217 -3.08382 4.36812 0
M  V30 609 H 57.5647 -3.20256 2.65973 0
M  V30 610 H 58.0977 -1.76507 3.56497 0
M  V30 611 H 54.8367 -1.03612 6.4726 0
M  V30 612 H 54.3567 -2.43331 5.48224 0
M  V30 613 H 56.0357 -2.27758 6.05587 0
M  V30 614 N 56.1678 -1.49265 -0.50573 0
M  V30 615 C 57.3928 -1.62478 -1.28902 0
M  V30 616 C 57.8178 -0.294332 -1.85783 0
M  V30 617 O 57.1758 0.737412 -1.65626 0
M  V30 618 C 57.2238 -2.69268 -2.39848 0
M  V30 619 O 56.3278 -2.28113 -3.43567 0
M  V30 620 H 55.6688 -0.54399 -0.380751 0
M  V30 621 H 58.1988 -1.95421 -0.605952 0
M  V30 622 H 58.2088 -2.91291 -2.85681 0
M  V30 623 H 56.8838 -3.65846 -1.97812 0
M  V30 624 H 55.4608 -2.16401 -3.03685 0
M  V30 625 N 57.6459 0.756429 -1.3826 0
M  V30 626 C 58.8739 1.54565 -1.3754 0
M  V30 627 C 59.2889 1.88767 0.0355331 0
M  V30 628 O 58.6459 1.52572 1.0014 0
M  V30 629 C 58.6969 2.84654 -2.22833 0
M  V30 630 O 58.4179 2.51912 -3.5843 0
M  V30 631 C 59.9189 3.78807 -2.30261 0
M  V30 632 H 57.1389 0.478353 -0.470553 0
M  V30 633 H 59.6829 0.936381 -1.81803 0
M  V30 634 H 57.8379 3.41965 -1.8204 0
M  V30 635 H 58.2519 3.35325 -4.03308 0
M  V30 636 H 59.7259 4.67045 -2.94233 0
M  V30 637 H 60.2029 4.19038 -1.31545 0
M  V30 638 H 60.8089 3.2742 -2.71433 0
M  V30 639 N 59.124 1.23083 0.984299 0
M  V30 640 C 60.373 1.05466 1.71929 0
M  V30 641 C 60.686 -0.409211 1.91272 0
M  V30 642 O 61.892 -0.705226 2.62181 0
M  V30 643 C 60.348 1.83874 3.09384 0
M  V30 644 C 59.956 3.34566 2.97943 0
M  V30 645 C 61.7 1.74734 3.8687 0
M  V30 646 C 59.607 4.05381 4.30605 0
M  V30 647 H 58.537 0.391039 0.644674 0
M  V30 648 H 61.188 1.47013 1.09815 0
M  V30 649 H 59.57 1.35131 3.72231 0
M  V30 650 H 60.744 3.90767 2.44209 0
M  V30 651 H 59.059 3.44476 2.33934 0
M  V30 652 H 61.656 2.24957 4.85076 0
M  V30 653 H 61.999 0.709372 4.10212 0
M  V30 654 H 62.532 2.21067 3.30717 0
M  V30 655 H 59.271 5.09467 4.1246 0
M  V30 656 H 58.791 3.53967 4.84218 0
M  V30 657 H 60.47 4.11458 4.99311 0
M  V30 658 N 60.6021 -1.18246 1.0419 0
M  V30 659 C 61.8501 -1.87886 0.744543 0
M  V30 660 C 62.1711 -1.8082 -0.730006 0
M  V30 661 O 61.4411 -1.22736 -1.52685 0
M  V30 662 H 60.0211 -0.695556 0.272417 0
M  V30 663 H 62.6831 -1.43494 1.31892 0
M  V30 664 H 61.7791 -2.9389 1.05049 0
M  V30 665 N 62.0802 -0.821533 -1.34494 0
M  V30 666 C 63.3292 -0.405355 -1.97585 0
M  V30 667 C 63.6422 1.03677 -1.65863 0
M  V30 668 O 64.8482 1.55679 -2.22433 0
M  V30 669 C 63.3042 -0.673861 -3.53535 0
M  V30 670 C 62.9122 -2.12951 -3.94152 0
M  V30 671 C 64.6562 -0.32378 -4.23263 0
M  V30 672 C 62.5632 -2.34298 -5.43009 0
M  V30 673 H 61.4932 -0.147836 -0.739365 0
M  V30 674 H 64.1442 -1.00769 -1.53355 0
M  V30 675 H 62.5262 -0.00137554 -3.96 0
M  V30 676 H 63.7002 -2.84104 -3.62797 0
M  V30 677 H 62.0152 -2.44089 -3.37356 0
M  V30 678 H 64.6122 -0.461126 -5.32708 0
M  V30 679 H 64.9552 0.731586 -4.09821 0
M  V30 680 H 65.4882 -0.950786 -3.8627 0
M  V30 681 H 62.2272 -3.38335 -5.61435 0
M  V30 682 H 61.7472 -1.67687 -5.75883 0
M  V30 683 H 63.4262 -2.16588 -6.09671 0
M  V30 684 N 63.5583 1.46682 -0.576371 0
M  V30 685 C 64.8353 1.95599 0.00703437 0
M  V30 686 C 65.2153 1.51904 1.46589 0
M  V30 687 O 64.5633 0.766755 2.15251 0
M  V30 688 C 64.7733 3.4864 -0.158404 0
M  V30 689 C 66.1213 4.24594 -0.0229439 0
M  V30 690 O 67.1453 3.56094 -0.0869173 0
M  V30 691 O 66.0043 5.46373 0.118015 0
M  V30 692 H 63.0983 0.825275 0.053384 0
M  V30 693 H 65.6443 1.56996 -0.644244 0
M  V30 694 H 64.4163 3.7331 -1.17282 0
M  V30 695 H 64.0393 3.94057 0.5296 0
M  V30 696 N 65.0364 0.313813 1.54444 0
M  V30 697 C 66.2834 -0.291675 2.00388 0
M  V30 698 C 66.6114 -1.52904 1.2021 0
M  V30 699 O 65.8664 -1.93833 0.269707 0
M  V30 700 C 66.1654 -0.680386 3.50864 0
M  V30 701 C 65.8314 0.456699 4.48581 0
M  V30 702 C 64.4934 0.768824 4.75018 0
M  V30 703 C 66.8454 1.22098 5.06697 0
M  V30 704 C 64.1734 1.84812 5.56831 0
M  V30 705 C 66.5254 2.29029 5.89685 0
M  V30 706 C 65.1894 2.60834 6.14428 0
M  V30 707 H 64.4594 -0.106732 0.733273 0
M  V30 708 H 67.1064 0.43557 1.86481 0
M  V30 709 H 65.4114 -1.48791 3.62448 0
M  V30 710 H 67.1084 -1.16026 3.83847 0
M  V30 711 H 63.6984 0.203337 4.28117 0
M  V30 712 H 67.8824 0.993096 4.86263 0
M  V30 713 H 63.1384 2.09912 5.74236 0
M  V30 714 H 67.3124 2.887 6.33739 0
M  V30 715 H 64.9394 3.44596 6.77612 0
M  V30 716 N 66.5145 -1.57545 0.0417849 0
M  V30 717 C 67.4615 -2.10977 -0.935805 0
M  V30 718 C 68.4315 -1.01486 -1.31491 0
M  V30 719 O 69.6165 -1.2898 -1.40602 0
M  V30 720 C 66.7565 -2.65169 -2.2086 0
M  V30 721 C 65.8695 -3.88714 -1.88482 0
M  V30 722 C 65.0045 -4.31254 -3.1015 0
M  V30 723 C 64.0435 -5.47524 -2.7365 0
M  V30 724 N 63.1805 -5.85162 -3.87982 0
M  V30 725 H 68.0205 -2.94218 -0.473249 0
M  V30 726 H 65.5575 -1.45415 -0.221981 0
M  V30 727 H 67.5155 -2.94685 -2.95325 0
M  V30 728 H 66.1455 -1.8474 -2.64709 0
M  V30 729 H 65.1975 -3.65849 -1.04205 0
M  V30 730 H 66.5095 -4.73245 -1.57608 0
M  V30 731 H 65.6635 -4.62273 -3.92923 0
M  V30 732 H 64.4025 -3.45516 -3.44195 0
M  V30 733 H 63.4075 -5.16187 -1.89291 0
M  V30 734 H 64.6325 -6.34971 -2.40807 0
M  V30 735 H 62.5785 -5.02377 -4.21846 0
M  V30 736 H 62.4955 -6.64362 -3.60775 0
M  V30 737 H 63.7635 -6.20791 -4.71422 0
M  V30 738 N 67.9926 0.231505 -1.5589 0
M  V30 739 C 69.2416 0.955346 -1.7764 0
M  V30 740 C 69.5546 1.85893 -0.608546 0
M  V30 741 O 70.7606 2.62067 -0.70943 0
M  V30 742 C 69.2166 1.74886 -3.14552 0
M  V30 743 C 68.8246 0.891915 -4.39032 0
M  V30 744 C 70.5686 2.46452 -3.45633 0
M  V30 745 C 68.4756 1.68221 -5.66971 0
M  V30 746 H 67.4056 0.360446 -0.662265 0
M  V30 747 H 70.0566 0.209516 -1.823 0
M  V30 748 H 68.4386 2.53723 -3.04041 0
M  V30 749 H 69.6126 0.144793 -4.60572 0
M  V30 750 H 67.9276 0.288863 -4.15397 0
M  V30 751 H 70.5246 3.06061 -4.38441 0
M  V30 752 H 70.8676 3.18841 -2.67668 0
M  V30 753 H 71.4006 1.74613 -3.57428 0
M  V30 754 H 68.1396 1.00178 -6.478 0
M  V30 755 H 67.6596 2.4042 -5.49507 0
M  V30 756 H 69.3386 2.24544 -6.06786 0
M  V30 757 N 69.4707 1.49531 0.497807 0
M  V30 758 C 70.8867 1.36365 0.829266 0
M  V30 759 C 71.0867 0.399184 1.97506 0
M  V30 760 O 70.1427 -0.167977 2.51941 0
M  V30 761 C 71.4557 2.77153 1.16647 0
M  V30 762 C 73.0037 2.85877 1.27449 0
M  V30 763 C 73.4787 4.2744 1.64497 0
M  V30 764 N 74.9697 4.30265 1.7154 0
M  V30 765 C 75.7047 5.3677 2.01656 0
M  V30 766 N 75.2007 6.53516 2.29976 0
M  V30 767 N 76.9937 5.24189 2.02934 0
M  V30 768 H 69.1447 2.10831 -0.257703 0
M  V30 769 H 71.4077 0.946534 -0.0527091 0
M  V30 770 H 71.1137 3.49442 0.397872 0
M  V30 771 H 70.9877 3.12722 2.10915 0
M  V30 772 H 73.3747 2.13824 2.0338 0
M  V30 773 H 73.4557 2.53887 0.312244 0
M  V30 774 H 73.0997 5.00021 0.891151 0
M  V30 775 H 73.0297 4.56896 2.61827 0
M  V30 776 H 75.5207 3.4607 1.51802 0
M  V30 777 H 75.8337 7.30506 2.52153 0
M  V30 778 H 74.1787 6.56737 2.27425 0
M  V30 779 H 77.3697 4.31988 1.80289 0
M  V30 780 H 77.5427 6.07286 2.26071 0
M  V30 781 N 70.9488 -0.749086 1.3866 0
M  V30 782 C 72.1768 -1.53834 1.38358 0
M  V30 783 C 72.5918 -1.88783 -0.0255219 0
M  V30 784 O 71.9488 -1.53101 -0.993292 0
M  V30 785 C 71.9998 -2.83468 2.2434 0
M  V30 786 O 71.7208 -2.50008 3.5976 0
M  V30 787 C 73.2218 -3.7758 2.32267 0
M  V30 788 H 70.4418 -0.47585 0.473083 0
M  V30 789 H 72.9858 -0.926726 1.82297 0
M  V30 790 H 71.1408 -3.40995 1.83851 0
M  V30 791 H 71.5548 -3.33182 4.05081 0
M  V30 792 H 73.0288 -4.65478 2.96706 0
M  V30 793 H 73.5058 -4.18334 1.33765 0
M  V30 794 H 74.1118 -3.25976 2.73166 0
M  V30 795 N 72.4269 -1.23603 -0.977757 0
M  V30 796 C 73.6759 -1.06377 -1.71368 0
M  V30 797 C 73.9889 0.399062 -1.91486 0
M  V30 798 O 75.1949 0.691312 -2.62551 0
M  V30 799 C 73.6509 -1.85512 -3.08404 0
M  V30 800 C 73.2589 -3.36141 -2.96164 0
M  V30 801 C 75.0029 -1.76783 -3.85938 0
M  V30 802 C 72.9099 -4.07659 -4.28449 0
M  V30 803 H 71.8399 -0.394452 -0.642591 0
M  V30 804 H 74.4909 -1.47594 -1.09034 0
M  V30 805 H 72.8729 -1.37103 -3.71509 0
M  V30 806 H 74.0469 -3.92056 -2.42133 0
M  V30 807 H 72.3619 -3.45712 -2.32104 0
M  V30 808 H 74.9589 -2.27526 -4.83876 0
M  V30 809 H 75.3019 -0.731116 -4.0983 0
M  V30 810 H 75.8349 -2.22818 -3.2954 0
M  V30 811 H 72.5739 -5.11648 -4.09752 0
M  V30 812 H 72.0939 -3.5653 -4.82334 0
M  V30 813 H 73.7729 -4.141 -4.97122 0
M  V30 814 N 73.905 1.17692 -1.04816 0
M  V30 815 C 74.815 2.25229 -0.65643 0
M  V30 816 C 75.831 1.71018 0.320761 0
M  V30 817 O 77.007 2.00649 0.173805 0
M  V30 818 C 74.072 3.46684 -0.0332629 0
M  V30 819 C 73.133 4.15997 -1.06042 0
M  V30 820 C 72.366 5.31654 -0.466893 0
M  V30 821 O 72.589 5.65777 0.724758 0
M  V30 822 O 71.523 5.89831 -1.1993 0
M  V30 823 H 75.349 2.61016 -1.55255 0
M  V30 824 H 72.934 1.24919 -0.81949 0
M  V30 825 H 74.816 4.20234 0.313256 0
M  V30 826 H 73.491 3.12703 0.836566 0
M  V30 827 H 72.398 3.44482 -1.45886 0
M  V30 828 H 73.731 4.53996 -1.90127 0
M  V30 829 N 75.3831 0.828654 1.34056 0
M  V30 830 C 76.3131 0.269443 2.3194 0
M  V30 831 C 77.2941 -0.617247 1.58506 0
M  V30 832 O 78.4791 -0.542931 1.86456 0
M  V30 833 C 75.6091 -0.564793 3.42677 0
M  V30 834 C 74.5631 0.225241 4.27407 0
M  V30 835 C 73.8891 -0.7321 5.29664 0
M  V30 836 C 75.1891 1.43663 5.02154 0
M  V30 837 H 76.8831 1.08728 2.7896 0
M  V30 838 H 74.4291 0.524283 1.34117 0
M  V30 839 H 76.3821 -0.966233 4.10173 0
M  V30 840 H 75.1061 -1.41574 2.9432 0
M  V30 841 H 73.7651 0.608117 3.61521 0
M  V30 842 H 73.4131 -1.57916 4.77568 0
M  V30 843 H 73.1131 -0.20767 5.87233 0
M  V30 844 H 74.6371 -1.13128 6.00029 0
M  V30 845 H 76.0511 1.1089 5.62473 0
M  V30 846 H 74.4481 1.89711 5.69324 0
M  V30 847 H 75.5181 2.21181 4.31517 0
M  V30 848 N 76.8612 -1.46375 0.584142 0
M  V30 849 C 78.1382 -1.956 0.0033388 0
M  V30 850 C 78.5182 -1.52679 -1.45782 0
M  V30 851 O 77.8662 -0.77816 -2.14842 0
M  V30 852 C 78.0762 -3.48551 0.176891 0
M  V30 853 C 79.4242 -4.24576 0.0454609 0
M  V30 854 O 80.4482 -3.56043 0.105801 0
M  V30 855 O 79.3072 -5.46427 -0.0890376 0
M  V30 856 H 76.4012 -0.825547 -0.0490066 0
M  V30 857 H 78.9472 -1.56652 0.65256 0
M  V30 858 H 77.7192 -3.72683 1.1926 0
M  V30 859 H 77.3422 -3.94332 -0.508695 0
M  V30 860 N 78.3393 -0.321999 -1.54275 0
M  V30 861 C 79.5873 0.280489 -2.00144 0
M  V30 862 C 79.9083 1.52777 -1.21178 0
M  V30 863 O 79.1783 1.9338 -0.313187 0
M  V30 864 H 77.7583 0.106632 -0.73935 0
M  V30 865 H 80.4203 -0.438184 -1.8991 0
M  V30 866 H 79.5163 0.537972 -3.07428 0
M  V30 867 N 79.8174 1.5752 -0.0501392 0
M  V30 868 C 80.7644 2.1147 0.924603 0
M  V30 869 C 81.7344 1.02182 1.30951 0
M  V30 870 O 82.9194 1.29723 1.39916 0
M  V30 871 C 80.0594 2.66337 2.19451 0
M  V30 872 C 79.1724 3.89708 1.86418 0
M  V30 873 C 78.3074 4.32893 3.07859 0
M  V30 874 C 77.3464 5.48967 2.70742 0
M  V30 875 N 76.4834 5.87211 3.84874 0
M  V30 876 H 81.3234 2.94465 0.457639 0
M  V30 877 H 78.8604 1.45531 0.214266 0
M  V30 878 H 80.8184 2.96247 2.93758 0
M  V30 879 H 79.4484 1.86141 2.63726 0
M  V30 880 H 78.5004 3.66396 1.02264 0
M  V30 881 H 79.8124 4.74074 1.55096 0
M  V30 882 H 78.9664 4.6435 3.90466 0
M  V30 883 H 77.7054 3.47336 3.42358 0
M  V30 884 H 76.7104 5.17183 1.86551 0
M  V30 885 H 77.9354 6.3624 2.37436 0
M  V30 886 H 75.8814 5.04607 4.19175 0
M  V30 887 H 75.7984 6.66266 3.57247 0
M  V30 888 H 77.0664 6.23282 4.68123 0
M  V30 889 N 81.2955 -0.223234 1.56011 0
M  V30 890 C 82.2425 -1.27664 1.92277 0
M  V30 891 C 83.2125 -1.46659 0.779763 0
M  V30 892 O 84.3975 -1.60256 1.03551 0
M  V30 893 C 81.5375 -2.62234 2.24338 0
M  V30 894 C 80.6505 -2.51051 3.51564 0
M  V30 895 C 79.7855 -3.78133 3.7308 0
M  V30 896 C 78.8245 -3.61665 4.93827 0
M  V30 897 N 77.9615 -4.80693 5.11741 0
M  V30 898 H 82.8015 -0.960358 2.82101 0
M  V30 899 H 80.3385 -0.462901 1.39627 0
M  V30 900 H 82.2965 -3.40596 2.40936 0
M  V30 901 H 80.9265 -2.91961 1.3769 0
M  V30 902 H 79.9785 -1.64132 3.43169 0
M  V30 903 H 81.2905 -2.34803 4.40079 0
M  V30 904 H 80.4445 -4.64938 3.89766 0
M  V30 905 H 79.1835 -3.97304 2.82844 0
M  V30 906 H 78.1885 -2.73244 4.77093 0
M  V30 907 H 79.4135 -3.43966 5.85546 0
M  V30 908 H 77.3595 -5.00181 4.24446 0
M  V30 909 H 77.2765 -4.67165 5.94384 0
M  V30 910 H 78.5445 -5.6893 5.3286 0
M  V30 911 N 82.7736 -1.49793 -0.48987 0
M  V30 912 C 84.0226 -1.59085 -1.23995 0
M  V30 913 C 84.3356 -0.287907 -1.9347 0
M  V30 914 O 85.5416 -0.259506 -2.70257 0
M  V30 915 C 83.9976 -2.80736 -2.252 0
M  V30 916 C 83.6056 -4.17833 -1.61614 0
M  V30 917 C 85.3496 -2.99364 -3.00967 0
M  V30 918 C 83.2566 -5.30693 -2.60996 0
M  V30 919 H 82.1866 -0.592372 -0.466488 0
M  V30 920 H 84.8376 -1.76197 -0.51252 0
M  V30 921 H 83.2196 -2.57142 -3.01154 0
M  V30 922 H 84.3936 -4.51608 -0.915774 0
M  V30 923 H 82.7086 -4.04656 -0.981977 0
M  V30 924 H 85.3056 -3.80851 -3.75308 0
M  V30 925 H 85.6486 -2.10356 -3.59244 0
M  V30 926 H 86.1816 -3.2305 -2.32128 0
M  V30 927 H 82.9206 -6.21796 -2.07485 0
M  V30 928 H 82.4406 -5.01359 -3.2924 0
M  V30 929 H 84.1196 -5.6049 -3.23202 0
M  V30 930 N 84.2517 0.741722 -1.39055 0
M  V30 931 C 85.1987 1.85566 -1.37237 0
M  V30 932 C 86.1687 1.64457 -0.233072 0
M  V30 933 O 87.3537 1.85957 -0.427147 0
M  V30 934 C 84.4937 3.23004 -1.215 0
M  V30 935 C 83.6067 3.55864 -2.44918 0
M  V30 936 C 82.7417 4.82669 -2.21821 0
M  V30 937 C 81.7807 5.08351 -3.40948 0
M  V30 938 N 80.9177 6.26356 -3.17211 0
M  V30 939 H 85.7577 1.86455 -2.32462 0
M  V30 940 H 83.2947 0.911176 -1.15482 0
M  V30 941 H 85.2527 4.02331 -1.10389 0
M  V30 942 H 83.8827 3.21411 -0.29908 0
M  V30 943 H 82.9347 2.7129 -2.66657 0
M  V30 944 H 84.2467 3.70765 -3.33668 0
M  V30 945 H 83.4007 5.69962 -2.07914 0
M  V30 946 H 82.1397 4.69929 -1.30454 0
M  V30 947 H 81.1447 4.19522 -3.55361 0
M  V30 948 H 82.3697 5.22981 -4.33207 0
M  V30 949 H 80.3157 6.14917 -2.28502 0
M  V30 950 H 80.2327 6.41813 -3.99515 0
M  V30 951 H 81.5007 7.16506 -3.06984 0
M  V30 952 N 85.7298 1.2412 0.971189 0
M  V30 953 C 86.6598 1.05508 2.08304 0
M  V30 954 C 87.6408 -0.0308864 1.70072 0
M  V30 955 O 88.8258 0.135521 1.93727 0
M  V30 956 C 85.9558 0.655365 3.4106 0
M  V30 957 C 84.9098 1.68971 3.93234 0
M  V30 958 C 84.2358 1.14516 5.22293 0
M  V30 959 C 85.5358 3.08487 4.21465 0
M  V30 960 H 87.2298 1.98507 2.24132 0
M  V30 961 H 84.7758 0.955821 1.07704 0
M  V30 962 H 86.7288 0.51217 4.18276 0
M  V30 963 H 85.4528 -0.31032 3.25122 0
M  V30 964 H 84.1118 1.82106 3.18171 0
M  V30 965 H 83.7598 0.170189 5.02712 0
M  V30 966 H 83.4598 1.83635 5.58168 0
M  V30 967 H 84.9838 1.01401 6.02121 0
M  V30 968 H 86.3978 2.98601 4.89398 0
M  V30 969 H 84.7948 3.74926 4.68562 0
M  V30 970 H 85.8648 3.56787 3.28376 0
M  V30 971 N 87.2079 -1.17134 1.05439 0
M  V30 972 C 88.1399 -2.2078 0.615539 0
M  V30 973 C 89.1529 -1.59584 -0.322001 0
M  V30 974 O 90.3419 -1.78133 -0.114344 0
M  V30 975 C 87.4419 -3.38691 -0.118938 0
M  V30 976 C 86.6149 -4.29454 0.829924 0
M  V30 977 C 85.6739 -5.26024 0.136258 0
M  V30 978 O 84.6999 -5.63952 0.77115 0
M  V30 979 N 85.9019 -5.69487 -1.1254 0
M  V30 980 H 88.6669 -2.59052 1.50705 0
M  V30 981 H 86.2279 -1.32058 0.936603 0
M  V30 982 H 88.2199 -4.00329 -0.593179 0
M  V30 983 H 86.7899 -2.98996 -0.91215 0
M  V30 984 H 86.0099 -3.65211 1.48373 0
M  V30 985 H 87.2979 -4.86984 1.47392 0
M  V30 986 H 86.6959 -5.4075 -1.6615 0
M  V30 987 H 85.2529 -6.33257 -1.54366 0
M  V30 988 N 88.686 -0.835752 -1.33615 0
M  V30 989 C 89.935 -0.426289 -1.97144 0
M  V30 990 C 90.248 1.01912 -1.66953 0
M  V30 991 O 91.454 1.53311 -2.24072 0
M  V30 992 C 89.91 -0.711321 -3.52801 0
M  V30 993 C 89.518 -2.1712 -3.91871 0
M  V30 994 C 91.262 -0.368654 -4.22896 0
M  V30 995 C 89.169 -2.40044 -5.40493 0
M  V30 996 H 88.099 -0.15567 -0.737755 0
M  V30 997 H 90.75 -1.0239 -1.52278 0
M  V30 998 H 89.132 -0.0433766 -3.95976 0
M  V30 999 H 90.306 -2.87936 -3.59763 0
M  V30 1000 H 88.621 -2.47654 -3.34749 0
M  V30 1001 H 91.218 -0.517601 -5.32189 0
M  V30 1002 H 91.561 0.688078 -4.10574 0
M  V30 1003 H 92.094 -0.991702 -3.8524 0
M  V30 1004 H 88.833 -3.44271 -5.57815 0
M  V30 1005 H 88.353 -1.73785 -5.74072 0
M  V30 1006 H 90.032 -2.23042 -6.0734 0
M  V30 1007 N 90.1641 1.46063 -0.591896 0
M  V30 1008 C 91.4101 2.03203 -0.0894879 0
M  V30 1009 C 91.7651 1.45407 1.25994 0
M  V30 1010 O 91.0581 0.61326 1.8152 0
M  V30 1011 C 91.2521 3.57391 0.0249813 0
M  V30 1012 C 91.0811 4.30142 -1.3118 0
M  V30 1013 C 89.8511 4.68688 -1.88838 0
M  V30 1014 C 92.0491 4.63098 -2.23708 0
M  V30 1015 N 90.0311 5.26228 -3.1616 0
M  V30 1016 C 91.4021 5.21305 -3.3562 0
M  V30 1017 C 93.4571 4.45031 -2.23274 0
M  V30 1018 C 92.1601 5.63351 -4.47245 0
M  V30 1019 C 94.1861 4.881 -3.33935 0
M  V30 1020 C 93.5481 5.46386 -4.44569 0
M  V30 1021 H 89.6471 0.778323 -0.0757431 0
M  V30 1022 H 92.2311 1.78094 -0.78681 0
M  V30 1023 H 90.4021 3.82195 0.69149 0
M  V30 1024 H 92.1341 4.0118 0.532613 0
M  V30 1025 H 88.8891 4.5174 -1.42223 0
M  V30 1026 H 89.3131 5.59512 -3.8115 0
M  V30 1027 H 93.9551 3.99295 -1.39008 0
M  V30 1028 H 91.6731 6.08061 -5.32247 0
M  V30 1029 H 95.2591 4.75866 -3.34728 0
M  V30 1030 H 94.1391 5.79102 -5.28782 0
M  V30 1031 N 91.6422 0.330177 1.54103 0
M  V30 1032 C 92.9192 -0.325007 1.92881 0
M  V30 1033 C 93.2992 -1.6934 1.26045 0
M  V30 1034 O 92.6472 -2.24855 0.406526 0
M  V30 1035 C 92.8572 -0.410634 3.46576 0
M  V30 1036 C 94.2052 -0.667801 4.19316 0
M  V30 1037 O 95.2292 -0.49329 3.52768 0
M  V30 1038 O 94.0882 -1.00491 5.37181 0
M  V30 1039 H 91.1822 -0.186873 0.80561 0
M  V30 1040 H 93.7282 0.380376 1.65382 0
M  V30 1041 H 92.5002 0.550164 3.87413 0
M  V30 1042 H 92.1232 -1.16333 3.802 0
M  V30 1043 N 93.1203 -1.57491 0.0584922 0
M  V30 1044 C 94.3483 -1.97296 -0.623037 0
M  V30 1045 C 94.7633 -0.936338 -1.63946 0
M  V30 1046 O 94.1203 0.0785981 -1.82331 0
M  V30 1047 C 94.1713 -3.37183 -1.30345 0
M  V30 1048 O 93.8923 -4.36872 -0.32773 0
M  V30 1049 C 95.3933 -3.91788 -2.07406 0
M  V30 1050 H 92.6133 -0.649153 -0.169826 0
M  V30 1051 H 95.1573 -2.04106 0.12696 0
M  V30 1052 H 93.3123 -3.31502 -2.00463 0
M  V30 1053 H 93.7263 -5.18141 -0.814269 0
M  V30 1054 H 95.2003 -4.91926 -2.50425 0
M  V30 1055 H 95.6773 -3.27609 -2.92521 0
M  V30 1056 H 96.2833 -4.00829 -1.42184 0
M  V30 1057 N 94.5984 0.214957 -1.56127 0
M  V30 1058 C 95.5614 1.24997 -1.92116 0
M  V30 1059 C 96.5614 1.39467 -0.800344 0
M  V30 1060 O 97.7514 1.37619 -1.06802 0
M  V30 1061 C 94.8834 2.62271 -2.17777 0
M  V30 1062 H 96.0764 0.942875 -2.84693 0
M  V30 1063 H 93.6294 0.455654 -1.49511 0
M  V30 1064 H 94.3644 2.98068 -1.27773 0
M  V30 1065 H 94.1494 2.53143 -2.99434 0
M  V30 1066 H 95.6394 3.36946 -2.46693 0
M  V30 1067 N 96.0765 1.50051 0.48192 0
M  V30 1068 C 97.3245 1.60181 1.23234 0
M  V30 1069 C 97.6455 0.299176 1.92691 0
M  V30 1070 O 96.9155 -0.682708 1.83619 0
M  V30 1071 H 95.4955 0.590232 0.457859 0
M  V30 1072 H 98.1575 1.86775 0.556881 0
M  V30 1073 H 97.2535 2.40753 1.98607 0
M  V30 1074 N 97.5546 -0.734337 1.39446 0
M  V30 1075 C 98.4866 -1.85861 1.34121 0
M  V30 1076 C 99.4996 -1.60871 0.249864 0
M  V30 1077 O 100.689 -1.71093 0.508865 0
M  V30 1078 C 97.7886 -3.21899 1.05991 0
M  V30 1079 C 96.9616 -3.74239 2.26415 0
M  V30 1080 C 96.0206 -4.88841 1.94733 0
M  V30 1081 O 95.0466 -5.02468 2.67422 0
M  V30 1082 N 96.2486 -5.73261 0.913884 0
M  V30 1083 H 99.0136 -1.90934 2.31007 0
M  V30 1084 H 96.5746 -0.915102 1.33557 0
M  V30 1085 H 98.5666 -3.96136 0.828147 0
M  V30 1086 H 97.1366 -3.12091 0.178361 0
M  V30 1087 H 96.3566 -2.91347 2.65539 0
M  V30 1088 H 97.6446 -4.05942 3.06738 0
M  V30 1089 H 97.0426 -5.64842 0.311476 0
M  V30 1090 H 95.5996 -6.47563 0.742015 0
M  V30 1091 N 99.0327 -1.24633 -0.964593 0
M  V30 1092 C 99.9427 -1.05859 -2.09359 0
M  V30 1093 C 100.959 0.00148855 -1.74 0
M  V30 1094 O 102.135 -0.197346 -2.00431 0
M  V30 1095 C 99.1997 -0.668879 -3.40187 0
M  V30 1096 C 98.2607 -1.80578 -3.89474 0
M  V30 1097 C 97.4937 -1.43457 -5.14058 0
M  V30 1098 O 97.7167 -0.325775 -5.69469 0
M  V30 1099 O 96.6507 -2.2613 -5.57807 0
M  V30 1100 H 100.477 -2.00516 -2.28094 0
M  V30 1101 H 98.0617 -1.03481 -1.0776 0
M  V30 1102 H 99.9437 -0.463211 -4.18846 0
M  V30 1103 H 98.6187 0.248536 -3.22744 0
M  V30 1104 H 97.5257 -2.06623 -3.11862 0
M  V30 1105 H 98.8587 -2.70208 -4.11398 0
M  V30 1106 N 100.511 1.16574 -1.06058 0
M  V30 1107 C 101.927 1.3904 -0.783585 0
M  V30 1108 C 102.127 1.91784 0.618145 0
M  V30 1109 O 101.183 2.11511 1.37911 0
M  V30 1110 C 102.496 2.37329 -1.84649 0
M  V30 1111 C 104.044 2.51018 -1.86973 0
M  V30 1112 C 104.519 3.52588 -2.92311 0
M  V30 1113 N 106.01 3.60113 -2.91329 0
M  V30 1114 C 106.745 4.38486 -3.69482 0
M  V30 1115 N 106.241 5.20302 -4.57447 0
M  V30 1116 N 108.034 4.33446 -3.57885 0
M  V30 1117 H 100.185 0.806725 -1.96483 0
M  V30 1118 H 102.448 0.417117 -0.851303 0
M  V30 1119 H 102.154 2.05663 -2.85299 0
M  V30 1120 H 102.028 3.36946 -1.6955 0
M  V30 1121 H 104.415 2.81989 -0.869827 0
M  V30 1122 H 104.496 1.51445 -2.0615 0
M  V30 1123 H 104.14 3.22354 -3.92492 0
M  V30 1124 H 104.07 4.51886 -2.70383 0
M  V30 1125 H 106.561 3.01707 -2.27555 0
M  V30 1126 H 106.874 5.77311 -5.13743 0
M  V30 1127 H 105.219 5.19653 -4.61503 0
M  V30 1128 H 108.41 3.68586 -2.88551 0
M  V30 1129 H 108.583 4.94279 -4.19037 0
M  V30 1130 N 101.989 0.842826 1.3317 0
M  V30 1131 C 103.236 0.440447 1.97652 0
M  V30 1132 C 103.564 -1.00123 1.6675 0
M  V30 1133 O 102.819 -1.7155 0.941761 0
M  V30 1134 C 103.118 0.612607 3.52111 0
M  V30 1135 C 102.784 2.02297 4.02972 0
M  V30 1136 C 101.446 2.40874 4.16573 0
M  V30 1137 C 103.798 2.94402 4.30089 0
M  V30 1138 C 101.126 3.70852 4.54627 0
M  V30 1139 C 103.478 4.23865 4.69597 0
M  V30 1140 C 102.142 4.62392 4.81404 0
M  V30 1141 H 101.412 0.161171 0.72326 0
M  V30 1142 H 104.059 1.07061 1.58777 0
M  V30 1143 H 102.364 -0.100849 3.9167 0
M  V30 1144 H 104.061 0.2815 4.00011 0
M  V30 1145 H 100.651 1.71338 3.92863 0
M  V30 1146 H 104.835 2.65835 4.19101 0
M  V30 1147 H 100.091 4.00501 4.61962 0
M  V30 1148 H 104.265 4.95306 4.89536 0
M  V30 1149 H 101.892 5.63154 5.10648 0
M  V30 1150 N 103.467 -1.45747 0.599634 0
M  V30 1151 C 104.883 -1.57424 0.26264 0
M  V30 1152 C 105.083 -1.59222 -1.23493 0
M  V30 1153 O 104.139 -1.51825 -2.01756 0
M  V30 1154 C 105.452 -2.86061 0.926795 0
M  V30 1155 C 107 -2.99722 0.901967 0
M  V30 1156 C 107.475 -4.31119 1.54598 0
M  V30 1157 N 108.966 -4.37858 1.5111 0
M  V30 1158 C 109.701 -5.3818 1.97863 0
M  V30 1159 N 109.197 -6.45083 2.52666 0
M  V30 1160 N 110.99 -5.29487 1.88679 0
M  V30 1161 H 103.141 -1.42823 1.57211 0
M  V30 1162 H 105.404 -0.68235 0.658105 0
M  V30 1163 H 105.11 -2.90605 1.98095 0
M  V30 1164 H 104.984 -3.74563 0.445238 0
M  V30 1165 H 107.371 -2.9475 -0.143617 0
M  V30 1166 H 107.452 -2.12652 1.42171 0
M  V30 1167 H 107.096 -4.36849 2.59085 0
M  V30 1168 H 107.026 -5.16992 1.00132 0
M  V30 1169 H 109.517 -3.61209 1.11068 0
M  V30 1170 H 109.83 -7.17869 2.86155 0
M  V30 1171 H 108.175 -6.45856 2.56701 0
M  V30 1172 H 111.366 -4.44877 1.4561 0
M  V30 1173 H 111.539 -6.07524 2.25429 0
M  V30 1174 N 104.945 -0.338344 -1.53925 0
M  V30 1175 C 106.173 0.261298 -2.05243 0
M  V30 1176 C 106.588 1.44625 -1.21363 0
M  V30 1177 O 105.945 1.80811 -0.247736 0
M  V30 1178 C 105.996 0.681412 -3.5502 0
M  V30 1179 O 105.717 -0.456414 -4.35716 0
M  V30 1180 C 107.218 1.34232 -4.22489 0
M  V30 1181 H 104.438 0.0513685 -0.669031 0
M  V30 1182 H 106.982 -0.488822 -1.98572 0
M  V30 1183 H 105.137 1.38148 -3.61931 0
M  V30 1184 H 105.551 -0.122564 -5.24357 0
M  V30 1185 H 107.025 1.58708 -5.28693 0
M  V30 1186 H 107.502 2.29426 -3.74514 0
M  V30 1187 H 108.108 0.684424 -4.19757 0
M  V30 1188 N 106.423 1.57458 -0.0668435 0
M  V30 1189 C 107.672 1.92477 0.602947 0
M  V30 1190 C 107.985 0.948419 1.71068 0
M  V30 1191 O 109.191 1.19124 2.43971 0
M  V30 1192 C 107.647 3.41903 1.12383 0
M  V30 1193 C 107.255 4.47975 0.04737 0
M  V30 1194 C 108.999 3.85931 1.76797 0
M  V30 1195 C 106.906 5.88529 0.582022 0
M  V30 1196 H 105.836 0.718387 0.22899 0
M  V30 1197 H 108.487 1.82978 -0.138276 0
M  V30 1198 H 106.869 3.46459 1.91787 0
M  V30 1199 H 108.043 4.55029 -0.726978 0
M  V30 1200 H 106.358 4.13384 -0.500243 0
M  V30 1201 H 108.955 4.88322 2.17821 0
M  V30 1202 H 109.298 3.23029 2.62599 0
M  V30 1203 H 109.831 3.83958 1.04024 0
M  V30 1204 H 106.57 6.55065 -0.238721 0
M  V30 1205 H 106.09 5.85004 1.324 0
M  V30 1206 H 107.769 6.38258 1.05999 0
M  V30 1207 N 107.901 -0.206675 1.56239 0
M  V30 1208 C 109.129 -0.945345 1.8404 0
M  V30 1209 C 109.544 -1.77336 0.647885 0
M  V30 1210 O 108.901 -1.78425 -0.383511 0
M  V30 1211 C 108.952 -1.8509 3.10522 0
M  V30 1212 O 108.673 -1.05634 4.25174 0
M  V30 1213 C 110.174 -2.70222 3.51418 0
M  V30 1214 H 107.394 -0.276372 0.61144 0
M  V30 1215 H 109.938 -0.217417 2.03341 0
M  V30 1216 H 108.093 -2.53259 2.93153 0
M  V30 1217 H 108.507 -1.67238 4.97124 0
M  V30 1218 H 109.981 -3.29438 4.42916 0
M  V30 1219 H 110.458 -3.43358 2.73864 0
M  V30 1220 H 111.064 -2.07443 3.71278 0
M  V30 1221 N 109.379 -1.50304 -0.473955 0
M  V30 1222 C 110.607 -1.64902 -1.24959 0
M  V30 1223 C 111.022 -0.331198 -1.85872 0
M  V30 1224 O 110.379 0.68652 -1.69095 0
M  V30 1225 C 110.43 -2.73803 -2.36038 0
M  V30 1226 O 110.151 -4.00477 -1.77624 0
M  V30 1227 C 111.652 -2.99349 -3.26964 0
M  V30 1228 H 108.872 -0.554383 -0.378022 0
M  V30 1229 H 111.416 -1.9651 -0.566054 0
M  V30 1230 H 109.571 -2.44898 -3.00173 0
M  V30 1231 H 109.985 -4.60678 -2.5075 0
M  V30 1232 H 111.459 -3.79217 -4.01121 0
M  V30 1233 H 111.936 -2.10307 -3.85574 0
M  V30 1234 H 112.542 -3.29774 -2.68569 0
M  V30 1235 N 110.857 0.726932 -1.39834 0
M  V30 1236 C 111.82 1.82269 -1.38962 0
M  V30 1237 C 112.82 1.58248 -0.285334 0
M  V30 1238 O 114.01 1.65499 -0.54366 0
M  V30 1239 C 111.142 3.20186 -1.17019 0
M  V30 1240 H 112.335 1.84443 -2.36476 0
M  V30 1241 H 109.888 0.931416 -1.25516 0
M  V30 1242 H 110.623 3.23669 -0.202204 0
M  V30 1243 H 110.408 3.3902 -1.96998 0
M  V30 1244 H 111.898 4.00235 -1.1917 0
M  V30 1245 N 112.336 1.25143 0.95797 0
M  V30 1246 C 113.566 1.12261 1.73439 0
M  V30 1247 C 113.974 -0.326715 1.86358 0
M  V30 1248 O 113.317 -1.2367 1.35836 0
M  V30 1249 C 113.379 1.69966 3.16784 0
M  V30 1250 C 113.043 3.18936 3.27305 0
M  V30 1251 C 114.04 4.15968 3.11877 0
M  V30 1252 C 111.725 3.59083 3.51234 0
M  V30 1253 C 113.719 5.51126 3.20217 0
M  V30 1254 C 111.406 4.9438 3.5921 0
M  V30 1255 C 112.404 5.90211 3.43716 0
M  V30 1256 O 112.092 7.23046 3.51368 0
M  V30 1257 H 111.824 0.392476 0.550399 0
M  V30 1258 H 114.378 1.65927 1.21068 0
M  V30 1259 H 112.608 1.10744 3.70503 0
M  V30 1260 H 114.297 1.52232 3.76272 0
M  V30 1261 H 115.063 3.86292 2.93264 0
M  V30 1262 H 110.942 2.84989 3.62356 0
M  V30 1263 H 114.486 6.25905 3.0804 0
M  V30 1264 H 110.383 5.23723 3.77339 0
M  V30 1265 H 111.151 7.31097 3.6802 0
M  V30 1266 N 113.814 -1.1601 1.06675 0
M  V30 1267 C 115.044 -1.90251 0.805497 0
M  V30 1268 C 115.452 -1.77891 -0.64431 0
M  V30 1269 O 114.795 -1.12383 -1.45313 0
M  V30 1270 C 114.857 -3.41419 1.12576 0
M  V30 1271 C 114.521 -3.77564 2.57477 0
M  V30 1272 C 115.518 -3.79161 3.55715 0
M  V30 1273 C 113.203 -4.08079 2.92877 0
M  V30 1274 C 115.197 -4.10767 4.8739 0
M  V30 1275 C 112.884 -4.39351 4.24751 0
M  V30 1276 C 113.882 -4.40675 5.21818 0
M  V30 1277 O 113.57 -4.71202 6.51325 0
M  V30 1278 H 113.302 -0.610018 0.291297 0
M  V30 1279 H 115.856 -1.47958 1.4247 0
M  V30 1280 H 114.086 -3.84079 0.449503 0
M  V30 1281 H 115.775 -3.9694 0.84814 0
M  V30 1282 H 116.541 -3.55693 3.29708 0
M  V30 1283 H 112.42 -4.06211 2.17976 0
M  V30 1284 H 115.964 -4.11715 5.63148 0
M  V30 1285 H 111.861 -4.62285 4.50514 0
M  V30 1286 H 112.629 -4.88996 6.56373 0
M  V30 1287 N 115.292 -0.849877 -1.32721 0
M  V30 1288 C 116.708 -0.539102 -1.50219 0
M  V30 1289 C 116.908 0.931271 -1.78689 0
M  V30 1290 O 115.964 1.71455 -1.85363 0
M  V30 1291 C 117.277 -1.42196 -2.64954 0
M  V30 1292 C 118.825 -1.42189 -2.78839 0
M  V30 1293 C 119.3 -2.28985 -3.96648 0
M  V30 1294 N 120.791 -2.26754 -4.03902 0
M  V30 1295 C 121.526 -2.90644 -4.94281 0
M  V30 1296 N 121.022 -3.63629 -5.897 0
M  V30 1297 N 122.815 -2.80057 -4.87365 0
M  V30 1298 H 114.966 -1.80156 -1.12506 0
M  V30 1299 H 117.229 -0.769217 -0.554085 0
M  V30 1300 H 116.935 -2.46733 -2.50631 0
M  V30 1301 H 116.809 -1.10591 -3.60624 0
M  V30 1302 H 119.196 -0.38419 -2.92588 0
M  V30 1303 H 119.277 -1.77807 -1.83898 0
M  V30 1304 H 118.921 -3.32819 -3.83658 0
M  V30 1305 H 118.851 -1.90702 -4.90857 0
M  V30 1306 H 121.342 -1.73688 -3.3562 0
M  V30 1307 H 121.655 -4.09558 -6.55349 0
M  V30 1308 H 120 -3.67737 -5.89741 0
M  V30 1309 H 123.191 -2.22593 -4.11789 0
M  V30 1310 H 123.364 -3.30132 -5.57599 0
M  V30 1311 N 116.77 1.45427 -0.607355 0
M  V30 1312 C 118.018 2.01841 -0.102253 0
M  V30 1313 C 118.339 1.47832 1.27164 0
M  V30 1314 O 117.609 0.672497 1.83995 0
M  V30 1315 H 116.189 0.746188 -0.0348101 0
M  V30 1316 H 118.851 1.78229 -0.7887 0
M  V30 1317 H 117.947 3.12057 -0.0518585 0
M  V30 1318 N 118.248 0.346503 1.53744 0
M  V30 1319 C 119.211 -0.496439 2.23759 0
M  V30 1320 C 120.211 -1.0252 1.2388 0
M  V30 1321 O 121.401 -0.913974 1.48297 0
M  V30 1322 C 118.533 -1.69187 2.95954 0
M  V30 1323 H 119.726 0.115952 2.99676 0
M  V30 1324 H 117.279 0.0978939 1.55993 0
M  V30 1325 H 118.014 -2.34288 2.24231 0
M  V30 1326 H 117.799 -1.31989 3.69217 0
M  V30 1327 H 119.289 -2.28969 3.49232 0
M  V30 1328 N 119.726 -1.57421 0.075193 0
M  V30 1329 C 120.659 -2.08528 -0.926904 0
M  V30 1330 C 121.637 -0.991171 -1.28898 0
M  V30 1331 O 122.821 -1.26479 -1.39769 0
M  V30 1332 C 119.948 -2.54576 -2.23402 0
M  V30 1333 C 118.994 -3.75454 -2.02327 0
M  V30 1334 S 119.827 -5.19989 -1.27951 0
M  V30 1335 C 120.983 -5.69372 -2.59935 0
M  V30 1336 H 121.216 -2.932 -0.492048 0
M  V30 1337 H 118.749 -1.53785 -0.137651 0
M  V30 1338 H 120.707 -2.81767 -2.98526 0
M  V30 1339 H 119.368 -1.70166 -2.64012 0
M  V30 1340 H 118.561 -4.05675 -2.99071 0
M  V30 1341 H 118.163 -3.48654 -1.35339 0
M  V30 1342 H 120.455 -5.76424 -3.56008 0
M  V30 1343 H 121.398 -6.68207 -2.34319 0
M  V30 1344 H 121.806 -4.97205 -2.67296 0
M  V30 1345 N 121.204 0.198386 -1.56346 0
M  V30 1346 C 122.452 0.91747 -1.80075 0
M  V30 1347 C 122.773 1.83929 -0.647692 0
M  V30 1348 O 122.043 1.93029 0.334166 0
M  V30 1349 H 120.623 0.341774 -0.664228 0
M  V30 1350 H 123.285 0.204684 -1.93822 0
M  V30 1351 H 122.381 1.51055 -2.7311 0
M  V30 1352 N 122.682 1.50554 0.465978 0
M  V30 1353 C 123.931 1.61038 1.21448 0
M  V30 1354 C 124.244 0.31865 1.92987 0
M  V30 1355 O 125.45 0.302469 2.6981 0
M  V30 1356 C 123.906 2.84283 2.20706 0
M  V30 1357 C 123.514 4.20352 1.54946 0
M  V30 1358 C 125.258 3.04115 2.96166 0
M  V30 1359 C 123.165 5.34778 2.5252 0
M  V30 1360 H 122.095 0.599718 0.457005 0
M  V30 1361 H 124.746 1.7699 0.484424 0
M  V30 1362 H 123.128 2.61901 2.97025 0
M  V30 1363 H 124.302 4.53008 0.843811 0
M  V30 1364 H 122.617 4.06167 0.917475 0
M  V30 1365 H 125.214 3.86774 3.69202 0
M  V30 1366 H 125.557 2.16045 3.55852 0
M  V30 1367 H 126.09 3.26702 2.26959 0
M  V30 1368 H 122.829 6.25018 1.97566 0
M  V30 1369 H 122.349 5.06534 3.21222 0
M  V30 1370 H 124.028 5.65561 3.14245 0
M  V30 1371 N 124.16 -0.719506 1.40217 0
M  V30 1372 C 125.093 -1.84298 1.34571 0
M  V30 1373 C 126.071 -1.61149 0.216741 0
M  V30 1374 O 127.255 -1.84212 0.399756 0
M  V30 1375 C 124.382 -3.20568 1.09335 0
M  V30 1376 C 123.428 -3.62551 2.24631 0
M  V30 1377 S 124.261 -3.7012 3.87004 0
M  V30 1378 C 125.417 -5.09154 3.64024 0
M  V30 1379 H 125.65 -1.88807 2.2965 0
M  V30 1380 H 123.183 -0.885901 1.26456 0
M  V30 1381 H 125.141 -3.99246 0.954602 0
M  V30 1382 H 123.802 -3.13696 0.159164 0
M  V30 1383 H 122.995 -4.61483 2.02606 0
M  V30 1384 H 122.597 -2.91119 2.34789 0
M  V30 1385 H 124.889 -5.95955 3.22248 0
M  V30 1386 H 125.832 -5.36213 4.62473 0
M  V30 1387 H 126.24 -4.79562 2.97793 0
M  V30 1388 N 125.638 -1.25649 -0.95132 0
M  V30 1389 C 126.568 -1.08808 -2.06599 0
M  V30 1390 C 127.549 0.00382547 -1.701 0
M  V30 1391 O 128.734 -0.166325 -1.93486 0
M  V30 1392 C 125.864 -0.709542 -3.39975 0
M  V30 1393 C 124.818 -1.75206 -3.90496 0
M  V30 1394 C 124.144 -1.22811 -5.20405 0
M  V30 1395 C 125.444 -3.15153 -4.16504 0
M  V30 1396 H 127.138 -2.02048 -2.20946 0
M  V30 1397 H 124.684 -0.972835 -1.06169 0
M  V30 1398 H 126.637 -0.578649 -4.17408 0
M  V30 1399 H 125.361 0.258556 -3.25575 0
M  V30 1400 H 124.02 -1.87145 -3.15234 0
M  V30 1401 H 123.668 -0.250145 -5.02378 0
M  V30 1402 H 123.368 -1.92492 -5.55176 0
M  V30 1403 H 124.892 -1.10968 -6.00432 0
M  V30 1404 H 126.306 -3.06349 -4.84586 0
M  V30 1405 H 124.703 -3.82333 -4.62538 0
M  V30 1406 H 125.773 -3.61966 -3.22658 0
M  V30 1407 N 127.117 1.15442 -1.07289 0
M  V30 1408 C 128.363 1.86489 -0.796846 0
M  V30 1409 C 128.696 1.82078 0.675371 0
M  V30 1410 O 127.971 1.24346 1.4956 0
M  V30 1411 C 128.254 3.35626 -1.30489 0
M  V30 1412 C 128.107 3.48673 -2.84161 0
M  V30 1413 C 129.426 4.30357 -0.920907 0
M  V30 1414 H 126.545 0.677144 -0.290939 0
M  V30 1415 H 129.187 1.35633 -1.33056 0
M  V30 1416 H 127.337 3.79068 -0.850883 0
M  V30 1417 H 129.009 3.14099 -3.37846 0
M  V30 1418 H 127.252 2.90253 -3.22391 0
M  V30 1419 H 127.923 4.53453 -3.14777 0
M  V30 1420 H 130.399 3.94871 -1.3121 0
M  V30 1421 H 129.275 5.33193 -1.30372 0
M  V30 1422 H 129.536 4.4176 0.173226 0
M  V30 1423 N 128.595 0.856903 1.32268 0
M  V30 1424 C 129.825 0.47475 2.01071 0
M  V30 1425 C 130.233 -0.933746 1.64553 0
M  V30 1426 O 129.576 -1.62114 0.863989 0
M  V30 1427 C 129.638 0.536746 3.55471 0
M  V30 1428 C 129.302 1.90453 4.15423 0
M  V30 1429 C 130.299 2.87029 4.33486 0
M  V30 1430 C 127.984 2.20229 4.51447 0
M  V30 1431 C 129.978 4.11532 4.86744 0
M  V30 1432 C 127.665 3.44984 5.0441 0
M  V30 1433 C 128.663 4.40452 5.22007 0
M  V30 1434 O 128.351 5.62998 5.73837 0
M  V30 1435 H 128.083 0.184778 0.650256 0
M  V30 1436 H 130.637 1.15615 1.69771 0
M  V30 1437 H 128.867 -0.20152 3.86175 0
M  V30 1438 H 130.556 0.169875 4.05544 0
M  V30 1439 H 131.322 2.6533 4.05986 0
M  V30 1440 H 127.201 1.46705 4.37034 0
M  V30 1441 H 130.745 4.86056 5.00395 0
M  V30 1442 H 126.642 3.66532 5.31342 0
M  V30 1443 H 127.41 5.64987 5.92226 0
M  V30 1444 N 130.073 -1.45103 0.615059 0
M  V30 1445 C 131.35 -1.95549 0.0448276 0
M  V30 1446 C 131.73 -1.55737 -1.4251 0
M  V30 1447 O 131.078 -0.823556 -2.13143 0
M  V30 1448 C 131.288 -3.48098 0.250785 0
M  V30 1449 C 132.636 -4.24384 0.135509 0
M  V30 1450 O 133.66 -3.55738 0.181299 0
M  V30 1451 O 132.519 -5.46493 0.0268878 0
M  V30 1452 H 129.613 -0.8264 -0.0314845 0
M  V30 1453 H 132.159 -1.55232 0.685642 0
M  V30 1454 H 130.931 -3.7007 1.27139 0
M  V30 1455 H 130.554 -3.95323 -0.424937 0
M  V30 1456 N 131.551 -0.354651 -1.53558 0
M  V30 1457 C 132.8 0.239504 -2.00273 0
M  V30 1458 C 133.113 1.50759 -1.24623 0
M  V30 1459 O 134.319 2.17968 -1.61871 0
M  V30 1460 C 132.775 0.477341 -3.5672 0
M  V30 1461 C 132.383 -0.775488 -4.41237 0
M  V30 1462 C 134.127 1.02975 -4.11821 0
M  V30 1463 C 132.034 -0.507838 -5.89216 0
M  V30 1464 H 130.964 0.0932743 -0.748208 0
M  V30 1465 H 133.615 -0.471701 -1.77334 0
M  V30 1466 H 131.997 1.24953 -3.7577 0
M  V30 1467 H 133.171 -1.54963 -4.33962 0
M  V30 1468 H 131.486 -1.25033 -3.97185 0
M  V30 1469 H 134.083 1.24513 -5.2 0
M  V30 1470 H 134.426 1.98862 -3.65731 0
M  V30 1471 H 134.959 0.317994 -3.96527 0
M  V30 1472 H 131.698 -1.43674 -6.39561 0
M  V30 1473 H 131.218 0.228011 -5.99366 0
M  V30 1474 H 132.897 -0.129238 -6.46871 0
M  V30 1475 N 133.029 1.57378 -0.0835403 0
M  V30 1476 C 134.257 1.98263 0.59157 0
M  V30 1477 C 134.672 0.962302 1.62435 0
M  V30 1478 O 134.029 -0.049581 1.82433 0
M  V30 1479 C 134.08 3.39214 1.24965 0
M  V30 1480 O 133.801 4.37339 0.258186 0
M  V30 1481 C 135.302 3.95038 2.01147 0
M  V30 1482 H 132.522 0.651773 0.159477 0
M  V30 1483 H 135.066 2.03878 -0.159415 0
M  V30 1484 H 133.221 3.34649 1.95164 0
M  V30 1485 H 133.635 5.19371 0.731734 0
M  V30 1486 H 135.109 4.95848 2.42567 0
M  V30 1487 H 135.586 3.32222 2.87272 0
M  V30 1488 H 136.192 4.0304 1.35789 0
M  V30 1489 N 134.507 -0.190092 1.56449 0
M  V30 1490 C 135.455 -1.25501 1.95837 0
M  V30 1491 C 136.449 -1.4685 0.844485 0
M  V30 1492 O 137.655 -1.47651 1.02952 0
M  V30 1493 H 134.03 -0.421447 0.622805 0
M  V30 1494 H 136.001 -0.895821 2.84636 0
M  V30 1495 C 134.75 -2.59124 2.31841 0
M  V30 1496 H 134.073 -2.43514 3.17082 0
M  V30 1497 H 135.513 -3.32371 2.6326 0
M  V30 1498 C 133.972 -3.16488 1.15486 0
M  V30 1499 O 134.502 -3.99365 0.432535 0
M  V30 1500 N 132.708 -2.75305 0.930349 0
M  V30 1501 H 132.255 -2.08013 1.51948 0
M  V30 1502 H 132.213 -3.14024 0.153634 0
M  V30 1503 N 135.985 -1.50799 -0.457987 0
M  V30 1504 C 136.895 -1.73426 -1.57989 0
M  V30 1505 C 137.911 -0.617745 -1.62665 0
M  V30 1506 O 139.087 -0.897614 -1.80291 0
M  V30 1507 C 136.152 -1.83557 -2.94122 0
M  V30 1508 C 135.213 -3.07345 -2.99729 0
M  V30 1509 C 134.446 -3.16983 -4.29368 0
M  V30 1510 O 134.669 -2.33077 -5.20607 0
M  V30 1511 O 133.603 -4.09812 -4.40837 0
M  V30 1512 H 137.429 -2.68555 -1.41817 0
M  V30 1513 H 135.014 -1.35052 -0.638859 0
M  V30 1514 H 136.896 -1.92326 -3.74952 0
M  V30 1515 H 135.571 -0.916137 -3.10465 0
M  V30 1516 H 134.478 -3.04068 -2.1793 0
M  V30 1517 H 135.811 -3.9891 -2.88326 0
M  V30 1518 N 137.463 0.71206 -1.40597 0
M  V30 1519 C 138.41 1.82613 -1.41142 0
M  V30 1520 C 139.38 1.63925 -0.267903 0
M  V30 1521 O 140.565 1.85009 -0.466495 0
M  V30 1522 C 137.705 3.20354 -1.28324 0
M  V30 1523 C 136.818 3.50589 -2.52411 0
M  V30 1524 C 135.953 4.77855 -2.32009 0
M  V30 1525 C 134.992 5.01005 -3.51654 0
M  V30 1526 N 134.129 6.19487 -3.30425 0
M  V30 1527 H 138.969 1.81482 -2.36365 0
M  V30 1528 H 136.506 0.886475 -1.17388 0
M  V30 1529 H 138.464 3.99899 -1.18899 0
M  V30 1530 H 137.094 3.20705 -0.367189 0
M  V30 1531 H 136.146 2.65573 -2.72351 0
M  V30 1532 H 137.458 3.63604 -3.41458 0
M  V30 1533 H 136.612 5.65424 -2.19956 0
M  V30 1534 H 135.351 4.67056 -1.40392 0
M  V30 1535 H 134.356 4.1189 -3.64179 0
M  V30 1536 H 135.581 5.13674 -4.44202 0
M  V30 1537 H 133.527 6.09932 -2.41494 0
M  V30 1538 H 133.444 6.33194 -4.13039 0
M  V30 1539 H 134.712 7.09834 -3.22113 0
M  V30 1540 N 138.941 1.26152 0.944643 0
M  V30 1541 C 140.166 1.14363 1.7302 0
M  V30 1542 C 140.591 -0.29772 1.85729 0
M  V30 1543 O 139.949 -1.2157 1.34501 0
M  V30 1544 C 139.997 1.81378 3.11664 0
M  V30 1545 O 139.101 1.10022 3.97453 0
M  V30 1546 H 138.442 0.398694 0.53098 0
M  V30 1547 H 140.972 1.66906 1.18337 0
M  V30 1548 H 140.982 1.88064 3.62072 0
M  V30 1549 H 139.657 2.86237 3.0173 0
M  V30 1550 H 138.234 1.11287 3.55907 0
M  V30 1551 N 140.419 -1.14872 1.07899 0
M  V30 1552 C 141.666 -1.85789 0.805532 0
M  V30 1553 C 141.994 -1.82649 -0.668561 0
M  V30 1554 O 141.249 -1.24858 -1.50695 0
M  V30 1555 C 141.548 -3.34223 1.26609 0
M  V30 1556 C 141.214 -3.57555 2.74709 0
M  V30 1557 C 139.876 -3.63631 3.1516 0
M  V30 1558 C 142.228 -3.66803 3.70277 0
M  V30 1559 C 139.556 -3.76473 4.49983 0
M  V30 1560 C 141.908 -3.8117 5.04869 0
M  V30 1561 C 140.572 -3.85494 5.44932 0
M  V30 1562 H 139.842 -0.679849 0.294765 0
M  V30 1563 H 142.489 -1.3572 1.35101 0
M  V30 1564 H 140.794 -3.86536 0.640103 0
M  V30 1565 H 142.491 -3.87511 1.03132 0
M  V30 1566 H 139.081 -3.5347 2.42398 0
M  V30 1567 H 143.265 -3.61404 3.40149 0
M  V30 1568 H 138.521 -3.7808 4.80484 0
M  V30 1569 H 142.695 -3.87268 5.78789 0
M  V30 1570 H 140.322 -3.95197 6.49403 0
M  V30 1571 N 141.898 -0.863906 -1.31812 0
M  V30 1572 C 143.175 -0.39275 -1.91616 0
M  V30 1573 C 143.555 1.12461 -1.7865 0
M  V30 1574 O 142.903 1.95045 -1.19037 0
M  V30 1575 C 143.113 -0.867385 -3.38049 0
M  V30 1576 C 144.461 -0.889966 -4.15168 0
M  V30 1577 O 145.485 -0.812635 -3.46806 0
M  V30 1578 O 144.344 -1.00079 -5.37258 0
M  V30 1579 H 141.438 -0.116358 -0.818773 0
M  V30 1580 H 143.984 -0.951418 -1.40521 0
M  V30 1581 H 142.756 -1.91081 -3.41473 0
M  V30 1582 H 142.379 -0.286687 -3.96565 0
M  V30 1583 N 143.376 1.44774 -0.622745 0
M  V30 1584 C 144.324 2.32387 0.0994683 0
M  V30 1585 C 145.318 1.46859 0.844326 0
M  V30 1586 O 146.524 1.63254 0.758174 0
M  V30 1587 H 142.899 0.750273 0.0509291 0
M  V30 1588 H 144.87 2.91062 -0.65767 0
M  V30 1589 C 143.619 3.30723 1.07319 0
M  V30 1590 H 142.942 3.96541 0.509462 0
M  V30 1591 H 144.382 3.94725 1.54817 0
M  V30 1592 C 142.841 2.59021 2.15429 0
M  V30 1593 O 143.371 2.38286 3.23393 0
M  V30 1594 N 141.577 2.189 1.91131 0
M  V30 1595 H 141.124 2.35964 1.03337 0
M  V30 1596 H 141.082 1.71251 2.63668 0
M  V30 1597 N 144.854 0.36279 1.53368 0
M  V30 1598 C 146.103 -0.22888 2.00397 0
M  V30 1599 C 146.416 -1.50096 1.25421 0
M  V30 1600 O 147.622 -2.17106 1.63025 0
M  V30 1601 C 146.078 -0.458417 3.56969 0
M  V30 1602 C 145.686 0.798877 4.4082 0
M  V30 1603 C 147.43 -1.00789 4.12361 0
M  V30 1604 C 145.337 0.539078 5.88938 0
M  V30 1605 H 144.267 -0.089305 0.748693 0
M  V30 1606 H 146.918 0.481099 1.77081 0
M  V30 1607 H 145.3 -1.22959 3.76427 0
M  V30 1608 H 146.474 1.57262 4.33134 0
M  V30 1609 H 144.789 1.27137 3.96516 0
M  V30 1610 H 147.386 -1.21754 5.20653 0
M  V30 1611 H 147.729 -1.9692 3.66781 0
M  V30 1612 H 148.262 -0.296961 3.9669 0
M  V30 1613 H 145.001 1.47064 6.3879 0
M  V30 1614 H 144.521 -0.196222 5.99479 0
M  V30 1615 H 146.2 0.163542 6.46793 0
M  V30 1616 N 146.332 -1.57332 0.0918853 0
M  V30 1617 C 147.279 -2.13847 -0.868211 0
M  V30 1618 C 148.249 -1.05618 -1.28196 0
M  V30 1619 O 149.434 -1.33387 -1.36427 0
M  V30 1620 C 146.574 -2.72062 -2.12312 0
M  V30 1621 C 145.687 -3.94514 -1.7602 0
M  V30 1622 C 144.822 -4.40903 -2.96273 0
M  V30 1623 C 143.861 -5.55953 -2.56092 0
M  V30 1624 N 142.998 -5.97209 -3.69169 0
M  V30 1625 H 147.838 -2.95575 -0.379406 0
M  V30 1626 H 145.375 -1.46048 -0.175606 0
M  V30 1627 H 147.333 -3.03931 -2.858 0
M  V30 1628 H 145.963 -1.93068 -2.58698 0
M  V30 1629 H 145.015 -3.68979 -0.925135 0
M  V30 1630 H 146.327 -4.7802 -1.42472 0
M  V30 1631 H 145.481 -4.74539 -3.78018 0
M  V30 1632 H 144.22 -3.56291 -3.33029 0
M  V30 1633 H 143.225 -5.21948 -1.72773 0
M  V30 1634 H 144.45 -6.42311 -2.20484 0
M  V30 1635 H 142.396 -5.15543 -4.05649 0
M  V30 1636 H 142.313 -6.75504 -3.39456 0
M  V30 1637 H 143.581 -6.35475 -4.51434 0
M  V30 1638 N 147.81 0.181792 -1.56548 0
M  V30 1639 C 148.758 1.24461 -1.965 0
M  V30 1640 C 149.752 1.464 -0.852261 0
M  V30 1641 O 150.958 1.47103 -1.03733 0
M  V30 1642 H 147.333 0.418138 -0.625031 0
M  V30 1643 H 149.304 0.880714 -2.85107 0
M  V30 1644 C 148.053 2.57891 -2.33212 0
M  V30 1645 H 147.376 2.41829 -3.18369 0
M  V30 1646 H 148.816 3.3097 -2.65019 0
M  V30 1647 C 147.275 3.15871 -1.17163 0
M  V30 1648 O 147.805 3.9913 -0.453708 0
M  V30 1649 N 146.011 2.74808 -0.944936 0
M  V30 1650 H 145.558 2.07205 -1.53049 0
M  V30 1651 H 145.516 3.13939 -0.170286 0
M  V30 1652 N 149.288 1.51039 0.449983 0
M  V30 1653 C 150.534 1.64287 1.19923 0
M  V30 1654 C 150.889 0.348701 1.89214 0
M  V30 1655 O 150.182 -0.654751 1.80065 0
M  V30 1656 C 150.376 2.77556 2.25161 0
M  V30 1657 C 150.205 4.17862 1.66198 0
M  V30 1658 C 148.975 4.83976 1.45243 0
M  V30 1659 C 151.173 5.01388 1.14519 0
M  V30 1660 N 149.155 6.08433 0.817437 0
M  V30 1661 C 150.526 6.16743 0.634705 0
M  V30 1662 C 152.581 4.87008 1.03574 0
M  V30 1663 C 151.284 7.19295 0.0255452 0
M  V30 1664 C 153.31 5.89757 0.440489 0
M  V30 1665 C 152.672 7.04375 -0.0595112 0
M  V30 1666 H 148.771 0.655161 0.426952 0
M  V30 1667 H 151.355 1.88228 0.49781 0
M  V30 1668 H 149.526 2.553 2.92706 0
M  V30 1669 H 151.258 2.80049 2.92155 0
M  V30 1670 H 148.013 4.41627 1.71063 0
M  V30 1671 H 148.437 6.75017 0.517747 0
M  V30 1672 H 153.079 3.9866 1.4082 0
M  V30 1673 H 150.797 8.07302 -0.359071 0
M  V30 1674 H 154.383 5.80698 0.35788 0
M  V30 1675 H 153.263 7.82521 -0.512882 0
M  V30 1676 N 150.766 -0.704594 1.40972 0
M  V30 1677 C 152.015 -1.46018 1.39146 0
M  V30 1678 C 152.328 -1.956 0.000589254 0
M  V30 1679 O 153.534 -2.71137 -0.1403 0
M  V30 1680 C 151.99 -2.63996 2.4461 0
M  V30 1681 C 151.598 -2.21238 3.89561 0
M  V30 1682 C 153.342 -3.41677 2.51907 0
M  V30 1683 C 151.249 -3.3612 4.86598 0
M  V30 1684 H 150.179 -0.548444 0.517422 0
M  V30 1685 H 152.83 -0.765784 1.66757 0
M  V30 1686 H 151.212 -3.3566 2.10115 0
M  V30 1687 H 152.386 -1.56923 4.33257 0
M  V30 1688 H 150.701 -1.56574 3.85841 0
M  V30 1689 H 153.298 -4.27182 3.2159 0
M  V30 1690 H 153.641 -3.86247 1.55303 0
M  V30 1691 H 154.174 -2.77064 2.85448 0
M  V30 1692 H 150.913 -2.96572 5.84573 0
M  V30 1693 H 150.433 -3.99315 4.47557 0
M  V30 1694 H 152.112 -4.02029 5.06934 0
M  V30 1695 N 152.244 -1.26651 -0.937939 0
M  V30 1696 C 153.66 -1.03834 -1.21205 0
M  V30 1697 C 153.86 0.234502 -2.00131 0
M  V30 1698 O 152.916 0.942767 -2.3424 0
M  V30 1699 C 154.229 -2.27167 -1.97017 0
M  V30 1700 C 155.777 -2.32101 -2.09996 0
M  V30 1701 C 156.252 -3.55136 -2.8921 0
M  V30 1702 N 157.743 -3.55632 -2.96783 0
M  V30 1703 C 158.478 -4.475 -3.58512 0
M  V30 1704 N 157.974 -5.4966 -4.21717 0
M  V30 1705 N 159.767 -4.35145 -3.55816 0
M  V30 1706 H 151.918 -2.08398 -0.410391 0
M  V30 1707 H 154.181 -0.916031 -0.244114 0
M  V30 1708 H 153.887 -3.19765 -1.46434 0
M  V30 1709 H 153.761 -2.31672 -2.97671 0
M  V30 1710 H 156.148 -1.40015 -2.59769 0
M  V30 1711 H 156.229 -2.31605 -1.08594 0
M  V30 1712 H 155.873 -4.47553 -2.40123 0
M  V30 1713 H 155.803 -3.5288 -3.90875 0
M  V30 1714 H 158.294 -2.81743 -2.51852 0
M  V30 1715 H 158.607 -6.15943 -4.66727 0
M  V30 1716 H 156.952 -5.53514 -4.20294 0
M  V30 1717 H 160.143 -3.5455 -3.05634 0
M  V30 1718 H 160.316 -5.06934 -4.03636 0
M  V30 1719 N 153.722 1.14298 -1.08507 0
M  V30 1720 C 154.67 2.21483 -0.710483 0
M  V30 1721 C 155.664 1.66998 0.284234 0
M  V30 1722 O 156.87 1.79401 0.146692 0
M  V30 1723 H 153.245 0.721578 -0.211729 0
M  V30 1724 H 155.216 2.50348 -1.62384 0
M  V30 1725 C 153.965 3.4743 -0.137007 0
M  V30 1726 H 153.288 3.89686 -0.893592 0
M  V30 1727 H 154.728 4.2391 0.0872789 0
M  V30 1728 C 153.187 3.17548 1.12538 0
M  V30 1729 O 153.717 3.35437 2.21009 0
M  V30 1730 N 151.923 2.71499 1.03617 0
M  V30 1731 H 151.47 2.57143 0.153403 0
M  V30 1732 H 151.428 2.51881 1.88158 0
M  V30 1733 N 155.201 0.870884 1.31352 0
M  V30 1734 C 156.45 0.478408 1.95944 0
M  V30 1735 C 156.763 -0.974493 1.69597 0
M  V30 1736 O 157.969 -1.47316 2.28058 0
M  V30 1737 C 156.425 0.804609 3.50791 0
M  V30 1738 C 156.033 2.27433 3.85977 0
M  V30 1739 C 157.777 0.480648 4.2177 0
M  V30 1740 C 155.684 2.5429 5.33939 0
M  V30 1741 H 154.614 0.175175 0.733369 0
M  V30 1742 H 157.265 1.06391 1.4951 0
M  V30 1743 H 155.647 0.148347 3.95722 0
M  V30 1744 H 156.821 2.97373 3.52002 0
M  V30 1745 H 155.136 2.56442 3.28065 0
M  V30 1746 H 157.733 0.658519 5.30629 0
M  V30 1747 H 158.076 -0.578979 4.12254 0
M  V30 1748 H 158.609 1.09349 3.82476 0
M  V30 1749 H 155.348 3.58939 5.48491 0
M  V30 1750 H 154.868 1.88945 5.69263 0
M  V30 1751 H 156.547 2.39066 6.01212 0
M  V30 1752 N 156.679 -1.44442 0.630414 0
M  V30 1753 C 157.589 -2.34476 -0.0761693 0
M  V30 1754 C 158.605 -1.52576 -0.836449 0
M  V30 1755 O 159.781 -1.85307 -0.788874 0
M  V30 1756 C 156.846 -3.30545 -1.04599 0
M  V30 1757 C 155.907 -4.28352 -0.28516 0
M  V30 1758 C 155.14 -5.19831 -1.20878 0
M  V30 1759 O 155.363 -5.15223 -2.44747 0
M  V30 1760 O 154.297 -5.97892 -0.693491 0
M  V30 1761 H 158.123 -2.96345 0.664324 0
M  V30 1762 H 155.708 -1.44203 0.39061 0
M  V30 1763 H 157.59 -3.89681 -1.60396 0
M  V30 1764 H 156.265 -2.7121 -1.76711 0
M  V30 1765 H 155.172 -3.72764 0.315837 0
M  V30 1766 H 156.505 -4.90605 0.395924 0
M  V30 1767 N 158.157 -0.370918 -1.53173 0
M  V30 1768 C 159.067 0.480823 -2.2962 0
M  V30 1769 C 160.083 1.08789 -1.35798 0
M  V30 1770 O 161.259 1.09768 -1.68858 0
M  V30 1771 C 158.324 1.60227 -3.07454 0
M  V30 1772 C 157.385 1.0222 -4.16953 0
M  V30 1773 C 156.618 2.0902 -4.91066 0
M  V30 1774 O 156.841 3.30222 -4.65091 0
M  V30 1775 O 155.775 1.71778 -5.76867 0
M  V30 1776 H 159.601 -0.141421 -3.03371 0
M  V30 1777 H 157.186 -0.135146 -1.48787 0
M  V30 1778 H 159.068 2.25417 -3.56041 0
M  V30 1779 H 157.743 2.20982 -2.36535 0
M  V30 1780 H 156.65 0.334064 -3.72605 0
M  V30 1781 H 157.983 0.459131 -4.90054 0
M  V30 1782 N 159.635 1.57281 -0.100228 0
M  V30 1783 C 160.585 2.10848 0.86759 0
M  V30 1784 C 161.569 1.02473 1.24049 0
M  V30 1785 O 162.761 1.28739 1.21471 0
M  V30 1786 C 159.89 2.69648 2.12474 0
M  V30 1787 C 158.976 3.85074 1.77704 0
M  V30 1788 N 159.367 4.92897 1.13518 0
M  V30 1789 C 157.665 3.94905 2.07282 0
M  V30 1790 C 158.366 5.73475 0.974735 0
M  V30 1791 N 157.342 5.22675 1.4937 0
M  V30 1792 H 161.144 2.91594 0.367471 0
M  V30 1793 H 158.658 1.62074 0.102829 0
M  V30 1794 H 160.655 3.06356 2.82757 0
M  V30 1795 H 159.315 1.90359 2.63047 0
M  V30 1796 H 160.326 5.11662 0.801381 0
M  V30 1797 H 157.003 3.26633 2.60033 0
M  V30 1798 H 158.393 6.70238 0.472364 0
M  V30 1799 N 161.113 -0.173488 1.56642 0
M  V30 1800 C 162.076 -1.19859 1.95362 0
M  V30 1801 C 163.076 -1.37296 0.83704 0
M  V30 1802 O 164.266 -1.34739 1.10413 0
M  V30 1803 C 161.398 -2.56405 2.24654 0
M  V30 1804 H 162.591 -0.867062 2.87092 0
M  V30 1805 H 160.144 -0.415853 1.50666 0
M  V30 1806 H 160.879 -2.94576 1.35631 0
M  V30 1807 H 160.664 -2.45115 3.06041 0
M  V30 1808 H 162.154 -3.30287 2.5554 0
M  V30 1809 N 162.591 -1.51276 -0.441967 0
M  V30 1810 C 163.816 -1.67799 -1.21895 0
M  V30 1811 C 164.241 -0.372864 -1.84367 0
M  V30 1812 O 163.599 0.666501 -1.68604 0
M  V30 1813 C 163.647 -2.79199 -2.28211 0
M  V30 1814 O 162.751 -2.42479 -3.33583 0
M  V30 1815 H 162.092 -0.559649 -0.357336 0
M  V30 1816 H 164.622 -1.97815 -0.522522 0
M  V30 1817 H 164.632 -3.03146 -2.73069 0
M  V30 1818 H 163.307 -3.73906 -1.82118 0
M  V30 1819 H 161.884 -2.29087 -2.94234 0
M  V30 1820 N 164.069 0.697108 -1.41344 0
M  V30 1821 C 165.294 1.49096 -1.44171 0
M  V30 1822 C 165.719 1.88038 -0.0481568 0
M  V30 1823 O 165.077 1.54525 0.948243 0
M  V30 1824 C 165.125 2.73088 -2.3549 0
M  V30 1825 O 164.229 3.70514 -1.81088 0
M  V30 1826 H 163.57 0.448801 -0.489361 0
M  V30 1827 H 166.1 0.856992 -1.85787 0
M  V30 1828 H 166.11 3.21413 -2.51312 0
M  V30 1829 H 164.785 2.44081 -3.36745 0
M  V30 1830 H 163.362 3.29441 -1.74708 0
M  V30 1831 N 165.547 1.27147 0.931209 0
M  V30 1832 C 166.824 1.0401 1.65654 0
M  V30 1833 C 167.204 -0.426297 2.06751 0
M  V30 1834 O 166.552 -1.40879 1.79904 0
M  V30 1835 C 166.762 1.99834 2.86125 0
M  V30 1836 C 168.11 2.29007 3.57549 0
M  V30 1837 O 169.134 1.97779 2.96246 0
M  V30 1838 O 167.993 2.82222 4.67989 0
M  V30 1839 H 165.087 0.396239 0.725895 0
M  V30 1840 H 167.633 1.38397 0.982056 0
M  V30 1841 H 166.405 2.98744 2.52721 0
M  V30 1842 H 166.028 1.65987 3.61295 0
M  V30 1843 N 167.025 -1.13721 1.09112 0
M  V30 1844 C 168.271 -1.85198 0.826414 0
M  V30 1845 C 168.604 -1.83129 -0.646319 0
M  V30 1846 O 167.879 -1.2671 -1.47563 0
M  V30 1847 C 168.162 -3.33507 1.35812 0
M  V30 1848 C 168.015 -3.44108 2.89672 0
M  V30 1849 C 169.334 -4.28838 0.989256 0
M  V30 1850 H 166.453 -0.67243 0.301675 0
M  V30 1851 H 169.095 -1.33499 1.35197 0
M  V30 1852 H 167.245 -3.77666 0.911082 0
M  V30 1853 H 168.917 -3.08684 3.428 0
M  V30 1854 H 167.16 -2.85087 3.26967 0
M  V30 1855 H 167.831 -4.48388 3.21951 0
M  V30 1856 H 170.307 -3.92734 1.37475 0
M  V30 1857 H 169.183 -5.31051 1.38838 0
M  V30 1858 H 169.444 -4.4198 -0.102924 0
M  V30 1859 N 168.503 -0.877838 -1.30888 0
M  V30 1860 C 169.413 -0.343096 -2.32078 0
M  V30 1861 C 170.429 0.551022 -1.65045 0
M  V30 1862 O 171.605 0.445854 -1.96403 0
M  V30 1863 C 168.67 0.439905 -3.43898 0
M  V30 1864 C 167.731 -0.483111 -4.26573 0
M  V30 1865 C 166.964 0.262616 -5.33053 0
M  V30 1866 O 167.187 1.48967 -5.50604 0
M  V30 1867 O 166.121 -0.383593 -6.00676 0
M  V30 1868 H 169.947 -1.18203 -2.79753 0
M  V30 1869 H 167.532 -0.64145 -1.34929 0
M  V30 1870 H 169.414 0.883504 -4.12034 0
M  V30 1871 H 168.089 1.25526 -2.98371 0
M  V30 1872 H 166.996 -0.975374 -3.61161 0
M  V30 1873 H 168.329 -1.26427 -4.75686 0
M  V30 1874 N 169.982 1.44106 -0.638065 0
M  V30 1875 C 171.398 1.56672 -0.304286 0
M  V30 1876 C 171.598 1.6244 1.19228 0
M  V30 1877 O 170.654 1.57121 1.9766 0
M  V30 1878 C 171.967 2.83503 -1.00231 0
M  V30 1879 C 173.515 2.97226 -0.981116 0
M  V30 1880 C 173.99 4.26868 -1.65974 0
M  V30 1881 N 175.481 4.33698 -1.62666 0
M  V30 1882 C 176.216 5.32745 -2.12063 0
M  V30 1883 N 175.712 6.38157 -2.6968 0
M  V30 1884 N 177.505 5.24299 -2.02651 0
M  V30 1885 H 169.656 1.38605 -1.60942 0
M  V30 1886 H 171.919 0.664661 -0.675965 0
M  V30 1887 H 171.625 2.85251 -2.0573 0
M  V30 1888 H 171.499 3.73251 -0.54439 0
M  V30 1889 H 173.886 2.95027 0.0654188 0
M  V30 1890 H 173.967 2.08808 -1.47759 0
M  V30 1891 H 173.611 4.29826 -2.70576 0
M  V30 1892 H 173.541 5.14156 -1.13804 0
M  V30 1893 H 176.032 3.58138 -1.20606 0
M  V30 1894 H 176.345 7.10029 -3.05087 0
M  V30 1895 H 174.69 6.38823 -2.73734 0
M  V30 1896 H 177.881 4.4086 -1.57353 0
M  V30 1897 H 178.054 6.01334 -2.41457 0
M  V30 1898 N 171.46 0.379036 1.52974 0
M  V30 1899 C 172.393 -0.504932 2.22544 0
M  V30 1900 C 173.371 -1.0723 1.22231 0
M  V30 1901 O 174.555 -1.12589 1.51182 0
M  V30 1902 C 171.682 -1.69794 2.93066 0
M  V30 1903 C 170.728 -1.25678 4.07563 0
M  V30 1904 S 171.561 -0.246852 5.34931 0
M  V30 1905 C 172.717 -1.44588 6.08971 0
M  V30 1906 H 172.95 0.0858666 2.97176 0
M  V30 1907 H 170.483 0.163183 1.53535 0
M  V30 1908 H 172.441 -2.38219 3.34308 0
M  V30 1909 H 171.102 -2.26002 2.18133 0
M  V30 1910 H 170.295 -2.14725 4.5597 0
M  V30 1911 H 169.897 -0.651584 3.6828 0
M  V30 1912 H 172.189 -2.37469 6.34519 0
M  V30 1913 H 173.132 -1.00292 7.00962 0
M  V30 1914 H 173.54 -1.65804 5.39601 0
M  V30 1915 N 172.938 -1.57226 0.108567 0
M  V30 1916 C 174.187 -1.94008 -0.551703 0
M  V30 1917 C 174.5 -0.993442 -1.68494 0
M  V30 1918 O 175.706 -1.25551 -2.40726 0
M  V30 1919 C 174.162 -3.44763 -1.03279 0
M  V30 1920 C 173.77 -4.47943 0.0714193 0
M  V30 1921 C 175.514 -3.90483 -1.66503 0
M  V30 1922 C 173.421 -5.89865 -0.425779 0
M  V30 1923 H 172.351 -0.724206 -0.209863 0
M  V30 1924 H 175.002 -1.82547 0.186741 0
M  V30 1925 H 173.384 -3.51422 -1.82533 0
M  V30 1926 H 174.558 -4.52942 0.847365 0
M  V30 1927 H 172.873 -4.11913 0.609669 0
M  V30 1928 H 175.47 -4.93925 -2.04798 0
M  V30 1929 H 175.813 -3.29877 -2.53942 0
M  V30 1930 H 176.346 -3.86581 -0.938074 0
M  V30 1931 H 173.085 -6.54202 0.412316 0
M  V30 1932 H 172.605 -5.88309 -1.16843 0
M  V30 1933 H 174.284 -6.40844 -0.890397 0
M  V30 1934 N 174.416 0.165178 -1.56732 0
M  V30 1935 C 175.346 1.20651 -1.99914 0
M  V30 1936 C 176.327 1.45827 -0.875705 0
M  V30 1937 O 177.512 1.57057 -1.14223 0
M  V30 1938 C 174.642 2.54401 -2.36427 0
M  V30 1939 C 173.596 2.43782 -3.51787 0
M  V30 1940 C 172.922 3.82078 -3.7406 0
M  V30 1941 C 174.222 1.93732 -4.85041 0
M  V30 1942 H 175.916 0.847534 -2.87154 0
M  V30 1943 H 173.462 0.40625 -1.38151 0
M  V30 1944 H 175.415 3.27458 -2.65234 0
M  V30 1945 H 174.139 2.92098 -1.46103 0
M  V30 1946 H 172.798 1.73178 -3.23117 0
M  V30 1947 H 172.446 4.17179 -2.81017 0
M  V30 1948 H 172.146 3.7584 -4.51684 0
M  V30 1949 H 173.67 4.56712 -4.05274 0
M  V30 1950 H 175.084 2.56569 -5.12684 0
M  V30 1951 H 173.481 1.98428 -5.66345 0
M  V30 1952 H 174.551 0.891962 -4.76626 0
M  V30 1953 N 175.894 1.51508 0.433938 0
M  V30 1954 C 177.142 1.6402 1.18075 0
M  V30 1955 C 177.463 0.360328 1.91642 0
M  V30 1956 O 176.733 -0.623945 1.85698 0
M  V30 1957 H 175.313 0.6045 0.43885 0
M  V30 1958 H 177.975 1.88452 0.497178 0
M  V30 1959 H 177.071 2.46949 1.90847 0
M  V30 1960 N 177.372 -0.689602 1.41712 0
M  V30 1961 C 178.32 -1.82475 1.44242 0
M  V30 1962 C 179.314 -1.66354 0.319774 0
M  V30 1963 O 180.52 -1.73143 0.492089 0
M  V30 1964 H 176.895 -0.601416 0.451445 0
M  V30 1965 H 178.866 -1.77458 2.39899 0
M  V30 1966 C 177.615 -3.20535 1.3473 0
M  V30 1967 H 176.938 -3.33559 2.20405 0
M  V30 1968 H 178.378 -4.00023 1.40562 0
M  V30 1969 C 176.837 -3.36846 0.0603281 0
M  V30 1970 O 177.367 -3.91656 -0.892663 0
M  V30 1971 N 175.573 -2.90595 -0.0177039 0
M  V30 1972 H 175.12 -2.46178 0.758572 0
M  V30 1973 H 175.078 -3.01886 -0.878201 0
M  V30 1974 N 178.85 -1.27639 -0.924453 0
M  V30 1975 C 179.797 -1.10644 -2.0255 0
M  V30 1976 C 180.767 -0.00658438 -1.66099 0
M  V30 1977 O 181.952 -0.16952 -1.90045 0
M  V30 1978 C 179.092 -0.76309 -3.36557 0
M  V30 1979 C 178.205 -1.94091 -3.85944 0
M  V30 1980 C 177.34 -1.53914 -5.08413 0
M  V30 1981 C 176.379 -2.68425 -5.50104 0
M  V30 1982 N 175.516 -2.28815 -6.63768 0
M  V30 1983 H 180.356 -2.04858 -2.16419 0
M  V30 1984 H 177.893 -1.01974 -1.06017 0
M  V30 1985 H 179.851 -0.544822 -4.13627 0
M  V30 1986 H 178.481 0.142102 -3.22487 0
M  V30 1987 H 177.533 -2.27162 -3.05125 0
M  V30 1988 H 178.845 -2.7998 -4.12811 0
M  V30 1989 H 177.999 -1.28231 -5.92994 0
M  V30 1990 H 176.738 -0.651391 -4.8333 0
M  V30 1991 H 175.743 -2.94819 -4.64071 0
M  V30 1992 H 176.968 -3.57826 -5.7718 0
M  V30 1993 H 174.914 -1.42495 -6.40337 0
M  V30 1994 H 174.831 -3.08242 -6.90306 0
M  V30 1995 H 176.099 -2.06387 -7.51681 0
M  V30 1996 N 180.328 1.1314 -1.09713 0
M  V30 1997 C 181.568 1.8613 -0.844683 0
M  V30 1998 C 181.932 1.81765 0.618491 0
M  V30 1999 O 183.133 2.50024 0.98699 0
M  V30 2000 C 181.404 3.30151 -1.36877 0
M  V30 2001 S 182.963 4.206 -1.25064 0
M  V30 2002 H 179.781 0.642056 -0.305427 0
M  V30 2003 H 182.383 1.36343 -1.4011 0
M  V30 2004 H 181.087 3.30883 -2.42786 0
M  V30 2005 H 180.618 3.85 -0.808614 0
M  V30 2006 H 182.633 4.95783 -0.203486 0
M  V30 2007 N 181.806 0.884767 1.30421 0
M  V30 2008 C 183.083 0.423185 1.90967 0
M  V30 2009 C 183.463 -1.09605 1.80416 0
M  V30 2010 O 182.811 -1.93126 1.22125 0
M  V30 2011 C 183.021 0.921056 3.36627 0
M  V30 2012 C 184.369 0.955903 4.137 0
M  V30 2013 O 185.393 0.867706 3.4547 0
M  V30 2014 O 184.252 1.08614 5.35598 0
M  V30 2015 H 181.346 0.129369 0.816819 0
M  V30 2016 H 183.892 0.973653 1.3899 0
M  V30 2017 H 182.664 1.96489 3.3839 0
M  V30 2018 H 182.287 0.349741 3.96059 0
M  V30 2019 N 183.284 -1.43765 0.645699 0
M  V30 2020 C 184.217 -2.2798 -0.100072 0
M  V30 2021 C 185.195 -1.39391 -0.837194 0
M  V30 2022 O 186.379 -1.68833 -0.838306 0
M  V30 2023 C 183.506 -3.18643 -1.14823 0
M  V30 2024 C 182.552 -4.2344 -0.510009 0
M  V30 2025 S 183.385 -5.30761 0.710824 0
M  V30 2026 C 184.541 -6.24992 -0.33699 0
M  V30 2027 H 184.774 -2.90884 0.614322 0
M  V30 2028 H 182.307 -1.48166 0.434304 0
M  V30 2029 H 184.265 -3.71424 -1.74799 0
M  V30 2030 H 182.926 -2.54932 -1.8349 0
M  V30 2031 H 182.119 -4.86948 -1.29991 0
M  V30 2032 H 181.721 -3.73997 0.0154577 0
M  V30 2033 H 184.013 -6.66691 -1.20537 0
M  V30 2034 H 184.956 -7.07612 0.262879 0
M  V30 2035 H 185.364 -5.60517 -0.669425 0
M  V30 2036 N 184.763 -0.387143 -1.52771 0
M  V30 2037 C 185.711 0.463953 -2.27926 0
M  V30 2038 C 186.705 1.06493 -1.31741 0
M  V30 2039 O 187.911 1.00565 -1.49287 0
M  V30 2040 H 184.286 0.16837 -0.732909 0
M  V30 2041 H 186.257 -0.19141 -2.97785 0
M  V30 2042 C 185.006 1.5803 -3.09713 0
M  V30 2043 H 184.329 1.12718 -3.83581 0
M  V30 2044 H 185.769 2.15008 -3.65442 0
M  V30 2045 C 184.228 2.53509 -2.2189 0
M  V30 2046 O 184.758 3.56863 -1.84422 0
M  V30 2047 N 182.964 2.23199 -1.86093 0
M  V30 2048 H 182.511 1.39185 -2.16761 0
M  V30 2049 H 182.469 2.87333 -1.27621 0
M  V30 2050 N 186.241 1.57166 -0.116904 0
M  V30 2051 C 187.518 1.86645 0.585049 0
M  V30 2052 C 187.898 1.0177 1.84949 0
M  V30 2053 O 187.246 0.0960379 2.28298 0
M  V30 2054 C 187.456 3.37736 0.879507 0
M  V30 2055 C 188.804 4.06289 1.23348 0
M  V30 2056 O 189.828 3.42743 0.969836 0
M  V30 2057 O 188.687 5.18455 1.7282 0
M  V30 2058 H 185.781 0.772593 0.295007 0
M  V30 2059 H 188.327 1.69025 -0.151249 0
M  V30 2060 H 187.099 3.91296 -0.0166136 0
M  V30 2061 H 186.722 3.6078 1.67103 0
M  V30 2062 N 187.719 -0.156864 1.56817 0
M  V30 2063 C 188.666 -1.19394 1.97519 0
M  V30 2064 C 189.636 -1.4322 0.841265 0
M  V30 2065 O 190.821 -1.55719 1.10255 0
M  V30 2066 C 187.961 -2.52483 2.35258 0
M  V30 2067 C 187.074 -2.35914 3.61896 0
M  V30 2068 C 186.209 -3.61969 3.88782 0
M  V30 2069 C 185.248 -3.40395 5.08722 0
M  V30 2070 N 184.385 -4.58556 5.31668 0
M  V30 2071 H 189.225 -0.839845 2.85921 0
M  V30 2072 H 186.762 -0.403264 1.41464 0
M  V30 2073 H 188.72 -3.30071 2.55165 0
M  V30 2074 H 187.35 -2.85859 1.49949 0
M  V30 2075 H 186.402 -1.49429 3.49821 0
M  V30 2076 H 187.714 -2.15926 4.49641 0
M  V30 2077 H 186.868 -4.47989 4.09135 0
M  V30 2078 H 185.607 -3.84951 2.9944 0
M  V30 2079 H 184.612 -2.52763 4.88253 0
M  V30 2080 H 185.837 -3.18822 5.99608 0
M  V30 2081 H 183.783 -4.81729 4.45279 0
M  V30 2082 H 183.7 -4.41535 6.13664 0
M  V30 2083 H 184.968 -5.45817 5.5651 0
M  V30 2084 N 189.197 -1.51736 -0.425897 0
M  V30 2085 C 190.613 -1.40166 -0.76326 0
M  V30 2086 C 190.813 -0.492962 -1.95377 0
M  V30 2087 O 189.869 0.0475815 -2.52455 0
M  V30 2088 C 191.182 -2.82403 -1.03291 0
M  V30 2089 C 192.73 -2.91632 -1.13665 0
M  V30 2090 C 193.205 -4.34801 -1.43916 0
M  V30 2091 N 194.696 -4.3796 -1.50816 0
M  V30 2092 C 195.431 -5.4578 -1.75817 0
M  V30 2093 N 194.927 -6.63744 -1.98534 0
M  V30 2094 N 196.72 -5.33274 -1.77694 0
M  V30 2095 H 188.871 -2.09361 0.358 0
M  V30 2096 H 191.134 -0.942941 0.0978094 0
M  V30 2097 H 190.84 -3.50943 -0.230696 0
M  V30 2098 H 190.714 -3.22428 -1.95754 0
M  V30 2099 H 193.101 -2.23284 -1.92947 0
M  V30 2100 H 193.182 -2.55088 -0.190756 0
M  V30 2101 H 192.826 -5.03703 -0.65157 0
M  V30 2102 H 192.756 -4.68868 -2.39729 0
M  V30 2103 H 195.247 -3.52919 -1.35118 0
M  V30 2104 H 195.56 -7.41704 -2.17013 0
M  V30 2105 H 193.905 -6.66839 -1.95832 0
M  V30 2106 H 197.096 -4.40098 -1.59473 0
M  V30 2107 H 197.269 -6.1738 -1.9684 0
M  V30 2108 N 190.675 0.682077 -1.42076 0
M  V30 2109 C 191.607 1.80755 -1.40926 0
M  V30 2110 C 192.62 1.59833 -0.309398 0
M  V30 2111 O 193.809 1.69087 -0.572014 0
M  V30 2112 C 190.909 3.17744 -1.17865 0
M  V30 2113 C 190.082 3.65578 -2.40149 0
M  V30 2114 C 189.141 4.81277 -2.12742 0
M  V30 2115 O 188.167 4.92197 -2.85887 0
M  V30 2116 N 189.369 5.69474 -1.12602 0
M  V30 2117 H 192.134 1.82229 -2.37935 0
M  V30 2118 H 189.695 0.864903 -1.36861 0
M  V30 2119 H 191.687 3.9279 -0.9746 0
M  V30 2120 H 190.257 3.11214 -0.294068 0
M  V30 2121 H 189.477 2.81291 -2.76169 0
M  V30 2122 H 190.765 3.94278 -3.21593 0
M  V30 2123 H 190.163 5.63297 -0.520899 0
M  V30 2124 H 188.72 6.44363 -0.981842 0
M  V30 2125 N 192.153 1.28127 0.917671 0
M  V30 2126 C 193.399 1.15223 1.66888 0
M  V30 2127 C 193.732 -0.299293 1.9188 0
M  V30 2128 O 193.007 -1.21805 1.51637 0
M  V30 2129 C 193.29 1.94706 3.02922 0
M  V30 2130 C 193.143 3.47898 2.85109 0
M  V30 2131 C 194.462 1.75939 4.03402 0
M  V30 2132 H 191.581 0.419946 0.605652 0
M  V30 2133 H 194.223 1.57398 1.06423 0
M  V30 2134 H 192.373 1.58864 3.54534 0
M  V30 2135 H 194.045 3.93624 2.40537 0
M  V30 2136 H 192.288 3.7373 2.20246 0
M  V30 2137 H 192.959 3.98765 3.81694 0
M  V30 2138 H 195.435 2.07209 3.60837 0
M  V30 2139 H 194.311 2.33931 4.96556 0
M  V30 2140 H 194.572 0.709877 4.36364 0
M  V30 2141 N 193.631 -1.12557 1.10312 0
M  V30 2142 C 194.856 -1.88405 0.867085 0
M  V30 2143 C 195.281 -1.79038 -0.576817 0
M  V30 2144 O 194.639 -1.14439 -1.40618 0
M  V30 2145 C 194.687 -3.3563 1.31851 0
M  V30 2146 O 193.791 -4.09565 0.482734 0
M  V30 2147 H 193.132 -0.585455 0.313271 0
M  V30 2148 H 195.662 -1.42352 1.4696 0
M  V30 2149 H 195.672 -3.86469 1.3079 0
M  V30 2150 H 194.347 -3.41765 2.37001 0
M  V30 2151 H 192.924 -3.68695 0.558448 0
M  V30 2152 N 195.109 -0.891671 -1.2995 0
M  V30 2153 C 196.056 -0.361736 -2.27948 0
M  V30 2154 C 197.026 0.551761 -1.56668 0
M  V30 2155 O 198.211 0.478736 -1.84696 0
M  V30 2156 C 195.351 0.411825 -3.42634 0
M  V30 2157 C 194.464 -0.531651 -4.28716 0
M  V30 2158 C 193.599 0.258167 -5.30572 0
M  V30 2159 C 192.638 -0.680349 -6.08307 0
M  V30 2160 N 191.775 0.0745613 -7.0206 0
M  V30 2161 H 196.615 -1.20254 -2.72659 0
M  V30 2162 H 194.152 -0.604352 -1.34112 0
M  V30 2163 H 196.11 0.876304 -4.07893 0
M  V30 2164 H 194.74 1.21715 -2.98974 0
M  V30 2165 H 193.792 -1.11463 -3.63703 0
M  V30 2166 H 195.104 -1.25038 -4.82874 0
M  V30 2167 H 194.258 0.784204 -6.0161 0
M  V30 2168 H 192.997 1.01008 -4.77126 0
M  V30 2169 H 192.002 -1.21796 -5.3614 0
M  V30 2170 H 193.227 -1.43145 -6.63842 0
M  V30 2171 H 191.173 0.808883 -6.50994 0
M  V30 2172 H 191.09 -0.584409 -7.53738 0
M  V30 2173 H 192.358 0.581123 -7.77331 0
M  V30 2174 N 196.587 1.43421 -0.653314 0
M  V30 2175 C 197.497 2.34568 0.0388565 0
M  V30 2176 C 198.513 1.53888 0.81207 0
M  V30 2177 O 199.689 1.86539 0.759294 0
M  V30 2178 C 196.754 3.32167 0.993269 0
M  V30 2179 C 195.815 4.28751 0.216977 0
M  V30 2180 C 195.048 5.21688 1.12593 0
M  V30 2181 O 195.271 5.19052 2.36519 0
M  V30 2182 O 194.205 5.98919 0.598284 0
M  V30 2183 H 198.031 2.95251 -0.711386 0
M  V30 2184 H 195.616 1.43564 -0.413502 0
M  V30 2185 H 197.498 3.92183 1.54176 0
M  V30 2186 H 196.173 2.73987 1.72374 0
M  V30 2187 H 195.08 3.72215 -0.375101 0
M  V30 2188 H 196.413 4.89913 -0.473924 0
M  V30 2189 N 198.065 0.39524 1.52563 0
M  V30 2190 C 199.481 0.0454682 1.59535 0
M  V30 2191 C 199.681 -1.44056 1.4089 0
M  V30 2192 O 198.737 -2.20579 1.22888 0
M  V30 2193 C 200.05 0.527963 2.96029 0
M  V30 2194 C 201.598 0.484733 3.09224 0
M  V30 2195 C 202.073 0.943512 4.48176 0
M  V30 2196 N 203.564 0.899765 4.54377 0
M  V30 2197 C 204.299 1.22609 5.60138 0
M  V30 2198 N 203.795 1.62319 6.73516 0
M  V30 2199 N 205.588 1.14696 5.50274 0
M  V30 2200 H 197.739 1.36261 1.62931 0
M  V30 2201 H 200.002 0.558887 0.765735 0
M  V30 2202 H 199.708 1.56607 3.14908 0
M  V30 2203 H 199.582 -0.0698056 3.77135 0
M  V30 2204 H 201.969 -0.544298 2.90037 0
M  V30 2205 H 202.05 1.11838 2.30056 0
M  V30 2206 H 201.694 1.9708 4.68104 0
M  V30 2207 H 201.624 0.286817 5.25818 0
M  V30 2208 H 204.115 0.607632 3.72983 0
M  V30 2209 H 204.428 1.85567 7.5019 0
M  V30 2210 H 202.773 1.66211 6.74833 0
M  V30 2211 H 205.964 0.835701 4.6058 0
M  V30 2212 H 206.137 1.40459 6.32594 0
M  V30 2213 N 199.544 -1.57102 0.125237 0
M  V30 2214 C 200.792 -1.95021 -0.530198 0
M  V30 2215 C 201.113 -1.00982 -1.66816 0
M  V30 2216 O 200.383 -0.0672693 -1.95784 0
M  V30 2217 H 198.963 -0.720046 -0.198853 0
M  V30 2218 H 201.625 -1.93916 0.19564 0
M  V30 2219 H 200.721 -2.98211 -0.920681 0
M  V30 2220 N 201.022 0.148545 -1.56898 0
M  V30 2221 C 201.932 1.20293 -2.01412 0
M  V30 2222 C 202.948 1.47107 -0.929273 0
M  V30 2223 O 204.124 1.58807 -1.23863 0
M  V30 2224 C 201.189 2.51682 -2.38447 0
M  V30 2225 C 200.25 2.32529 -3.60872 0
M  V30 2226 C 199.483 3.57653 -3.96132 0
M  V30 2227 O 199.706 4.63771 -3.32073 0
M  V30 2228 O 198.64 3.50408 -4.89385 0
M  V30 2229 H 202.466 0.855025 -2.91416 0
M  V30 2230 H 200.051 0.357151 -1.45068 0
M  V30 2231 H 201.933 3.29147 -2.63135 0
M  V30 2232 H 200.608 2.86006 -1.51599 0
M  V30 2233 H 199.515 1.53019 -3.41373 0
M  V30 2234 H 200.848 2.03121 -4.48333 0
M  V30 2235 N 202.5 1.5196 0.417844 0
M  V30 2236 C 203.447 1.74678 1.50852 0
M  V30 2237 C 204.417 0.588947 1.55308 0
M  V30 2238 O 205.602 0.825544 1.72016 0
M  V30 2239 C 202.742 1.89544 2.88387 0
M  V30 2240 C 201.855 3.17166 2.93309 0
M  V30 2241 C 200.99 3.22513 4.22088 0
M  V30 2242 C 200.029 4.44372 4.20951 0
M  V30 2243 N 199.166 4.47161 5.41287 0
M  V30 2244 H 204.006 2.67768 1.30783 0
M  V30 2245 H 201.543 1.32689 0.63498 0
M  V30 2246 H 203.501 1.96146 3.68216 0
M  V30 2247 H 202.131 0.998424 3.06971 0
M  V30 2248 H 201.183 3.19778 2.06024 0
M  V30 2249 H 202.495 4.07021 2.88332 0
M  V30 2250 H 201.649 3.28139 5.10303 0
M  V30 2251 H 200.388 2.30581 4.29748 0
M  V30 2252 H 199.393 4.38902 3.31127 0
M  V30 2253 H 200.618 5.3759 4.14938 0
M  V30 2254 H 198.564 3.58108 5.49632 0
M  V30 2255 H 198.481 5.3085 5.3827 0
M  V30 2256 H 199.749 4.57005 6.3148 0
M  V30 2257 N 203.978 -0.674533 1.42435 0
M  V30 2258 C 204.908 -1.80009 1.48724 0
M  V30 2259 C 205.889 -1.6659 0.343793 0
M  V30 2260 O 207.074 -1.86007 0.558137 0
M  V30 2261 C 204.204 -3.18306 1.38919 0
M  V30 2262 C 203.158 -3.46461 2.51294 0
M  V30 2263 C 202.484 -4.84335 2.26547 0
M  V30 2264 C 203.784 -3.43328 3.93603 0
M  V30 2265 H 205.478 -1.75004 2.42928 0
M  V30 2266 H 203.024 -0.840533 1.16923 0
M  V30 2267 H 204.977 -3.9678 1.41927 0
M  V30 2268 H 203.701 -3.2399 0.412094 0
M  V30 2269 H 202.36 -2.70348 2.47604 0
M  V30 2270 H 202.008 -4.86669 1.2713 0
M  V30 2271 H 201.708 -5.04136 3.01861 0
M  V30 2272 H 203.232 -5.65094 2.31304 0
M  V30 2273 H 204.646 -4.11772 3.98894 0
M  V30 2274 H 203.043 -3.74664 4.68771 0
M  V30 2275 H 204.113 -2.41897 4.20255 0
M  V30 2276 N 205.456 -1.28612 -0.910864 0
M  V30 2277 C 206.419 -1.12803 -1.9952 0
M  V30 2278 C 207.419 -0.0668264 -1.60661 0
M  V30 2279 O 208.609 -0.312847 -1.71368 0
M  V30 2280 C 205.741 -0.72254 -3.33155 0
M  V30 2281 H 206.934 -2.09109 -2.14973 0
M  V30 2282 H 204.487 -1.11639 -1.09391 0
M  V30 2283 H 205.222 0.241152 -3.23402 0
M  V30 2284 H 205.007 -1.48916 -3.62721 0
M  V30 2285 H 206.497 -0.634666 -4.12749 0
M  V30 2286 N 206.934 1.1197 -1.10907 0
M  V30 2287 C 208.183 1.82947 -0.849302 0
M  V30 2288 C 208.496 1.85275 0.627112 0
M  V30 2289 O 209.702 2.52296 1.00295 0
M  V30 2290 C 208.158 3.28529 -1.46959 0
M  V30 2291 C 207.766 3.34546 -2.97965 0
M  V30 2292 C 209.51 4.04443 -1.28942 0
M  V30 2293 C 207.417 4.74491 -3.53004 0
M  V30 2294 H 206.347 0.685477 -0.314065 0
M  V30 2295 H 208.998 1.2604 -1.33365 0
M  V30 2296 H 207.38 3.85333 -0.912917 0
M  V30 2297 H 208.554 2.87654 -3.59989 0
M  V30 2298 H 206.869 2.72108 -3.15192 0
M  V30 2299 H 209.466 5.07787 -1.67502 0
M  V30 2300 H 209.809 4.15656 -0.231456 0
M  V30 2301 H 210.342 3.5401 -1.81443 0
M  V30 2302 H 207.081 4.68474 -4.58489 0
M  V30 2303 H 206.601 5.21816 -2.9575 0
M  V30 2304 H 208.28 5.4344 -3.51115 0
M  V30 2305 N 208.412 0.89855 1.29475 0
M  V30 2306 C 209.689 0.443416 1.90508 0
M  V30 2307 C 210.069 -1.07685 1.81569 0
M  V30 2308 O 209.417 -1.9182 1.24166 0
M  V30 2309 C 209.627 0.956708 3.35631 0
M  V30 2310 C 210.975 0.999728 4.12663 0
M  V30 2311 O 211.999 0.904299 3.4453 0
M  V30 2312 O 210.858 1.14289 5.34416 0
M  V30 2313 H 207.952 0.138025 0.815401 0
M  V30 2314 H 210.498 0.98834 1.37949 0
M  V30 2315 H 209.27 2.00067 3.36287 0
M  V30 2316 H 208.893 0.391728 3.95666 0
M  V30 2317 N 209.89 -1.43072 0.660911 0
M  V30 2318 C 211.12 -2.05769 0.185153 0
M  V30 2319 C 211.528 -1.49668 -1.15742 0
M  V30 2320 O 210.871 -0.625649 -1.72717 0
M  V30 2321 C 210.933 -3.59489 0.0278237 0
M  V30 2322 C 210.597 -4.38212 1.2969 0
M  V30 2323 C 211.594 -4.69772 2.22734 0
M  V30 2324 C 209.279 -4.7809 1.54063 0
M  V30 2325 C 211.273 -5.40129 3.38437 0
M  V30 2326 C 208.96 -5.4819 2.70058 0
M  V30 2327 C 209.958 -5.79132 3.62071 0
M  V30 2328 O 209.646 -6.47798 4.76039 0
M  V30 2329 H 209.378 -0.669873 0.0908086 0
M  V30 2330 H 211.932 -1.84436 0.90402 0
M  V30 2331 H 210.162 -3.79426 -0.746489 0
M  V30 2332 H 211.851 -4.03862 -0.406275 0
M  V30 2333 H 212.617 -4.39476 2.05149 0
M  V30 2334 H 208.496 -4.53408 0.833215 0
M  V30 2335 H 212.04 -5.64198 4.10277 0
M  V30 2336 H 207.937 -5.77902 2.87574 0
M  V30 2337 H 208.705 -6.66283 4.75404 0
M  V30 2338 N 211.368 -0.403325 -1.52352 0
M  V30 2339 C 212.616 0.174003 -2.0135 0
M  V30 2340 C 212.937 1.46139 -1.29106 0
M  V30 2341 O 212.207 1.91448 -0.415253 0
M  V30 2342 H 210.787 0.0672911 -0.743963 0
M  V30 2343 H 213.449 -0.538235 -1.87321 0
M  V30 2344 H 212.545 0.374254 -3.09848 0
M  V30 2345 N 212.846 1.57033 -0.133567 0
M  V30 2346 C 214.095 1.94861 0.520768 0
M  V30 2347 C 214.408 1.02012 1.66892 0
M  V30 2348 O 215.614 1.29365 2.38699 0
M  V30 2349 C 214.07 3.46362 0.977809 0
M  V30 2350 C 213.678 4.47773 -0.142674 0
M  V30 2351 C 215.422 3.93083 1.60269 0
M  V30 2352 C 213.329 5.90468 0.331883 0
M  V30 2353 H 212.259 0.727453 0.198315 0
M  V30 2354 H 214.91 1.82227 -0.215759 0
M  V30 2355 H 213.292 3.54282 1.7692 0
M  V30 2356 H 214.466 4.51536 -0.919317 0
M  V30 2357 H 212.781 4.10891 -0.675124 0
M  V30 2358 H 215.378 4.97121 1.96914 0
M  V30 2359 H 215.721 3.33876 2.48662 0
M  V30 2360 H 216.254 3.88025 0.876453 0
M  V30 2361 H 212.993 6.53463 -0.516341 0
M  V30 2362 H 212.513 5.90094 1.07469 0
M  V30 2363 H 214.192 6.42179 0.788332 0
M  V30 2364 N 214.325 -0.140222 1.56975 0
M  V30 2365 C 215.272 -1.17292 1.98774 0
M  V30 2366 C 216.242 -1.4232 0.856408 0
M  V30 2367 O 217.427 -1.54541 1.119 0
M  V30 2368 C 214.567 -2.49973 2.37923 0
M  V30 2369 C 213.68 -2.32062 3.64378 0
M  V30 2370 C 212.815 -3.57825 3.926 0
M  V30 2371 C 211.854 -3.3498 5.12303 0
M  V30 2372 N 210.991 -4.52891 5.36502 0
M  V30 2373 H 215.831 -0.809472 2.86795 0
M  V30 2374 H 213.368 -0.388237 1.41884 0
M  V30 2375 H 215.326 -3.27346 2.58652 0
M  V30 2376 H 213.956 -2.84252 1.52972 0
M  V30 2377 H 213.008 -1.45711 3.51387 0
M  V30 2378 H 214.32 -2.11145 4.51906 0
M  V30 2379 H 213.474 -4.43624 4.13863 0
M  V30 2380 H 212.213 -3.81753 3.03506 0
M  V30 2381 H 211.218 -2.4757 4.90906 0
M  V30 2382 H 212.443 -3.12444 6.02956 0
M  V30 2383 H 210.389 -4.76979 4.50363 0
M  V30 2384 H 210.306 -4.35001 6.18312 0
M  V30 2385 H 211.574 -5.39884 5.62268 0
M  V30 2386 N 215.803 -1.52179 -0.40978 0
M  V30 2387 C 217.05 -1.66206 -1.15679 0
M  V30 2388 C 217.378 -0.391674 -1.90516 0
M  V30 2389 O 216.633 0.62533 -1.8544 0
M  V30 2390 C 216.932 -2.83428 -2.17723 0
M  V30 2391 C 216.598 -4.21672 -1.59699 0
M  V30 2392 C 215.26 -4.59274 -1.43599 0
M  V30 2393 C 217.612 -5.07825 -1.17317 0
M  V30 2394 C 214.94 -5.80709 -0.836328 0
M  V30 2395 C 217.292 -6.29864 -0.587691 0
M  V30 2396 C 215.956 -6.66216 -0.413818 0
M  V30 2397 H 215.226 -0.608192 -0.423301 0
M  V30 2398 H 217.873 -1.86279 -0.444097 0
M  V30 2399 H 216.178 -2.57687 -2.95135 0
M  V30 2400 H 217.875 -2.91477 -2.75394 0
M  V30 2401 H 214.465 -3.9204 -1.73213 0
M  V30 2402 H 218.649 -4.79359 -1.28565 0
M  V30 2403 H 213.905 -6.07498 -0.689626 0
M  V30 2404 H 218.079 -6.95948 -0.250894 0
M  V30 2405 H 215.706 -7.60182 0.0529471 0
M  V30 2406 N 217.281 0.66697 -1.42791 0
M  V30 2407 C 218.211 1.79218 -1.49677 0
M  V30 2408 C 219.192 1.66405 -0.352623 0
M  V30 2409 O 220.377 1.85708 -0.567993 0
M  V30 2410 C 217.507 3.17565 -1.40605 0
M  V30 2411 C 216.461 3.45124 -2.53127 0
M  V30 2412 C 215.787 4.83127 -2.29112 0
M  V30 2413 C 217.087 3.41236 -3.95418 0
M  V30 2414 H 218.781 1.73713 -2.43853 0
M  V30 2415 H 216.327 0.83432 -1.17367 0
M  V30 2416 H 218.28 3.96022 -1.44029 0
M  V30 2417 H 217.004 3.23767 -0.429271 0
M  V30 2418 H 215.663 2.69031 -2.49034 0
M  V30 2419 H 215.311 4.85988 -1.29709 0
M  V30 2420 H 215.011 5.02528 -3.04531 0
M  V30 2421 H 216.535 5.63859 -2.34297 0
M  V30 2422 H 217.949 4.09651 -4.01073 0
M  V30 2423 H 216.346 3.72173 -4.70752 0
M  V30 2424 H 217.416 2.39665 -4.21532 0
M  V30 2425 N 218.759 1.29093 0.90403 0
M  V30 2426 C 219.669 1.15727 2.0407 0
M  V30 2427 C 220.685 0.0815308 1.73809 0
M  V30 2428 O 221.861 0.292749 1.99261 0
M  V30 2429 C 218.926 0.830424 3.36608 0
M  V30 2430 C 217.987 1.98955 3.80415 0
M  V30 2431 C 217.22 1.6782 5.06628 0
M  V30 2432 O 217.443 0.597105 5.67266 0
M  V30 2433 O 216.377 2.52486 5.46383 0
M  V30 2434 H 220.203 2.11171 2.18267 0
M  V30 2435 H 217.788 1.08504 1.027 0
M  V30 2436 H 219.67 0.662521 4.16159 0
M  V30 2437 H 218.345 -0.0942678 3.23563 0
M  V30 2438 H 217.252 2.21267 3.01648 0
M  V30 2439 H 218.585 2.89529 3.98037 0
M  V30 2440 N 220.237 -1.11381 1.11499 0
M  V30 2441 C 221.465 -1.86934 0.88675 0
M  V30 2442 C 221.88 -1.80195 -0.563476 0
M  V30 2443 O 221.237 -1.18367 -1.38908 0
M  V30 2444 C 221.288 -3.35722 1.34064 0
M  V30 2445 O 221.009 -3.4232 2.73401 0
M  V30 2446 C 222.51 -4.2818 1.14791 0
M  V30 2447 H 219.73 -0.591117 0.317523 0
M  V30 2448 H 222.274 -1.40865 1.48248 0
M  V30 2449 H 220.429 -3.79294 0.788355 0
M  V30 2450 H 220.843 -4.34971 2.93087 0
M  V30 2451 H 222.317 -5.30817 1.5145 0
M  V30 2452 H 222.794 -4.39113 0.0875279 0
M  V30 2453 H 223.4 -3.90402 1.68721 0
M  V30 2454 N 221.715 -0.905404 -1.28997 0
M  V30 2455 C 222.94 -0.549175 -1.99997 0
M  V30 2456 C 223.365 0.860276 -1.67275 0
M  V30 2457 O 222.723 1.57355 -0.900502 0
M  V30 2458 C 222.771 -0.755185 -3.52604 0
M  V30 2459 O 221.875 0.189692 -4.11964 0
M  V30 2460 H 221.216 -0.213899 -0.628604 0
M  V30 2461 H 223.746 -1.21856 -1.64354 0
M  V30 2462 H 223.756 -0.662045 -4.02593 0
M  V30 2463 H 222.431 -1.78271 -3.75755 0
M  V30 2464 H 221.008 0.0485257 -3.72868 0
M  V30 2465 N 223.193 1.4272 -0.668489 0
M  V30 2466 C 224.156 2.292 0.00448567 0
M  V30 2467 C 225.156 1.43001 0.735339 0
M  V30 2468 O 226.346 1.64461 0.57429 0
M  V30 2469 C 223.478 3.25375 1.01705 0
M  V30 2470 H 224.671 2.90199 -0.756608 0
M  V30 2471 H 222.224 1.50254 -0.430506 0
M  V30 2472 H 222.959 2.69301 1.80686 0
M  V30 2473 H 222.744 3.88944 0.496463 0
M  V30 2474 H 224.234 3.90245 1.48655 0
M  V30 2475 N 224.671 0.411399 1.52136 0
M  V30 2476 C 225.618 -0.412975 2.27075 0
M  V30 2477 C 226.588 -1.03912 1.29582 0
M  V30 2478 O 227.773 -1.06296 1.58448 0
M  V30 2479 C 224.913 -1.52247 3.09701 0
M  V30 2480 C 224.026 -0.917021 4.22155 0
M  V30 2481 C 223.161 -1.9994 4.92135 0
M  V30 2482 C 222.2 -1.37101 5.96548 0
M  V30 2483 N 221.337 -2.39364 6.60038 0
M  V30 2484 H 226.177 0.232499 2.97092 0
M  V30 2485 H 223.714 0.126496 1.46555 0
M  V30 2486 H 225.672 -2.17674 3.55913 0
M  V30 2487 H 224.302 -2.13794 2.41851 0
M  V30 2488 H 223.354 -0.151742 3.80097 0
M  V30 2489 H 224.666 -0.418006 4.97045 0
M  V30 2490 H 223.82 -2.73088 5.41763 0
M  V30 2491 H 222.559 -2.53208 4.16818 0
M  V30 2492 H 221.564 -0.624873 5.46237 0
M  V30 2493 H 222.789 -0.845998 6.7381 0
M  V30 2494 H 220.735 -2.91759 5.87548 0
M  V30 2495 H 220.652 -1.9428 7.3061 0
M  V30 2496 H 221.92 -3.12074 7.14304 0
M  V30 2497 N 226.149 -1.5696 0.141893 0
M  V30 2498 C 227.374 -2.00754 -0.520838 0
M  V30 2499 C 227.799 -1.0213 -1.57959 0
M  V30 2500 O 227.157 0.00371324 -1.813 0
M  V30 2501 C 227.205 -3.43318 -1.10294 0
M  V30 2502 O 226.309 -3.47679 -2.21795 0
M  V30 2503 H 225.65 -0.651564 -0.127908 0
M  V30 2504 H 228.18 -2.03221 0.23712 0
M  V30 2505 H 228.19 -3.82012 -1.43287 0
M  V30 2506 H 226.865 -4.14608 -0.327574 0
M  V30 2507 H 225.442 -3.20824 -1.9007 0
M  V30 2508 N 227.627 0.131896 -1.57047 0
M  V30 2509 C 228.852 0.860418 -1.8871 0
M  V30 2510 C 229.277 1.73251 -0.73251 0
M  V30 2511 O 228.635 1.785 0.317429 0
M  V30 2512 C 228.683 1.68047 -3.19049 0
M  V30 2513 O 227.787 2.7862 -3.04047 0
M  V30 2514 H 227.128 0.238743 -0.619595 0
M  V30 2515 H 229.658 0.118169 -2.04258 0
M  V30 2516 H 229.668 2.07238 -3.51449 0
M  V30 2517 H 228.343 1.04018 -4.02682 0
M  V30 2518 H 226.92 2.42726 -2.83088 0
M  V30 2519 N 229.106 1.52395 0.401703 0
M  V30 2520 C 230.069 1.75636 1.47257 0
M  V30 2521 C 231.069 0.62628 1.48103 0
M  V30 2522 O 232.259 0.894227 1.49497 0
M  V30 2523 C 229.391 1.84553 2.86624 0
M  V30 2524 H 230.584 2.71241 1.27938 0
M  V30 2525 H 228.137 1.42923 0.632662 0
M  V30 2526 H 228.872 0.908882 3.11303 0
M  V30 2527 H 228.657 2.66715 2.87412 0
M  V30 2528 H 230.147 2.04251 3.64241 0
M  V30 2529 N 230.584 -0.659388 1.43143 0
M  V30 2530 C 231.532 -1.79374 1.4808 0
M  V30 2531 C 232.526 -1.65639 0.354988 0
M  V30 2532 O 233.732 -1.7206 0.528704 0
M  V30 2533 H 230.107 -0.591705 0.4641 0
M  V30 2534 H 232.078 -1.72329 2.43609 0
M  V30 2535 C 230.827 -3.17606 1.41499 0
M  V30 2536 H 230.15 -3.28809 2.27431 0
M  V30 2537 H 231.59 -3.96951 1.49015 0
M  V30 2538 C 230.049 -3.36642 0.131765 0
M  V30 2539 O 230.579 -3.93461 -0.809386 0
M  V30 2540 N 228.785 -2.90567 0.0439396 0
M  V30 2541 H 228.332 -2.44513 0.810619 0
M  V30 2542 H 228.29 -3.03681 -0.813969 0
M  V30 2543 N 232.062 -1.29571 -0.897171 0
M  V30 2544 C 233.308 -1.17863 -1.65034 0
M  V30 2545 C 233.641 0.268729 -1.92332 0
M  V30 2546 O 232.916 1.19378 -1.53555 0
M  V30 2547 C 233.199 -1.995 -2.99786 0
M  V30 2548 C 233.052 -3.5239 -2.79538 0
M  V30 2549 C 234.371 -1.82335 -4.00552 0
M  V30 2550 H 231.49 -0.429528 -0.598895 0
M  V30 2551 H 234.132 -1.59072 -1.03905 0
M  V30 2552 H 232.282 -1.64485 -3.51962 0
M  V30 2553 H 233.954 -3.97401 -2.34244 0
M  V30 2554 H 232.197 -3.77187 -2.14273 0
M  V30 2555 H 232.868 -4.04787 -3.75302 0
M  V30 2556 H 235.344 -2.12924 -3.57495 0
M  V30 2557 H 234.22 -2.41801 -4.92771 0
M  V30 2558 H 234.481 -0.779209 -4.35179 0
M  V30 2559 N 233.54 1.10788 -1.12088 0
M  V30 2560 C 234.45 2.20599 -0.798338 0
M  V30 2561 C 235.466 1.72712 0.21135 0
M  V30 2562 O 236.642 2.01348 0.0458477 0
M  V30 2563 C 233.707 3.45771 -0.253674 0
M  V30 2564 C 232.768 4.08411 -1.32283 0
M  V30 2565 C 232.001 5.27608 -0.80406 0
M  V30 2566 O 232.224 5.69241 0.363478 0
M  V30 2567 O 231.158 5.8101 -1.57198 0
M  V30 2568 H 234.984 2.50614 -1.7154 0
M  V30 2569 H 232.569 1.19454 -0.897275 0
M  V30 2570 H 234.451 4.21376 0.0453691 0
M  V30 2571 H 233.126 3.1739 0.636005 0
M  V30 2572 H 232.033 3.34507 -1.67499 0
M  V30 2573 H 233.366 4.40986 -2.18614 0
M  V30 2574 N 235.018 0.912232 1.28515 0
M  V30 2575 C 235.928 0.404506 2.31086 0
M  V30 2576 C 236.944 -0.50707 1.66448 0
M  V30 2577 O 238.12 -0.393624 1.97516 0
M  V30 2578 C 235.185 -0.348572 3.44943 0
M  V30 2579 C 234.246 0.59604 4.25142 0
M  V30 2580 C 233.479 -0.121194 5.33562 0
M  V30 2581 O 233.702 -1.34317 5.5436 0
M  V30 2582 O 232.636 0.542716 5.99448 0
M  V30 2583 H 236.462 1.25579 2.76521 0
M  V30 2584 H 234.047 0.676998 1.33181 0
M  V30 2585 H 235.929 -0.77395 4.14232 0
M  V30 2586 H 234.604 -1.17571 3.01594 0
M  V30 2587 H 233.511 1.07079 3.58448 0
M  V30 2588 H 234.844 1.38995 4.72167 0
M  V30 2589 N 236.496 -1.42363 0.676048 0
M  V30 2590 C 237.459 -2.29199 0.00766941 0
M  V30 2591 C 238.459 -1.43389 -0.727745 0
M  V30 2592 O 239.649 -1.64764 -0.56556 0
M  V30 2593 C 236.781 -3.2591 -0.999785 0
M  V30 2594 H 237.974 -2.89794 0.771988 0
M  V30 2595 H 235.527 -1.50024 0.438468 0
M  V30 2596 H 236.262 -2.70256 -1.79255 0
M  V30 2597 H 236.047 -3.89202 -0.475829 0
M  V30 2598 H 237.537 -3.91028 -1.46583 0
M  V30 2599 N 237.974 -0.419461 -1.51915 0
M  V30 2600 C 239.221 0.152939 -2.01922 0
M  V30 2601 C 239.549 1.4426 -1.30458 0
M  V30 2602 O 238.804 1.91514 -0.402593 0
M  V30 2603 C 239.103 0.437067 -3.54717 0
M  V30 2604 C 238.769 -0.764632 -4.44369 0
M  V30 2605 C 237.431 -1.09423 -4.68594 0
M  V30 2606 C 239.783 -1.56713 -4.97082 0
M  V30 2607 C 237.111 -2.22732 -5.42777 0
M  V30 2608 C 239.463 -2.69107 -5.72507 0
M  V30 2609 C 238.127 -3.02541 -5.95 0
M  V30 2610 H 237.397 0.0559644 -0.738884 0
M  V30 2611 H 240.044 -0.562998 -1.83037 0
M  V30 2612 H 238.349 1.23469 -3.71837 0
M  V30 2613 H 240.046 0.893083 -3.90928 0
M  V30 2614 H 236.636 -0.497775 -4.257 0
M  V30 2615 H 240.82 -1.32571 -4.78266 0
M  V30 2616 H 236.076 -2.48971 -5.58411 0
M  V30 2617 H 240.25 -3.31671 -6.12346 0
M  V30 2618 H 237.877 -3.90457 -6.52264 0
M  V30 2619 N 239.452 1.56882 -0.150215 0
M  V30 2620 C 240.699 1.96228 0.500093 0
M  V30 2621 C 241.027 1.03522 1.64661 0
M  V30 2622 O 240.282 0.0650683 1.95592 0
M  V30 2623 C 240.581 3.41801 1.04437 0
M  V30 2624 C 240.247 4.50897 0.0159671 0
M  V30 2625 C 238.909 4.8046 -0.266731 0
M  V30 2626 C 241.261 5.16703 -0.683192 0
M  V30 2627 C 238.589 5.73135 -1.25434 0
M  V30 2628 C 240.941 6.10441 -1.65964 0
M  V30 2629 C 239.605 6.38382 -1.95 0
M  V30 2630 H 238.875 0.718048 0.182997 0
M  V30 2631 H 241.522 1.90019 -0.237724 0
M  V30 2632 H 239.827 3.44857 1.85959 0
M  V30 2633 H 241.524 3.69573 1.55618 0
M  V30 2634 H 238.114 4.27891 0.246485 0
M  V30 2635 H 242.298 4.93993 -0.477983 0
M  V30 2636 H 237.554 5.93074 -1.48571 0
M  V30 2637 H 241.728 6.60507 -2.20689 0
M  V30 2638 H 239.355 7.09996 -2.71679 0
M  V30 2639 N 240.93 -0.123565 1.57115 0
M  V30 2640 C 242.158 -0.846461 1.88793 0
M  V30 2641 C 242.573 -1.73652 0.740976 0
M  V30 2642 O 241.93 -1.80207 -0.288393 0
M  V30 2643 C 241.981 -1.6837 3.19897 0
M  V30 2644 O 241.702 -0.829477 4.30176 0
M  V30 2645 C 243.203 -2.51214 3.65248 0
M  V30 2646 H 240.423 -0.243573 0.625231 0
M  V30 2647 H 242.967 -0.109324 2.04208 0
M  V30 2648 H 241.122 -2.37364 3.06165 0
M  V30 2649 H 241.536 -1.40651 5.0529 0
M  V30 2650 H 243.01 -3.05497 4.59756 0
M  V30 2651 H 243.487 -3.28359 2.9168 0
M  V30 2652 H 244.093 -1.8747 3.81752 0
M  V30 2653 N 242.408 -1.52605 -0.393616 0
M  V30 2654 C 243.338 -1.80022 -1.48709 0
M  V30 2655 C 244.319 -0.651995 -1.57108 0
M  V30 2656 O 245.504 -0.89913 -1.72132 0
M  V30 2657 C 242.634 -1.96492 -2.86371 0
M  V30 2658 C 241.588 -3.12161 -2.92813 0
M  V30 2659 C 240.914 -3.13877 -4.3288 0
M  V30 2660 C 242.214 -4.51322 -2.6288 0
M  V30 2661 H 243.908 -2.71589 -1.26015 0
M  V30 2662 H 241.454 -1.30684 -0.604778 0
M  V30 2663 H 243.407 -2.14255 -3.62867 0
M  V30 2664 H 242.131 -1.01611 -3.10391 0
M  V30 2665 H 240.79 -2.94173 -2.18764 0
M  V30 2666 H 240.438 -2.16687 -4.53933 0
M  V30 2667 H 240.138 -3.91576 -4.38112 0
M  V30 2668 H 241.662 -3.33789 -5.1129 0
M  V30 2669 H 243.076 -4.69435 -3.29096 0
M  V30 2670 H 241.473 -5.31053 -2.79468 0
M  V30 2671 H 242.543 -4.58353 -1.58242 0
M  V30 2672 N 243.887 0.651787 -1.4349 0
M  V30 2673 C 244.85 1.74647 -1.48429 0
M  V30 2674 C 245.85 1.56513 -0.368817 0
M  V30 2675 O 247.04 1.62385 -0.630623 0
M  V30 2676 C 244.172 3.13533 -1.33827 0
M  V30 2677 H 245.365 1.71649 -2.4592 0
M  V30 2678 H 242.918 0.863573 -1.30277 0
M  V30 2679 H 243.653 3.22142 -0.37349 0
M  V30 2680 H 243.438 3.28101 -2.14691 0
M  V30 2681 H 244.928 3.93356 -1.40218 0
M  V30 2682 N 245.365 1.30045 0.890287 0
M  V30 2683 C 246.781 1.08261 1.17268 0
M  V30 2684 C 246.981 -0.160063 2.00863 0
M  V30 2685 O 246.037 -0.855181 2.37577 0
M  V30 2686 C 247.35 2.34323 1.8845 0
M  V30 2687 C 248.898 2.39735 2.01237 0
M  V30 2688 C 249.373 3.65625 2.7583 0
M  V30 2689 N 250.864 3.66402 2.83379 0
M  V30 2690 C 251.599 4.60498 3.41657 0
M  V30 2691 N 251.095 5.64933 4.01026 0
M  V30 2692 N 252.888 4.48051 3.39421 0
M  V30 2693 H 245.039 2.09777 0.332762 0
M  V30 2694 H 247.302 0.92446 0.209948 0
M  V30 2695 H 247.008 3.2498 1.34465 0
M  V30 2696 H 246.882 2.4256 2.88867 0
M  V30 2697 H 249.269 1.4956 2.54393 0
M  V30 2698 H 249.35 2.35476 0.999232 0
M  V30 2699 H 248.994 4.56156 2.23347 0
M  V30 2700 H 248.924 3.67144 3.77509 0
M  V30 2701 H 251.415 2.90896 2.41222 0
M  V30 2702 H 251.728 6.32841 4.43545 0
M  V30 2703 H 250.073 5.68732 3.99461 0
M  V30 2704 H 253.264 3.65649 2.92264 0
M  V30 2705 H 253.437 5.21565 3.84544 0
M  V30 2706 N 246.843 -1.10192 1.12674 0
M  V30 2707 C 248.12 -1.78717 0.794965 0
M  V30 2708 C 248.5 -1.98628 -0.714853 0
M  V30 2709 O 247.848 -1.58135 -1.64941 0
M  V30 2710 C 248.058 -3.11546 1.5729 0
M  V30 2711 C 249.406 -3.86382 1.76052 0
M  V30 2712 O 250.43 -3.21274 1.53823 0
M  V30 2713 O 249.289 -5.03246 2.13087 0
M  V30 2714 H 246.383 -0.774702 0.289423 0
M  V30 2715 H 248.929 -1.16819 1.23091 0
M  V30 2716 H 247.701 -2.92489 2.59935 0
M  V30 2717 H 247.324 -3.81164 1.13137 0
M  V30 2718 N 248.321 -0.919034 -1.28029 0
M  V30 2719 C 249.57 -0.550802 -1.94034 0
M  V30 2720 C 249.883 0.910877 -1.73096 0
M  V30 2721 O 251.089 1.3875 -2.33368 0
M  V30 2722 C 249.545 -0.934249 -3.47563 0
M  V30 2723 C 249.153 -2.41602 -3.7727 0
M  V30 2724 C 250.897 -0.636854 -4.19696 0
M  V30 2725 C 248.804 -2.73932 -5.24133 0
M  V30 2726 H 247.734 -0.202273 -0.726362 0
M  V30 2727 H 250.385 -1.11867 -1.45458 0
M  V30 2728 H 248.767 -0.295115 -3.94899 0
M  V30 2729 H 249.941 -3.10233 -3.40723 0
M  V30 2730 H 248.256 -2.68441 -3.18321 0
M  V30 2731 H 250.853 -0.855005 -5.2782 0
M  V30 2732 H 251.196 0.425575 -4.14119 0
M  V30 2733 H 251.729 -1.23469 -3.78154 0
M  V30 2734 H 248.468 -3.79049 -5.34792 0
M  V30 2735 H 247.988 -2.09942 -5.61858 0
M  V30 2736 H 249.667 -2.61215 -5.91925 0
M  V30 2737 N 249.799 1.42003 -0.683588 0
M  V30 2738 C 250.732 2.28166 0.039592 0
M  V30 2739 C 251.71 1.41562 0.799942 0
M  V30 2740 O 252.894 1.70997 0.793248 0
M  V30 2741 C 250.021 3.21575 1.06335 0
M  V30 2742 C 249.067 4.24643 0.397562 0
M  V30 2743 S 249.9 5.2869 -0.851296 0
M  V30 2744 C 251.056 6.25666 0.171166 0
M  V30 2745 H 251.289 2.89153 -0.691229 0
M  V30 2746 H 248.822 1.46962 -0.473435 0
M  V30 2747 H 250.78 3.75928 1.6489 0
M  V30 2748 H 249.441 2.59707 1.76667 0
M  V30 2749 H 248.634 4.90223 1.17035 0
M  V30 2750 H 248.236 3.73824 -0.114611 0
M  V30 2751 H 250.528 6.69653 1.02819 0
M  V30 2752 H 251.471 7.06666 -0.450397 0
M  V30 2753 H 251.879 5.62095 0.520578 0
M  V30 2754 N 251.277 0.427512 1.51691 0
M  V30 2755 C 252.505 -0.141191 2.06418 0
M  V30 2756 C 252.92 -1.37303 1.29589 0
M  V30 2757 O 252.277 -1.79059 0.352732 0
M  V30 2758 C 252.328 -0.473266 3.58389 0
M  V30 2759 O 252.049 0.709673 4.32314 0
M  V30 2760 C 253.55 -1.09371 4.29596 0
M  V30 2761 H 250.77 -0.0122747 0.670888 0
M  V30 2762 H 253.314 0.603764 1.95384 0
M  V30 2763 H 251.469 -1.16812 3.69369 0
M  V30 2764 H 251.883 0.42807 5.2275 0
M  V30 2765 H 253.357 -1.27613 5.37046 0
M  V30 2766 H 253.834 -2.072 3.87253 0
M  V30 2767 H 254.44 -0.43853 4.23033 0
M  V30 2768 N 252.755 -1.56801 0.158532 0
M  V30 2769 C 253.702 -2.17337 -0.776729 0
M  V30 2770 C 254.672 -1.1096 -1.23601 0
M  V30 2771 O 255.857 -1.39054 -1.30647 0
M  V30 2772 C 252.997 -2.80822 -2.00582 0
M  V30 2773 C 252.11 -4.01624 -1.59129 0
M  V30 2774 C 251.245 -4.53072 -2.77306 0
M  V30 2775 C 250.284 -5.66314 -2.32282 0
M  V30 2776 N 249.421 -6.12329 -3.43508 0
M  V30 2777 H 254.261 -2.96918 -0.253701 0
M  V30 2778 H 251.798 -1.46661 -0.113504 0
M  V30 2779 H 253.756 -3.15779 -2.72652 0
M  V30 2780 H 252.386 -2.03866 -2.50277 0
M  V30 2781 H 251.438 -3.72571 -0.767806 0
M  V30 2782 H 252.75 -4.83633 -1.2207 0
M  V30 2783 H 251.904 -4.90145 -3.57551 0
M  V30 2784 H 250.643 -3.70095 -3.17617 0
M  V30 2785 H 249.648 -5.28806 -1.5048 0
M  V30 2786 H 250.873 -6.51085 -1.93043 0
M  V30 2787 H 248.819 -5.32284 -3.83418 0
M  V30 2788 H 248.736 -6.89293 -3.105 0
M  V30 2789 H 250.004 -6.5405 -4.24075 0
M  V30 2790 N 254.233 0.115231 -1.57178 0
M  V30 2791 C 255.163 1.1423 -2.03651 0
M  V30 2792 C 256.144 1.42967 -0.921655 0
M  V30 2793 O 257.329 1.53343 -1.19162 0
M  V30 2794 C 254.459 2.4675 -2.44401 0
M  V30 2795 C 253.413 2.32467 -3.59365 0
M  V30 2796 C 252.739 3.69984 -3.86026 0
M  V30 2797 C 254.039 1.78203 -4.90959 0
M  V30 2798 H 255.733 0.755749 -2.89705 0
M  V30 2799 H 253.279 0.362093 -1.39373 0
M  V30 2800 H 255.232 3.18854 -2.75517 0
M  V30 2801 H 253.956 2.87302 -1.55322 0
M  V30 2802 H 252.615 1.62811 -3.28463 0
M  V30 2803 H 252.263 4.08028 -2.94147 0
M  V30 2804 H 251.963 3.61279 -4.63412 0
M  V30 2805 H 253.487 4.43587 -4.19599 0
M  V30 2806 H 254.901 2.40128 -5.20587 0
M  V30 2807 H 253.298 1.8031 -5.72371 0
M  V30 2808 H 254.368 0.739876 -4.79222 0
M  V30 2809 N 255.711 1.52812 0.385517 0
M  V30 2810 C 256.659 1.78482 1.49155 0
M  V30 2811 C 257.653 0.652914 1.56312 0
M  V30 2812 O 258.859 0.835464 1.59436 0
M  V30 2813 H 255.234 0.5648 0.496493 0
M  V30 2814 H 257.205 2.71095 1.24699 0
M  V30 2815 C 255.954 1.97378 2.86247 0
M  V30 2816 H 255.277 2.83907 2.81491 0
M  V30 2817 H 256.717 2.19327 3.62866 0
M  V30 2818 C 255.176 0.74728 3.28508 0
M  V30 2819 O 255.706 -0.0736232 4.01633 0
M  V30 2820 N 253.912 0.576396 2.84826 0
M  V30 2821 H 253.459 1.24555 2.25486 0
M  V30 2822 H 253.417 -0.24288 3.1346 0
M  V30 2823 N 257.189 -0.644168 1.43834 0
M  V30 2824 C 258.605 -0.960875 1.27434 0
M  V30 2825 C 258.805 -2.00499 0.200618 0
M  V30 2826 O 257.861 -2.49018 -0.417906 0
M  V30 2827 C 259.174 -1.43653 2.64167 0
M  V30 2828 C 260.722 -1.55271 2.71772 0
M  V30 2829 C 261.197 -2.06224 4.08944 0
M  V30 2830 N 262.688 -2.13513 4.11055 0
M  V30 2831 C 263.423 -2.54081 5.14033 0
M  V30 2832 N 262.919 -2.9388 6.27381 0
M  V30 2833 N 264.712 -2.54101 5.01387 0
M  V30 2834 H 256.863 0.0465779 2.12349 0
M  V30 2835 H 259.126 -0.0417638 0.94708 0
M  V30 2836 H 258.832 -0.743706 3.43747 0
M  V30 2837 H 258.706 -2.40993 2.90176 0
M  V30 2838 H 261.093 -2.23653 1.92519 0
M  V30 2839 H 261.174 -0.563395 2.49519 0
M  V30 2840 H 260.818 -1.38441 4.88668 0
M  V30 2841 H 260.748 -3.06003 4.28567 0
M  V30 2842 H 263.239 -1.85493 3.29242 0
M  V30 2843 H 263.552 -3.2361 7.01781 0
M  V30 2844 H 261.897 -2.91663 6.30839 0
M  V30 2845 H 265.088 -2.22391 4.11898 0
M  V30 2846 H 265.261 -2.85394 5.81768 0
M  V30 2847 N 258.668 -1.30515 -0.883378 0
M  V30 2848 C 259.615 -1.17032 -1.98927 0
M  V30 2849 C 260.585 -0.0594241 -1.65994 0
M  V30 2850 O 261.77 -0.229895 -1.8941 0
M  V30 2851 C 258.91 -0.869777 -3.33959 0
M  V30 2852 C 258.023 -2.06271 -3.79574 0
M  V30 2853 C 257.158 -1.70011 -5.03259 0
M  V30 2854 C 256.197 -2.8579 -5.41286 0
M  V30 2855 N 255.334 -2.49816 -6.56153 0
M  V30 2856 H 260.174 -2.1164 -2.09792 0
M  V30 2857 H 257.711 -1.05296 -1.02719 0
M  V30 2858 H 259.669 -0.676138 -4.11685 0
M  V30 2859 H 258.299 0.0394332 -3.22776 0
M  V30 2860 H 257.351 -2.36755 -2.97744 0
M  V30 2861 H 258.663 -2.92971 -4.03694 0
M  V30 2862 H 257.817 -1.47032 -5.88614 0
M  V30 2863 H 256.556 -0.804829 -4.81013 0
M  V30 2864 H 255.561 -3.09434 -4.54456 0
M  V30 2865 H 256.786 -3.76008 -5.65504 0
M  V30 2866 H 254.732 -1.62795 -6.35479 0
M  V30 2867 H 254.649 -3.30048 -6.8015 0
M  V30 2868 H 255.917 -2.30197 -7.44735 0
M  V30 2869 N 260.146 1.09593 -1.13257 0
M  V30 2870 C 261.079 2.15451 -0.752061 0
M  V30 2871 C 262.057 1.60493 0.260913 0
M  V30 2872 O 263.241 1.8788 0.152819 0
M  V30 2873 C 260.368 3.38506 -0.114594 0
M  V30 2874 C 259.414 4.12183 -1.09579 0
M  V30 2875 S 260.247 4.6661 -2.62745 0
M  V30 2876 C 261.403 5.92966 -2.00354 0
M  V30 2877 H 261.636 2.47395 -1.64872 0
M  V30 2878 H 259.169 1.21515 -0.952545 0
M  V30 2879 H 261.127 4.09757 0.246808 0
M  V30 2880 H 259.788 3.04784 0.759309 0
M  V30 2881 H 258.981 5.00445 -0.597545 0
M  V30 2882 H 258.583 3.46785 -1.40057 0
M  V30 2883 H 260.875 6.63882 -1.35156 0
M  V30 2884 H 261.818 6.47467 -2.86691 0
M  V30 2885 H 262.226 5.45405 -1.4558 0
M  V30 2886 N 261.624 0.925811 1.2754 0
M  V30 2887 C 262.572 0.413897 2.28888 0
M  V30 2888 C 263.566 -0.500779 1.61829 0
M  V30 2889 O 264.772 -0.38069 1.75928 0
M  V30 2890 H 261.147 0.115274 0.743112 0
M  V30 2891 H 263.118 1.28151 2.69481 0
M  V30 2892 C 261.867 -0.319792 3.46226 0
M  V30 2893 H 261.19 0.374846 3.98039 0
M  V30 2894 H 262.63 -0.642435 4.19105 0
M  V30 2895 C 261.089 -1.53209 3.00048 0
M  V30 2896 O 261.619 -2.6309 3.03557 0
M  V30 2897 N 259.825 -1.38326 2.55566 0
M  V30 2898 H 259.372 -0.489292 2.5291 0
M  V30 2899 H 259.33 -2.19564 2.25031 0
M  V30 2900 N 263.102 -1.41638 0.69111 0
M  V30 2901 C 264.379 -1.95036 0.148421 0
M  V30 2902 C 264.759 -1.63072 -1.34055 0
M  V30 2903 O 264.107 -0.93538 -2.08478 0
M  V30 2904 C 264.317 -3.46279 0.434951 0
M  V30 2905 C 265.665 -4.23069 0.360275 0
M  V30 2906 O 266.689 -3.54277 0.369613 0
M  V30 2907 O 265.548 -5.45583 0.316534 0
M  V30 2908 H 262.642 -0.826908 0.0123654 0
M  V30 2909 H 265.188 -1.5138 0.766963 0
M  V30 2910 H 263.96 -3.6281 1.46576 0
M  V30 2911 H 263.583 -3.97019 -0.214787 0
M  V30 2912 N 264.58 -0.43555 -1.51462 0
M  V30 2913 C 265.805 0.132627 -2.06976 0
M  V30 2914 C 266.23 1.35848 -1.30104 0
M  V30 2915 O 265.588 1.78112 -0.338493 0
M  V30 2916 C 265.636 0.43523 -3.57964 0
M  V30 2917 O 264.74 1.52198 -3.83288 0
M  V30 2918 H 264.081 0.00265 -0.663995 0
M  V30 2919 H 266.611 -0.616369 -1.95095 0
M  V30 2920 H 266.621 0.686206 -4.02188 0
M  V30 2921 H 265.296 -0.460739 -4.1334 0
M  V30 2922 H 263.873 1.2611 -3.50928 0
M  V30 2923 N 266.058 1.56714 -0.166846 0
M  V30 2924 C 267.006 2.19056 0.782123 0
M  V30 2925 C 268 1.15328 1.24079 0
M  V30 2926 O 269.206 1.33537 1.20697 0
M  V30 2927 H 265.581 0.70167 0.270486 0
M  V30 2928 H 267.552 2.97494 0.232322 0
M  V30 2929 C 266.301 2.84206 2.00306 0
M  V30 2930 H 265.624 3.63748 1.65914 0
M  V30 2931 H 267.064 3.31302 2.64604 0
M  V30 2932 C 265.523 1.83744 2.82382 0
M  V30 2933 O 266.053 1.32014 3.79388 0
M  V30 2934 N 264.259 1.52601 2.47308 0
M  V30 2935 H 263.806 1.9486 1.68485 0
M  V30 2936 H 263.764 0.856351 3.02513 0
M  V30 2937 N 267.536 -0.106894 1.57237 0
M  V30 2938 C 268.761 -0.830287 1.90055 0
M  V30 2939 C 269.186 -1.72064 0.75998 0
M  V30 2940 O 268.544 -1.78982 -0.288991 0
M  V30 2941 C 268.592 -1.6295 3.21683 0
M  V30 2942 O 267.696 -2.73748 3.08441 0
M  V30 2943 H 267.037 -0.228855 0.623315 0
M  V30 2944 H 269.567 -0.085658 2.04421 0
M  V30 2945 H 269.577 -2.01621 3.54701 0
M  V30 2946 H 268.252 -0.975989 4.04286 0
M  V30 2947 H 266.829 -2.38192 2.86913 0
M  V30 2948 N 269.014 -1.53014 -0.377408 0
M  V30 2949 C 269.977 -1.77957 -1.44444 0
M  V30 2950 C 270.977 -0.649763 -1.47087 0
M  V30 2951 O 272.167 -0.917897 -1.48055 0
M  V30 2952 C 269.299 -1.89089 -2.83651 0
M  V30 2953 H 270.492 -2.73243 -1.23606 0
M  V30 2954 H 268.045 -1.43912 -0.609844 0
M  V30 2955 H 268.78 -0.958293 -3.09818 0
M  V30 2956 H 268.565 -2.71254 -2.83132 0
M  V30 2957 H 270.055 -2.1002 -3.60945 0
M  V30 2958 N 270.492 0.636531 -1.44174 0
M  V30 2959 C 271.74 1.39343 -1.46383 0
M  V30 2960 C 272.061 1.94766 -0.0955715 0
M  V30 2961 O 271.331 1.75452 0.871395 0
M  V30 2962 H 269.911 0.517199 -0.538994 0
M  V30 2963 H 272.573 0.74957 -1.7991 0
M  V30 2964 H 271.669 2.22746 -2.18611 0
M  V30 2965 N 271.97 1.30982 0.876444 0
M  V30 2966 C 272.933 1.18054 1.96459 0
M  V30 2967 C 273.933 0.109399 1.60427 0
M  V30 2968 O 275.123 0.358173 1.70478 0
M  V30 2969 C 272.255 0.810616 3.31122 0
M  V30 2970 H 273.448 2.14735 2.09354 0
M  V30 2971 H 271.001 1.145 1.06392 0
M  V30 2972 H 271.736 -0.155322 3.23928 0
M  V30 2973 H 271.521 1.58481 3.58645 0
M  V30 2974 H 273.011 0.743876 4.10921 0
M  V30 2975 N 273.449 -1.08991 1.13837 0
M  V30 2976 C 274.697 -1.80899 0.901098 0
M  V30 2977 C 275.018 -1.86356 -0.574134 0
M  V30 2978 O 274.288 -1.35235 -1.41733 0
M  V30 2979 H 272.868 -0.669966 0.330386 0
M  V30 2980 H 275.53 -1.318 1.43578 0
M  V30 2981 H 274.626 -2.83929 1.29578 0
M  V30 2982 N 274.927 -0.932562 -1.27047 0
M  V30 2983 C 276.175 -0.574422 -1.93765 0
M  V30 2984 C 276.496 0.887993 -1.73608 0
M  V30 2985 O 275.766 1.62999 -1.08665 0
M  V30 2986 H 274.346 -0.209451 -0.717035 0
M  V30 2987 H 277.008 -1.18601 -1.5466 0
M  V30 2988 H 276.104 -0.784841 -3.02071 0
M  V30 2989 N 276.405 1.4127 -0.698611 0
M  V30 2990 C 277.816 1.84187 -0.305289 0
M  V30 2991 C 278.167 1.58449 1.15708 0
M  V30 2992 O 277.292 1.05651 1.88856 0
M  V30 2993 C 277.887 3.3435 -0.547314 0
M  V30 2994 C 276.446 3.75826 -0.207878 0
M  V30 2995 C 275.593 2.64647 -0.828099 0
M  V30 2996 H 278.544 1.30778 -0.89904 0
M  V30 2997 H 278.565 3.8001 0.192998 0
M  V30 2998 H 278.077 3.53051 -1.61172 0
M  V30 2999 H 276.178 3.62725 0.852143 0
M  V30 3000 H 276.291 4.74462 -0.665021 0
M  V30 3001 H 274.655 2.53395 -0.257458 0
M  V30 3002 H 275.438 2.86165 -1.89643 0
M  V30 3003 N 277.883 0.443576 1.51229 0
M  V30 3004 C 279.129 -0.120975 2.02439 0
M  V30 3005 C 279.462 -1.41815 1.32674 0
M  V30 3006 O 278.737 -1.89373 0.443622 0
M  V30 3007 C 279.02 -0.333291 3.58554 0
M  V30 3008 C 278.873 0.982968 4.38928 0
M  V30 3009 C 280.192 -1.10028 4.26124 0
M  V30 3010 H 277.311 -0.0424923 0.735774 0
M  V30 3011 H 279.953 0.583794 1.80809 0
M  V30 3012 H 278.103 -0.933614 3.77115 0
M  V30 3013 H 279.775 1.61775 4.32003 0
M  V30 3014 H 278.018 1.58611 4.03763 0
M  V30 3015 H 278.689 0.788379 5.46341 0
M  V30 3016 H 281.165 -0.591711 4.11871 0
M  V30 3017 H 280.041 -1.21761 5.35225 0
M  V30 3018 H 280.302 -2.12996 3.87408 0
M  V30 3019 N 279.361 -1.56624 0.175154 0
M  V30 3020 C 280.308 -2.18149 -0.753634 0
M  V30 3021 C 281.278 -1.12265 -1.22417 0
M  V30 3022 O 282.463 -1.40432 -1.29165 0
M  V30 3023 C 279.603 -2.82933 -1.97592 0
M  V30 3024 C 278.716 -4.03289 -1.5486 0
M  V30 3025 C 277.851 -4.55988 -2.72485 0
M  V30 3026 C 276.89 -5.68746 -2.26262 0
M  V30 3027 N 276.027 -6.15938 -3.36994 0
M  V30 3028 H 280.867 -2.9717 -0.222195 0
M  V30 3029 H 278.404 -1.46774 -0.0979422 0
M  V30 3030 H 280.362 -3.18653 -2.69288 0
M  V30 3031 H 278.992 -2.06509 -2.481 0
M  V30 3032 H 278.044 -3.73364 -0.728246 0
M  V30 3033 H 279.356 -4.849 -1.16933 0
M  V30 3034 H 278.51 -4.9391 -3.52332 0
M  V30 3035 H 277.249 -3.73443 -3.13674 0
M  V30 3036 H 276.254 -5.30372 -1.44863 0
M  V30 3037 H 277.479 -6.53095 -1.86127 0
M  V30 3038 H 275.425 -5.36321 -3.77751 0
M  V30 3039 H 275.342 -6.92548 -3.03172 0
M  V30 3040 H 276.61 -6.58511 -4.17114 0
M  V30 3041 N 280.839 0.0985539 -1.57292 0
M  V30 3042 C 282.088 0.801358 -1.85098 0
M  V30 3043 C 282.401 1.80066 -0.763902 0
M  V30 3044 O 283.607 2.55112 -0.928981 0
M  V30 3045 C 282.063 1.47599 -3.28242 0
M  V30 3046 C 281.671 0.516624 -4.45011 0
M  V30 3047 C 283.415 2.16272 -3.65276 0
M  V30 3048 C 281.322 1.19564 -5.79188 0
M  V30 3049 H 280.252 0.303022 -0.69043 0
M  V30 3050 H 282.903 0.0542623 -1.8342 0
M  V30 3051 H 281.285 2.27042 -3.2445 0
M  V30 3052 H 282.459 -0.246065 -4.60143 0
M  V30 3053 H 280.774 -0.064227 -4.1635 0
M  V30 3054 H 283.371 2.67802 -4.62803 0
M  V30 3055 H 283.714 2.95009 -2.93727 0
M  V30 3056 H 284.247 1.43693 -3.70941 0
M  V30 3057 H 280.986 0.449157 -6.53959 0
M  V30 3058 H 280.506 1.92984 -5.67906 0
M  V30 3059 H 282.185 1.7231 -6.23633 0
M  V30 3060 N 282.317 1.53212 0.369288 0
M  V30 3061 C 283.545 1.73119 1.13303 0
M  V30 3062 C 283.96 0.458455 1.83149 0
M  V30 3063 O 283.317 -0.568403 1.73423 0
M  V30 3064 C 283.368 2.89413 2.16616 0
M  V30 3065 O 283.089 4.11761 1.49614 0
M  V30 3066 C 284.59 3.21161 3.05566 0
M  V30 3067 H 281.81 0.579107 0.338934 0
M  V30 3068 H 284.354 1.99942 0.429338 0
M  V30 3069 H 282.509 2.64994 2.82589 0
M  V30 3070 H 282.923 4.76858 2.18419 0
M  V30 3071 H 284.397 4.05949 3.74045 0
M  V30 3072 H 284.874 2.36369 3.70171 0
M  V30 3073 H 285.48 3.47492 2.45213 0
M  V30 3074 N 283.795 -0.628877 1.44509 0
M  V30 3075 C 284.705 -1.7694 1.54044 0
M  V30 3076 C 285.721 -1.68705 0.425987 0
M  V30 3077 O 286.897 -1.89442 0.683656 0
M  V30 3078 C 283.962 -3.13332 1.48405 0
M  V30 3079 C 283.023 -3.33181 2.70719 0
M  V30 3080 C 282.256 -4.63067 2.6534 0
M  V30 3081 O 282.479 -5.44017 1.71469 0
M  V30 3082 O 281.413 -4.85167 3.56226 0
M  V30 3083 H 285.239 -1.71848 2.50403 0
M  V30 3084 H 282.824 -0.790378 1.26781 0
M  V30 3085 H 284.706 -3.94634 1.47791 0
M  V30 3086 H 283.381 -3.1896 0.551898 0
M  V30 3087 H 282.288 -2.51549 2.769 0
M  V30 3088 H 283.621 -3.32416 3.62988 0
M  V30 3089 N 285.273 -1.31445 -0.869486 0
M  V30 3090 C 286.221 -1.19067 -1.99814 0
M  V30 3091 C 287.215 -0.0988569 -1.69111 0
M  V30 3092 O 288.421 -0.260781 -1.78101 0
M  V30 3093 H 284.796 -0.368677 -0.655425 0
M  V30 3094 H 286.767 -2.14555 -2.07385 0
M  V30 3095 C 285.516 -0.915323 -3.35436 0
M  V30 3096 H 284.839 -1.74759 -3.59582 0
M  V30 3097 H 286.279 -0.868895 -4.15001 0
M  V30 3098 C 284.738 0.381928 -3.34728 0
M  V30 3099 O 285.268 1.39857 -3.76567 0
M  V30 3100 N 283.474 0.398633 -2.87853 0
M  V30 3101 H 283.021 -0.429186 -2.54 0
M  V30 3102 H 282.979 1.26651 -2.87762 0
M  V30 3103 N 286.751 1.08385 -1.14413 0
M  V30 3104 C 288.167 1.32844 -0.884563 0
M  V30 3105 C 288.367 1.95841 0.474181 0
M  V30 3106 O 287.423 2.21158 1.21842 0
M  V30 3107 C 288.736 2.22978 -2.01745 0
M  V30 3108 C 290.284 2.36458 -2.05077 0
M  V30 3109 C 290.759 3.29934 -3.1766 0
M  V30 3110 N 292.25 3.37511 -3.17239 0
M  V30 3111 C 292.985 4.09871 -4.0099 0
M  V30 3112 N 292.481 4.84936 -4.94781 0
M  V30 3113 N 294.274 4.05704 -3.89051 0
M  V30 3114 H 286.425 0.658756 -2.01926 0
M  V30 3115 H 288.688 0.352821 -0.879899 0
M  V30 3116 H 288.394 1.83934 -2.99769 0
M  V30 3117 H 288.268 3.23441 -1.94077 0
M  V30 3118 H 290.655 2.7476 -1.0766 0
M  V30 3119 H 290.736 1.35736 -2.16816 0
M  V30 3120 H 290.38 2.92352 -4.15322 0
M  V30 3121 H 290.31 4.30584 -3.03158 0
M  V30 3122 H 292.801 2.83996 -2.49308 0
M  V30 3123 H 293.114 5.37612 -5.55151 0
M  V30 3124 H 291.459 4.83988 -4.98779 0
M  V30 3125 H 294.65 3.46167 -3.15097 0
M  V30 3126 H 294.823 4.61834 -4.54547 0
M  V30 3127 N 288.23 0.939286 1.26551 0
M  V30 3128 C 289.455 0.602008 1.98471 0
M  V30 3129 C 289.88 -0.815624 1.69497 0
M  V30 3130 O 289.238 -1.54912 0.941905 0
M  V30 3131 C 289.286 0.848407 3.50477 0
M  V30 3132 O 288.39 -0.0804009 4.12322 0
M  V30 3133 H 287.731 0.23049 0.622712 0
M  V30 3134 H 290.261 1.2617 1.61066 0
M  V30 3135 H 290.271 0.768553 4.00696 0
M  V30 3136 H 288.946 1.88171 3.70897 0
M  V30 3137 H 287.523 0.0503508 3.72866 0
M  V30 3138 N 289.708 -1.40897 0.706093 0
M  V30 3139 C 290.655 -2.30751 0.0474474 0
M  V30 3140 C 291.625 -1.47678 -0.76029 0
M  V30 3141 O 292.81 -1.76441 -0.726177 0
M  V30 3142 C 289.95 -3.33815 -0.875309 0
M  V30 3143 C 289.063 -4.31961 -0.0580623 0
M  V30 3144 C 288.198 -5.22093 -0.979425 0
M  V30 3145 C 287.237 -6.11902 -0.155706 0
M  V30 3146 N 286.374 -6.94482 -1.03144 0
M  V30 3147 H 291.214 -2.86513 0.819413 0
M  V30 3148 H 288.751 -1.41102 0.415783 0
M  V30 3149 H 290.709 -3.92129 -1.42446 0
M  V30 3150 H 289.339 -2.79579 -1.61356 0
M  V30 3151 H 288.391 -3.75507 0.608147 0
M  V30 3152 H 289.703 -4.95415 0.580082 0
M  V30 3153 H 288.857 -5.85292 -1.59744 0
M  V30 3154 H 287.596 -4.5889 -1.65141 0
M  V30 3155 H 286.601 -5.47742 0.475309 0
M  V30 3156 H 287.826 -6.77162 0.512635 0
M  V30 3157 H 285.772 -6.33877 -1.68924 0
M  V30 3158 H 285.689 -7.54665 -0.449108 0
M  V30 3159 H 286.957 -7.6214 -1.63593 0
M  V30 3160 N 291.186 -0.45159 -1.50991 0
M  V30 3161 C 292.133 0.352625 -2.2809 0
M  V30 3162 C 293.103 1.0044 -1.32291 0
M  V30 3163 O 294.288 1.02058 -1.6121 0
M  V30 3164 C 291.428 1.43983 -3.13629 0
M  V30 3165 C 290.541 0.804772 -4.24438 0
M  V30 3166 C 289.676 1.86822 -4.97263 0
M  V30 3167 C 288.715 1.21236 -5.99973 0
M  V30 3168 N 287.852 2.2178 -6.66152 0
M  V30 3169 H 292.692 -0.311186 -2.96371 0
M  V30 3170 H 290.229 -0.165308 -1.46168 0
M  V30 3171 H 292.187 2.08161 -3.61559 0
M  V30 3172 H 290.817 2.07307 -2.47434 0
M  V30 3173 H 289.869 0.0509129 -3.80366 0
M  V30 3174 H 291.181 0.286076 -4.97979 0
M  V30 3175 H 290.335 2.58628 -5.48813 0
M  V30 3176 H 289.074 2.42068 -4.23385 0
M  V30 3177 H 288.079 0.479828 -5.47702 0
M  V30 3178 H 289.304 0.667051 -6.75816 0
M  V30 3179 H 287.25 2.76079 -5.95077 0
M  V30 3180 H 287.167 1.74841 -7.35504 0
M  V30 3181 H 288.435 2.93026 -7.22327 0
M  V30 3182 N 292.664 1.56529 -0.183458 0
M  V30 3183 C 293.892 2.01623 0.464285 0
M  V30 3184 C 294.307 1.06366 1.55986 0
M  V30 3185 O 293.664 0.0665398 1.82379 0
M  V30 3186 C 293.715 3.46475 1.03139 0
M  V30 3187 O 293.436 4.38095 -0.0204675 0
M  V30 3188 C 294.937 4.0703 1.75617 0
M  V30 3189 H 292.157 0.660596 0.117704 0
M  V30 3190 H 294.701 2.02451 -0.288751 0
M  V30 3191 H 292.856 3.46383 1.73486 0
M  V30 3192 H 293.27 5.22973 0.399952 0
M  V30 3193 H 294.744 5.10271 2.10542 0
M  V30 3194 H 295.221 3.49819 2.65563 0
M  V30 3195 H 295.827 4.1086 1.09882 0
M  V30 3196 N 294.142 -0.090211 1.57342 0
M  V30 3197 C 295.367 -0.810082 1.90925 0
M  V30 3198 C 295.792 -1.71248 0.778187 0
M  V30 3199 O 295.15 -1.79278 -0.269991 0
M  V30 3200 C 295.198 -1.59529 3.23393 0
M  V30 3201 O 294.302 -2.70461 3.11327 0
M  V30 3202 H 293.643 -0.222231 0.625707 0
M  V30 3203 H 296.173 -0.0639716 2.045 0
M  V30 3204 H 296.183 -1.97847 3.5682 0
M  V30 3205 H 294.858 -0.933055 4.05299 0
M  V30 3206 H 293.435 -2.35135 2.89423 0
M  V30 3207 N 295.62 -1.53406 -0.361157 0
M  V30 3208 C 296.867 -1.69802 -1.10333 0
M  V30 3209 C 297.195 -0.452087 -1.89173 0
M  V30 3210 O 296.45 0.566017 -1.87336 0
M  V30 3211 C 296.749 -2.90211 -2.08596 0
M  V30 3212 C 296.415 -4.26539 -1.46203 0
M  V30 3213 C 295.077 -4.6361 -1.28915 0
M  V30 3214 C 297.429 -5.113 -1.01101 0
M  V30 3215 C 294.757 -5.83075 -0.651157 0
M  V30 3216 C 297.109 -6.31415 -0.387007 0
M  V30 3217 C 295.773 -6.67195 -0.201657 0
M  V30 3218 H 295.043 -0.621351 -0.403737 0
M  V30 3219 H 297.69 -1.87598 -0.384609 0
M  V30 3220 H 295.995 -2.66946 -2.86788 0
M  V30 3221 H 297.692 -3.00091 -2.65982 0
M  V30 3222 H 294.282 -3.97352 -1.60653 0
M  V30 3223 H 298.466 -4.83206 -1.13249 0
M  V30 3224 H 293.722 -6.09385 -0.496006 0
M  V30 3225 H 297.896 -6.96394 -0.0293563 0
M  V30 3226 H 295.523 -7.59628 0.294766 0
M  V30 3227 N 297.098 0.621204 -1.44841 0
M  V30 3228 C 298.345 1.38055 -1.48145 0
M  V30 3229 C 298.673 1.94143 -0.117867 0
M  V30 3230 O 297.928 1.74713 0.881694 0
M  V30 3231 C 298.227 2.55675 -2.4973 0
M  V30 3232 C 297.893 2.17817 -3.94799 0
M  V30 3233 C 296.555 2.07205 -4.34303 0
M  V30 3234 C 298.907 1.88065 -4.86087 0
M  V30 3235 C 296.235 1.65045 -5.63007 0
M  V30 3236 C 298.587 1.47394 -6.15189 0
M  V30 3237 C 297.251 1.35331 -6.53637 0
M  V30 3238 H 296.521 0.505181 -0.542101 0
M  V30 3239 H 299.168 0.703477 -1.78111 0
M  V30 3240 H 297.473 3.2866 -2.13284 0
M  V30 3241 H 299.17 3.13904 -2.4953 0
M  V30 3242 H 295.76 2.26998 -3.63552 0
M  V30 3243 H 299.944 1.95168 -4.56315 0
M  V30 3244 H 295.2 1.54317 -5.91605 0
M  V30 3245 H 299.374 1.23415 -6.85377 0
M  V30 3246 H 297.001 1.02435 -7.53267 0
M  V30 3247 N 298.576 1.31904 0.862503 0
M  V30 3248 C 299.992 1.10724 1.14945 0
M  V30 3249 C 300.192 -0.117421 2.01158 0
M  V30 3250 O 299.248 -0.804595 2.39338 0
M  V30 3251 C 300.561 2.38267 1.83437 0
M  V30 3252 C 302.109 2.43949 1.96106 0
M  V30 3253 C 302.584 3.71394 2.68013 0
M  V30 3254 N 304.075 3.72331 2.75543 0
M  V30 3255 C 304.81 4.67641 3.31812 0
M  V30 3256 N 304.306 5.73313 3.88953 0
M  V30 3257 N 306.099 4.5515 3.29841 0
M  V30 3258 H 298.25 2.10436 0.288191 0
M  V30 3259 H 300.513 0.928705 0.190292 0
M  V30 3260 H 300.219 3.27759 1.27542 0
M  V30 3261 H 300.093 2.48633 2.83657 0
M  V30 3262 H 302.48 1.54922 2.51164 0
M  V30 3263 H 302.561 2.37543 0.949059 0
M  V30 3264 H 302.205 4.60791 2.13621 0
M  V30 3265 H 302.135 3.75069 3.69636 0
M  V30 3266 H 304.626 2.95947 2.34997 0
M  V30 3267 H 304.939 6.42107 4.30022 0
M  V30 3268 H 303.284 5.77077 3.87308 0
M  V30 3269 H 306.475 3.71766 2.84443 0
M  V30 3270 H 306.648 5.29604 3.73394 0
M  V30 3271 N 300.054 -1.07777 1.14986 0
M  V30 3272 C 301.294 -1.81888 0.932527 0
M  V30 3273 C 301.658 -1.84509 -0.531064 0
M  V30 3274 O 302.859 -2.54448 -0.866577 0
M  V30 3275 C 301.13 -3.23244 1.52473 0
M  V30 3276 S 302.689 -4.14154 1.44989 0
M  V30 3277 H 299.507 -0.626752 0.335712 0
M  V30 3278 H 302.109 -1.29503 1.46455 0
M  V30 3279 H 300.813 -3.18922 2.58296 0
M  V30 3280 H 300.344 -3.80704 0.991381 0
M  V30 3281 H 302.359 -4.94247 0.439799 0
M  V30 3282 N 301.532 -0.945985 -1.26051 0
M  V30 3283 C 302.757 -0.612525 -1.98149 0
M  V30 3284 C 303.182 0.806623 -1.69927 0
M  V30 3285 O 302.54 1.54411 -0.950108 0
M  V30 3286 C 302.588 -0.866981 -3.50023 0
M  V30 3287 O 301.692 0.0585333 -4.12358 0
M  V30 3288 H 301.033 -0.23379 -0.621481 0
M  V30 3289 H 303.563 -1.27023 -1.60395 0
M  V30 3290 H 303.573 -0.789792 -4.00283 0
M  V30 3291 H 302.248 -1.90135 -3.69894 0
M  V30 3292 H 300.825 -0.0701241 -3.72834 0
M  V30 3293 N 303.011 1.40521 -0.713556 0
M  V30 3294 C 303.941 2.33381 -0.0743864 0
M  V30 3295 C 304.922 1.52784 0.747735 0
M  V30 3296 O 306.107 1.81258 0.697071 0
M  V30 3297 C 303.237 3.36748 0.849598 0
M  V30 3298 C 302.191 4.27793 0.133247 0
M  V30 3299 C 301.517 5.21679 1.17281 0
M  V30 3300 C 302.817 5.12415 -1.01134 0
M  V30 3301 H 304.511 2.87081 -0.850007 0
M  V30 3302 H 302.057 1.38034 -0.410201 0
M  V30 3303 H 304.01 4.00648 1.30612 0
M  V30 3304 H 302.734 2.81439 1.65709 0
M  V30 3305 H 301.393 3.65342 -0.303426 0
M  V30 3306 H 301.041 4.62677 1.9733 0
M  V30 3307 H 300.741 5.83435 0.698397 0
M  V30 3308 H 302.265 5.88456 1.62947 0
M  V30 3309 H 303.679 5.69781 -0.634274 0
M  V30 3310 H 302.076 5.83203 -1.41399 0
M  V30 3311 H 303.146 4.48514 -1.84292 0
M  V30 3312 N 304.489 0.459591 1.5075 0
M  V30 3313 C 305.419 -0.330644 2.31147 0
M  V30 3314 C 306.4 -1.00087 1.37538 0
M  V30 3315 O 307.585 -1.00025 1.66459 0
M  V30 3316 C 304.715 -1.41958 3.16962 0
M  V30 3317 C 303.669 -0.871608 4.19031 0
M  V30 3318 C 302.995 -2.05797 4.9351 0
M  V30 3319 C 304.295 0.109251 5.22186 0
M  V30 3320 H 305.989 0.340336 2.97459 0
M  V30 3321 H 303.535 0.165119 1.4305 0
M  V30 3322 H 305.488 -1.9798 3.71997 0
M  V30 3323 H 304.212 -2.11917 2.48513 0
M  V30 3324 H 302.871 -0.333442 3.6508 0
M  V30 3325 H 302.519 -2.74427 4.21544 0
M  V30 3326 H 302.219 -1.6976 5.62544 0
M  V30 3327 H 303.743 -2.62331 5.51375 0
M  V30 3328 H 305.157 -0.361405 5.7216 0
M  V30 3329 H 303.554 0.383316 5.98875 0
M  V30 3330 H 304.624 1.03887 4.73641 0
M  V30 3331 O 306.006 -1.58029 0.333053 0
M  V30 3332 H 306.697 -1.92392 -0.224736 0
M  V30 END ATOM
M  V30 BEGIN BOND
M  V30 END BOND
M  V30 END CTAB
M  END
$$$$
