drugbank_target|Q92945 Far upstream element-binding protein 2 (DB02709; DB11638)
 OpenBabel12092121083D

  0  0  0     0  0            999 V3000
M  V30 BEGIN CTAB
M  V30 COUNTS 10099 10261 0 0 0
M  V30 BEGIN ATOM
M  V30 1 H -0.908 1.98254 -0.117106 0
M  V30 2 N 0 1.576 0 0
M  V30 3 C 0.933 2.03868 1.02534 0
M  V30 4 C 1.911 0.928543 1.3348 0
M  V30 5 O 3.095 1.19667 1.45644 0
M  V30 6 C 0.222 2.43627 2.35294 0
M  V30 7 C -0.732 3.65373 2.2001 0
M  V30 8 S 0.101 5.13292 1.52614 0
M  V30 9 C 1.257 5.56322 2.86805 0
M  V30 10 H 1.49 2.90518 0.631377 0
M  V30 11 H -0.977 1.52953 0.210867 0
M  V30 12 H 0.981 2.67203 3.11629 0
M  V30 13 H -0.358 1.57376 2.7183 0
M  V30 14 H -1.165 3.90944 3.18086 0
M  V30 15 H -1.563 3.418 1.51819 0
M  V30 16 H 0.729 5.58782 3.83104 0
M  V30 17 H 1.672 6.56266 2.65933 0
M  V30 18 H 2.08 4.83886 2.90714 0
M  V30 19 N 1.4781 -0.272755 1.55222 0
M  V30 20 C 2.7031 -1.02683 1.80197 0
M  V30 21 C 3.1281 -1.79142 0.573551 0
M  V30 22 O 2.4861 -1.74917 -0.476849 0
M  V30 23 C 2.5341 -1.9609 3.02624 0
M  V30 24 O 1.6381 -3.04863 2.77727 0
M  V30 25 H 0.9791 -0.293557 0.595584 0
M  V30 26 H 3.5091 -0.30159 2.02365 0
M  V30 27 H 3.5191 -2.38039 3.31363 0
M  V30 28 H 2.1941 -1.39851 3.91682 0
M  V30 29 H 0.7711 -2.67228 2.60084 0
M  V30 30 N 2.9562 -1.48159 -0.537278 0
M  V30 31 C 4.2332 -1.46291 -1.29839 0
M  V30 32 C 4.6132 -0.170613 -2.10409 0
M  V30 33 O 3.9612 0.847746 -2.12192 0
M  V30 34 C 4.1712 -2.72055 -2.18603 0
M  V30 35 C 5.5192 -3.20087 -2.7898 0
M  V30 36 O 6.5432 -2.72921 -2.28894 0
M  V30 37 O 5.4022 -4.02138 -3.70064 0
M  V30 38 H 2.4962 -0.583906 -0.585647 0
M  V30 39 H 5.0422 -1.60384 -0.554534 0
M  V30 40 H 3.8142 -3.57628 -1.58801 0
M  V30 41 H 3.4372 -2.60646 -3.00249 0
M  V30 42 N 4.4343 0.785586 -1.36625 0
M  V30 43 C 5.6643 1.5722 -1.34036 0
M  V30 44 C 6.0723 1.89033 0.0795062 0
M  V30 45 O 5.4153 1.50881 1.04789 0
M  V30 46 C 5.4773 2.91759 -2.10041 0
M  V30 47 C 5.1413 2.82654 -3.59104 0
M  V30 48 C 6.1383 2.54634 -4.53274 0
M  V30 49 C 3.8233 3.01111 -4.02042 0
M  V30 50 C 5.8173 2.45177 -5.88359 0
M  V30 51 C 3.5043 2.91276 -5.37216 0
M  V30 52 C 4.5023 2.63348 -6.30188 0
M  V30 53 O 4.1903 2.53514 -7.6288 0
M  V30 54 H 3.9223 0.494177 -0.461265 0
M  V30 55 H 6.4763 0.982632 -1.8037 0
M  V30 56 H 4.7063 3.52781 -1.58375 0
M  V30 57 H 6.3953 3.53059 -2.00261 0
M  V30 58 H 7.1613 2.40073 -4.21414 0
M  V30 59 H 3.0403 3.21854 -3.30047 0
M  V30 60 H 6.5843 2.23299 -6.60896 0
M  V30 61 H 2.4813 3.054 -5.68684 0
M  V30 62 H 3.2493 2.68967 -7.73045 0
M  V30 63 N 5.9124 1.20967 1.01018 0
M  V30 64 C 7.1374 1.0503 1.78839 0
M  V30 65 C 7.5624 -0.395752 1.8389 0
M  V30 66 O 6.9204 -1.28529 1.27867 0
M  V30 67 C 6.9684 1.64602 3.2084 0
M  V30 68 O 6.0724 0.887988 4.02726 0
M  V30 69 H 5.4134 0.369987 0.551367 0
M  V30 70 H 7.9434 1.60399 1.27018 0
M  V30 71 H 7.9534 1.68607 3.71532 0
M  V30 72 H 6.6284 2.69841 3.16479 0
M  V30 73 H 5.2054 0.922648 3.61305 0
M  V30 74 N 7.3905 -1.2043 1.01659 0
M  V30 75 C 8.6185 -1.93777 0.725132 0
M  V30 76 C 9.0335 -1.74772 -0.714166 0
M  V30 77 O 8.3905 -1.06169 -1.4844 0
M  V30 78 C 8.4415 -3.45876 1.05129 0
M  V30 79 O 8.1625 -3.6426 2.43406 0
M  V30 80 C 9.6635 -4.36368 0.780891 0
M  V30 81 H 6.8835 -0.615901 0.266284 0
M  V30 82 H 9.4275 -1.52922 1.35776 0
M  V30 83 H 7.5825 -3.8461 0.464065 0
M  V30 84 H 7.9965 -4.58246 2.55169 0
M  V30 85 H 9.4705 -5.41743 1.05918 0
M  V30 86 H 9.9475 -4.38275 -0.284937 0
M  V30 87 H 10.5535 -4.03296 1.35027 0
M  V30 88 N 8.8686 -0.792821 -1.36206 0
M  V30 89 C 10.1166 -0.366062 -1.98757 0
M  V30 90 C 10.4376 1.0668 -1.63231 0
M  V30 91 O 9.7076 1.73587 -0.907978 0
M  V30 92 H 8.2876 -0.132364 -0.735179 0
M  V30 93 H 10.9496 -1.01562 -1.66347 0
M  V30 94 H 10.0456 -0.460638 -3.08682 0
M  V30 95 N 10.3467 1.47872 -0.545128 0
M  V30 96 C 11.5947 2.02093 -0.016553 0
M  V30 97 C 11.9157 1.42305 1.3332 0
M  V30 98 O 11.1857 0.593853 1.86682 0
M  V30 99 H 9.7657 0.746993 -0.00313038 0
M  V30 100 H 12.4277 1.81414 -0.712397 0
M  V30 101 H 11.5237 3.11996 0.0805422 0
M  V30 102 N 11.8248 0.280983 1.55075 0
M  V30 103 C 13.2358 -0.215629 1.85451 0
M  V30 104 C 13.5868 -1.54991 1.203 0
M  V30 105 O 12.7118 -2.10699 0.493435 0
M  V30 106 C 13.3068 -0.398026 3.36454 0
M  V30 107 C 11.8658 -0.838866 3.66933 0
M  V30 108 C 11.0128 0.064458 2.77225 0
M  V30 109 H 13.9638 0.502601 1.50531 0
M  V30 110 H 13.9848 -1.23569 3.59876 0
M  V30 111 H 13.4968 0.573241 3.83843 0
M  V30 112 H 11.5978 -1.8214 3.25048 0
M  V30 113 H 11.7108 -0.672123 4.74362 0
M  V30 114 H 10.0748 -0.452863 2.50642 0
M  V30 115 H 10.8578 1.03172 3.2743 0
M  V30 116 N 13.3029 -1.57598 0.00835791 0
M  V30 117 C 14.7139 -1.7892 -0.53333 0
M  V30 118 C 15.0649 -0.916609 -1.73473 0
M  V30 119 O 14.1899 -0.121336 -2.1606 0
M  V30 120 C 14.7849 -3.24488 -0.974313 0
M  V30 121 C 13.3439 -3.46878 -1.46125 0
M  V30 122 C 12.4909 -2.74157 -0.416302 0
M  V30 123 H 15.4419 -1.56958 0.234495 0
M  V30 124 H 15.4629 -3.3306 -1.83988 0
M  V30 125 H 14.9749 -3.87972 -0.099718 0
M  V30 126 H 13.0759 -2.8862 -2.35646 0
M  V30 127 H 13.1889 -4.55572 -1.48295 0
M  V30 128 H 11.5529 -2.39022 -0.87981 0
M  V30 129 H 12.3359 -3.40345 0.44947 0
M  V30 130 N 14.781 0.264519 -1.55364 0
M  V30 131 C 16.192 0.834936 -1.6699 0
M  V30 132 C 16.543 1.86718 -0.602552 0
M  V30 133 O 15.668 2.14899 0.254425 0
M  V30 134 C 16.263 1.5212 -3.02729 0
M  V30 135 C 14.822 2.03954 -3.16354 0
M  V30 136 C 13.969 0.884498 -2.62815 0
M  V30 137 H 16.92 0.0406869 -1.58648 0
M  V30 138 H 16.941 2.38853 -2.96191 0
M  V30 139 H 16.453 0.769668 -3.80392 0
M  V30 140 H 14.554 2.82041 -2.43482 0
M  V30 141 H 14.667 2.24902 -4.23032 0
M  V30 142 H 13.031 1.2802 -2.20188 0
M  V30 143 H 13.814 0.14634 -3.42988 0
M  V30 144 N 16.2591 1.48442 0.529413 0
M  V30 145 C 17.5071 1.56179 1.28267 0
M  V30 146 C 17.8281 0.237721 1.93546 0
M  V30 147 O 17.0981 -0.740779 1.81354 0
M  V30 148 H 15.6781 0.575367 0.476405 0
M  V30 149 H 18.3401 1.84909 0.61602 0
M  V30 150 H 17.4361 2.34312 2.06165 0
M  V30 151 N 17.7372 -0.778329 1.37039 0
M  V30 152 C 19.1482 -1.35421 1.28523 0
M  V30 153 C 19.4992 -1.96075 -0.0700901 0
M  V30 154 O 18.6242 -1.93352 -0.971801 0
M  V30 155 C 19.2192 -2.46211 2.32735 0
M  V30 156 C 17.7782 -2.99585 2.27873 0
M  V30 157 C 16.9252 -1.72748 2.16918 0
M  V30 158 H 19.8762 -0.5791 1.47757 0
M  V30 159 H 19.8972 -3.2552 1.9702 0
M  V30 160 H 19.4092 -2.02036 3.31365 0
M  V30 161 H 17.5102 -3.48152 1.32745 0
M  V30 162 H 17.6232 -3.55646 3.21018 0
M  V30 163 H 15.9872 -1.95416 1.63354 0
M  V30 164 H 16.7702 -1.30686 3.17452 0
M  V30 165 N 19.2153 -1.21501 -1.00376 0
M  V30 166 C 20.6263 -1.03146 -1.55621 0
M  V30 167 C 20.9773 0.408375 -1.91903 0
M  V30 168 O 20.1023 1.29177 -1.73616 0
M  V30 169 C 20.6973 -1.86612 -2.82775 0
M  V30 170 C 19.2563 -1.72586 -3.34501 0
M  V30 171 C 18.4033 -1.83747 -2.07683 0
M  V30 172 H 21.3543 -1.35505 -0.826081 0
M  V30 173 H 21.3753 -1.3771 -3.54706 0
M  V30 174 H 20.8873 -2.91399 -2.56336 0
M  V30 175 H 18.9883 -0.704877 -3.65872 0
M  V30 176 H 19.1013 -2.54623 -4.05837 0
M  V30 177 H 17.4653 -1.27069 -2.20739 0
M  V30 178 H 18.2483 -2.90044 -1.83655 0
M  V30 179 N 20.6934 1.19889 -1.02296 0
M  V30 180 C 22.1044 1.71124 -0.746568 0
M  V30 181 C 22.4554 1.81939 0.734335 0
M  V30 182 O 21.5804 1.48639 1.57275 0
M  V30 183 C 22.1754 3.10804 -1.34857 0
M  V30 184 C 20.7344 3.59323 -1.1209 0
M  V30 185 C 19.8814 2.3635 -1.45031 0
M  V30 186 H 22.8324 1.04813 -1.19163 0
M  V30 187 H 22.8534 3.73186 -0.742437 0
M  V30 188 H 22.3654 3.029 -2.42638 0
M  V30 189 H 20.4664 3.7255 -0.0610337 0
M  V30 190 H 20.5794 4.4378 -1.80544 0
M  V30 191 H 18.9434 2.39399 -0.869487 0
M  V30 192 H 19.7264 2.31081 -2.53883 0
M  V30 193 N 22.1715 0.800033 1.35784 0
M  V30 194 C 23.5825 0.439142 1.81462 0
M  V30 195 C 23.9335 -1.03813 1.66485 0
M  V30 196 O 23.0585 -1.80626 1.19177 0
M  V30 197 C 23.6535 0.790314 3.29453 0
M  V30 198 C 22.2125 0.482111 3.733 0
M  V30 199 C 21.3595 1.01938 2.57883 0
M  V30 200 H 24.3105 0.992254 1.23855 0
M  V30 201 H 24.3315 0.0853677 3.80404 0
M  V30 202 H 23.8435 1.86554 3.40322 0
M  V30 203 H 21.9445 -0.584652 3.67984 0
M  V30 204 H 22.0575 1.01015 4.6833 0
M  V30 205 H 20.4215 0.442043 2.50835 0
M  V30 206 H 21.2045 2.10059 2.71533 0
M  V30 207 N 23.6496 -1.47581 0.552962 0
M  V30 208 C 24.6126 -2.28439 -0.186605 0
M  V30 209 C 25.6126 -1.36706 -0.84665 0
M  V30 210 O 26.8026 -1.59378 -0.703164 0
M  V30 211 C 23.9346 -3.16264 -1.2724 0
M  V30 212 H 25.1276 -2.95294 0.523609 0
M  V30 213 H 22.6806 -1.532 0.309745 0
M  V30 214 H 23.4156 -2.54091 -2.01514 0
M  V30 215 H 23.2006 -3.83769 -0.803968 0
M  V30 216 H 24.6906 -3.77198 -1.79196 0
M  V30 217 N 25.1277 -0.289203 -1.54924 0
M  V30 218 C 26.3757 0.322879 -1.99504 0
M  V30 219 C 26.6967 1.55313 -1.1791 0
M  V30 220 O 25.9667 1.94001 -0.272097 0
M  V30 221 H 24.5467 0.122291 -0.736922 0
M  V30 222 H 27.2087 -0.397802 -1.90797 0
M  V30 223 H 26.3047 0.603061 -3.06218 0
M  V30 224 N 26.6058 1.57591 -0.0167156 0
M  V30 225 C 27.8538 1.90906 0.663285 0
M  V30 226 C 28.1748 0.892509 1.73376 0
M  V30 227 O 27.4448 -0.0677623 1.95783 0
M  V30 228 H 26.0248 0.704637 0.247983 0
M  V30 229 H 28.6868 1.94803 -0.0615909 0
M  V30 230 H 27.7828 2.9116 1.12393 0
M  V30 231 N 28.0839 -0.256276 1.55502 0
M  V30 232 C 29.3319 -0.983672 1.76545 0
M  V30 233 C 29.6529 -1.86206 0.578982 0
M  V30 234 O 28.9229 -1.91656 -0.405577 0
M  V30 235 H 27.5029 -0.366191 0.651086 0
M  V30 236 H 30.1649 -0.276479 1.92929 0
M  V30 237 H 29.2609 -1.61087 2.67315 0
M  V30 238 N 29.562 -1.4872 -0.521534 0
M  V30 239 C 30.81 -1.56857 -1.27437 0
M  V30 240 C 31.131 -0.247982 -1.93417 0
M  V30 241 O 30.401 0.731151 -1.81744 0
M  V30 242 H 28.981 -0.577885 -0.473347 0
M  V30 243 H 31.643 -1.85233 -0.606205 0
M  V30 244 H 30.739 -2.35402 -2.0492 0
M  V30 245 N 31.0401 0.771051 -1.3745 0
M  V30 246 C 32.2881 1.52661 -1.32435 0
M  V30 247 C 32.6091 1.9479 0.0905024 0
M  V30 248 O 31.8791 1.66348 1.03466 0
M  V30 249 H 30.4591 0.566218 -0.487244 0
M  V30 250 H 33.1211 0.917636 -1.71946 0
M  V30 251 H 32.2171 2.42568 -1.96385 0
M  V30 252 N 32.5182 1.22032 0.997298 0
M  V30 253 C 33.4812 0.987909 2.06816 0
M  V30 254 C 34.4812 -0.0440084 1.6074 0
M  V30 255 O 35.6712 0.194053 1.73116 0
M  V30 256 C 32.8032 0.49132 3.37341 0
M  V30 257 H 33.9962 1.93803 2.28868 0
M  V30 258 H 31.5492 1.03838 1.16822 0
M  V30 259 H 32.2842 -0.463364 3.20973 0
M  V30 260 H 32.0692 1.23575 3.72118 0
M  V30 261 H 33.5592 0.348824 4.16141 0
M  V30 262 N 33.9963 -1.19345 1.0293 0
M  V30 263 C 35.2443 -1.88665 0.724574 0
M  V30 264 C 35.5653 -1.80036 -0.749144 0
M  V30 265 O 34.8353 -1.2111 -1.53978 0
M  V30 266 H 33.4153 -0.698406 0.265025 0
M  V30 267 H 36.0773 -1.44885 1.30362 0
M  V30 268 H 35.1733 -2.94987 1.01926 0
M  V30 269 N 35.4744 -0.807222 -1.35358 0
M  V30 270 C 36.7224 -0.387122 -1.98358 0
M  V30 271 C 37.0434 1.04942 -1.64354 0
M  V30 272 O 36.3134 1.72615 -0.926339 0
M  V30 273 H 34.8934 -0.140154 -0.733734 0
M  V30 274 H 37.5554 -1.0332 -1.6526 0
M  V30 275 H 36.6514 -0.493352 -3.08176 0
M  V30 276 N 36.9525 1.47285 -0.560781 0
M  V30 277 C 37.9155 2.28535 0.174488 0
M  V30 278 C 38.9155 1.37153 0.839388 0
M  V30 279 O 40.1055 1.59748 0.694702 0
M  V30 280 C 37.2375 3.16934 1.25561 0
M  V30 281 H 38.4305 2.95012 -0.539262 0
M  V30 282 H 35.9835 1.53034 -0.317865 0
M  V30 283 H 36.7185 2.55157 2.00164 0
M  V30 284 H 36.5035 3.8419 0.783604 0
M  V30 285 H 37.9935 3.78143 1.77193 0
M  V30 286 N 38.4306 0.297415 1.54768 0
M  V30 287 C 39.6786 -0.312295 1.99673 0
M  V30 288 C 39.9996 -1.54686 1.18732 0
M  V30 289 O 39.2696 -1.93854 0.282382 0
M  V30 290 H 37.8496 -0.118381 0.73756 0
M  V30 291 H 40.5116 0.407915 1.90583 0
M  V30 292 H 39.6076 -0.586813 3.06534 0
M  V30 293 N 39.9087 -1.5758 0.0250728 0
M  V30 294 C 41.1567 -1.91255 -0.653151 0
M  V30 295 C 41.4777 -0.901691 -1.729 0
M  V30 296 O 40.7477 0.0573785 -1.95816 0
M  V30 297 H 39.3277 -0.705942 -0.244243 0
M  V30 298 H 41.9897 -1.94767 0.0719209 0
M  V30 299 H 41.0857 -2.91752 -1.10847 0
M  V30 300 N 41.3868 0.248026 -1.55636 0
M  V30 301 C 42.6348 0.974295 -1.77065 0
M  V30 302 C 42.9558 1.85897 -0.588849 0
M  V30 303 O 42.2258 1.91868 0.395407 0
M  V30 304 H 40.8058 0.362733 -0.653019 0
M  V30 305 H 43.4678 0.266244 -1.93073 0
M  V30 306 H 42.5638 1.59667 -2.68166 0
M  V30 307 N 42.8649 1.48995 0.513639 0
M  V30 308 C 44.2759 1.5119 1.09537 0
M  V30 309 C 44.6269 0.290906 1.94031 0
M  V30 310 O 43.7519 -0.60049 2.07902 0
M  V30 311 C 44.3469 2.73964 1.99322 0
M  V30 312 C 42.9059 2.78978 2.52682 0
M  V30 313 C 42.0529 2.44934 1.30009 0
M  V30 314 H 45.0039 1.55875 0.298125 0
M  V30 315 H 45.0249 2.53409 2.83838 0
M  V30 316 H 44.5369 3.62813 1.37799 0
M  V30 317 H 42.6379 1.94378 3.1788 0
M  V30 318 H 42.7509 3.8083 2.90698 0
M  V30 319 H 41.1149 1.9644 1.62122 0
M  V30 320 H 41.8979 3.36043 0.702131 0
M  V30 321 N 44.343 -0.763751 1.37857 0
M  V30 322 C 45.754 -1.3405 1.29952 0
M  V30 323 C 46.105 -1.96138 -0.0492898 0
M  V30 324 O 45.23 -1.94372 -0.951239 0
M  V30 325 C 45.825 -2.43729 2.35333 0
M  V30 326 C 44.384 -2.97151 2.31037 0
M  V30 327 C 43.531 -1.70438 2.18738 0
M  V30 328 H 46.482 -0.563396 1.48363 0
M  V30 329 H 46.503 -3.23412 2.00462 0
M  V30 330 H 46.015 -1.9851 3.33489 0
M  V30 331 H 44.116 -3.46724 1.3643 0
M  V30 332 H 44.229 -3.52221 3.24772 0
M  V30 333 H 42.593 -1.93673 1.65418 0
M  V30 334 H 43.376 -1.27312 3.18821 0
M  V30 335 N 45.8211 -1.22559 -0.990812 0
M  V30 336 C 47.2321 -1.04791 -1.54518 0
M  V30 337 C 47.5831 0.387998 -1.92325 0
M  V30 338 O 46.7081 1.27328 -1.74976 0
M  V30 339 C 47.3031 -1.896 -2.80779 0
M  V30 340 C 45.8621 -1.76124 -3.32652 0
M  V30 341 C 45.0091 -1.8594 -2.05722 0
M  V30 342 H 47.9601 -1.36374 -0.811662 0
M  V30 343 H 47.9811 -1.41464 -3.53225 0
M  V30 344 H 47.4931 -2.94101 -2.53231 0
M  V30 345 H 45.5941 -0.743643 -3.65104 0
M  V30 346 H 45.7071 -2.58913 -4.03114 0
M  V30 347 H 44.0711 -1.29403 -2.19379 0
M  V30 348 H 44.8541 -2.91976 -1.80568 0
M  V30 349 N 47.2992 1.18797 -1.03562 0
M  V30 350 C 48.5472 1.88278 -0.734569 0
M  V30 351 C 48.8682 1.8043 0.739586 0
M  V30 352 O 48.1382 1.21925 1.53333 0
M  V30 353 H 46.7182 0.696991 -0.268725 0
M  V30 354 H 49.3802 1.44192 -1.31129 0
M  V30 355 H 48.4762 2.94443 -1.03489 0
M  V30 356 N 48.7773 0.814389 1.34928 0
M  V30 357 C 50.1883 0.458364 1.80986 0
M  V30 358 C 50.5393 -1.02042 1.67577 0
M  V30 359 O 49.6643 -1.79352 1.21086 0
M  V30 360 C 50.2593 0.825212 3.28597 0
M  V30 361 C 48.8183 0.521677 3.72767 0
M  V30 362 C 47.9653 1.04668 2.56788 0
M  V30 363 H 50.9163 1.00533 1.22795 0
M  V30 364 H 50.9373 0.12571 3.80292 0
M  V30 365 H 50.4493 1.90154 3.38324 0
M  V30 366 H 48.5503 -0.545589 3.68584 0
M  V30 367 H 48.6633 1.05977 4.67232 0
M  V30 368 H 47.0273 0.468622 2.50352 0
M  V30 369 H 47.8103 2.12927 2.6929 0
M  V30 370 N 50.2554 -1.46986 0.568584 0
M  V30 371 C 51.6664 -1.86188 0.138219 0
M  V30 372 C 52.0174 -1.47388 -1.29504 0
M  V30 373 O 51.1424 -0.88219 -1.97602 0
M  V30 374 C 51.7374 -3.3792 0.244065 0
M  V30 375 C 50.2964 -3.76171 -0.131335 0
M  V30 376 C 49.4434 -2.71027 0.586465 0
M  V30 377 H 52.3944 -1.38342 0.777645 0
M  V30 378 H 52.4154 -3.76729 -0.534351 0
M  V30 379 H 51.9274 -3.66128 1.28731 0
M  V30 380 H 50.0284 -3.5358 -1.17526 0
M  V30 381 H 50.1414 -4.78523 0.235146 0
M  V30 382 H 48.5054 -2.54684 0.0282722 0
M  V30 383 H 49.2884 -3.02077 1.63109 0
M  V30 384 N 51.7335 -0.305618 -1.54608 0
M  V30 385 C 52.9815 0.301701 -1.99835 0
M  V30 386 C 53.3025 1.54054 -1.19551 0
M  V30 387 O 52.5725 1.93702 -0.292658 0
M  V30 388 H 51.1525 0.114468 -0.738178 0
M  V30 389 H 53.8145 -0.418016 -1.90364 0
M  V30 390 H 52.9105 0.570548 -3.06841 0
M  V30 391 N 53.2116 1.57565 -0.0334293 0
M  V30 392 C 54.1746 2.09393 0.932048 0
M  V30 393 C 55.1746 1.00986 1.25134 0
M  V30 394 O 56.3646 1.27129 1.19096 0
M  V30 395 C 53.4966 2.56338 2.2473 0
M  V30 396 H 54.6896 2.95984 0.483085 0
M  V30 397 H 52.2426 1.54819 0.21468 0
M  V30 398 H 52.9776 1.7309 2.74245 0
M  V30 399 H 52.7626 3.35542 2.02865 0
M  V30 400 H 54.2526 2.96646 2.93923 0
M  V30 401 N 54.6897 -0.239769 1.55765 0
M  V30 402 C 55.9377 -0.964892 1.77579 0
M  V30 403 C 56.2587 -1.85582 0.598699 0
M  V30 404 O 55.5287 -1.92075 -0.385226 0
M  V30 405 H 54.1087 -0.359265 0.654933 0
M  V30 406 H 56.7707 -0.256001 1.93211 0
M  V30 407 H 55.8667 -1.58243 2.69009 0
M  V30 408 N 56.1678 -1.49265 -0.50573 0
M  V30 409 C 57.4448 -1.49012 -1.26707 0
M  V30 410 C 57.8248 -0.215205 -2.1 0
M  V30 411 O 57.1728 0.802547 -2.13943 0
M  V30 412 C 57.3828 -2.7663 -2.12783 0
M  V30 413 C 58.7308 -3.25932 -2.72127 0
M  V30 414 O 59.7548 -2.77715 -2.23054 0
M  V30 415 O 58.6138 -4.09897 -3.61451 0
M  V30 416 H 55.7078 -0.596197 -0.57313 0
M  V30 417 H 58.2538 -1.61524 -0.52039 0
M  V30 418 H 57.0258 -3.60916 -1.5118 0
M  V30 419 H 56.6488 -2.66956 -2.94653 0
M  V30 420 N 57.6459 0.756429 -1.3826 0
M  V30 421 C 59.0619 1.0591 -1.19395 0
M  V30 422 C 59.2619 2.01459 -0.0406567 0
M  V30 423 O 58.3179 2.44909 0.614467 0
M  V30 424 C 59.6309 1.64191 -2.51916 0
M  V30 425 C 61.1789 1.76376 -2.58574 0
M  V30 426 C 61.6539 2.38069 -3.91264 0
M  V30 427 N 63.1449 2.45503 -3.92788 0
M  V30 428 C 63.8799 2.94126 -4.92217 0
M  V30 429 N 63.3759 3.42805 -6.02043 0
M  V30 430 N 65.1689 2.9314 -4.7961 0
M  V30 431 H 57.3199 0.122313 -2.12048 0
M  V30 432 H 59.5829 0.116892 -0.940766 0
M  V30 433 H 59.2889 1.01451 -3.3675 0
M  V30 434 H 59.1629 2.6329 -2.70108 0
M  V30 435 H 61.5499 2.38244 -1.74137 0
M  V30 436 H 61.6309 0.759894 -2.44252 0
M  V30 437 H 61.2749 1.76835 -4.76121 0
M  V30 438 H 61.2049 3.39091 -4.02895 0
M  V30 439 H 63.6959 2.1107 -3.13461 0
M  V30 440 H 64.0089 3.78354 -6.73846 0
M  V30 441 H 62.3539 3.4087 -6.05667 0
M  V30 442 H 65.5449 2.54419 -3.92923 0
M  V30 443 H 65.7179 3.30721 -5.5725 0
M  V30 444 N 59.124 1.23083 0.984299 0
M  V30 445 C 60.372 1.05848 1.72165 0
M  V30 446 C 60.693 -0.406049 1.90726 0
M  V30 447 O 59.963 -1.29139 1.47309 0
M  V30 448 H 58.543 0.388685 0.637913 0
M  V30 449 H 61.205 1.54736 1.18503 0
M  V30 450 H 60.301 1.54327 2.71274 0
M  V30 451 N 60.6021 -1.18246 1.0419 0
M  V30 452 C 61.8501 -1.87886 0.744543 0
M  V30 453 C 62.1711 -1.8082 -0.730006 0
M  V30 454 O 61.4411 -1.22736 -1.52685 0
M  V30 455 H 60.0211 -0.695556 0.272417 0
M  V30 456 H 62.6831 -1.43494 1.31892 0
M  V30 457 H 61.7791 -2.9389 1.05049 0
M  V30 458 N 62.0802 -0.821533 -1.34494 0
M  V30 459 C 63.3282 -0.408139 -1.97936 0
M  V30 460 C 63.6492 1.03193 -1.65457 0
M  V30 461 O 62.9192 1.71622 -0.944595 0
M  V30 462 H 61.4992 -0.147928 -0.732206 0
M  V30 463 H 64.1612 -1.05067 -1.64155 0
M  V30 464 H 63.2572 -0.52601 -3.07635 0
M  V30 465 N 63.5583 1.46682 -0.576371 0
M  V30 466 C 64.8063 2.02013 -0.0594163 0
M  V30 467 C 65.1273 1.45101 1.30271 0
M  V30 468 O 64.3973 0.633317 1.8538 0
M  V30 469 H 62.9773 0.746759 -0.0189745 0
M  V30 470 H 65.6393 1.79862 -0.750717 0
M  V30 471 H 64.7353 3.12097 0.014345 0
M  V30 472 N 65.0364 0.313813 1.54444 0
M  V30 473 C 66.4474 -0.176243 1.85866 0
M  V30 474 C 66.7984 -1.52405 1.23561 0
M  V30 475 O 65.9234 -2.09605 0.538016 0
M  V30 476 C 66.5184 -0.32657 3.37222 0
M  V30 477 C 65.0774 -0.760846 3.6863 0
M  V30 478 C 64.2244 0.123247 2.77026 0
M  V30 479 H 67.1754 0.534418 1.49431 0
M  V30 480 H 67.1964 -1.15908 3.62416 0
M  V30 481 H 66.7084 0.654531 3.82541 0
M  V30 482 H 64.8094 -1.75204 3.28838 0
M  V30 483 H 64.9224 -0.571353 4.75681 0
M  V30 484 H 63.2864 -0.399597 2.51546 0
M  V30 485 H 64.0694 1.10094 3.25168 0
M  V30 486 N 66.5145 -1.57545 0.0417849 0
M  V30 487 C 67.7625 -1.91937 -0.632829 0
M  V30 488 C 68.0835 -0.919978 -1.71934 0
M  V30 489 O 67.3535 0.0366064 -1.95866 0
M  V30 490 H 65.9335 -0.708493 -0.236742 0
M  V30 491 H 68.5955 -1.9468 0.0925745 0
M  V30 492 H 67.6915 -2.92912 -1.07746 0
M  V30 493 N 67.9926 0.231505 -1.5589 0
M  V30 494 C 69.2406 0.955461 -1.78088 0
M  V30 495 C 69.5616 1.85262 -0.608533 0
M  V30 496 O 68.8316 1.92277 0.375035 0
M  V30 497 H 67.4116 0.355787 -0.656829 0
M  V30 498 H 70.0736 0.245751 -1.93344 0
M  V30 499 H 69.1696 1.56814 -2.69844 0
M  V30 500 N 69.4707 1.49531 0.497807 0
M  V30 501 C 70.7187 1.58865 1.24926 0
M  V30 502 C 71.0397 0.278721 1.92998 0
M  V30 503 O 70.3097 -0.702144 1.82885 0
M  V30 504 H 68.8897 0.585343 0.464094 0
M  V30 505 H 71.5517 1.86174 0.57666 0
M  V30 506 H 70.6477 2.38633 2.01149 0
M  V30 507 N 70.9488 -0.749086 1.3866 0
M  V30 508 C 72.1968 -1.50535 1.34847 0
M  V30 509 C 72.5178 -1.94909 -0.0595016 0
M  V30 510 O 71.7878 -1.67973 -1.00806 0
M  V30 511 H 70.3678 -0.558395 0.49619 0
M  V30 512 H 73.0298 -0.890165 1.73384 0
M  V30 513 H 72.1258 -2.39413 2.00219 0
M  V30 514 N 72.4269 -1.23603 -0.977757 0
M  V30 515 C 73.8379 -1.06424 -1.53398 0
M  V30 516 C 74.1889 0.367578 -1.92726 0
M  V30 517 O 73.3139 1.25465 -1.76316 0
M  V30 518 C 73.9089 -1.92568 -2.78753 0
M  V30 519 C 72.4679 -1.79642 -3.30765 0
M  V30 520 C 71.6149 -1.88111 -2.03739 0
M  V30 521 H 74.5659 -1.37227 -0.797152 0
M  V30 522 H 74.5869 -1.45203 -3.51705 0
M  V30 523 H 74.0989 -2.96771 -2.50098 0
M  V30 524 H 72.1999 -0.782325 -3.64294 0
M  V30 525 H 72.3129 -2.63174 -4.00345 0
M  V30 526 H 70.6769 -1.31723 -2.17994 0
M  V30 527 H 71.4599 -2.93875 -1.77461 0
M  V30 528 N 73.905 1.17692 -1.04816 0
M  V30 529 C 75.153 1.87488 -0.754497 0
M  V30 530 C 75.474 1.81205 0.720407 0
M  V30 531 O 74.744 1.23544 1.52032 0
M  V30 532 H 73.324 0.694101 -0.276102 0
M  V30 533 H 75.986 1.42793 -1.32651 0
M  V30 534 H 75.082 2.93328 -1.06606 0
M  V30 535 N 75.3831 0.828654 1.34056 0
M  V30 536 C 76.6311 0.41863 1.97717 0
M  V30 537 C 76.9521 -1.02314 1.66002 0
M  V30 538 O 76.2221 -1.71119 0.953683 0
M  V30 539 H 74.8021 0.151809 0.731412 0
M  V30 540 H 77.4641 1.05936 1.63596 0
M  V30 541 H 76.5601 0.542318 3.07352 0
M  V30 542 N 76.8612 -1.46375 0.584142 0
M  V30 543 C 78.1092 -2.01978 0.0701287 0
M  V30 544 C 78.4302 -1.4579 -1.295 0
M  V30 545 O 77.7002 -0.64314 -1.85042 0
M  V30 546 H 76.2802 -0.746648 0.0229345 0
M  V30 547 H 78.9422 -1.79461 0.760245 0
M  V30 548 H 78.0382 -3.121 0.0022064 0
M  V30 549 N 78.3393 -0.321999 -1.54275 0
M  V30 550 C 79.5643 0.285791 -2.05422 0
M  V30 551 C 79.9893 1.45124 -1.19669 0
M  V30 552 O 79.3473 1.80132 -0.205441 0
M  V30 553 C 79.3953 0.69956 -3.53749 0
M  V30 554 O 78.4993 1.8021 -3.70942 0
M  V30 555 H 77.8403 0.0518962 -0.661969 0
M  V30 556 H 80.3703 -0.469954 -1.9913 0
M  V30 557 H 80.3803 0.982649 -3.9599 0
M  V30 558 H 79.0553 -0.152864 -4.15619 0
M  V30 559 H 77.6323 1.51794 -3.40607 0
M  V30 560 N 79.8174 1.5752 -0.0501392 0
M  V30 561 C 80.7804 2.1037 0.909786 0
M  V30 562 C 81.7804 1.02308 1.24056 0
M  V30 563 O 82.9704 1.28385 1.17741 0
M  V30 564 C 80.1024 2.58708 2.21998 0
M  V30 565 H 81.2954 2.96479 0.451665 0
M  V30 566 H 78.8484 1.55038 0.198248 0
M  V30 567 H 79.5834 1.75989 2.72394 0
M  V30 568 H 79.3684 3.37675 1.99295 0
M  V30 569 H 80.8584 2.99747 2.9076 0
M  V30 570 N 81.2955 -0.223234 1.56011 0
M  V30 571 C 82.5435 -0.946003 1.78592 0
M  V30 572 C 82.8645 -1.84936 0.618349 0
M  V30 573 O 82.1345 -1.92473 -0.364833 0
M  V30 574 H 80.7145 -0.352298 0.658707 0
M  V30 575 H 83.3765 -0.235494 1.93472 0
M  V30 576 H 82.4725 -1.55381 2.70672 0
M  V30 577 N 82.7736 -1.49793 -0.48987 0
M  V30 578 C 84.0216 -1.59525 -1.24081 0
M  V30 579 C 84.3426 -0.288953 -1.92847 0
M  V30 580 O 83.6126 0.692436 -1.83254 0
M  V30 581 H 82.1926 -0.587796 -0.460983 0
M  V30 582 H 84.8546 -1.86477 -0.566778 0
M  V30 583 H 83.9506 -2.39696 -1.99881 0
M  V30 584 N 84.2517 0.741722 -1.39055 0
M  V30 585 C 85.6627 1.31966 -1.32068 0
M  V30 586 C 86.0137 1.96192 0.0180797 0
M  V30 587 O 85.1387 1.95861 0.920196 0
M  V30 588 C 85.7337 2.39954 -2.39181 0
M  V30 589 C 84.2927 2.93438 -2.35735 0
M  V30 590 C 83.4397 1.66936 -2.21422 0
M  V30 591 H 86.3907 0.539721 -1.4924 0
M  V30 592 H 86.4117 3.20182 -2.05581 0
M  V30 593 H 85.9237 1.9318 -3.36605 0
M  V30 594 H 84.0247 3.4451 -1.41929 0
M  V30 595 H 84.1377 3.4701 -3.30335 0
M  V30 596 H 82.5017 1.91016 -1.68478 0
M  V30 597 H 83.2847 1.22224 -3.20806 0
M  V30 598 N 85.7298 1.2412 0.971189 0
M  V30 599 C 86.9548 1.10667 1.75407 0
M  V30 600 C 87.3798 -0.337048 1.85056 0
M  V30 601 O 86.7378 -1.24396 1.31892 0
M  V30 602 C 86.7858 1.74726 3.15441 0
M  V30 603 O 85.8898 1.01566 3.99697 0
M  V30 604 H 85.2308 0.387341 0.539317 0
M  V30 605 H 87.7608 1.64358 1.2185 0
M  V30 606 H 87.7708 1.80341 3.6598 0
M  V30 607 H 86.4458 2.79773 3.07734 0
M  V30 608 H 85.0228 1.03713 3.58187 0
M  V30 609 N 87.2079 -1.17134 1.05439 0
M  V30 610 C 88.1399 -2.2078 0.615539 0
M  V30 611 C 89.1529 -1.59584 -0.322001 0
M  V30 612 O 90.3419 -1.78133 -0.114344 0
M  V30 613 C 87.4419 -3.38691 -0.118938 0
M  V30 614 C 86.6149 -4.29454 0.829924 0
M  V30 615 C 85.6739 -5.26024 0.136258 0
M  V30 616 O 84.6999 -5.63952 0.77115 0
M  V30 617 N 85.9019 -5.69487 -1.1254 0
M  V30 618 H 88.6669 -2.59052 1.50705 0
M  V30 619 H 86.2279 -1.32058 0.936603 0
M  V30 620 H 88.2199 -4.00329 -0.593179 0
M  V30 621 H 86.7899 -2.98996 -0.91215 0
M  V30 622 H 86.0099 -3.65211 1.48373 0
M  V30 623 H 87.2979 -4.86984 1.47392 0
M  V30 624 H 86.6959 -5.4075 -1.6615 0
M  V30 625 H 85.2529 -6.33257 -1.54366 0
M  V30 626 N 88.686 -0.835752 -1.33615 0
M  V30 627 C 90.097 -0.487099 -1.80234 0
M  V30 628 C 90.448 0.993627 -1.69179 0
M  V30 629 O 89.573 1.77403 -1.23924 0
M  V30 630 C 90.168 -0.877385 -3.27242 0
M  V30 631 C 88.727 -0.580915 -3.7189 0
M  V30 632 C 87.874 -1.0874 -2.5509 0
M  V30 633 H 90.825 -1.02474 -1.2118 0
M  V30 634 H 90.846 -0.186195 -3.80044 0
M  V30 635 H 90.358 -1.95512 -3.35256 0
M  V30 636 H 88.459 0.486881 -3.69405 0
M  V30 637 H 88.572 -1.13396 -4.65487 0
M  V30 638 H 86.936 -0.508392 -2.49575 0
M  V30 639 H 87.719 -2.17184 -2.65868 0
M  V30 640 N 90.1641 1.46063 -0.591896 0
M  V30 641 C 91.5751 1.85944 -0.167822 0
M  V30 642 C 91.9261 1.49429 1.27143 0
M  V30 643 O 91.0511 0.913515 1.96173 0
M  V30 644 C 91.6461 3.37489 -0.297794 0
M  V30 645 C 90.2051 3.76332 0.0714732 0
M  V30 646 C 89.3521 2.7006 -0.629509 0
M  V30 647 H 92.3031 1.37087 -0.799555 0
M  V30 648 H 92.3241 3.77532 0.474349 0
M  V30 649 H 91.8361 3.64034 -1.3454 0
M  V30 650 H 89.9371 3.55405 1.11886 0
M  V30 651 H 90.0501 4.78088 -0.311245 0
M  V30 652 H 88.4141 2.54607 -0.0687867 0
M  V30 653 H 89.1971 2.99444 -1.67894 0
M  V30 654 N 91.6422 0.330177 1.54103 0
M  V30 655 C 92.8902 -0.269871 2.0029 0
M  V30 656 C 93.2112 -1.52133 1.21986 0
M  V30 657 O 92.4812 -1.93212 0.323438 0
M  V30 658 H 91.0612 -0.10271 0.739905 0
M  V30 659 H 93.7232 0.448249 1.89675 0
M  V30 660 H 92.8192 -0.52166 3.07709 0
M  V30 661 N 93.1203 -1.57491 0.0584922 0
M  V30 662 C 94.3683 -1.92597 -0.612436 0
M  V30 663 C 94.6893 -0.938162 -1.70949 0
M  V30 664 O 93.9593 0.0158301 -1.95894 0
M  V30 665 H 92.5393 -0.710964 -0.229214 0
M  V30 666 H 95.2013 -1.94571 0.113218 0
M  V30 667 H 94.2973 -2.94038 -1.04633 0
M  V30 668 N 94.5984 0.214957 -1.56127 0
M  V30 669 C 95.8464 0.936518 -1.79091 0
M  V30 670 C 96.1674 1.84606 -0.628148 0
M  V30 671 O 95.4374 1.92664 0.35462 0
M  V30 672 H 94.0174 0.3488 -0.660566 0
M  V30 673 H 96.6794 0.22523 -1.93594 0
M  V30 674 H 95.7754 1.53943 -2.71492 0
M  V30 675 N 96.0765 1.50051 0.48192 0
M  V30 676 C 97.3245 1.60181 1.23234 0
M  V30 677 C 97.6455 0.299176 1.92691 0
M  V30 678 O 96.9155 -0.682708 1.83619 0
M  V30 679 H 95.4955 0.590232 0.457859 0
M  V30 680 H 98.1575 1.86775 0.556881 0
M  V30 681 H 97.2535 2.40753 1.98607 0
M  V30 682 N 97.5546 -0.734337 1.39446 0
M  V30 683 C 98.9656 -1.31264 1.32766 0
M  V30 684 C 99.3166 -1.96198 -0.00767497 0
M  V30 685 O 98.4416 -1.96346 -0.909796 0
M  V30 686 C 99.0366 -2.38682 2.4045 0
M  V30 687 C 97.5956 -2.92184 2.37288 0
M  V30 688 C 96.7426 -1.6576 2.22304 0
M  V30 689 H 99.6936 -0.531799 1.49525 0
M  V30 690 H 99.7146 -3.19087 2.07276 0
M  V30 691 H 99.2266 -1.91392 3.37625 0
M  V30 692 H 97.3276 -3.43752 1.43754 0
M  V30 693 H 97.4406 -3.45253 3.3217 0
M  V30 694 H 95.8046 -1.9012 1.69489 0
M  V30 695 H 96.5876 -1.20521 3.21449 0
M  V30 696 N 99.0327 -1.24633 -0.964593 0
M  V30 697 C 100.281 -1.08573 -1.70459 0
M  V30 698 C 100.602 0.375655 -1.91347 0
M  V30 699 O 99.8717 1.26779 -1.49345 0
M  V30 700 H 98.4517 -0.398784 -0.631649 0
M  V30 701 H 101.114 -1.56601 -1.16026 0
M  V30 702 H 100.21 -1.58623 -2.68785 0
M  V30 703 N 100.511 1.16574 -1.06058 0
M  V30 704 C 101.76 1.86385 -0.770944 0
M  V30 705 C 102.073 1.82448 0.705129 0
M  V30 706 O 103.279 2.47815 1.10905 0
M  V30 707 C 101.735 3.34466 -1.32893 0
M  V30 708 C 101.343 3.46883 -2.83507 0
M  V30 709 C 103.087 4.09548 -1.11672 0
M  V30 710 C 100.994 4.89036 -3.32562 0
M  V30 711 H 99.9238 0.698181 -0.284709 0
M  V30 712 H 102.575 1.31583 -1.27899 0
M  V30 713 H 100.957 3.88859 -0.748662 0
M  V30 714 H 102.131 3.02663 -3.47465 0
M  V30 715 H 100.446 2.85232 -3.03368 0
M  V30 716 H 103.043 5.14434 -1.45814 0
M  V30 717 H 103.386 4.16264 -0.0549535 0
M  V30 718 H 103.919 3.61387 -1.66265 0
M  V30 719 H 100.658 4.87499 -4.38207 0
M  V30 720 H 100.178 5.3389 -2.73351 0
M  V30 721 H 101.857 5.57843 -3.2775 0
M  V30 722 N 101.989 0.842826 1.3317 0
M  V30 723 C 103.405 0.531128 1.50503 0
M  V30 724 C 103.605 -0.940734 1.78192 0
M  V30 725 O 102.661 -1.72436 1.84451 0
M  V30 726 C 103.974 1.40789 2.65705 0
M  V30 727 C 105.522 1.40708 2.79589 0
M  V30 728 C 105.997 2.26878 3.97857 0
M  V30 729 N 107.488 2.24609 4.05099 0
M  V30 730 C 108.223 2.88019 4.95815 0
M  V30 731 N 107.719 3.60496 5.9162 0
M  V30 732 N 109.512 2.77469 4.88843 0
M  V30 733 H 101.663 1.79557 1.1346 0
M  V30 734 H 103.926 0.766267 0.558156 0
M  V30 735 H 103.632 2.454 2.51936 0
M  V30 736 H 103.506 1.08677 3.61205 0
M  V30 737 H 105.893 0.368668 2.92788 0
M  V30 738 H 105.974 1.76829 1.84838 0
M  V30 739 H 105.618 3.3078 3.85418 0
M  V30 740 H 105.548 1.88096 4.91861 0
M  V30 741 H 108.039 1.71906 3.36536 0
M  V30 742 H 108.352 4.06076 6.57512 0
M  V30 743 H 106.697 3.64604 5.91683 0
M  V30 744 H 109.888 2.20406 4.12963 0
M  V30 745 H 110.061 3.2717 5.59342 0
M  V30 746 N 103.467 -1.45747 0.599634 0
M  V30 747 C 104.414 -2.30467 -0.123849 0
M  V30 748 C 105.384 -1.41632 -0.86774 0
M  V30 749 O 106.569 -1.70568 -0.855056 0
M  V30 750 C 103.709 -3.26402 -1.12051 0
M  V30 751 C 102.822 -4.3034 -0.37832 0
M  V30 752 C 101.957 -5.13389 -1.364 0
M  V30 753 C 100.996 -6.09061 -0.609171 0
M  V30 754 N 100.133 -6.84918 -1.54374 0
M  V30 755 H 104.973 -2.91802 0.604627 0
M  V30 756 H 102.51 -1.43797 0.309972 0
M  V30 757 H 104.468 -3.80482 -1.7114 0
M  V30 758 H 103.098 -2.66839 -1.8165 0
M  V30 759 H 102.15 -3.78984 0.327929 0
M  V30 760 H 103.462 -4.98354 0.210997 0
M  V30 761 H 102.616 -5.7183 -2.02719 0
M  V30 762 H 101.355 -4.45376 -1.98725 0
M  V30 763 H 100.36 -5.49758 0.0676979 0
M  V30 764 H 101.585 -6.79099 0.00891991 0
M  V30 765 H 99.531 -6.19601 -2.15478 0
M  V30 766 H 99.448 -7.49254 -1.00766 0
M  V30 767 H 100.716 -7.47906 -2.19676 0
M  V30 768 N 104.945 -0.338344 -1.53925 0
M  V30 769 C 106.222 0.314774 -1.93051 0
M  V30 770 C 106.602 1.68669 -1.26941 0
M  V30 771 O 105.95 2.24636 -0.418445 0
M  V30 772 C 106.16 0.392249 -3.46789 0
M  V30 773 C 107.508 0.645554 -4.19664 0
M  V30 774 O 108.532 0.474575 -3.53024 0
M  V30 775 O 107.391 0.976408 -5.37707 0
M  V30 776 H 104.485 0.182598 -0.80659 0
M  V30 777 H 107.031 -0.389141 -1.65178 0
M  V30 778 H 105.803 -0.570702 -3.87116 0
M  V30 779 H 105.426 1.14316 -3.80812 0
M  V30 780 N 106.423 1.57458 -0.0668435 0
M  V30 781 C 107.386 2.11323 0.887422 0
M  V30 782 C 108.386 1.03618 1.22964 0
M  V30 783 O 109.576 1.29626 1.16373 0
M  V30 784 C 106.708 2.61048 2.19242 0
M  V30 785 H 107.901 2.96942 0.420194 0
M  V30 786 H 105.454 1.55239 0.181793 0
M  V30 787 H 106.189 1.78868 2.70512 0
M  V30 788 H 105.974 3.39769 1.95702 0
M  V30 789 H 107.464 3.02814 2.87565 0
M  V30 790 N 107.901 -0.206675 1.56239 0
M  V30 791 C 109.148 -0.928842 1.79941 0
M  V30 792 C 109.476 -1.83734 0.638131 0
M  V30 793 O 108.731 -1.92039 -0.376746 0
M  V30 794 C 109.03 -1.78675 3.09532 0
M  V30 795 C 108.696 -1.03022 4.38973 0
M  V30 796 C 107.358 -0.821302 4.74139 0
M  V30 797 C 109.71 -0.497081 5.18824 0
M  V30 798 C 107.038 -0.0675719 5.86661 0
M  V30 799 C 109.39 0.24338 6.32132 0
M  V30 800 C 108.054 0.463422 6.65889 0
M  V30 801 H 107.324 -0.339887 0.658451 0
M  V30 802 H 109.971 -0.195977 1.90495 0
M  V30 803 H 108.276 -2.58794 2.94165 0
M  V30 804 H 109.973 -2.34792 3.25075 0
M  V30 805 H 106.563 -1.20306 4.11369 0
M  V30 806 H 110.747 -0.645921 4.92079 0
M  V30 807 H 106.003 0.112995 6.11296 0
M  V30 808 H 110.177 0.66393 6.93228 0
M  V30 809 H 107.804 1.04938 7.52922 0
M  V30 810 N 109.379 -1.50304 -0.473955 0
M  V30 811 C 110.342 -1.6841 -1.55469 0
M  V30 812 C 111.342 -0.554905 -1.50922 0
M  V30 813 O 112.532 -0.821882 -1.53593 0
M  V30 814 C 109.664 -1.70667 -2.95102 0
M  V30 815 H 110.857 -2.64828 -1.40733 0
M  V30 816 H 108.41 -1.39742 -0.700132 0
M  V30 817 H 109.145 -0.75932 -3.15285 0
M  V30 818 H 108.93 -2.52698 -2.9981 0
M  V30 819 H 110.42 -1.8664 -3.73571 0
M  V30 820 N 110.857 0.726932 -1.39834 0
M  V30 821 C 112.134 1.47902 -1.28001 0
M  V30 822 C 112.514 2.1083 0.106789 0
M  V30 823 O 111.862 1.99242 1.11869 0
M  V30 824 C 112.072 2.52392 -2.41038 0
M  V30 825 C 113.42 3.18546 -2.80737 0
M  V30 826 O 114.444 2.62708 -2.40547 0
M  V30 827 O 113.303 4.19604 -3.50135 0
M  V30 828 H 110.397 0.657163 -0.502062 0
M  V30 829 H 112.943 0.760071 -1.51727 0
M  V30 830 H 111.715 2.04329 -3.33715 0
M  V30 831 H 111.338 3.31837 -2.19021 0
M  V30 832 N 112.336 1.25143 0.95797 0
M  V30 833 C 113.299 1.05321 2.03569 0
M  V30 834 C 114.299 0.007152 1.60798 0
M  V30 835 O 115.489 0.24903 1.72411 0
M  V30 836 C 112.621 0.598394 3.35607 0
M  V30 837 H 113.814 2.00986 2.22586 0
M  V30 838 H 111.367 1.07502 1.13459 0
M  V30 839 H 112.102 -0.361014 3.22284 0
M  V30 840 H 111.887 1.35351 3.67998 0
M  V30 841 H 113.377 0.48104 4.1482 0
M  V30 842 N 113.814 -1.1601 1.06675 0
M  V30 843 C 115.06 -1.86909 0.786945 0
M  V30 844 C 115.393 -1.81717 -0.685018 0
M  V30 845 O 114.668 -1.23551 -1.50218 0
M  V30 846 C 114.951 -3.36313 1.28707 0
M  V30 847 C 114.804 -3.50175 2.82308 0
M  V30 848 C 116.123 -4.3084 0.898071 0
M  V30 849 H 113.242 -0.678677 0.287343 0
M  V30 850 H 115.884 -1.36336 1.32334 0
M  V30 851 H 114.034 -3.79513 0.830768 0
M  V30 852 H 115.706 -3.15886 3.36175 0
M  V30 853 H 113.949 -2.91959 3.20847 0
M  V30 854 H 114.62 -4.55116 3.12368 0
M  V30 855 H 117.096 -3.95561 1.29114 0
M  V30 856 H 115.972 -5.33876 1.27543 0
M  V30 857 H 116.233 -4.41662 -0.196651 0
M  V30 858 N 115.292 -0.849877 -1.32721 0
M  V30 859 C 116.224 -0.248332 -2.27851 0
M  V30 860 C 117.237 0.577218 -1.52224 0
M  V30 861 O 118.426 0.402489 -1.73903 0
M  V30 862 C 115.526 0.668107 -3.32249 0
M  V30 863 C 114.699 -0.120534 -4.37234 0
M  V30 864 C 113.758 0.720932 -5.21238 0
M  V30 865 O 112.784 0.156166 -5.68986 0
M  V30 866 N 113.986 2.03647 -5.43607 0
M  V30 867 H 116.751 -1.06575 -2.80111 0
M  V30 868 H 114.312 -0.709395 -1.45531 0
M  V30 869 H 116.304 1.23627 -3.85355 0
M  V30 870 H 114.874 1.38621 -2.80184 0
M  V30 871 H 114.094 -0.870108 -3.84477 0
M  V30 872 H 115.382 -0.662406 -5.0447 0
M  V30 873 H 114.78 2.51871 -5.06535 0
M  V30 874 H 113.337 2.55287 -5.99727 0
M  V30 875 N 116.77 1.45427 -0.607355 0
M  V30 876 C 118.186 1.57283 -0.270985 0
M  V30 877 C 118.386 1.59875 1.22647 0
M  V30 878 O 117.442 1.52893 2.00948 0
M  V30 879 C 118.755 2.85566 -0.941952 0
M  V30 880 C 120.303 2.9924 -0.917849 0
M  V30 881 C 120.778 4.30293 -1.56882 0
M  V30 882 N 122.269 4.37051 -1.5343 0
M  V30 883 C 123.004 5.37123 -2.00715 0
M  V30 884 N 122.5 6.43734 -2.56084 0
M  V30 885 N 124.293 5.28479 -1.91484 0
M  V30 886 H 116.444 1.41988 -1.57966 0
M  V30 887 H 118.707 0.67885 -0.661715 0
M  V30 888 H 118.413 2.8955 -1.99633 0
M  V30 889 H 118.287 3.74322 -0.465096 0
M  V30 890 H 120.674 2.94822 0.127984 0
M  V30 891 H 120.755 2.11895 -1.43297 0
M  V30 892 H 120.399 4.35469 -2.61398 0
M  V30 893 H 120.329 5.16454 -1.02873 0
M  V30 894 H 122.82 3.60615 -1.12982 0
M  V30 895 H 123.133 7.16341 -2.89958 0
M  V30 896 H 121.478 6.44485 -2.60122 0
M  V30 897 H 124.669 4.44098 -1.47967 0
M  V30 898 H 124.842 6.0632 -2.28648 0
M  V30 899 N 118.248 0.346503 1.53744 0
M  V30 900 C 119.211 -0.496439 2.23759 0
M  V30 901 C 120.211 -1.0252 1.2388 0
M  V30 902 O 121.401 -0.913974 1.48297 0
M  V30 903 C 118.533 -1.69187 2.95954 0
M  V30 904 H 119.726 0.115952 2.99676 0
M  V30 905 H 117.279 0.0978939 1.55993 0
M  V30 906 H 118.014 -2.34288 2.24231 0
M  V30 907 H 117.799 -1.31989 3.69217 0
M  V30 908 H 119.289 -2.28969 3.49232 0
M  V30 909 N 119.726 -1.57421 0.075193 0
M  V30 910 C 121.142 -1.57099 -0.281444 0
M  V30 911 C 121.342 -1.08486 -1.69803 0
M  V30 912 O 120.398 -0.752279 -2.41033 0
M  V30 913 C 121.711 -3.00571 -0.0880041 0
M  V30 914 C 123.259 -3.12605 -0.157281 0
M  V30 915 C 123.734 -4.57999 0.0079207 0
M  V30 916 N 125.225 -4.63176 -0.0475725 0
M  V30 917 C 125.96 -5.73373 0.0557876 0
M  V30 918 N 125.456 -6.92473 0.21286 0
M  V30 919 N 127.249 -5.621 -0.00152098 0
M  V30 920 H 119.4 -1.87335 1.00098 0
M  V30 921 H 121.663 -0.86377 0.390646 0
M  V30 922 H 121.369 -3.40262 0.889629 0
M  V30 923 H 121.243 -3.67754 -0.838875 0
M  V30 924 H 123.63 -2.72798 -1.1254 0
M  V30 925 H 123.711 -2.48053 0.62475 0
M  V30 926 H 123.355 -4.98496 0.972824 0
M  V30 927 H 123.285 -5.20586 -0.793556 0
M  V30 928 H 125.776 -3.7753 -0.167244 0
M  V30 929 H 126.089 -7.72279 0.283781 0
M  V30 930 H 124.434 -6.94556 0.248267 0
M  V30 931 H 127.625 -4.67938 -0.122958 0
M  V30 932 H 127.798 -6.47948 0.0824844 0
M  V30 933 N 121.204 0.198386 -1.56346 0
M  V30 934 C 122.136 1.26987 -1.90806 0
M  V30 935 C 123.149 1.41877 -0.798419 0
M  V30 936 O 124.338 1.42362 -1.07682 0
M  V30 937 C 121.438 2.64246 -2.12196 0
M  V30 938 C 120.611 2.71007 -3.43328 0
M  V30 939 C 119.67 3.89439 -3.5387 0
M  V30 940 O 118.696 3.76695 -4.26719 0
M  V30 941 N 119.898 5.04752 -2.86715 0
M  V30 942 H 122.663 0.977433 -2.83313 0
M  V30 943 H 120.224 0.388322 -1.57174 0
M  V30 944 H 122.216 3.41896 -2.1654 0
M  V30 945 H 120.786 2.85992 -1.26204 0
M  V30 946 H 120.006 1.79657 -3.50881 0
M  V30 947 H 121.294 2.72512 -4.29668 0
M  V30 948 H 120.692 5.18004 -2.2735 0
M  V30 949 H 119.249 5.8036 -2.96691 0
M  V30 950 N 122.682 1.50554 0.465978 0
M  V30 951 C 123.931 1.61038 1.21448 0
M  V30 952 C 124.244 0.31865 1.92987 0
M  V30 953 O 125.45 0.302469 2.6981 0
M  V30 954 C 123.906 2.84283 2.20706 0
M  V30 955 C 123.514 4.20352 1.54946 0
M  V30 956 C 125.258 3.04115 2.96166 0
M  V30 957 C 123.165 5.34778 2.5252 0
M  V30 958 H 122.095 0.599718 0.457005 0
M  V30 959 H 124.746 1.7699 0.484424 0
M  V30 960 H 123.128 2.61901 2.97025 0
M  V30 961 H 124.302 4.53008 0.843811 0
M  V30 962 H 122.617 4.06167 0.917475 0
M  V30 963 H 125.214 3.86774 3.69202 0
M  V30 964 H 125.557 2.16045 3.55852 0
M  V30 965 H 126.09 3.26702 2.26959 0
M  V30 966 H 122.829 6.25018 1.97566 0
M  V30 967 H 122.349 5.06534 3.21222 0
M  V30 968 H 124.028 5.65561 3.14245 0
M  V30 969 N 124.16 -0.719506 1.40217 0
M  V30 970 C 125.123 -1.8153 1.39927 0
M  V30 971 C 126.123 -1.58095 0.293723 0
M  V30 972 O 127.313 -1.65209 0.552429 0
M  V30 973 C 124.445 -3.19561 1.18716 0
M  V30 974 H 125.638 -1.83186 2.37451 0
M  V30 975 H 123.191 -0.924746 1.26008 0
M  V30 976 H 123.926 -3.23557 0.219366 0
M  V30 977 H 123.711 -3.3797 1.98793 0
M  V30 978 H 125.201 -3.99598 1.21291 0
M  V30 979 N 125.638 -1.25649 -0.95132 0
M  V30 980 C 126.601 -1.06399 -2.03007 0
M  V30 981 C 127.601 -0.0156794 -1.60792 0
M  V30 982 O 128.791 -0.25817 -1.72276 0
M  V30 983 C 125.923 -0.616184 -3.35285 0
M  V30 984 H 127.116 -2.02164 -2.21517 0
M  V30 985 H 124.669 -1.08103 -1.12887 0
M  V30 986 H 125.404 0.343917 -3.22471 0
M  V30 987 H 125.189 -1.37301 -3.67275 0
M  V30 988 H 126.679 -0.503032 -4.14559 0
M  V30 989 N 127.117 1.15442 -1.07289 0
M  V30 990 C 128.064 2.20161 -0.692653 0
M  V30 991 C 129.034 1.63073 0.31564 0
M  V30 992 O 130.219 1.89725 0.202235 0
M  V30 993 C 127.359 3.44967 -0.0959509 0
M  V30 994 C 126.472 4.16256 -1.15564 0
M  V30 995 C 125.607 5.28609 -0.524011 0
M  V30 996 C 124.646 5.91715 -1.56653 0
M  V30 997 N 123.783 6.9554 -0.957531 0
M  V30 998 H 128.623 2.52037 -1.59002 0
M  V30 999 H 126.16 1.2378 -0.794798 0
M  V30 1000 H 128.118 4.16341 0.267628 0
M  V30 1001 H 126.748 3.1361 0.764772 0
M  V30 1002 H 125.8 3.43385 -1.6368 0
M  V30 1003 H 127.112 4.59268 -1.94613 0
M  V30 1004 H 126.266 6.06604 -0.108032 0
M  V30 1005 H 125.005 4.86787 0.29825 0
M  V30 1006 H 124.01 5.12433 -1.9923 0
M  V30 1007 H 125.235 6.35614 -2.39107 0
M  V30 1008 H 123.181 6.55814 -0.156162 0
M  V30 1009 H 123.098 7.36977 -1.68526 0
M  V30 1010 H 124.366 7.77435 -0.567032 0
M  V30 1011 N 128.595 0.856903 1.32268 0
M  V30 1012 C 129.844 0.457599 1.96441 0
M  V30 1013 C 130.157 -0.992426 1.68553 0
M  V30 1014 O 131.363 -1.49727 2.26482 0
M  V30 1015 C 129.819 0.767358 3.51624 0
M  V30 1016 C 129.427 2.23326 3.88367 0
M  V30 1017 C 131.171 0.435887 4.22256 0
M  V30 1018 C 129.078 2.48613 5.36606 0
M  V30 1019 H 128.008 0.167387 0.735185 0
M  V30 1020 H 130.659 1.048 1.5063 0
M  V30 1021 H 129.041 0.106367 3.95857 0
M  V30 1022 H 130.215 2.93623 3.55137 0
M  V30 1023 H 128.53 2.52948 3.30766 0
M  V30 1024 H 131.127 0.602202 5.31298 0
M  V30 1025 H 131.47 -0.622672 4.11617 0
M  V30 1026 H 132.003 1.05286 3.83614 0
M  V30 1027 H 128.742 3.53101 5.52268 0
M  V30 1028 H 128.262 1.82896 5.71235 0
M  V30 1029 H 129.941 2.32676 6.03714 0
M  V30 1030 N 130.073 -1.45103 0.615059 0
M  V30 1031 C 131.321 -2.01784 0.112955 0
M  V30 1032 C 131.642 -1.48504 -1.26378 0
M  V30 1033 O 130.912 -0.682245 -1.83636 0
M  V30 1034 H 129.492 -0.745993 0.0387668 0
M  V30 1035 H 132.154 -1.77808 0.798141 0
M  V30 1036 H 131.25 -3.12025 0.0684069 0
M  V30 1037 N 131.551 -0.354651 -1.53558 0
M  V30 1038 C 132.799 0.237972 -2.00694 0
M  V30 1039 C 133.12 1.50173 -1.24391 0
M  V30 1040 O 132.39 1.92673 -0.354135 0
M  V30 1041 H 130.97 0.0909256 -0.741446 0
M  V30 1042 H 133.632 -0.478368 -1.88938 0
M  V30 1043 H 132.728 0.47264 -3.085 0
M  V30 1044 N 133.029 1.57378 -0.0835403 0
M  V30 1045 C 134.306 1.85363 0.624507 0
M  V30 1046 C 134.686 0.978239 1.87066 0
M  V30 1047 O 134.034 0.0475908 2.2845 0
M  V30 1048 C 134.244 3.35795 0.950947 0
M  V30 1049 C 135.592 4.03581 1.31939 0
M  V30 1050 O 136.616 3.40609 1.04232 0
M  V30 1051 O 135.475 5.14672 1.83779 0
M  V30 1052 H 132.569 0.766162 0.311329 0
M  V30 1053 H 135.115 1.69307 -0.115362 0
M  V30 1054 H 133.887 3.91244 0.0663899 0
M  V30 1055 H 133.51 3.57154 1.74719 0
M  V30 1056 N 134.507 -0.190092 1.56449 0
M  V30 1057 C 135.47 -1.21925 1.9408 0
M  V30 1058 C 136.47 -1.38176 0.822431 0
M  V30 1059 O 137.66 -1.35903 1.08977 0
M  V30 1060 C 134.792 -2.58773 2.21922 0
M  V30 1061 H 135.985 -0.897464 2.86157 0
M  V30 1062 H 133.538 -0.43181 1.50217 0
M  V30 1063 H 134.273 -2.95998 1.32499 0
M  V30 1064 H 134.058 -2.48348 3.03424 0
M  V30 1065 H 135.548 -3.32978 2.52022 0
M  V30 1066 N 135.985 -1.50799 -0.457987 0
M  V30 1067 C 136.948 -1.7005 -1.53674 0
M  V30 1068 C 137.948 -0.570881 -1.50325 0
M  V30 1069 O 139.138 -0.838126 -1.52712 0
M  V30 1070 C 136.27 -1.73788 -2.93276 0
M  V30 1071 H 137.463 -2.66306 -1.37917 0
M  V30 1072 H 135.016 -1.40477 -0.685271 0
M  V30 1073 H 135.751 -0.792717 -3.14462 0
M  V30 1074 H 135.536 -2.55864 -2.97113 0
M  V30 1075 H 137.026 -1.90591 -3.71571 0
M  V30 1076 N 137.463 0.71206 -1.40597 0
M  V30 1077 C 138.691 1.50111 -1.42388 0
M  V30 1078 C 139.106 1.88784 -0.0245395 0
M  V30 1079 O 138.463 1.55681 0.952351 0
M  V30 1080 C 138.514 2.7742 -2.31776 0
M  V30 1081 O 138.235 2.40382 -3.66262 0
M  V30 1082 C 139.736 3.7129 -2.42196 0
M  V30 1083 H 136.956 0.46314 -0.485533 0
M  V30 1084 H 139.5 0.878068 -1.8469 0
M  V30 1085 H 137.655 3.36001 -1.92827 0
M  V30 1086 H 138.069 3.22324 -4.13772 0
M  V30 1087 H 139.543 4.57448 -3.08943 0
M  V30 1088 H 140.02 4.14641 -1.44809 0
M  V30 1089 H 140.626 3.18619 -2.81712 0
M  V30 1090 N 138.941 1.26152 0.944643 0
M  V30 1091 C 140.169 1.14259 1.72489 0
M  V30 1092 C 140.584 -0.302555 1.8636 0
M  V30 1093 O 139.941 -1.20741 1.36849 0
M  V30 1094 C 139.992 1.80266 3.13347 0
M  V30 1095 O 139.713 3.19133 3.00143 0
M  V30 1096 C 141.214 1.74283 4.07603 0
M  V30 1097 H 138.434 0.398051 0.540181 0
M  V30 1098 H 140.978 1.66706 1.18446 0
M  V30 1099 H 139.133 1.31766 3.64303 0
M  V30 1100 H 139.547 3.51744 3.89071 0
M  V30 1101 H 141.021 2.25111 5.04013 0
M  V30 1102 H 141.498 0.708631 4.33446 0
M  V30 1103 H 142.104 2.22319 3.62567 0
M  V30 1104 N 140.419 -1.14872 1.07899 0
M  V30 1105 C 141.665 -1.86064 0.806725 0
M  V30 1106 C 141.998 -1.82434 -0.665706 0
M  V30 1107 O 141.273 -1.25138 -1.48899 0
M  V30 1108 C 141.556 -3.34929 1.32267 0
M  V30 1109 C 141.409 -3.47161 2.86006 0
M  V30 1110 C 142.728 -4.29863 0.943717 0
M  V30 1111 H 139.847 -0.675591 0.294526 0
M  V30 1112 H 142.489 -1.34925 1.33773 0
M  V30 1113 H 140.639 -3.78611 0.870974 0
M  V30 1114 H 142.311 -3.12302 3.39507 0
M  V30 1115 H 140.554 -2.88539 3.23925 0
M  V30 1116 H 141.225 -4.51777 3.17177 0
M  V30 1117 H 143.701 -3.9417 1.33302 0
M  V30 1118 H 142.577 -5.32494 1.33198 0
M  V30 1119 H 142.838 -4.41846 -0.149796 0
M  V30 1120 N 141.898 -0.863906 -1.31812 0
M  V30 1121 C 142.846 -0.30422 -2.30602 0
M  V30 1122 C 143.84 0.577419 -1.59255 0
M  V30 1123 O 145.046 0.464194 -1.73912 0
M  V30 1124 H 141.421 -0.0796877 -0.747766 0
M  V30 1125 H 143.392 -1.15148 -2.75288 0
M  V30 1126 C 142.141 0.484617 -3.44306 0
M  V30 1127 H 141.464 -0.18451 -3.99374 0
M  V30 1128 H 142.904 0.841664 -4.15562 0
M  V30 1129 C 141.363 1.6735 -2.92396 0
M  V30 1130 O 141.893 2.77273 -2.90659 0
M  V30 1131 N 140.099 1.50362 -2.48676 0
M  V30 1132 H 139.646 0.609402 -2.50288 0
M  V30 1133 H 139.604 2.30051 -2.14299 0
M  V30 1134 N 143.376 1.44774 -0.622745 0
M  V30 1135 C 144.324 2.32387 0.0994683 0
M  V30 1136 C 145.318 1.46859 0.844326 0
M  V30 1137 O 146.524 1.63254 0.758174 0
M  V30 1138 H 142.899 0.750273 0.0509291 0
M  V30 1139 H 144.87 2.91062 -0.65767 0
M  V30 1140 C 143.619 3.30723 1.07319 0
M  V30 1141 H 142.942 3.96541 0.509462 0
M  V30 1142 H 144.382 3.94725 1.54817 0
M  V30 1143 C 142.841 2.59021 2.15429 0
M  V30 1144 O 143.371 2.38286 3.23393 0
M  V30 1145 N 141.577 2.189 1.91131 0
M  V30 1146 H 141.124 2.35964 1.03337 0
M  V30 1147 H 141.082 1.71251 2.63668 0
M  V30 1148 N 144.854 0.36279 1.53368 0
M  V30 1149 C 146.079 -0.231226 2.06107 0
M  V30 1150 C 146.504 -1.419 1.23474 0
M  V30 1151 O 145.862 -1.79524 0.253128 0
M  V30 1152 C 145.91 -0.605523 3.5548 0
M  V30 1153 O 145.014 -1.70312 3.7559 0
M  V30 1154 H 144.355 -0.034327 0.663112 0
M  V30 1155 H 146.885 0.522584 1.97814 0
M  V30 1156 H 146.895 -0.877314 3.98456 0
M  V30 1157 H 145.57 0.263004 4.15068 0
M  V30 1158 H 144.147 -1.4271 3.44512 0
M  V30 1159 N 146.332 -1.57332 0.0918853 0
M  V30 1160 C 147.56 -1.98574 -0.581048 0
M  V30 1161 C 147.975 -0.970903 -1.61923 0
M  V30 1162 O 147.332 0.0399054 -1.82456 0
M  V30 1163 C 147.383 -3.39872 -1.23164 0
M  V30 1164 O 147.104 -4.37469 -0.234989 0
M  V30 1165 C 148.605 -3.96099 -1.99049 0
M  V30 1166 H 145.825 -0.65261 -0.156018 0
M  V30 1167 H 148.369 -2.0379 0.170225 0
M  V30 1168 H 146.524 -3.35679 -1.93386 0
M  V30 1169 H 146.938 -5.19751 -0.70418 0
M  V30 1170 H 148.412 -4.97127 -2.39934 0
M  V30 1171 H 148.889 -3.3374 -2.85507 0
M  V30 1172 H 149.495 -4.03755 -1.3365 0
M  V30 1173 N 147.81 0.181792 -1.56548 0
M  V30 1174 C 149.221 0.745244 -1.71181 0
M  V30 1175 C 149.572 1.83262 -0.70068 0
M  V30 1176 O 148.697 2.15946 0.140154 0
M  V30 1177 C 149.292 1.35859 -3.10367 0
M  V30 1178 C 147.851 1.86898 -3.2672 0
M  V30 1179 C 146.998 0.743942 -2.67134 0
M  V30 1180 H 149.949 -0.0434661 -1.5864 0
M  V30 1181 H 149.97 2.22817 -3.08436 0
M  V30 1182 H 149.482 0.566948 -3.83937 0
M  V30 1183 H 147.583 2.68738 -2.5809 0
M  V30 1184 H 147.696 2.02162 -4.34359 0
M  V30 1185 H 146.06 1.16169 -2.26665 0
M  V30 1186 H 146.843 -0.035676 -3.43281 0
M  V30 1187 N 149.288 1.51039 0.449983 0
M  V30 1188 C 150.565 1.53612 1.21089 0
M  V30 1189 C 150.945 0.292997 2.09057 0
M  V30 1190 O 150.293 -0.72259 2.16774 0
M  V30 1191 C 150.503 2.84337 2.0237 0
M  V30 1192 C 151.851 3.35807 2.59843 0
M  V30 1193 O 152.875 2.85802 2.12593 0
M  V30 1194 O 151.734 4.23029 3.45989 0
M  V30 1195 H 148.828 0.617057 0.550608 0
M  V30 1196 H 151.374 1.63344 0.460082 0
M  V30 1197 H 150.146 3.66278 1.37681 0
M  V30 1198 H 149.769 2.77708 2.84542 0
M  V30 1199 N 150.766 -0.704594 1.40972 0
M  V30 1200 C 152.013 -1.46458 1.39844 0
M  V30 1201 C 152.341 -1.94499 0.00447594 0
M  V30 1202 O 151.596 -1.69275 -0.982057 0
M  V30 1203 C 151.895 -2.698 2.34399 0
M  V30 1204 C 151.561 -2.40464 3.81429 0
M  V30 1205 C 150.223 -2.32174 4.21484 0
M  V30 1206 C 152.575 -2.16086 4.74296 0
M  V30 1207 C 149.903 -1.97589 5.52427 0
M  V30 1208 C 152.255 -1.83011 6.05549 0
M  V30 1209 C 150.919 -1.7321 6.44635 0
M  V30 1210 H 150.189 -0.535927 0.511725 0
M  V30 1211 H 152.836 -0.806124 1.73706 0
M  V30 1212 H 151.141 -3.40536 1.93759 0
M  V30 1213 H 152.838 -3.27919 2.30804 0
M  V30 1214 H 149.428 -2.47808 3.49699 0
M  V30 1215 H 153.612 -2.2144 4.4416 0
M  V30 1216 H 148.868 -1.88547 5.81601 0
M  V30 1217 H 153.042 -1.63164 6.77016 0
M  V30 1218 H 150.669 -1.46179 7.46013 0
M  V30 1219 N 152.244 -1.26651 -0.937939 0
M  V30 1220 C 153.492 -1.12165 -1.68118 0
M  V30 1221 C 153.813 0.334983 -1.92101 0
M  V30 1222 O 153.083 1.23583 -1.52 0
M  V30 1223 H 151.663 -0.412093 -0.623048 0
M  V30 1224 H 154.325 -1.59027 -1.12678 0
M  V30 1225 H 153.421 -1.64289 -2.6536 0
M  V30 1226 N 153.722 1.14298 -1.08507 0
M  V30 1227 C 154.969 1.85359 -0.815373 0
M  V30 1228 C 155.297 1.83001 0.658865 0
M  V30 1229 O 154.552 1.25655 1.50031 0
M  V30 1230 C 154.851 3.33547 -1.28379 0
M  V30 1231 C 154.517 3.56093 -2.76602 0
M  V30 1232 C 153.179 3.61955 -3.17084 0
M  V30 1233 C 155.531 3.64834 -3.72217 0
M  V30 1234 C 152.859 3.74082 -4.51973 0
M  V30 1235 C 155.211 3.78487 -5.06883 0
M  V30 1236 C 153.875 3.82598 -5.46969 0
M  V30 1237 H 153.145 0.678276 -0.298366 0
M  V30 1238 H 155.792 1.35002 -1.35819 0
M  V30 1239 H 154.097 3.86191 -0.660593 0
M  V30 1240 H 155.794 3.86959 -1.05186 0
M  V30 1241 H 152.384 3.52179 -2.4427 0
M  V30 1242 H 156.568 3.59595 -3.42061 0
M  V30 1243 H 151.824 3.75527 -4.82483 0
M  V30 1244 H 155.998 3.84193 -5.80834 0
M  V30 1245 H 153.625 3.91747 -6.51489 0
M  V30 1246 N 155.201 0.870884 1.31352 0
M  V30 1247 C 156.449 0.48132 1.96285 0
M  V30 1248 C 156.77 -0.969813 1.69173 0
M  V30 1249 O 156.04 -1.67998 1.00764 0
M  V30 1250 H 154.62 0.175002 0.726212 0
M  V30 1251 H 157.282 1.11087 1.60143 0
M  V30 1252 H 156.378 0.639825 3.05471 0
M  V30 1253 N 156.679 -1.44442 0.630414 0
M  V30 1254 C 157.927 -2.01653 0.134351 0
M  V30 1255 C 158.248 -1.49836 -1.24796 0
M  V30 1256 O 157.518 -0.701684 -1.82902 0
M  V30 1257 H 156.098 -0.74554 0.0466769 0
M  V30 1258 H 158.76 -1.76952 0.816955 0
M  V30 1259 H 157.856 -3.11935 0.101498 0
M  V30 1260 N 158.157 -0.370918 -1.53173 0
M  V30 1261 C 159.089 0.507823 -2.23503 0
M  V30 1262 C 160.102 1.04182 -1.251 0
M  V30 1263 O 161.291 0.947286 -1.5129 0
M  V30 1264 C 158.391 1.71447 -2.92334 0
M  V30 1265 C 157.564 1.31105 -4.17289 0
M  V30 1266 C 156.623 2.38035 -4.69282 0
M  V30 1267 O 155.649 2.00204 -5.32829 0
M  V30 1268 N 156.851 3.69697 -4.47554 0
M  V30 1269 H 159.616 -0.0946382 -2.99551 0
M  V30 1270 H 157.177 -0.196358 -1.60705 0
M  V30 1271 H 159.169 2.42469 -3.24023 0
M  V30 1272 H 157.739 2.22368 -2.19707 0
M  V30 1273 H 156.959 0.430462 -3.91843 0
M  V30 1274 H 158.247 1.0179 -4.98514 0
M  V30 1275 H 157.645 4.03205 -3.9679 0
M  V30 1276 H 156.202 4.36807 -4.8378 0
M  V30 1277 N 159.635 1.57281 -0.100228 0
M  V30 1278 C 160.582 2.14305 0.856858 0
M  V30 1279 C 161.552 1.06296 1.27634 0
M  V30 1280 O 162.737 1.34109 1.35718 0
M  V30 1281 C 159.877 2.73184 2.10866 0
M  V30 1282 C 158.99 3.95442 1.73925 0
M  V30 1283 C 158.125 4.42468 2.93931 0
M  V30 1284 C 157.164 5.57303 2.5314 0
M  V30 1285 N 156.301 5.99158 3.65997 0
M  V30 1286 H 161.141 2.95772 0.363726 0
M  V30 1287 H 158.678 1.46139 0.167858 0
M  V30 1288 H 160.636 3.05442 2.84185 0
M  V30 1289 H 159.266 1.94437 2.57671 0
M  V30 1290 H 158.318 3.69464 0.905554 0
M  V30 1291 H 159.63 4.78769 1.39935 0
M  V30 1292 H 158.784 4.76537 3.75496 0
M  V30 1293 H 157.523 3.58052 3.31134 0
M  V30 1294 H 156.528 5.22857 1.70003 0
M  V30 1295 H 157.753 6.43471 2.17075 0
M  V30 1296 H 155.699 5.17687 4.02909 0
M  V30 1297 H 155.616 6.77295 3.35869 0
M  V30 1298 H 156.884 6.3786 4.48057 0
M  V30 1299 N 161.113 -0.173488 1.56642 0
M  V30 1300 C 162.529 -0.525174 1.50712 0
M  V30 1301 C 162.729 -1.8476 0.804107 0
M  V30 1302 O 161.785 -2.49869 0.363574 0
M  V30 1303 C 163.098 -0.559937 2.95441 0
M  V30 1304 C 164.646 -0.647288 3.06234 0
M  V30 1305 C 165.121 -0.712963 4.52417 0
M  V30 1306 N 166.612 -0.775911 4.56655 0
M  V30 1307 C 167.347 -0.847264 5.67106 0
M  V30 1308 N 166.843 -0.879585 6.87194 0
M  V30 1309 N 168.636 -0.886117 5.55071 0
M  V30 1310 H 160.787 0.693681 2.00753 0
M  V30 1311 H 163.05 0.249841 0.914485 0
M  V30 1312 H 162.756 0.343049 3.50023 0
M  V30 1313 H 162.63 -1.40718 3.49969 0
M  V30 1314 H 165.017 -1.5407 2.51687 0
M  V30 1315 H 165.098 0.226586 2.54794 0
M  V30 1316 H 164.742 0.176183 5.07594 0
M  V30 1317 H 164.672 -1.60295 5.0161 0
M  V30 1318 H 167.163 -0.759304 3.70193 0
M  V30 1319 H 167.476 -0.935144 7.67121 0
M  V30 1320 H 165.821 -0.847898 6.89808 0
M  V30 1321 H 169.012 -0.857853 4.60172 0
M  V30 1322 H 169.185 -0.938263 6.41171 0
M  V30 1323 N 162.591 -1.51276 -0.441967 0
M  V30 1324 C 163.523 -1.68444 -1.55433 0
M  V30 1325 C 164.536 -0.565187 -1.52674 0
M  V30 1326 O 165.725 -0.839356 -1.57534 0
M  V30 1327 C 162.825 -1.67966 -2.94348 0
M  V30 1328 C 161.998 -2.964 -3.21661 0
M  V30 1329 C 161.057 -2.88171 -4.40277 0
M  V30 1330 O 160.083 -3.62119 -4.39157 0
M  V30 1331 N 161.285 -2.03706 -5.43584 0
M  V30 1332 H 164.05 -2.644 -1.41112 0
M  V30 1333 H 161.611 -1.49104 -0.630838 0
M  V30 1334 H 163.603 -1.60035 -3.71713 0
M  V30 1335 H 162.173 -0.796225 -3.0229 0
M  V30 1336 H 161.393 -3.18234 -2.32638 0
M  V30 1337 H 162.681 -3.81427 -3.36736 0
M  V30 1338 H 162.079 -1.42995 -5.47329 0
M  V30 1339 H 160.636 -2.01658 -6.1982 0
M  V30 1340 N 164.069 0.697108 -1.41344 0
M  V30 1341 C 164.999 1.82353 -1.45841 0
M  V30 1342 C 165.98 1.67115 -0.317247 0
M  V30 1343 O 167.165 1.86871 -0.528474 0
M  V30 1344 C 164.295 3.20476 -1.33838 0
M  V30 1345 C 163.249 3.50415 -2.4575 0
M  V30 1346 C 162.575 4.87878 -2.18813 0
M  V30 1347 C 163.875 3.49546 -3.88091 0
M  V30 1348 H 165.569 1.78846 -2.40113 0
M  V30 1349 H 163.115 0.859028 -1.15571 0
M  V30 1350 H 165.068 3.98988 -1.35596 0
M  V30 1351 H 163.792 3.24604 -0.360498 0
M  V30 1352 H 162.451 2.74253 -2.43271 0
M  V30 1353 H 162.099 4.8863 -1.19371 0
M  V30 1354 H 161.799 5.08875 -2.93803 0
M  V30 1355 H 163.323 5.68702 -2.22284 0
M  V30 1356 H 164.737 4.18066 -3.92293 0
M  V30 1357 H 163.134 3.82075 -4.62751 0
M  V30 1358 H 164.204 2.48552 -4.16353 0
M  V30 1359 N 165.547 1.27147 0.931209 0
M  V30 1360 C 166.457 1.11372 2.06478 0
M  V30 1361 C 167.473 0.044645 1.73943 0
M  V30 1362 O 168.649 0.250417 1.99837 0
M  V30 1363 C 165.714 0.758838 3.38294 0
M  V30 1364 C 164.775 1.90841 3.84549 0
M  V30 1365 C 164.008 1.57036 5.10074 0
M  V30 1366 O 164.231 0.476645 5.68405 0
M  V30 1367 O 163.165 2.40839 5.51616 0
M  V30 1368 H 166.991 2.06493 2.22698 0
M  V30 1369 H 164.576 1.06301 1.04978 0
M  V30 1370 H 166.458 0.574098 4.17471 0
M  V30 1371 H 165.133 -0.162879 3.2329 0
M  V30 1372 H 164.04 2.14819 3.06274 0
M  V30 1373 H 165.373 2.81021 4.04089 0
M  V30 1374 N 167.025 -1.13721 1.09112 0
M  V30 1375 C 168.302 -1.81155 0.737706 0
M  V30 1376 C 168.682 -1.96253 -0.777683 0
M  V30 1377 O 168.03 -1.52807 -1.69889 0
M  V30 1378 C 168.24 -3.16392 1.47299 0
M  V30 1379 C 169.588 -3.91787 1.63671 0
M  V30 1380 O 170.612 -3.26005 1.43524 0
M  V30 1381 O 169.471 -5.0977 1.96969 0
M  V30 1382 H 166.565 -0.783518 0.26463 0
M  V30 1383 H 169.111 -1.20676 1.19312 0
M  V30 1384 H 167.883 -3.0061 2.50498 0
M  V30 1385 H 167.506 -3.8457 1.00953 0
M  V30 1386 N 168.503 -0.877838 -1.30888 0
M  V30 1387 C 169.751 -0.491723 -1.96027 0
M  V30 1388 C 170.072 0.960827 -1.69685 0
M  V30 1389 O 169.342 1.67462 -1.01654 0
M  V30 1390 H 167.922 -0.17885 -0.725273 0
M  V30 1391 H 170.584 -1.11935 -1.59551 0
M  V30 1392 H 169.68 -0.656016 -3.05128 0
M  V30 1393 N 169.982 1.44106 -0.638065 0
M  V30 1394 C 171.259 1.95453 -0.0759321 0
M  V30 1395 C 171.639 1.57984 1.40015 0
M  V30 1396 O 170.987 0.857361 2.11806 0
M  V30 1397 C 171.197 3.47655 -0.306132 0
M  V30 1398 C 172.545 4.24114 -0.203008 0
M  V30 1399 O 173.569 3.55405 -0.237871 0
M  V30 1400 O 172.428 5.46381 -0.113827 0
M  V30 1401 H 169.522 0.826797 0.0183332 0
M  V30 1402 H 172.068 1.54122 -0.710251 0
M  V30 1403 H 170.84 3.68 -1.3301 0
M  V30 1404 H 170.463 3.95949 0.361991 0
M  V30 1405 N 171.46 0.379036 1.52974 0
M  V30 1406 C 172.392 -0.495963 2.2377 0
M  V30 1407 C 173.405 -1.03517 1.25651 0
M  V30 1408 O 174.594 -0.939249 1.51791 0
M  V30 1409 C 171.694 -1.69894 2.93239 0
M  V30 1410 C 170.867 -1.2889 4.17979 0
M  V30 1411 C 169.926 -2.35543 4.70538 0
M  V30 1412 O 168.952 -1.97375 5.33883 0
M  V30 1413 N 170.154 -3.67318 4.49508 0
M  V30 1414 H 172.919 0.110523 2.99496 0
M  V30 1415 H 170.48 0.204878 1.60598 0
M  V30 1416 H 172.472 -2.40747 3.25304 0
M  V30 1417 H 171.042 -2.212 2.20883 0
M  V30 1418 H 170.262 -0.409676 3.92065 0
M  V30 1419 H 171.55 -0.991443 4.99047 0
M  V30 1420 H 170.948 -4.01095 3.98923 0
M  V30 1421 H 169.505 -4.34235 4.8609 0
M  V30 1422 N 172.938 -1.57226 0.108567 0
M  V30 1423 C 174.349 -1.8195 -0.418464 0
M  V30 1424 C 174.7 -1.02508 -1.67292 0
M  V30 1425 O 173.825 -0.258496 -2.14851 0
M  V30 1426 C 174.42 -3.30028 -0.765979 0
M  V30 1427 C 172.979 -3.55469 -1.23769 0
M  V30 1428 C 172.126 -2.7625 -0.241106 0
M  V30 1429 H 175.077 -1.55149 0.33384 0
M  V30 1430 H 175.098 -3.44086 -1.62434 0
M  V30 1431 H 174.61 -3.87821 0.147219 0
M  V30 1432 H 172.711 -3.03022 -2.16814 0
M  V30 1433 H 172.824 -4.6408 -1.19022 0
M  V30 1434 H 171.188 -2.44133 -0.72602 0
M  V30 1435 H 171.971 -3.36797 0.665007 0
M  V30 1436 N 174.416 0.165178 -1.56732 0
M  V30 1437 C 175.326 1.22423 -2.00125 0
M  V30 1438 C 176.342 1.48084 -0.913619 0
M  V30 1439 O 177.518 1.60112 -1.22172 0
M  V30 1440 C 174.583 2.54197 -2.35764 0
M  V30 1441 C 173.644 2.36343 -3.58386 0
M  V30 1442 C 172.877 3.61834 -3.92316 0
M  V30 1443 O 173.1 4.67267 -3.27135 0
M  V30 1444 O 172.034 3.55579 -4.85641 0
M  V30 1445 H 175.86 0.885886 -2.90492 0
M  V30 1446 H 173.445 0.372518 -1.44681 0
M  V30 1447 H 175.327 3.3192 -2.59629 0
M  V30 1448 H 174.002 2.87598 -1.48557 0
M  V30 1449 H 172.909 1.56632 -3.39731 0
M  V30 1450 H 174.242 2.07865 -4.46154 0
M  V30 1451 N 175.894 1.51508 0.433938 0
M  V30 1452 C 177.119 1.68443 1.21003 0
M  V30 1453 C 177.544 0.382636 1.84167 0
M  V30 1454 O 176.902 -0.65755 1.68956 0
M  V30 1455 C 176.95 2.80405 2.26727 0
M  V30 1456 O 176.054 2.44245 3.32292 0
M  V30 1457 H 175.395 0.561536 0.354363 0
M  V30 1458 H 177.925 1.9809 0.512024 0
M  V30 1459 H 177.935 3.0459 2.71457 0
M  V30 1460 H 176.61 3.74867 1.80132 0
M  V30 1461 H 175.187 2.30644 2.93015 0
M  V30 1462 N 177.372 -0.689602 1.41712 0
M  V30 1463 C 178.319 -1.80345 1.44029 0
M  V30 1464 C 179.289 -1.63478 0.293948 0
M  V30 1465 O 180.474 -1.84244 0.495869 0
M  V30 1466 C 177.614 -3.18272 1.33405 0
M  V30 1467 C 176.727 -3.46529 2.57956 0
M  V30 1468 C 175.862 -4.74103 2.39582 0
M  V30 1469 C 174.901 -4.95347 3.5958 0
M  V30 1470 N 174.038 -6.14151 3.40239 0
M  V30 1471 H 178.878 -1.77698 2.39222 0
M  V30 1472 H 176.415 -0.867688 1.18784 0
M  V30 1473 H 178.373 -3.97956 1.25246 0
M  V30 1474 H 177.003 -3.2008 0.418164 0
M  V30 1475 H 176.055 -2.61207 2.76542 0
M  V30 1476 H 177.367 -3.58126 3.47199 0
M  V30 1477 H 176.521 -5.61853 2.28924 0
M  V30 1478 H 175.26 -4.64763 1.47805 0
M  V30 1479 H 174.265 -4.06044 3.70686 0
M  V30 1480 H 175.49 -5.06542 4.52318 0
M  V30 1481 H 173.436 -6.06013 2.51167 0
M  V30 1482 H 173.353 -6.26543 4.23061 0
M  V30 1483 H 174.621 -7.04619 3.33365 0
M  V30 1484 N 178.85 -1.27639 -0.924453 0
M  V30 1485 C 179.797 -1.10644 -2.0255 0
M  V30 1486 C 180.767 -0.00658438 -1.66099 0
M  V30 1487 O 181.952 -0.16952 -1.90045 0
M  V30 1488 C 179.092 -0.76309 -3.36557 0
M  V30 1489 C 178.205 -1.94091 -3.85944 0
M  V30 1490 C 177.34 -1.53914 -5.08413 0
M  V30 1491 C 176.379 -2.68425 -5.50104 0
M  V30 1492 N 175.516 -2.28815 -6.63768 0
M  V30 1493 H 180.356 -2.04858 -2.16419 0
M  V30 1494 H 177.893 -1.01974 -1.06017 0
M  V30 1495 H 179.851 -0.544822 -4.13627 0
M  V30 1496 H 178.481 0.142102 -3.22487 0
M  V30 1497 H 177.533 -2.27162 -3.05125 0
M  V30 1498 H 178.845 -2.7998 -4.12811 0
M  V30 1499 H 177.999 -1.28231 -5.92994 0
M  V30 1500 H 176.738 -0.651391 -4.8333 0
M  V30 1501 H 175.743 -2.94819 -4.64071 0
M  V30 1502 H 176.968 -3.57826 -5.7718 0
M  V30 1503 H 174.914 -1.42495 -6.40337 0
M  V30 1504 H 174.831 -3.08242 -6.90306 0
M  V30 1505 H 176.099 -2.06387 -7.51681 0
M  V30 1506 N 180.328 1.1314 -1.09713 0
M  V30 1507 C 181.258 2.20748 -0.761102 0
M  V30 1508 C 182.239 1.68061 0.262566 0
M  V30 1509 O 183.424 1.93765 0.129977 0
M  V30 1510 C 180.554 3.46812 -0.184054 0
M  V30 1511 C 179.508 4.12606 -1.13757 0
M  V30 1512 C 178.834 5.33031 -0.422083 0
M  V30 1513 C 180.134 4.59603 -2.48118 0
M  V30 1514 H 181.828 2.49113 -1.66082 0
M  V30 1515 H 179.374 1.19734 -0.799987 0
M  V30 1516 H 181.327 4.21353 0.0631215 0
M  V30 1517 H 180.051 3.17851 0.750868 0
M  V30 1518 H 178.71 3.40036 -1.37007 0
M  V30 1519 H 178.358 5.00335 0.517072 0
M  V30 1520 H 178.058 5.77999 -1.05788 0
M  V30 1521 H 179.582 6.10325 -0.183277 0
M  V30 1522 H 180.996 5.25552 -2.29059 0
M  V30 1523 H 179.393 5.15321 -3.07514 0
M  V30 1524 H 180.463 3.73971 -3.08665 0
M  V30 1525 N 181.806 0.884767 1.30421 0
M  V30 1526 C 182.769 0.356277 2.26414 0
M  V30 1527 C 183.769 -0.501124 1.52792 0
M  V30 1528 O 184.959 -0.30831 1.7145 0
M  V30 1529 C 182.091 -0.492316 3.37326 0
M  V30 1530 H 183.284 1.20389 2.74675 0
M  V30 1531 H 180.837 0.661607 1.41607 0
M  V30 1532 H 181.572 -1.36052 2.94381 0
M  V30 1533 H 181.357 0.121832 3.91911 0
M  V30 1534 H 182.847 -0.853871 4.08777 0
M  V30 1535 N 183.284 -1.43765 0.645699 0
M  V30 1536 C 184.509 -2.06767 0.161883 0
M  V30 1537 C 184.934 -1.48034 -1.16049 0
M  V30 1538 O 184.292 -0.587369 -1.71522 0
M  V30 1539 C 184.34 -3.60519 0.0762003 0
M  V30 1540 O 183.444 -4.00982 -0.963721 0
M  V30 1541 H 182.785 -0.657675 0.091429 0
M  V30 1542 H 185.315 -1.84397 0.886499 0
M  V30 1543 H 185.325 -4.07853 -0.109604 0
M  V30 1544 H 184 -4.02646 1.04157 0
M  V30 1545 H 182.577 -3.65253 -0.751312 0
M  V30 1546 N 184.763 -0.387143 -1.52771 0
M  V30 1547 C 185.695 0.484089 -2.2403 0
M  V30 1548 C 186.708 1.02849 -1.26198 0
M  V30 1549 O 187.897 0.931186 -1.52286 0
M  V30 1550 C 184.997 1.68337 -2.94136 0
M  V30 1551 C 184.17 1.26672 -4.18656 0
M  V30 1552 C 183.229 2.33045 -4.7178 0
M  V30 1553 O 182.255 1.94541 -5.34923 0
M  V30 1554 N 183.457 3.64929 -4.5145 0
M  V30 1555 H 186.222 -0.126404 -2.99433 0
M  V30 1556 H 183.783 -0.213392 -1.60488 0
M  V30 1557 H 185.775 2.39019 -3.26577 0
M  V30 1558 H 184.345 2.20025 -2.22053 0
M  V30 1559 H 183.565 0.388878 -3.92277 0
M  V30 1560 H 184.853 0.964964 -4.99566 0
M  V30 1561 H 184.251 3.98974 -4.01044 0
M  V30 1562 H 182.808 4.31651 -4.88386 0
M  V30 1563 N 186.241 1.57166 -0.116904 0
M  V30 1564 C 187.489 1.94737 0.540533 0
M  V30 1565 C 187.81 1.00096 1.67349 0
M  V30 1566 O 187.08 0.0568854 1.95817 0
M  V30 1567 H 185.66 0.718981 0.202669 0
M  V30 1568 H 188.322 1.94017 -0.185353 0
M  V30 1569 H 187.418 2.97719 0.936483 0
M  V30 1570 N 187.719 -0.156864 1.56817 0
M  V30 1571 C 188.996 -0.899244 1.73704 0
M  V30 1572 C 189.376 -1.99771 0.682254 0
M  V30 1573 O 188.724 -2.26515 -0.300522 0
M  V30 1574 C 188.934 -1.45075 3.17418 0
M  V30 1575 C 190.282 -1.91802 3.7881 0
M  V30 1576 O 191.306 -1.54838 3.20786 0
M  V30 1577 O 190.165 -2.5994 4.80722 0
M  V30 1578 H 187.259 -0.424267 0.709878 0
M  V30 1579 H 189.805 -0.143561 1.69092 0
M  V30 1580 H 188.577 -0.660846 3.85679 0
M  V30 1581 H 188.2 -2.27021 3.26416 0
M  V30 1582 N 189.197 -1.51736 -0.425897 0
M  V30 1583 C 190.422 -1.69082 -1.20108 0
M  V30 1584 C 190.847 -0.392398 -1.83962 0
M  V30 1585 O 190.205 0.64858 -1.69302 0
M  V30 1586 C 190.253 -2.81604 -2.25237 0
M  V30 1587 O 189.357 -2.46004 -3.30992 0
M  V30 1588 H 188.698 -0.563408 -0.35138 0
M  V30 1589 H 191.228 -1.98358 -0.501512 0
M  V30 1590 H 191.238 -3.06025 -2.69838 0
M  V30 1591 H 189.913 -3.75817 -1.78142 0
M  V30 1592 H 188.49 -2.32195 -2.91787 0
M  V30 1593 N 190.675 0.682077 -1.42076 0
M  V30 1594 C 191.924 1.43786 -1.41451 0
M  V30 1595 C 192.237 1.95574 -0.0317074 0
M  V30 1596 O 193.443 2.71326 0.0971462 0
M  V30 1597 C 191.899 2.60071 -2.48779 0
M  V30 1598 C 191.507 2.15013 -3.93031 0
M  V30 1599 C 193.251 3.37626 -2.57311 0
M  V30 1600 C 191.158 3.28336 -4.91883 0
M  V30 1601 H 190.088 0.540143 -0.526082 0
M  V30 1602 H 192.739 0.739157 -1.67955 0
M  V30 1603 H 191.121 3.32275 -2.15429 0
M  V30 1604 H 192.295 1.5001 -4.35699 0
M  V30 1605 H 190.61 1.50416 -3.88284 0
M  V30 1606 H 193.207 4.22012 -3.28345 0
M  V30 1607 H 193.55 3.83727 -1.61429 0
M  V30 1608 H 194.083 2.72488 -2.89819 0
M  V30 1609 H 190.822 2.87234 -5.89217 0
M  V30 1610 H 190.342 3.92145 -4.53853 0
M  V30 1611 H 192.021 3.93913 -5.13265 0
M  V30 1612 N 192.153 1.28127 0.917671 0
M  V30 1613 C 193.378 1.18007 1.70555 0
M  V30 1614 C 193.803 -0.258257 1.86319 0
M  V30 1615 O 193.161 -1.1869 1.37049 0
M  V30 1616 C 193.209 1.87948 3.07746 0
M  V30 1617 O 192.313 1.18427 3.9503 0
M  V30 1618 H 191.654 0.409867 0.522403 0
M  V30 1619 H 194.184 1.69379 1.1477 0
M  V30 1620 H 194.194 1.95701 3.58001 0
M  V30 1621 H 192.869 2.92573 2.95591 0
M  V30 1622 H 191.446 1.18811 3.53466 0
M  V30 1623 N 193.631 -1.12557 1.10312 0
M  V30 1624 C 194.856 -1.88405 0.867085 0
M  V30 1625 C 195.281 -1.79038 -0.576817 0
M  V30 1626 O 194.639 -1.14439 -1.40618 0
M  V30 1627 C 194.687 -3.3563 1.31851 0
M  V30 1628 O 193.791 -4.09565 0.482734 0
M  V30 1629 H 193.132 -0.585455 0.313271 0
M  V30 1630 H 195.662 -1.42352 1.4696 0
M  V30 1631 H 195.672 -3.86469 1.3079 0
M  V30 1632 H 194.347 -3.41765 2.37001 0
M  V30 1633 H 192.924 -3.68695 0.558448 0
M  V30 1634 N 195.109 -0.891671 -1.2995 0
M  V30 1635 C 196.041 -0.320695 -2.26945 0
M  V30 1636 C 197.054 0.528497 -1.53983 0
M  V30 1637 O 198.243 0.346959 -1.75096 0
M  V30 1638 C 195.343 0.562066 -3.34207 0
M  V30 1639 C 194.516 -0.259576 -4.36629 0
M  V30 1640 C 193.575 0.554739 -5.23268 0
M  V30 1641 O 192.601 -0.0249311 -5.69195 0
M  V30 1642 N 193.803 1.8625 -5.4981 0
M  V30 1643 H 196.568 -1.15432 -2.76578 0
M  V30 1644 H 194.129 -0.755336 -1.432 0
M  V30 1645 H 196.121 1.11304 -3.89093 0
M  V30 1646 H 194.691 1.29637 -2.84452 0
M  V30 1647 H 193.911 -0.991986 -3.81514 0
M  V30 1648 H 195.199 -0.822564 -5.02107 0
M  V30 1649 H 194.597 2.35628 -5.14292 0
M  V30 1650 H 193.154 2.36078 -6.07545 0
M  V30 1651 N 196.587 1.43421 -0.653314 0
M  V30 1652 C 197.517 2.33487 0.0246656 0
M  V30 1653 C 198.498 1.49475 0.811863 0
M  V30 1654 O 199.683 1.78139 0.773322 0
M  V30 1655 C 196.813 3.32841 0.99166 0
M  V30 1656 C 195.767 4.26842 0.314568 0
M  V30 1657 C 195.093 5.16236 1.39302 0
M  V30 1658 C 196.393 5.16243 -0.793095 0
M  V30 1659 H 198.087 2.90427 -0.727481 0
M  V30 1660 H 195.633 1.39649 -0.351287 0
M  V30 1661 H 197.586 3.94747 1.47487 0
M  V30 1662 H 196.31 2.74158 1.77497 0
M  V30 1663 H 194.969 3.663 -0.148199 0
M  V30 1664 H 194.617 4.53891 2.16776 0
M  V30 1665 H 194.317 5.79948 0.945223 0
M  V30 1666 H 195.841 5.81015 1.87759 0
M  V30 1667 H 197.255 5.71958 -0.392039 0
M  V30 1668 H 195.652 5.88676 -1.16536 0
M  V30 1669 H 196.722 4.55927 -1.65103 0
M  V30 1670 N 198.065 0.39524 1.52563 0
M  V30 1671 C 199.313 -0.184678 2.01254 0
M  V30 1672 C 199.634 -1.46822 1.28329 0
M  V30 1673 O 198.904 -1.91666 0.405094 0
M  V30 1674 H 197.484 -0.0712355 0.743596 0
M  V30 1675 H 200.146 0.528293 1.87603 0
M  V30 1676 H 199.242 -0.390681 3.09645 0
M  V30 1677 N 199.544 -1.57102 0.125237 0
M  V30 1678 C 200.955 -1.82384 -0.399142 0
M  V30 1679 C 201.306 -1.04276 -1.66195 0
M  V30 1680 O 200.431 -0.281269 -2.14564 0
M  V30 1681 C 201.026 -3.30821 -0.730932 0
M  V30 1682 C 199.585 -3.56762 -1.19992 0
M  V30 1683 C 198.732 -2.7649 -0.211792 0
M  V30 1684 H 201.683 -1.54786 0.350277 0
M  V30 1685 H 201.704 -3.4579 -1.58775 0
M  V30 1686 H 201.216 -3.87643 0.188345 0
M  V30 1687 H 199.317 -3.05305 -2.13588 0
M  V30 1688 H 199.43 -4.65317 -1.14093 0
M  V30 1689 H 197.794 -2.4489 -0.700085 0
M  V30 1690 H 198.577 -3.36073 0.700691 0
M  V30 1691 N 201.022 0.148545 -1.56898 0
M  V30 1692 C 202.271 0.85984 -1.82454 0
M  V30 1693 C 202.584 1.82406 -0.706229 0
M  V30 1694 O 203.79 2.57938 -0.847349 0
M  V30 1695 C 202.246 1.57967 -3.2338 0
M  V30 1696 C 201.854 0.65794 -4.43142 0
M  V30 1697 C 203.598 2.27784 -3.58211 0
M  V30 1698 C 201.505 1.3793 -5.75091 0
M  V30 1699 H 200.435 0.324834 -0.68044 0
M  V30 1700 H 203.086 0.112588 -1.83154 0
M  V30 1701 H 201.468 2.37249 -3.17063 0
M  V30 1702 H 202.642 -0.0995497 -4.60692 0
M  V30 1703 H 200.957 0.0682643 -4.16344 0
M  V30 1704 H 203.554 2.8239 -4.54048 0
M  V30 1705 H 203.897 3.04204 -2.84193 0
M  V30 1706 H 204.43 1.55421 -3.66182 0
M  V30 1707 H 201.169 0.656982 -6.52199 0
M  V30 1708 H 200.689 2.10954 -5.61479 0
M  V30 1709 H 202.368 1.92063 -6.17835 0
M  V30 1710 N 202.5 1.5196 0.417844 0
M  V30 1711 C 203.45 1.7106 1.5074 0
M  V30 1712 C 204.434 0.564487 1.50673 0
M  V30 1713 O 205.626 0.821206 1.56797 0
M  V30 1714 C 202.755 1.85677 2.88754 0
M  V30 1715 C 201.841 3.06133 2.93502 0
M  V30 1716 N 202.232 4.28987 2.67962 0
M  V30 1717 C 200.53 3.05787 3.24669 0
M  V30 1718 C 201.231 5.10395 2.79055 0
M  V30 1719 N 200.207 4.45455 3.11561 0
M  V30 1720 H 204.009 2.63696 1.29775 0
M  V30 1721 H 201.523 1.49873 0.625436 0
M  V30 1722 H 203.52 1.97475 3.67164 0
M  V30 1723 H 202.18 0.942348 3.10725 0
M  V30 1724 H 203.191 4.57607 2.4252 0
M  V30 1725 H 199.868 2.2405 3.52289 0
M  V30 1726 H 201.258 6.18247 2.63097 0
M  V30 1727 N 203.978 -0.674533 1.42435 0
M  V30 1728 C 205.389 -1.25514 1.38214 0
M  V30 1729 C 205.74 -1.96055 0.0755464 0
M  V30 1730 O 204.865 -2.00028 -0.8257 0
M  V30 1731 C 205.46 -2.28269 2.50357 0
M  V30 1732 C 204.019 -2.81856 2.49467 0
M  V30 1733 C 203.166 -1.56182 2.29134 0
M  V30 1734 H 206.117 -0.467902 1.51646 0
M  V30 1735 H 206.138 -3.10009 2.20624 0
M  V30 1736 H 205.65 -1.769 3.45439 0
M  V30 1737 H 203.751 -3.37346 1.58204 0
M  V30 1738 H 203.864 -3.30854 3.46515 0
M  V30 1739 H 202.228 -1.82761 1.774 0
M  V30 1740 H 203.011 -1.06778 3.26272 0
M  V30 1741 N 205.456 -1.28612 -0.910864 0
M  V30 1742 C 206.867 -1.14406 -1.47541 0
M  V30 1743 C 207.218 0.264901 -1.94403 0
M  V30 1744 O 206.343 1.15942 -1.82719 0
M  V30 1745 C 206.938 -2.07073 -2.68153 0
M  V30 1746 C 205.497 -1.96923 -3.20778 0
M  V30 1747 C 204.644 -1.98646 -1.93481 0
M  V30 1748 H 207.595 -1.41259 -0.723291 0
M  V30 1749 H 207.616 -1.63642 -3.43514 0
M  V30 1750 H 207.128 -3.09611 -2.34015 0
M  V30 1751 H 205.229 -0.97433 -3.59635 0
M  V30 1752 H 205.342 -2.84026 -3.85832 0
M  V30 1753 H 203.706 -1.43093 -2.10705 0
M  V30 1754 H 204.489 -3.02868 -1.61634 0
M  V30 1755 N 206.934 1.1197 -1.10907 0
M  V30 1756 C 208.345 1.65114 -0.871446 0
M  V30 1757 C 208.696 1.86885 0.597353 0
M  V30 1758 O 207.821 1.59896 1.45816 0
M  V30 1759 C 208.416 2.99944 -1.5754 0
M  V30 1760 C 206.975 3.50018 -1.38435 0
M  V30 1761 C 206.122 2.24941 -1.62164 0
M  V30 1762 H 209.073 0.956851 -1.2661 0
M  V30 1763 H 209.094 3.66651 -1.01721 0
M  V30 1764 H 208.606 2.84067 -2.64438 0
M  V30 1765 H 206.707 3.71071 -0.337214 0
M  V30 1766 H 206.82 4.29165 -2.12965 0
M  V30 1767 H 205.184 2.3229 -1.04467 0
M  V30 1768 H 205.967 2.11612 -2.70324 0
M  V30 1769 N 208.412 0.89855 1.29475 0
M  V30 1770 C 209.828 0.594483 1.48115 0
M  V30 1771 C 210.028 -0.86431 1.82022 0
M  V30 1772 O 209.084 -1.64457 1.91599 0
M  V30 1773 C 210.397 1.51932 2.59494 0
M  V30 1774 C 211.945 1.5244 2.7337 0
M  V30 1775 C 212.42 2.43548 3.87877 0
M  V30 1776 N 213.911 2.41589 3.95208 0
M  V30 1777 C 214.646 3.08789 4.83153 0
M  V30 1778 N 214.142 3.85265 5.75798 0
M  V30 1779 N 215.935 2.97952 4.76635 0
M  V30 1780 H 208.086 1.84207 1.05742 0
M  V30 1781 H 210.349 0.789251 0.525154 0
M  V30 1782 H 210.055 2.55865 2.41301 0
M  V30 1783 H 209.929 1.23899 3.56271 0
M  V30 1784 H 212.316 0.492518 2.90961 0
M  V30 1785 H 212.397 1.8451 1.77172 0
M  V30 1786 H 212.041 3.46829 3.71041 0
M  V30 1787 H 211.971 2.08788 4.83441 0
M  V30 1788 H 214.462 1.86025 3.28943 0
M  V30 1789 H 214.775 4.33598 6.39697 0
M  V30 1790 H 213.12 3.89371 5.75687 0
M  V30 1791 H 216.311 2.37723 4.03244 0
M  V30 1792 H 216.484 3.50599 5.44962 0
M  V30 1793 N 209.89 -1.43072 0.660911 0
M  V30 1794 C 211.118 -2.06067 0.185422 0
M  V30 1795 C 211.533 -1.49582 -1.15198 0
M  V30 1796 O 210.89 -0.630134 -1.71276 0
M  V30 1797 C 210.941 -3.61371 0.0966523 0
M  V30 1798 O 210.662 -4.15758 1.38119 0
M  V30 1799 C 212.163 -4.41455 -0.403996 0
M  V30 1800 H 209.383 -0.664459 0.0934604 0
M  V30 1801 H 211.927 -1.83447 0.90373 0
M  V30 1802 H 210.082 -3.8315 -0.572259 0
M  V30 1803 H 210.496 -5.09499 1.24542 0
M  V30 1804 H 211.97 -5.50437 -0.415045 0
M  V30 1805 H 212.447 -4.15036 -1.43674 0
M  V30 1806 H 213.053 -4.24663 0.232691 0
M  V30 1807 N 211.368 -0.403325 -1.52352 0
M  V30 1808 C 212.593 0.176499 -2.06648 0
M  V30 1809 C 213.018 1.38577 -1.27193 0
M  V30 1810 O 212.376 1.7879 -0.300637 0
M  V30 1811 C 212.424 0.511061 -3.5696 0
M  V30 1812 O 211.528 1.60294 -3.79973 0
M  V30 1813 H 210.869 0.0167337 -0.663789 0
M  V30 1814 H 213.399 -0.574848 -1.96359 0
M  V30 1815 H 213.409 0.771362 -4.00642 0
M  V30 1816 H 212.084 -0.37296 -4.14224 0
M  V30 1817 H 210.661 1.33526 -3.48174 0
M  V30 1818 N 212.846 1.57033 -0.133567 0
M  V30 1819 C 213.779 2.11824 0.848872 0
M  V30 1820 C 214.757 1.03833 1.2513 0
M  V30 1821 O 215.941 1.31579 1.34978 0
M  V30 1822 C 213.068 2.62692 2.138 0
M  V30 1823 C 212.114 3.82705 1.88253 0
M  V30 1824 S 212.947 5.2438 1.08563 0
M  V30 1825 C 214.103 5.78627 2.38624 0
M  V30 1826 H 214.336 2.94824 0.38289 0
M  V30 1827 H 211.869 1.5419 0.0804796 0
M  V30 1828 H 213.827 2.92652 2.87863 0
M  V30 1829 H 212.488 1.79847 2.57515 0
M  V30 1830 H 211.681 4.16496 2.83809 0
M  V30 1831 H 211.283 3.53437 1.22305 0
M  V30 1832 H 213.575 5.8924 3.34369 0
M  V30 1833 H 214.518 6.76443 2.09358 0
M  V30 1834 H 214.926 5.06783 2.48658 0
M  V30 1835 N 214.325 -0.140222 1.56975 0
M  V30 1836 C 215.553 -0.866437 1.87884 0
M  V30 1837 C 215.968 -1.74428 0.722517 0
M  V30 1838 O 215.325 -1.79891 -0.30749 0
M  V30 1839 C 215.376 -1.71753 3.18093 0
M  V30 1840 O 215.097 -0.875056 4.29272 0
M  V30 1841 C 216.598 -2.55074 3.62563 0
M  V30 1842 H 213.818 -0.25019 0.622612 0
M  V30 1843 H 216.362 -0.130977 2.0408 0
M  V30 1844 H 214.517 -2.40598 3.03631 0
M  V30 1845 H 214.931 -1.46002 5.03769 0
M  V30 1846 H 216.405 -3.10356 4.5649 0
M  V30 1847 H 216.882 -3.31434 2.88181 0
M  V30 1848 H 217.488 -1.91509 3.79743 0
M  V30 1849 N 215.803 -1.52179 -0.40978 0
M  V30 1850 C 216.713 -1.78364 -1.52392 0
M  V30 1851 C 217.729 -0.669183 -1.60617 0
M  V30 1852 O 218.905 -0.954518 -1.77344 0
M  V30 1853 C 215.97 -1.92822 -2.88133 0
M  V30 1854 C 215.031 -3.16725 -2.898 0
M  V30 1855 C 214.264 -3.30483 -4.19067 0
M  V30 1856 O 214.487 -2.49522 -5.12928 0
M  V30 1857 O 213.421 -4.2363 -4.27576 0
M  V30 1858 H 217.247 -2.72931 -1.33201 0
M  V30 1859 H 214.832 -1.37016 -0.59557 0
M  V30 1860 H 216.714 -2.04157 -3.68643 0
M  V30 1861 H 215.389 -1.01444 -3.07393 0
M  V30 1862 H 214.296 -3.10848 -2.08146 0
M  V30 1863 H 215.629 -4.07881 -2.75489 0
M  V30 1864 N 217.281 0.66697 -1.42791 0
M  V30 1865 C 218.191 1.80962 -1.49299 0
M  V30 1866 C 219.207 1.69775 -0.381108 0
M  V30 1867 O 220.383 1.91188 -0.633188 0
M  V30 1868 C 217.448 3.17156 -1.40045 0
M  V30 1869 C 216.509 3.40242 -2.6179 0
M  V30 1870 C 215.742 4.69939 -2.52969 0
M  V30 1871 O 215.965 5.48372 -1.56985 0
M  V30 1872 O 214.899 4.94441 -3.43237 0
M  V30 1873 H 218.725 1.78427 -2.45759 0
M  V30 1874 H 216.31 0.823713 -1.24641 0
M  V30 1875 H 218.192 3.98413 -1.37276 0
M  V30 1876 H 216.867 3.20312 -0.467138 0
M  V30 1877 H 215.774 2.58802 -2.70134 0
M  V30 1878 H 217.107 3.41923 -3.54047 0
M  V30 1879 N 218.759 1.29093 0.90403 0
M  V30 1880 C 219.989 1.19516 1.68522 0
M  V30 1881 C 220.397 -0.24738 1.87576 0
M  V30 1882 O 219.74 -1.17798 1.40959 0
M  V30 1883 C 219.802 1.83249 3.0929 0
M  V30 1884 C 219.466 3.32531 3.13484 0
M  V30 1885 C 220.463 4.28821 2.93953 0
M  V30 1886 C 218.148 3.73656 3.35688 0
M  V30 1887 C 220.142 5.64212 2.96553 0
M  V30 1888 C 217.829 5.0917 3.37919 0
M  V30 1889 C 218.827 6.04258 3.18373 0
M  V30 1890 O 218.515 7.37298 3.20385 0
M  V30 1891 H 218.247 0.415467 0.533257 0
M  V30 1892 H 220.801 1.70912 1.13922 0
M  V30 1893 H 219.031 1.26358 3.65473 0
M  V30 1894 H 220.72 1.68054 3.69476 0
M  V30 1895 H 221.486 3.98382 2.76616 0
M  V30 1896 H 217.365 3.00101 3.49943 0
M  V30 1897 H 220.909 6.38407 2.81216 0
M  V30 1898 H 216.806 5.39256 3.54787 0
M  V30 1899 H 217.574 7.46048 3.36681 0
M  V30 1900 N 220.237 -1.11381 1.11499 0
M  V30 1901 C 221.653 -1.35143 0.849031 0
M  V30 1902 C 221.853 -1.94515 -0.525938 0
M  V30 1903 O 220.909 -2.1785 -1.27662 0
M  V30 1904 C 222.222 -2.28249 1.95762 0
M  V30 1905 C 223.77 -2.41812 1.98736 0
M  V30 1906 C 224.245 -3.3824 3.088 0
M  V30 1907 N 225.736 -3.45803 3.08179 0
M  V30 1908 C 226.471 -4.20358 3.89982 0
M  V30 1909 N 225.967 -4.97884 4.8175 0
M  V30 1910 N 227.76 -4.15877 3.78157 0
M  V30 1911 H 219.911 -0.712062 2.00109 0
M  V30 1912 H 222.174 -0.376025 0.870235 0
M  V30 1913 H 221.88 -1.91817 2.94787 0
M  V30 1914 H 221.754 -3.28473 1.85433 0
M  V30 1915 H 224.141 -2.77518 1.00338 0
M  V30 1916 H 224.222 -1.41437 2.13141 0
M  V30 1917 H 223.866 -3.03261 4.07425 0
M  V30 1918 H 223.796 -4.38471 2.91635 0
M  V30 1919 H 226.287 -2.90506 2.41691 0
M  V30 1920 H 226.6 -5.52142 5.40702 0
M  V30 1921 H 224.945 -4.97043 4.85771 0
M  V30 1922 H 228.136 -3.544 3.05808 0
M  V30 1923 H 228.309 -4.73723 4.42143 0
M  V30 1924 N 221.715 -0.905404 -1.28997 0
M  V30 1925 C 222.961 -0.535039 -1.95615 0
M  V30 1926 C 223.294 0.917404 -1.71165 0
M  V30 1927 O 222.569 1.65123 -1.02785 0
M  V30 1928 C 222.852 -0.834918 -3.50287 0
M  V30 1929 C 222.705 -2.33948 -3.84172 0
M  V30 1930 C 224.024 -0.325318 -4.38896 0
M  V30 1931 H 221.143 -0.195861 -0.710498 0
M  V30 1932 H 223.785 -1.13313 -1.52513 0
M  V30 1933 H 221.935 -0.325904 -3.87131 0
M  V30 1934 H 223.607 -2.91847 -3.57243 0
M  V30 1935 H 221.85 -2.79789 -3.31513 0
M  V30 1936 H 222.521 -2.49987 -4.92149 0
M  V30 1937 H 224.997 -0.761256 -4.09077 0
M  V30 1938 H 223.873 -0.564295 -5.45992 0
M  V30 1939 H 224.134 0.774144 -4.35269 0
M  V30 1940 N 223.193 1.4272 -0.668489 0
M  V30 1941 C 224.604 1.84793 -0.266151 0
M  V30 1942 C 224.955 1.55959 1.19043 0
M  V30 1943 O 224.08 1.01622 1.91055 0
M  V30 1944 C 224.675 3.35436 -0.476271 0
M  V30 1945 C 223.234 3.76182 -0.128113 0
M  V30 1946 C 222.381 2.66344 -0.771777 0
M  V30 1947 H 225.332 1.32656 -0.871098 0
M  V30 1948 H 225.353 3.79515 0.273561 0
M  V30 1949 H 224.865 3.5639 -1.53647 0
M  V30 1950 H 222.966 3.60836 0.928891 0
M  V30 1951 H 223.079 4.75766 -0.564231 0
M  V30 1952 H 221.443 2.53885 -0.203652 0
M  V30 1953 H 222.226 2.90123 -1.83531 0
M  V30 1954 N 224.671 0.411399 1.52136 0
M  V30 1955 C 225.948 -0.222308 1.94333 0
M  V30 1956 C 226.328 -1.6242 1.34844 0
M  V30 1957 O 225.676 -2.22384 0.525145 0
M  V30 1958 C 225.886 -0.226345 3.48265 0
M  V30 1959 C 227.234 -0.444592 4.22266 0
M  V30 1960 O 228.258 -0.305602 3.54887 0
M  V30 1961 O 227.117 -0.718749 5.41753 0
M  V30 1962 H 224.211 -0.143907 0.814383 0
M  V30 1963 H 226.757 0.467506 1.63133 0
M  V30 1964 H 225.529 0.75475 3.83952 0
M  V30 1965 H 225.152 -0.960163 3.85832 0
M  V30 1966 N 226.149 -1.5696 0.141893 0
M  V30 1967 C 227.397 -1.95573 -0.509484 0
M  V30 1968 C 227.718 -1.02746 -1.65736 0
M  V30 1969 O 226.988 -0.0880311 -1.95702 0
M  V30 1970 H 225.568 -0.722115 -0.191205 0
M  V30 1971 H 228.23 -1.93697 0.216196 0
M  V30 1972 H 227.326 -2.99171 -0.889 0
M  V30 1973 N 227.627 0.131896 -1.57047 0
M  V30 1974 C 228.56 1.19236 -1.94571 0
M  V30 1975 C 229.538 1.40782 -0.813576 0
M  V30 1976 O 230.722 1.55148 -1.07058 0
M  V30 1977 C 227.849 2.54858 -2.23081 0
M  V30 1978 C 226.895 2.49817 -3.45679 0
M  V30 1979 S 227.728 1.95036 -4.98719 0
M  V30 1980 C 228.884 3.32357 -5.30367 0
M  V30 1981 H 229.117 0.872297 -2.84215 0
M  V30 1982 H 226.65 0.338134 -1.50652 0
M  V30 1983 H 228.608 3.32898 -2.40185 0
M  V30 1984 H 227.269 2.84047 -1.34074 0
M  V30 1985 H 226.462 3.49688 -3.62952 0
M  V30 1986 H 226.064 1.79892 -3.27895 0
M  V30 1987 H 228.356 4.28525 -5.2476 0
M  V30 1988 H 229.299 3.19923 -6.31708 0
M  V30 1989 H 229.707 3.3019 -4.57859 0
M  V30 1990 N 229.106 1.52395 0.401703 0
M  V30 1991 C 230.352 1.67065 1.14966 0
M  V30 1992 C 230.685 0.403052 1.89971 0
M  V30 1993 O 229.96 -0.598774 1.85054 0
M  V30 1994 C 230.243 2.8975 2.13815 0
M  V30 1995 C 230.096 4.26578 1.42658 0
M  V30 1996 C 231.415 3.07965 3.14397 0
M  V30 1997 H 228.534 0.607968 0.416587 0
M  V30 1998 H 231.176 1.84965 0.434511 0
M  V30 1999 H 229.326 2.74619 2.74803 0
M  V30 2000 H 230.998 4.53451 0.847329 0
M  V30 2001 H 229.241 4.27639 0.72849 0
M  V30 2002 H 229.912 5.08483 2.14823 0
M  V30 2003 H 232.388 3.22043 2.63491 0
M  V30 2004 H 231.264 3.95308 3.80819 0
M  V30 2005 H 231.525 2.21611 3.82545 0
M  V30 2006 N 230.584 -0.659388 1.43143 0
M  V30 2007 C 231.832 -1.41654 1.44147 0
M  V30 2008 C 232.153 -1.94893 0.0645739 0
M  V30 2009 O 231.423 -1.74044 -0.899198 0
M  V30 2010 H 230.003 -0.525708 0.530697 0
M  V30 2011 H 232.665 -0.778097 1.78694 0
M  V30 2012 H 231.761 -2.26195 2.1504 0
M  V30 2013 N 232.062 -1.29571 -0.897171 0
M  V30 2014 C 232.992 -1.17473 -2.01798 0
M  V30 2015 C 233.973 -0.068323 -1.69963 0
M  V30 2016 O 235.158 -0.248239 -1.92607 0
M  V30 2017 C 232.288 -0.853099 -3.36659 0
M  V30 2018 C 231.242 -1.9161 -3.82713 0
M  V30 2019 C 230.568 -1.44773 -5.14728 0
M  V30 2020 C 231.868 -3.32535 -4.02763 0
M  V30 2021 H 233.562 -2.11237 -2.12177 0
M  V30 2022 H 231.108 -1.01699 -1.01948 0
M  V30 2023 H 233.061 -0.755165 -4.14578 0
M  V30 2024 H 231.785 0.120236 -3.26379 0
M  V30 2025 H 230.444 -2.00346 -3.07013 0
M  V30 2026 H 230.092 -0.462995 -5.00865 0
M  V30 2027 H 229.792 -2.15865 -5.46513 0
M  V30 2028 H 231.316 -1.36334 -5.95185 0
M  V30 2029 H 232.73 -3.26626 -4.71156 0
M  V30 2030 H 231.127 -4.01607 -4.45905 0
M  V30 2031 H 232.197 -3.75326 -3.07016 0
M  V30 2032 N 233.54 1.10788 -1.12088 0
M  V30 2033 C 234.789 1.82036 -0.868659 0
M  V30 2034 C 235.102 1.85929 0.607426 0
M  V30 2035 O 236.308 2.53346 0.97613 0
M  V30 2036 C 234.764 3.26951 -1.50435 0
M  V30 2037 C 234.372 3.31367 -3.01496 0
M  V30 2038 C 236.116 4.03053 -1.33225 0
M  V30 2039 C 234.023 4.7072 -3.58017 0
M  V30 2040 H 232.953 0.682108 -0.321318 0
M  V30 2041 H 235.604 1.24618 -1.34694 0
M  V30 2042 H 233.986 3.84343 -0.953735 0
M  V30 2043 H 235.16 2.83819 -3.6302 0
M  V30 2044 H 233.475 2.6875 -3.18061 0
M  V30 2045 H 236.072 5.05981 -1.72878 0
M  V30 2046 H 236.415 4.15387 -0.275529 0
M  V30 2047 H 236.948 3.52066 -1.85188 0
M  V30 2048 H 233.687 4.63585 -4.63432 0
M  V30 2049 H 233.207 5.1865 -3.01268 0
M  V30 2050 H 234.886 5.39685 -3.56859 0
M  V30 2051 N 235.018 0.912232 1.28515 0
M  V30 2052 C 236.267 0.540504 1.94323 0
M  V30 2053 C 236.58 -0.920044 1.72611 0
M  V30 2054 O 237.786 -1.39986 2.32629 0
M  V30 2055 C 236.242 0.915803 3.48053 0
M  V30 2056 C 235.85 2.39598 3.78546 0
M  V30 2057 C 237.594 0.614588 4.20027 0
M  V30 2058 C 235.501 2.71148 5.25578 0
M  V30 2059 H 234.431 0.198418 0.727424 0
M  V30 2060 H 237.082 1.11094 1.46049 0
M  V30 2061 H 235.464 0.274168 3.9505 0
M  V30 2062 H 236.638 3.08422 3.42364 0
M  V30 2063 H 234.953 2.66749 3.1974 0
M  V30 2064 H 237.55 0.827002 5.28266 0
M  V30 2065 H 237.893 -0.447531 4.13887 0
M  V30 2066 H 238.426 1.21462 3.78803 0
M  V30 2067 H 235.165 3.76207 5.36794 0
M  V30 2068 H 234.685 2.0696 5.62963 0
M  V30 2069 H 236.364 2.58072 5.93302 0
M  V30 2070 N 236.496 -1.42363 0.676048 0
M  V30 2071 C 237.744 -2.01123 0.198437 0
M  V30 2072 C 238.065 -1.53731 -1.19966 0
M  V30 2073 O 237.335 -0.759518 -1.80577 0
M  V30 2074 H 235.915 -0.743678 0.0703721 0
M  V30 2075 H 238.577 -1.74263 0.872837 0
M  V30 2076 H 237.673 -3.11454 0.200686 0
M  V30 2077 N 237.974 -0.419461 -1.51915 0
M  V30 2078 C 239.39 -0.0708431 -1.59443 0
M  V30 2079 C 239.59 1.41796 -1.43164 0
M  V30 2080 O 238.646 2.18596 -1.26381 0
M  V30 2081 C 239.959 -0.574991 -2.95151 0
M  V30 2082 C 241.507 -0.533867 -3.08413 0
M  V30 2083 C 241.982 -1.01469 -4.46618 0
M  V30 2084 N 243.473 -0.971939 -4.52888 0
M  V30 2085 C 244.208 -1.31505 -5.58116 0
M  V30 2086 N 243.704 -1.73014 -6.70849 0
M  V30 2087 N 245.497 -1.23436 -5.48379 0
M  V30 2088 H 237.648 -1.38836 -1.60743 0
M  V30 2089 H 239.911 -0.570998 -0.756747 0
M  V30 2090 H 239.617 -1.61597 -3.12377 0
M  V30 2091 H 239.491 0.00979777 -3.77199 0
M  V30 2092 H 241.878 0.498086 -2.90866 0
M  V30 2093 H 241.959 -1.15484 -2.28248 0
M  V30 2094 H 241.603 -2.04502 -4.6491 0
M  V30 2095 H 241.533 -0.370433 -5.25295 0
M  V30 2096 H 244.024 -0.666893 -3.71969 0
M  V30 2097 H 244.337 -1.97479 -7.47143 0
M  V30 2098 H 242.682 -1.76926 -6.72103 0
M  V30 2099 H 245.873 -0.908869 -4.59192 0
M  V30 2100 H 246.046 -1.50506 -6.30279 0
M  V30 2101 N 239.452 1.56882 -0.150215 0
M  V30 2102 C 240.7 1.9584 0.499105 0
M  V30 2103 C 241.021 1.03623 1.65188 0
M  V30 2104 O 240.291 0.0984084 1.95653 0
M  V30 2105 H 238.871 0.723119 0.187373 0
M  V30 2106 H 241.533 1.9358 -0.226466 0
M  V30 2107 H 240.629 2.99638 0.873122 0
M  V30 2108 N 240.93 -0.123565 1.57115 0
M  V30 2109 C 242.178 -0.83051 1.84247 0
M  V30 2110 C 242.499 -1.80629 0.73471 0
M  V30 2111 O 241.769 -1.94403 -0.241688 0
M  V30 2112 H 240.349 -0.309694 0.679778 0
M  V30 2113 H 243.011 -0.111976 1.94578 0
M  V30 2114 H 242.107 -1.37852 2.80006 0
M  V30 2115 N 242.408 -1.52605 -0.393616 0
M  V30 2116 C 243.318 -1.79971 -1.50492 0
M  V30 2117 C 244.334 -0.686181 -1.59899 0
M  V30 2118 O 245.51 -0.973274 -1.76322 0
M  V30 2119 C 242.575 -1.95867 -2.86072 0
M  V30 2120 C 241.636 -3.19781 -2.86424 0
M  V30 2121 C 240.869 -3.34909 -4.15538 0
M  V30 2122 O 241.092 -2.54948 -5.10253 0
M  V30 2123 O 240.026 -4.28141 -4.23059 0
M  V30 2124 H 243.852 -2.74328 -1.30299 0
M  V30 2125 H 241.437 -1.3764 -0.581005 0
M  V30 2126 H 243.319 -2.08056 -3.66457 0
M  V30 2127 H 241.994 -1.04699 -3.063 0
M  V30 2128 H 240.901 -3.13038 -2.04837 0
M  V30 2129 H 242.234 -4.1078 -2.71147 0
M  V30 2130 N 243.887 0.651787 -1.4349 0
M  V30 2131 C 244.819 1.77725 -1.44729 0
M  V30 2132 C 245.832 1.59141 -0.343231 0
M  V30 2133 O 247.021 1.67835 -0.607751 0
M  V30 2134 C 244.121 3.15172 -1.24579 0
M  V30 2135 C 243.294 3.60402 -2.47849 0
M  V30 2136 C 242.353 4.76656 -2.22902 0
M  V30 2137 O 241.379 4.86022 -2.96263 0
M  V30 2138 N 242.581 5.66958 -1.24656 0
M  V30 2139 H 245.346 1.77141 -2.41746 0
M  V30 2140 H 242.907 0.835678 -1.38665 0
M  V30 2141 H 244.899 3.90634 -1.0577 0
M  V30 2142 H 243.469 3.1052 -0.360015 0
M  V30 2143 H 242.689 2.75369 -2.82073 0
M  V30 2144 H 243.977 3.87368 -3.29884 0
M  V30 2145 H 243.375 5.62065 -0.640265 0
M  V30 2146 H 241.932 6.42135 -1.1183 0
M  V30 2147 N 245.365 1.30045 0.890287 0
M  V30 2148 C 246.614 1.17929 1.63633 0
M  V30 2149 C 246.927 -0.266204 1.9378 0
M  V30 2150 O 248.133 -0.508804 2.6669 0
M  V30 2151 C 246.589 2.06317 2.94892 0
M  V30 2152 C 246.197 3.55745 2.72305 0
M  V30 2153 C 247.941 2.0295 3.72843 0
M  V30 2154 C 245.848 4.36205 3.99348 0
M  V30 2155 H 244.778 0.437782 0.613892 0
M  V30 2156 H 247.429 1.54754 0.986075 0
M  V30 2157 H 245.811 1.6237 3.61182 0
M  V30 2158 H 246.985 4.07805 2.1455 0
M  V30 2159 H 245.3 3.6088 2.07737 0
M  V30 2160 H 247.897 2.60319 4.67053 0
M  V30 2161 H 248.24 1.0117 4.0382 0
M  V30 2162 H 248.773 2.4499 3.13408 0
M  V30 2163 H 245.512 5.38659 3.73533 0
M  V30 2164 H 245.032 3.8891 4.56628 0
M  V30 2165 H 246.711 4.47362 4.67415 0
M  V30 2166 N 246.843 -1.10192 1.12674 0
M  V30 2167 C 247.791 -2.18694 0.792196 0
M  V30 2168 C 248.785 -1.67938 -0.222058 0
M  V30 2169 O 249.991 -1.79822 -0.0800074 0
M  V30 2170 H 246.366 -0.713223 0.238364 0
M  V30 2171 H 248.337 -2.44149 1.71564 0
M  V30 2172 C 247.086 -3.46682 0.265859 0
M  V30 2173 H 246.409 -3.86101 1.03761 0
M  V30 2174 H 247.849 -4.23942 0.0701128 0
M  V30 2175 C 246.308 -3.21506 -1.00675 0
M  V30 2176 O 246.838 -3.43408 -2.08408 0
M  V30 2177 N 245.044 -2.75158 -0.934692 0
M  V30 2178 H 244.591 -2.57535 -0.0578604 0
M  V30 2179 H 244.549 -2.58691 -1.7868 0
M  V30 2180 N 248.321 -0.919034 -1.28029 0
M  V30 2181 C 249.268 -0.410005 -2.27129 0
M  V30 2182 C 250.238 0.518405 -1.57803 0
M  V30 2183 O 251.423 0.439451 -1.8567 0
M  V30 2184 C 248.563 0.339054 -3.4343 0
M  V30 2185 C 247.676 -0.622468 -4.27492 0
M  V30 2186 C 246.811 0.145567 -5.31001 0
M  V30 2187 C 245.85 -0.809226 -6.06727 0
M  V30 2188 N 244.987 -0.0743728 -7.02061 0
M  V30 2189 H 249.827 -1.26011 -2.70047 0
M  V30 2190 H 247.364 -0.632663 -1.328 0
M  V30 2191 H 249.322 0.789586 -4.0966 0
M  V30 2192 H 247.952 1.15346 -3.01488 0
M  V30 2193 H 247.004 -1.19153 -3.61257 0
M  V30 2194 H 248.316 -1.35252 -4.80113 0
M  V30 2195 H 247.47 0.656417 -6.03139 0
M  V30 2196 H 246.209 0.908643 -4.79161 0
M  V30 2197 H 245.214 -1.3314 -5.33436 0
M  V30 2198 H 246.439 -1.57194 -6.60656 0
M  V30 2199 H 244.385 0.670616 -6.52563 0
M  V30 2200 H 244.302 -0.744157 -7.52329 0
M  V30 2201 H 245.57 0.416109 -7.78389 0
M  V30 2202 N 249.799 1.42003 -0.683588 0
M  V30 2203 C 251.048 2.00638 -0.206681 0
M  V30 2204 C 251.361 1.5472 1.19671 0
M  V30 2205 O 252.567 2.05833 1.77045 0
M  V30 2206 C 251.023 3.58487 -0.318632 0
M  V30 2207 C 250.631 4.1339 -1.72663 0
M  V30 2208 C 252.375 4.24384 0.0991141 0
M  V30 2209 C 250.282 5.63633 -1.79087 0
M  V30 2210 H 249.212 0.750408 -0.0735107 0
M  V30 2211 H 251.863 1.62624 -0.850048 0
M  V30 2212 H 250.245 3.94047 0.392781 0
M  V30 2213 H 251.419 3.89273 -2.46583 0
M  V30 2214 H 249.734 3.59976 -2.09299 0
M  V30 2215 H 252.331 5.34652 0.0713833 0
M  V30 2216 H 252.674 4.00505 1.13586 0
M  V30 2217 H 253.207 3.93816 -0.561599 0
M  V30 2218 H 249.946 5.92323 -2.80774 0
M  V30 2219 H 249.466 5.89714 -1.09535 0
M  V30 2220 H 251.145 6.28201 -1.5483 0
M  V30 2221 N 251.277 0.427512 1.51691 0
M  V30 2222 C 252.209 -0.424521 2.25234 0
M  V30 2223 C 253.222 -0.994671 1.2888 0
M  V30 2224 O 254.411 -0.890483 1.54702 0
M  V30 2225 C 251.511 -1.60479 2.98496 0
M  V30 2226 C 250.684 -1.15527 4.21868 0
M  V30 2227 C 249.743 -2.20454 4.77793 0
M  V30 2228 O 248.769 -1.8029 5.39893 0
M  V30 2229 N 249.971 -3.52831 4.60967 0
M  V30 2230 H 252.736 0.205749 2.98993 0
M  V30 2231 H 250.297 0.255867 1.59865 0
M  V30 2232 H 252.289 -2.30276 3.32799 0
M  V30 2233 H 250.859 -2.14061 2.27809 0
M  V30 2234 H 250.079 -0.284736 3.9317 0
M  V30 2235 H 251.367 -0.832173 5.01949 0
M  V30 2236 H 250.765 -3.88201 4.11481 0
M  V30 2237 H 249.322 -4.18551 4.99658 0
M  V30 2238 N 252.755 -1.56801 0.158532 0
M  V30 2239 C 253.687 -2.14488 -0.807923 0
M  V30 2240 C 254.7 -1.09721 -1.20271 0
M  V30 2241 O 255.889 -1.36956 -1.14478 0
M  V30 2242 C 252.989 -2.66217 -2.09718 0
M  V30 2243 C 252.162 -3.95507 -1.86796 0
M  V30 2244 C 251.221 -4.3243 -2.99818 0
M  V30 2245 O 250.247 -5.00543 -2.71008 0
M  V30 2246 N 251.449 -3.92947 -4.27285 0
M  V30 2247 H 254.214 -2.98042 -0.314816 0
M  V30 2248 H 251.775 -1.61881 -0.0246692 0
M  V30 2249 H 253.767 -2.87924 -2.84398 0
M  V30 2250 H 252.337 -1.87324 -2.50257 0
M  V30 2251 H 251.557 -3.82309 -0.96089 0
M  V30 2252 H 252.845 -4.79972 -1.68833 0
M  V30 2253 H 252.243 -3.38087 -4.53557 0
M  V30 2254 H 250.8 -4.19681 -4.9871 0
M  V30 2255 N 254.233 0.115231 -1.57178 0
M  V30 2256 C 255.51 0.852873 -1.76027 0
M  V30 2257 C 255.89 1.97892 -0.73498 0
M  V30 2258 O 255.238 2.27232 0.24036 0
M  V30 2259 C 255.448 1.36608 -3.21153 0
M  V30 2260 C 256.796 1.81692 -3.83762 0
M  V30 2261 O 257.82 1.46278 -3.24779 0
M  V30 2262 O 256.679 2.47104 -4.87444 0
M  V30 2263 H 253.773 0.405296 -0.720877 0
M  V30 2264 H 256.319 0.0986785 -1.69413 0
M  V30 2265 H 255.091 0.558357 -3.87296 0
M  V30 2266 H 254.714 2.18287 -3.3232 0
M  V30 2267 N 255.711 1.52812 0.385517 0
M  V30 2268 C 256.936 1.72207 1.15583 0
M  V30 2269 C 257.361 0.441034 1.82857 0
M  V30 2270 O 256.719 -0.603465 1.70962 0
M  V30 2271 C 256.767 2.87476 2.17692 0
M  V30 2272 O 255.871 2.54693 3.24354 0
M  V30 2273 H 255.212 0.572526 0.336319 0
M  V30 2274 H 257.742 1.99618 0.448744 0
M  V30 2275 H 257.752 3.13072 2.6163 0
M  V30 2276 H 256.427 3.80408 1.68115 0
M  V30 2277 H 255.004 2.3985 2.85529 0
M  V30 2278 N 257.189 -0.644168 1.43834 0
M  V30 2279 C 258.437 -1.40117 1.45642 0
M  V30 2280 C 258.758 -1.94814 0.0852413 0
M  V30 2281 O 258.028 -1.74988 -0.880688 0
M  V30 2282 H 256.608 -0.52005 0.536243 0
M  V30 2283 H 259.27 -0.7591 1.7951 0
M  V30 2284 H 258.366 -2.23902 2.17427 0
M  V30 2285 N 258.668 -1.30515 -0.883378 0
M  V30 2286 C 259.908 -1.20716 -1.64946 0
M  V30 2287 C 260.272 0.234072 -1.90568 0
M  V30 2288 O 261.473 0.455335 -2.64915 0
M  V30 2289 C 259.744 -2.01444 -2.9522 0
M  V30 2290 S 261.303 -2.0836 -3.86175 0
M  V30 2291 H 258.121 -0.430165 -0.566109 0
M  V30 2292 H 260.723 -1.65011 -1.04841 0
M  V30 2293 H 259.427 -3.05268 -2.74298 0
M  V30 2294 H 258.958 -1.57817 -3.60357 0
M  V30 2295 H 260.973 -1.21215 -4.81167 0
M  V30 2296 N 260.146 1.09593 -1.13257 0
M  V30 2297 C 261.093 2.1618 -0.808381 0
M  V30 2298 C 262.063 1.64517 0.228754 0
M  V30 2299 O 263.248 1.9053 0.101381 0
M  V30 2300 C 260.388 3.43973 -0.278675 0
M  V30 2301 C 259.501 4.09545 -1.37466 0
M  V30 2302 C 258.636 5.25088 -0.803479 0
M  V30 2303 C 257.675 5.82579 -1.87799 0
M  V30 2304 N 256.812 6.89486 -1.32488 0
M  V30 2305 H 261.652 2.43254 -1.72138 0
M  V30 2306 H 259.189 1.19392 -0.859294 0
M  V30 2307 H 261.147 4.17174 0.0465583 0
M  V30 2308 H 259.777 3.17223 0.597459 0
M  V30 2309 H 258.829 3.34226 -1.81652 0
M  V30 2310 H 260.141 4.48307 -2.18684 0
M  V30 2311 H 259.295 6.05178 -0.429427 0
M  V30 2312 H 258.034 4.87684 0.0397956 0
M  V30 2313 H 257.039 5.01152 -2.26113 0
M  V30 2314 H 258.264 6.22045 -2.72463 0
M  V30 2315 H 256.21 6.54064 -0.503575 0
M  V30 2316 H 256.127 7.27007 -2.07355 0
M  V30 2317 H 257.395 7.73336 -0.978336 0
M  V30 2318 N 261.624 0.925811 1.2754 0
M  V30 2319 C 262.87 0.566092 1.94739 0
M  V30 2320 C 263.203 -0.890057 1.72603 0
M  V30 2321 O 262.478 -1.63467 1.05399 0
M  V30 2322 C 262.761 0.89054 3.48915 0
M  V30 2323 C 262.614 2.4003 3.80402 0
M  V30 2324 C 263.933 0.395101 4.38323 0
M  V30 2325 H 261.052 0.20714 0.707292 0
M  V30 2326 H 263.694 1.15725 1.50691 0
M  V30 2327 H 261.844 0.387452 3.86563 0
M  V30 2328 H 263.516 2.97494 3.52555 0
M  V30 2329 H 261.759 2.85028 3.2702 0
M  V30 2330 H 262.43 2.57785 4.8811 0
M  V30 2331 H 264.906 0.826241 4.07814 0
M  V30 2332 H 263.782 0.651086 5.45025 0
M  V30 2333 H 264.043 -0.704798 4.36446 0
M  V30 2334 N 263.102 -1.41638 0.69111 0
M  V30 2335 C 264.034 -2.29194 -0.0161523 0
M  V30 2336 C 265.047 -1.44549 -0.748955 0
M  V30 2337 O 266.236 -1.681 -0.6004 0
M  V30 2338 C 263.336 -3.22325 -1.0469 0
M  V30 2339 C 262.509 -4.35706 -0.384621 0
M  V30 2340 C 261.568 -5.09443 -1.31737 0
M  V30 2341 O 260.594 -5.63386 -0.811451 0
M  V30 2342 N 261.796 -5.16487 -2.64993 0
M  V30 2343 H 264.561 -2.90534 0.735523 0
M  V30 2344 H 262.122 -1.52742 0.53679 0
M  V30 2345 H 264.114 -3.68522 -1.67252 0
M  V30 2346 H 262.684 -2.62323 -1.70015 0
M  V30 2347 H 261.904 -3.91948 0.420804 0
M  V30 2348 H 263.192 -5.08743 0.0760765 0
M  V30 2349 H 262.59 -4.741 -3.08619 0
M  V30 2350 H 261.147 -5.66276 -3.22761 0
M  V30 2351 N 264.58 -0.43555 -1.51462 0
M  V30 2352 C 265.829 0.133007 -2.01261 0
M  V30 2353 C 266.142 1.43942 -1.32439 0
M  V30 2354 O 267.348 2.09081 -1.73198 0
M  V30 2355 C 265.804 0.287581 -3.58749 0
M  V30 2356 C 265.412 -1.00829 -4.36506 0
M  V30 2357 C 267.156 0.810004 -4.167 0
M  V30 2358 C 265.063 -0.819454 -5.85695 0
M  V30 2359 H 263.993 0.0534822 -0.752101 0
M  V30 2360 H 266.644 -0.565038 -1.74584 0
M  V30 2361 H 265.026 1.04859 -3.81865 0
M  V30 2362 H 266.2 -1.77749 -4.25138 0
M  V30 2363 H 264.515 -1.45911 -3.89999 0
M  V30 2364 H 267.112 0.967743 -5.2587 0
M  V30 2365 H 267.455 1.79196 -3.75758 0
M  V30 2366 H 267.988 0.107357 -3.97655 0
M  V30 2367 H 264.727 -1.77374 -6.31046 0
M  V30 2368 H 264.247 -0.0900208 -5.99732 0
M  V30 2369 H 265.926 -0.471949 -6.45276 0
M  V30 2370 N 266.058 1.56714 -0.166846 0
M  V30 2371 C 267.283 2.01557 0.488833 0
M  V30 2372 C 267.708 1.0463 1.56314 0
M  V30 2373 O 267.066 0.0251304 1.81283 0
M  V30 2374 C 267.114 3.4503 1.04818 0
M  V30 2375 O 266.218 3.51163 2.16236 0
M  V30 2376 H 265.559 0.653516 0.117526 0
M  V30 2377 H 268.089 2.02818 -0.269421 0
M  V30 2378 H 268.099 3.84243 1.37191 0
M  V30 2379 H 266.774 4.15077 0.261572 0
M  V30 2380 H 265.351 3.23807 1.84942 0
M  V30 2381 N 267.536 -0.106894 1.57237 0
M  V30 2382 C 268.947 -0.662723 1.74542 0
M  V30 2383 C 269.298 -1.7971 0.787319 0
M  V30 2384 O 268.423 -2.16368 -0.0369636 0
M  V30 2385 C 269.018 -1.20896 3.16496 0
M  V30 2386 C 267.577 -1.71096 3.35266 0
M  V30 2387 C 266.724 -0.615642 2.7038 0
M  V30 2388 H 269.675 0.119106 1.58252 0
M  V30 2389 H 269.696 -2.07847 3.18716 0
M  V30 2390 H 269.208 -0.383122 3.86204 0
M  V30 2391 H 267.309 -2.56119 2.70618 0
M  V30 2392 H 267.422 -1.81208 4.43509 0
M  V30 2393 H 265.786 -1.05222 2.31949 0
M  V30 2394 H 266.569 0.199419 3.4272 0
M  V30 2395 N 269.014 -1.53014 -0.377408 0
M  V30 2396 C 270.291 -1.59215 -1.13622 0
M  V30 2397 C 270.671 -0.392407 -2.07421 0
M  V30 2398 O 270.019 0.618342 -2.19975 0
M  V30 2399 C 270.229 -2.93669 -1.88573 0
M  V30 2400 C 271.577 -3.47822 -2.43526 0
M  V30 2401 O 272.601 -2.9562 -1.98715 0
M  V30 2402 O 271.46 -4.39055 -3.25412 0
M  V30 2403 H 268.554 -0.642625 -0.52054 0
M  V30 2404 H 271.1 -1.65353 -0.381625 0
M  V30 2405 H 269.872 -3.7243 -1.20048 0
M  V30 2406 H 269.495 -2.90968 -2.70968 0
M  V30 2407 N 270.492 0.636531 -1.44174 0
M  V30 2408 C 271.717 1.42847 -1.50364 0
M  V30 2409 C 272.142 1.87665 -0.127867 0
M  V30 2410 O 271.5 1.58408 0.88185 0
M  V30 2411 C 271.548 2.62854 -2.4686 0
M  V30 2412 O 270.652 3.62501 -1.9664 0
M  V30 2413 H 269.993 0.427642 -0.507955 0
M  V30 2414 H 272.523 0.777422 -1.89255 0
M  V30 2415 H 272.533 3.10465 -2.64718 0
M  V30 2416 H 271.208 2.29578 -3.46795 0
M  V30 2417 H 269.785 3.21735 -1.88523 0
M  V30 2418 N 271.97 1.30982 0.876444 0
M  V30 2419 C 273.218 1.20058 1.62575 0
M  V30 2420 C 273.539 -0.242947 1.93481 0
M  V30 2421 O 272.809 -1.1619 1.57724 0
M  V30 2422 H 271.389 0.44135 0.602677 0
M  V30 2423 H 274.051 1.64222 1.04962 0
M  V30 2424 H 273.147 1.76762 2.57219 0
M  V30 2425 N 273.449 -1.08991 1.13837 0
M  V30 2426 C 274.697 -1.80899 0.901098 0
M  V30 2427 C 275.018 -1.86356 -0.574134 0
M  V30 2428 O 274.288 -1.35235 -1.41733 0
M  V30 2429 H 272.868 -0.669966 0.330386 0
M  V30 2430 H 275.53 -1.318 1.43578 0
M  V30 2431 H 274.626 -2.83929 1.29578 0
M  V30 2432 N 274.927 -0.932562 -1.27047 0
M  V30 2433 C 275.857 -0.452902 -2.29066 0
M  V30 2434 C 276.838 0.489338 -1.62909 0
M  V30 2435 O 278.023 0.393046 -1.90181 0
M  V30 2436 C 275.153 0.290698 -3.46081 0
M  V30 2437 C 274.107 -0.564168 -4.24265 0
M  V30 2438 C 273.433 0.308886 -5.33807 0
M  V30 2439 C 274.733 -1.83112 -4.89149 0
M  V30 2440 H 276.427 -1.30552 -2.69437 0
M  V30 2441 H 273.973 -0.629201 -1.29526 0
M  V30 2442 H 275.926 0.637233 -4.16554 0
M  V30 2443 H 274.65 1.17738 -3.0464 0
M  V30 2444 H 273.309 -0.893477 -3.55545 0
M  V30 2445 H 272.957 1.19467 -4.88607 0
M  V30 2446 H 272.657 -0.259633 -5.87026 0
M  V30 2447 H 274.181 0.650884 -6.07121 0
M  V30 2448 H 275.595 -1.55236 -5.51883 0
M  V30 2449 H 273.992 -2.34353 -5.52448 0
M  V30 2450 H 275.062 -2.54772 -4.12576 0
M  V30 2451 N 276.405 1.4127 -0.698611 0
M  V30 2452 C 277.816 1.84187 -0.305289 0
M  V30 2453 C 278.167 1.58449 1.15708 0
M  V30 2454 O 277.292 1.05651 1.88856 0
M  V30 2455 C 277.887 3.3435 -0.547314 0
M  V30 2456 C 276.446 3.75826 -0.207878 0
M  V30 2457 C 275.593 2.64647 -0.828099 0
M  V30 2458 H 278.544 1.30778 -0.89904 0
M  V30 2459 H 278.565 3.8001 0.192998 0
M  V30 2460 H 278.077 3.53051 -1.61172 0
M  V30 2461 H 276.178 3.62725 0.852143 0
M  V30 2462 H 276.291 4.74462 -0.665021 0
M  V30 2463 H 274.655 2.53395 -0.257458 0
M  V30 2464 H 275.438 2.86165 -1.89643 0
M  V30 2465 N 277.883 0.443576 1.51229 0
M  V30 2466 C 278.793 -0.370721 2.31652 0
M  V30 2467 C 279.809 -1.02186 1.40833 0
M  V30 2468 O 280.985 -1.01586 1.73903 0
M  V30 2469 C 278.05 -1.45376 3.14749 0
M  V30 2470 C 277.111 -0.822099 4.21355 0
M  V30 2471 C 276.344 -1.85353 5.0048 0
M  V30 2472 O 276.567 -3.07656 4.80316 0
M  V30 2473 O 275.501 -1.4406 5.84406 0
M  V30 2474 H 279.327 0.286002 3.0235 0
M  V30 2475 H 276.912 0.20598 1.47973 0
M  V30 2476 H 278.794 -2.08173 3.66391 0
M  V30 2477 H 277.469 -2.09445 2.46809 0
M  V30 2478 H 276.376 -0.155909 3.73775 0
M  V30 2479 H 277.709 -0.224797 4.91686 0
M  V30 2480 N 279.361 -1.56624 0.175154 0
M  V30 2481 C 280.777 -1.58571 -0.180966 0
M  V30 2482 C 280.977 -1.19065 -1.6256 0
M  V30 2483 O 280.033 -0.904044 -2.35761 0
M  V30 2484 C 281.346 -3.00522 0.103326 0
M  V30 2485 C 282.894 -3.12972 0.0418426 0
M  V30 2486 C 283.369 -4.57022 0.299175 0
M  V30 2487 N 284.86 -4.62541 0.247086 0
M  V30 2488 C 285.595 -5.71857 0.420318 0
M  V30 2489 N 285.091 -6.89717 0.652816 0
M  V30 2490 N 286.884 -5.60972 0.355957 0
M  V30 2491 H 279.035 -1.80589 1.11809 0
M  V30 2492 H 281.298 -0.837178 0.444788 0
M  V30 2493 H 281.004 -3.33916 1.10422 0
M  V30 2494 H 280.878 -3.72344 -0.603299 0
M  V30 2495 H 283.265 -2.79403 -0.949636 0
M  V30 2496 H 283.346 -2.43578 0.781238 0
M  V30 2497 H 282.99 -4.913 1.28788 0
M  V30 2498 H 282.92 -5.24579 -0.460876 0
M  V30 2499 H 285.411 -3.77829 0.0731895 0
M  V30 2500 H 285.724 -7.68911 0.774347 0
M  V30 2501 H 284.069 -6.91572 0.689476 0
M  V30 2502 H 287.26 -4.67773 0.174882 0
M  V30 2503 H 287.433 -6.46111 0.494388 0
M  V30 2504 N 280.839 0.0985539 -1.57292 0
M  V30 2505 C 282.064 0.820196 -1.90493 0
M  V30 2506 C 282.489 1.71658 -0.769094 0
M  V30 2507 O 281.847 1.79133 0.279495 0
M  V30 2508 C 281.895 1.61242 -3.22542 0
M  V30 2509 O 280.999 2.72108 -3.09888 0
M  V30 2510 H 280.34 0.225547 -0.62452 0
M  V30 2511 H 282.87 0.0748159 -2.04463 0
M  V30 2512 H 282.88 1.99737 -3.55766 0
M  V30 2513 H 281.555 0.954535 -4.04798 0
M  V30 2514 H 280.132 2.36667 -2.88172 0
M  V30 2515 N 282.317 1.53212 0.369288 0
M  V30 2516 C 283.563 1.69466 1.11397 0
M  V30 2517 C 283.896 0.443257 1.89074 0
M  V30 2518 O 283.171 -0.559386 1.86282 0
M  V30 2519 C 283.454 2.9422 2.07621 0
M  V30 2520 C 283.307 4.29508 1.33577 0
M  V30 2521 C 284.626 3.14565 3.07794 0
M  V30 2522 H 281.745 0.616667 0.403597 0
M  V30 2523 H 284.387 1.85845 0.395179 0
M  V30 2524 H 282.537 2.80387 2.68916 0
M  V30 2525 H 284.209 4.55147 0.750955 0
M  V30 2526 H 282.452 4.29088 0.637618 0
M  V30 2527 H 283.123 5.12926 2.03989 0
M  V30 2528 H 285.599 3.2756 2.56601 0
M  V30 2529 H 284.475 4.03297 3.72348 0
M  V30 2530 H 284.736 2.29675 3.77759 0
M  V30 2531 N 283.795 -0.628877 1.44509 0
M  V30 2532 C 285.02 -1.42048 1.5112 0
M  V30 2533 C 285.445 -1.87594 0.137818 0
M  V30 2534 O 284.803 -1.58873 -0.873437 0
M  V30 2535 C 284.851 -2.61541 2.48251 0
M  V30 2536 O 283.955 -3.61453 1.98559 0
M  V30 2537 H 283.296 -0.424942 0.510216 0
M  V30 2538 H 285.826 -0.767374 1.89664 0
M  V30 2539 H 285.836 -3.09057 2.66361 0
M  V30 2540 H 284.511 -2.27736 3.48007 0
M  V30 2541 H 283.088 -3.20731 1.90227 0
M  V30 2542 N 285.273 -1.31445 -0.869486 0
M  V30 2543 C 286.203 -1.21727 -1.99261 0
M  V30 2544 C 287.184 -0.104359 -1.6978 0
M  V30 2545 O 288.369 -0.289038 -1.92037 0
M  V30 2546 C 285.499 -0.924317 -3.34774 0
M  V30 2547 C 284.453 -1.99685 -3.78563 0
M  V30 2548 C 283.779 -1.55658 -5.11541 0
M  V30 2549 C 285.079 -3.41003 -3.95619 0
M  V30 2550 H 286.773 -2.1569 -2.07649 0
M  V30 2551 H 284.319 -1.03839 -0.997675 0
M  V30 2552 H 286.272 -0.842934 -4.12883 0
M  V30 2553 H 284.996 0.0509793 -3.2656 0
M  V30 2554 H 283.655 -2.06813 -3.02694 0
M  V30 2555 H 283.303 -0.569132 -4.9977 0
M  V30 2556 H 283.003 -2.27409 -5.41811 0
M  V30 2557 H 284.527 -1.48928 -5.92159 0
M  V30 2558 H 285.941 -3.36547 -4.64122 0
M  V30 2559 H 284.338 -4.10975 -4.37286 0
M  V30 2560 H 285.408 -3.81754 -2.98985 0
M  V30 2561 N 286.751 1.08385 -1.14413 0
M  V30 2562 C 287.979 1.84517 -0.936001 0
M  V30 2563 C 288.394 1.81626 0.515503 0
M  V30 2564 O 287.751 1.22008 1.35721 0
M  V30 2565 C 287.802 3.32049 -1.42918 0
M  V30 2566 O 287.523 3.34951 -2.82381 0
M  V30 2567 C 289.024 4.24986 -1.26103 0
M  V30 2568 H 286.244 0.582491 -0.333084 0
M  V30 2569 H 288.788 1.36885 -1.5193 0
M  V30 2570 H 286.943 3.7707 -0.888641 0
M  V30 2571 H 287.357 4.27048 -3.04517 0
M  V30 2572 H 288.831 5.26615 -1.6547 0
M  V30 2573 H 289.308 4.38726 -0.20392 0
M  V30 2574 H 289.914 3.85791 -1.79012 0
M  V30 2575 N 288.23 0.939286 1.26551 0
M  V30 2576 C 289.478 0.58469 1.93457 0
M  V30 2577 C 289.799 -0.878774 1.74076 0
M  V30 2578 O 289.069 -1.62421 1.09528 0
M  V30 2579 H 287.649 0.21325 0.715914 0
M  V30 2580 H 290.311 1.1942 1.54029 0
M  V30 2581 H 289.407 0.800849 3.0165 0
M  V30 2582 N 289.708 -1.40897 0.706093 0
M  V30 2583 C 290.671 -2.29131 0.0562841 0
M  V30 2584 C 291.671 -1.44901 -0.697166 0
M  V30 2585 O 292.861 -1.65926 -0.530484 0
M  V30 2586 C 289.993 -3.27957 -0.93043 0
M  V30 2587 H 291.186 -2.88091 0.833284 0
M  V30 2588 H 288.739 -1.4906 0.470192 0
M  V30 2589 H 289.474 -2.73997 -1.73482 0
M  V30 2590 H 289.259 -3.90124 -0.393166 0
M  V30 2591 H 290.749 -3.94049 -1.38256 0
M  V30 2592 N 291.186 -0.45159 -1.50991 0
M  V30 2593 C 292.597 0.00818571 -1.86698 0
M  V30 2594 C 292.948 1.40661 -1.3678 0
M  V30 2595 O 292.073 2.0391 -0.724546 0
M  V30 2596 C 292.668 0.0216303 -3.38793 0
M  V30 2597 C 291.227 0.425865 -3.73983 0
M  V30 2598 C 290.374 -0.372163 -2.74791 0
M  V30 2599 H 293.325 -0.666785 -1.44013 0
M  V30 2600 H 293.346 0.828078 -3.7138 0
M  V30 2601 H 292.858 -0.996288 -3.75094 0
M  V30 2602 H 290.959 1.44886 -3.43277 0
M  V30 2603 H 291.072 0.140761 -4.78893 0
M  V30 2604 H 289.436 0.171498 -2.54122 0
M  V30 2605 H 290.219 -1.38922 -3.13935 0
M  V30 2606 N 292.664 1.56529 -0.183458 0
M  V30 2607 C 293.574 2.22144 0.754272 0
M  V30 2608 C 294.59 1.21684 1.24374 0
M  V30 2609 O 295.766 1.54385 1.29333 0
M  V30 2610 C 292.831 2.85884 1.96141 0
M  V30 2611 C 291.892 4.01579 1.51765 0
M  V30 2612 C 291.125 4.6227 2.66725 0
M  V30 2613 O 291.348 4.21865 3.83909 0
M  V30 2614 O 290.282 5.51936 2.40104 0
M  V30 2615 H 294.108 3.02861 0.225527 0
M  V30 2616 H 291.693 1.49331 0.0453032 0
M  V30 2617 H 293.575 3.26253 2.66715 0
M  V30 2618 H 292.25 2.08154 2.47899 0
M  V30 2619 H 291.157 3.65856 0.781049 0
M  V30 2620 H 292.49 4.80938 1.04686 0
M  V30 2621 N 294.142 -0.090211 1.57342 0
M  V30 2622 C 295.367 -0.810082 1.90925 0
M  V30 2623 C 295.792 -1.71248 0.778187 0
M  V30 2624 O 295.15 -1.79278 -0.269991 0
M  V30 2625 C 295.198 -1.59529 3.23393 0
M  V30 2626 O 294.302 -2.70461 3.11327 0
M  V30 2627 H 293.643 -0.222231 0.625707 0
M  V30 2628 H 296.173 -0.0639716 2.045 0
M  V30 2629 H 296.183 -1.97847 3.5682 0
M  V30 2630 H 294.858 -0.933055 4.05299 0
M  V30 2631 H 293.435 -2.35135 2.89423 0
M  V30 2632 N 295.62 -1.53406 -0.361157 0
M  V30 2633 C 296.866 -1.70054 -1.10496 0
M  V30 2634 C 297.199 -0.453278 -1.88836 0
M  V30 2635 O 296.474 0.5495 -1.86576 0
M  V30 2636 C 296.757 -2.95317 -2.06058 0
M  V30 2637 C 296.61 -4.3021 -1.31298 0
M  V30 2638 C 297.929 -3.16193 -3.06121 0
M  V30 2639 H 295.048 -0.618799 -0.400321 0
M  V30 2640 H 297.69 -1.86052 -0.385318 0
M  V30 2641 H 295.84 -2.81809 -2.67425 0
M  V30 2642 H 297.512 -4.55538 -0.726807 0
M  V30 2643 H 295.755 -4.29421 -0.614853 0
M  V30 2644 H 296.426 -5.14 -2.01265 0
M  V30 2645 H 298.902 -3.28916 -2.5486 0
M  V30 2646 H 297.778 -4.05266 -3.70204 0
M  V30 2647 H 298.039 -2.31676 -3.76535 0
M  V30 2648 N 297.098 0.621204 -1.44841 0
M  V30 2649 C 298.03 1.74615 -1.48466 0
M  V30 2650 C 299.043 1.58377 -0.37691 0
M  V30 2651 O 300.232 1.66508 -0.643215 0
M  V30 2652 C 297.332 3.12459 -1.31236 0
M  V30 2653 C 296.505 3.55064 -2.55438 0
M  V30 2654 C 295.564 4.71821 -2.32963 0
M  V30 2655 O 294.59 4.79628 -3.06505 0
M  V30 2656 N 295.792 5.64186 -1.36654 0
M  V30 2657 H 298.557 1.71973 -2.45449 0
M  V30 2658 H 296.118 0.806077 -1.40407 0
M  V30 2659 H 298.11 3.88302 -1.14032 0
M  V30 2660 H 296.68 3.09686 -0.4258 0
M  V30 2661 H 295.9 2.69324 -2.87851 0
M  V30 2662 H 297.188 3.80284 -3.38026 0
M  V30 2663 H 296.586 5.6058 -0.759344 0
M  V30 2664 H 295.143 6.39618 -1.25425 0
M  V30 2665 N 298.576 1.31904 0.862503 0
M  V30 2666 C 299.523 1.20182 1.9704 0
M  V30 2667 C 300.493 0.0858247 1.65878 0
M  V30 2668 O 301.678 0.26 1.8902 0
M  V30 2669 C 298.818 0.922797 3.32533 0
M  V30 2670 C 297.931 2.12284 3.76244 0
M  V30 2671 C 297.066 1.77996 5.00491 0
M  V30 2672 C 296.105 2.94366 5.36671 0
M  V30 2673 N 295.242 2.60223 6.52095 0
M  V30 2674 H 300.082 2.14951 2.06398 0
M  V30 2675 H 297.619 1.06917 1.01031 0
M  V30 2676 H 299.577 0.741548 4.10557 0
M  V30 2677 H 298.207 0.0119227 3.22798 0
M  V30 2678 H 297.259 2.41461 2.9394 0
M  V30 2679 H 298.571 2.99357 3.98982 0
M  V30 2680 H 297.725 1.56377 5.862 0
M  V30 2681 H 296.464 0.881252 4.79672 0
M  V30 2682 H 295.469 3.16625 4.49476 0
M  V30 2683 H 296.694 3.84957 5.59451 0
M  V30 2684 H 294.64 1.72884 6.32809 0
M  V30 2685 H 294.557 3.40827 6.74814 0
M  V30 2686 H 295.825 2.42016 7.40978 0
M  V30 2687 N 300.054 -1.07777 1.14986 0
M  V30 2688 C 301.017 -2.13041 0.845358 0
M  V30 2689 C 302.017 -1.60071 -0.152931 0
M  V30 2690 O 303.207 -1.74033 0.0761879 0
M  V30 2691 C 300.339 -3.39896 0.261383 0
M  V30 2692 H 301.532 -2.41485 1.77834 0
M  V30 2693 H 299.085 -1.23595 0.956757 0
M  V30 2694 H 299.82 -3.17091 -0.68 0
M  V30 2695 H 299.605 -3.79642 0.980514 0
M  V30 2696 H 301.095 -4.17548 0.0657687 0
M  V30 2697 N 301.532 -0.945985 -1.26051 0
M  V30 2698 C 302.479 -0.45809 -2.26208 0
M  V30 2699 C 303.449 0.484816 -1.58867 0
M  V30 2700 O 304.634 0.399969 -1.86561 0
M  V30 2701 C 301.774 0.266131 -3.44072 0
M  V30 2702 C 300.887 -0.713005 -4.26075 0
M  V30 2703 C 300.022 0.0329013 -5.3119 0
M  V30 2704 C 299.061 -0.93774 -6.04874 0
M  V30 2705 N 298.198 -0.223274 -7.01745 0
M  V30 2706 H 303.038 -1.3171 -2.67313 0
M  V30 2707 H 300.575 -0.66069 -1.31428 0
M  V30 2708 H 302.533 0.702514 -4.11243 0
M  V30 2709 H 301.163 1.08925 -3.03867 0
M  V30 2710 H 300.215 -1.26789 -3.58648 0
M  V30 2711 H 301.527 -1.45406 -4.77136 0
M  V30 2712 H 300.681 0.528335 -6.04395 0
M  V30 2713 H 299.42 0.806801 -4.8098 0
M  V30 2714 H 298.425 -1.44425 -5.30492 0
M  V30 2715 H 299.65 -1.71172 -6.57173 0
M  V30 2716 H 297.596 0.532046 -6.53839 0
M  V30 2717 H 297.513 -0.90357 -7.50581 0
M  V30 2718 H 298.781 0.250907 -7.79096 0
M  V30 2719 N 303.011 1.40521 -0.713556 0
M  V30 2720 C 303.944 2.28198 -0.00881422 0
M  V30 2721 C 304.922 1.43227 0.769735 0
M  V30 2722 O 306.106 1.72641 0.756799 0
M  V30 2723 C 303.233 3.23758 0.994899 0
M  V30 2724 C 302.279 4.25391 0.3074 0
M  V30 2725 S 303.112 5.26765 -0.963247 0
M  V30 2726 C 304.268 6.25888 0.0384143 0
M  V30 2727 H 304.501 2.87622 -0.752407 0
M  V30 2728 H 302.034 1.45925 -0.504502 0
M  V30 2729 H 303.992 3.79341 1.56879 0
M  V30 2730 H 302.653 2.63396 1.71118 0
M  V30 2731 H 301.846 4.92596 1.0661 0
M  V30 2732 H 301.448 3.73497 -0.193879 0
M  V30 2733 H 303.74 6.71683 0.885912 0
M  V30 2734 H 304.683 7.05552 -0.60019 0
M  V30 2735 H 305.091 5.63072 0.401233 0
M  V30 2736 N 304.489 0.459591 1.5075 0
M  V30 2737 C 305.422 -0.386257 2.24907 0
M  V30 2738 C 306.4 -1.006 1.27744 0
M  V30 2739 O 307.584 -1.04416 1.56938 0
M  V30 2740 C 304.711 -1.54021 3.01654 0
M  V30 2741 C 303.757 -1.03898 4.13651 0
M  V30 2742 S 304.59 0.0370501 5.35487 0
M  V30 2743 C 305.746 -1.12105 6.15779 0
M  V30 2744 H 305.979 0.243272 2.96303 0
M  V30 2745 H 303.512 0.244339 1.52454 0
M  V30 2746 H 305.47 -2.20163 3.46466 0
M  V30 2747 H 304.131 -2.14121 2.29806 0
M  V30 2748 H 303.324 -1.90254 4.66711 0
M  V30 2749 H 302.926 -0.45545 3.71216 0
M  V30 2750 H 305.218 -2.03501 6.46215 0
M  V30 2751 H 306.161 -0.62995 7.05292 0
M  V30 2752 H 306.569 -1.36967 5.47631 0
M  V30 2753 N 305.967 -1.56429 0.191757 0
M  V30 2754 C 306.897 -2.21937 -0.725696 0
M  V30 2755 C 307.878 -1.1814 -1.2238 0
M  V30 2756 O 309.063 -1.46636 -1.27325 0
M  V30 2757 C 306.193 -2.87611 -1.94672 0
M  V30 2758 C 305.147 -3.97623 -1.58366 0
M  V30 2759 C 304.473 -4.50446 -2.88102 0
M  V30 2760 C 305.773 -5.16197 -0.796133 0
M  V30 2761 H 307.467 -2.98861 -0.179606 0
M  V30 2762 H 305.013 -1.43749 -0.0849464 0
M  V30 2763 H 306.966 -3.3212 -2.59373 0
M  V30 2764 H 305.69 -2.08087 -2.51728 0
M  V30 2765 H 304.349 -3.53801 -0.960247 0
M  V30 2766 H 303.997 -3.67688 -3.43241 0
M  V30 2767 H 303.697 -5.24675 -2.64556 0
M  V30 2768 H 305.221 -4.97654 -3.53798 0
M  V30 2769 H 306.635 -5.57271 -1.34618 0
M  V30 2770 H 305.032 -5.96471 -0.658928 0
M  V30 2771 H 306.102 -4.84473 0.203478 0
M  V30 2772 N 307.445 0.0818655 -1.57387 0
M  V30 2773 C 308.722 0.815343 -1.77796 0
M  V30 2774 C 309.102 1.96289 -0.77679 0
M  V30 2775 O 308.45 2.27691 0.192106 0
M  V30 2776 C 308.66 1.29765 -3.23978 0
M  V30 2777 C 310.008 1.7351 -3.8753 0
M  V30 2778 O 311.032 1.39356 -3.27808 0
M  V30 2779 O 309.891 2.36708 -4.92576 0
M  V30 2780 H 306.985 0.389914 -0.729312 0
M  V30 2781 H 309.531 0.0627213 -1.69584 0
M  V30 2782 H 308.303 0.47608 -3.88393 0
M  V30 2783 H 307.926 2.11189 -3.36875 0
M  V30 2784 N 308.923 1.53595 0.353017 0
M  V30 2785 C 310.2 1.61002 1.11075 0
M  V30 2786 C 310.58 0.425356 2.0677 0
M  V30 2787 O 309.928 -0.583267 2.2093 0
M  V30 2788 C 310.138 2.96631 1.83877 0
M  V30 2789 C 311.486 3.51653 2.37961 0
M  V30 2790 O 312.51 2.98743 1.93987 0
M  V30 2791 O 311.369 4.44177 3.18386 0
M  V30 2792 H 308.463 0.650825 0.510251 0
M  V30 2793 H 311.009 1.6594 0.35527 0
M  V30 2794 H 309.781 3.74293 1.14108 0
M  V30 2795 H 309.404 2.95242 2.66304 0
M  V30 2796 N 310.401 -0.613514 1.45168 0
M  V30 2797 C 311.65 -1.36874 1.4815 0
M  V30 2798 C 311.963 -1.952 0.124982 0
M  V30 2799 O 313.169 -2.71481 0.0324176 0
M  V30 2800 C 311.625 -2.47905 2.60904 0
M  V30 2801 C 311.233 -1.96016 4.02842 0
M  V30 2802 C 312.977 -3.24965 2.73126 0
M  V30 2803 C 310.884 -3.04494 5.06988 0
M  V30 2804 H 309.814 -0.514428 0.551253 0
M  V30 2805 H 312.465 -0.658182 1.7129 0
M  V30 2806 H 310.847 -3.21618 2.31037 0
M  V30 2807 H 312.021 -1.29051 4.4236 0
M  V30 2808 H 310.336 -1.31719 3.95018 0
M  V30 2809 H 312.933 -4.05865 3.48106 0
M  V30 2810 H 313.276 -3.75588 1.79553 0
M  V30 2811 H 313.809 -2.5835 3.0249 0
M  V30 2812 H 310.548 -2.58795 6.0225 0
M  V30 2813 H 310.068 -3.70044 4.72046 0
M  V30 2814 H 311.747 -3.68976 5.31475 0
M  V30 2815 N 311.879 -1.3236 -0.855495 0
M  V30 2816 C 313.125 -1.23054 -1.612 0
M  V30 2817 C 313.458 0.207404 -1.93089 0
M  V30 2818 O 312.733 1.14432 -1.57275 0
M  V30 2819 C 313.016 -2.08937 -2.93287 0
M  V30 2820 C 312.869 -3.61105 -2.68185 0
M  V30 2821 C 314.188 -1.94986 -3.94549 0
M  V30 2822 H 311.307 -0.448364 -0.584926 0
M  V30 2823 H 313.949 -1.62297 -0.987917 0
M  V30 2824 H 312.099 -1.75599 -3.46551 0
M  V30 2825 H 313.771 -4.04652 -2.21483 0
M  V30 2826 H 312.014 -3.83813 -2.02164 0
M  V30 2827 H 312.685 -4.16522 -3.62234 0
M  V30 2828 H 315.161 -2.24189 -3.5054 0
M  V30 2829 H 314.037 -2.57356 -4.84829 0
M  V30 2830 H 314.298 -0.917263 -4.3248 0
M  V30 2831 N 313.357 1.07166 -1.15556 0
M  V30 2832 C 314.582 1.84053 -0.955988 0
M  V30 2833 C 315.007 1.81586 0.490739 0
M  V30 2834 O 314.365 1.21018 1.34997 0
M  V30 2835 C 314.413 3.28957 -1.47714 0
M  V30 2836 O 313.517 4.06795 -0.677593 0
M  V30 2837 H 312.858 0.569842 -0.340847 0
M  V30 2838 H 315.388 1.35178 -1.53584 0
M  V30 2839 H 315.398 3.79788 -1.4908 0
M  V30 2840 H 314.073 3.30068 -2.53037 0
M  V30 2841 H 312.65 3.6561 -0.733721 0
M  V30 2842 N 314.835 0.952656 1.25548 0
M  V30 2843 C 316.251 0.656769 1.4546 0
M  V30 2844 C 316.451 -0.78633 1.85524 0
M  V30 2845 O 315.507 -1.56183 1.98402 0
M  V30 2846 C 316.82 1.62801 2.52817 0
M  V30 2847 C 318.368 1.63897 2.66659 0
M  V30 2848 C 318.843 2.5978 3.77198 0
M  V30 2849 N 320.334 2.58133 3.84606 0
M  V30 2850 C 321.069 3.29003 4.69621 0
M  V30 2851 N 320.565 4.09339 5.58939 0
M  V30 2852 N 322.358 3.179 4.63569 0
M  V30 2853 H 314.509 1.88526 0.978344 0
M  V30 2854 H 316.772 0.810815 0.491206 0
M  V30 2855 H 316.478 2.65869 2.30232 0
M  V30 2856 H 316.352 1.38898 3.50695 0
M  V30 2857 H 318.739 0.615481 2.8861 0
M  V30 2858 H 318.82 1.91858 1.69187 0
M  V30 2859 H 318.464 3.62254 3.55997 0
M  V30 2860 H 318.394 2.29105 4.7415 0
M  V30 2861 H 320.885 1.99809 3.20757 0
M  V30 2862 H 321.198 4.6034 6.20731 0
M  V30 2863 H 319.543 4.13438 5.58654 0
M  V30 2864 H 322.734 2.54612 3.92798 0
M  V30 2865 H 322.907 3.73398 5.29602 0
M  V30 2866 N 316.313 -1.40141 0.720998 0
M  V30 2867 C 317.561 -2.0039 0.262323 0
M  V30 2868 C 317.882 -1.57469 -1.15015 0
M  V30 2869 O 317.152 -0.816582 -1.78069 0
M  V30 2870 H 315.732 -0.741063 0.093996 0
M  V30 2871 H 318.394 -1.71398 0.927835 0
M  V30 2872 H 317.49 -3.10658 0.299671 0
M  V30 2873 N 317.792 -0.46758 -1.50504 0
M  V30 2874 C 319.208 -0.121533 -1.59137 0
M  V30 2875 C 319.408 1.3717 -1.47603 0
M  V30 2876 O 318.464 2.14464 -1.33272 0
M  V30 2877 C 319.777 -0.6686 -2.93173 0
M  V30 2878 C 321.325 -0.631716 -3.06559 0
M  V30 2879 C 321.8 -1.15627 -4.43164 0
M  V30 2880 N 323.291 -1.11553 -4.49567 0
M  V30 2881 C 324.026 -1.49195 -5.5365 0
M  V30 2882 N 323.522 -1.94269 -6.65005 0
M  V30 2883 N 325.315 -1.4082 -5.44175 0
M  V30 2884 H 317.466 -1.4388 -1.56245 0
M  V30 2885 H 319.729 -0.594784 -0.738198 0
M  V30 2886 H 319.435 -1.71453 -3.07078 0
M  V30 2887 H 319.309 -0.11021 -3.77039 0
M  V30 2888 H 321.696 0.405297 -2.92304 0
M  V30 2889 H 321.777 -1.22687 -2.24458 0
M  V30 2890 H 321.421 -2.1919 -4.58168 0
M  V30 2891 H 321.351 -0.537365 -5.23851 0
M  V30 2892 H 323.842 -0.784895 -3.69659 0
M  V30 2893 H 324.155 -2.21148 -7.40482 0
M  V30 2894 H 322.5 -1.98219 -6.66134 0
M  V30 2895 H 325.691 -1.0545 -4.56068 0
M  V30 2896 H 325.864 -1.70481 -6.25172 0
M  V30 2897 N 319.27 1.56325 -0.20005 0
M  V30 2898 C 320.518 1.97329 0.436547 0
M  V30 2899 C 320.839 1.08826 1.61808 0
M  V30 2900 O 320.109 0.160604 1.95241 0
M  V30 2901 H 318.689 0.728714 0.164272 0
M  V30 2902 H 321.351 1.92761 -0.287937 0
M  V30 2903 H 320.447 3.02264 0.777353 0
M  V30 2904 N 320.748 -0.0735177 1.57428 0
M  V30 2905 C 321.996 -0.771472 1.86796 0
M  V30 2906 C 322.317 -1.78201 0.791804 0
M  V30 2907 O 321.587 -1.95074 -0.179718 0
M  V30 2908 H 320.167 -0.28791 0.689287 0
M  V30 2909 H 322.829 -0.0500161 1.94836 0
M  V30 2910 H 321.925 -1.28874 2.8425 0
M  V30 2911 N 322.226 -1.5378 -0.344866 0
M  V30 2912 C 323.637 -1.62428 -0.920552 0
M  V30 2913 C 323.988 -0.504747 -1.89596 0
M  V30 2914 O 323.113 0.365711 -2.13287 0
M  V30 2915 C 323.708 -2.94419 -1.67639 0
M  V30 2916 C 322.267 -3.05333 -2.20111 0
M  V30 2917 C 321.414 -2.57866 -1.01982 0
M  V30 2918 H 324.365 -1.58222 -0.123042 0
M  V30 2919 H 324.386 -2.83384 -2.53917 0
M  V30 2920 H 323.898 -3.7588 -0.966224 0
M  V30 2921 H 321.999 -2.28502 -2.94308 0
M  V30 2922 H 322.112 -4.10778 -2.46573 0
M  V30 2923 H 320.476 -2.13241 -1.39285 0
M  V30 2924 H 321.259 -3.41765 -0.324308 0
M  V30 2925 N 323.704 0.605807 -1.45491 0
M  V30 2926 C 325.115 1.18777 -1.44045 0
M  V30 2927 C 325.466 1.95471 -0.169001 0
M  V30 2928 O 324.591 2.0374 0.729324 0
M  V30 2929 C 325.186 2.16064 -2.60963 0
M  V30 2930 C 323.745 2.69633 -2.62631 0
M  V30 2931 C 322.892 1.45072 -2.36325 0
M  V30 2932 H 325.843 0.395017 -1.53705 0
M  V30 2933 H 325.864 2.9913 -2.35163 0
M  V30 2934 H 325.376 1.60217 -3.53486 0
M  V30 2935 H 323.477 3.29414 -1.74119 0
M  V30 2936 H 323.59 3.13944 -3.61906 0
M  V30 2937 H 321.954 1.74089 -1.85917 0
M  V30 2938 H 322.737 0.910899 -3.30995 0
M  V30 2939 N 325.182 1.32811 0.848464 0
M  V30 2940 C 326.43 1.23479 1.59991 0
M  V30 2941 C 326.751 -0.201853 1.93952 0
M  V30 2942 O 326.021 -1.12818 1.60153 0
M  V30 2943 H 324.601 0.454034 0.593179 0
M  V30 2944 H 327.263 1.66412 1.01455 0
M  V30 2945 H 326.359 1.82178 2.53412 0
M  V30 2946 N 326.66 -1.06551 1.16123 0
M  V30 2947 C 327.592 -2.13908 0.823171 0
M  V30 2948 C 328.605 -1.61926 -0.16843 0
M  V30 2949 O 329.794 -1.78412 0.055962 0
M  V30 2950 C 326.894 -3.38283 0.204424 0
M  V30 2951 C 326.067 -4.19589 1.23548 0
M  V30 2952 C 325.126 -5.2233 0.637011 0
M  V30 2953 O 324.152 -5.54034 1.30516 0
M  V30 2954 N 325.354 -5.77621 -0.577474 0
M  V30 2955 H 328.119 -2.43508 1.74711 0
M  V30 2956 H 325.68 -1.2253 1.05821 0
M  V30 2957 H 327.672 -4.0416 -0.208909 0
M  V30 2958 H 326.242 -3.06329 -0.623012 0
M  V30 2959 H 325.462 -3.49406 1.82507 0
M  V30 2960 H 326.75 -4.70718 1.93137 0
M  V30 2961 H 326.148 -5.54125 -1.13853 0
M  V30 2962 H 324.705 -6.45087 -0.933053 0
M  V30 2963 N 328.138 -0.959301 -1.25041 0
M  V30 2964 C 329.385 -0.616611 -1.92884 0
M  V30 2965 C 329.713 0.847036 -1.75087 0
M  V30 2966 O 328.968 1.62374 -1.09239 0
M  V30 2967 C 329.267 -0.927136 -3.45165 0
M  V30 2968 C 328.933 -2.37757 -3.83122 0
M  V30 2969 C 327.595 -2.77402 -3.93194 0
M  V30 2970 C 329.947 -3.31929 -4.01836 0
M  V30 2971 C 327.275 -4.10277 -4.19392 0
M  V30 2972 C 329.627 -4.64423 -4.29528 0
M  V30 2973 C 328.291 -5.03857 -4.37818 0
M  V30 2974 H 327.561 -0.225634 -0.705812 0
M  V30 2975 H 330.208 -1.20921 -1.48493 0
M  V30 2976 H 328.513 -0.252195 -3.90987 0
M  V30 2977 H 330.21 -0.6405 -3.95852 0
M  V30 2978 H 326.8 -2.06013 -3.75841 0
M  V30 2979 H 330.984 -3.02488 -3.93465 0
M  V30 2980 H 326.24 -4.40467 -4.24027 0
M  V30 2981 H 330.414 -5.37369 -4.42953 0
M  V30 2982 H 328.041 -6.06843 -4.57871 0
M  V30 2983 N 329.616 1.39756 -0.72842 0
M  V30 2984 C 330.566 2.2792 -0.0603424 0
M  V30 2985 C 331.55 1.43922 0.719399 0
M  V30 2986 O 332.742 1.66895 0.589489 0
M  V30 2987 C 329.871 3.32582 0.851104 0
M  V30 2988 C 328.957 4.24049 0.0658641 0
M  V30 2989 N 329.348 4.96653 -0.957578 0
M  V30 2990 C 327.646 4.45013 0.296509 0
M  V30 2991 C 328.347 5.63836 -1.43052 0
M  V30 2992 N 327.323 5.38397 -0.750315 0
M  V30 2993 H 331.125 2.81504 -0.84455 0
M  V30 2994 H 328.639 1.5236 -0.562155 0
M  V30 2995 H 330.636 3.94603 1.34514 0
M  V30 2996 H 329.296 2.80558 1.63454 0
M  V30 2997 H 330.307 5.00297 -1.33877 0
M  V30 2998 H 326.984 4.03943 1.05527 0
M  V30 2999 H 328.374 6.31974 -2.28163 0
M  V30 3000 N 331.094 0.475555 1.50254 0
M  V30 3001 C 332.371 -0.139685 1.95101 0
M  V30 3002 C 332.751 -1.56555 1.41611 0
M  V30 3003 O 332.099 -2.19956 0.618993 0
M  V30 3004 C 332.309 -0.0784298 3.48912 0
M  V30 3005 C 333.657 -0.265095 4.23772 0
M  V30 3006 O 334.681 -0.154808 3.55863 0
M  V30 3007 O 333.54 -0.488327 5.44314 0
M  V30 3008 H 330.634 -0.109236 0.819754 0
M  V30 3009 H 333.18 0.536276 1.61004 0
M  V30 3010 H 331.952 0.916918 3.80405 0
M  V30 3011 H 331.575 -0.795655 3.89558 0
M  V30 3012 N 332.573 -1.56217 0.208337 0
M  V30 3013 C 333.521 -2.21053 -0.723769 0
M  V30 3014 C 334.515 -1.18578 -1.20978 0
M  V30 3015 O 335.721 -1.36691 -1.17114 0
M  V30 3016 H 332.096 -0.708595 -0.251788 0
M  V30 3017 H 334.067 -2.98006 -0.153365 0
M  V30 3018 C 332.816 -2.89417 -1.927 0
M  V30 3019 H 332.139 -3.68019 -1.56212 0
M  V30 3020 H 333.579 -3.38201 -2.55727 0
M  V30 3021 C 332.038 -1.91166 -2.77411 0
M  V30 3022 O 332.568 -1.42026 -3.75754 0
M  V30 3023 N 330.774 -1.59105 -2.43175 0
M  V30 3024 H 330.321 -1.99259 -1.63259 0
M  V30 3025 H 330.279 -0.936255 -3.00136 0
M  V30 3026 N 334.051 0.0651679 -1.57465 0
M  V30 3027 C 335.014 1.06117 -2.03155 0
M  V30 3028 C 336.014 1.31204 -0.929632 0
M  V30 3029 O 337.204 1.26813 -1.19432 0
M  V30 3030 C 334.336 2.4032 -2.41783 0
M  V30 3031 H 335.529 0.667231 -2.92383 0
M  V30 3032 H 333.082 0.311075 -1.53173 0
M  V30 3033 H 333.817 2.84532 -1.55601 0
M  V30 3034 H 333.602 2.23451 -3.22199 0
M  V30 3035 H 335.092 3.11898 -2.77685 0
M  V30 3036 N 335.529 1.53961 0.336706 0
M  V30 3037 C 336.477 1.83136 1.43401 0
M  V30 3038 C 337.471 0.702313 1.54156 0
M  V30 3039 O 338.677 0.885765 1.56698 0
M  V30 3040 H 335.052 0.580309 0.478273 0
M  V30 3041 H 337.023 2.74925 1.16012 0
M  V30 3042 C 335.772 2.06385 2.79822 0
M  V30 3043 H 335.095 2.92718 2.72316 0
M  V30 3044 H 336.535 2.30761 3.55704 0
M  V30 3045 C 334.994 0.851414 3.25964 0
M  V30 3046 O 335.524 0.0541904 4.01663 0
M  V30 3047 N 333.73 0.66672 2.82848 0
M  V30 3048 H 333.277 1.31665 2.21409 0
M  V30 3049 H 333.235 -0.143032 3.14074 0
M  V30 3050 N 337.007 -0.598083 1.45811 0
M  V30 3051 C 338.255 -1.35413 1.50026 0
M  V30 3052 C 338.576 -1.94444 0.147177 0
M  V30 3053 O 337.846 -1.77701 -0.824571 0
M  V30 3054 H 336.426 -0.502727 0.552517 0
M  V30 3055 H 339.088 -0.701606 1.81834 0
M  V30 3056 H 338.184 -2.16871 2.2444 0
M  V30 3057 N 338.485 -1.33259 -0.841409 0
M  V30 3058 C 339.733 -1.24326 -1.59334 0
M  V30 3059 C 340.054 0.191564 -1.94057 0
M  V30 3060 O 339.324 1.11967 -1.60749 0
M  V30 3061 H 337.904 -0.457174 -0.590763 0
M  V30 3062 H 340.566 -1.66947 -1.00571 0
M  V30 3063 H 339.662 -1.8352 -2.52442 0
M  V30 3064 N 339.963 1.05934 -1.16686 0
M  V30 3065 C 340.895 2.13468 -0.834503 0
M  V30 3066 C 341.908 1.62013 0.15984 0
M  V30 3067 O 343.097 1.7838 -0.0654228 0
M  V30 3068 C 340.197 3.3817 -0.222361 0
M  V30 3069 C 339.37 4.18928 -1.25771 0
M  V30 3070 C 338.429 5.21985 -0.664703 0
M  V30 3071 O 337.455 5.53334 -1.33453 0
M  V30 3072 N 338.657 5.77919 0.546834 0
M  V30 3073 H 341.422 2.42578 -1.75999 0
M  V30 3074 H 338.983 1.21967 -1.06469 0
M  V30 3075 H 340.975 4.04266 0.187472 0
M  V30 3076 H 339.545 3.06655 0.606758 0
M  V30 3077 H 338.765 3.48433 -1.84358 0
M  V30 3078 H 340.053 4.69687 -1.95631 0
M  V30 3079 H 339.451 5.54721 1.10912 0
M  V30 3080 H 338.008 6.45573 0.898829 0
M  V30 3081 N 341.441 0.965919 1.2453 0
M  V30 3082 C 342.389 0.486506 2.27455 0
M  V30 3083 C 343.383 -0.449041 1.6334 0
M  V30 3084 O 344.589 -0.324527 1.7705 0
M  V30 3085 H 340.964 0.138857 0.739069 0
M  V30 3086 H 342.935 1.3666 2.65267 0
M  V30 3087 C 341.684 -0.209481 3.47068 0
M  V30 3088 H 341.007 0.50129 3.96645 0
M  V30 3089 H 342.447 -0.508775 4.20936 0
M  V30 3090 C 340.906 -1.43586 3.0477 0
M  V30 3091 O 341.436 -2.53299 3.11773 0
M  V30 3092 N 339.642 -1.30126 2.59838 0
M  V30 3093 H 339.189 -0.408583 2.54339 0
M  V30 3094 H 339.147 -2.12294 2.31902 0
M  V30 3095 N 342.919 -1.39368 0.735821 0
M  V30 3096 C 344.167 -2.00101 0.283562 0
M  V30 3097 C 344.488 -1.5868 -1.13338 0
M  V30 3098 O 343.758 -0.835423 -1.77193 0
M  V30 3099 H 342.338 -0.740024 0.101851 0
M  V30 3100 H 345 -1.70404 0.945962 0
M  V30 3101 H 344.096 -3.10323 0.332604 0
M  V30 3102 N 344.397 -0.483516 -1.5 0
M  V30 3103 C 345.625 0.0644831 -2.06799 0
M  V30 3104 C 346.04 1.32399 -1.34596 0
M  V30 3105 O 345.397 1.77626 -0.418946 0
M  V30 3106 C 345.448 0.339927 -3.59898 0
M  V30 3107 O 345.169 -0.869635 -4.29382 0
M  V30 3108 C 346.67 0.933515 -4.33359 0
M  V30 3109 H 343.89 -0.0126333 -0.670881 0
M  V30 3110 H 346.434 -0.675864 -1.93009 0
M  V30 3111 H 344.589 1.03022 -3.7345 0
M  V30 3112 H 345.003 -0.62179 -5.20801 0
M  V30 3113 H 346.477 1.07593 -5.41413 0
M  V30 3114 H 346.954 1.92685 -3.94676 0
M  V30 3115 H 347.56 0.281221 -4.24369 0
M  V30 3116 N 345.875 1.56104 -0.216619 0
M  V30 3117 C 347.121 1.98466 0.417033 0
M  V30 3118 C 347.454 1.10403 1.59765 0
M  V30 3119 O 346.729 0.160632 1.93836 0
M  V30 3120 C 347.012 3.49769 0.85637 0
M  V30 3121 C 346.865 4.48606 -0.327546 0
M  V30 3122 C 348.184 4.05339 1.7143 0
M  V30 3123 H 345.303 0.721551 0.150112 0
M  V30 3124 H 347.945 1.87423 -0.311864 0
M  V30 3125 H 346.095 3.5931 1.47745 0
M  V30 3126 H 347.767 4.5108 -0.965618 0
M  V30 3127 H 346.01 4.22682 -0.975805 0
M  V30 3128 H 346.681 5.51995 0.0227149 0
M  V30 3129 H 349.157 3.98712 1.19031 0
M  V30 3130 H 348.033 5.11533 1.99061 0
M  V30 3131 H 348.294 3.51918 2.67593 0
M  V30 3132 N 347.353 -0.0568162 1.57498 0
M  V30 3133 C 348.285 -1.09292 2.01464 0
M  V30 3134 C 349.298 -1.34112 0.922913 0
M  V30 3135 O 350.487 -1.32089 1.20062 0
M  V30 3136 C 347.587 -2.44068 2.35125 0
M  V30 3137 C 346.76 -2.38995 3.66333 0
M  V30 3138 C 345.819 -3.55997 3.87495 0
M  V30 3139 O 344.845 -3.36746 4.58901 0
M  V30 3140 N 346.047 -4.76888 3.30996 0
M  V30 3141 H 348.812 -0.718386 2.90963 0
M  V30 3142 H 346.373 -0.245235 1.60032 0
M  V30 3143 H 348.365 -3.21011 2.46443 0
M  V30 3144 H 346.935 -2.73468 1.5144 0
M  V30 3145 H 346.155 -1.47336 3.65631 0
M  V30 3146 H 347.443 -2.3272 4.52458 0
M  V30 3147 H 346.841 -4.95431 2.73065 0
M  V30 3148 H 345.398 -5.51291 3.47738 0
M  V30 3149 N 348.832 -1.54138 -0.328536 0
M  V30 3150 C 349.742 -1.86192 -1.42723 0
M  V30 3151 C 350.758 -0.753382 -1.56844 0
M  V30 3152 O 351.934 -1.04718 -1.72035 0
M  V30 3153 C 348.999 -2.07824 -2.77507 0
M  V30 3154 C 348.06 -3.31641 -2.72603 0
M  V30 3155 C 347.293 -3.52232 -4.00959 0
M  V30 3156 O 347.516 -2.7636 -4.9898 0
M  V30 3157 O 346.45 -4.45699 -4.0452 0
M  V30 3158 H 350.276 -2.79608 -1.18547 0
M  V30 3159 H 347.861 -1.3998 -0.522104 0
M  V30 3160 H 349.743 -2.23411 -3.57303 0
M  V30 3161 H 348.418 -1.17596 -3.01584 0
M  V30 3162 H 347.325 -3.21444 -1.91376 0
M  V30 3163 H 348.658 -4.2191 -2.53481 0
M  V30 3164 N 350.31 0.590341 -1.46126 0
M  V30 3165 C 351.559 1.34499 -1.50309 0
M  V30 3166 C 351.872 1.94977 -0.156021 0
M  V30 3167 O 353.078 2.71395 -0.0756037 0
M  V30 3168 C 351.534 2.43723 -2.64815 0
M  V30 3169 C 351.142 1.89582 -4.0591 0
M  V30 3170 C 352.886 3.20579 -2.78262 0
M  V30 3171 C 350.793 2.9639 -5.11769 0
M  V30 3172 H 349.723 0.505593 -0.559368 0
M  V30 3173 H 352.374 0.630848 -1.72315 0
M  V30 3174 H 350.756 3.17902 -2.36124 0
M  V30 3175 H 351.93 1.21997 -4.44357 0
M  V30 3176 H 350.245 1.25418 -3.97063 0
M  V30 3177 H 352.842 4.00276 -3.54519 0
M  V30 3178 H 353.185 3.72684 -1.85505 0
M  V30 3179 H 353.718 2.53505 -3.06562 0
M  V30 3180 H 350.457 2.49181 -6.06291 0
M  V30 3181 H 349.977 3.62487 -4.77873 0
M  V30 3182 H 351.656 3.60474 -5.37278 0
M  V30 3183 N 351.788 1.33704 0.83433 0
M  V30 3184 C 352.721 1.18675 1.94914 0
M  V30 3185 C 353.699 0.0811145 1.62398 0
M  V30 3186 O 354.883 0.244186 1.86912 0
M  V30 3187 C 352.01 0.821231 3.28593 0
M  V30 3188 C 351.056 1.93501 3.80079 0
M  V30 3189 S 351.889 3.54671 4.01209 0
M  V30 3190 C 353.045 3.20136 5.37833 0
M  V30 3191 H 353.278 2.13043 2.07364 0
M  V30 3192 H 350.811 1.18598 0.988624 0
M  V30 3193 H 352.769 0.617123 4.05835 0
M  V30 3194 H 351.43 -0.103927 3.13928 0
M  V30 3195 H 350.623 1.63273 4.76821 0
M  V30 3196 H 350.225 2.09601 3.09747 0
M  V30 3197 H 352.517 2.71242 6.20833 0
M  V30 3198 H 353.46 4.15975 5.73036 0
M  V30 3199 H 353.868 2.56613 5.02802 0
M  V30 3200 N 353.266 -1.05314 1.17247 0
M  V30 3201 C 354.515 -1.77685 0.954521 0
M  V30 3202 C 354.828 -1.88616 -0.518025 0
M  V30 3203 O 356.034 -2.57714 -0.854144 0
M  V30 3204 C 354.49 -3.19402 1.65863 0
M  V30 3205 C 354.098 -3.16605 3.16963 0
M  V30 3206 C 355.842 -3.96237 1.52303 0
M  V30 3207 C 353.749 -4.53103 3.80068 0
M  V30 3208 H 352.679 -0.666 0.353496 0
M  V30 3209 H 355.33 -1.1805 1.40486 0
M  V30 3210 H 353.712 -3.79355 1.13602 0
M  V30 3211 H 354.886 -2.66176 3.76148 0
M  V30 3212 H 353.201 -2.53268 3.30521 0
M  V30 3213 H 355.798 -4.97157 1.96822 0
M  V30 3214 H 356.141 -4.136 0.473401 0
M  V30 3215 H 356.674 -3.42829 2.01775 0
M  V30 3216 H 353.413 -4.40946 4.85023 0
M  V30 3217 H 352.933 -5.03686 3.2567 0
M  V30 3218 H 354.612 -5.22045 3.82202 0
M  V30 3219 N 354.744 -0.972509 -1.24016 0
M  V30 3220 C 356.155 -0.67517 -1.74064 0
M  V30 3221 C 356.506 0.808939 -1.78747 0
M  V30 3222 O 355.631 1.63286 -1.42009 0
M  V30 3223 C 356.226 -1.21889 -3.16115 0
M  V30 3224 C 354.785 -0.971358 -3.6365 0
M  V30 3225 C 353.932 -1.35134 -2.42145 0
M  V30 3226 H 356.883 -1.14727 -1.09651 0
M  V30 3227 H 356.904 -0.587489 -3.75937 0
M  V30 3228 H 356.416 -2.29906 -3.12674 0
M  V30 3229 H 354.517 0.0930686 -3.72484 0
M  V30 3230 H 354.63 -1.62039 -4.50866 0
M  V30 3231 H 352.994 -0.769751 -2.4279 0
M  V30 3232 H 353.777 -2.4411 -2.41381 0
M  V30 3233 N 356.222 1.38976 -0.743202 0
M  V30 3234 C 357.185 2.28901 -0.117014 0
M  V30 3235 C 358.185 1.46698 0.658503 0
M  V30 3236 O 359.375 1.67274 0.486305 0
M  V30 3237 C 356.507 3.30309 0.84315 0
M  V30 3238 H 357.7 2.8578 -0.909373 0
M  V30 3239 H 355.253 1.47761 -0.509547 0
M  V30 3240 H 355.988 2.785 1.66157 0
M  V30 3241 H 355.773 3.91029 0.289594 0
M  V30 3242 H 357.263 3.97577 1.2776 0
M  V30 3243 N 357.7 0.491464 1.49741 0
M  V30 3244 C 358.948 -0.0563141 2.02022 0
M  V30 3245 C 359.269 -1.38363 1.37407 0
M  V30 3246 O 358.539 -1.88702 0.526166 0
M  V30 3247 H 357.119 -0.0238014 0.746621 0
M  V30 3248 H 359.781 0.646533 1.83864 0
M  V30 3249 H 358.877 -0.192967 3.11503 0
M  V30 3250 N 359.178 -1.55987 0.224894 0
M  V30 3251 C 360.125 -2.20436 -0.68385 0
M  V30 3252 C 361.095 -1.16102 -1.18783 0
M  V30 3253 O 362.28 -1.4447 -1.24632 0
M  V30 3254 C 359.42 -2.89076 -1.88491 0
M  V30 3255 C 358.533 -4.08012 -1.41951 0
M  V30 3256 C 357.668 -4.64426 -2.5784 0
M  V30 3257 C 356.707 -5.75656 -2.08053 0
M  V30 3258 N 355.844 -6.26347 -3.17227 0
M  V30 3259 H 360.684 -2.97727 -0.12754 0
M  V30 3260 H 358.221 -1.47011 -0.0511978 0
M  V30 3261 H 360.179 -3.27059 -2.59014 0
M  V30 3262 H 358.809 -2.14298 -2.41405 0
M  V30 3263 H 357.861 -3.75492 -0.609095 0
M  V30 3264 H 359.173 -4.88375 -1.01447 0
M  V30 3265 H 358.327 -5.04869 -3.3644 0
M  V30 3266 H 357.066 -3.83233 -3.01635 0
M  V30 3267 H 356.071 -5.34712 -1.27916 0
M  V30 3268 H 357.296 -6.58686 -1.65255 0
M  V30 3269 H 355.242 -5.48067 -3.60497 0
M  V30 3270 H 355.159 -7.01843 -2.80986 0
M  V30 3271 H 356.427 -6.71447 -3.95953 0
M  V30 3272 N 360.656 0.0484629 -1.57525 0
M  V30 3273 C 361.619 1.03956 -2.04269 0
M  V30 3274 C 362.619 1.30211 -0.943496 0
M  V30 3275 O 363.809 1.25539 -1.20771 0
M  V30 3276 C 360.941 2.37742 -2.44319 0
M  V30 3277 H 362.134 0.636182 -2.93075 0
M  V30 3278 H 359.687 0.294811 -1.53494 0
M  V30 3279 H 360.422 2.82866 -1.5861 0
M  V30 3280 H 360.207 2.20021 -3.24551 0
M  V30 3281 H 361.697 3.08936 -2.80978 0
M  V30 3282 N 362.134 1.5431 0.320358 0
M  V30 3283 C 363.382 1.72327 1.05583 0
M  V30 3284 C 363.703 0.50149 1.88441 0
M  V30 3285 O 362.973 -0.48448 1.89815 0
M  V30 3286 H 361.553 0.635387 0.3928 0
M  V30 3287 H 364.215 1.91621 0.356019 0
M  V30 3288 H 363.311 2.60426 1.72003 0
M  V30 3289 N 363.613 -0.582584 1.46437 0
M  V30 3290 C 364.543 -1.70187 1.59871 0
M  V30 3291 C 365.524 -1.64066 0.449042 0
M  V30 3292 O 366.709 -1.82081 0.6753 0
M  V30 3293 C 363.839 -3.08827 1.58881 0
M  V30 3294 C 362.793 -3.29779 2.72819 0
M  V30 3295 C 362.119 -4.68947 2.5689 0
M  V30 3296 C 363.419 -3.17601 4.1464 0
M  V30 3297 H 365.113 -1.592 2.53566 0
M  V30 3298 H 362.659 -0.764472 1.22032 0
M  V30 3299 H 364.612 -3.86951 1.66873 0
M  V30 3300 H 363.336 -3.20713 0.617306 0
M  V30 3301 H 361.995 -2.54054 2.64296 0
M  V30 3302 H 361.643 -4.77599 1.57823 0
M  V30 3303 H 361.343 -4.83919 3.33312 0
M  V30 3304 H 362.867 -5.4924 2.66773 0
M  V30 3305 H 364.281 -3.8557 4.24274 0
M  V30 3306 H 362.678 -3.44094 4.9165 0
M  V30 3307 H 363.748 -2.14681 4.34788 0
M  V30 3308 N 365.091 -1.34144 -0.827227 0
M  V30 3309 C 366.337 -1.26446 -1.58554 0
M  V30 3310 C 366.67 0.1664 -1.93486 0
M  V30 3311 O 365.945 1.1107 -1.59667 0
M  V30 3312 C 366.228 -2.15111 -2.8879 0
M  V30 3313 C 366.081 -3.66712 -2.60465 0
M  V30 3314 C 367.4 -2.03311 -3.90324 0
M  V30 3315 H 364.519 -0.46067 -0.575284 0
M  V30 3316 H 367.161 -1.64356 -0.953269 0
M  V30 3317 H 365.311 -1.8291 -3.42748 0
M  V30 3318 H 366.983 -4.09259 -2.1285 0
M  V30 3319 H 365.226 -3.88014 -1.93978 0
M  V30 3320 H 365.897 -4.24112 -3.53317 0
M  V30 3321 H 368.373 -2.31574 -3.45706 0
M  V30 3322 H 367.249 -2.67582 -4.79261 0
M  V30 3323 H 367.51 -1.00879 -4.30437 0
M  V30 3324 N 366.569 1.04691 -1.17803 0
M  V30 3325 C 367.818 1.77176 -0.963931 0
M  V30 3326 C 368.131 1.88888 0.508015 0
M  V30 3327 O 369.337 2.58164 0.840465 0
M  V30 3328 C 367.793 3.18518 -1.67555 0
M  V30 3329 C 367.401 3.14919 -3.18637 0
M  V30 3330 C 369.145 3.95424 -1.54402 0
M  V30 3331 C 367.052 4.51081 -3.82466 0
M  V30 3332 H 365.982 0.664116 -0.357023 0
M  V30 3333 H 368.633 1.17303 -1.4111 0
M  V30 3334 H 367.015 3.78748 -1.15613 0
M  V30 3335 H 368.189 2.64178 -3.77554 0
M  V30 3336 H 366.504 2.51512 -3.31859 0
M  V30 3337 H 369.101 4.96106 -1.99456 0
M  V30 3338 H 369.444 4.13343 -0.495329 0
M  V30 3339 H 369.977 3.41754 -2.0359 0
M  V30 3340 H 366.716 4.38368 -4.87354 0
M  V30 3341 H 366.236 5.01951 -3.28337 0
M  V30 3342 H 367.915 5.2001 -3.84965 0
M  V30 3343 N 368.047 0.979072 1.23499 0
M  V30 3344 C 369.295 0.645941 1.91499 0
M  V30 3345 C 369.616 -0.822948 1.76784 0
M  V30 3346 O 368.886 -1.58854 1.14639 0
M  V30 3347 H 367.466 0.235919 0.708767 0
M  V30 3348 H 370.128 1.2426 1.50152 0
M  V30 3349 H 369.224 0.896411 2.9895 0
M  V30 3350 N 369.525 -1.3858 0.750561 0
M  V30 3351 C 370.472 -2.30483 0.120835 0
M  V30 3352 C 371.442 -1.50022 -0.712923 0
M  V30 3353 O 372.627 -1.78662 -0.669676 0
M  V30 3354 C 369.767 -3.36431 -0.768666 0
M  V30 3355 C 368.88 -4.31927 0.0793922 0
M  V30 3356 C 368.015 -5.24944 -0.81283 0
M  V30 3357 C 367.054 -6.12088 0.0390447 0
M  V30 3358 N 366.191 -6.97412 -0.809969 0
M  V30 3359 H 371.031 -2.83761 0.91015 0
M  V30 3360 H 368.568 -1.39707 0.460463 0
M  V30 3361 H 370.526 -3.96462 -1.29898 0
M  V30 3362 H 369.156 -2.8457 -1.5238 0
M  V30 3363 H 368.208 -3.73382 0.727303 0
M  V30 3364 H 369.52 -4.93319 0.737401 0
M  V30 3365 H 368.674 -5.90078 -1.41042 0
M  V30 3366 H 367.413 -4.63911 -1.50458 0
M  V30 3367 H 366.418 -5.45952 0.649328 0
M  V30 3368 H 367.643 -6.75189 0.727809 0
M  V30 3369 H 365.589 -6.38931 -1.48672 0
M  V30 3370 H 365.506 -7.55712 -0.208789 0
M  V30 3371 H 366.774 -7.66959 -1.39263 0
M  V30 3372 N 371.003 -0.499398 -1.49478 0
M  V30 3373 C 372.251 0.0455996 -2.02049 0
M  V30 3374 C 372.572 1.37633 -1.38138 0
M  V30 3375 O 371.842 1.8842 -0.536166 0
M  V30 3376 H 370.422 0.0198416 -0.746736 0
M  V30 3377 H 373.084 -0.656274 -1.83519 0
M  V30 3378 H 372.18 0.176445 -3.11601 0
M  V30 3379 N 372.481 1.55866 -0.233164 0
M  V30 3380 C 373.729 1.9821 0.394593 0
M  V30 3381 C 374.05 1.12234 1.59463 0
M  V30 3382 O 373.32 0.201981 1.94856 0
M  V30 3383 H 371.9 0.732034 0.148778 0
M  V30 3384 H 374.562 1.92107 -0.32876 0
M  V30 3385 H 373.658 3.03845 0.713063 0
M  V30 3386 N 373.959 -0.0401083 1.57549 0
M  V30 3387 C 374.869 -1.06133 2.0922 0
M  V30 3388 C 375.885 -1.40356 1.0284 0
M  V30 3389 O 377.061 -1.49897 1.34509 0
M  V30 3390 C 374.126 -2.34658 2.55218 0
M  V30 3391 C 373.187 -2.07117 3.76033 0
M  V30 3392 C 372.42 -3.29514 4.19829 0
M  V30 3393 O 372.643 -4.39794 3.63232 0
M  V30 3394 O 371.577 -3.15863 5.12362 0
M  V30 3395 H 375.403 -0.652244 2.96613 0
M  V30 3396 H 372.988 -0.256368 1.47184 0
M  V30 3397 H 374.87 -3.10239 2.85184 0
M  V30 3398 H 373.545 -2.74883 1.70941 0
M  V30 3399 H 372.452 -1.29139 3.51104 0
M  V30 3400 H 373.785 -1.71754 4.61261 0
M  V30 3401 N 375.437 -1.54477 -0.31217 0
M  V30 3402 C 376.665 -1.77205 -1.068 0
M  V30 3403 C 377.08 -0.526114 -1.81321 0
M  V30 3404 O 376.437 0.503647 -1.75413 0
M  V30 3405 C 376.488 -2.97253 -2.05725 0
M  V30 3406 O 376.209 -4.1703 -1.34228 0
M  V30 3407 C 377.71 -3.32281 -2.93435 0
M  V30 3408 H 374.93 -0.591287 -0.317208 0
M  V30 3409 H 377.474 -2.01398 -0.354834 0
M  V30 3410 H 375.629 -2.753 -2.72559 0
M  V30 3411 H 376.043 -4.84636 -2.00571 0
M  V30 3412 H 377.517 -4.19551 -3.58721 0
M  V30 3413 H 377.994 -2.49945 -3.61143 0
M  V30 3414 H 378.6 -3.56353 -2.32147 0
M  V30 3415 N 376.915 0.57481 -1.46744 0
M  V30 3416 C 378.164 1.32898 -1.51727 0
M  V30 3417 C 378.477 1.948 -0.176692 0
M  V30 3418 O 379.683 2.71299 -0.104385 0
M  V30 3419 C 378.139 2.40901 -2.67385 0
M  V30 3420 C 377.747 1.85266 -4.07898 0
M  V30 3421 C 379.491 3.17609 -2.81646 0
M  V30 3422 C 377.398 2.90945 -5.14883 0
M  V30 3423 H 376.328 0.499631 -0.564699 0
M  V30 3424 H 378.979 0.612536 -1.72975 0
M  V30 3425 H 377.361 3.15379 -2.39483 0
M  V30 3426 H 378.535 1.17278 -4.45626 0
M  V30 3427 H 376.85 1.21199 -3.98371 0
M  V30 3428 H 379.447 3.96493 -3.58744 0
M  V30 3429 H 379.79 3.70696 -1.89448 0
M  V30 3430 H 380.323 2.50239 -3.09233 0
M  V30 3431 H 377.062 2.42736 -6.089 0
M  V30 3432 H 376.582 3.57398 -4.81691 0
M  V30 3433 H 378.261 3.54755 -5.41071 0
M  V30 3434 N 378.394 1.34581 0.820102 0
M  V30 3435 C 379.341 1.2639 1.93117 0
M  V30 3436 C 380.311 0.138554 1.65521 0
M  V30 3437 O 381.496 0.320004 1.88097 0
M  V30 3438 C 378.636 1.02812 3.29429 0
M  V30 3439 C 377.749 2.24146 3.693 0
M  V30 3440 C 376.884 1.93829 4.94574 0
M  V30 3441 C 375.923 3.1129 5.27034 0
M  V30 3442 N 375.06 2.80838 6.43486 0
M  V30 3443 H 379.9 2.21408 1.99455 0
M  V30 3444 H 377.437 1.10077 0.975784 0
M  V30 3445 H 379.395 0.871788 4.0799 0
M  V30 3446 H 378.025 0.114612 3.22596 0
M  V30 3447 H 377.077 2.50691 2.86109 0
M  V30 3448 H 378.389 3.11899 3.89257 0
M  V30 3449 H 377.543 1.74948 5.80929 0
M  V30 3450 H 376.282 1.03341 4.76626 0
M  V30 3451 H 375.287 3.30764 4.39175 0
M  V30 3452 H 376.512 4.02561 5.4692 0
M  V30 3453 H 374.458 1.92929 6.26988 0
M  V30 3454 H 374.375 3.62123 6.63629 0
M  V30 3455 H 375.643 2.65467 7.32903 0
M  V30 3456 N 379.872 -1.04064 1.18357 0
M  V30 3457 C 380.804 -2.12114 0.868358 0
M  V30 3458 C 381.817 -1.62247 -0.134045 0
M  V30 3459 O 383.006 -1.78253 0.0937933 0
M  V30 3460 C 380.106 -3.37773 0.276132 0
M  V30 3461 C 379.279 -4.16874 1.3242 0
M  V30 3462 C 378.338 -5.20861 0.747662 0
M  V30 3463 O 377.364 -5.51141 1.42239 0
M  V30 3464 N 378.566 -5.78715 -0.454823 0
M  V30 3465 H 381.331 -2.39748 1.79836 0
M  V30 3466 H 378.892 -1.20258 1.08396 0
M  V30 3467 H 380.884 -4.04513 -0.123133 0
M  V30 3468 H 379.454 -3.07581 -0.557895 0
M  V30 3469 H 378.674 -3.45456 1.89878 0
M  V30 3470 H 379.962 -4.66516 2.03078 0
M  V30 3471 H 379.36 -5.56415 -1.02073 0
M  V30 3472 H 377.917 -6.46921 -0.79601 0
M  V30 3473 N 381.35 -0.985608 -1.22978 0
M  V30 3474 C 382.28 -0.549649 -2.26939 0
M  V30 3475 C 383.261 0.419803 -1.64838 0
M  V30 3476 O 384.446 0.31203 -1.91677 0
M  V30 3477 C 381.576 0.143652 -3.47003 0
M  V30 3478 C 380.53 -0.743606 -4.21491 0
M  V30 3479 C 379.856 0.0822027 -5.34637 0
M  V30 3480 C 381.156 -2.03694 -4.80943 0
M  V30 3481 H 382.85 -1.41862 -2.63658 0
M  V30 3482 H 380.396 -0.683571 -1.26741 0
M  V30 3483 H 382.349 0.459985 -4.18882 0
M  V30 3484 H 381.073 1.04711 -3.09359 0
M  V30 3485 H 379.732 -1.04347 -3.51436 0
M  V30 3486 H 379.38 0.986359 -4.93234 0
M  V30 3487 H 379.08 -0.508377 -5.85397 0
M  V30 3488 H 380.604 0.392797 -6.09335 0
M  V30 3489 H 382.018 -1.78504 -5.44802 0
M  V30 3490 H 380.415 -2.57573 -5.42011 0
M  V30 3491 H 381.485 -2.72042 -4.01399 0
M  V30 3492 N 382.828 1.3818 -0.7579 0
M  V30 3493 C 383.76 2.2901 -0.0932177 0
M  V30 3494 C 384.773 1.47958 0.679136 0
M  V30 3495 O 385.962 1.70773 0.519514 0
M  V30 3496 C 383.062 3.26953 0.89192 0
M  V30 3497 C 382.235 4.37045 0.176303 0
M  V30 3498 C 381.294 5.15148 1.07281 0
M  V30 3499 O 380.32 5.66616 0.541728 0
M  V30 3500 N 381.522 5.28542 2.40049 0
M  V30 3501 H 384.287 2.86694 -0.873303 0
M  V30 3502 H 381.848 1.50007 -0.609054 0
M  V30 3503 H 383.84 3.76083 1.49479 0
M  V30 3504 H 382.41 2.70136 1.57306 0
M  V30 3505 H 381.63 3.89493 -0.607328 0
M  V30 3506 H 382.918 5.07801 -0.318718 0
M  V30 3507 H 382.316 4.88285 2.85647 0
M  V30 3508 H 380.873 5.8103 2.95376 0
M  V30 3509 N 384.306 0.507319 1.49211 0
M  V30 3510 C 385.216 -0.272136 2.33016 0
M  V30 3511 C 386.232 -0.961206 1.45041 0
M  V30 3512 O 387.408 -0.941191 1.78055 0
M  V30 3513 C 384.473 -1.31895 3.20631 0
M  V30 3514 C 383.534 -0.642648 4.24463 0
M  V30 3515 C 382.767 -1.63959 5.07891 0
M  V30 3516 O 382.99 -2.87007 4.92933 0
M  V30 3517 O 381.924 -1.19143 5.8999 0
M  V30 3518 H 385.75 0.413982 3.00865 0
M  V30 3519 H 383.335 0.268556 1.46966 0
M  V30 3520 H 385.217 -1.92446 3.7489 0
M  V30 3521 H 383.892 -1.98788 2.5547 0
M  V30 3522 H 382.799 0.00276252 3.741 0
M  V30 3523 H 384.132 -0.0160534 4.92197 0
M  V30 3524 N 385.784 -1.5574 0.241426 0
M  V30 3525 C 387.2 -1.59196 -0.113548 0
M  V30 3526 C 387.4 -1.25852 -1.57364 0
M  V30 3527 O 386.456 -1.00322 -2.31715 0
M  V30 3528 C 387.769 -2.99814 0.230695 0
M  V30 3529 C 389.317 -3.12513 0.174547 0
M  V30 3530 C 389.792 -4.55342 0.492744 0
M  V30 3531 N 391.283 -4.61076 0.443043 0
M  V30 3532 C 392.018 -5.6956 0.662484 0
M  V30 3533 N 391.514 -6.86328 0.944761 0
M  V30 3534 N 393.307 -5.58957 0.593564 0
M  V30 3535 H 385.458 -1.75685 1.19368 0
M  V30 3536 H 387.721 -0.81756 0.479896 0
M  V30 3537 H 387.427 -3.28932 1.24485 0
M  V30 3538 H 387.301 -3.74568 -0.444833 0
M  V30 3539 H 389.688 -2.83179 -0.830277 0
M  V30 3540 H 389.769 -2.40045 0.883845 0
M  V30 3541 H 389.413 -4.85396 1.4951 0
M  V30 3542 H 389.343 -5.26062 -0.23797 0
M  V30 3543 H 391.834 -3.77179 0.233374 0
M  V30 3544 H 392.147 -7.64935 1.09977 0
M  V30 3545 H 390.492 -6.88025 0.982175 0
M  V30 3546 H 393.683 -4.66611 0.373123 0
M  V30 3547 H 393.856 -6.43433 0.767981 0
M  V30 3548 N 387.262 0.0317525 -1.57568 0
M  V30 3549 C 388.225 1.01783 -2.0536 0
M  V30 3550 C 389.225 1.29203 -0.957253 0
M  V30 3551 O 390.415 1.24251 -1.22095 0
M  V30 3552 C 387.547 2.35137 -2.46827 0
M  V30 3553 H 388.74 0.605062 -2.93733 0
M  V30 3554 H 386.293 0.278514 -1.53799 0
M  V30 3555 H 387.028 2.81168 -1.61602 0
M  V30 3556 H 386.813 2.16566 -3.26866 0
M  V30 3557 H 388.303 3.05938 -2.84239 0
M  V30 3558 N 388.74 1.54641 0.303973 0
M  V30 3559 C 389.988 1.73437 1.0375 0
M  V30 3560 C 390.309 0.521449 1.87899 0
M  V30 3561 O 389.579 -0.46432 1.90318 0
M  V30 3562 H 388.159 0.639518 0.386039 0
M  V30 3563 H 390.821 1.91988 0.335675 0
M  V30 3564 H 389.917 2.62235 1.69231 0
M  V30 3565 N 390.218 -0.567019 1.47046 0
M  V30 3566 C 391.464 -1.32658 1.53394 0
M  V30 3567 C 391.797 -1.93254 0.19148 0
M  V30 3568 O 391.072 -1.77338 -0.798844 0
M  V30 3569 C 391.355 -2.44412 2.64452 0
M  V30 3570 C 391.208 -1.88749 4.08282 0
M  V30 3571 C 392.527 -3.46387 2.71485 0
M  V30 3572 H 389.646 -0.48098 0.558415 0
M  V30 3573 H 392.288 -0.635481 1.79058 0
M  V30 3574 H 390.438 -3.03363 2.427 0
M  V30 3575 H 392.11 -1.34134 4.41368 0
M  V30 3576 H 390.353 -1.19481 4.17021 0
M  V30 3577 H 391.024 -2.69491 4.81745 0
M  V30 3578 H 393.5 -2.9734 2.91081 0
M  V30 3579 H 392.376 -4.2202 3.50985 0
M  V30 3580 H 392.637 -4.04616 1.78153 0
M  V30 3581 N 391.696 -1.35014 -0.812953 0
M  V30 3582 C 392.643 -1.27412 -1.92444 0
M  V30 3583 C 393.613 -0.14733 -1.65445 0
M  V30 3584 O 394.798 -0.329974 -1.87925 0
M  V30 3585 C 391.938 -1.04558 -3.28879 0
M  V30 3586 C 391.051 -2.26101 -3.68106 0
M  V30 3587 C 390.186 -1.96449 -4.9354 0
M  V30 3588 C 389.225 -3.14081 -5.25376 0
M  V30 3589 N 388.362 -2.84246 -6.41988 0
M  V30 3590 H 393.202 -2.22463 -1.98278 0
M  V30 3591 H 390.739 -1.10593 -0.969933 0
M  V30 3592 H 392.697 -0.893413 -4.07522 0
M  V30 3593 H 391.327 -0.131719 -3.22531 0
M  V30 3594 H 390.379 -2.52204 -2.84775 0
M  V30 3595 H 391.691 -3.13959 -3.87597 0
M  V30 3596 H 390.845 -1.78026 -5.79993 0
M  V30 3597 H 389.584 -1.05867 -4.76071 0
M  V30 3598 H 388.589 -3.33089 -4.37415 0
M  V30 3599 H 389.814 -4.05455 -5.44778 0
M  V30 3600 H 387.76 -1.96252 -6.25956 0
M  V30 3601 H 387.677 -3.65637 -6.61699 0
M  V30 3602 H 388.945 -2.6935 -7.31485 0
M  V30 3603 N 393.175 1.03435 -1.18907 0
M  V30 3604 C 394.108 2.11162 -0.86521 0
M  V30 3605 C 395.086 1.6165 0.175473 0
M  V30 3606 O 396.27 1.88425 0.0530129 0
M  V30 3607 C 393.397 3.37423 -0.293868 0
M  V30 3608 C 392.443 4.05795 -1.31274 0
M  V30 3609 S 393.276 4.52027 -2.8711 0
M  V30 3610 C 394.432 5.81513 -2.31504 0
M  V30 3611 H 394.665 2.38308 -1.77754 0
M  V30 3612 H 392.198 1.16295 -1.01562 0
M  V30 3613 H 394.156 4.1049 0.0292572 0
M  V30 3614 H 392.817 3.0838 0.596682 0
M  V30 3615 H 392.01 4.96574 -0.86198 0
M  V30 3616 H 391.612 3.38874 -1.58242 0
M  V30 3617 H 393.904 6.55784 -1.70157 0
M  V30 3618 H 394.847 6.3136 -3.20608 0
M  V30 3619 H 395.255 5.36921 -1.74286 0
M  V30 3620 N 394.653 0.992116 1.22453 0
M  V30 3621 C 395.902 0.662992 1.90492 0
M  V30 3622 C 396.215 -0.808407 1.78113 0
M  V30 3623 O 397.421 -1.24908 2.41061 0
M  V30 3624 C 395.877 1.1353 3.41524 0
M  V30 3625 C 395.485 2.63187 3.62542 0
M  V30 3626 C 397.229 0.880465 4.15269 0
M  V30 3627 C 395.136 3.04024 5.0727 0
M  V30 3628 H 394.066 0.244278 0.713333 0
M  V30 3629 H 396.717 1.20157 1.38688 0
M  V30 3630 H 395.099 0.52485 3.92506 0
M  V30 3631 H 396.273 3.2957 3.22056 0
M  V30 3632 H 394.588 2.86543 3.02129 0
M  V30 3633 H 397.185 1.16128 5.21937 0
M  V30 3634 H 397.528 -0.183408 4.15896 0
M  V30 3635 H 398.061 1.45307 3.70312 0
M  V30 3636 H 394.8 4.09584 5.11782 0
M  V30 3637 H 394.32 2.42343 5.48662 0
M  V30 3638 H 395.999 2.95282 5.75689 0
M  V30 3639 N 396.131 -1.37776 0.765217 0
M  V30 3640 C 397.061 -2.32945 0.160953 0
M  V30 3641 C 398.042 -1.55454 -0.690516 0
M  V30 3642 O 399.227 -1.83721 -0.629318 0
M  V30 3643 C 396.357 -3.39669 -0.724031 0
M  V30 3644 C 395.311 -4.27992 0.0256173 0
M  V30 3645 C 394.637 -5.25673 -0.978383 0
M  V30 3646 C 395.937 -5.08309 1.20082 0
M  V30 3647 H 397.631 -2.83728 0.955969 0
M  V30 3648 H 395.177 -1.36416 0.461149 0
M  V30 3649 H 397.13 -4.05219 -1.15652 0
M  V30 3650 H 395.854 -2.87396 -1.5515 0
M  V30 3651 H 394.513 -3.63964 0.438812 0
M  V30 3652 H 394.161 -4.69682 -1.80022 0
M  V30 3653 H 393.861 -5.85625 -0.481378 0
M  V30 3654 H 395.385 -5.94098 -1.40995 0
M  V30 3655 H 396.799 -5.67034 0.845307 0
M  V30 3656 H 395.196 -5.77554 1.62947 0
M  V30 3657 H 396.266 -4.41365 2.00811 0
M  V30 3658 N 397.609 -0.515225 -1.4894 0
M  V30 3659 C 398.858 0.0261361 -2.01683 0
M  V30 3660 C 399.171 1.36719 -1.39883 0
M  V30 3661 O 400.377 1.99606 -1.84037 0
M  V30 3662 C 398.833 0.0970111 -3.59769 0
M  V30 3663 C 398.441 -1.23825 -4.30548 0
M  V30 3664 C 400.185 0.587981 -4.20408 0
M  V30 3665 C 398.092 -1.12877 -5.80528 0
M  V30 3666 H 397.022 0.0135398 -0.753878 0
M  V30 3667 H 399.673 -0.656787 -1.71343 0
M  V30 3668 H 398.055 0.844694 -3.86886 0
M  V30 3669 H 399.229 -2.00034 -4.15118 0
M  V30 3670 H 397.544 -1.66379 -3.81716 0
M  V30 3671 H 400.141 0.68763 -5.3026 0
M  V30 3672 H 400.484 1.59026 -3.84729 0
M  V30 3673 H 401.017 -0.103582 -3.97665 0
M  V30 3674 H 397.756 -2.10575 -6.20756 0
M  V30 3675 H 397.276 -0.407799 -5.98412 0
M  V30 3676 H 398.955 -0.813332 -6.41868 0
M  V30 3677 N 399.087 1.5561 -0.249682 0
M  V30 3678 C 400.019 2.18834 0.681496 0
M  V30 3679 C 401.032 1.16546 1.1367 0
M  V30 3680 O 402.221 1.43397 1.06299 0
M  V30 3681 C 399.321 2.77992 1.9384 0
M  V30 3682 C 398.494 4.05725 1.63419 0
M  V30 3683 C 397.553 4.49174 2.74096 0
M  V30 3684 O 396.579 5.15492 2.41364 0
M  V30 3685 N 397.781 4.17191 4.03649 0
M  V30 3686 H 400.546 2.9937 0.140514 0
M  V30 3687 H 398.107 1.6175 -0.0697541 0
M  V30 3688 H 400.099 3.04015 2.67127 0
M  V30 3689 H 398.669 2.01596 2.38909 0
M  V30 3690 H 397.889 3.87261 0.736358 0
M  V30 3691 H 399.177 4.88999 1.40562 0
M  V30 3692 H 398.575 3.63955 4.33074 0
M  V30 3693 H 397.132 4.48043 4.73393 0
M  V30 3694 N 400.565 -0.0233959 1.57583 0
M  V30 3695 C 401.842 -0.748794 1.807 0
M  V30 3696 C 402.222 -1.9327 0.849106 0
M  V30 3697 O 401.57 -2.28247 -0.107468 0
M  V30 3698 C 401.78 -1.17651 3.28571 0
M  V30 3699 C 403.128 -1.59008 3.93702 0
M  V30 3700 O 404.152 -1.27094 3.32755 0
M  V30 3701 O 403.011 -2.18264 5.01022 0
M  V30 3702 H 400.105 -0.362578 0.743281 0
M  V30 3703 H 402.651 0.000261958 1.697 0
M  V30 3704 H 401.423 -0.331603 3.89892 0
M  V30 3705 H 401.046 -1.98541 3.44481 0
M  V30 3706 N 402.043 -1.548 -0.295768 0
M  V30 3707 C 403.291 -1.73985 -1.02828 0
M  V30 3708 C 403.612 -0.531406 -1.87619 0
M  V30 3709 O 402.882 0.454221 -1.90561 0
M  V30 3710 H 401.462 -0.641556 -0.382642 0
M  V30 3711 H 404.124 -1.92163 -0.325489 0
M  V30 3712 H 403.22 -2.63129 -1.67838 0
M  V30 3713 N 403.521 0.559213 -1.47345 0
M  V30 3714 C 404.746 1.34676 -1.57725 0
M  V30 3715 C 405.171 1.86723 -0.227164 0
M  V30 3716 O 404.529 1.6286 0.796642 0
M  V30 3717 C 404.577 2.49399 -2.60447 0
M  V30 3718 O 403.681 3.51567 -2.15578 0
M  V30 3719 H 403.022 0.400115 -0.52991 0
M  V30 3720 H 405.552 0.676009 -1.93109 0
M  V30 3721 H 405.562 2.95996 -2.80803 0
M  V30 3722 H 404.237 2.10873 -3.58477 0
M  V30 3723 H 402.814 3.11289 -2.05313 0
M  V30 3724 N 404.999 1.35443 0.805782 0
M  V30 3725 C 405.931 1.24285 1.92577 0
M  V30 3726 C 406.944 0.165962 1.61952 0
M  V30 3727 O 408.133 0.419303 1.73505 0
M  V30 3728 C 405.233 0.891272 3.2697 0
M  V30 3729 C 404.406 2.06669 3.85495 0
M  V30 3730 C 403.465 1.69077 4.98297 0
M  V30 3731 O 402.491 2.4096 5.15681 0
M  V30 3732 N 403.693 0.614869 5.77234 0
M  V30 3733 H 406.458 2.20777 2.02676 0
M  V30 3734 H 404.019 1.28623 0.983243 0
M  V30 3735 H 406.011 0.621256 3.99903 0
M  V30 3736 H 404.581 0.016004 3.12596 0
M  V30 3737 H 403.801 2.50046 3.04747 0
M  V30 3738 H 405.089 2.85237 4.21328 0
M  V30 3739 H 404.487 0.017648 5.65697 0
M  V30 3740 H 403.044 0.404636 6.50543 0
M  V30 3741 N 406.477 -1.02803 1.19454 0
M  V30 3742 C 407.425 -2.13213 0.929673 0
M  V30 3743 C 408.419 -1.69011 -0.114806 0
M  V30 3744 O 409.625 -1.79967 0.0345147 0
M  V30 3745 H 406 -0.69662 0.28324 0
M  V30 3746 H 407.971 -2.32744 1.86743 0
M  V30 3747 C 406.72 -3.4429 0.485797 0
M  V30 3748 H 406.043 -3.7872 1.28105 0
M  V30 3749 H 407.483 -4.22638 0.339582 0
M  V30 3750 C 405.942 -3.27258 -0.800244 0
M  V30 3751 O 406.472 -3.55967 -1.86146 0
M  V30 3752 N 404.678 -2.80545 -0.75781 0
M  V30 3753 H 404.225 -2.57382 0.106039 0
M  V30 3754 H 404.183 -2.6953 -1.61867 0
M  V30 3755 N 407.956 -0.998596 -1.21925 0
M  V30 3756 C 409.184 -0.696286 -1.94832 0
M  V30 3757 C 409.599 0.740032 -1.73692 0
M  V30 3758 O 408.956 1.5 -1.03953 0
M  V30 3759 C 409.007 -0.999833 -3.47398 0
M  V30 3760 O 408.728 -2.37972 -3.67833 0
M  V30 3761 C 410.229 -0.716025 -4.37479 0
M  V30 3762 H 407.449 -0.257111 -0.619786 0
M  V30 3763 H 409.993 -1.33491 -1.54921 0
M  V30 3764 H 408.148 -0.406918 -3.85257 0
M  V30 3765 H 408.562 -2.48338 -4.61983 0
M  V30 3766 H 410.036 -0.978642 -5.43256 0
M  V30 3767 H 410.513 0.349968 -4.37803 0
M  V30 3768 H 411.119 -1.29025 -4.05256 0
M  V30 3769 N 409.434 1.37368 -0.772513 0
M  V30 3770 C 410.382 2.32134 -0.147111 0
M  V30 3771 C 411.376 1.54972 0.684106 0
M  V30 3772 O 412.582 1.70363 0.581083 0
M  V30 3773 H 408.957 0.751449 -0.028786 0
M  V30 3774 H 410.928 2.82464 -0.962112 0
M  V30 3775 C 409.677 3.40226 0.71703 0
M  V30 3776 H 409 3.99706 0.0867951 0
M  V30 3777 H 410.44 4.08897 1.12159 0
M  V30 3778 C 408.899 2.80372 1.86797 0
M  V30 3779 O 409.429 2.71183 2.96349 0
M  V30 3780 N 407.635 2.37904 1.66883 0
M  V30 3781 H 407.182 2.45578 0.777759 0
M  V30 3782 H 407.14 1.98202 2.44056 0
M  V30 3783 N 410.912 0.523116 1.48665 0
M  V30 3784 C 412.158 -0.0134963 2.02796 0
M  V30 3785 C 412.491 -1.34582 1.40004 0
M  V30 3786 O 411.766 -1.86756 0.543381 0
M  V30 3787 C 412.049 -0.14276 3.59817 0
M  V30 3788 C 411.902 1.21425 4.331 0
M  V30 3789 C 413.221 -0.872856 4.31357 0
M  V30 3790 H 410.34 -0.00343074 0.736992 0
M  V30 3791 H 412.982 0.678816 1.7746 0
M  V30 3792 H 411.132 -0.732401 3.81534 0
M  V30 3793 H 412.804 1.84447 4.2282 0
M  V30 3794 H 411.047 1.79791 3.94788 0
M  V30 3795 H 411.718 1.07687 5.41394 0
M  V30 3796 H 414.194 -0.372555 4.14429 0
M  V30 3797 H 413.07 -0.932185 5.40927 0
M  V30 3798 H 413.331 -1.92161 3.98154 0
M  V30 3799 N 412.39 -1.55475 0.257931 0
M  V30 3800 C 413.667 -1.91155 -0.414629 0
M  V30 3801 C 414.047 -1.18008 -1.75035 0
M  V30 3802 O 413.395 -0.301193 -2.26506 0
M  V30 3803 C 413.605 -3.44283 -0.571859 0
M  V30 3804 C 414.953 -4.15744 -0.862678 0
M  V30 3805 O 415.977 -3.50083 -0.657314 0
M  V30 3806 O 414.836 -5.31909 -1.2544 0
M  V30 3807 H 411.93 -0.796016 -0.22425 0
M  V30 3808 H 414.476 -1.66976 0.302814 0
M  V30 3809 H 413.248 -3.89558 0.368844 0
M  V30 3810 H 412.871 -3.7436 -1.33943 0
M  V30 3811 N 413.868 0.0150385 -1.57593 0
M  V30 3812 C 414.815 1.01126 -2.07466 0
M  V30 3813 C 415.785 1.35064 -0.966794 0
M  V30 3814 O 416.97 1.4516 -1.23827 0
M  V30 3815 C 414.11 2.30276 -2.57035 0
M  V30 3816 C 413.223 2.02373 -3.81666 0
M  V30 3817 C 412.358 3.25496 -4.19793 0
M  V30 3818 C 411.397 2.93211 -5.37303 0
M  V30 3819 N 410.534 4.08826 -5.70794 0
M  V30 3820 H 415.374 0.57901 -2.92321 0
M  V30 3821 H 412.911 0.27426 -1.44521 0
M  V30 3822 H 414.869 3.05757 -2.83846 0
M  V30 3823 H 413.499 2.71197 -1.75077 0
M  V30 3824 H 412.551 1.17327 -3.61854 0
M  V30 3825 H 413.863 1.74567 -4.67256 0
M  V30 3826 H 413.017 4.09333 -4.47807 0
M  V30 3827 H 411.756 3.56428 -3.32882 0
M  V30 3828 H 410.761 2.07777 -5.09027 0
M  V30 3829 H 411.986 2.63542 -6.25877 0
M  V30 3830 H 409.932 4.39682 -4.86842 0
M  V30 3831 H 409.849 3.84491 -6.50924 0
M  V30 3832 H 411.117 4.93496 -6.03392 0
M  V30 3833 N 415.346 1.54954 0.287554 0
M  V30 3834 C 416.757 1.65732 0.859634 0
M  V30 3835 C 417.108 0.574767 1.87592 0
M  V30 3836 O 416.233 -0.286299 2.14498 0
M  V30 3837 C 416.828 3.00438 1.56597 0
M  V30 3838 C 415.387 3.13292 2.08627 0
M  V30 3839 C 414.534 2.61473 0.923416 0
M  V30 3840 H 417.485 1.5857 0.0642338 0
M  V30 3841 H 417.506 2.92613 2.43224 0
M  V30 3842 H 417.018 3.79207 0.826053 0
M  V30 3843 H 415.119 2.39268 2.85625 0
M  V30 3844 H 415.232 4.19647 2.31157 0
M  V30 3845 H 413.596 2.18264 1.31275 0
M  V30 3846 H 414.379 3.42733 0.197241 0
M  V30 3847 N 416.824 -0.551391 1.4764 0
M  V30 3848 C 417.754 -1.66757 1.63445 0
M  V30 3849 C 418.735 -1.63077 0.483742 0
M  V30 3850 O 419.92 -1.80607 0.71377 0
M  V30 3851 C 417.05 -3.05387 1.65396 0
M  V30 3852 C 416.004 -3.23918 2.79752 0
M  V30 3853 C 415.33 -4.63393 2.66779 0
M  V30 3854 C 416.63 -3.08735 4.21284 0
M  V30 3855 H 418.324 -1.53786 2.56886 0
M  V30 3856 H 415.87 -0.738415 1.23626 0
M  V30 3857 H 417.823 -3.83325 1.75043 0
M  V30 3858 H 416.547 -3.19332 0.685195 0
M  V30 3859 H 415.206 -2.48391 2.69625 0
M  V30 3860 H 414.854 -4.74144 1.67918 0
M  V30 3861 H 414.554 -4.7674 3.43501 0
M  V30 3862 H 416.078 -5.43458 2.78364 0
M  V30 3863 H 417.492 -3.76484 4.32357 0
M  V30 3864 H 415.889 -3.33588 4.98838 0
M  V30 3865 H 416.959 -2.0541 4.39243 0
M  V30 3866 N 418.302 -1.35869 -0.798587 0
M  V30 3867 C 419.718 -1.16082 -1.09532 0
M  V30 3868 C 419.918 0.0213124 -2.01489 0
M  V30 3869 O 418.974 0.689488 -2.42904 0
M  V30 3870 C 420.287 -2.46748 -1.7186 0
M  V30 3871 C 421.835 -2.53028 -1.84244 0
M  V30 3872 C 422.31 -3.83758 -2.49988 0
M  V30 3873 N 423.801 -3.85053 -2.57465 0
M  V30 3874 C 424.536 -4.8294 -3.09122 0
M  V30 3875 N 424.032 -5.91217 -3.61157 0
M  V30 3876 N 425.825 -4.70369 -3.0775 0
M  V30 3877 H 417.976 -2.11571 -0.187461 0
M  V30 3878 H 420.239 -0.936726 -0.145765 0
M  V30 3879 H 419.945 -3.33471 -1.11759 0
M  V30 3880 H 419.819 -2.61883 -2.71472 0
M  V30 3881 H 422.206 -1.66729 -2.43486 0
M  V30 3882 H 422.287 -2.418 -0.834643 0
M  V30 3883 H 421.931 -4.70459 -1.91393 0
M  V30 3884 H 421.861 -3.92278 -3.5132 0
M  V30 3885 H 424.352 -3.06822 -2.20609 0
M  V30 3886 H 424.665 -6.61892 -3.98896 0
M  V30 3887 H 423.01 -5.94899 -3.59333 0
M  V30 3888 H 426.201 -3.84914 -2.66381 0
M  V30 3889 H 426.374 -5.46816 -3.47701 0
M  V30 3890 N 419.78 1.02168 -1.19998 0
M  V30 3891 C 421.029 1.75091 -1.0013 0
M  V30 3892 C 421.342 1.89923 0.467835 0
M  V30 3893 O 422.548 2.59888 0.785515 0
M  V30 3894 C 421.004 3.14892 -1.74273 0
M  V30 3895 C 420.612 3.0809 -3.25245 0
M  V30 3896 C 422.356 3.9206 -1.62755 0
M  V30 3897 C 420.263 4.42867 -3.91948 0
M  V30 3898 H 419.193 0.656394 -0.37103 0
M  V30 3899 H 421.844 1.14284 -1.43567 0
M  V30 3900 H 420.226 3.7621 -1.2362 0
M  V30 3901 H 421.4 2.5611 -3.83072 0
M  V30 3902 H 419.715 2.44416 -3.3712 0
M  V30 3903 H 422.312 4.91764 -2.09934 0
M  V30 3904 H 422.655 4.12199 -0.582894 0
M  V30 3905 H 423.188 3.37359 -2.10793 0
M  V30 3906 H 419.927 4.27931 -4.96543 0
M  V30 3907 H 419.447 4.94874 -3.3891 0
M  V30 3908 H 421.126 5.11728 -3.95909 0
M  V30 3909 N 421.258 1.00505 1.21394 0
M  V30 3910 C 422.507 0.683159 1.89778 0
M  V30 3911 C 422.82 -0.789471 1.7896 0
M  V30 3912 O 424.026 -1.22344 2.42372 0
M  V30 3913 C 422.482 1.17146 3.40301 0
M  V30 3914 C 422.09 2.67017 3.5973 0
M  V30 3915 C 423.834 0.924461 4.14311 0
M  V30 3916 C 421.741 3.09387 5.04017 0
M  V30 3917 H 420.671 0.25183 0.710702 0
M  V30 3918 H 423.322 1.21622 1.37406 0
M  V30 3919 H 421.704 0.566451 3.91928 0
M  V30 3920 H 422.878 3.32968 3.18542 0
M  V30 3921 H 421.193 2.89732 2.99073 0
M  V30 3922 H 423.79 1.21658 5.20676 0
M  V30 3923 H 424.133 -0.139286 4.16067 0
M  V30 3924 H 424.666 1.49226 3.6875 0
M  V30 3925 H 421.405 4.14989 5.07409 0
M  V30 3926 H 420.925 2.48149 5.46061 0
M  V30 3927 H 422.604 3.01371 5.72525 0
M  V30 3928 N 422.737 -1.36956 0.779787 0
M  V30 3929 C 423.985 -1.99097 0.347079 0
M  V30 3930 C 424.306 -1.62206 -1.08232 0
M  V30 3931 O 423.576 -0.891373 -1.74446 0
M  V30 3932 H 422.156 -0.736409 0.125342 0
M  V30 3933 H 424.818 -1.67308 0.999696 0
M  V30 3934 H 423.914 -3.09107 0.431162 0
M  V30 3935 N 424.215 -0.530993 -1.48385 0
M  V30 3936 C 425.492 0.0671788 -1.95485 0
M  V30 3937 C 425.872 1.51191 -1.47324 0
M  V30 3938 O 425.22 2.17507 -0.700202 0
M  V30 3939 C 425.43 -0.0511206 -3.48963 0
M  V30 3940 C 426.778 0.107632 -4.24464 0
M  V30 3941 O 427.802 0.0226248 -3.56193 0
M  V30 3942 O 426.661 0.285972 -5.45751 0
M  V30 3943 H 423.755 0.0787365 -0.823243 0
M  V30 3944 H 426.301 -0.595662 -1.58902 0
M  V30 3945 H 425.073 -1.05747 -3.7674 0
M  V30 3946 H 424.696 0.650525 -3.92242 0
M  V30 3947 N 425.693 1.55336 -0.266172 0
M  V30 3948 C 427.104 1.85236 0.233315 0
M  V30 3949 C 427.455 1.18816 1.56132 0
M  V30 3950 O 426.58 0.473307 2.11161 0
M  V30 3951 C 427.175 3.36059 0.430113 0
M  V30 3952 C 425.734 3.66116 0.873842 0
M  V30 3953 C 424.881 2.77274 -0.0380016 0
M  V30 3954 H 427.832 1.51004 -0.488214 0
M  V30 3955 H 427.853 3.58681 1.26998 0
M  V30 3956 H 427.365 3.84373 -0.536588 0
M  V30 3957 H 425.466 3.23295 1.85233 0
M  V30 3958 H 425.579 4.73699 0.717358 0
M  V30 3959 H 423.943 2.50198 0.476759 0
M  V30 3960 H 424.726 3.284 -1.00042 0
M  V30 3961 N 427.171 -0.0066808 1.57599 0
M  V30 3962 C 428.401 -0.703066 1.94269 0
M  V30 3963 C 428.809 -1.68206 0.866222 0
M  V30 3964 O 428.152 -1.82966 -0.164087 0
M  V30 3965 C 428.214 -1.49616 3.26887 0
M  V30 3966 C 427.878 -0.679494 4.5192 0
M  V30 3967 C 428.875 0.0299508 5.19891 0
M  V30 3968 C 426.56 -0.627433 4.98366 0
M  V30 3969 C 428.554 0.780514 6.32603 0
M  V30 3970 C 426.241 0.126861 6.10968 0
M  V30 3971 C 427.239 0.829574 6.77943 0
M  V30 3972 O 426.927 1.57157 7.88389 0
M  V30 3973 H 426.659 -0.201217 0.645359 0
M  V30 3974 H 429.213 0.0385326 2.05364 0
M  V30 3975 H 427.443 -2.28209 3.12182 0
M  V30 3976 H 429.132 -2.07726 3.48719 0
M  V30 3977 H 429.898 -0.00115963 4.85 0
M  V30 3978 H 425.777 -1.16392 4.46065 0
M  V30 3979 H 429.321 1.32954 6.84813 0
M  V30 3980 H 425.218 0.159815 6.45302 0
M  V30 3981 H 425.986 1.48758 8.04868 0
M  V30 3982 N 428.649 -1.55105 -0.279332 0
M  V30 3983 C 429.596 -1.8755 -1.34513 0
M  V30 3984 C 430.566 -0.726384 -1.49375 0
M  V30 3985 O 431.751 -0.977063 -1.63884 0
M  V30 3986 C 428.891 -2.14738 -2.70151 0
M  V30 3987 C 428.004 -3.42285 -2.63562 0
M  V30 3988 C 427.139 -3.59206 -3.91337 0
M  V30 3989 C 426.178 -4.80467 -3.79233 0
M  V30 3990 N 425.315 -4.94079 -4.98829 0
M  V30 3991 H 430.155 -2.78456 -1.06143 0
M  V30 3992 H 427.692 -1.37867 -0.512936 0
M  V30 3993 H 429.65 -2.28501 -3.49061 0
M  V30 3994 H 428.28 -1.27075 -2.96735 0
M  V30 3995 H 427.332 -3.37029 -1.76397 0
M  V30 3996 H 428.644 -4.31328 -2.50515 0
M  V30 3997 H 427.798 -3.72751 -4.78687 0
M  V30 3998 H 426.537 -2.68337 -4.07243 0
M  V30 3999 H 425.542 -4.66932 -2.90266 0
M  V30 4000 H 426.767 -5.72765 -3.64852 0
M  V30 4001 H 424.713 -4.06139 -5.15158 0
M  V30 4002 H 424.63 -5.77156 -4.8829 0
M  V30 4003 H 425.898 -5.12003 -5.8777 0
M  V30 4004 N 430.127 0.543554 -1.4793 0
M  V30 4005 C 431.373 1.30201 -1.55485 0
M  V30 4006 C 431.706 1.92925 -0.222201 0
M  V30 4007 O 430.981 1.78586 0.77053 0
M  V30 4008 C 431.264 2.40174 -2.68307 0
M  V30 4009 C 431.117 1.8223 -4.11233 0
M  V30 4010 C 432.436 3.42024 -2.76961 0
M  V30 4011 H 429.555 0.472036 -0.565996 0
M  V30 4012 H 432.197 0.606914 -1.80046 0
M  V30 4013 H 430.347 2.99463 -2.47495 0
M  V30 4014 H 432.019 1.27096 -4.43446 0
M  V30 4015 H 430.262 1.12832 -4.18869 0
M  V30 4016 H 430.933 2.61793 -4.85972 0
M  V30 4017 H 433.409 2.92672 -2.95774 0
M  V30 4018 H 432.285 4.16383 -3.57654 0
M  V30 4019 H 432.546 4.0173 -1.84568 0
M  V30 4020 N 431.605 1.3629 0.791371 0
M  V30 4021 C 432.537 1.26321 1.91248 0
M  V30 4022 C 433.55 0.18313 1.61767 0
M  V30 4023 O 434.739 0.437682 1.73051 0
M  V30 4024 C 431.839 0.925901 3.26007 0
M  V30 4025 C 431.012 2.10746 3.83281 0
M  V30 4026 C 430.071 1.74352 4.96475 0
M  V30 4027 O 429.097 2.46416 5.13096 0
M  V30 4028 N 430.299 0.676058 5.7655 0
M  V30 4029 H 433.064 2.22915 2.00323 0
M  V30 4030 H 430.625 1.29659 0.969546 0
M  V30 4031 H 432.617 0.663636 3.99222 0
M  V30 4032 H 431.187 0.0491581 3.12561 0
M  V30 4033 H 430.407 2.53264 3.02077 0
M  V30 4034 H 431.695 2.8969 4.18279 0
M  V30 4035 H 431.093 0.0776467 5.65647 0
M  V30 4036 H 429.65 0.473612 6.50077 0
M  V30 4037 N 433.083 -1.0153 1.20538 0
M  V30 4038 C 434.015 -2.10224 0.913155 0
M  V30 4039 C 435.028 -1.62495 -0.0995998 0
M  V30 4040 O 436.217 -1.78014 0.131582 0
M  V30 4041 C 433.317 -3.37111 0.347717 0
M  V30 4042 C 432.49 -4.13971 1.41233 0
M  V30 4043 C 431.549 -5.19158 0.857976 0
M  V30 4044 O 430.575 -5.48 1.53897 0
M  V30 4045 N 431.777 -5.7955 -0.331966 0
M  V30 4046 H 434.542 -2.35879 1.84881 0
M  V30 4047 H 432.103 -1.17931 1.10923 0
M  V30 4048 H 434.095 -4.04683 -0.0373026 0
M  V30 4049 H 432.665 -3.08696 -0.492527 0
M  V30 4050 H 431.885 -3.41351 1.97163 0
M  V30 4051 H 433.173 -4.62103 2.12928 0
M  V30 4052 H 432.571 -5.58455 -0.902478 0
M  V30 4053 H 431.128 -6.48464 -0.65861 0
M  V30 4054 N 434.561 -1.01147 -1.20859 0
M  V30 4055 C 435.524 -0.582224 -2.21682 0
M  V30 4056 C 436.524 0.344887 -1.57058 0
M  V30 4057 O 437.714 0.134281 -1.73682 0
M  V30 4058 C 434.846 0.150496 -3.40568 0
M  V30 4059 H 436.039 -1.47408 -2.61172 0
M  V30 4060 H 433.592 -0.800695 -1.34233 0
M  V30 4061 H 434.327 1.0575 -3.06574 0
M  V30 4062 H 434.112 -0.515444 -3.88697 0
M  V30 4063 H 435.602 0.438344 -4.15293 0
M  V30 4064 N 436.039 1.36541 -0.78704 0
M  V30 4065 C 437.279 2.01138 -0.363714 0
M  V30 4066 C 437.643 1.61114 1.04433 0
M  V30 4067 O 438.844 2.18285 1.56861 0
M  V30 4068 C 437.115 3.53603 -0.519582 0
M  V30 4069 S 438.674 4.38415 -0.183782 0
M  V30 4070 H 435.492 0.697263 -0.13909 0
M  V30 4071 H 438.094 1.66475 -1.02501 0
M  V30 4072 H 436.798 3.8022 -1.5447 0
M  V30 4073 H 436.329 3.93084 0.15773 0
M  V30 4074 H 438.344 4.85698 1.01547 0
M  V30 4075 N 437.518 0.538854 1.48102 0
M  V30 4076 C 438.428 -0.222648 2.33541 0
M  V30 4077 C 439.444 -0.930225 1.47047 0
M  V30 4078 O 440.62 -0.903211 1.80011 0
M  V30 4079 C 437.685 -1.25064 3.23357 0
M  V30 4080 C 436.746 -0.552469 4.2573 0
M  V30 4081 C 435.979 -1.53149 5.11254 0
M  V30 4082 O 436.202 -2.76487 4.9891 0
M  V30 4083 O 435.136 -1.06602 5.92385 0
M  V30 4084 H 438.962 0.477707 2.99919 0
M  V30 4085 H 436.547 0.299669 1.46364 0
M  V30 4086 H 438.429 -1.8445 3.78888 0
M  V30 4087 H 437.104 -1.93325 2.59629 0
M  V30 4088 H 436.011 0.082114 3.7401 0
M  V30 4089 H 437.344 0.0883526 4.92121 0
M  V30 4090 N 438.996 -1.55193 0.274407 0
M  V30 4091 C 439.929 -2.18606 -0.654712 0
M  V30 4092 C 440.907 -1.14677 -1.15273 0
M  V30 4093 O 442.091 -1.43198 -1.22583 0
M  V30 4094 C 439.218 -2.80875 -1.89281 0
M  V30 4095 C 438.264 -3.981 -1.53032 0
M  V30 4096 S 439.097 -5.32025 -0.609107 0
M  V30 4097 C 440.253 -5.97761 -1.85559 0
M  V30 4098 H 440.486 -2.97074 -0.115894 0
M  V30 4099 H 438.019 -1.54288 0.05867 0
M  V30 4100 H 439.977 -3.17381 -2.60345 0
M  V30 4101 H 438.638 -2.02302 -2.40277 0
M  V30 4102 H 437.831 -4.40356 -2.45158 0
M  V30 4103 H 437.433 -3.63013 -0.899874 0
M  V30 4104 H 439.725 -6.16951 -2.7996 0
M  V30 4105 H 440.668 -6.92545 -1.47605 0
M  V30 4106 H 441.076 -5.27113 -2.02021 0
M  V30 4107 N 440.474 -0.00167713 -1.576 0
M  V30 4108 C 441.72 0.683832 -1.90923 0
M  V30 4109 C 442.053 1.7333 -0.875799 0
M  V30 4110 O 441.328 1.94215 0.10525 0
M  V30 4111 C 441.611 1.32543 -3.3482 0
M  V30 4112 C 441.464 0.287387 -4.48881 0
M  V30 4113 C 442.783 2.25114 -3.78169 0
M  V30 4114 H 439.902 0.247125 -0.694333 0
M  V30 4115 H 442.544 -0.0533149 -1.89925 0
M  V30 4116 H 440.694 1.95372 -3.35801 0
M  V30 4117 H 442.366 -0.341346 -4.60035 0
M  V30 4118 H 440.609 -0.39017 -4.32042 0
M  V30 4119 H 441.28 0.775393 -5.46527 0
M  V30 4120 H 443.756 1.723 -3.7875 0
M  V30 4121 H 442.632 2.66971 -4.79602 0
M  V30 4122 H 442.893 3.13092 -3.12131 0
M  V30 4123 N 441.952 1.55251 0.271103 0
M  V30 4124 C 442.885 1.83191 1.36075 0
M  V30 4125 C 443.863 0.685091 1.47463 0
M  V30 4126 O 445.047 0.928292 1.64058 0
M  V30 4127 C 442.174 1.99521 2.73696 0
M  V30 4128 C 441.22 3.22081 2.79582 0
M  V30 4129 S 442.053 4.79388 2.38636 0
M  V30 4130 C 443.209 4.98693 3.78228 0
M  V30 4131 H 443.442 2.75327 1.12171 0
M  V30 4132 H 440.975 1.47046 0.470833 0
M  V30 4133 H 442.933 2.09613 3.52948 0
M  V30 4134 H 441.594 1.0827 2.9485 0
M  V30 4135 H 440.787 3.304 3.80594 0
M  V30 4136 H 440.389 3.10589 2.08352 0
M  V30 4137 H 442.681 4.84551 4.73515 0
M  V30 4138 H 443.624 6.00738 3.7486 0
M  V30 4139 H 444.032 4.26665 3.69618 0
M  V30 4140 N 443.43 -0.535701 1.48216 0
M  V30 4141 C 444.707 -1.29683 1.46429 0
M  V30 4142 C 445.087 -2.10391 0.172852 0
M  V30 4143 O 444.435 -2.12282 -0.845488 0
M  V30 4144 C 444.645 -2.18313 2.72287 0
M  V30 4145 C 445.993 -2.78639 3.20383 0
M  V30 4146 O 447.017 -2.28604 2.73164 0
M  V30 4147 O 445.876 -3.69636 4.02531 0
M  V30 4148 H 442.97 -0.585026 0.584529 0
M  V30 4149 H 445.516 -0.552827 1.60443 0
M  V30 4150 H 444.288 -1.58421 3.57797 0
M  V30 4151 H 443.911 -2.99971 2.60966 0
M  V30 4152 N 444.908 -1.36708 -0.784132 0
M  V30 4153 C 446.157 -1.30559 -1.53744 0
M  V30 4154 C 446.47 0.111374 -1.95283 0
M  V30 4155 O 447.676 0.29527 -2.6989 0
M  V30 4156 C 446.132 -2.29098 -2.77565 0
M  V30 4157 C 445.74 -3.76258 -2.43174 0
M  V30 4158 C 447.484 -2.31936 -3.55536 0
M  V30 4159 C 445.391 -4.6656 -3.63422 0
M  V30 4160 H 444.321 -0.48518 -0.577162 0
M  V30 4161 H 446.972 -1.62101 -0.859981 0
M  V30 4162 H 445.354 -1.90557 -3.47137 0
M  V30 4163 H 446.528 -4.23565 -1.81465 0
M  V30 4164 H 444.843 -3.76246 -1.78403 0
M  V30 4165 H 447.44 -2.9661 -4.44889 0
M  V30 4166 H 447.783 -1.3294 -3.94503 0
M  V30 4167 H 448.316 -2.6912 -2.92949 0
M  V30 4168 H 445.055 -5.66638 -3.29547 0
M  V30 4169 H 444.575 -4.23966 -4.24279 0
M  V30 4170 H 446.254 -4.8309 -4.30387 0
M  V30 4171 N 446.386 1.0089 -1.21074 0
M  V30 4172 C 447.316 2.1145 -0.990523 0
M  V30 4173 C 448.297 1.69897 0.0831699 0
M  V30 4174 O 449.482 1.94052 -0.0758853 0
M  V30 4175 C 446.612 3.42914 -0.550177 0
M  V30 4176 C 445.566 3.98244 -1.56799 0
M  V30 4177 C 444.892 5.25568 -0.984013 0
M  V30 4178 C 446.192 4.30752 -2.95381 0
M  V30 4179 H 447.886 2.3013 -1.91521 0
M  V30 4180 H 445.432 1.10592 -0.92225 0
M  V30 4181 H 447.385 4.19653 -0.383305 0
M  V30 4182 H 446.109 3.24014 0.41015 0
M  V30 4183 H 444.768 3.23621 -1.72236 0
M  V30 4184 H 444.416 5.02998 -0.0155216 0
M  V30 4185 H 444.116 5.63551 -1.66384 0
M  V30 4186 H 445.64 6.04955 -0.828378 0
M  V30 4187 H 447.054 4.98349 -2.8341 0
M  V30 4188 H 445.451 4.79869 -3.60341 0
M  V30 4189 H 446.521 3.39192 -3.46521 0
M  V30 4190 N 447.864 1.01787 1.20321 0
M  V30 4191 C 449.28 0.732951 1.41774 0
M  V30 4192 C 449.48 -0.686883 1.89431 0
M  V30 4193 O 448.536 -1.45446 2.06402 0
M  V30 4194 C 449.849 1.75973 2.43832 0
M  V30 4195 C 451.397 1.77802 2.57596 0
M  V30 4196 C 451.872 2.7941 3.62897 0
M  V30 4197 N 453.363 2.78157 3.70382 0
M  V30 4198 C 454.098 3.53434 4.51521 0
M  V30 4199 N 453.594 4.38392 5.36455 0
M  V30 4200 N 455.387 3.42026 4.46066 0
M  V30 4201 H 447.538 1.93447 0.877035 0
M  V30 4202 H 449.801 0.835712 0.447536 0
M  V30 4203 H 449.507 2.77699 2.15815 0
M  V30 4204 H 449.381 1.57292 3.4284 0
M  V30 4205 H 451.768 0.767602 2.84942 0
M  V30 4206 H 451.849 2.00557 1.58779 0
M  V30 4207 H 451.493 3.80616 3.36295 0
M  V30 4208 H 451.423 2.53916 4.61339 0
M  V30 4209 H 453.914 2.16531 3.09714 0
M  V30 4210 H 454.227 4.92596 5.95457 0
M  V30 4211 H 452.572 4.4247 5.35953 0
M  V30 4212 H 455.763 2.75075 3.78749 0
M  V30 4213 H 455.936 4.00946 5.09064 0
M  V30 4214 N 449.342 -1.36122 0.79427 0
M  V30 4215 C 450.252 -2.33769 0.197296 0
M  V30 4216 C 451.268 -1.61276 -0.653153 0
M  V30 4217 O 452.444 -1.9323 -0.5678 0
M  V30 4218 C 449.509 -3.40474 -0.654098 0
M  V30 4219 C 448.57 -4.28759 0.215411 0
M  V30 4220 C 447.803 -5.30368 -0.595443 0
M  V30 4221 O 448.026 -5.40211 -1.83107 0
M  V30 4222 O 446.96 -6.019 0.00721351 0
M  V30 4223 H 450.786 -2.86597 1.00478 0
M  V30 4224 H 448.371 -1.38676 0.555818 0
M  V30 4225 H 450.253 -4.05703 -1.13944 0
M  V30 4226 H 448.928 -2.89937 -1.43938 0
M  V30 4227 H 447.835 -3.66554 0.747615 0
M  V30 4228 H 449.168 -4.82661 0.964332 0
M  V30 4229 N 450.82 -0.546701 -1.47814 0
M  V30 4230 C 452.236 -0.205717 -1.58269 0
M  V30 4231 C 452.436 1.29153 -1.54667 0
M  V30 4232 O 451.492 2.07098 -1.44453 0
M  V30 4233 C 452.805 -0.823065 -2.89216 0
M  V30 4234 C 454.353 -0.793328 -3.02779 0
M  V30 4235 C 454.828 -1.38955 -4.36412 0
M  V30 4236 N 456.319 -1.35227 -4.43021 0
M  V30 4237 C 457.054 -1.78333 -5.44963 0
M  V30 4238 N 456.55 -2.29246 -6.53772 0
M  V30 4239 N 458.343 -1.69467 -5.35945 0
M  V30 4240 H 450.494 -1.5196 -1.48398 0
M  V30 4241 H 452.757 -0.633078 -0.705632 0
M  V30 4242 H 452.463 -1.8749 -2.97558 0
M  V30 4243 H 452.337 -0.309915 -3.75925 0
M  V30 4244 H 454.724 0.249784 -2.94041 0
M  V30 4245 H 454.805 -1.34412 -2.17639 0
M  V30 4246 H 454.449 -2.43168 -4.45906 0
M  V30 4247 H 454.379 -0.814291 -5.20266 0
M  V30 4248 H 456.87 -0.979739 -3.64979 0
M  V30 4249 H 457.183 -2.60089 -7.27718 0
M  V30 4250 H 455.528 -2.3325 -6.5469 0
M  V30 4251 H 458.719 -1.29477 -4.49837 0
M  V30 4252 H 458.892 -2.03381 -6.15256 0
M  V30 4253 N 452.299 1.55045 -0.282633 0
M  V30 4254 C 453.576 1.9179 0.384166 0
M  V30 4255 C 453.956 1.20778 1.73136 0
M  V30 4256 O 453.304 0.33719 2.25998 0
M  V30 4257 C 453.514 3.45149 0.517014 0
M  V30 4258 C 454.862 4.17064 0.796427 0
M  V30 4259 O 455.886 3.51084 0.601535 0
M  V30 4260 O 454.745 5.33837 1.16962 0
M  V30 4261 H 451.839 0.799483 0.211558 0
M  V30 4262 H 454.385 1.66474 -0.32934 0
M  V30 4263 H 453.157 3.88922 -0.430772 0
M  V30 4264 H 452.78 3.76443 1.2797 0
M  V30 4265 N 453.777 0.010035 1.57597 0
M  V30 4266 C 454.709 -1.00649 2.05918 0
M  V30 4267 C 455.722 -1.30077 0.978964 0
M  V30 4268 O 456.911 -1.26878 1.25556 0
M  V30 4269 C 454.011 -2.33876 2.45265 0
M  V30 4270 C 453.184 -2.23242 3.7614 0
M  V30 4271 C 452.243 -3.39242 4.02245 0
M  V30 4272 O 451.269 -3.1698 4.72771 0
M  V30 4273 N 452.471 -4.6242 3.50924 0
M  V30 4274 H 455.236 -0.594333 2.93748 0
M  V30 4275 H 452.797 -0.17714 1.60928 0
M  V30 4276 H 454.789 -3.1027 2.59836 0
M  V30 4277 H 453.359 -2.66799 1.62902 0
M  V30 4278 H 452.579 -1.31696 3.71551 0
M  V30 4279 H 453.867 -2.13321 4.61922 0
M  V30 4280 H 453.265 -4.83404 2.93832 0
M  V30 4281 H 451.822 -5.36046 3.70807 0
M  V30 4282 N 455.255 -1.55392 -0.262866 0
M  V30 4283 C 456.503 -1.76127 -0.991147 0
M  V30 4284 C 456.824 -0.571083 -1.8645 0
M  V30 4285 O 456.094 0.413698 -1.91482 0
M  V30 4286 H 454.674 -0.649528 -0.368948 0
M  V30 4287 H 457.336 -1.9281 -0.284655 0
M  V30 4288 H 456.432 -2.6663 -1.62219 0
M  V30 4289 N 456.733 0.527833 -1.48498 0
M  V30 4290 C 457.981 1.28101 -1.56316 0
M  V30 4291 C 458.302 1.9352 -0.239781 0
M  V30 4292 O 457.572 1.81433 0.738849 0
M  V30 4293 H 456.152 0.475793 -0.575873 0
M  V30 4294 H 458.814 0.614052 -1.84974 0
M  V30 4295 H 457.91 2.05916 -2.34532 0
M  V30 4296 N 458.211 1.37122 0.776871 0
M  V30 4297 C 459.458 1.32047 1.53524 0
M  V30 4298 C 459.786 -0.0965631 1.9426 0
M  V30 4299 O 459.041 -1.06866 1.63945 0
M  V30 4300 C 459.34 2.20068 2.81611 0
M  V30 4301 C 459.006 3.68423 2.59953 0
M  V30 4302 C 457.668 4.08854 2.53755 0
M  V30 4303 C 460.02 4.62431 2.40431 0
M  V30 4304 C 457.348 5.41417 2.26018 0
M  V30 4305 C 459.7 5.95225 2.14219 0
M  V30 4306 C 458.364 6.34767 2.06462 0
M  V30 4307 H 457.634 0.483196 0.561785 0
M  V30 4308 H 460.281 1.69284 0.895268 0
M  V30 4309 H 458.586 1.75809 3.50141 0
M  V30 4310 H 460.283 2.13458 3.39465 0
M  V30 4311 H 456.873 3.36354 2.65638 0
M  V30 4312 H 461.057 4.32057 2.44213 0
M  V30 4313 H 456.313 5.71022 2.18504 0
M  V30 4314 H 460.487 6.67626 1.98112 0
M  V30 4315 H 458.114 7.37413 1.84733 0
M  V30 4316 N 459.689 -1.00246 1.21608 0
M  V30 4317 C 460.937 -1.73717 1.0328 0
M  V30 4318 C 461.258 -1.90102 -0.434318 0
M  V30 4319 O 460.528 -1.45376 -1.31311 0
M  V30 4320 H 459.108 -0.643613 0.379172 0
M  V30 4321 H 461.77 -1.20787 1.52959 0
M  V30 4322 H 460.866 -2.73535 1.50283 0
M  V30 4323 N 461.167 -1.02423 -1.1978 0
M  V30 4324 C 462.444 -0.632802 -1.85081 0
M  V30 4325 C 462.824 0.888745 -1.9148 0
M  V30 4326 O 462.172 1.78357 -1.42832 0
M  V30 4327 C 462.382 -1.28947 -3.24305 0
M  V30 4328 C 463.73 -1.40976 -4.00513 0
M  V30 4329 O 464.754 -1.24628 -3.33686 0
M  V30 4330 O 463.613 -1.67467 -5.20209 0
M  V30 4331 H 460.707 -0.219348 -0.79738 0
M  V30 4332 H 463.253 -1.12209 -1.27307 0
M  V30 4333 H 462.025 -2.3288 -3.14456 0
M  V30 4334 H 461.648 -0.787748 -3.89718 0
M  V30 4335 N 462.645 1.35699 -0.801477 0
M  V30 4336 C 464.061 1.52065 -0.484596 0
M  V30 4337 C 464.261 1.75215 0.995084 0
M  V30 4338 O 463.317 1.79061 1.78026 0
M  V30 4339 C 464.63 2.69908 -1.32552 0
M  V30 4340 C 466.178 2.83784 -1.32044 0
M  V30 4341 C 466.653 4.04646 -2.14536 0
M  V30 4342 N 468.144 4.11814 -2.12046 0
M  V30 4343 C 468.879 5.04437 -2.72636 0
M  V30 4344 N 468.375 6.02426 -3.42133 0
M  V30 4345 N 470.168 4.97144 -2.62305 0
M  V30 4346 H 462.319 1.18928 -1.75983 0
M  V30 4347 H 464.582 0.581455 -0.748741 0
M  V30 4348 H 464.288 2.59363 -2.37537 0
M  V30 4349 H 464.162 3.64376 -0.975181 0
M  V30 4350 H 466.549 2.93783 -0.27846 0
M  V30 4351 H 466.63 1.90188 -1.71062 0
M  V30 4352 H 466.274 3.95407 -3.18772 0
M  V30 4353 H 466.204 4.97413 -1.72882 0
M  V30 4354 H 468.695 3.41664 -1.61476 0
M  V30 4355 H 469.008 6.69688 -3.85666 0
M  V30 4356 H 467.353 6.02615 -3.46237 0
M  V30 4357 H 470.544 4.19546 -2.07603 0
M  V30 4358 H 470.717 5.69138 -3.09815 0
M  V30 4359 N 464.123 0.554532 1.47522 0
M  V30 4360 C 465.071 -0.207765 2.3167 0
M  V30 4361 C 466.065 -0.911914 1.4276 0
M  V30 4362 O 467.271 -0.833504 1.59539 0
M  V30 4363 H 463.646 -0.0858726 0.747081 0
M  V30 4364 H 465.617 0.521178 2.93813 0
M  V30 4365 C 464.366 -1.2263 3.25357 0
M  V30 4366 H 463.689 -0.693887 3.93732 0
M  V30 4367 H 465.129 -1.73062 3.87073 0
M  V30 4368 C 463.588 -2.27278 2.4869 0
M  V30 4369 O 464.118 -3.34156 2.22941 0
M  V30 4370 N 462.324 -2.01134 2.09746 0
M  V30 4371 H 461.871 -1.14232 2.30887 0
M  V30 4372 H 461.829 -2.71369 1.58765 0
M  V30 4373 N 465.601 -1.54893 0.290851 0
M  V30 4374 C 466.511 -2.26812 -0.59945 0
M  V30 4375 C 467.527 -1.29963 -1.15696 0
M  V30 4376 O 468.703 -1.62928 -1.18391 0
M  V30 4377 C 465.768 -2.98716 -1.75982 0
M  V30 4378 C 464.829 -4.1108 -1.2374 0
M  V30 4379 C 464.062 -4.79546 -2.34246 0
M  V30 4380 O 464.285 -4.47309 -3.53936 0
M  V30 4381 O 463.219 -5.67165 -2.01512 0
M  V30 4382 H 467.045 -3.03696 -0.0163561 0
M  V30 4383 H 464.63 -1.49289 0.0576755 0
M  V30 4384 H 466.512 -3.43851 -2.43607 0
M  V30 4385 H 465.187 -2.24737 -2.3297 0
M  V30 4386 H 464.094 -3.70367 -0.527163 0
M  V30 4387 H 465.427 -4.87007 -0.71307 0
M  V30 4388 N 467.08 -0.0183926 -1.57589 0
M  V30 4389 C 468.31 0.67207 -1.95363 0
M  V30 4390 C 468.718 1.66807 -0.892872 0
M  V30 4391 O 468.061 1.83204 0.134958 0
M  V30 4392 C 468.123 1.44397 -3.29226 0
M  V30 4393 C 467.787 0.607511 -4.52944 0
M  V30 4394 C 468.784 -0.112657 -5.19778 0
M  V30 4395 C 466.469 0.548068 -4.99301 0
M  V30 4396 C 468.463 -0.881057 -6.31281 0
M  V30 4397 C 466.15 -0.224044 -6.10689 0
M  V30 4398 C 467.148 -0.937323 -6.76538 0
M  V30 4399 O 466.836 -1.6968 -7.85789 0
M  V30 4400 H 466.568 0.190925 -0.648478 0
M  V30 4401 H 469.122 -0.0711994 -2.05277 0
M  V30 4402 H 467.352 2.23214 -3.15773 0
M  V30 4403 H 469.041 2.02152 -3.51979 0
M  V30 4404 H 469.807 -0.0759998 -4.8494 0
M  V30 4405 H 465.686 1.09281 -4.4786 0
M  V30 4406 H 469.23 -1.43832 -6.82611 0
M  V30 4407 H 465.127 -0.262457 -6.44966 0
M  V30 4408 H 465.895 -1.61544 -8.024 0
M  V30 4409 N 468.558 1.5553 0.254621 0
M  V30 4410 C 469.806 1.7665 0.981793 0
M  V30 4411 C 470.127 0.580963 1.86145 0
M  V30 4412 O 469.397 -0.403537 1.91699 0
M  V30 4413 H 467.977 0.651475 0.365498 0
M  V30 4414 H 470.639 1.92958 0.274426 0
M  V30 4415 H 469.735 2.67486 1.60802 0
M  V30 4416 N 470.036 -0.519951 1.48776 0
M  V30 4417 C 471.261 -1.30447 1.6124 0
M  V30 4418 C 471.686 -1.86055 0.276591 0
M  V30 4419 O 471.044 -1.64915 -0.753183 0
M  V30 4420 C 471.092 -2.42406 2.66967 0
M  V30 4421 O 470.196 -3.45728 2.24824 0
M  V30 4422 H 469.537 -0.385924 0.540332 0
M  V30 4423 H 472.067 -0.624572 1.94834 0
M  V30 4424 H 472.077 -2.88447 2.88552 0
M  V30 4425 H 470.752 -2.01294 3.63941 0
M  V30 4426 H 469.329 -3.05737 2.13494 0
M  V30 4427 N 471.514 -1.37532 -0.769588 0
M  V30 4428 C 472.93 -1.18379 -1.07045 0
M  V30 4429 C 473.13 -0.0214312 -2.01489 0
M  V30 4430 O 472.186 0.637809 -2.44312 0
M  V30 4431 C 473.499 -2.50338 -1.66588 0
M  V30 4432 C 475.047 -2.56879 -1.78835 0
M  V30 4433 C 475.522 -3.88974 -2.41792 0
M  V30 4434 N 477.013 -3.90428 -2.4924 0
M  V30 4435 C 477.748 -4.89388 -2.98809 0
M  V30 4436 N 477.244 -5.98745 -3.48535 0
M  V30 4437 N 479.037 -4.76791 -2.97703 0
M  V30 4438 H 471.188 -2.11921 -0.142541 0
M  V30 4439 H 473.451 -0.939608 -0.125863 0
M  V30 4440 H 473.157 -3.35767 -1.0466 0
M  V30 4441 H 473.031 -2.67583 -2.65856 0
M  V30 4442 H 475.418 -1.71856 -2.39895 0
M  V30 4443 H 475.499 -2.43516 -0.783166 0
M  V30 4444 H 475.143 -4.74412 -1.81371 0
M  V30 4445 H 475.073 -3.99641 -3.4292 0
M  V30 4446 H 477.564 -3.11433 -2.14052 0
M  V30 4447 H 477.877 -6.70205 -3.84767 0
M  V30 4448 H 476.222 -6.02387 -3.46634 0
M  V30 4449 H 479.413 -3.90478 -2.58157 0
M  V30 4450 H 479.586 -5.54069 -3.36024 0
M  V30 4451 N 472.992 0.995999 -1.22138 0
M  V30 4452 C 474.241 1.72928 -1.03821 0
M  V30 4453 C 474.554 1.90872 0.427444 0
M  V30 4454 O 475.76 2.61496 0.730212 0
M  V30 4455 C 474.216 3.11124 -1.80913 0
M  V30 4456 C 473.824 3.01122 -3.31707 0
M  V30 4457 C 475.568 3.8852 -1.71035 0
M  V30 4458 C 473.475 4.34453 -4.01253 0
M  V30 4459 H 472.405 0.648376 -0.384869 0
M  V30 4460 H 475.056 1.11213 -1.45959 0
M  V30 4461 H 473.438 3.73503 -1.31573 0
M  V30 4462 H 474.612 2.47926 -3.88419 0
M  V30 4463 H 472.927 2.3721 -3.42228 0
M  V30 4464 H 475.524 4.872 -2.20318 0
M  V30 4465 H 475.867 4.1087 -0.670196 0
M  V30 4466 H 476.4 3.32812 -2.17902 0
M  V30 4467 H 473.139 4.17303 -5.05508 0
M  V30 4468 H 472.659 4.87574 -3.49331 0
M  V30 4469 H 474.338 5.03215 -4.06674 0
M  V30 4470 N 474.47 1.03057 1.19235 0
M  V30 4471 C 475.718 0.726581 1.88587 0
M  V30 4472 C 476.039 -0.747227 1.80115 0
M  V30 4473 O 475.309 -1.53849 1.21274 0
M  V30 4474 H 473.889 0.265768 0.698124 0
M  V30 4475 H 476.551 1.30516 1.44746 0
M  V30 4476 H 475.647 1.0224 2.94879 0
M  V30 4477 N 475.948 -1.35272 0.808662 0
M  V30 4478 C 477.196 -1.98316 0.389233 0
M  V30 4479 C 477.517 -1.64465 -1.04767 0
M  V30 4480 O 476.787 -0.928175 -1.72516 0
M  V30 4481 H 475.367 -0.733585 0.140935 0
M  V30 4482 H 478.029 -1.6515 1.03496 0
M  V30 4483 H 477.125 -3.08123 0.496631 0
M  V30 4484 N 477.426 -0.562348 -1.47226 0
M  V30 4485 C 478.674 -0.0401371 -2.0206 0
M  V30 4486 C 478.995 1.3165 -1.43852 0
M  V30 4487 O 478.265 1.85976 -0.615599 0
M  V30 4488 H 476.845 -0.0118479 -0.746906 0
M  V30 4489 H 479.507 -0.73352 -1.8057 0
M  V30 4490 H 478.603 0.0441254 -3.12069 0
M  V30 4491 N 478.904 1.54736 -0.299062 0
M  V30 4492 C 480.153 1.99279 0.311549 0
M  V30 4493 C 480.466 1.19107 1.55154 0
M  V30 4494 O 481.672 1.53908 2.23662 0
M  V30 4495 C 480.128 3.54768 0.605632 0
M  V30 4496 C 479.736 4.43746 -0.615914 0
M  V30 4497 C 481.48 4.07841 1.17754 0
M  V30 4498 C 479.387 5.90663 -0.29509 0
M  V30 4499 H 478.317 0.744359 0.120187 0
M  V30 4500 H 480.968 1.78919 -0.407464 0
M  V30 4501 H 479.35 3.71021 1.38419 0
M  V30 4502 H 480.524 4.39267 -1.39218 0
M  V30 4503 H 478.839 4.01434 -1.10633 0
M  V30 4504 H 481.436 5.15174 1.43179 0
M  V30 4505 H 481.779 3.58324 2.11918 0
M  V30 4506 H 482.312 3.95123 0.460739 0
M  V30 4507 H 479.051 6.44325 -1.20524 0
M  V30 4508 H 478.571 5.98155 0.44394 0
M  V30 4509 H 480.25 6.46916 0.104048 0
M  V30 4510 N 480.382 0.0267497 1.57577 0
M  V30 4511 C 481.659 -0.690926 1.82991 0
M  V30 4512 C 482.039 -1.90471 0.910164 0
M  V30 4513 O 481.387 -2.28474 -0.0347985 0
M  V30 4514 C 481.597 -1.07139 3.32148 0
M  V30 4515 C 482.945 -1.46402 3.98562 0
M  V30 4516 O 483.969 -1.16443 3.36629 0
M  V30 4517 O 482.828 -2.02214 5.07712 0
M  V30 4518 H 479.922 -0.338747 0.75444 0
M  V30 4519 H 482.468 0.0542506 1.69613 0
M  V30 4520 H 481.24 -0.207394 3.9075 0
M  V30 4521 H 480.863 -1.87481 3.50623 0
M  V30 4522 N 481.861 -1.55662 -0.24637 0
M  V30 4523 C 483.107 -1.77782 -0.975779 0
M  V30 4524 C 483.44 -0.592103 -1.84953 0
M  V30 4525 O 482.715 0.409588 -1.90138 0
M  V30 4526 C 482.998 -3.09788 -1.83584 0
M  V30 4527 C 482.851 -4.38764 -0.990241 0
M  V30 4528 C 484.17 -3.38029 -2.81823 0
M  V30 4529 H 481.289 -0.646789 -0.353317 0
M  V30 4530 H 483.931 -1.88398 -0.246248 0
M  V30 4531 H 482.081 -3.00869 -2.45784 0
M  V30 4532 H 483.753 -4.59675 -0.386897 0
M  V30 4533 H 481.996 -4.32798 -0.294626 0
M  V30 4534 H 482.667 -5.27514 -1.62584 0
M  V30 4535 H 485.143 -3.46915 -2.2976 0
M  V30 4536 H 484.019 -4.3161 -3.39122 0
M  V30 4537 H 484.28 -2.58968 -3.58313 0
M  V30 4538 N 483.339 0.512053 -1.4905 0
M  V30 4539 C 484.75 1.09376 -1.51307 0
M  V30 4540 C 485.101 1.94 -0.292971 0
M  V30 4541 O 484.226 2.07965 0.598277 0
M  V30 4542 C 484.821 1.99031 -2.74176 0
M  V30 4543 C 483.38 2.52385 -2.79247 0
M  V30 4544 C 482.527 1.29749 -2.45073 0
M  V30 4545 H 485.478 0.296467 -1.55906 0
M  V30 4546 H 485.499 2.83569 -2.53711 0
M  V30 4547 H 485.011 1.37412 -3.62959 0
M  V30 4548 H 483.112 3.17673 -1.94716 0
M  V30 4549 H 483.225 2.90293 -3.81139 0
M  V30 4550 H 481.589 1.61912 -1.96612 0
M  V30 4551 H 482.372 0.698555 -3.36118 0
M  V30 4552 N 484.817 1.37938 0.762283 0
M  V30 4553 C 486.063 1.33866 1.52341 0
M  V30 4554 C 486.396 -0.0738961 1.94059 0
M  V30 4555 O 485.671 -1.03326 1.64785 0
M  V30 4556 C 485.954 2.28644 2.78197 0
M  V30 4557 C 485.807 3.78722 2.42672 0
M  V30 4558 C 487.126 2.21702 3.80179 0
M  V30 4559 H 484.245 0.487593 0.55265 0
M  V30 4560 H 486.887 1.68717 0.873767 0
M  V30 4561 H 485.037 1.99055 3.33631 0
M  V30 4562 H 486.709 4.18948 1.93081 0
M  V30 4563 H 484.952 3.96827 1.75244 0
M  V30 4564 H 485.623 4.40486 3.3268 0
M  V30 4565 H 488.099 2.47805 3.34263 0
M  V30 4566 H 486.975 2.90143 4.65949 0
M  V30 4567 H 487.236 1.21301 4.25133 0
M  V30 4568 N 486.295 -0.989507 1.22664 0
M  V30 4569 C 487.706 -1.54406 1.04955 0
M  V30 4570 C 488.057 -1.92366 -0.385951 0
M  V30 4571 O 487.182 -1.75111 -1.27142 0
M  V30 4572 C 487.777 -2.80578 1.89899 0
M  V30 4573 C 486.336 -3.32464 1.76478 0
M  V30 4574 C 485.483 -2.05524 1.86159 0
M  V30 4575 H 488.434 -0.810211 1.3646 0
M  V30 4576 H 488.455 -3.53075 1.4184 0
M  V30 4577 H 487.967 -2.52918 2.94371 0
M  V30 4578 H 486.068 -3.65024 0.747528 0
M  V30 4579 H 486.181 -4.02838 2.59342 0
M  V30 4580 H 484.545 -2.19241 1.29636 0
M  V30 4581 H 485.328 -1.80258 2.92168 0
M  V30 4582 N 487.773 -1.03688 -1.18687 0
M  V30 4583 C 489.189 -0.755413 -1.4059 0
M  V30 4584 C 489.389 0.656659 -1.905 0
M  V30 4585 O 488.445 1.42144 -2.08689 0
M  V30 4586 C 489.758 -1.7983 -2.41001 0
M  V30 4587 C 491.306 -1.81877 -2.54735 0
M  V30 4588 C 491.781 -2.85148 -3.58406 0
M  V30 4589 N 493.272 -2.84015 -3.6591 0
M  V30 4590 C 494.007 -3.60573 -4.45841 0
M  V30 4591 N 493.503 -4.46871 -5.29413 0
M  V30 4592 N 495.296 -3.49079 -4.40568 0
M  V30 4593 H 487.447 -1.94818 -0.846148 0
M  V30 4594 H 489.71 -0.842727 -0.434184 0
M  V30 4595 H 489.416 -2.81097 -2.1137 0
M  V30 4596 H 489.29 -1.62727 -3.40294 0
M  V30 4597 H 491.677 -0.812836 -2.83685 0
M  V30 4598 H 491.758 -2.03057 -1.55568 0
M  V30 4599 H 491.402 -3.85918 -3.30197 0
M  V30 4600 H 491.332 -2.61224 -4.57241 0
M  V30 4601 H 493.823 -2.21431 -3.0623 0
M  V30 4602 H 494.136 -5.02007 -5.87545 0
M  V30 4603 H 492.481 -4.5094 -5.28846 0
M  V30 4604 H 495.672 -2.81066 -3.74325 0
M  V30 4605 H 495.845 -4.08994 -5.02621 0
M  V30 4606 N 489.251 1.34841 -0.815825 0
M  V30 4607 C 490.201 2.27075 -0.205169 0
M  V30 4608 C 491.185 1.48205 0.626414 0
M  V30 4609 O 492.377 1.70306 0.482157 0
M  V30 4610 C 489.506 3.37322 0.637871 0
M  V30 4611 C 488.592 4.23609 -0.203948 0
M  V30 4612 N 488.983 4.89558 -1.27149 0
M  V30 4613 C 487.281 4.45998 0.0128971 0
M  V30 4614 C 487.982 5.53597 -1.7862 0
M  V30 4615 N 486.958 5.32535 -1.0912 0
M  V30 4616 H 490.76 2.75563 -1.02187 0
M  V30 4617 H 488.274 1.48477 -0.657912 0
M  V30 4618 H 490.271 4.02359 1.09146 0
M  V30 4619 H 488.931 2.90385 1.45281 0
M  V30 4620 H 489.942 4.9077 -1.65423 0
M  V30 4621 H 486.619 4.09837 0.79624 0
M  V30 4622 H 488.009 6.16184 -2.67892 0
M  V30 4623 N 490.729 0.570148 1.46925 0
M  V30 4624 C 491.954 0.0542592 2.07329 0
M  V30 4625 C 492.379 -1.23582 1.41806 0
M  V30 4626 O 491.737 -1.74341 0.497479 0
M  V30 4627 C 491.785 -0.111175 3.60429 0
M  V30 4628 O 490.889 -1.17071 3.95434 0
M  V30 4629 H 490.23 0.0571425 0.661537 0
M  V30 4630 H 492.76 0.789516 1.88753 0
M  V30 4631 H 492.77 -0.321315 4.06733 0
M  V30 4632 H 491.445 0.831012 4.07513 0
M  V30 4633 H 490.022 -0.940029 3.60857 0
M  V30 4634 N 492.207 -1.54576 0.307264 0
M  V30 4635 C 493.453 -2.0056 -0.300612 0
M  V30 4636 C 493.786 -1.1953 -1.53057 0
M  V30 4637 O 493.061 -0.27337 -1.92569 0
M  V30 4638 C 493.344 -3.54167 -0.650987 0
M  V30 4639 C 493.197 -4.45933 0.588539 0
M  V30 4640 C 494.516 -4.14645 -1.47506 0
M  V30 4641 H 491.635 -0.729075 -0.107788 0
M  V30 4642 H 494.277 -1.85286 0.420606 0
M  V30 4643 H 492.427 -3.67313 -1.26544 0
M  V30 4644 H 494.099 -4.44683 1.22697 0
M  V30 4645 H 492.342 -4.16274 1.22058 0
M  V30 4646 H 493.013 -5.51189 0.299153 0
M  V30 4647 H 495.489 -4.04973 -0.955821 0
M  V30 4648 H 494.365 -5.22269 -1.68899 0
M  V30 4649 H 494.626 -3.66921 -2.4662 0
M  V30 4650 N 493.685 -0.035106 -1.57561 0
M  V30 4651 C 494.933 0.64096 -1.91667 0
M  V30 4652 C 495.254 1.72323 -0.912681 0
M  V30 4653 O 494.524 1.95849 0.0449089 0
M  V30 4654 H 493.104 0.239743 -0.707483 0
M  V30 4655 H 495.766 -0.084321 -1.94718 0
M  V30 4656 H 494.862 1.08987 -2.92452 0
M  V30 4657 N 495.163 1.55791 0.238111 0
M  V30 4658 C 496.409 1.78297 0.966337 0
M  V30 4659 C 496.742 0.601903 1.84637 0
M  V30 4660 O 496.017 -0.399499 1.90353 0
M  V30 4661 C 496.3 3.10758 1.81939 0
M  V30 4662 C 496.153 4.39283 0.966958 0
M  V30 4663 C 497.472 3.39519 2.80027 0
M  V30 4664 H 494.591 0.648654 0.349882 0
M  V30 4665 H 497.233 1.88525 0.236253 0
M  V30 4666 H 495.383 3.02168 2.44185 0
M  V30 4667 H 497.055 4.59873 0.362514 0
M  V30 4668 H 495.298 4.32948 0.271669 0
M  V30 4669 H 495.969 5.28368 1.59784 0
M  V30 4670 H 498.445 3.48128 2.27917 0
M  V30 4671 H 497.321 4.33402 3.36829 0
M  V30 4672 H 497.582 2.60864 3.56934 0
M  V30 4673 N 496.642 -0.504142 1.49319 0
M  V30 4674 C 497.888 -1.26033 1.58882 0
M  V30 4675 C 498.221 -1.92268 0.273274 0
M  V30 4676 O 497.496 -1.80567 -0.72291 0
M  V30 4677 C 497.779 -2.32976 2.7458 0
M  V30 4678 C 497.632 -1.71263 4.1592 0
M  V30 4679 C 498.951 -3.34561 2.85932 0
M  V30 4680 H 496.07 -0.456863 0.578312 0
M  V30 4681 H 498.712 -0.558965 1.81592 0
M  V30 4682 H 496.862 -2.92796 2.55348 0
M  V30 4683 H 498.534 -1.15294 4.4666 0
M  V30 4684 H 496.777 -1.01686 4.21714 0
M  V30 4685 H 497.448 -2.48816 4.92742 0
M  V30 4686 H 499.924 -2.84727 3.0343 0
M  V30 4687 H 498.8 -4.06754 3.68568 0
M  V30 4688 H 499.061 -3.96695 1.95154 0
M  V30 4689 N 498.12 -1.38341 -0.754957 0
M  V30 4690 C 499.369 -1.33791 -1.5094 0
M  V30 4691 C 499.682 0.0699267 -1.95475 0
M  V30 4692 O 500.888 0.237956 -2.70455 0
M  V30 4693 C 499.344 -2.34934 -2.72643 0
M  V30 4694 C 498.952 -3.81332 -2.35138 0
M  V30 4695 C 500.696 -2.39425 -3.50536 0
M  V30 4696 C 498.603 -4.74164 -3.53444 0
M  V30 4697 H 497.533 -0.497314 -0.566741 0
M  V30 4698 H 500.184 -1.63888 -0.825403 0
M  V30 4699 H 498.566 -1.97878 -3.43017 0
M  V30 4700 H 499.74 -4.27319 -1.7244 0
M  V30 4701 H 498.055 -3.79946 -1.70382 0
M  V30 4702 H 500.652 -3.0598 -4.38498 0
M  V30 4703 H 500.995 -1.41278 -3.91594 0
M  V30 4704 H 501.528 -2.75274 -2.87174 0
M  V30 4705 H 498.267 -5.73501 -3.17453 0
M  V30 4706 H 497.787 -4.3287 -4.15191 0
M  V30 4707 H 499.466 -4.92111 -4.20043 0
M  V30 4708 N 499.598 0.982988 -1.23187 0
M  V30 4709 C 500.846 1.72052 -1.06031 0
M  V30 4710 C 501.167 1.90769 0.404019 0
M  V30 4711 O 500.437 1.47446 1.28982 0
M  V30 4712 H 499.017 0.637499 -0.389363 0
M  V30 4713 H 501.679 1.18338 -1.54862 0
M  V30 4714 H 500.775 2.7111 -1.54615 0
M  V30 4715 N 501.076 1.04316 1.18135 0
M  V30 4716 C 502.492 0.762858 1.40188 0
M  V30 4717 C 502.692 -0.646547 1.90846 0
M  V30 4718 O 501.748 -1.41036 2.0944 0
M  V30 4719 C 503.061 1.81106 2.40044 0
M  V30 4720 C 504.609 1.83226 2.53766 0
M  V30 4721 C 505.084 2.87044 3.56889 0
M  V30 4722 N 506.575 2.85951 3.64398 0
M  V30 4723 C 507.31 3.62932 4.43923 0
M  V30 4724 N 506.806 4.49672 5.27036 0
M  V30 4725 N 508.599 3.51411 4.38711 0
M  V30 4726 H 500.75 1.95264 0.835805 0
M  V30 4727 H 503.013 0.845017 0.429709 0
M  V30 4728 H 502.719 2.82214 2.09876 0
M  V30 4729 H 502.593 1.64529 3.39426 0
M  V30 4730 H 504.98 0.827869 2.8325 0
M  V30 4731 H 505.061 2.03879 1.54489 0
M  V30 4732 H 504.705 3.87663 3.28145 0
M  V30 4733 H 504.635 2.63645 4.5585 0
M  V30 4734 H 507.126 2.23051 3.05052 0
M  V30 4735 H 507.439 5.05116 5.84874 0
M  V30 4736 H 505.784 4.53738 5.26447 0
M  V30 4737 H 508.975 2.83047 3.72829 0
M  V30 4738 H 509.148 4.11654 5.00445 0
M  V30 4739 N 502.554 -1.34406 0.822964 0
M  V30 4740 C 503.779 -2.0304 0.423034 0
M  V30 4741 C 504.204 -1.61568 -0.963196 0
M  V30 4742 O 503.562 -0.800339 -1.62678 0
M  V30 4743 C 503.61 -3.56636 0.53321 0
M  V30 4744 O 502.714 -4.09971 -0.446939 0
M  V30 4745 H 502.055 -0.64075 0.174171 0
M  V30 4746 H 504.585 -1.71653 1.11339 0
M  V30 4747 H 504.595 -4.05945 0.408991 0
M  V30 4748 H 503.27 -3.86168 1.54425 0
M  V30 4749 H 501.847 -3.71835 -0.281601 0
M  V30 4750 N 504.032 -0.577932 -1.46621 0
M  V30 4751 C 505.28 -0.061566 -2.02006 0
M  V30 4752 C 505.601 1.30117 -1.4524 0
M  V30 4753 O 504.871 1.85313 -0.63529 0
M  V30 4754 H 503.451 -0.0197692 -0.746738 0
M  V30 4755 H 506.113 -0.752631 -1.79782 0
M  V30 4756 H 505.209 0.0110238 -3.12098 0
M  V30 4757 N 505.51 1.54411 -0.315457 0
M  V30 4758 C 506.42 2.27737 0.56329 0
M  V30 4759 C 507.436 1.31787 1.13614 0
M  V30 4760 O 508.612 1.64791 1.15784 0
M  V30 4761 C 505.677 3.01478 1.71207 0
M  V30 4762 C 504.738 4.12997 1.17185 0
M  V30 4763 C 503.971 4.83212 2.26588 0
M  V30 4764 O 504.194 4.52884 3.46775 0
M  V30 4765 O 503.128 5.70299 1.92463 0
M  V30 4766 H 506.954 3.03683 -0.0319614 0
M  V30 4767 H 504.539 1.49178 -0.0814188 0
M  V30 4768 H 506.421 3.47683 2.38106 0
M  V30 4769 H 505.096 2.28414 2.29366 0
M  V30 4770 H 504.003 3.71159 0.468174 0
M  V30 4771 H 505.336 4.8808 0.635501 0
M  V30 4772 N 506.988 0.0434614 1.5754 0
M  V30 4773 C 507.921 -0.968729 2.06618 0
M  V30 4774 C 508.899 -1.30868 0.965 0
M  V30 4775 O 510.083 -1.42288 1.23638 0
M  V30 4776 C 507.21 -2.28486 2.50023 0
M  V30 4777 C 506.256 -2.09851 3.71302 0
M  V30 4778 S 507.089 -1.38401 5.17306 0
M  V30 4779 C 508.245 -2.71354 5.64019 0
M  V30 4780 H 508.478 -0.551021 2.92149 0
M  V30 4781 H 506.011 -0.168607 1.53477 0
M  V30 4782 H 507.969 -3.04142 2.75695 0
M  V30 4783 H 506.63 -2.67387 1.64812 0
M  V30 4784 H 505.823 -3.07184 3.99567 0
M  V30 4785 H 505.425 -1.42336 3.45856 0
M  V30 4786 H 507.717 -3.67549 5.69134 0
M  V30 4787 H 508.66 -2.47734 6.6335 0
M  V30 4788 H 509.068 -2.77259 4.91719 0
M  V30 4789 N 508.466 -1.55915 -0.229846 0
M  V30 4790 C 509.715 -1.77742 -0.953455 0
M  V30 4791 C 510.028 -0.610524 -1.85828 0
M  V30 4792 O 511.234 -0.712219 -2.61992 0
M  V30 4793 C 509.69 -3.14738 -1.74551 0
M  V30 4794 C 509.298 -4.39126 -0.887242 0
M  V30 4795 C 511.042 -3.45895 -2.46084 0
M  V30 4796 C 508.949 -5.67149 -1.67617 0
M  V30 4797 H 507.879 -0.662648 -0.359741 0
M  V30 4798 H 510.53 -1.82322 -0.207576 0
M  V30 4799 H 508.912 -3.04311 -2.53399 0
M  V30 4800 H 510.086 -4.60588 -0.139892 0
M  V30 4801 H 508.401 -4.15427 -0.284443 0
M  V30 4802 H 510.998 -4.38767 -3.05594 0
M  V30 4803 H 511.341 -2.68007 -3.18556 0
M  V30 4804 H 511.874 -3.57614 -1.74233 0
M  V30 4805 H 508.613 -6.47906 -0.994881 0
M  V30 4806 H 508.133 -5.49763 -2.39836 0
M  V30 4807 H 509.812 -6.07025 -2.23898 0
M  V30 4808 N 509.944 0.496216 -1.49584 0
M  V30 4809 C 510.891 1.59722 -1.66606 0
M  V30 4810 C 511.861 1.58158 -0.507477 0
M  V30 4811 O 513.046 1.76072 -0.735076 0
M  V30 4812 C 510.186 2.97844 -1.74308 0
M  V30 4813 C 509.299 3.09388 -3.01502 0
M  V30 4814 C 508.434 4.38271 -3.00153 0
M  V30 4815 C 507.473 4.43466 -4.21906 0
M  V30 4816 N 506.61 5.63784 -4.1844 0
M  V30 4817 H 511.45 1.44515 -2.60613 0
M  V30 4818 H 508.987 0.703048 -1.29212 0
M  V30 4819 H 510.945 3.77907 -1.76754 0
M  V30 4820 H 509.575 3.11743 -0.837619 0
M  V30 4821 H 508.627 2.22357 -3.08645 0
M  V30 4822 H 509.939 3.09085 -3.91494 0
M  V30 4823 H 509.093 5.2666 -3.01188 0
M  V30 4824 H 507.832 4.41146 -2.07947 0
M  V30 4825 H 506.837 3.53478 -4.21109 0
M  V30 4826 H 508.062 4.42303 -5.1531 0
M  V30 4827 H 506.008 5.67491 -3.29074 0
M  V30 4828 H 505.925 5.65118 -5.02173 0
M  V30 4829 H 507.193 6.54367 -4.23585 0
M  V30 4830 N 511.423 1.38739 0.74761 0
M  V30 4831 C 512.37 1.36449 1.86146 0
M  V30 4832 C 513.34 0.226098 1.64554 0
M  V30 4833 O 514.525 0.41926 1.86137 0
M  V30 4834 C 511.665 1.2013 3.23516 0
M  V30 4835 C 510.778 2.43407 3.56899 0
M  V30 4836 C 509.913 2.19773 4.83605 0
M  V30 4837 C 508.952 3.3879 5.09792 0
M  V30 4838 N 508.089 3.14553 6.27695 0
M  V30 4839 H 512.929 2.3167 1.87438 0
M  V30 4840 H 510.466 1.15094 0.916063 0
M  V30 4841 H 512.424 1.08683 4.02795 0
M  V30 4842 H 511.054 0.285453 3.21535 0
M  V30 4843 H 510.106 2.65504 2.72418 0
M  V30 4844 H 511.418 3.32094 3.72176 0
M  V30 4845 H 510.572 2.05496 5.70838 0
M  V30 4846 H 509.311 1.28461 4.70478 0
M  V30 4847 H 508.316 3.53579 4.21025 0
M  V30 4848 H 509.541 4.30986 5.24812 0
M  V30 4849 H 507.487 2.25893 6.1588 0
M  V30 4850 H 507.404 3.96791 6.435 0
M  V30 4851 H 508.672 3.03943 7.17801 0
M  V30 4852 N 512.901 -0.976442 1.23707 0
M  V30 4853 C 514.15 -1.71254 1.06559 0
M  V30 4854 C 514.463 -1.91528 -0.397024 0
M  V30 4855 O 515.669 -2.62625 -0.688518 0
M  V30 4856 C 514.125 -3.08207 1.8584 0
M  V30 4857 C 513.733 -2.95806 3.36456 0
M  V30 4858 C 515.477 -3.85749 1.77194 0
M  V30 4859 C 513.384 -4.28015 4.08114 0
M  V30 4860 H 512.314 -0.642171 0.395136 0
M  V30 4861 H 514.965 -1.08877 1.4771 0
M  V30 4862 H 513.347 -3.71363 1.37498 0
M  V30 4863 H 514.521 -2.41716 3.92314 0
M  V30 4864 H 512.836 -2.31736 3.45959 0
M  V30 4865 H 515.433 -4.83633 2.28041 0
M  V30 4866 H 515.776 -4.09752 0.735477 0
M  V30 4867 H 516.309 -3.29303 2.23169 0
M  V30 4868 H 513.048 -4.09208 5.12083 0
M  V30 4869 H 512.568 -4.81955 3.57043 0
M  V30 4870 H 514.247 -4.96681 4.14629 0
M  V30 4871 N 514.379 -1.04941 -1.1758 0
M  V30 4872 C 515.311 -0.606174 -2.21039 0
M  V30 4873 C 516.324 0.328763 -1.59446 0
M  V30 4874 O 517.513 0.121895 -1.78083 0
M  V30 4875 C 514.613 0.133294 -3.38638 0
M  V30 4876 C 513.786 -0.811711 -4.29802 0
M  V30 4877 C 512.845 -0.113958 -5.26077 0
M  V30 4878 O 511.871 -0.747237 -5.64274 0
M  V30 4879 N 513.073 1.14953 -5.69004 0
M  V30 4880 H 515.838 -1.49606 -2.59689 0
M  V30 4881 H 513.399 -0.930997 -1.32454 0
M  V30 4882 H 515.391 0.610144 -4.00074 0
M  V30 4883 H 513.961 0.924816 -2.98607 0
M  V30 4884 H 513.181 -1.46824 -3.65837 0
M  V30 4885 H 514.469 -1.45326 -4.87604 0
M  V30 4886 H 513.867 1.68441 -5.40041 0
M  V30 4887 H 512.424 1.57049 -6.32597 0
M  V30 4888 N 515.857 1.33968 -0.830081 0
M  V30 4889 C 516.805 2.31301 -0.245435 0
M  V30 4890 C 517.799 1.57734 0.617762 0
M  V30 4891 O 519.005 1.72674 0.508303 0
M  V30 4892 H 515.38 0.749552 -0.0606316 0
M  V30 4893 H 517.351 2.78129 -1.08105 0
M  V30 4894 C 516.1 3.42961 0.572084 0
M  V30 4895 H 515.423 3.99714 -0.0828118 0
M  V30 4896 H 516.863 4.13286 0.94715 0
M  V30 4897 C 515.322 2.88043 1.74737 0
M  V30 4898 O 515.852 2.83508 2.8458 0
M  V30 4899 N 514.058 2.44768 1.56642 0
M  V30 4900 H 513.605 2.48656 0.672901 0
M  V30 4901 H 513.563 2.08375 2.3543 0
M  V30 4902 N 517.335 0.585699 1.46312 0
M  V30 4903 C 518.612 0.00542031 1.95599 0
M  V30 4904 C 518.992 -1.45619 1.52834 0
M  V30 4905 O 518.34 -2.14759 0.780446 0
M  V30 4906 C 518.55 0.180601 3.48532 0
M  V30 4907 C 519.898 0.049979 4.24571 0
M  V30 4908 O 520.922 0.109589 3.56031 0
M  V30 4909 O 519.781 -0.0832226 5.46437 0
M  V30 4910 H 516.875 -0.0481281 0.825598 0
M  V30 4911 H 519.421 0.654227 1.56582 0
M  V30 4912 H 518.193 1.19657 3.72556 0
M  V30 4913 H 517.816 -0.504498 3.94386 0
M  V30 4914 N 518.813 -1.54241 0.323641 0
M  V30 4915 C 519.776 -2.22997 -0.529602 0
M  V30 4916 C 520.776 -1.22345 -1.04347 0
M  V30 4917 O 521.966 -1.46924 -0.935889 0
M  V30 4918 C 519.098 -2.93409 -1.73562 0
M  V30 4919 H 520.291 -2.99815 0.0714518 0
M  V30 4920 H 517.844 -1.56121 0.0747258 0
M  V30 4921 H 518.579 -2.20729 -2.37591 0
M  V30 4922 H 518.364 -3.67217 -1.37456 0
M  V30 4923 H 519.854 -3.45794 -2.34128 0
M  V30 4924 N 520.291 -0.0518155 -1.57515 0
M  V30 4925 C 521.539 0.620595 -1.92336 0
M  V30 4926 C 521.86 1.71345 -0.930907 0
M  V30 4927 O 521.13 1.95885 0.0241341 0
M  V30 4928 H 519.71 0.232226 -0.709986 0
M  V30 4929 H 522.372 -0.104969 -1.94617 0
M  V30 4930 H 521.468 1.05879 -2.93592 0
M  V30 4931 N 521.769 1.56035 0.221574 0
M  V30 4932 C 523.015 1.79312 0.947372 0
M  V30 4933 C 523.348 0.621453 1.83988 0
M  V30 4934 O 522.623 -0.379287 1.90766 0
M  V30 4935 C 522.906 3.1267 1.78633 0
M  V30 4936 C 522.759 4.40284 0.920312 0
M  V30 4937 C 524.078 3.4247 2.7641 0
M  V30 4938 H 521.197 0.652328 0.342982 0
M  V30 4939 H 523.839 1.88765 0.216244 0
M  V30 4940 H 521.989 3.04741 2.40967 0
M  V30 4941 H 523.661 4.60232 0.313718 0
M  V30 4942 H 521.904 4.33212 0.225734 0
M  V30 4943 H 522.575 5.30033 1.54171 0
M  V30 4944 H 525.051 3.50526 2.24211 0
M  V30 4945 H 523.927 4.3695 3.32213 0
M  V30 4946 H 524.188 2.64635 3.54148 0
M  V30 4947 N 523.247 -0.488276 1.49845 0
M  V30 4948 C 524.663 -0.820566 1.3689 0
M  V30 4949 C 524.863 -1.97248 0.411752 0
M  V30 4950 O 523.919 -2.52042 -0.151931 0
M  V30 4951 C 525.232 -1.1488 2.77891 0
M  V30 4952 C 526.78 -1.25626 2.86683 0
M  V30 4953 C 527.255 -1.61772 4.28479 0
M  V30 4954 N 528.746 -1.68797 4.31349 0
M  V30 4955 C 529.481 -1.98235 5.38043 0
M  V30 4956 N 528.977 -2.2581 6.54967 0
M  V30 4957 N 530.77 -1.99593 5.2547 0
M  V30 4958 H 522.921 0.271123 2.10662 0
M  V30 4959 H 525.184 0.058735 0.946179 0
M  V30 4960 H 524.89 -0.375614 3.49688 0
M  V30 4961 H 524.764 -2.08919 3.14058 0
M  V30 4962 H 527.151 -2.02014 2.15114 0
M  V30 4963 H 527.232 -0.296072 2.54081 0
M  V30 4964 H 526.876 -0.859295 5.00578 0
M  V30 4965 H 526.806 -2.58912 4.58554 0
M  V30 4966 H 529.297 -1.49595 3.4703 0
M  V30 4967 H 529.61 -2.47497 7.32096 0
M  V30 4968 H 527.955 -2.23239 6.58171 0
M  V30 4969 H 531.146 -1.77535 4.33127 0
M  V30 4970 H 531.319 -2.222 6.08713 0
M  V30 4971 N 524.725 -1.39134 -0.740242 0
M  V30 4972 C 525.974 -1.35384 -1.49512 0
M  V30 4973 C 526.287 0.04919 -1.95538 0
M  V30 4974 O 527.493 0.209257 -2.70692 0
M  V30 4975 C 525.949 -2.37812 -2.70136 0
M  V30 4976 C 525.557 -3.83804 -2.31081 0
M  V30 4977 C 527.301 -2.4313 -3.47977 0
M  V30 4978 C 525.208 -4.77886 -3.48395 0
M  V30 4979 H 524.138 -0.503297 -0.561434 0
M  V30 4980 H 526.789 -1.64754 -0.807974 0
M  V30 4981 H 525.171 -2.01505 -3.40899 0
M  V30 4982 H 526.345 -4.29123 -1.67898 0
M  V30 4983 H 524.66 -3.81732 -1.66343 0
M  V30 4984 H 527.257 -3.10614 -4.35228 0
M  V30 4985 H 527.6 -1.45423 -3.90074 0
M  V30 4986 H 528.133 -2.78304 -2.84239 0
M  V30 4987 H 524.872 -5.76836 -3.11353 0
M  V30 4988 H 524.392 -4.3725 -4.10576 0
M  V30 4989 H 526.071 -4.96538 -4.148 0
M  V30 4990 N 526.204 0.969867 -1.24223 0
M  V30 4991 C 527.136 2.0669 -0.99055 0
M  V30 4992 C 528.149 1.62753 0.0392222 0
M  V30 4993 O 529.338 1.77403 -0.197561 0
M  V30 4994 C 526.438 3.35589 -0.472594 0
M  V30 4995 C 525.611 4.08444 -1.56499 0
M  V30 4996 C 524.67 5.15616 -1.05007 0
M  V30 4997 O 523.696 5.41911 -1.7413 0
M  V30 4998 N 524.898 5.80383 0.116641 0
M  V30 4999 H 527.663 2.28855 -1.93508 0
M  V30 5000 H 525.224 1.13733 -1.15223 0
M  V30 5001 H 527.216 4.04542 -0.112919 0
M  V30 5002 H 525.786 3.10311 0.377617 0
M  V30 5003 H 525.006 3.33798 -2.09696 0
M  V30 5004 H 526.294 4.53882 -2.29932 0
M  V30 5005 H 525.692 5.6142 0.694589 0
M  V30 5006 H 524.249 6.50462 0.417483 0
M  V30 5007 N 527.682 1.05563 1.17022 0
M  V30 5008 C 528.929 0.767937 1.87374 0
M  V30 5009 C 529.257 -0.705224 1.81265 0
M  V30 5010 O 528.512 -1.5318 1.21796 0
M  V30 5011 C 528.811 1.19849 3.36706 0
M  V30 5012 C 528.477 2.6745 3.63017 0
M  V30 5013 C 527.139 3.0777 3.69907 0
M  V30 5014 C 529.491 3.62811 3.74189 0
M  V30 5015 C 526.819 4.42307 3.85463 0
M  V30 5016 C 529.171 4.97087 3.91264 0
M  V30 5017 C 527.835 5.37055 3.96394 0
M  V30 5018 H 527.105 0.281008 0.68565 0
M  V30 5019 H 529.752 1.32339 1.38415 0
M  V30 5020 H 528.057 0.562096 3.87747 0
M  V30 5021 H 529.754 0.953038 3.8951 0
M  V30 5022 H 526.344 2.35228 3.58282 0
M  V30 5023 H 530.528 3.32798 3.68183 0
M  V30 5024 H 525.784 4.72769 3.87684 0
M  V30 5025 H 529.958 5.70869 3.9885 0
M  V30 5026 H 527.585 6.41308 4.082 0
M  V30 5027 N 529.16 -1.33526 0.837174 0
M  V30 5028 C 530.107 -2.29248 0.267169 0
M  V30 5029 C 531.077 -1.54252 -0.616071 0
M  V30 5030 O 532.262 -1.82559 -0.554699 0
M  V30 5031 C 529.402 -3.40638 -0.553152 0
M  V30 5032 C 528.515 -4.30548 0.353921 0
M  V30 5033 C 527.65 -5.29051 -0.477339 0
M  V30 5034 C 526.689 -6.106 0.42823 0
M  V30 5035 N 525.826 -7.01152 -0.364801 0
M  V30 5036 H 530.666 -2.77398 1.08877 0
M  V30 5037 H 528.203 -1.36496 0.54838 0
M  V30 5038 H 530.161 -4.03921 -1.04422 0
M  V30 5039 H 528.791 -2.93685 -1.33973 0
M  V30 5040 H 527.843 -3.68001 0.963289 0
M  V30 5041 H 529.155 -4.87631 1.04964 0
M  V30 5042 H 528.309 -5.97853 -1.0323 0
M  V30 5043 H 527.048 -4.72541 -1.2065 0
M  V30 5044 H 526.053 -5.40718 0.995219 0
M  V30 5045 H 527.278 -6.69193 1.15573 0
M  V30 5046 H 525.224 -6.47092 -1.07738 0
M  V30 5047 H 525.141 -7.5551 0.272238 0
M  V30 5048 H 526.409 -7.74263 -0.902054 0
M  V30 5049 N 530.638 -0.59345 -1.46 0
M  V30 5050 C 531.57 0.171569 -2.28557 0
M  V30 5051 C 532.583 0.845273 -1.39137 0
M  V30 5052 O 533.772 0.713033 -1.6364 0
M  V30 5053 C 530.872 1.26311 -3.14482 0
M  V30 5054 C 530.045 0.679258 -4.32094 0
M  V30 5055 C 529.104 1.65987 -4.99334 0
M  V30 5056 O 528.13 1.19171 -5.56585 0
M  V30 5057 N 529.332 2.99414 -4.97324 0
M  V30 5058 H 532.097 -0.536771 -2.94854 0
M  V30 5059 H 529.658 -0.431954 -1.56031 0
M  V30 5060 H 531.65 1.91863 -3.5633 0
M  V30 5061 H 530.22 1.87416 -2.50188 0
M  V30 5062 H 529.44 -0.153992 -3.93899 0
M  V30 5063 H 530.728 0.26916 -5.08088 0
M  V30 5064 H 530.126 3.40064 -4.52076 0
M  V30 5065 H 528.683 3.60426 -5.4308 0
M  V30 5066 N 532.116 1.54067 -0.331816 0
M  V30 5067 C 533.393 1.92915 0.322955 0
M  V30 5068 C 533.773 1.26225 1.69205 0
M  V30 5069 O 533.121 0.408919 2.24811 0
M  V30 5070 C 533.331 3.46619 0.406946 0
M  V30 5071 C 534.679 4.19386 0.663339 0
M  V30 5072 O 535.703 3.5282 0.489536 0
M  V30 5073 O 534.562 5.37288 0.999193 0
M  V30 5074 H 531.656 0.805808 0.186016 0
M  V30 5075 H 534.202 1.65342 -0.382135 0
M  V30 5076 H 532.974 3.87354 -0.554287 0
M  V30 5077 H 532.597 3.80324 1.15929 0
M  V30 5078 N 533.594 0.0601682 1.57485 0
M  V30 5079 C 534.871 -0.651956 1.84415 0
M  V30 5080 C 535.251 -1.88498 0.950361 0
M  V30 5081 O 534.599 -2.28496 0.0136719 0
M  V30 5082 C 534.809 -1.00069 3.34346 0
M  V30 5083 C 536.157 -1.37915 4.01578 0
M  V30 5084 O 537.181 -1.09277 3.39024 0
M  V30 5085 O 536.04 -1.91399 5.11887 0
M  V30 5086 H 533.134 -0.322668 0.761455 0
M  V30 5087 H 535.68 0.0902159 1.6946 0
M  V30 5088 H 534.452 -0.124463 3.91102 0
M  V30 5089 H 534.075 -1.80001 3.54521 0
M  V30 5090 N 535.072 -1.5615 -0.213296 0
M  V30 5091 C 536.32 -1.79191 -0.934612 0
M  V30 5092 C 536.641 -0.630112 -1.84539 0
M  V30 5093 O 535.911 0.35257 -1.92701 0
M  V30 5094 H 534.491 -0.660937 -0.348097 0
M  V30 5095 H 537.153 -1.93618 -0.22317 0
M  V30 5096 H 536.249 -2.71656 -1.53654 0
M  V30 5097 N 536.55 0.480323 -1.50102 0
M  V30 5098 C 537.778 1.25657 -1.64371 0
M  V30 5099 C 538.193 1.86011 -0.323316 0
M  V30 5100 O 537.55 1.68803 0.693682 0
M  V30 5101 C 537.601 2.37197 -2.728 0
M  V30 5102 O 537.322 1.7932 -3.9972 0
M  V30 5103 C 538.823 3.2823 -2.9796 0
M  V30 5104 H 536.043 0.380369 -0.552775 0
M  V30 5105 H 538.587 0.574379 -1.96268 0
M  V30 5106 H 536.742 3.01208 -2.43623 0
M  V30 5107 H 537.156 2.52701 -4.59611 0
M  V30 5108 H 538.63 4.02725 -3.77513 0
M  V30 5109 H 539.107 3.86462 -2.08671 0
M  V30 5110 H 539.713 2.69964 -3.28633 0
M  V30 5111 N 538.028 1.39524 0.732853 0
M  V30 5112 C 539.276 1.36594 1.48951 0
M  V30 5113 C 539.597 -0.0367507 1.94965 0
M  V30 5114 O 538.867 -0.988391 1.69138 0
M  V30 5115 H 537.447 0.502673 0.552566 0
M  V30 5116 H 540.109 1.74411 0.869869 0
M  V30 5117 H 539.205 2.03 2.3706 0
M  V30 5118 N 539.506 -0.963266 1.24736 0
M  V30 5119 C 540.917 -1.52145 1.08207 0
M  V30 5120 C 541.268 -1.93142 -0.345061 0
M  V30 5121 O 540.393 -1.77769 -1.23399 0
M  V30 5122 C 540.988 -2.76486 1.95808 0
M  V30 5123 C 539.547 -3.28646 1.8349 0
M  V30 5124 C 538.694 -2.01529 1.90476 0
M  V30 5125 H 541.645 -0.781083 1.38148 0
M  V30 5126 H 541.666 -3.49986 1.49297 0
M  V30 5127 H 541.178 -2.46617 2.99669 0
M  V30 5128 H 539.279 -3.63357 0.824787 0
M  V30 5129 H 539.392 -3.97246 2.67829 0
M  V30 5130 H 537.756 -2.16442 1.34258 0
M  V30 5131 H 538.539 -1.7402 2.95926 0
M  V30 5132 N 540.985 -1.06182 -1.16461 0
M  V30 5133 C 541.895 -0.682671 -2.24448 0
M  V30 5134 C 542.911 0.30078 -1.71381 0
M  V30 5135 O 544.087 0.150376 -2.00838 0
M  V30 5136 C 541.152 -0.0737202 -3.46622 0
M  V30 5137 C 540.213 -1.10889 -4.14731 0
M  V30 5138 C 539.446 -0.528908 -5.31073 0
M  V30 5139 O 539.669 0.65868 -5.66584 0
M  V30 5140 O 538.603 -1.26805 -5.88391 0
M  V30 5141 H 542.429 -1.58291 -2.59187 0
M  V30 5142 H 540.014 -0.834013 -1.23954 0
M  V30 5143 H 541.896 0.264192 -4.20571 0
M  V30 5144 H 540.571 0.800015 -3.13658 0
M  V30 5145 H 539.478 -1.49896 -3.42756 0
M  V30 5146 H 540.811 -1.95412 -4.51747 0
M  V30 5147 N 542.463 1.3308 -0.844243 0
M  V30 5148 C 543.41 2.29104 -0.279323 0
M  V30 5149 C 544.38 1.54577 0.607882 0
M  V30 5150 O 545.565 1.8285 0.545009 0
M  V30 5151 C 542.705 3.40927 0.53508 0
M  V30 5152 C 541.818 4.30354 -0.376749 0
M  V30 5153 C 540.953 5.29297 0.449276 0
M  V30 5154 C 539.992 6.10365 -0.460606 0
M  V30 5155 N 539.129 7.01335 0.327612 0
M  V30 5156 H 543.969 2.76817 -1.10346 0
M  V30 5157 H 541.506 1.36203 -0.555611 0
M  V30 5158 H 543.464 4.04469 1.02278 0
M  V30 5159 H 542.094 2.94391 1.32414 0
M  V30 5160 H 541.146 3.67485 -0.982791 0
M  V30 5161 H 542.458 4.87067 -1.07549 0
M  V30 5162 H 541.612 5.98392 1.00058 0
M  V30 5163 H 540.351 4.73174 1.18143 0
M  V30 5164 H 539.356 5.40182 -1.02388 0
M  V30 5165 H 540.581 6.68571 -1.1912 0
M  V30 5166 H 538.527 6.47655 1.04305 0
M  V30 5167 H 538.444 7.55355 -0.3123 0
M  V30 5168 H 539.712 7.74731 0.86098 0
M  V30 5169 N 543.941 0.601185 1.45683 0
M  V30 5170 C 545.19 0.0914953 2.01492 0
M  V30 5171 C 545.503 -1.28331 1.47616 0
M  V30 5172 O 546.709 -1.88537 1.95362 0
M  V30 5173 C 545.165 0.11291 3.59723 0
M  V30 5174 C 544.773 1.48717 4.22596 0
M  V30 5175 C 546.517 -0.341871 4.23121 0
M  V30 5176 C 544.424 1.46531 5.7296 0
M  V30 5177 H 543.354 0.0304365 0.753385 0
M  V30 5178 H 546.005 0.755568 1.67223 0
M  V30 5179 H 544.387 -0.617692 3.91153 0
M  V30 5180 H 545.561 2.23897 4.02749 0
M  V30 5181 H 543.876 1.88351 3.71366 0
M  V30 5182 H 546.473 -0.377304 5.33367 0
M  V30 5183 H 546.816 -1.36325 3.93346 0
M  V30 5184 H 547.349 0.335256 3.96385 0
M  V30 5185 H 544.088 2.46408 6.07423 0
M  V30 5186 H 543.608 0.755997 5.95017 0
M  V30 5187 H 545.287 1.18618 6.36034 0
M  V30 5188 N 545.419 -1.53889 0.339982 0
M  V30 5189 C 546.382 -2.23547 -0.50592 0
M  V30 5190 C 547.382 -1.23445 -1.03044 0
M  V30 5191 O 548.572 -1.47909 -0.920253 0
M  V30 5192 C 545.704 -2.95234 -1.7044 0
M  V30 5193 H 546.897 -2.99722 0.103247 0
M  V30 5194 H 544.45 -1.56033 0.0912804 0
M  V30 5195 H 545.185 -2.23236 -2.35236 0
M  V30 5196 H 544.97 -3.68654 -1.33553 0
M  V30 5197 H 546.46 -3.48258 -2.30447 0
M  V30 5198 N 546.897 -0.0685191 -1.57451 0
M  V30 5199 C 547.847 0.909895 -2.09057 0
M  V30 5200 C 548.831 1.26088 -0.999528 0
M  V30 5201 O 550.023 1.24041 -1.26265 0
M  V30 5202 C 547.152 2.17863 -2.65312 0
M  V30 5203 C 546.238 1.85427 -3.81415 0
M  V30 5204 N 546.629 1.23426 -4.9051 0
M  V30 5205 C 544.927 2.15196 -3.90649 0
M  V30 5206 C 545.628 1.09008 -5.71395 0
M  V30 5207 N 544.604 1.59871 -5.1956 0
M  V30 5208 H 548.406 0.426145 -2.90794 0
M  V30 5209 H 545.92 0.135462 -1.61834 0
M  V30 5210 H 547.917 2.88872 -3.00597 0
M  V30 5211 H 546.577 2.66829 -1.85021 0
M  V30 5212 H 547.588 0.904305 -5.09944 0
M  V30 5213 H 544.265 2.66562 -3.21327 0
M  V30 5214 H 545.655 0.607305 -6.6915 0
M  V30 5215 N 548.375 1.56261 0.205012 0
M  V30 5216 C 549.624 1.79236 0.925058 0
M  V30 5217 C 549.937 0.640011 1.84833 0
M  V30 5218 O 551.143 0.753809 2.60826 0
M  V30 5219 C 549.599 3.17475 1.69522 0
M  V30 5220 C 549.207 4.40482 0.817269 0
M  V30 5221 C 550.951 3.49766 2.4055 0
M  V30 5222 C 548.858 5.69744 1.58573 0
M  V30 5223 H 547.788 0.668287 0.349153 0
M  V30 5224 H 550.439 1.82629 0.178544 0
M  V30 5225 H 548.821 3.08304 2.48526 0
M  V30 5226 H 549.995 4.60752 0.0665988 0
M  V30 5227 H 548.31 4.15827 0.218316 0
M  V30 5228 H 550.907 4.43573 2.98575 0
M  V30 5229 H 551.25 2.73041 3.14252 0
M  V30 5230 H 551.783 3.60341 1.68522 0
M  V30 5231 H 548.522 6.49407 0.891679 0
M  V30 5232 H 548.042 5.53509 2.31059 0
M  V30 5233 H 549.721 6.1051 2.14212 0
M  V30 5234 N 549.853 -0.472356 1.50355 0
M  V30 5235 C 550.786 -1.58923 1.63764 0
M  V30 5236 C 551.764 -1.55173 0.485793 0
M  V30 5237 O 552.948 -1.74815 0.705132 0
M  V30 5238 C 550.075 -2.97497 1.61905 0
M  V30 5239 C 549.121 -3.19405 2.82635 0
M  V30 5240 S 549.954 -2.99441 4.43954 0
M  V30 5241 C 551.11 -4.40359 4.44786 0
M  V30 5242 H 551.343 -1.47309 2.58239 0
M  V30 5243 H 548.876 -0.659601 1.39602 0
M  V30 5244 H 550.834 -3.77389 1.61518 0
M  V30 5245 H 549.495 -3.06502 0.686683 0
M  V30 5246 H 548.688 -4.20636 2.77636 0
M  V30 5247 H 548.29 -2.47283 2.80583 0
M  V30 5248 H 550.582 -5.32969 4.1827 0
M  V30 5249 H 551.525 -4.50403 5.46391 0
M  V30 5250 H 551.933 -4.22378 3.74509 0
M  V30 5251 N 551.331 -1.39911 -0.725443 0
M  V30 5252 C 552.579 -1.37382 -1.48224 0
M  V30 5253 C 552.9 0.0264107 -1.94982 0
M  V30 5254 O 552.17 0.979408 -1.6966 0
M  V30 5255 H 550.75 -0.505596 -0.549892 0
M  V30 5256 H 553.412 -1.7487 -0.860608 0
M  V30 5257 H 552.508 -2.04254 -2.3598 0
M  V30 5258 N 552.809 0.956637 -1.25245 0
M  V30 5259 C 554.22 1.51569 -1.09012 0
M  V30 5260 C 554.571 1.93322 0.334813 0
M  V30 5261 O 553.696 1.78421 1.22454 0
M  V30 5262 C 554.291 2.75444 -1.97271 0
M  V30 5263 C 552.85 3.27669 -1.8523 0
M  V30 5264 C 551.997 2.00517 -1.91542 0
M  V30 5265 H 554.948 0.773746 -1.3856 0
M  V30 5266 H 554.969 3.4919 -1.51151 0
M  V30 5267 H 554.481 2.45024 -3.00973 0
M  V30 5268 H 552.582 3.62914 -0.844045 0
M  V30 5269 H 552.695 3.9582 -2.69932 0
M  V30 5270 H 551.059 2.15727 -1.35404 0
M  V30 5271 H 551.842 1.72448 -2.96844 0
M  V30 5272 N 554.287 1.06798 1.15896 0
M  V30 5273 C 555.698 0.811355 1.68149 0
M  V30 5274 C 556.049 -0.664339 1.8461 0
M  V30 5275 O 555.174 -1.51485 1.54535 0
M  V30 5276 C 555.769 1.46624 3.05429 0
M  V30 5277 C 554.328 1.25726 3.54781 0
M  V30 5278 C 553.475 1.53949 2.3064 0
M  V30 5279 H 556.426 1.23078 1.00187 0
M  V30 5280 H 556.447 0.88437 3.7008 0
M  V30 5281 H 555.959 2.54025 2.93416 0
M  V30 5282 H 554.06 0.20322 3.72045 0
M  V30 5283 H 554.173 1.97354 4.36564 0
M  V30 5284 H 552.537 0.96025 2.35905 0
M  V30 5285 H 553.32 2.6252 2.2122 0
M  V30 5286 N 555.766 -1.3263 0.851289 0
M  V30 5287 C 557.043 -1.91982 0.374448 0
M  V30 5288 C 557.423 -1.77568 -1.14161 0
M  V30 5289 O 556.771 -1.1717 -1.96172 0
M  V30 5290 C 556.981 -3.38862 0.835088 0
M  V30 5291 C 558.329 -4.15999 0.850309 0
M  V30 5292 O 559.353 -3.47566 0.779505 0
M  V30 5293 O 558.212 -5.38189 0.949481 0
M  V30 5294 H 555.306 -0.819846 0.10854 0
M  V30 5295 H 557.852 -1.41422 0.937966 0
M  V30 5296 H 556.624 -3.43281 1.87814 0
M  V30 5297 H 556.247 -3.96821 0.248833 0
M  V30 5298 N 557.244 -0.608902 -1.45362 0
M  V30 5299 C 558.66 -0.272659 -1.57254 0
M  V30 5300 C 558.86 1.22477 -1.60005 0
M  V30 5301 O 557.916 2.00785 -1.53106 0
M  V30 5302 C 559.229 -0.944991 -2.85465 0
M  V30 5303 C 560.777 -0.921033 -2.99142 0
M  V30 5304 C 561.252 -1.5734 -4.30126 0
M  V30 5305 N 562.743 -1.53895 -4.36887 0
M  V30 5306 C 563.478 -2.01286 -5.36909 0
M  V30 5307 N 562.974 -2.56768 -6.43461 0
M  V30 5308 N 564.767 -1.92046 -5.28275 0
M  V30 5309 H 556.918 -1.58117 -1.4182 0
M  V30 5310 H 559.181 -0.662437 -0.678146 0
M  V30 5311 H 558.887 -1.99941 -2.89338 0
M  V30 5312 H 558.761 -0.469079 -3.74272 0
M  V30 5313 H 561.148 0.124846 -2.94836 0
M  V30 5314 H 561.229 -1.43522 -2.11743 0
M  V30 5315 H 560.873 -2.61862 -4.35191 0
M  V30 5316 H 560.803 -1.03422 -5.16344 0
M  V30 5317 H 563.294 -1.13366 -3.60495 0
M  V30 5318 H 563.607 -2.9072 -7.16032 0
M  V30 5319 H 561.952 -2.60808 -6.44208 0
M  V30 5320 H 565.143 -1.48439 -4.43941 0
M  V30 5321 H 565.316 -2.29293 -6.06077 0
M  V30 5322 N 558.722 1.53707 -0.348139 0
M  V30 5323 C 559.962 2.02899 0.247254 0
M  V30 5324 C 560.326 1.23033 1.47401 0
M  V30 5325 O 561.527 1.62146 2.14388 0
M  V30 5326 C 559.798 3.53156 0.549151 0
M  V30 5327 S 561.357 4.24247 1.1207 0
M  V30 5328 H 558.175 0.707213 0.0732894 0
M  V30 5329 H 560.777 1.89338 -0.486965 0
M  V30 5330 H 559.481 4.08893 -0.351435 0
M  V30 5331 H 559.012 3.70845 1.31291 0
M  V30 5332 H 561.027 4.33958 2.40613 0
M  V30 5333 N 560.2 0.0768682 1.57412 0
M  V30 5334 C 561.11 -0.903207 2.16516 0
M  V30 5335 C 562.126 -1.32341 1.12968 0
M  V30 5336 O 563.302 -1.39507 1.45258 0
M  V30 5337 C 560.367 -2.1508 2.71922 0
M  V30 5338 C 559.428 -1.78653 3.90361 0
M  V30 5339 C 558.661 -2.97465 4.43114 0
M  V30 5340 O 558.884 -4.11638 3.94854 0
M  V30 5341 O 557.818 -2.76987 5.3438 0
M  V30 5342 H 561.644 -0.430427 3.00634 0
M  V30 5343 H 559.229 -0.146485 1.4868 0
M  V30 5344 H 561.111 -2.8823 3.07411 0
M  V30 5345 H 559.786 -2.61446 1.9086 0
M  V30 5346 H 558.693 -1.0274 3.59716 0
M  V30 5347 H 560.026 -1.37066 4.7273 0
M  V30 5348 N 561.678 -1.56367 -0.196722 0
M  V30 5349 C 562.628 -1.9082 -1.24787 0
M  V30 5350 C 563.612 -0.773719 -1.41076 0
M  V30 5351 O 564.804 -1.03655 -1.43474 0
M  V30 5352 C 561.933 -2.24982 -2.59303 0
M  V30 5353 C 561.019 -3.44882 -2.46814 0
M  V30 5354 N 561.41 -4.62835 -2.04003 0
M  V30 5355 C 559.708 -3.48988 -2.77711 0
M  V30 5356 C 560.409 -5.44993 -2.03366 0
M  V30 5357 N 559.385 -4.85356 -2.44807 0
M  V30 5358 H 563.187 -2.79516 -0.908175 0
M  V30 5359 H 560.701 -1.57265 -0.405166 0
M  V30 5360 H 562.698 -2.47848 -3.35227 0
M  V30 5361 H 561.358 -1.37611 -2.94098 0
M  V30 5362 H 562.369 -4.87532 -1.74738 0
M  V30 5363 H 559.046 -2.72029 -3.16712 0
M  V30 5364 H 560.436 -6.49464 -1.72181 0
M  V30 5365 N 563.156 0.464375 -1.50603 0
M  V30 5366 C 564.119 1.54393 -1.69397 0
M  V30 5367 C 565.119 1.50566 -0.564504 0
M  V30 5368 O 566.309 1.53066 -0.831645 0
M  V30 5369 C 563.441 2.9401 -1.72543 0
M  V30 5370 H 564.634 1.39044 -2.65719 0
M  V30 5371 H 562.187 0.69122 -1.40185 0
M  V30 5372 H 562.922 3.14795 -0.77938 0
M  V30 5373 H 562.707 2.98195 -2.54602 0
M  V30 5374 H 564.197 3.72375 -1.89015 0
M  V30 5375 N 564.634 1.40294 0.718013 0
M  V30 5376 C 565.597 1.4012 1.81381 0
M  V30 5377 C 566.597 0.295405 1.58063 0
M  V30 5378 O 567.787 0.554187 1.6515 0
M  V30 5379 C 564.919 1.19056 3.19435 0
M  V30 5380 H 566.112 2.37645 1.82933 0
M  V30 5381 H 563.665 1.26107 0.923405 0
M  V30 5382 H 564.4 0.222809 3.23534 0
M  V30 5383 H 564.185 1.99152 3.37758 0
M  V30 5384 H 565.675 1.21716 3.99468 0
M  V30 5385 N 566.112 -0.949982 1.2575 0
M  V30 5386 C 567.528 -1.22191 1.02672 0
M  V30 5387 C 567.728 -1.99898 -0.253588 0
M  V30 5388 O 566.784 -2.33329 -0.965076 0
M  V30 5389 C 568.097 -1.99175 2.25277 0
M  V30 5390 C 569.645 -2.12201 2.30087 0
M  V30 5391 C 570.12 -2.92586 3.5236 0
M  V30 5392 N 571.611 -3.00163 3.52784 0
M  V30 5393 C 572.346 -3.62766 4.44059 0
M  V30 5394 N 571.842 -4.26943 5.45611 0
M  V30 5395 N 573.635 -3.59953 4.3173 0
M  V30 5396 H 565.786 -0.430258 2.07996 0
M  V30 5397 H 568.049 -0.252844 0.91366 0
M  V30 5398 H 567.755 -1.49479 3.18354 0
M  V30 5399 H 567.629 -2.99868 2.28821 0
M  V30 5400 H 570.016 -2.61093 1.3753 0
M  V30 5401 H 570.097 -1.10799 2.30559 0
M  V30 5402 H 569.741 -2.44383 4.45241 0
M  V30 5403 H 569.671 -3.94224 3.49134 0
M  V30 5404 H 572.162 -2.54529 2.79327 0
M  V30 5405 H 572.475 -4.72583 6.11461 0
M  V30 5406 H 570.82 -4.25557 5.49478 0
M  V30 5407 H 574.011 -3.09003 3.51617 0
M  V30 5408 H 574.184 -4.08455 5.03059 0
M  V30 5409 N 567.59 -1.07411 -1.15328 0
M  V30 5410 C 568.839 -0.792643 -1.85473 0
M  V30 5411 C 569.152 0.683789 -1.83259 0
M  V30 5412 O 570.358 1.08005 -2.49093 0
M  V30 5413 C 568.814 -1.36787 -3.32892 0
M  V30 5414 C 568.422 -2.87536 -3.43551 0
M  V30 5415 C 570.166 -1.16444 -4.08217 0
M  V30 5416 C 568.073 -3.38247 -4.85122 0
M  V30 5417 H 567.003 -0.292838 -0.694811 0
M  V30 5418 H 569.654 -1.29426 -1.30082 0
M  V30 5419 H 568.036 -0.793993 -3.87958 0
M  V30 5420 H 569.21 -3.50973 -2.98588 0
M  V30 5421 H 567.525 -3.06676 -2.81672 0
M  V30 5422 H 570.122 -1.51808 -5.12697 0
M  V30 5423 H 570.465 -0.10353 -4.16171 0
M  V30 5424 H 570.998 -1.70472 -3.59422 0
M  V30 5425 H 567.737 -4.43866 -4.82351 0
M  V30 5426 H 567.257 -2.79564 -5.30664 0
M  V30 5427 H 568.936 -3.34238 -5.5398 0
M  V30 5428 N 569.068 1.32177 -0.85831 0
M  V30 5429 C 570.317 1.96392 -0.459689 0
M  V30 5430 C 570.63 1.68659 0.990632 0
M  V30 5431 O 571.836 2.26641 1.49485 0
M  V30 5432 C 570.292 3.51542 -0.7711 0
M  V30 5433 C 569.9 3.8813 -2.2374 0
M  V30 5434 C 571.644 4.2221 -0.44038 0
M  V30 5435 C 569.551 5.36341 -2.49183 0
M  V30 5436 H 568.481 0.735007 -0.168169 0
M  V30 5437 H 571.132 1.50518 -1.0496 0
M  V30 5438 H 569.514 3.95846 -0.11058 0
M  V30 5439 H 570.688 3.54824 -2.94001 0
M  V30 5440 H 569.003 3.30497 -2.533 0
M  V30 5441 H 571.6 5.31234 -0.607855 0
M  V30 5442 H 571.943 4.11683 0.618291 0
M  V30 5443 H 572.476 3.83502 -1.05695 0
M  V30 5444 H 569.215 5.51892 -3.53689 0
M  V30 5445 H 568.735 5.7104 -1.83504 0
M  V30 5446 H 570.414 6.03466 -2.33318 0
M  V30 5447 N 570.547 0.616602 1.45037 0
M  V30 5448 C 571.495 -0.109318 2.32343 0
M  V30 5449 C 572.489 -0.850543 1.465 0
M  V30 5450 O 573.695 -0.765088 1.62931 0
M  V30 5451 H 570.07 -0.0541091 0.750051 0
M  V30 5452 H 572.041 0.645326 2.91338 0
M  V30 5453 C 570.79 -1.0872 3.30266 0
M  V30 5454 H 570.113 -0.526267 3.96321 0
M  V30 5455 H 571.553 -1.56489 3.94065 0
M  V30 5456 C 570.012 -2.16525 2.58105 0
M  V30 5457 O 570.542 -3.244 2.36913 0
M  V30 5458 N 568.748 -1.92057 2.18088 0
M  V30 5459 H 568.295 -1.04337 2.35524 0
M  V30 5460 H 568.253 -2.64391 1.70131 0
M  V30 5461 N 572.025 -1.5352 0.356285 0
M  V30 5462 C 573.302 -1.93405 -0.292223 0
M  V30 5463 C 573.682 -1.28901 -1.67176 0
M  V30 5464 O 573.03 -0.444632 -2.24132 0
M  V30 5465 C 573.24 -3.47223 -0.35175 0
M  V30 5466 C 574.588 -4.20389 -0.596534 0
M  V30 5467 O 575.612 -3.53554 -0.433344 0
M  V30 5468 O 574.471 -5.3881 -0.913589 0
M  V30 5469 H 571.565 -0.808666 -0.173172 0
M  V30 5470 H 574.111 -1.64713 0.408391 0
M  V30 5471 H 572.883 -3.86423 0.615841 0
M  V30 5472 H 572.506 -3.8212 -1.09864 0
M  V30 5473 N 573.503 -0.0852151 -1.57369 0
M  V30 5474 C 574.433 0.874556 -2.16503 0
M  V30 5475 C 575.414 1.30111 -1.09568 0
M  V30 5476 O 576.599 1.36977 -1.37662 0
M  V30 5477 C 573.729 2.13731 -2.73745 0
M  V30 5478 C 572.683 1.84971 -3.85966 0
M  V30 5479 C 572.009 3.17991 -4.29867 0
M  V30 5480 C 573.309 1.14442 -5.09608 0
M  V30 5481 H 575.003 0.381899 -2.96954 0
M  V30 5482 H 572.549 0.18225 -1.42842 0
M  V30 5483 H 574.502 2.81302 -3.13763 0
M  V30 5484 H 573.226 2.65263 -1.90534 0
M  V30 5485 H 571.885 1.19801 -3.46473 0
M  V30 5486 H 571.533 3.6739 -3.4356 0
M  V30 5487 H 571.233 2.99534 -5.05523 0
M  V30 5488 H 572.757 3.86737 -4.72511 0
M  V30 5489 H 574.171 1.72105 -5.46857 0
M  V30 5490 H 572.568 1.06197 -5.90629 0
M  V30 5491 H 573.638 0.12559 -4.84737 0
M  V30 5492 N 574.981 1.5647 0.188427 0
M  V30 5493 C 575.911 1.98101 1.23606 0
M  V30 5494 C 576.892 0.853961 1.47111 0
M  V30 5495 O 578.077 1.11879 1.58735 0
M  V30 5496 C 575.207 2.32624 2.57882 0
M  V30 5497 C 574.161 3.48129 2.48978 0
M  V30 5498 C 573.487 3.68347 3.87588 0
M  V30 5499 C 574.787 4.82112 2.00911 0
M  V30 5500 H 576.481 2.85864 0.890068 0
M  V30 5501 H 574.027 1.37532 0.426714 0
M  V30 5502 H 575.98 2.60343 3.3136 0
M  V30 5503 H 574.704 1.41751 2.94235 0
M  V30 5504 H 573.363 3.20511 1.77956 0
M  V30 5505 H 573.011 2.74793 4.21305 0
M  V30 5506 H 572.711 4.46055 3.82503 0
M  V30 5507 H 574.235 3.98449 4.62678 0
M  V30 5508 H 575.649 5.08819 2.64151 0
M  V30 5509 H 574.046 5.63337 2.06814 0
M  V30 5510 H 575.116 4.75249 0.96262 0
M  V30 5511 N 576.459 -0.456382 1.50847 0
M  V30 5512 C 577.391 -1.57033 1.66953 0
M  V30 5513 C 578.404 -1.53207 0.550593 0
M  V30 5514 O 579.593 -1.58328 0.824285 0
M  V30 5515 C 576.693 -2.95937 1.65149 0
M  V30 5516 C 575.866 -3.24475 2.93317 0
M  V30 5517 C 574.925 -4.43007 2.83957 0
M  V30 5518 O 573.951 -4.42592 3.57912 0
M  V30 5519 N 575.153 -5.45503 1.9851 0
M  V30 5520 H 577.918 -1.43629 2.63042 0
M  V30 5521 H 575.479 -0.645037 1.48495 0
M  V30 5522 H 577.471 -3.73224 1.56481 0
M  V30 5523 H 576.041 -3.03036 0.767343 0
M  V30 5524 H 575.261 -2.35664 3.16 0
M  V30 5525 H 576.549 -3.4036 3.78196 0
M  V30 5526 H 575.947 -5.48668 1.37766 0
M  V30 5527 H 574.504 -6.21716 1.95735 0
M  V30 5528 N 577.937 -1.40673 -0.710563 0
M  V30 5529 C 579.162 -1.42741 -1.50465 0
M  V30 5530 C 579.587 -0.0302116 -1.88076 0
M  V30 5531 O 578.945 0.962945 -1.53613 0
M  V30 5532 C 578.993 -2.32873 -2.75322 0
M  V30 5533 O 578.097 -1.77544 -3.72226 0
M  V30 5534 H 577.438 -0.485056 -0.45345 0
M  V30 5535 H 579.968 -1.84961 -0.874681 0
M  V30 5536 H 579.978 -2.48233 -3.23797 0
M  V30 5537 H 578.653 -3.34401 -2.47283 0
M  V30 5538 H 577.23 -1.71556 -3.31093 0
M  V30 5539 N 579.415 0.9433 -1.26252 0
M  V30 5540 C 580.345 2.05902 -1.10122 0
M  V30 5541 C 581.326 1.70099 -0.00700552 0
M  V30 5542 O 582.511 1.93377 -0.178641 0
M  V30 5543 C 579.641 3.39516 -0.731175 0
M  V30 5544 C 578.595 3.89372 -1.77688 0
M  V30 5545 C 577.921 5.19613 -1.26122 0
M  V30 5546 C 579.221 4.14489 -3.17799 0
M  V30 5547 H 580.915 2.19655 -2.03451 0
M  V30 5548 H 578.461 1.05548 -0.979576 0
M  V30 5549 H 580.414 4.17031 -0.605215 0
M  V30 5550 H 579.138 3.25733 0.23782 0
M  V30 5551 H 577.797 3.14036 -1.89148 0
M  V30 5552 H 577.445 5.02208 -0.282128 0
M  V30 5553 H 577.145 5.53939 -1.96023 0
M  V30 5554 H 578.669 5.99713 -1.14789 0
M  V30 5555 H 580.083 4.82625 -3.09428 0
M  V30 5556 H 578.48 4.60094 -3.85271 0
M  V30 5557 H 579.55 3.20347 -3.64014 0
M  V30 5558 N 580.893 1.08022 1.14757 0
M  V30 5559 C 582.309 0.807072 1.3769 0
M  V30 5560 C 582.509 -0.585504 1.92806 0
M  V30 5561 O 581.565 -1.34301 2.13821 0
M  V30 5562 C 582.878 1.88651 2.34161 0
M  V30 5563 C 584.426 1.91206 2.47809 0
M  V30 5564 C 584.901 2.98253 3.47576 0
M  V30 5565 N 586.392 2.974 3.55117 0
M  V30 5566 C 587.127 3.76872 4.32152 0
M  V30 5567 N 586.623 4.66212 5.12463 0
M  V30 5568 N 588.416 3.6519 4.27309 0
M  V30 5569 H 580.567 1.97824 0.77326 0
M  V30 5570 H 582.83 0.85826 0.402608 0
M  V30 5571 H 582.536 2.88749 2.00791 0
M  V30 5572 H 582.41 1.75244 3.3402 0
M  V30 5573 H 584.797 0.917564 2.80472 0
M  V30 5574 H 584.878 2.08691 1.47925 0
M  V30 5575 H 584.522 3.97907 3.15646 0
M  V30 5576 H 584.452 2.78014 4.47231 0
M  V30 5577 H 586.943 2.32643 2.97801 0
M  V30 5578 H 587.256 5.23468 5.68508 0
M  V30 5579 H 585.601 4.70257 5.11745 0
M  V30 5580 H 588.792 2.94765 3.63636 0
M  V30 5581 H 588.965 4.27366 4.87095 0
M  V30 5582 N 582.371 -1.3172 0.865308 0
M  V30 5583 C 583.596 -2.01591 0.487415 0
M  V30 5584 C 584.021 -1.6455 -0.911307 0
M  V30 5585 O 583.379 -0.851689 -1.6005 0
M  V30 5586 C 583.427 -3.54759 0.646401 0
M  V30 5587 O 582.531 -4.11185 -0.316284 0
M  V30 5588 H 581.872 -0.634884 0.194468 0
M  V30 5589 H 584.402 -1.68024 1.16744 0
M  V30 5590 H 584.412 -4.04438 0.537932 0
M  V30 5591 H 583.087 -3.8106 1.66632 0
M  V30 5592 H 581.664 -3.72543 -0.163162 0
M  V30 5593 N 583.85 -0.624285 -1.44708 0
M  V30 5594 C 585.098 -0.125802 -2.01708 0
M  V30 5595 C 585.418 1.2543 -1.49306 0
M  V30 5596 O 584.689 1.83198 -0.693924 0
M  V30 5597 H 583.269 -0.0435161 -0.745731 0
M  V30 5598 H 585.931 -0.809446 -1.77296 0
M  V30 5599 H 585.027 -0.0882734 -3.11975 0
M  V30 5600 N 585.328 1.53329 -0.364422 0
M  V30 5601 C 586.739 1.86345 0.115039 0
M  V30 5602 C 587.09 1.28505 1.4826 0
M  V30 5603 O 586.215 0.606639 2.07723 0
M  V30 5604 C 586.81 3.38114 0.215522 0
M  V30 5605 C 585.369 3.70932 0.639237 0
M  V30 5606 C 584.516 2.76471 -0.214261 0
M  V30 5607 H 587.467 1.47593 -0.583258 0
M  V30 5608 H 587.488 3.66031 1.0393 0
M  V30 5609 H 587 3.80182 -0.779948 0
M  V30 5610 H 585.101 3.3442 1.64298 0
M  V30 5611 H 585.214 4.77302 0.41465 0
M  V30 5612 H 583.578 2.52724 0.316678 0
M  V30 5613 H 584.361 3.21373 -1.20725 0
M  V30 5614 N 586.806 0.0935595 1.57322 0
M  V30 5615 C 588.217 -0.435807 1.81542 0
M  V30 5616 C 588.568 -1.68263 1.00907 0
M  V30 5617 O 587.693 -2.15087 0.237983 0
M  V30 5618 C 588.288 -0.797436 3.29282 0
M  V30 5619 C 586.847 -1.27155 3.54272 0
M  V30 5620 C 585.994 -0.267455 2.76007 0
M  V30 5621 H 588.945 0.31902 1.5546 0
M  V30 5622 H 588.966 -1.6571 3.42521 0
M  V30 5623 H 588.478 0.110206 3.87943 0
M  V30 5624 H 586.579 -2.19696 3.00939 0
M  V30 5625 H 586.692 -1.23445 4.62923 0
M  V30 5626 H 585.056 -0.749282 2.43429 0
M  V30 5627 H 585.839 0.632839 3.37417 0
M  V30 5628 N 588.284 -1.56567 -0.180126 0
M  V30 5629 C 589.532 -1.81133 -0.896392 0
M  V30 5630 C 589.853 -0.669114 -1.83161 0
M  V30 5631 O 589.123 0.311616 -1.93406 0
M  V30 5632 H 587.703 -0.668172 -0.333999 0
M  V30 5633 H 590.365 -1.94048 -0.182051 0
M  V30 5634 H 589.461 -2.74854 -1.47857 0
M  V30 5635 N 589.762 0.448376 -1.51087 0
M  V30 5636 C 591.173 1.0286 -1.5581 0
M  V30 5637 C 591.524 1.92583 -0.374989 0
M  V30 5638 O 590.649 2.10316 0.509533 0
M  V30 5639 C 591.244 1.87223 -2.8237 0
M  V30 5640 C 589.803 2.40314 -2.897 0
M  V30 5641 C 588.95 1.19238 -2.50355 0
M  V30 5642 H 591.901 0.230075 -1.57023 0
M  V30 5643 H 591.922 2.72553 -2.6551 0
M  V30 5644 H 591.434 1.21894 -3.68461 0
M  V30 5645 H 589.535 3.09129 -2.08014 0
M  V30 5646 H 589.648 2.73866 -3.93108 0
M  V30 5647 H 588.012 1.53428 -2.03303 0
M  V30 5648 H 588.795 0.555367 -3.38778 0
M  V30 5649 N 591.24 1.41047 0.703093 0
M  V30 5650 C 592.651 1.35657 1.28274 0
M  V30 5651 C 593.002 0.0360309 1.96167 0
M  V30 5652 O 592.127 -0.865833 1.98324 0
M  V30 5653 C 592.722 2.45707 2.33267 0
M  V30 5654 C 591.281 2.43738 2.86825 0
M  V30 5655 C 590.428 2.25941 1.60767 0
M  V30 5656 H 593.379 1.50672 0.49836 0
M  V30 5657 H 593.4 2.14333 3.14391 0
M  V30 5658 H 592.912 3.41805 1.83824 0
M  V30 5659 H 591.013 1.51375 3.40465 0
M  V30 5660 H 591.126 3.39779 3.37768 0
M  V30 5661 H 589.49 1.73681 1.86298 0
M  V30 5662 H 590.273 3.24054 1.1333 0
M  V30 5663 N 592.718 -0.936591 1.26751 0
M  V30 5664 C 593.966 -1.67998 1.12343 0
M  V30 5665 C 594.287 -1.92137 -0.332938 0
M  V30 5666 O 593.557 -1.52132 -1.23421 0
M  V30 5667 H 592.137 -0.622609 0.412756 0
M  V30 5668 H 594.799 -1.12509 1.59147 0
M  V30 5669 H 593.895 -2.65185 1.64571 0
M  V30 5670 N 594.196 -1.08629 -1.14182 0
M  V30 5671 C 595.444 -0.815731 -1.84906 0
M  V30 5672 C 595.765 0.660441 -1.83475 0
M  V30 5673 O 595.035 1.47888 -1.28476 0
M  V30 5674 H 593.615 -0.298773 -0.684648 0
M  V30 5675 H 596.277 -1.37274 -1.38354 0
M  V30 5676 H 595.373 -1.16193 -2.89665 0
M  V30 5677 N 595.674 1.31259 -0.872281 0
M  V30 5678 C 597.085 1.78822 -0.536617 0
M  V30 5679 C 597.436 1.71855 0.946594 0
M  V30 5680 O 596.561 1.28769 1.73918 0
M  V30 5681 C 597.156 3.24698 -0.967294 0
M  V30 5682 C 595.715 3.70147 -0.683251 0
M  V30 5683 C 594.862 2.51994 -1.15733 0
M  V30 5684 H 597.813 1.18308 -1.05777 0
M  V30 5685 H 597.834 3.79386 -0.290929 0
M  V30 5686 H 597.346 3.29737 -2.04683 0
M  V30 5687 H 595.447 3.70607 0.384825 0
M  V30 5688 H 595.56 4.62183 -1.2619 0
M  V30 5689 H 593.924 2.48078 -0.577024 0
M  V30 5690 H 594.707 2.59778 -2.24434 0
M  V30 5691 N 597.152 0.631951 1.44375 0
M  V30 5692 C 598.4 0.136497 2.01639 0
M  V30 5693 C 598.721 -1.24637 1.49969 0
M  V30 5694 O 597.991 -1.82827 0.70363 0
M  V30 5695 H 596.571 0.0474703 0.74549 0
M  V30 5696 H 599.233 0.818837 1.76865 0
M  V30 5697 H 598.329 0.104817 3.11924 0
M  V30 5698 N 598.631 -1.53133 0.372548 0
M  V30 5699 C 599.564 -2.22328 -0.514361 0
M  V30 5700 C 600.542 -1.21776 -1.07747 0
M  V30 5701 O 601.726 -1.50704 -1.13228 0
M  V30 5702 C 598.853 -2.92343 -1.71035 0
M  V30 5703 C 597.899 -4.07026 -1.27405 0
M  V30 5704 S 598.732 -5.34821 -0.269526 0
M  V30 5705 C 599.888 -6.08352 -1.47168 0
M  V30 5706 H 600.121 -2.9721 0.0732683 0
M  V30 5707 H 597.654 -1.53603 0.156673 0
M  V30 5708 H 599.612 -3.33296 -2.39634 0
M  V30 5709 H 598.273 -2.17173 -2.26925 0
M  V30 5710 H 597.466 -4.55056 -2.16656 0
M  V30 5711 H 597.068 -3.68001 -0.66719 0
M  V30 5712 H 599.36 -6.33507 -2.40157 0
M  V30 5713 H 600.303 -7.0053 -1.03263 0
M  V30 5714 H 600.711 -5.38893 -1.6809 0
M  V30 5715 N 600.109 -0.101901 -1.5727 0
M  V30 5716 C 601.52 0.426173 -1.81771 0
M  V30 5717 C 601.871 1.67725 -1.01797 0
M  V30 5718 O 600.996 2.14958 -0.249386 0
M  V30 5719 C 601.591 0.779962 -3.297 0
M  V30 5720 C 600.15 1.25275 -3.54941 0
M  V30 5721 C 599.297 0.252814 -2.76145 0
M  V30 5722 H 602.248 -0.32726 -1.55289 0
M  V30 5723 H 602.269 1.63891 -3.43395 0
M  V30 5724 H 601.781 -0.130778 -3.8788 0
M  V30 5725 H 599.882 2.18097 -3.021 0
M  V30 5726 H 599.995 1.20988 -4.63572 0
M  V30 5727 H 598.359 0.736362 -2.43823 0
M  V30 5728 H 599.142 -0.650724 -3.37076 0
M  V30 5729 N 601.587 1.56661 0.17182 0
M  V30 5730 C 602.998 1.71652 0.734329 0
M  V30 5731 C 603.349 0.712335 1.82812 0
M  V30 5732 O 602.474 -0.126401 2.16031 0
M  V30 5733 C 603.069 3.11226 1.3388 0
M  V30 5734 C 601.628 3.27904 1.84813 0
M  V30 5735 C 600.775 2.67603 0.726917 0
M  V30 5736 H 603.726 1.5861 -0.0535665 0
M  V30 5737 H 603.747 3.09849 2.20849 0
M  V30 5738 H 603.259 3.8429 0.54249 0
M  V30 5739 H 601.36 2.59796 2.6709 0
M  V30 5740 H 601.473 4.35637 1.99392 0
M  V30 5741 H 599.837 2.274 1.14723 0
M  V30 5742 H 600.62 3.43252 -0.0575334 0
M  V30 5743 N 603.065 -0.440357 1.51323 0
M  V30 5744 C 604.313 -1.18769 1.63518 0
M  V30 5745 C 604.634 -1.91793 0.352201 0
M  V30 5746 O 603.904 -1.85432 -0.631811 0
M  V30 5747 H 602.484 -0.441408 0.602634 0
M  V30 5748 H 605.146 -0.505162 1.8824 0
M  V30 5749 H 604.242 -1.91892 2.46138 0
M  V30 5750 N 604.543 -1.41418 -0.695603 0
M  V30 5751 C 605.791 -1.40496 -1.45277 0
M  V30 5752 C 606.112 -0.0149538 -1.94994 0
M  V30 5753 O 605.382 0.9432 -1.71699 0
M  V30 5754 H 603.962 -0.517147 -0.539044 0
M  V30 5755 H 606.624 -1.76656 -0.823321 0
M  V30 5756 H 605.72 -2.09214 -2.31595 0
M  V30 5757 N 606.021 0.929856 -1.27246 0
M  V30 5758 C 607.437 1.20542 -1.04603 0
M  V30 5759 C 607.637 2.00276 0.221754 0
M  V30 5760 O 606.693 2.34835 0.927833 0
M  V30 5761 C 608.006 1.95566 -2.28417 0
M  V30 5762 C 609.554 2.08513 -2.33433 0
M  V30 5763 C 610.029 2.86943 -3.5697 0
M  V30 5764 N 611.52 2.94512 -3.57515 0
M  V30 5765 C 612.255 3.55656 -4.49774 0
M  V30 5766 N 611.751 4.18209 -5.52334 0
M  V30 5767 N 613.544 3.53038 -4.37402 0
M  V30 5768 H 605.695 0.397113 -2.08655 0
M  V30 5769 H 607.958 0.238277 -0.917566 0
M  V30 5770 H 607.664 1.44395 -3.20691 0
M  V30 5771 H 607.538 2.9619 -2.33563 0
M  V30 5772 H 609.925 2.58872 -1.41666 0
M  V30 5773 H 610.006 1.07117 -2.32292 0
M  V30 5774 H 609.65 2.37268 -4.49072 0
M  V30 5775 H 609.58 3.8862 -3.55362 0
M  V30 5776 H 612.071 2.50053 -2.83341 0
M  V30 5777 H 612.384 4.62796 -6.18902 0
M  V30 5778 H 610.729 4.16761 -5.56179 0
M  V30 5779 H 613.92 3.0337 -3.56489 0
M  V30 5780 H 614.093 4.004 -5.09493 0
M  V30 5781 N 607.499 1.09233 1.13605 0
M  V30 5782 C 608.747 0.825525 1.84471 0
M  V30 5783 C 609.068 -0.650702 1.83823 0
M  V30 5784 O 608.338 -1.47204 1.29259 0
M  V30 5785 H 606.918 0.3024 0.683054 0
M  V30 5786 H 609.58 1.38006 1.37624 0
M  V30 5787 H 608.676 1.17727 2.89045 0
M  V30 5788 N 608.977 -1.30795 0.87923 0
M  V30 5789 C 610.393 -1.48981 0.57243 0
M  V30 5790 C 610.593 -1.80719 -0.891236 0
M  V30 5791 O 609.649 -1.89136 -1.67283 0
M  V30 5792 C 610.962 -2.61721 1.48063 0
M  V30 5793 C 612.51 -2.75603 1.48365 0
M  V30 5794 C 612.985 -3.91449 2.37763 0
M  V30 5795 N 614.476 -3.98751 2.35695 0
M  V30 5796 C 615.211 -4.87684 3.01583 0
M  V30 5797 N 614.707 -5.81454 3.76674 0
M  V30 5798 N 616.5 -4.81005 2.90844 0
M  V30 5799 H 608.651 -1.08465 1.82617 0
M  V30 5800 H 610.914 -0.536813 0.781368 0
M  V30 5801 H 610.62 -2.45073 2.52254 0
M  V30 5802 H 610.494 -3.58071 1.18596 0
M  V30 5803 H 612.881 -2.9166 0.44927 0
M  V30 5804 H 612.962 -1.79891 1.81859 0
M  V30 5805 H 612.606 -3.76149 3.41283 0
M  V30 5806 H 612.536 -4.86487 2.01589 0
M  V30 5807 H 615.027 -3.31668 1.81121 0
M  V30 5808 H 615.34 -6.46063 4.24054 0
M  V30 5809 H 613.685 -5.81403 3.80782 0
M  V30 5810 H 616.876 -4.06728 2.31711 0
M  V30 5811 H 617.049 -5.50107 3.42471 0
M  V30 5812 N 610.455 -0.639598 -1.44038 0
M  V30 5813 C 611.703 -0.147188 -2.01563 0
M  V30 5814 C 612.024 1.2384 -1.50628 0
M  V30 5815 O 611.294 1.82452 -0.713316 0
M  V30 5816 H 609.874 -0.0514231 -0.745228 0
M  V30 5817 H 612.536 -0.828205 -1.76428 0
M  V30 5818 H 611.632 -0.121358 -3.11864 0
M  V30 5819 N 611.933 1.52934 -0.380664 0
M  V30 5820 C 613.349 1.59571 -0.0302429 0
M  V30 5821 C 613.549 1.39509 1.45394 0
M  V30 5822 O 612.605 1.20777 2.21741 0
M  V30 5823 C 613.918 2.96519 -0.499691 0
M  V30 5824 C 615.466 3.09672 -0.455204 0
M  V30 5825 C 615.941 4.49056 -0.900703 0
M  V30 5826 N 617.432 4.55215 -0.856367 0
M  V30 5827 C 618.167 5.61282 -1.17259 0
M  V30 5828 N 617.663 6.75035 -1.55885 0
M  V30 5829 N 619.456 5.51343 -1.0944 0
M  V30 5830 H 611.607 1.64224 -1.347 0
M  V30 5831 H 613.87 0.771033 -0.551554 0
M  V30 5832 H 613.576 3.16388 -1.53595 0
M  V30 5833 H 613.45 3.77052 0.105789 0
M  V30 5834 H 615.837 2.89504 0.571949 0
M  V30 5835 H 615.918 2.31113 -1.09638 0
M  V30 5836 H 615.562 4.69964 -1.92604 0
M  V30 5837 H 615.492 5.26068 -0.236629 0
M  V30 5838 H 617.983 3.73546 -0.572013 0
M  V30 5839 H 618.296 7.51926 -1.784 0
M  V30 5840 H 616.641 6.76388 -1.59764 0
M  V30 5841 H 619.832 4.61356 -0.791713 0
M  V30 5842 H 620.005 6.33905 -1.34417 0
M  V30 5843 N 613.412 0.11024 1.57214 0
M  V30 5844 C 614.66 -0.548783 1.94506 0
M  V30 5845 C 614.981 -1.67772 0.99386 0
M  V30 5846 O 614.251 -1.9584 0.0485841 0
M  V30 5847 H 612.831 -0.205715 0.718116 0
M  V30 5848 H 615.493 0.177127 1.94093 0
M  V30 5849 H 614.589 -0.949096 2.97319 0
M  V30 5850 N 614.89 -1.56749 -0.16351 0
M  V30 5851 C 615.822 -1.93587 -1.22705 0
M  V30 5852 C 616.835 -0.829824 -1.40063 0
M  V30 5853 O 618.024 -1.10826 -1.39928 0
M  V30 5854 C 615.124 -2.1803 -2.59454 0
M  V30 5855 C 614.297 -3.4928 -2.63292 0
M  V30 5856 C 613.356 -3.62457 -3.8146 0
M  V30 5857 O 612.382 -4.35004 -3.67096 0
M  V30 5858 N 613.584 -2.97888 -4.9824 0
M  V30 5859 H 616.349 -2.8542 -0.914081 0
M  V30 5860 H 613.91 -1.58 -0.353214 0
M  V30 5861 H 615.902 -2.24102 -3.36987 0
M  V30 5862 H 614.472 -1.32543 -2.8311 0
M  V30 5863 H 613.692 -3.54795 -1.71796 0
M  V30 5864 H 614.98 -4.35632 -2.62873 0
M  V30 5865 H 614.378 -2.38833 -5.12811 0
M  V30 5866 H 612.935 -3.09545 -5.73607 0
M  V30 5867 N 616.368 0.432326 -1.51554 0
M  V30 5868 C 617.616 1.17901 -1.64146 0
M  V30 5869 C 617.937 1.91604 -0.362367 0
M  V30 5870 O 617.207 1.85764 0.621968 0
M  V30 5871 H 615.787 0.438206 -0.604966 0
M  V30 5872 H 618.449 0.495172 -1.88505 0
M  V30 5873 H 617.545 1.90584 -2.47152 0
M  V30 5874 N 617.846 1.41785 0.688094 0
M  V30 5875 C 618.794 1.44436 1.82321 0
M  V30 5876 C 619.788 0.321544 1.6632 0
M  V30 5877 O 620.994 0.493931 1.73091 0
M  V30 5878 H 617.369 0.452084 0.600936 0
M  V30 5879 H 619.34 2.40087 1.77202 0
M  V30 5880 C 618.089 1.35071 3.20392 0
M  V30 5881 H 617.412 2.2076 3.33324 0
M  V30 5882 H 618.852 1.40988 3.99873 0
M  V30 5883 C 617.311 0.0639127 3.36839 0
M  V30 5884 O 617.841 -0.888495 3.91751 0
M  V30 5885 N 616.047 -0.0146114 2.90596 0
M  V30 5886 H 615.594 0.761191 2.46097 0
M  V30 5887 H 615.552 -0.874988 3.01979 0
M  V30 5888 N 619.324 -0.923095 1.27737 0
M  V30 5889 C 620.57 -1.67409 1.15524 0
M  V30 5890 C 620.925 -1.90124 -0.295072 0
M  V30 5891 O 620.218 -1.48382 -1.21216 0
M  V30 5892 C 620.412 -3.04125 1.8773 0
M  V30 5893 C 620.241 -2.94752 3.39634 0
M  V30 5894 C 619.011 -2.96783 4.0896 0
M  V30 5895 C 621.209 -2.73524 4.35533 0
M  V30 5896 N 619.191 -2.779 5.47398 0
M  V30 5897 C 620.562 -2.63391 5.61271 0
M  V30 5898 C 622.617 -2.58447 4.2557 0
M  V30 5899 C 621.32 -2.3972 6.78179 0
M  V30 5900 C 623.346 -2.36154 5.42204 0
M  V30 5901 C 622.708 -2.26768 6.669 0
M  V30 5902 H 618.807 -0.619196 0.477619 0
M  V30 5903 H 621.391 -1.09094 1.61266 0
M  V30 5904 H 619.562 -3.60545 1.44436 0
M  V30 5905 H 621.294 -3.6819 1.67982 0
M  V30 5906 H 618.049 -3.07186 3.60463 0
M  V30 5907 H 618.473 -2.71576 6.20141 0
M  V30 5908 H 623.115 -2.6446 3.2988 0
M  V30 5909 H 620.833 -2.32447 7.73947 0
M  V30 5910 H 624.419 -2.25367 5.36378 0
M  V30 5911 H 623.299 -2.09751 7.55628 0
M  V30 5912 N 620.802 -1.09834 -1.13024 0
M  V30 5913 C 622.05 -0.835297 -1.8403 0
M  V30 5914 C 622.371 0.640944 -1.84165 0
M  V30 5915 O 621.641 1.46517 -1.30037 0
M  V30 5916 H 620.221 -0.306018 -0.681441 0
M  V30 5917 H 622.883 -1.38734 -1.36891 0
M  V30 5918 H 621.979 -1.19258 -2.88416 0
M  V30 5919 N 622.28 1.30327 -0.886154 0
M  V30 5920 C 623.691 1.78243 -0.555554 0
M  V30 5921 C 624.042 1.72849 0.928314 0
M  V30 5922 O 623.167 1.30607 1.72542 0
M  V30 5923 C 623.762 3.23654 -1.00168 0
M  V30 5924 C 622.321 3.69401 -0.722471 0
M  V30 5925 C 621.468 2.50753 -1.18399 0
M  V30 5926 H 624.419 1.1718 -1.07026 0
M  V30 5927 H 624.44 3.79056 -0.331152 0
M  V30 5928 H 623.952 3.27548 -2.08169 0
M  V30 5929 H 622.053 3.70995 0.345496 0
M  V30 5930 H 622.166 4.60818 -1.31085 0
M  V30 5931 H 620.53 2.47452 -0.603303 0
M  V30 5932 H 621.313 2.57383 -2.27176 0
M  V30 5933 N 623.758 0.647228 1.43697 0
M  V30 5934 C 625.169 0.238689 1.85168 0
M  V30 5935 C 625.52 -1.21345 1.54175 0
M  V30 5936 O 624.645 -1.92542 0.987743 0
M  V30 5937 C 625.24 0.426422 3.36106 0
M  V30 5938 C 623.799 0.0722541 3.76331 0
M  V30 5939 C 622.946 0.732153 2.6746 0
M  V30 5940 H 625.897 0.851309 1.33934 0
M  V30 5941 H 625.918 -0.32987 3.79067 0
M  V30 5942 H 625.43 1.48339 3.58632 0
M  V30 5943 H 623.531 -0.982355 3.59417 0
M  V30 5944 H 623.644 0.493541 4.76551 0
M  V30 5945 H 622.008 0.16594 2.54159 0
M  V30 5946 H 622.791 1.79204 2.92816 0
M  V30 5947 N 625.236 -1.5273 0.388769 0
M  V30 5948 C 626.484 -2.01174 -0.193208 0
M  V30 5949 C 626.805 -1.27705 -1.47365 0
M  V30 5950 O 626.075 -0.396966 -1.91836 0
M  V30 5951 H 624.655 -0.743287 -0.0743871 0
M  V30 5952 H 627.317 -1.87826 0.520336 0
M  V30 5953 H 626.413 -3.09477 -0.403803 0
M  V30 5954 N 626.714 -0.118576 -1.57153 0
M  V30 5955 C 627.962 0.538461 -1.94795 0
M  V30 5956 C 628.283 1.67243 -1.00274 0
M  V30 5957 O 627.553 1.95811 -0.0589692 0
M  V30 5958 H 626.133 0.201904 -0.719197 0
M  V30 5959 H 628.795 -0.187418 -1.93997 0
M  V30 5960 H 627.891 0.933315 -2.97818 0
M  V30 5961 N 628.193 1.56834 0.155195 0
M  V30 5962 C 629.103 2.009 1.21146 0
M  V30 5963 C 630.119 0.923029 1.475 0
M  V30 5964 O 631.295 1.23189 1.59331 0
M  V30 5965 C 628.36 2.37378 2.52691 0
M  V30 5966 C 627.421 3.59883 2.34057 0
M  V30 5967 C 626.654 3.94612 3.59329 0
M  V30 5968 O 626.877 3.30104 4.65175 0
M  V30 5969 O 625.811 4.87895 3.52479 0
M  V30 5970 H 629.637 2.9105 0.867371 0
M  V30 5971 H 627.222 1.44916 0.363298 0
M  V30 5972 H 629.104 2.61737 3.3026 0
M  V30 5973 H 627.779 1.50385 2.86646 0
M  V30 5974 H 626.686 3.40722 1.54465 0
M  V30 5975 H 628.019 4.47468 2.0502 0
M  V30 5976 N 629.671 -0.424282 1.51781 0
M  V30 5977 C 630.604 -1.53633 1.68737 0
M  V30 5978 C 631.582 -1.53549 0.534915 0
M  V30 5979 O 632.766 -1.72483 0.760391 0
M  V30 5980 C 629.893 -2.92195 1.71288 0
M  V30 5981 C 628.939 -3.10251 2.92654 0
M  V30 5982 S 629.772 -2.85166 4.53256 0
M  V30 5983 C 630.928 -4.25986 4.58571 0
M  V30 5984 H 631.161 -1.39018 2.62795 0
M  V30 5985 H 628.694 -0.614854 1.41629 0
M  V30 5986 H 630.652 -3.72059 1.73443 0
M  V30 5987 H 629.313 -3.04162 0.783847 0
M  V30 5988 H 628.506 -4.1159 2.90877 0
M  V30 5989 H 628.108 -2.38231 2.88308 0
M  V30 5990 H 630.4 -5.19392 4.35015 0
M  V30 5991 H 631.343 -4.32792 5.60444 0
M  V30 5992 H 631.751 -4.1025 3.87757 0
M  V30 5993 N 631.149 -1.42148 -0.680565 0
M  V30 5994 C 632.377 -1.45696 -1.46902 0
M  V30 5995 C 632.792 -0.0665858 -1.88683 0
M  V30 5996 O 632.149 0.917436 -1.57764 0
M  V30 5997 C 632.2 -2.37898 -2.72188 0
M  V30 5998 O 631.921 -3.71526 -2.32163 0
M  V30 5999 C 633.422 -2.50407 -3.65802 0
M  V30 6000 H 630.642 -0.495729 -0.45221 0
M  V30 6001 H 633.186 -1.866 -0.836709 0
M  V30 6002 H 631.341 -2.00263 -3.31622 0
M  V30 6003 H 631.755 -4.20849 -3.13027 0
M  V30 6004 H 633.229 -3.19056 -4.50452 0
M  V30 6005 H 633.706 -1.5401 -4.11312 0
M  V30 6006 H 634.312 -2.8874 -3.12265 0
M  V30 6007 N 632.627 0.916307 -1.28225 0
M  V30 6008 C 633.874 1.66518 -1.1523 0
M  V30 6009 C 634.202 1.92178 0.299632 0
M  V30 6010 O 633.457 1.51842 1.2346 0
M  V30 6011 C 633.756 3.03125 -1.8934 0
M  V30 6012 C 633.422 2.97135 -3.39148 0
M  V30 6013 C 632.084 2.95208 -3.80007 0
M  V30 6014 C 634.436 2.87574 -4.34685 0
M  V30 6015 C 631.764 2.81518 -5.14747 0
M  V30 6016 C 634.116 2.75424 -5.69495 0
M  V30 6017 C 632.78 2.71854 -6.09632 0
M  V30 6018 H 632.05 0.609334 -0.421655 0
M  V30 6019 H 634.697 1.06776 -1.58969 0
M  V30 6020 H 633.002 3.66639 -1.38143 0
M  V30 6021 H 634.699 3.59968 -1.76704 0
M  V30 6022 H 631.289 2.99428 -3.06661 0
M  V30 6023 H 635.473 2.88152 -4.04082 0
M  V30 6024 H 630.729 2.77148 -5.44976 0
M  V30 6025 H 634.903 2.66993 -6.43185 0
M  V30 6026 H 632.53 2.61003 -7.1399 0
M  V30 6027 N 634.105 1.10431 1.1244 0
M  V30 6028 C 635.33 0.869089 1.88313 0
M  V30 6029 C 635.755 -0.574912 1.79099 0
M  V30 6030 O 635.113 -1.40496 1.14589 0
M  V30 6031 C 635.161 1.32208 3.3549 0
M  V30 6032 O 634.265 0.487092 4.09513 0
M  V30 6033 H 633.606 0.313894 0.585121 0
M  V30 6034 H 636.136 1.47111 1.42195 0
M  V30 6035 H 636.146 1.31201 3.86329 0
M  V30 6036 H 634.821 2.37364 3.41513 0
M  V30 6037 H 633.398 0.562372 3.68635 0
M  V30 6038 N 635.583 -1.29855 0.893053 0
M  V30 6039 C 636.832 -1.95104 0.511597 0
M  V30 6040 C 637.145 -1.71226 -0.945567 0
M  V30 6041 O 638.351 -2.30525 -1.43424 0
M  V30 6042 C 636.807 -3.49374 0.864034 0
M  V30 6043 C 636.415 -3.82061 2.33952 0
M  V30 6044 C 638.159 -4.20894 0.552167 0
M  V30 6045 C 636.066 -5.29546 2.63316 0
M  V30 6046 H 634.996 -0.73029 0.187597 0
M  V30 6047 H 637.647 -1.47682 1.08914 0
M  V30 6048 H 636.029 -3.95413 0.215493 0
M  V30 6049 H 637.203 -3.46904 3.03305 0
M  V30 6050 H 635.518 -3.23665 2.61973 0
M  V30 6051 H 638.115 -5.29435 0.748489 0
M  V30 6052 H 638.458 -4.13178 -0.508924 0
M  V30 6053 H 638.991 -3.80564 1.15825 0
M  V30 6054 H 635.73 -5.4232 3.68197 0
M  V30 6055 H 635.25 -5.65974 1.9858 0
M  V30 6056 H 636.929 -5.97068 2.49236 0
M  V30 6057 N 637.061 -0.65484 -1.43351 0
M  V30 6058 C 638.472 -0.248506 -1.85039 0
M  V30 6059 C 638.823 1.20526 -1.54816 0
M  V30 6060 O 637.948 1.92016 -0.99794 0
M  V30 6061 C 638.543 -0.444241 -3.35875 0
M  V30 6062 C 637.102 -0.0922108 -3.76287 0
M  V30 6063 C 636.249 -0.746327 -2.67068 0
M  V30 6064 H 639.2 -0.8584 -1.33481 0
M  V30 6065 H 639.221 0.309762 -3.79237 0
M  V30 6066 H 638.733 -1.50239 -3.5784 0
M  V30 6067 H 636.834 0.96328 -3.59933 0
M  V30 6068 H 636.947 -0.518807 -4.76283 0
M  V30 6069 H 635.311 -0.179416 -2.54067 0
M  V30 6070 H 636.094 -1.80754 -2.91861 0
M  V30 6071 N 638.539 1.52521 -0.396863 0
M  V30 6072 C 639.767 2.06091 0.18275 0
M  V30 6073 C 640.182 1.26796 1.39886 0
M  V30 6074 O 639.539 0.316585 1.79733 0
M  V30 6075 C 639.59 3.57362 0.545377 0
M  V30 6076 O 639.311 4.33656 -0.622428 0
M  V30 6077 C 640.812 4.27305 1.18004 0
M  V30 6078 H 638.032 0.670504 0.025789 0
M  V30 6079 H 640.576 1.96561 -0.564276 0
M  V30 6080 H 638.731 3.66941 1.2423 0
M  V30 6081 H 639.145 5.23507 -0.322662 0
M  V30 6082 H 640.619 5.34366 1.38408 0
M  V30 6083 H 641.096 3.83 2.1496 0
M  V30 6084 H 641.702 4.22064 0.523671 0
M  V30 6085 N 640.017 0.126909 1.57088 0
M  V30 6086 C 640.967 -0.831678 2.1229 0
M  V30 6087 C 641.951 -1.22292 1.04564 0
M  V30 6088 O 643.143 -1.19269 1.30782 0
M  V30 6089 C 640.272 -2.07866 2.73215 0
M  V30 6090 C 639.358 -1.71143 3.88035 0
M  V30 6091 N 639.749 -1.05136 4.94753 0
M  V30 6092 C 638.047 -2.00549 3.98367 0
M  V30 6093 C 638.748 -0.877257 5.75047 0
M  V30 6094 N 637.724 -1.40477 5.25135 0
M  V30 6095 H 641.526 -0.317926 2.92175 0
M  V30 6096 H 639.04 -0.0753052 1.62225 0
M  V30 6097 H 641.037 -2.77516 3.11111 0
M  V30 6098 H 639.697 -2.59778 1.94796 0
M  V30 6099 H 640.708 -0.71442 5.12949 0
M  V30 6100 H 637.385 -2.54452 3.30999 0
M  V30 6101 H 638.775 -0.358536 6.70943 0
M  V30 6102 N 641.495 -1.56914 -0.146875 0
M  V30 6103 C 642.442 -1.98275 -1.18134 0
M  V30 6104 C 643.412 -0.850367 -1.42681 0
M  V30 6105 O 644.597 -1.11244 -1.55014 0
M  V30 6106 C 641.737 -2.36861 -2.5098 0
M  V30 6107 C 640.85 -3.63391 -2.33605 0
M  V30 6108 C 639.985 -3.91079 -3.59486 0
M  V30 6109 C 639.024 -5.10879 -3.37149 0
M  V30 6110 N 638.161 -5.34577 -4.55161 0
M  V30 6111 H 643.001 -2.8645 -0.821622 0
M  V30 6112 H 640.538 -1.41718 -0.394248 0
M  V30 6113 H 642.496 -2.57262 -3.28439 0
M  V30 6114 H 641.126 -1.51766 -2.84898 0
M  V30 6115 H 640.178 -3.50766 -1.47199 0
M  V30 6116 H 641.49 -4.51007 -2.13059 0
M  V30 6117 H 640.644 -4.11979 -4.45374 0
M  V30 6118 H 639.383 -3.01885 -3.83036 0
M  V30 6119 H 638.388 -4.89853 -2.49649 0
M  V30 6120 H 639.613 -6.01626 -3.14997 0
M  V30 6121 H 637.559 -4.48337 -4.78884 0
M  V30 6122 H 637.476 -6.16463 -4.37618 0
M  V30 6123 H 638.744 -5.59975 -5.42263 0
M  V30 6124 N 642.974 0.416227 -1.52004 0
M  V30 6125 C 644.214 1.17307 -1.67387 0
M  V30 6126 C 644.578 1.87959 -0.39183 0
M  V30 6127 O 645.779 2.65472 -0.421671 0
M  V30 6128 C 644.05 2.14661 -2.85754 0
M  V30 6129 S 645.609 2.98549 -3.21581 0
M  V30 6130 H 642.427 0.397505 -0.5895 0
M  V30 6131 H 645.029 0.461431 -1.89976 0
M  V30 6132 H 643.733 1.61431 -3.77317 0
M  V30 6133 H 643.264 2.90375 -2.65417 0
M  V30 6134 H 645.279 4.16536 -2.69652 0
M  V30 6135 N 644.452 1.42507 0.673017 0
M  V30 6136 C 645.7 1.42789 1.43023 0
M  V30 6137 C 646.021 0.0459738 1.94946 0
M  V30 6138 O 645.291 -0.915765 1.73178 0
M  V30 6139 H 643.871 0.525657 0.530748 0
M  V30 6140 H 646.533 1.77944 0.795113 0
M  V30 6141 H 645.629 2.12872 2.28237 0
M  V30 6142 N 645.93 -0.909495 1.28709 0
M  V30 6143 C 646.86 -2.0291 1.15542 0
M  V30 6144 C 647.841 -1.7002 0.0521017 0
M  V30 6145 O 649.026 -1.92835 0.229849 0
M  V30 6146 C 646.156 -3.37458 0.820935 0
M  V30 6147 C 645.11 -3.84524 1.87949 0
M  V30 6148 C 644.436 -5.16086 1.39854 0
M  V30 6149 C 645.736 -4.05918 3.28676 0
M  V30 6150 H 647.43 -2.14183 2.09203 0
M  V30 6151 H 644.976 -1.02913 1.00722 0
M  V30 6152 H 646.929 -4.1528 0.715571 0
M  V30 6153 H 645.653 -3.26249 -0.151374 0
M  V30 6154 H 644.312 -3.08911 1.97408 0
M  V30 6155 H 643.96 -5.01284 0.41518 0
M  V30 6156 H 643.66 -5.48547 2.1064 0
M  V30 6157 H 645.184 -5.96459 1.30649 0
M  V30 6158 H 646.598 -4.74252 3.22115 0
M  V30 6159 H 644.995 -4.49717 3.97334 0
M  V30 6160 H 646.065 -3.10583 3.72379 0
M  V30 6161 N 647.408 -1.11026 -1.11852 0
M  V30 6162 C 648.654 -0.857729 -1.83768 0
M  V30 6163 C 648.987 0.615143 -1.842 0
M  V30 6164 O 648.262 1.45391 -1.29196 0
M  V30 6165 C 648.545 -1.41453 -3.31154 0
M  V30 6166 C 648.398 -2.95471 -3.39142 0
M  V30 6167 C 649.717 -1.0619 -4.27097 0
M  V30 6168 H 646.836 -0.313044 -0.667212 0
M  V30 6169 H 649.478 -1.37443 -1.31185 0
M  V30 6170 H 647.628 -0.975052 -3.76065 0
M  V30 6171 H 649.3 -3.4799 -3.02821 0
M  V30 6172 H 647.543 -3.31759 -2.79497 0
M  V30 6173 H 648.214 -3.29515 -4.42859 0
M  V30 6174 H 650.69 -1.44122 -3.90344 0
M  V30 6175 H 649.566 -1.47832 -5.28618 0
M  V30 6176 H 649.827 0.0278912 -4.42091 0
M  V30 6177 N 648.886 1.2938 -0.899927 0
M  V30 6178 C 650.135 1.9483 -0.521937 0
M  V30 6179 C 650.448 1.71725 0.936473 0
M  V30 6180 O 651.654 2.31282 1.42199 0
M  V30 6181 C 650.11 3.48911 -0.88255 0
M  V30 6182 C 649.718 3.80815 -2.35974 0
M  V30 6183 C 651.462 4.20595 -0.57448 0
M  V30 6184 C 649.369 5.28142 -2.66121 0
M  V30 6185 H 648.299 0.729285 -0.191468 0
M  V30 6186 H 650.95 1.47103 -1.09695 0
M  V30 6187 H 649.332 3.95293 -0.236459 0
M  V30 6188 H 650.506 3.45291 -3.05141 0
M  V30 6189 H 648.821 3.22271 -2.63686 0
M  V30 6190 H 651.418 5.29031 -0.776556 0
M  V30 6191 H 651.761 4.13442 0.487005 0
M  V30 6192 H 652.294 3.79945 -1.17842 0
M  V30 6193 H 649.033 5.4036 -3.71068 0
M  V30 6194 H 648.553 5.64913 -2.01578 0
M  V30 6195 H 650.232 5.95738 -2.52399 0
M  V30 6196 N 650.364 0.662433 1.43002 0
M  V30 6197 C 651.612 0.179237 2.01304 0
M  V30 6198 C 651.933 -1.21428 1.52579 0
M  V30 6199 O 651.203 -1.81294 0.742252 0
M  V30 6200 H 649.783 0.0632725 0.744316 0
M  V30 6201 H 652.445 0.856169 1.75088 0
M  V30 6202 H 651.541 0.170957 3.11631 0
M  V30 6203 N 651.842 -1.52309 0.404946 0
M  V30 6204 C 653.258 -1.59503 0.0556255 0
M  V30 6205 C 653.458 -1.41805 -1.43156 0
M  V30 6206 O 652.514 -1.2429 -2.19792 0
M  V30 6207 C 653.827 -2.95687 0.546801 0
M  V30 6208 C 655.375 -3.08909 0.504413 0
M  V30 6209 C 655.85 -4.47566 0.97203 0
M  V30 6210 N 657.341 -4.53795 0.928679 0
M  V30 6211 C 658.076 -5.59346 1.26174 0
M  V30 6212 N 657.572 -6.72469 1.66604 0
M  V30 6213 N 659.365 -5.49532 1.18198 0
M  V30 6214 H 651.516 -1.6206 1.37296 0
M  V30 6215 H 653.779 -0.762161 0.563751 0
M  V30 6216 H 653.485 -3.13905 1.58609 0
M  V30 6217 H 653.359 -3.77172 -0.0457905 0
M  V30 6218 H 655.746 -2.90378 -0.525819 0
M  V30 6219 H 655.827 -2.2934 1.13301 0
M  V30 6220 H 655.471 -4.6684 2.00057 0
M  V30 6221 H 655.401 -5.25625 0.320292 0
M  V30 6222 H 657.892 -3.72588 0.631369 0
M  V30 6223 H 658.205 -7.48993 1.9034 0
M  V30 6224 H 656.55 -6.73761 1.70504 0
M  V30 6225 H 659.741 -4.60038 0.865011 0
M  V30 6226 H 659.914 -6.31687 1.44485 0
M  V30 6227 N 653.32 -0.135238 -1.57019 0
M  V30 6228 C 654.568 0.51777 -1.95355 0
M  V30 6229 C 654.889 1.6617 -1.02042 0
M  V30 6230 O 654.159 1.95738 -0.0797343 0
M  V30 6231 H 652.739 0.194264 -0.721298 0
M  V30 6232 H 655.401 -0.207983 -1.93787 0
M  V30 6233 H 654.497 0.901675 -2.98791 0
M  V30 6234 N 654.798 1.5699 0.138552 0
M  V30 6235 C 656.046 1.83446 0.848053 0
M  V30 6236 C 656.367 0.71744 1.81322 0
M  V30 6237 O 655.637 -0.260228 1.94164 0
M  V30 6238 H 654.217 0.676792 0.316166 0
M  V30 6239 H 656.879 1.94462 0.130538 0
M  V30 6240 H 655.975 2.78677 1.40518 0
M  V30 6241 N 656.276 -0.40816 1.52223 0
M  V30 6242 C 657.186 -1.52202 1.78526 0
M  V30 6243 C 658.202 -1.60546 0.670892 0
M  V30 6244 O 659.378 -1.77242 0.956404 0
M  V30 6245 C 656.443 -2.87928 1.93128 0
M  V30 6246 C 655.504 -2.89463 3.17033 0
M  V30 6247 C 654.737 -4.18715 3.30929 0
M  V30 6248 O 654.96 -5.12662 2.50067 0
M  V30 6249 O 653.894 -4.27125 4.24084 0
M  V30 6250 H 657.72 -1.32911 2.73072 0
M  V30 6251 H 655.305 -0.594112 1.37079 0
M  V30 6252 H 657.187 -3.68426 2.04549 0
M  V30 6253 H 655.862 -3.07285 1.01772 0
M  V30 6254 H 654.769 -2.07815 3.11069 0
M  V30 6255 H 656.102 -2.75055 4.08174 0
M  V30 6256 N 657.755 -1.42862 -0.66545 0
M  V30 6257 C 658.703 -1.47319 -1.8 0
M  V30 6258 C 659.697 -0.347963 -1.65788 0
M  V30 6259 O 660.903 -0.521406 -1.72283 0
M  V30 6260 H 657.278 -0.461588 -0.593667 0
M  V30 6261 H 659.249 -2.42876 -1.7336 0
M  V30 6262 C 657.998 -1.40152 -3.18203 0
M  V30 6263 H 657.321 -2.26035 -3.2977 0
M  V30 6264 H 658.761 -1.47331 -3.9758 0
M  V30 6265 C 657.22 -0.117493 -3.36695 0
M  V30 6266 O 657.75 0.826058 -3.93115 0
M  V30 6267 N 655.956 -0.0316218 -2.90583 0
M  V30 6268 H 655.503 -0.800247 -2.44855 0
M  V30 6269 H 655.461 0.826835 -3.03333 0
M  V30 6270 N 659.233 0.902656 -1.29189 0
M  V30 6271 C 660.479 1.65532 -1.17163 0
M  V30 6272 C 660.812 1.92216 0.276879 0
M  V30 6273 O 660.087 1.53048 1.20027 0
M  V30 6274 C 660.37 3.00629 -1.98228 0
M  V30 6275 C 660.223 2.81029 -3.51202 0
M  V30 6276 C 661.542 4.01321 -1.80635 0
M  V30 6277 H 658.661 0.60071 -0.426985 0
M  V30 6278 H 661.303 1.04578 -1.5863 0
M  V30 6279 H 659.453 3.52656 -1.62991 0
M  V30 6280 H 661.125 2.35927 -3.96404 0
M  V30 6281 H 659.368 2.1587 -3.76275 0
M  V30 6282 H 660.039 3.77014 -4.03192 0
M  V30 6283 H 662.515 3.58394 -2.11406 0
M  V30 6284 H 661.391 4.93792 -2.3971 0
M  V30 6285 H 661.652 4.35505 -0.760754 0
M  V30 6286 N 660.711 1.11618 1.11262 0
M  V30 6287 C 661.658 0.7762 2.17356 0
M  V30 6288 C 662.628 -0.253152 1.6416 0
M  V30 6289 O 663.813 -0.129655 1.90359 0
M  V30 6290 C 660.953 0.227581 3.44349 0
M  V30 6291 C 660.066 1.31372 4.1154 0
M  V30 6292 C 659.201 0.72544 5.26223 0
M  V30 6293 C 658.24 1.7913 5.85302 0
M  V30 6294 N 657.377 1.22237 6.91377 0
M  V30 6295 H 662.217 1.68508 2.45783 0
M  V30 6296 H 659.754 0.841475 1.20655 0
M  V30 6297 H 661.712 -0.108483 4.17059 0
M  V30 6298 H 660.342 -0.644486 3.16301 0
M  V30 6299 H 659.394 1.7667 3.36885 0
M  V30 6300 H 660.706 2.12005 4.51504 0
M  V30 6301 H 659.86 0.339541 6.05749 0
M  V30 6302 H 658.599 -0.112188 4.87571 0
M  V30 6303 H 657.604 2.18648 5.04453 0
M  V30 6304 H 658.829 2.63199 6.26022 0
M  V30 6305 H 656.775 0.406423 6.5474 0
M  V30 6306 H 656.692 1.9654 7.30006 0
M  V30 6307 H 657.96 0.863426 7.74703 0
M  V30 6308 N 662.189 -1.289 0.906776 0
M  V30 6309 C 663.152 -2.25777 0.394656 0
M  V30 6310 C 664.152 -1.53621 -0.475119 0
M  V30 6311 O 665.342 -1.71949 -0.279165 0
M  V30 6312 C 662.474 -3.38113 -0.43499 0
M  V30 6313 H 663.667 -2.72592 1.25033 0
M  V30 6314 H 661.22 -1.40463 0.685547 0
M  V30 6315 H 661.955 -2.96648 -1.31036 0
M  V30 6316 H 661.74 -3.91647 0.188334 0
M  V30 6317 H 663.23 -4.10168 -0.784365 0
M  V30 6318 N 663.667 -0.670007 -1.42649 0
M  V30 6319 C 664.916 -0.187526 -2.00826 0
M  V30 6320 C 665.229 1.21142 -1.53571 0
M  V30 6321 O 666.435 1.79001 -2.04134 0
M  V30 6322 C 664.891 -0.284409 -3.58774 0
M  V30 6323 C 664.499 -1.6871 -4.15019 0
M  V30 6324 C 666.243 0.139605 -4.2427 0
M  V30 6325 C 664.15 -1.73701 -5.65316 0
M  V30 6326 H 663.08 -0.0663468 -0.751075 0
M  V30 6327 H 665.731 -0.834492 -1.63427 0
M  V30 6328 H 664.113 0.430364 -3.93655 0
M  V30 6329 H 665.287 -2.42857 -3.91608 0
M  V30 6330 H 663.602 -2.05855 -3.61957 0
M  V30 6331 H 666.199 0.122398 -5.3456 0
M  V30 6332 H 666.542 1.17403 -3.99402 0
M  V30 6333 H 667.075 -0.523995 -3.94334 0
M  V30 6334 H 663.814 -2.75109 -5.94975 0
M  V30 6335 H 663.334 -1.03903 -5.90732 0
M  V30 6336 H 665.013 -1.48829 -6.2965 0
M  V30 6337 N 665.145 1.52092 -0.413018 0
M  V30 6338 C 666.093 2.28681 0.425199 0
M  V30 6339 C 667.087 1.3353 1.04241 0
M  V30 6340 O 668.293 1.50973 0.980166 0
M  V30 6341 H 664.668 0.735661 0.155906 0
M  V30 6342 H 666.639 2.97418 -0.241926 0
M  V30 6343 C 665.388 3.1235 1.5275 0
M  V30 6344 H 664.711 3.85439 1.06191 0
M  V30 6345 H 666.151 3.69038 2.08774 0
M  V30 6346 C 664.61 2.26161 2.49706 0
M  V30 6347 O 665.14 1.90452 3.53682 0
M  V30 6348 N 663.346 1.89854 2.20008 0
M  V30 6349 H 662.893 2.19092 1.35486 0
M  V30 6350 H 662.851 1.3248 2.85125 0
M  V30 6351 N 666.623 0.143563 1.56945 0
M  V30 6352 C 667.555 -0.828353 2.13708 0
M  V30 6353 C 668.568 -1.21313 1.08568 0
M  V30 6354 O 669.757 -1.1578 1.35857 0
M  V30 6355 C 666.857 -2.12248 2.64204 0
M  V30 6356 C 666.03 -1.90561 3.93707 0
M  V30 6357 C 665.089 -3.03931 4.29549 0
M  V30 6358 O 664.115 -2.75772 4.97934 0
M  V30 6359 N 665.317 -4.31016 3.88852 0
M  V30 6360 H 668.082 -0.343242 2.97728 0
M  V30 6361 H 665.643 -0.0401152 1.6185 0
M  V30 6362 H 667.635 -2.87132 2.85197 0
M  V30 6363 H 666.205 -2.52033 1.84928 0
M  V30 6364 H 665.425 -0.997327 3.81375 0
M  V30 6365 H 666.713 -1.73405 4.78339 0
M  V30 6366 H 666.111 -4.56762 3.33743 0
M  V30 6367 H 664.668 -5.02691 4.14903 0
M  V30 6368 N 668.101 -1.57061 -0.130224 0
M  V30 6369 C 669.033 -1.96147 -1.18571 0
M  V30 6370 C 670.046 -0.859347 -1.38272 0
M  V30 6371 O 671.235 -1.13769 -1.37545 0
M  V30 6372 C 668.335 -2.23484 -2.54771 0
M  V30 6373 C 667.508 -3.54786 -2.55824 0
M  V30 6374 C 666.567 -3.70467 -3.73686 0
M  V30 6375 O 665.593 -4.42693 -3.57787 0
M  V30 6376 N 666.795 -3.08389 -4.91809 0
M  V30 6377 H 669.56 -2.87295 -0.853333 0
M  V30 6378 H 667.121 -1.58714 -0.319621 0
M  V30 6379 H 669.113 -2.312 -3.32158 0
M  V30 6380 H 667.683 -1.38518 -2.80235 0
M  V30 6381 H 666.903 -3.5836 -1.64232 0
M  V30 6382 H 668.191 -4.4111 -2.53573 0
M  V30 6383 H 667.589 -2.49656 -5.0763 0
M  V30 6384 H 666.146 -3.21642 -5.66912 0
M  V30 6385 N 669.579 0.400081 -1.52437 0
M  V30 6386 C 670.807 1.16768 -1.70801 0
M  V30 6387 C 671.222 1.84036 -0.421462 0
M  V30 6388 O 670.579 1.72242 0.603228 0
M  V30 6389 C 670.63 2.22403 -2.8499 0
M  V30 6390 O 670.351 1.57879 -4.08663 0
M  V30 6391 C 671.852 3.11974 -3.1494 0
M  V30 6392 H 669.072 0.350533 -0.57216 0
M  V30 6393 H 671.616 0.469534 -1.99037 0
M  V30 6394 H 669.771 2.87871 -2.59247 0
M  V30 6395 H 670.185 2.27982 -4.7236 0
M  V30 6396 H 671.659 3.82148 -3.9833 0
M  V30 6397 H 672.136 3.74858 -2.28863 0
M  V30 6398 H 672.742 2.52165 -3.42481 0
M  V30 6399 N 671.057 1.43213 0.657864 0
M  V30 6400 C 672.305 1.44298 1.41501 0
M  V30 6401 C 672.626 0.0666478 1.94886 0
M  V30 6402 O 671.896 -0.897345 1.74139 0
M  V30 6403 H 670.476 0.531257 0.525143 0
M  V30 6404 H 673.138 1.78777 0.776195 0
M  V30 6405 H 672.234 2.1528 2.25966 0
M  V30 6406 N 672.536 -0.895792 1.29666 0
M  V30 6407 C 673.499 -1.98189 1.15124 0
M  V30 6408 C 674.499 -1.60572 0.0855717 0
M  V30 6409 O 675.689 -1.70991 0.332826 0
M  V30 6410 C 672.821 -3.32289 0.761372 0
M  V30 6411 H 674.014 -2.12518 2.11603 0
M  V30 6412 H 671.567 -1.0808 1.12908 0
M  V30 6413 H 672.302 -3.23662 -0.203393 0
M  V30 6414 H 672.087 -3.60958 1.53139 0
M  V30 6415 H 673.577 -4.1198 0.682792 0
M  V30 6416 N 674.014 -1.12206 -1.10668 0
M  V30 6417 C 675.261 -0.875875 -1.82578 0
M  V30 6418 C 675.589 0.598342 -1.85068 0
M  V30 6419 O 674.844 1.45818 -1.3052 0
M  V30 6420 C 675.143 -1.39276 -3.29146 0
M  V30 6421 C 674.809 -2.8816 -3.46806 0
M  V30 6422 C 673.471 -3.28813 -3.51334 0
M  V30 6423 C 675.823 -3.8401 -3.52399 0
M  V30 6424 C 673.151 -4.64028 -3.59019 0
M  V30 6425 C 675.503 -5.19053 -3.61617 0
M  V30 6426 C 674.167 -5.59252 -3.64408 0
M  V30 6427 H 673.437 -0.320505 -0.6681 0
M  V30 6428 H 676.084 -1.40184 -1.30464 0
M  V30 6429 H 674.389 -0.787207 -3.8381 0
M  V30 6430 H 676.086 -1.17851 -3.83291 0
M  V30 6431 H 672.676 -2.55716 -3.43958 0
M  V30 6432 H 676.86 -3.53698 -3.48154 0
M  V30 6433 H 672.116 -4.94568 -3.59461 0
M  V30 6434 H 676.29 -5.93152 -3.64889 0
M  V30 6435 H 673.917 -6.64017 -3.70116 0
M  V30 6436 N 675.492 1.28418 -0.913599 0
M  V30 6437 C 676.738 1.9527 -0.547484 0
M  V30 6438 C 677.071 1.71745 0.906486 0
M  V30 6439 O 676.346 1.03834 1.64465 0
M  V30 6440 C 676.629 3.49748 -0.857205 0
M  V30 6441 C 676.482 3.82675 -2.3639 0
M  V30 6442 C 677.801 4.3868 -0.353258 0
M  V30 6443 H 674.92 0.709236 -0.200381 0
M  V30 6444 H 677.562 1.51789 -1.14281 0
M  V30 6445 H 675.712 3.86915 -0.350548 0
M  V30 6446 H 677.384 3.55378 -2.94116 0
M  V30 6447 H 675.627 3.29724 -2.81894 0
M  V30 6448 H 676.298 4.90547 -2.53115 0
M  V30 6449 H 678.774 4.08584 -0.787288 0
M  V30 6450 H 677.65 5.45621 -0.599049 0
M  V30 6451 H 677.911 4.35753 0.746413 0
M  V30 6452 N 676.97 0.677563 1.42291 0
M  V30 6453 C 677.88 0.000962654 2.346 0
M  V30 6454 C 678.896 -0.785833 1.55244 0
M  V30 6455 O 680.072 -0.727523 1.87801 0
M  V30 6456 C 677.137 -0.936746 3.33805 0
M  V30 6457 C 676.198 -0.144173 4.29058 0
M  V30 6458 C 675.431 -1.03722 5.23524 0
M  V30 6459 O 675.654 -2.27675 5.22992 0
M  V30 6460 O 674.588 -0.496542 5.99848 0
M  V30 6461 H 678.414 0.761397 2.94001 0
M  V30 6462 H 675.999 0.43781 1.42841 0
M  V30 6463 H 677.881 -1.47497 3.94744 0
M  V30 6464 H 676.556 -1.67698 2.76874 0
M  V30 6465 H 675.463 0.438224 3.71524 0
M  V30 6466 H 676.796 0.55701 4.89038 0
M  V30 6467 N 678.448 -1.51871 0.421078 0
M  V30 6468 C 679.697 -2.01125 -0.152206 0
M  V30 6469 C 680.01 -1.3106 -1.45199 0
M  V30 6470 O 681.216 -1.71195 -2.10724 0
M  V30 6471 C 679.672 -3.58458 -0.3218 0
M  V30 6472 C 679.28 -4.37448 0.96659 0
M  V30 6473 C 681.024 -4.15908 -0.84973 0
M  V30 6474 C 678.931 -5.86451 0.763529 0
M  V30 6475 H 677.861 -0.751556 -0.0606565 0
M  V30 6476 H 680.512 -1.75115 0.548354 0
M  V30 6477 H 678.894 -3.80847 -1.08498 0
M  V30 6478 H 680.068 -4.26814 1.73684 0
M  V30 6479 H 678.383 -3.91373 1.42183 0
M  V30 6480 H 680.98 -5.24922 -1.01788 0
M  V30 6481 H 681.323 -3.74031 -1.82774 0
M  V30 6482 H 681.856 -3.97535 -0.145297 0
M  V30 6483 H 678.595 -6.3271 1.71344 0
M  V30 6484 H 678.115 -5.99791 0.0327889 0
M  V30 6485 H 679.794 -6.45697 0.410354 0
M  V30 6486 N 679.926 -0.151884 -1.56866 0
M  V30 6487 C 681.151 0.508044 -2.01081 0
M  V30 6488 C 681.576 1.57306 -1.03134 0
M  V30 6489 O 680.934 1.81298 -0.0078309 0
M  V30 6490 C 680.982 1.08106 -3.44014 0
M  V30 6491 O 680.086 2.19577 -3.49084 0
M  V30 6492 H 679.427 0.123757 -0.652365 0
M  V30 6493 H 681.957 -0.250055 -2.03066 0
M  V30 6494 H 681.967 1.40851 -3.82916 0
M  V30 6495 H 680.642 0.301168 -4.14808 0
M  V30 6496 H 679.219 1.88023 -3.22027 0
M  V30 6497 N 681.404 1.57128 0.121893 0
M  V30 6498 C 682.82 1.52357 0.47534 0
M  V30 6499 C 683.02 0.864417 1.82017 0
M  V30 6500 O 682.076 0.445529 2.48538 0
M  V30 6501 C 683.389 2.97122 0.4625 0
M  V30 6502 C 684.937 3.08196 0.546255 0
M  V30 6503 C 685.412 4.54516 0.563833 0
M  V30 6504 N 686.903 4.58959 0.625353 0
M  V30 6505 C 687.638 5.69585 0.660354 0
M  V30 6506 N 687.134 6.89714 0.653175 0
M  V30 6507 N 688.927 5.57685 0.703143 0
M  V30 6508 H 681.078 1.98364 -0.75931 0
M  V30 6509 H 683.341 0.905777 -0.279772 0
M  V30 6510 H 683.047 3.48706 -0.457943 0
M  V30 6511 H 682.921 3.54406 1.29136 0
M  V30 6512 H 685.308 2.56617 1.45712 0
M  V30 6513 H 685.389 2.53912 -0.310234 0
M  V30 6514 H 685.033 5.06741 -0.342974 0
M  V30 6515 H 684.963 5.06609 1.43716 0
M  V30 6516 H 687.454 3.72489 0.637182 0
M  V30 6517 H 687.767 7.69781 0.682425 0
M  V30 6518 H 686.112 6.92223 0.620646 0
M  V30 6519 H 689.303 4.62744 0.706095 0
M  V30 6520 H 689.476 6.43909 0.726952 0
M  V30 6521 N 682.882 -0.391992 1.52647 0
M  V30 6522 C 683.814 -1.49811 1.73463 0
M  V30 6523 C 684.827 -1.50734 0.615078 0
M  V30 6524 O 686.016 -1.5469 0.890696 0
M  V30 6525 C 683.116 -2.88667 1.77552 0
M  V30 6526 C 682.289 -3.11743 3.06815 0
M  V30 6527 C 681.348 -4.30564 3.02491 0
M  V30 6528 O 680.374 -4.27014 3.76361 0
M  V30 6529 N 681.576 -5.36593 2.21468 0
M  V30 6530 H 684.341 -1.32343 2.68897 0
M  V30 6531 H 681.902 -0.581475 1.51098 0
M  V30 6532 H 683.894 -3.66251 1.7217 0
M  V30 6533 H 682.464 -2.99508 0.895181 0
M  V30 6534 H 681.684 -2.2205 3.25711 0
M  V30 6535 H 682.972 -3.24013 3.92292 0
M  V30 6536 H 682.37 -5.42332 1.60913 0
M  V30 6537 H 680.927 -6.12855 2.21928 0
M  V30 6538 N 684.36 -1.4356 -0.65026 0
M  V30 6539 C 685.29 -1.51758 -1.77459 0
M  V30 6540 C 686.271 -0.372019 -1.65982 0
M  V30 6541 O 687.456 -0.589627 -1.85033 0
M  V30 6542 C 684.586 -1.44302 -3.15902 0
M  V30 6543 C 683.54 -2.57138 -3.42146 0
M  V30 6544 C 682.866 -2.34735 -4.8042 0
M  V30 6545 C 684.166 -3.99373 -3.36598 0
M  V30 6546 H 685.86 -2.45863 -1.70855 0
M  V30 6547 H 683.406 -1.18333 -0.820566 0
M  V30 6548 H 685.359 -1.48641 -3.94314 0
M  V30 6549 H 684.083 -0.467026 -3.23244 0
M  V30 6550 H 682.742 -2.52157 -2.66106 0
M  V30 6551 H 682.39 -1.35372 -4.84441 0
M  V30 6552 H 682.09 -3.10375 -4.9894 0
M  V30 6553 H 683.614 -2.40862 -5.61086 0
M  V30 6554 H 685.028 -4.05826 -4.04942 0
M  V30 6555 H 683.425 -4.75063 -3.66654 0
M  V30 6556 H 684.495 -4.243 -2.34729 0
M  V30 6557 N 685.838 0.888903 -1.30139 0
M  V30 6558 C 687.249 1.45578 -1.16893 0
M  V30 6559 C 687.6 1.94825 0.231866 0
M  V30 6560 O 686.725 1.84661 1.12824 0
M  V30 6561 C 687.32 2.646 -2.11595 0
M  V30 6562 C 685.879 3.17389 -2.02339 0
M  V30 6563 C 685.026 1.90081 -2.01902 0
M  V30 6564 H 687.977 0.69921 -1.42467 0
M  V30 6565 H 687.998 3.40687 -1.69449 0
M  V30 6566 H 687.51 2.28726 -3.13538 0
M  V30 6567 H 685.611 3.5793 -1.03523 0
M  V30 6568 H 685.724 3.80955 -2.90534 0
M  V30 6569 H 684.088 2.08246 -1.46648 0
M  V30 6570 H 684.871 1.5647 -3.05568 0
M  V30 6571 N 687.317 1.12792 1.10072 0
M  V30 6572 C 688.728 0.899346 1.63611 0
M  V30 6573 C 689.079 -0.565547 1.87872 0
M  V30 6574 O 688.204 -1.43081 1.62348 0
M  V30 6575 C 688.799 1.62608 2.97227 0
M  V30 6576 C 687.358 1.44356 3.47618 0
M  V30 6577 C 686.505 1.65958 2.22156 0
M  V30 6578 H 689.456 1.28216 0.935223 0
M  V30 6579 H 689.477 1.0793 3.64872 0
M  V30 6580 H 688.989 2.69221 2.79538 0
M  V30 6581 H 687.09 0.400148 3.70445 0
M  V30 6582 H 687.203 2.20218 4.25489 0
M  V30 6583 H 685.567 1.08395 2.30484 0
M  V30 6584 H 686.35 2.73877 2.06993 0
M  V30 6585 N 688.795 -1.27931 0.920396 0
M  V30 6586 C 689.743 -2.29061 0.404191 0
M  V30 6587 C 690.737 -1.61615 -0.507634 0
M  V30 6588 O 691.943 -1.75765 -0.388144 0
M  V30 6589 H 688.318 -0.743594 0.112123 0
M  V30 6590 H 690.289 -2.70021 1.27008 0
M  V30 6591 C 689.038 -3.46088 -0.334466 0
M  V30 6592 H 688.361 -3.98194 0.35797 0
M  V30 6593 H 689.801 -4.18829 -0.660196 0
M  V30 6594 C 688.26 -2.99396 -1.54479 0
M  V30 6595 O 688.79 -3.02439 -2.64374 0
M  V30 6596 N 686.996 -2.54978 -1.39408 0
M  V30 6597 H 686.543 -2.52701 -0.500009 0
M  V30 6598 H 686.501 -2.24098 -2.20516 0
M  V30 6599 N 690.273 -0.685099 -1.4193 0
M  V30 6600 C 691.521 -0.21124 -2.00993 0
M  V30 6601 C 691.842 1.18985 -1.54491 0
M  V30 6602 O 691.112 1.8009 -0.771 0
M  V30 6603 H 689.692 -0.0751059 -0.743215 0
M  V30 6604 H 692.354 -0.883915 -1.73704 0
M  V30 6605 H 691.45 -0.220513 -3.1132 0
M  V30 6606 N 691.751 1.51645 -0.429126 0
M  V30 6607 C 693.028 1.94579 0.199614 0
M  V30 6608 C 693.408 1.3673 1.60836 0
M  V30 6609 O 692.756 0.551062 2.21756 0
M  V30 6610 C 692.966 3.48506 0.185685 0
M  V30 6611 C 694.314 4.22756 0.395282 0
M  V30 6612 O 695.338 3.55219 0.264165 0
M  V30 6613 O 694.197 5.42555 0.655475 0
M  V30 6614 H 691.291 0.816007 0.134393 0
M  V30 6615 H 693.837 1.62577 -0.486513 0
M  V30 6616 H 692.609 3.83045 -0.799508 0
M  V30 6617 H 692.232 3.86927 0.91507 0
M  V30 6618 N 693.229 0.160201 1.56784 0
M  V30 6619 C 694.64 -0.358417 1.83227 0
M  V30 6620 C 694.991 -1.63831 1.07952 0
M  V30 6621 O 694.116 -2.13885 0.328995 0
M  V30 6622 C 694.711 -0.657058 3.32368 0
M  V30 6623 C 693.27 -1.12015 3.59346 0
M  V30 6624 C 692.417 -0.15015 2.76893 0
M  V30 6625 H 695.368 0.384669 1.53967 0
M  V30 6626 H 695.389 -1.51033 3.49241 0
M  V30 6627 H 694.901 0.274647 3.87127 0
M  V30 6628 H 693.002 -2.06734 3.09987 0
M  V30 6629 H 693.115 -1.037 4.67743 0
M  V30 6630 H 691.479 -0.645361 2.46388 0
M  V30 6631 H 692.262 0.775379 3.34429 0
M  V30 6632 N 694.707 -1.5719 -0.113559 0
M  V30 6633 C 695.655 -2.01725 -1.158 0
M  V30 6634 C 696.649 -0.915105 -1.42556 0
M  V30 6635 O 697.855 -1.10031 -1.42454 0
M  V30 6636 H 694.23 -0.64262 -0.390569 0
M  V30 6637 H 696.201 -2.88666 -0.755926 0
M  V30 6638 C 694.95 -2.44203 -2.47507 0
M  V30 6639 H 694.273 -3.28582 -2.27758 0
M  V30 6640 H 695.713 -2.79158 -3.19135 0
M  V30 6641 C 694.172 -1.30785 -3.10478 0
M  V30 6642 O 694.702 -0.626807 -3.9678 0
M  V30 6643 N 692.908 -1.06352 -2.7044 0
M  V30 6644 H 692.455 -1.61913 -2.00355 0
M  V30 6645 H 692.413 -0.306614 -3.12901 0
M  V30 6646 N 696.185 0.383891 -1.52853 0
M  V30 6647 C 697.432 1.12842 -1.68146 0
M  V30 6648 C 697.76 1.89823 -0.423954 0
M  V30 6649 O 697.015 1.86475 0.593765 0
M  V30 6650 C 697.314 2.12881 -2.87082 0
M  V30 6651 C 696.98 1.52519 -4.24322 0
M  V30 6652 C 695.642 1.35783 -4.61645 0
M  V30 6653 C 697.994 1.0868 -5.09743 0
M  V30 6654 C 695.322 0.737643 -5.82044 0
M  V30 6655 C 697.674 0.480699 -6.30771 0
M  V30 6656 C 696.338 0.300681 -6.66822 0
M  V30 6657 H 695.608 0.412917 -0.615289 0
M  V30 6658 H 698.255 0.412416 -1.87006 0
M  V30 6659 H 696.56 2.90719 -2.62659 0
M  V30 6660 H 698.257 2.70408 -2.96109 0
M  V30 6661 H 694.847 1.66534 -3.94923 0
M  V30 6662 H 699.031 1.2041 -4.81472 0
M  V30 6663 H 694.287 0.586415 -6.08581 0
M  V30 6664 H 698.461 0.132733 -6.96273 0
M  V30 6665 H 696.088 -0.181966 -7.59982 0
M  V30 6666 N 697.663 1.43903 0.642637 0
M  V30 6667 C 698.61 1.49881 1.75512 0
M  V30 6668 C 699.58 0.347538 1.62423 0
M  V30 6669 O 700.765 0.556177 1.82514 0
M  V30 6670 C 697.905 1.43797 3.13714 0
M  V30 6671 C 697.018 2.6921 3.37861 0
M  V30 6672 C 696.153 2.5504 4.6597 0
M  V30 6673 C 695.192 3.75671 4.83257 0
M  V30 6674 N 694.329 3.60247 6.02633 0
M  V30 6675 H 699.169 2.44935 1.69737 0
M  V30 6676 H 696.706 1.21572 0.828165 0
M  V30 6677 H 698.664 1.38262 3.93624 0
M  V30 6678 H 697.294 0.523173 3.18532 0
M  V30 6679 H 696.346 2.8498 2.51973 0
M  V30 6680 H 697.658 3.58786 3.46517 0
M  V30 6681 H 696.812 2.47273 5.54023 0
M  V30 6682 H 695.551 1.63006 4.59653 0
M  V30 6683 H 694.556 3.83836 3.93637 0
M  V30 6684 H 695.781 4.68728 4.91397 0
M  V30 6685 H 693.727 2.70955 5.97427 0
M  V30 6686 H 693.644 4.43431 6.12295 0
M  V30 6687 H 694.912 3.56351 6.93278 0
M  V30 6688 N 699.141 -0.881989 1.30609 0
M  V30 6689 C 700.071 -2.00413 1.1982 0
M  V30 6690 C 701.052 -1.69871 0.0881538 0
M  V30 6691 O 702.237 -1.92304 0.2707 0
M  V30 6692 C 699.367 -3.35641 0.89233 0
M  V30 6693 C 698.321 -3.80451 1.96064 0
M  V30 6694 C 697.647 -5.13003 1.5077 0
M  V30 6695 C 698.947 -3.98855 3.37213 0
M  V30 6696 H 700.641 -2.09698 2.13699 0
M  V30 6697 H 698.187 -1.00754 1.02882 0
M  V30 6698 H 700.14 -4.13669 0.803497 0
M  V30 6699 H 698.864 -3.26497 -0.0821381 0
M  V30 6700 H 697.523 -3.04654 2.03916 0
M  V30 6701 H 697.171 -5.0029 0.521417 0
M  V30 6702 H 696.871 -5.43956 2.22229 0
M  V30 6703 H 698.395 -5.93554 1.43271 0
M  V30 6704 H 699.809 -4.67312 3.32103 0
M  V30 6705 H 698.206 -4.41188 4.06784 0
M  V30 6706 H 699.276 -3.02614 3.78883 0
M  V30 6707 N 700.619 -1.13374 -1.09472 0
M  V30 6708 C 701.866 -0.89519 -1.81639 0
M  V30 6709 C 702.194 0.57868 -1.85692 0
M  V30 6710 O 701.449 1.44426 -1.32059 0
M  V30 6711 C 701.748 -1.42759 -3.2765 0
M  V30 6712 C 701.414 -2.91822 -3.43731 0
M  V30 6713 C 700.076 -3.32521 -3.47827 0
M  V30 6714 C 702.428 -3.87727 -3.48307 0
M  V30 6715 C 699.756 -4.6781 -3.54078 0
M  V30 6716 C 702.108 -5.22859 -3.56091 0
M  V30 6717 C 700.772 -5.63086 -3.58456 0
M  V30 6718 H 700.042 -0.327573 -0.664663 0
M  V30 6719 H 702.689 -1.4156 -1.28969 0
M  V30 6720 H 700.994 -0.827871 -3.82954 0
M  V30 6721 H 702.691 -1.2191 -3.8202 0
M  V30 6722 H 699.281 -2.5935 -3.41226 0
M  V30 6723 H 703.465 -3.57371 -3.44383 0
M  V30 6724 H 698.721 -4.98353 -3.54195 0
M  V30 6725 H 702.895 -5.96989 -3.58577 0
M  V30 6726 H 700.522 -6.67905 -3.63052 0
M  V30 6727 N 702.098 1.27442 -0.927168 0
M  V30 6728 C 703.347 1.93679 -0.563146 0
M  V30 6729 C 703.66 1.73673 0.899837 0
M  V30 6730 O 704.866 2.34247 1.37262 0
M  V30 6731 C 703.322 3.46961 -0.95636 0
M  V30 6732 C 702.93 3.75724 -2.43999 0
M  V30 6733 C 704.674 4.19282 -0.663565 0
M  V30 6734 C 702.581 5.22378 -2.77263 0
M  V30 6735 H 701.511 0.725059 -0.206894 0
M  V30 6736 H 704.162 1.44743 -1.12791 0
M  V30 6737 H 702.544 3.94703 -0.320254 0
M  V30 6738 H 703.718 3.38741 -3.12396 0
M  V30 6739 H 702.033 3.16605 -2.70463 0
M  V30 6740 H 704.63 5.27265 -0.888596 0
M  V30 6741 H 704.973 4.14382 0.399198 0
M  V30 6742 H 705.506 3.7736 -1.25875 0
M  V30 6743 H 702.245 5.32367 -3.82446 0
M  V30 6744 H 701.765 5.6051 -2.13516 0
M  V30 6745 H 703.444 5.9025 -2.64979 0
M  V30 6746 N 703.576 0.692616 1.41565 0
M  V30 6747 C 704.825 0.219452 2.00503 0
M  V30 6748 C 705.138 -1.18683 1.55479 0
M  V30 6749 O 706.344 -1.75731 2.06956 0
M  V30 6750 C 704.8 0.341451 3.58277 0
M  V30 6751 C 704.408 1.75291 4.12283 0
M  V30 6752 C 706.152 -0.0720899 4.24439 0
M  V30 6753 C 704.059 1.82673 5.62481 0
M  V30 6754 H 702.989 0.0782874 0.749925 0
M  V30 6755 H 705.64 0.860386 1.62079 0
M  V30 6756 H 704.022 -0.367683 3.94289 0
M  V30 6757 H 705.196 2.49057 3.87695 0
M  V30 6758 H 703.511 2.11587 3.58636 0
M  V30 6759 H 706.108 -0.0373385 5.34687 0
M  V30 6760 H 706.451 -1.11034 4.0122 0
M  V30 6761 H 706.984 0.586663 3.9345 0
M  V30 6762 H 703.723 2.84539 5.90523 0
M  V30 6763 H 703.243 1.13288 5.89004 0
M  V30 6764 H 704.922 1.58827 6.27203 0
M  V30 6765 N 705.054 -1.51416 0.437162 0
M  V30 6766 C 706.47 -1.59349 0.0894459 0
M  V30 6767 C 706.67 -1.44809 -1.40116 0
M  V30 6768 O 705.726 -1.28924 -2.17106 0
M  V30 6769 C 707.039 -2.9446 0.609398 0
M  V30 6770 C 708.587 -3.07769 0.569824 0
M  V30 6771 C 709.062 -4.45404 1.06675 0
M  V30 6772 N 710.553 -4.51723 1.02473 0
M  V30 6773 C 711.288 -5.56544 1.3801 0
M  V30 6774 N 710.784 -6.68784 1.80831 0
M  V30 6775 N 712.577 -5.46901 1.29828 0
M  V30 6776 H 704.728 -1.59112 1.40703 0
M  V30 6777 H 706.991 -0.750031 0.579791 0
M  V30 6778 H 706.697 -3.1047 1.65231 0
M  V30 6779 H 706.571 -3.77184 0.0342236 0
M  V30 6780 H 708.958 -2.91428 -0.464107 0
M  V30 6781 H 709.039 -2.26885 1.1814 0
M  V30 6782 H 708.683 -4.62492 2.09914 0
M  V30 6783 H 708.613 -5.24827 0.431712 0
M  V30 6784 H 711.104 -3.71165 0.710258 0
M  V30 6785 H 711.417 -7.44787 2.06185 0
M  V30 6786 H 709.762 -6.69992 1.84757 0
M  V30 6787 H 712.953 -4.581 0.962397 0
M  V30 6788 H 713.126 -6.2848 1.57851 0
M  V30 6789 N 706.532 -0.168513 -1.56696 0
M  V30 6790 C 707.78 0.476216 -1.96409 0
M  V30 6791 C 708.101 1.63968 -1.05544 0
M  V30 6792 O 707.371 1.95525 -0.121235 0
M  V30 6793 H 705.951 0.178921 -0.725256 0
M  V30 6794 H 708.613 -0.249042 -1.93302 0
M  V30 6795 H 707.709 0.838094 -3.00637 0
M  V30 6796 N 708.01 1.57248 0.105221 0
M  V30 6797 C 709.235 1.90143 0.828264 0
M  V30 6798 C 709.66 0.761811 1.71983 0
M  V30 6799 O 709.018 -0.287086 1.79013 0
M  V30 6800 C 709.066 3.21856 1.62608 0
M  V30 6801 O 708.17 3.08732 2.7342 0
M  V30 6802 H 707.511 0.623558 0.228192 0
M  V30 6803 H 710.041 2.0443 0.0834826 0
M  V30 6804 H 710.051 3.54916 2.01243 0
M  V30 6805 H 708.726 4.0439 0.971687 0
M  V30 6806 H 707.303 2.87167 2.37886 0
M  V30 6807 N 709.488 -0.375779 1.53054 0
M  V30 6808 C 710.899 -0.95309 1.6054 0
M  V30 6809 C 711.25 -1.90575 0.466446 0
M  V30 6810 O 710.375 -2.12507 -0.408609 0
M  V30 6811 C 710.97 -1.73537 2.90982 0
M  V30 6812 C 709.529 -2.26218 3.00836 0
M  V30 6813 C 708.676 -1.07157 2.55759 0
M  V30 6814 H 711.627 -0.154895 1.57942 0
M  V30 6815 H 711.648 -2.59574 2.78211 0
M  V30 6816 H 711.16 -1.04176 3.73857 0
M  V30 6817 H 709.261 -2.98852 2.22527 0
M  V30 6818 H 709.374 -2.54799 4.05727 0
M  V30 6819 H 707.738 -1.43553 2.10391 0
M  V30 6820 H 708.521 -0.393099 3.41042 0
M  V30 6821 N 710.966 -1.44241 -0.634997 0
M  V30 6822 C 711.898 -1.46793 -1.76024 0
M  V30 6823 C 712.911 -0.361781 -1.58729 0
M  V30 6824 O 714.1 -0.627297 -1.67114 0
M  V30 6825 C 711.2 -1.28248 -3.13697 0
M  V30 6826 C 710.373 -2.52038 -3.57485 0
M  V30 6827 C 709.432 -2.2845 -4.74022 0
M  V30 6828 O 708.458 -3.01915 -4.82531 0
M  V30 6829 N 709.66 -1.31264 -5.65464 0
M  V30 6830 H 712.425 -2.43797 -1.74307 0
M  V30 6831 H 709.986 -1.39631 -0.819438 0
M  V30 6832 H 711.978 -1.10321 -3.89373 0
M  V30 6833 H 710.548 -0.39623 -3.10079 0
M  V30 6834 H 709.768 -2.85268 -2.72059 0
M  V30 6835 H 711.056 -3.34382 -3.83492 0
M  V30 6836 H 710.454 -0.705817 -5.6128 0
M  V30 6837 H 709.011 -1.19316 -6.40786 0
M  V30 6838 N 712.444 0.87505 -1.31075 0
M  V30 6839 C 713.376 1.98773 -1.14114 0
M  V30 6840 C 714.389 1.62595 -0.0816119 0
M  V30 6841 O 715.578 1.75449 -0.32861 0
M  V30 6842 C 712.678 3.31159 -0.720224 0
M  V30 6843 C 711.851 3.9571 -1.86366 0
M  V30 6844 C 710.91 5.06407 -1.42965 0
M  V30 6845 O 709.936 5.27501 -2.13848 0
M  V30 6846 N 711.138 5.79649 -0.314194 0
M  V30 6847 H 713.903 2.1387 -2.09951 0
M  V30 6848 H 711.464 1.04873 -1.23342 0
M  V30 6849 H 713.456 4.0259 -0.412687 0
M  V30 6850 H 712.026 3.12257 0.146396 0
M  V30 6851 H 711.246 3.17324 -2.33879 0
M  V30 6852 H 712.534 4.35576 -2.62966 0
M  V30 6853 H 711.932 5.65025 0.276228 0
M  V30 6854 H 710.489 6.51766 -0.0661641 0
M  V30 6855 N 713.922 1.13953 1.08869 0
M  V30 6856 C 715.171 0.899431 1.80536 0
M  V30 6857 C 715.484 -0.575781 1.86933 0
M  V30 6858 O 716.69 -0.932988 2.54966 0
M  V30 6859 C 715.146 1.55963 3.24351 0
M  V30 6860 C 714.754 3.07077 3.26202 0
M  V30 6861 C 716.498 1.40046 4.00733 0
M  V30 6862 C 714.405 3.65955 4.64576 0
M  V30 6863 H 713.335 0.332849 0.676556 0
M  V30 6864 H 715.986 1.3679 1.22314 0
M  V30 6865 H 714.368 1.01883 3.82669 0
M  V30 6866 H 715.542 3.67785 2.77617 0
M  V30 6867 H 713.857 3.22576 2.63312 0
M  V30 6868 H 716.454 1.81441 5.02974 0
M  V30 6869 H 716.797 0.345993 4.1486 0
M  V30 6870 H 717.33 1.91137 3.48872 0
M  V30 6871 H 714.069 4.71234 4.55652 0
M  V30 6872 H 713.589 3.10027 5.13462 0
M  V30 6873 H 715.268 3.65968 5.33551 0
M  V30 6874 N 715.4 -1.26948 0.933913 0
M  V30 6875 C 716.677 -1.89212 0.495784 0
M  V30 6876 C 717.057 -1.84469 -1.02637 0
M  V30 6877 O 716.405 -1.29409 -1.88323 0
M  V30 6878 C 716.615 -3.32865 1.0489 0
M  V30 6879 C 717.963 -4.09749 1.11315 0
M  V30 6880 O 718.987 -3.41905 0.998966 0
M  V30 6881 O 717.846 -5.31061 1.28983 0
M  V30 6882 H 714.94 -0.811284 0.160459 0
M  V30 6883 H 717.486 -1.35171 1.02601 0
M  V30 6884 H 716.258 -3.30642 2.09265 0
M  V30 6885 H 715.881 -3.94435 0.500692 0
M  V30 6886 N 716.879 -0.700114 -1.41195 0
M  V30 6887 C 717.829 -0.0144098 -2.27995 0
M  V30 6888 C 718.813 0.748249 -1.42443 0
M  V30 6889 O 720.005 0.622995 -1.65674 0
M  V30 6890 C 717.134 0.917938 -3.308 0
M  V30 6891 C 716.22 0.151286 -4.2383 0
M  V30 6892 N 716.611 -0.85732 -4.98481 0
M  V30 6893 C 714.909 0.386108 -4.44326 0
M  V30 6894 C 715.61 -1.31663 -5.66604 0
M  V30 6895 N 714.586 -0.641689 -5.39799 0
M  V30 6896 H 718.388 -0.787662 -2.83149 0
M  V30 6897 H 715.902 -0.531344 -1.53462 0
M  V30 6898 H 717.899 1.42437 -3.91813 0
M  V30 6899 H 716.559 1.69074 -2.77208 0
M  V30 6900 H 717.57 -1.2377 -5.02893 0
M  V30 6901 H 714.247 1.13644 -4.01735 0
M  V30 6902 H 715.637 -2.15384 -6.36443 0
M  V30 6903 N 718.357 1.51182 -0.445186 0
M  V30 6904 C 719.32 2.26501 0.350722 0
M  V30 6905 C 720.32 1.3025 0.942952 0
M  V30 6906 O 721.51 1.53897 0.816175 0
M  V30 6907 C 718.642 3.06274 1.49697 0
M  V30 6908 H 719.835 2.98299 -0.309474 0
M  V30 6909 H 717.388 1.55034 -0.198551 0
M  V30 6910 H 718.123 2.38911 2.19299 0
M  V30 6911 H 717.908 3.76979 1.0784 0
M  V30 6912 H 719.398 3.63306 2.05909 0
M  V30 6913 N 719.835 0.176821 1.56605 0
M  V30 6914 C 720.782 -0.751312 2.18229 0
M  V30 6915 C 721.752 -1.22297 1.12395 0
M  V30 6916 O 722.937 -1.29015 1.40569 0
M  V30 6917 C 720.077 -1.97291 2.83143 0
M  V30 6918 C 719.19 -1.54431 4.03454 0
M  V30 6919 C 718.325 -2.72 4.56278 0
M  V30 6920 C 717.364 -2.25657 5.68986 0
M  V30 6921 N 716.501 -3.36338 6.16296 0
M  V30 6922 H 721.341 -0.219033 2.97194 0
M  V30 6923 H 718.878 -0.0963803 1.46784 0
M  V30 6924 H 720.836 -2.68949 3.1894 0
M  V30 6925 H 719.466 -2.4788 2.06773 0
M  V30 6926 H 718.518 -0.724273 3.73441 0
M  V30 6927 H 719.83 -1.16417 4.85024 0
M  V30 6928 H 718.984 -3.51806 4.94285 0
M  V30 6929 H 717.723 -3.13277 3.73777 0
M  V30 6930 H 716.728 -1.44299 5.30526 0
M  V30 6931 H 717.953 -1.85432 6.53293 0
M  V30 6932 H 715.899 -3.7718 5.36723 0
M  V30 6933 H 715.816 -3.02435 6.9287 0
M  V30 6934 H 717.084 -4.16413 6.58954 0
M  V30 6935 N 721.313 -1.57302 -0.09688 0
M  V30 6936 C 722.245 -1.98618 -1.14384 0
M  V30 6937 C 723.258 -0.888483 -1.36418 0
M  V30 6938 O 724.447 -1.16661 -1.35101 0
M  V30 6939 C 721.547 -2.28838 -2.49973 0
M  V30 6940 C 720.72 -3.60132 -2.48241 0
M  V30 6941 C 719.779 -3.7831 -3.65743 0
M  V30 6942 O 718.805 -4.50183 -3.48316 0
M  V30 6943 N 720.007 -3.18752 -4.85157 0
M  V30 6944 H 722.772 -2.8904 -0.792202 0
M  V30 6945 H 720.333 -1.59356 -0.285883 0
M  V30 6946 H 722.325 -2.38193 -3.27179 0
M  V30 6947 H 720.895 -1.44431 -2.77233 0
M  V30 6948 H 720.115 -3.61763 -1.56593 0
M  V30 6949 H 721.403 -4.46389 -2.4416 0
M  V30 6950 H 720.801 -2.60368 -5.0222 0
M  V30 6951 H 719.358 -3.33595 -5.59962 0
M  V30 6952 N 722.791 0.367657 -1.53252 0
M  V30 6953 C 723.721 1.45632 -1.8252 0
M  V30 6954 C 724.702 1.55979 -0.678568 0
M  V30 6955 O 725.887 1.70581 -0.928217 0
M  V30 6956 C 723.017 2.82994 -2.01325 0
M  V30 6957 C 721.971 2.87473 -3.17086 0
M  V30 6958 C 721.297 4.2749 -3.21179 0
M  V30 6959 C 722.597 2.55182 -4.55719 0
M  V30 6960 H 724.291 1.21387 -2.73689 0
M  V30 6961 H 721.837 0.58251 -1.31692 0
M  V30 6962 H 723.79 3.59179 -2.20383 0
M  V30 6963 H 722.514 3.08622 -1.06864 0
M  V30 6964 H 721.173 2.13739 -2.97844 0
M  V30 6965 H 720.821 4.5019 -2.24361 0
M  V30 6966 H 720.521 4.31403 -3.98955 0
M  V30 6967 H 722.045 5.0555 -3.42419 0
M  V30 6968 H 723.459 3.21081 -4.74953 0
M  V30 6969 H 721.856 2.70414 -5.3572 0
M  V30 6970 H 722.926 1.5044 -4.60973 0
M  V30 6971 N 724.269 1.44576 0.627338 0
M  V30 6972 C 725.518 1.46837 1.38281 0
M  V30 6973 C 725.831 0.10635 1.95311 0
M  V30 6974 O 727.037 0.00651084 2.71499 0
M  V30 6975 C 725.493 2.58527 2.50384 0
M  V30 6976 C 725.101 4.00953 1.99851 0
M  V30 6977 C 726.845 2.70013 3.27557 0
M  V30 6978 C 724.752 5.0406 3.09318 0
M  V30 6979 H 723.682 0.546319 0.519664 0
M  V30 6980 H 726.333 1.70654 0.674497 0
M  V30 6981 H 724.715 2.27957 3.23808 0
M  V30 6982 H 725.889 4.41108 1.33267 0
M  V30 6983 H 724.204 3.93743 1.35482 0
M  V30 6984 H 726.801 3.44217 4.09168 0
M  V30 6985 H 727.144 1.75961 3.77284 0
M  V30 6986 H 727.677 3.00011 2.61224 0
M  V30 6987 H 724.416 5.99753 2.6453 0
M  V30 6988 H 723.936 4.68493 3.74532 0
M  V30 6989 H 725.615 5.2793 3.74031 0
M  V30 6990 N 725.747 -0.868086 1.31537 0
M  V30 6991 C 726.657 -2.00801 1.21311 0
M  V30 6992 C 727.673 -1.73518 0.129431 0
M  V30 6993 O 728.849 -1.98378 0.347588 0
M  V30 6994 C 725.914 -3.3419 0.922935 0
M  V30 6995 C 724.975 -3.74783 2.0937 0
M  V30 6996 C 724.208 -5.01807 1.81728 0
M  V30 6997 O 724.431 -5.65404 0.753313 0
M  V30 6998 O 723.365 -5.39213 2.67457 0
M  V30 6999 H 727.191 -2.12361 2.17109 0
M  V30 7000 H 724.776 -0.996684 1.11295 0
M  V30 7001 H 726.658 -4.14174 0.777033 0
M  V30 7002 H 725.333 -3.237 -0.00500301 0
M  V30 7003 H 724.24 -2.95432 2.29501 0
M  V30 7004 H 725.573 -3.89902 3.00396 0
M  V30 7005 N 727.225 -1.14528 -1.08264 0
M  V30 7006 C 728.135 -0.84728 -2.18765 0
M  V30 7007 C 729.151 0.172826 -1.7314 0
M  V30 7008 O 730.327 0.000985336 -2.014 0
M  V30 7009 C 727.392 -0.330633 -3.4512 0
M  V30 7010 C 726.453 -1.41348 -4.05363 0
M  V30 7011 C 725.686 -0.921387 -5.25686 0
M  V30 7012 O 725.909 0.236587 -5.69909 0
M  V30 7013 O 724.843 -1.70101 -5.77364 0
M  V30 7014 H 728.669 -1.7708 -2.46731 0
M  V30 7015 H 726.254 -0.923661 -1.17426 0
M  V30 7016 H 728.136 -0.0485053 -4.21372 0
M  V30 7017 H 726.811 0.565147 -3.18728 0
M  V30 7018 H 725.718 -1.74908 -3.30693 0
M  V30 7019 H 727.051 -2.28383 -4.36007 0
M  V30 7020 N 728.703 1.26451 -0.940633 0
M  V30 7021 C 729.65 2.264 -0.448497 0
M  V30 7022 C 730.62 1.5866 0.491546 0
M  V30 7023 O 731.805 1.86389 0.407874 0
M  V30 7024 C 728.945 3.43956 0.280715 0
M  V30 7025 C 728.058 4.26374 -0.694937 0
M  V30 7026 C 727.193 5.31171 0.0554186 0
M  V30 7027 C 726.232 6.05266 -0.912091 0
M  V30 7028 N 725.369 7.01833 -0.193524 0
M  V30 7029 H 730.209 2.67869 -1.30576 0
M  V30 7030 H 727.746 1.31707 -0.655112 0
M  V30 7031 H 729.704 4.10941 0.71994 0
M  V30 7032 H 728.334 3.03403 1.10212 0
M  V30 7033 H 727.386 3.59183 -1.25267 0
M  V30 7034 H 728.698 4.77748 -1.43382 0
M  V30 7035 H 727.852 6.04166 0.553951 0
M  V30 7036 H 726.591 4.80634 0.827183 0
M  V30 7037 H 725.596 5.31099 -1.42175 0
M  V30 7038 H 726.821 6.57893 -1.68385 0
M  V30 7039 H 724.767 6.53607 0.559758 0
M  V30 7040 H 724.684 7.50957 -0.871744 0
M  V30 7041 H 725.952 7.78983 0.283932 0
M  V30 7042 N 730.181 0.707592 1.40822 0
M  V30 7043 C 731.43 0.240705 2.00259 0
M  V30 7044 C 731.743 -1.17027 1.56729 0
M  V30 7045 O 732.949 -1.73526 2.08809 0
M  V30 7046 C 731.405 0.379432 3.57894 0
M  V30 7047 C 731.013 1.79654 4.104 0
M  V30 7048 C 732.757 -0.0270684 4.24491 0
M  V30 7049 C 730.664 1.88628 5.60512 0
M  V30 7050 H 729.594 0.0862369 0.749052 0
M  V30 7051 H 732.245 0.877528 1.61157 0
M  V30 7052 H 730.627 -0.325842 3.94657 0
M  V30 7053 H 731.801 2.53155 3.85032 0
M  V30 7054 H 730.116 2.15379 3.56372 0
M  V30 7055 H 732.713 0.0193743 5.34696 0
M  V30 7056 H 733.056 -1.06772 4.02375 0
M  V30 7057 H 733.589 0.628361 3.92806 0
M  V30 7058 H 730.328 2.90787 5.87472 0
M  V30 7059 H 729.848 1.19528 5.8777 0
M  V30 7060 H 731.527 1.6547 6.25483 0
M  V30 7061 N 731.66 -1.50943 0.453197 0
M  V30 7062 C 732.57 -2.31884 -0.355963 0
M  V30 7063 C 733.586 -1.41481 -1.01287 0
M  V30 7064 O 734.762 -1.74546 -1.00477 0
M  V30 7065 C 731.827 -3.15668 -1.43369 0
M  V30 7066 C 730.888 -4.2187 -0.795253 0
M  V30 7067 C 730.121 -5.0165 -1.82162 0
M  V30 7068 O 730.344 -4.82266 -3.04592 0
M  V30 7069 O 729.278 -5.85311 -1.40336 0
M  V30 7070 H 733.104 -3.02162 0.305248 0
M  V30 7071 H 730.689 -1.47839 0.215398 0
M  V30 7072 H 732.571 -3.67709 -2.05836 0
M  V30 7073 H 731.246 -2.48137 -2.07869 0
M  V30 7074 H 730.153 -3.73867 -0.132106 0
M  V30 7075 H 731.486 -4.9182 -0.193484 0
M  V30 7076 N 733.138 -0.185124 -1.56509 0
M  V30 7077 C 734.386 0.455357 -1.96903 0
M  V30 7078 C 734.707 1.62839 -1.07277 0
M  V30 7079 O 733.977 1.95385 -0.141966 0
M  V30 7080 H 732.557 0.171218 -0.727113 0
M  V30 7081 H 735.219 -0.26953 -1.93027 0
M  V30 7082 H 734.315 0.80616 -3.01509 0
M  V30 7083 N 734.616 1.57351 0.0885366 0
M  V30 7084 C 736.027 1.75303 0.642308 0
M  V30 7085 C 736.378 0.808238 1.78779 0
M  V30 7086 O 735.503 -0.01171 2.16397 0
M  V30 7087 C 736.098 3.17885 1.17194 0
M  V30 7088 C 734.657 3.37239 1.67172 0
M  V30 7089 C 733.804 2.7108 0.584045 0
M  V30 7090 H 736.755 1.58103 -0.137567 0
M  V30 7091 H 736.776 3.2112 2.04114 0
M  V30 7092 H 736.288 3.86625 0.338024 0
M  V30 7093 H 734.389 2.73588 2.52943 0
M  V30 7094 H 734.502 4.45594 1.76019 0
M  V30 7095 H 732.866 2.33161 1.02508 0
M  V30 7096 H 733.649 3.42464 -0.239403 0
M  V30 7097 N 736.094 -0.359525 1.53444 0
M  V30 7098 C 737.024 -1.44662 1.8329 0
M  V30 7099 C 738.005 -1.55617 0.68683 0
M  V30 7100 O 739.19 -1.70086 0.93725 0
M  V30 7101 C 736.32 -2.81923 2.02822 0
M  V30 7102 C 735.274 -2.85787 3.18606 0
M  V30 7103 C 734.6 -4.25781 3.23442 0
M  V30 7104 C 735.9 -2.52762 4.57065 0
M  V30 7105 H 737.594 -1.19934 2.74329 0
M  V30 7106 H 735.14 -0.575517 1.31999 0
M  V30 7107 H 737.093 -3.58005 2.22285 0
M  V30 7108 H 735.817 -3.08051 1.085 0
M  V30 7109 H 734.476 -2.12157 2.98973 0
M  V30 7110 H 734.124 -4.48994 2.26745 0
M  V30 7111 H 733.824 -4.29281 4.01238 0
M  V30 7112 H 735.348 -5.03727 3.45096 0
M  V30 7113 H 736.762 -3.18557 4.76649 0
M  V30 7114 H 735.159 -2.67569 5.37147 0
M  V30 7115 H 736.229 -1.47993 4.61764 0
M  V30 7116 N 737.572 -1.44907 -0.619662 0
M  V30 7117 C 738.812 -1.49822 -1.39042 0
M  V30 7118 C 739.176 -0.131803 -1.91547 0
M  V30 7119 O 740.377 -0.0556413 -2.68742 0
M  V30 7120 C 738.648 -2.53805 -2.5163 0
M  V30 7121 S 740.207 -2.77855 -3.3962 0
M  V30 7122 H 737.025 -0.529774 -0.474195 0
M  V30 7123 H 739.627 -1.81907 -0.716236 0
M  V30 7124 H 738.331 -3.51772 -2.11387 0
M  V30 7125 H 737.862 -2.23331 -3.23863 0
M  V30 7126 H 739.877 -2.10319 -4.49422 0
M  V30 7127 N 739.05 0.861098 -1.31996 0
M  V30 7128 C 740.461 1.43065 -1.19955 0
M  V30 7129 C 740.812 1.95273 0.190489 0
M  V30 7130 O 739.937 1.87012 1.08882 0
M  V30 7131 C 740.532 2.60052 -2.1716 0
M  V30 7132 C 739.091 3.13026 -2.09026 0
M  V30 7133 C 738.238 1.85756 -2.05888 0
M  V30 7134 H 741.189 0.668834 -1.43918 0
M  V30 7135 H 741.21 3.37016 -1.76637 0
M  V30 7136 H 740.722 2.22024 -3.18319 0
M  V30 7137 H 738.823 3.55653 -1.11092 0
M  V30 7138 H 738.936 3.74707 -2.98549 0
M  V30 7139 H 737.3 2.05088 -1.51033 0
M  V30 7140 H 738.083 1.49954 -3.08818 0
M  V30 7141 N 740.528 1.15101 1.07655 0
M  V30 7142 C 741.774 0.925343 1.80458 0
M  V30 7143 C 742.107 -0.546354 1.86356 0
M  V30 7144 O 741.382 -1.40496 1.34503 0
M  V30 7145 C 741.665 1.53646 3.25676 0
M  V30 7146 C 741.518 3.07854 3.27942 0
M  V30 7147 C 742.837 1.21968 4.22861 0
M  V30 7148 H 739.956 0.337592 0.655134 0
M  V30 7149 H 742.598 1.42217 1.25993 0
M  V30 7150 H 740.748 1.11395 3.72187 0
M  V30 7151 H 742.42 3.58989 2.89697 0
M  V30 7152 H 740.663 3.41904 2.66991 0
M  V30 7153 H 741.334 3.45725 4.30324 0
M  V30 7154 H 743.81 1.5851 3.84726 0
M  V30 7155 H 742.686 1.67349 5.22767 0
M  V30 7156 H 742.947 0.136207 4.4189 0
M  V30 7157 N 742.006 -1.2595 0.947325 0
M  V30 7158 C 743.254 -1.93081 0.596996 0
M  V30 7159 C 743.575 -1.74632 -0.867672 0
M  V30 7160 O 742.845 -1.1056 -1.6172 0
M  V30 7161 H 741.425 -0.714542 0.217805 0
M  V30 7162 H 744.087 -1.53265 1.20398 0
M  V30 7163 H 743.183 -3.01134 0.82004 0
M  V30 7164 N 743.484 -0.715051 -1.40445 0
M  V30 7165 C 744.895 -0.326763 -1.83818 0
M  V30 7166 C 745.246 1.13851 -1.59789 0
M  V30 7167 O 744.371 1.87611 -1.07848 0
M  V30 7168 C 744.966 -0.586297 -3.33688 0
M  V30 7169 C 743.525 -0.251724 -3.75557 0
M  V30 7170 C 742.672 -0.858928 -2.63662 0
M  V30 7171 H 745.623 -0.914241 -1.2972 0
M  V30 7172 H 745.644 0.148636 -3.8021 0
M  V30 7173 H 745.156 -1.65281 -3.51146 0
M  V30 7174 H 743.257 0.809754 -3.63695 0
M  V30 7175 H 743.37 -0.720348 -4.73654 0
M  V30 7176 H 741.734 -0.287013 -2.53078 0
M  V30 7177 H 742.517 -1.9297 -2.83932 0
M  V30 7178 N 744.962 1.50701 -0.461195 0
M  V30 7179 C 746.21 2.01867 0.0970051 0
M  V30 7180 C 746.531 1.34591 1.41104 0
M  V30 7181 O 745.801 0.488041 1.89723 0
M  V30 7182 H 744.381 0.74599 0.0388392 0
M  V30 7183 H 747.043 1.85129 -0.609357 0
M  V30 7184 H 746.139 3.11051 0.255688 0
M  V30 7185 N 746.441 0.193421 1.56409 0
M  V30 7186 C 747.852 -0.319471 1.83946 0
M  V30 7187 C 748.203 -1.61505 1.11403 0
M  V30 7188 O 747.328 -2.13139 0.374289 0
M  V30 7189 C 747.923 -0.586411 3.33686 0
M  V30 7190 C 746.482 -1.04368 3.61641 0
M  V30 7191 C 745.629 -0.0913834 2.77149 0
M  V30 7192 H 748.58 0.417242 1.53117 0
M  V30 7193 H 748.601 -1.43591 3.52366 0
M  V30 7194 H 748.113 0.356701 3.86457 0
M  V30 7195 H 746.214 -2.00113 3.14302 0
M  V30 7196 H 746.327 -0.937549 4.69837 0
M  V30 7197 H 744.691 -0.592954 2.47702 0
M  V30 7198 H 745.474 0.846142 3.32709 0
M  V30 7199 N 747.919 -1.57396 -0.0801906 0
M  V30 7200 C 749.167 -1.86467 -0.779384 0
M  V30 7201 C 749.488 -0.784243 -1.78535 0
M  V30 7202 O 748.758 0.187986 -1.94996 0
M  V30 7203 H 747.338 -0.68806 -0.29083 0
M  V30 7204 H 750 -1.94813 -0.0582749 0
M  V30 7205 H 749.096 -2.83701 -1.30078 0
M  V30 7206 N 749.397 0.351382 -1.53633 0
M  V30 7207 C 750.645 1.09034 -1.70165 0
M  V30 7208 C 750.966 1.89413 -0.463422 0
M  V30 7209 O 750.236 1.888 0.522624 0
M  V30 7210 H 748.816 0.405522 -0.627344 0
M  V30 7211 H 751.478 0.394554 -1.90865 0
M  V30 7212 H 750.574 1.77215 -2.56907 0
M  V30 7213 N 750.875 1.45233 0.611969 0
M  V30 7214 C 752.286 1.4354 1.19387 0
M  V30 7215 C 752.637 0.160713 1.95541 0
M  V30 7216 O 751.762 -0.737954 2.03429 0
M  V30 7217 C 752.357 2.60045 2.17169 0
M  V30 7218 C 750.916 2.61486 2.70744 0
M  V30 7219 C 750.063 2.35708 1.46072 0
M  V30 7220 H 753.014 1.53536 0.401529 0
M  V30 7221 H 753.035 2.33893 3.00124 0
M  V30 7222 H 752.547 3.52803 1.61714 0
M  V30 7223 H 750.648 1.72721 3.30149 0
M  V30 7224 H 750.761 3.60572 3.15476 0
M  V30 7225 H 749.125 1.85178 1.74875 0
M  V30 7226 H 749.908 3.30606 0.924922 0
M  V30 7227 N 752.353 -0.854086 1.3245 0
M  V30 7228 C 753.601 -1.60513 1.228 0
M  V30 7229 C 753.922 -1.93865 -0.210073 0
M  V30 7230 O 753.192 -1.59673 -1.13496 0
M  V30 7231 H 751.772 -0.595099 0.451516 0
M  V30 7232 H 754.434 -1.0216 1.6598 0
M  V30 7233 H 753.53 -2.54182 1.81102 0
M  V30 7234 N 753.831 -1.1567 -1.07043 0
M  V30 7235 C 755.242 -0.942408 -1.61169 0
M  V30 7236 C 755.593 0.515537 -1.89306 0
M  V30 7237 O 754.718 1.38726 -1.66084 0
M  V30 7238 C 755.313 -1.70431 -2.92812 0
M  V30 7239 C 753.872 -1.53521 -3.43669 0
M  V30 7240 C 753.019 -1.7179 -2.17678 0
M  V30 7241 H 755.97 -1.3065 -0.9009 0
M  V30 7242 H 755.991 -1.17566 -3.61882 0
M  V30 7243 H 755.503 -2.76538 -2.72302 0
M  V30 7244 H 753.604 -0.498224 -3.69254 0
M  V30 7245 H 753.717 -2.31422 -4.19501 0
M  V30 7246 H 752.081 -1.14468 -2.27529 0
M  V30 7247 H 752.864 -2.79269 -1.99659 0
M  V30 7248 N 755.309 1.25446 -0.953992 0
M  V30 7249 C 756.272 2.24156 -0.478179 0
M  V30 7250 C 757.272 1.55278 0.417776 0
M  V30 7251 O 758.462 1.72866 0.215155 0
M  V30 7252 C 755.594 3.39495 0.309202 0
M  V30 7253 H 756.787 2.67764 -1.35064 0
M  V30 7254 H 754.34 1.37822 -0.737206 0
M  V30 7255 H 755.075 3.01307 1.19936 0
M  V30 7256 H 754.86 3.90679 -0.333562 0
M  V30 7257 H 756.35 4.12796 0.631594 0
M  V30 7258 N 756.787 0.722489 1.40064 0
M  V30 7259 C 758.035 0.264455 2.00362 0
M  V30 7260 C 758.356 -1.14847 1.57592 0
M  V30 7261 O 757.626 -1.77982 0.818477 0
M  V30 7262 H 756.206 0.0947846 0.740962 0
M  V30 7263 H 758.868 0.929659 1.71299 0
M  V30 7264 H 757.964 0.302977 3.10626 0
M  V30 7265 N 758.265 -1.50454 0.469181 0
M  V30 7266 C 759.676 -1.86695 0.0136034 0
M  V30 7267 C 760.027 -1.38413 -1.39055 0
M  V30 7268 O 759.152 -0.748294 -2.03051 0
M  V30 7269 C 759.747 -3.38795 0.0179098 0
M  V30 7270 C 758.306 -3.74455 -0.382191 0
M  V30 7271 C 757.453 -2.74338 0.404207 0
M  V30 7272 H 760.404 -1.43225 0.683547 0
M  V30 7273 H 760.425 -3.72321 -0.78468 0
M  V30 7274 H 759.937 -3.73906 1.04 0
M  V30 7275 H 758.038 -3.44944 -1.4087 0
M  V30 7276 H 758.151 -4.79025 -0.084862 0
M  V30 7277 H 756.515 -2.54305 -0.141829 0
M  V30 7278 H 757.298 -3.12293 1.42577 0
M  V30 7279 N 759.743 -0.201713 -1.56304 0
M  V30 7280 C 760.676 0.755976 -2.15314 0
M  V30 7281 C 761.654 1.20497 -1.09175 0
M  V30 7282 O 762.838 1.2913 -1.37323 0
M  V30 7283 C 759.965 2.02177 -2.71739 0
M  V30 7284 C 759.011 1.71436 -3.90528 0
M  V30 7285 S 759.844 0.856624 -5.28604 0
M  V30 7286 C 761 2.13242 -5.88455 0
M  V30 7287 H 761.233 0.254348 -2.9621 0
M  V30 7288 H 758.766 0.0133669 -1.54394 0
M  V30 7289 H 760.724 2.74867 -3.04891 0
M  V30 7290 H 759.385 2.49452 -1.90873 0
M  V30 7291 H 758.578 2.65433 -4.28441 0
M  V30 7292 H 758.18 1.06823 -3.5842 0
M  V30 7293 H 760.472 3.08435 -6.0322 0
M  V30 7294 H 761.415 1.7975 -6.84905 0
M  V30 7295 H 761.823 2.2639 -5.17115 0
M  V30 7296 N 761.222 1.57436 0.0718424 0
M  V30 7297 C 762.47 1.86878 0.769484 0
M  V30 7298 C 762.791 0.7937 1.78116 0
M  V30 7299 O 762.061 -0.177642 1.95093 0
M  V30 7300 H 760.641 0.689593 0.287177 0
M  V30 7301 H 763.303 1.94841 0.0479427 0
M  V30 7302 H 762.399 2.84387 1.28572 0
M  V30 7303 N 762.7 -0.34323 1.53817 0
M  V30 7304 C 764.111 -0.918823 1.62525 0
M  V30 7305 C 764.462 -1.89542 0.506765 0
M  V30 7306 O 763.587 -2.13326 -0.363441 0
M  V30 7307 C 764.182 -1.67326 2.94597 0
M  V30 7308 C 762.741 -2.19786 3.05567 0
M  V30 7309 C 761.888 -1.01708 2.57974 0
M  V30 7310 H 764.839 -0.121358 1.58235 0
M  V30 7311 H 764.86 -2.53615 2.83654 0
M  V30 7312 H 764.372 -0.962223 3.75983 0
M  V30 7313 H 762.473 -2.94065 2.28816 0
M  V30 7314 H 762.586 -2.46135 4.1104 0
M  V30 7315 H 760.95 -1.39058 2.13389 0
M  V30 7316 H 761.733 -0.320671 3.41799 0
M  V30 7317 N 764.178 -1.45556 -0.604258 0
M  V30 7318 C 765.425 -1.49746 -1.36317 0
M  V30 7319 C 765.753 -0.140516 -1.93992 0
M  V30 7320 O 765.008 0.861244 -1.7573 0
M  V30 7321 C 765.307 -2.52697 -2.52743 0
M  V30 7322 C 764.973 -3.97315 -2.13195 0
M  V30 7323 C 763.635 -4.36692 -2.02123 0
M  V30 7324 C 765.987 -4.88249 -1.8238 0
M  V30 7325 C 763.315 -5.64895 -1.58463 0
M  V30 7326 C 765.667 -6.16867 -1.40205 0
M  V30 7327 C 764.331 -6.55172 -1.27694 0
M  V30 7328 H 763.601 -0.54796 -0.49882 0
M  V30 7329 H 766.248 -1.7892 -0.682643 0
M  V30 7330 H 764.553 -2.17105 -3.26148 0
M  V30 7331 H 766.25 -2.53176 -3.10971 0
M  V30 7332 H 762.84 -3.66176 -2.22739 0
M  V30 7333 H 767.024 -4.58561 -1.89829 0
M  V30 7334 H 762.28 -5.93365 -1.47402 0
M  V30 7335 H 766.454 -6.86771 -1.15408 0
M  V30 7336 H 764.081 -7.54411 -0.936375 0
M  V30 7337 N 765.656 0.84705 -1.32902 0
M  V30 7338 C 766.604 1.97765 -1.22441 0
M  V30 7339 C 767.598 1.68919 -0.127546 0
M  V30 7340 O 768.804 1.77633 -0.290973 0
M  V30 7341 H 765.179 0.649072 -0.379748 0
M  V30 7342 H 767.15 2.03713 -2.18044 0
M  V30 7343 C 765.899 3.33834 -0.972125 0
M  V30 7344 H 765.222 3.56564 -1.80837 0
M  V30 7345 H 766.662 4.13467 -0.939209 0
M  V30 7346 C 765.121 3.35328 0.325059 0
M  V30 7347 O 765.651 3.78887 1.33445 0
M  V30 7348 N 763.857 2.88488 0.349718 0
M  V30 7349 H 763.404 2.53234 -0.472236 0
M  V30 7350 H 763.362 2.8987 1.21748 0
M  V30 7351 N 767.134 1.16236 1.06428 0
M  V30 7352 C 768.545 0.950942 1.60667 0
M  V30 7353 C 768.896 -0.505491 1.89576 0
M  V30 7354 O 768.021 -1.37843 1.66818 0
M  V30 7355 C 768.616 1.71982 2.91904 0
M  V30 7356 C 767.175 1.55342 3.4285 0
M  V30 7357 C 766.322 1.72942 2.16763 0
M  V30 7358 H 769.273 1.31126 0.893959 0
M  V30 7359 H 769.294 1.19483 3.61253 0
M  V30 7360 H 768.806 2.77978 2.70831 0
M  V30 7361 H 766.907 0.5178 3.68985 0
M  V30 7362 H 767.02 2.33643 4.18267 0
M  V30 7363 H 765.384 1.15673 2.26918 0
M  V30 7364 H 766.167 2.80324 1.98175 0
M  V30 7365 N 768.612 -1.24939 0.960631 0
M  V30 7366 C 769.86 -1.92437 0.617441 0
M  V30 7367 C 770.181 -1.75543 -0.849101 0
M  V30 7368 O 769.451 -1.12269 -1.60538 0
M  V30 7369 H 768.031 -0.712192 0.225371 0
M  V30 7370 H 770.693 -1.5198 1.22017 0
M  V30 7371 H 769.789 -3.00247 0.851933 0
M  V30 7372 N 770.09 -0.729906 -1.39679 0
M  V30 7373 C 771.501 -0.346241 -1.83461 0
M  V30 7374 C 771.852 1.1215 -1.60987 0
M  V30 7375 O 770.977 1.86456 -1.09832 0
M  V30 7376 C 771.572 -0.621656 -3.33048 0
M  V30 7377 C 770.131 -0.291543 -3.75269 0
M  V30 7378 C 769.278 -0.886844 -2.62736 0
M  V30 7379 H 772.229 -0.927949 -1.28743 0
M  V30 7380 H 772.25 0.108301 -3.80346 0
M  V30 7381 H 771.762 -1.68996 -3.49373 0
M  V30 7382 H 769.863 0.771133 -3.64533 0
M  V30 7383 H 769.976 -0.770544 -4.72863 0
M  V30 7384 H 768.34 -0.313839 -2.52759 0
M  V30 7385 H 769.123 -1.95971 -2.81869 0
M  V30 7386 N 771.568 1.50203 -0.477153 0
M  V30 7387 C 772.815 2.02358 0.0757385 0
M  V30 7388 C 773.143 1.3587 1.39174 0
M  V30 7389 O 772.398 0.475415 1.89838 0
M  V30 7390 C 772.697 3.56127 0.301325 0
M  V30 7391 C 772.363 4.41126 -0.933725 0
M  V30 7392 C 771.025 4.64075 -1.27233 0
M  V30 7393 C 773.377 4.90737 -1.75576 0
M  V30 7394 C 770.705 5.33878 -2.43292 0
M  V30 7395 C 773.057 5.61816 -2.90768 0
M  V30 7396 C 771.721 5.83016 -3.25036 0
M  V30 7397 H 770.991 0.740482 0.0277147 0
M  V30 7398 H 773.638 1.80754 -0.632467 0
M  V30 7399 H 771.943 3.76279 1.09183 0
M  V30 7400 H 773.64 3.94053 0.743184 0
M  V30 7401 H 770.23 4.23489 -0.659935 0
M  V30 7402 H 774.414 4.72856 -1.50734 0
M  V30 7403 H 769.67 5.48499 -2.70109 0
M  V30 7404 H 773.844 5.99237 -3.54807 0
M  V30 7405 H 771.471 6.36881 -4.15074 0
M  V30 7406 N 773.046 0.209999 1.56195 0
M  V30 7407 C 773.994 -0.721416 2.2113 0
M  V30 7408 C 774.988 -1.20852 1.18706 0
M  V30 7409 O 776.194 -1.16968 1.36815 0
M  V30 7410 H 772.569 -0.251033 0.708863 0
M  V30 7411 H 774.54 -0.150193 2.98022 0
M  V30 7412 C 773.289 -1.92392 2.89621 0
M  V30 7413 H 772.612 -1.5582 3.68185 0
M  V30 7414 H 774.052 -2.55367 3.38473 0
M  V30 7415 C 772.511 -2.77208 1.91461 0
M  V30 7416 O 773.041 -3.75603 1.42426 0
M  V30 7417 N 771.247 -2.43006 1.59363 0
M  V30 7418 H 770.794 -1.63047 1.99433 0
M  V30 7419 H 770.752 -3.00036 0.939449 0
M  V30 7420 N 774.524 -1.57472 -0.0634922 0
M  V30 7421 C 775.456 -2.00999 -1.10145 0
M  V30 7422 C 776.469 -0.917219 -1.34503 0
M  V30 7423 O 777.658 -1.19501 -1.32596 0
M  V30 7424 C 774.758 -2.34089 -2.45063 0
M  V30 7425 C 773.931 -3.65317 -2.40546 0
M  V30 7426 C 772.99 -3.85982 -3.57637 0
M  V30 7427 O 772.016 -4.5747 -3.38689 0
M  V30 7428 N 773.218 -3.28971 -4.78287 0
M  V30 7429 H 775.983 -2.90656 -0.730714 0
M  V30 7430 H 773.544 -1.59926 -0.252017 0
M  V30 7431 H 775.536 -2.4508 -3.22053 0
M  V30 7432 H 774.106 -1.50279 -2.74107 0
M  V30 7433 H 773.326 -3.65003 -1.48885 0
M  V30 7434 H 774.614 -4.51468 -2.34636 0
M  V30 7435 H 774.012 -2.70962 -4.96584 0
M  V30 7436 H 772.569 -3.45398 -5.5276 0
M  V30 7437 N 776.003 0.335068 -1.53997 0
M  V30 7438 C 777.251 1.07223 -1.71312 0
M  V30 7439 C 777.572 1.88911 -0.483486 0
M  V30 7440 O 776.842 1.89344 0.50257 0
M  V30 7441 H 775.422 0.398846 -0.63161 0
M  V30 7442 H 778.084 0.374288 -1.91272 0
M  V30 7443 H 777.18 1.7448 -2.58772 0
M  V30 7444 N 777.481 1.45874 0.596531 0
M  V30 7445 C 778.892 1.44798 1.17857 0
M  V30 7446 C 779.243 0.181443 1.95359 0
M  V30 7447 O 778.368 -0.716336 2.042 0
M  V30 7448 C 778.963 2.62333 2.14398 0
M  V30 7449 C 777.522 2.64342 2.67955 0
M  V30 7450 C 776.669 2.37244 1.43564 0
M  V30 7451 H 779.62 1.53954 0.385222 0
M  V30 7452 H 779.641 2.37063 2.97626 0
M  V30 7453 H 779.153 3.54499 1.57963 0
M  V30 7454 H 777.254 1.76213 3.28298 0
M  V30 7455 H 777.367 3.63897 3.11634 0
M  V30 7456 H 775.731 1.87022 1.72901 0
M  V30 7457 H 776.514 3.31568 0.889805 0
M  V30 7458 N 778.959 -0.83999 1.33349 0
M  V30 7459 C 780.37 -1.41139 1.22216 0
M  V30 7460 C 780.721 -1.95551 -0.159398 0
M  V30 7461 O 779.846 -1.88721 -1.05893 0
M  V30 7462 C 780.441 -2.56564 2.21269 0
M  V30 7463 C 779 -3.09661 2.13979 0
M  V30 7464 C 778.147 -1.82457 2.08818 0
M  V30 7465 H 781.098 -0.645853 1.44964 0
M  V30 7466 H 781.119 -3.34163 1.81976 0
M  V30 7467 H 780.631 -2.16932 3.21811 0
M  V30 7468 H 778.732 -3.53841 1.16736 0
M  V30 7469 H 778.845 -3.6991 3.04472 0
M  V30 7470 H 777.209 -2.0266 1.54276 0
M  V30 7471 H 777.992 -1.45022 3.11165 0
M  V30 7472 N 780.437 -1.16799 -1.0581 0
M  V30 7473 C 781.685 -0.950642 -1.78346 0
M  V30 7474 C 782.006 0.522524 -1.87869 0
M  V30 7475 O 781.276 1.3795 -1.39092 0
M  V30 7476 H 779.856 -0.348736 -0.6606 0
M  V30 7477 H 782.518 -1.47158 -1.27791 0
M  V30 7478 H 781.614 -1.37359 -2.80248 0
M  V30 7479 N 781.915 1.24427 -0.967243 0
M  V30 7480 C 782.878 2.23637 -0.501927 0
M  V30 7481 C 783.878 1.55712 0.401283 0
M  V30 7482 O 785.068 1.73085 0.196808 0
M  V30 7483 C 782.2 3.39804 0.273176 0
M  V30 7484 H 783.393 2.66317 -1.37897 0
M  V30 7485 H 780.946 1.37033 -0.751783 0
M  V30 7486 H 781.681 3.02562 1.16733 0
M  V30 7487 H 781.466 3.90303 -0.37498 0
M  V30 7488 H 782.956 4.13443 0.587776 0
M  V30 7489 N 783.393 0.737304 1.3929 0
M  V30 7490 C 784.804 0.355966 1.83275 0
M  V30 7491 C 785.155 -1.11295 1.6158 0
M  V30 7492 O 784.28 -1.85871 1.10819 0
M  V30 7493 C 784.875 0.63931 3.32713 0
M  V30 7494 C 783.434 0.31144 3.75109 0
M  V30 7495 C 782.581 0.900765 2.62262 0
M  V30 7496 H 785.532 0.934763 1.28249 0
M  V30 7497 H 785.553 -0.0881293 3.80398 0
M  V30 7498 H 785.065 1.70847 3.48472 0
M  V30 7499 H 783.166 -0.751791 3.64937 0
M  V30 7500 H 783.279 0.795611 4.72448 0
M  V30 7501 H 781.643 0.327239 2.52589 0
M  V30 7502 H 782.426 1.97463 2.80826 0
M  V30 7503 N 784.871 -1.49948 0.485112 0
M  V30 7504 C 786.282 -1.8667 0.0334041 0
M  V30 7505 C 786.633 -1.3988 -1.37579 0
M  V30 7506 O 785.758 -0.769788 -2.02245 0
M  V30 7507 C 786.353 -3.38757 0.0538426 0
M  V30 7508 C 784.912 -3.74839 -0.342453 0
M  V30 7509 C 784.059 -2.73894 0.433281 0
M  V30 7510 H 787.01 -1.42492 0.698699 0
M  V30 7511 H 787.031 -3.73132 -0.745146 0
M  V30 7512 H 786.543 -3.72782 1.07959 0
M  V30 7513 H 784.644 -3.46419 -1.37203 0
M  V30 7514 H 784.757 -4.79088 -0.0340503 0
M  V30 7515 H 783.121 -2.54441 -0.114849 0
M  V30 7516 H 783.904 -3.10763 1.45881 0
M  V30 7517 N 786.349 -0.21828 -1.56081 0
M  V30 7518 C 787.299 0.706492 -2.16778 0
M  V30 7519 C 788.283 1.15987 -1.11516 0
M  V30 7520 O 789.475 1.11441 -1.37513 0
M  V30 7521 C 786.604 1.91583 -2.8487 0
M  V30 7522 C 785.69 1.48228 -3.97353 0
M  V30 7523 N 786.081 0.761113 -5.00041 0
M  V30 7524 C 784.379 1.76982 -4.09382 0
M  V30 7525 C 785.08 0.540496 -5.79184 0
M  V30 7526 N 784.056 1.09622 -5.32432 0
M  V30 7527 H 787.858 0.147038 -2.93532 0
M  V30 7528 H 785.372 -0.0194049 -1.62388 0
M  V30 7529 H 787.369 2.58906 -3.26762 0
M  V30 7530 H 786.029 2.47979 -2.09611 0
M  V30 7531 H 787.04 0.414141 -5.16241 0
M  V30 7532 H 783.717 2.34721 -3.45271 0
M  V30 7533 H 785.107 -0.0332531 -6.71892 0
M  V30 7534 N 787.827 1.57504 0.0551401 0
M  V30 7535 C 788.79 2.03826 1.04821 0
M  V30 7536 C 789.79 0.937968 1.30609 0
M  V30 7537 O 790.98 1.20237 1.2605 0
M  V30 7538 C 788.112 2.43309 2.38775 0
M  V30 7539 H 789.305 2.92802 0.6486 0
M  V30 7540 H 786.858 1.53368 0.301315 0
M  V30 7541 H 787.593 1.5741 2.83536 0
M  V30 7542 H 787.378 3.23615 2.21395 0
M  V30 7543 H 788.868 2.79666 3.10124 0
M  V30 7544 N 789.305 -0.326896 1.54172 0
M  V30 7545 C 790.553 -1.06313 1.71878 0
M  V30 7546 C 790.874 -1.88652 0.493498 0
M  V30 7547 O 790.144 -1.89608 -0.492522 0
M  V30 7548 H 788.724 -0.39549 0.633716 0
M  V30 7549 H 791.386 -0.364139 1.91468 0
M  V30 7550 H 790.482 -1.73105 2.59694 0
M  V30 7551 N 790.784 -1.46188 -0.588786 0
M  V30 7552 C 792.032 -1.50885 -1.34455 0
M  V30 7553 C 792.353 -0.159555 -1.94346 0
M  V30 7554 O 791.623 0.813239 -1.78222 0
M  V30 7555 H 790.203 -0.555707 -0.499198 0
M  V30 7556 H 792.865 -1.82277 -0.690014 0
M  V30 7557 H 791.961 -2.25816 -2.15438 0
M  V30 7558 N 792.262 0.832906 -1.33792 0
M  V30 7559 C 793.673 1.40489 -1.22963 0
M  V30 7560 C 794.024 1.95633 0.149026 0
M  V30 7561 O 793.149 1.8928 1.04891 0
M  V30 7562 C 793.744 2.55387 -2.22627 0
M  V30 7563 C 792.303 3.08522 -2.15618 0
M  V30 7564 C 791.45 1.81347 -2.09782 0
M  V30 7565 H 794.401 0.638156 -1.45304 0
M  V30 7566 H 794.422 3.33193 -1.83746 0
M  V30 7567 H 793.934 2.15222 -3.22957 0
M  V30 7568 H 792.035 3.53217 -1.18611 0
M  V30 7569 H 792.148 3.6829 -3.0643 0
M  V30 7570 H 790.512 2.01839 -1.55349 0
M  V30 7571 H 791.295 1.43369 -3.1193 0
M  V30 7572 N 793.74 1.17359 1.05189 0
M  V30 7573 C 795.151 0.96793 1.5965 0
M  V30 7574 C 795.502 -0.485355 1.90102 0
M  V30 7575 O 794.627 -1.36066 1.6827 0
M  V30 7576 C 795.222 1.75068 2.90063 0
M  V30 7577 C 793.781 1.58969 3.41183 0
M  V30 7578 C 792.928 1.75231 2.14917 0
M  V30 7579 H 795.879 1.32067 0.880001 0
M  V30 7580 H 795.9 1.23308 3.59966 0
M  V30 7581 H 795.412 2.80835 2.67868 0
M  V30 7582 H 793.513 0.556906 3.68415 0
M  V30 7583 H 793.626 2.38067 4.15766 0
M  V30 7584 H 791.99 1.18073 2.25679 0
M  V30 7585 H 792.773 2.8241 1.95191 0
M  V30 7586 N 795.218 -1.23913 0.973828 0
M  V30 7587 C 796.629 -1.73992 0.677021 0
M  V30 7588 C 796.98 -1.78833 -0.807036 0
M  V30 7589 O 796.105 -1.42183 -1.63135 0
M  V30 7590 C 796.7 -3.15985 1.22226 0
M  V30 7591 C 795.259 -3.63547 0.975228 0
M  V30 7592 C 794.406 -2.42001 1.35392 0
M  V30 7593 H 797.357 -1.09529 1.14844 0
M  V30 7594 H 797.378 -3.75875 0.591489 0
M  V30 7595 H 796.89 -3.12429 2.30238 0
M  V30 7596 H 794.991 -3.72493 -0.0891047 0
M  V30 7597 H 795.104 -4.50693 1.62518 0
M  V30 7598 H 793.468 -2.42708 0.772334 0
M  V30 7599 H 794.251 -2.41122 2.44367 0
M  V30 7600 N 796.696 -0.74468 -1.38897 0
M  V30 7601 C 797.646 -0.0869375 -2.27834 0
M  V30 7602 C 798.63 0.702553 -1.44751 0
M  V30 7603 O 799.822 0.569972 -1.67572 0
M  V30 7604 C 796.951 0.812232 -3.33553 0
M  V30 7605 C 796.037 0.0163713 -4.24097 0
M  V30 7606 N 796.428 -1.01547 -4.95502 0
M  V30 7607 C 794.726 0.244554 -4.45329 0
M  V30 7608 C 795.427 -1.49622 -5.62128 0
M  V30 7609 N 794.403 -0.813097 -5.37485 0
M  V30 7610 H 798.205 -0.877345 -2.80499 0
M  V30 7611 H 795.719 -0.579898 -1.51694 0
M  V30 7612 H 797.716 1.299 -3.96146 0
M  V30 7613 H 796.376 1.60169 -2.82446 0
M  V30 7614 H 797.387 -1.39707 -4.98701 0
M  V30 7615 H 794.064 1.00806 -4.05147 0
M  V30 7616 H 795.454 -2.35523 -6.29268 0
M  V30 7617 N 798.174 1.49689 -0.493057 0
M  V30 7618 C 799.106 2.26867 0.326195 0
M  V30 7619 C 800.119 1.33083 0.937697 0
M  V30 7620 O 801.308 1.58427 0.822382 0
M  V30 7621 C 798.408 3.0519 1.4735 0
M  V30 7622 C 797.581 4.26491 0.970767 0
M  V30 7623 C 796.64 4.86926 1.99473 0
M  V30 7624 O 795.666 5.47221 1.56647 0
M  V30 7625 N 796.868 4.75871 3.32456 0
M  V30 7626 H 799.633 2.97816 -0.335547 0
M  V30 7627 H 797.194 1.58602 -0.325129 0
M  V30 7628 H 799.186 3.42496 2.15589 0
M  V30 7629 H 797.756 2.369 2.03954 0
M  V30 7630 H 796.976 3.94036 0.113529 0
M  V30 7631 H 798.264 5.05092 0.613156 0
M  V30 7632 H 797.662 4.2797 3.69944 0
M  V30 7633 H 796.219 5.17383 3.96431 0
M  V30 7634 N 799.652 0.226554 1.55963 0
M  V30 7635 C 800.882 -0.407915 2.02533 0
M  V30 7636 C 801.29 -1.53539 1.10554 0
M  V30 7637 O 800.633 -1.8338 0.108409 0
M  V30 7638 C 800.695 -0.996081 3.45425 0
M  V30 7639 C 800.359 -0.00341651 4.57 0
M  V30 7640 C 801.356 0.798782 5.13727 0
M  V30 7641 C 799.041 0.116786 5.02164 0
M  V30 7642 C 801.035 1.70784 6.14094 0
M  V30 7643 C 798.722 1.02937 6.02368 0
M  V30 7644 C 799.72 1.82344 6.5821 0
M  V30 7645 O 799.408 2.72067 7.56462 0
M  V30 7646 H 799.14 -0.103524 0.668026 0
M  V30 7647 H 801.694 0.341937 2.02534 0
M  V30 7648 H 799.924 -1.79512 3.42509 0
M  V30 7649 H 801.613 -1.53848 3.75614 0
M  V30 7650 H 802.379 0.716393 4.7968 0
M  V30 7651 H 798.258 -0.491172 4.58376 0
M  V30 7652 H 801.802 2.32807 6.57607 0
M  V30 7653 H 797.699 1.11276 6.35836 0
M  V30 7654 H 798.467 2.66199 7.74003 0
M  V30 7655 N 801.13 -1.57531 -0.0467866 0
M  V30 7656 C 802.541 -1.76945 -0.595603 0
M  V30 7657 C 802.892 -0.855354 -1.76573 0
M  V30 7658 O 802.017 -0.045668 -2.16352 0
M  V30 7659 C 802.612 -3.20881 -1.08725 0
M  V30 7660 C 801.171 -3.41553 -1.58172 0
M  V30 7661 C 800.318 -2.72533 -0.511968 0
M  V30 7662 H 803.269 -1.57682 0.179436 0
M  V30 7663 H 803.29 -3.26419 -1.95528 0
M  V30 7664 H 802.802 -3.87385 -0.235398 0
M  V30 7665 H 800.903 -2.80199 -2.456 0
M  V30 7666 H 801.016 -4.50104 -1.64143 0
M  V30 7667 H 799.38 -2.35797 -0.962899 0
M  V30 7668 H 800.163 -3.41709 0.330117 0
M  V30 7669 N 802.608 0.318715 -1.54344 0
M  V30 7670 C 804.019 0.89285 -1.63967 0
M  V30 7671 C 804.37 1.88712 -0.536855 0
M  V30 7672 O 803.495 2.13877 0.329457 0
M  V30 7673 C 804.09 1.62618 -2.97222 0
M  V30 7674 C 802.649 2.14897 -3.09025 0
M  V30 7675 C 801.796 0.975909 -2.5956 0
M  V30 7676 H 804.747 0.0961687 -1.58408 0
M  V30 7677 H 804.768 2.4907 -2.87653 0
M  V30 7678 H 804.28 0.902286 -3.77466 0
M  V30 7679 H 802.381 2.90387 -2.33465 0
M  V30 7680 H 802.494 2.39565 -4.14904 0
M  V30 7681 H 800.858 1.35646 -2.15574 0
M  V30 7682 H 801.641 0.266253 -3.42266 0
M  V30 7683 N 804.086 1.46499 0.581025 0
M  V30 7684 C 805.018 1.53225 1.70455 0
M  V30 7685 C 806.031 0.420443 1.57277 0
M  V30 7686 O 807.22 0.688888 1.64671 0
M  V30 7687 C 804.32 1.39803 3.08721 0
M  V30 7688 C 803.493 2.65132 3.47884 0
M  V30 7689 C 802.552 2.45886 4.65217 0
M  V30 7690 O 801.578 3.19615 4.70993 0
M  V30 7691 N 802.78 1.5216 5.60203 0
M  V30 7692 H 805.545 2.50098 1.65139 0
M  V30 7693 H 803.106 1.42576 0.76705 0
M  V30 7694 H 805.098 1.24697 3.8501 0
M  V30 7695 H 803.668 0.51104 3.08394 0
M  V30 7696 H 802.888 2.95169 2.61284 0
M  V30 7697 H 804.176 3.48385 3.70817 0
M  V30 7698 H 803.574 0.913646 5.58273 0
M  V30 7699 H 802.131 1.43017 6.35916 0
M  V30 7700 N 805.565 -0.825799 1.34232 0
M  V30 7701 C 806.813 -1.57873 1.26177 0
M  V30 7702 C 807.134 -1.94267 -0.168904 0
M  V30 7703 O 806.404 -1.62045 -1.10084 0
M  V30 7704 H 804.984 -0.585388 0.464037 0
M  V30 7705 H 807.646 -0.986163 1.6811 0
M  V30 7706 H 806.742 -2.50283 1.86453 0
M  V30 7707 N 807.043 -1.17915 -1.04565 0
M  V30 7708 C 808.289 -0.982872 -1.78076 0
M  V30 7709 C 808.644 0.482843 -1.86243 0
M  V30 7710 O 807.937 1.35383 -1.3558 0
M  V30 7711 C 808.131 -1.56528 -3.213 0
M  V30 7712 C 807.96 -3.0861 -3.27093 0
M  V30 7713 C 806.73 -3.77389 -3.36014 0
M  V30 7714 C 808.928 -4.06146 -3.15515 0
M  V30 7715 N 806.91 -5.1702 -3.31004 0
M  V30 7716 C 808.281 -5.32268 -3.17948 0
M  V30 7717 C 810.336 -3.97732 -2.99522 0
M  V30 7718 C 809.039 -6.50951 -3.06031 0
M  V30 7719 C 811.065 -5.16007 -2.88948 0
M  V30 7720 C 810.427 -6.41018 -2.9202 0
M  V30 7721 H 806.526 -0.413617 -0.66366 0
M  V30 7722 H 809.11 -1.49607 -1.24603 0
M  V30 7723 H 807.281 -1.07833 -3.73131 0
M  V30 7724 H 809.013 -1.30501 -3.83082 0
M  V30 7725 H 805.768 -3.28098 -3.41538 0
M  V30 7726 H 806.192 -5.90031 -3.31952 0
M  V30 7727 H 810.834 -3.01919 -2.95981 0
M  V30 7728 H 808.552 -7.46968 -3.08326 0
M  V30 7729 H 812.138 -5.11283 -2.77635 0
M  V30 7730 H 811.018 -7.30999 -2.83919 0
M  V30 7731 N 808.521 1.23394 -0.980386 0
M  V30 7732 C 809.769 1.91431 -0.647978 0
M  V30 7733 C 810.09 1.76871 0.821066 0
M  V30 7734 O 809.36 1.14808 1.58732 0
M  V30 7735 H 807.94 0.708516 -0.236673 0
M  V30 7736 H 810.602 1.50019 -1.2442 0
M  V30 7737 H 809.698 2.98854 -0.899592 0
M  V30 7738 N 809.999 0.752036 1.385 0
M  V30 7739 C 810.947 0.112634 2.32327 0
M  V30 7740 C 811.941 -0.707037 1.53939 0
M  V30 7741 O 813.147 -0.606309 1.69481 0
M  V30 7742 H 809.522 0.0176275 0.751793 0
M  V30 7743 H 811.493 0.920074 2.83861 0
M  V30 7744 C 810.242 -0.767458 3.39124 0
M  V30 7745 H 809.565 -0.146122 3.99533 0
M  V30 7746 H 811.005 -1.18216 4.07187 0
M  V30 7747 C 809.464 -1.90938 2.77568 0
M  V30 7748 O 809.994 -3.00342 2.66754 0
M  V30 7749 N 808.2 -1.70396 2.35401 0
M  V30 7750 H 807.747 -0.81413 2.44397 0
M  V30 7751 H 807.705 -2.46972 1.94557 0
M  V30 7752 N 811.477 -1.49425 0.500989 0
M  V30 7753 C 812.705 -2.06861 -0.0403443 0
M  V30 7754 C 813.12 -1.36132 -1.30819 0
M  V30 7755 O 812.477 -0.439647 -1.77125 0
M  V30 7756 C 812.528 -3.6027 -0.297902 0
M  V30 7757 O 812.249 -4.28338 0.919686 0
M  V30 7758 C 813.75 -4.34419 -0.882876 0
M  V30 7759 H 810.97 -0.670688 0.0204619 0
M  V30 7760 H 813.514 -1.92207 0.698342 0
M  V30 7761 H 811.669 -3.74627 -0.98657 0
M  V30 7762 H 812.083 -5.2004 0.682528 0
M  V30 7763 H 813.557 -5.42631 -1.01268 0
M  V30 7764 H 814.034 -3.96898 -1.88066 0
M  V30 7765 H 814.64 -4.24669 -0.231677 0
M  V30 7766 N 812.955 -0.234822 -1.55841 0
M  V30 7767 C 814.185 0.397168 -2.02746 0
M  V30 7768 C 814.593 1.52951 -1.11367 0
M  V30 7769 O 813.936 1.8332 -0.118133 0
M  V30 7770 C 813.998 0.977748 -3.45948 0
M  V30 7771 C 813.662 -0.0208193 -4.56995 0
M  V30 7772 C 814.659 -0.826015 -5.13296 0
M  V30 7773 C 812.344 -0.143416 -5.02095 0
M  V30 7774 C 814.338 -1.74038 -6.1318 0
M  V30 7775 C 812.025 -1.0613 -6.01814 0
M  V30 7776 C 813.023 -1.85832 -6.57233 0
M  V30 7777 O 812.711 -2.76075 -7.55008 0
M  V30 7778 H 812.443 0.0999802 -0.668566 0
M  V30 7779 H 814.997 -0.352673 -2.0235 0
M  V30 7780 H 813.227 1.77693 -3.43456 0
M  V30 7781 H 814.916 1.51854 -3.76424 0
M  V30 7782 H 815.682 -0.741822 -4.79293 0
M  V30 7783 H 811.561 0.466857 -4.5863 0
M  V30 7784 H 815.105 -2.36291 -6.56363 0
M  V30 7785 H 811.002 -1.14646 -6.35237 0
M  V30 7786 H 811.77 -2.703 -7.7258 0
M  V30 7787 N 814.433 1.57553 0.0384317 0
M  V30 7788 C 815.844 1.77258 0.586211 0
M  V30 7789 C 816.195 0.864706 1.76117 0
M  V30 7790 O 815.32 0.057141 2.16325 0
M  V30 7791 C 815.915 3.21453 1.07021 0
M  V30 7792 C 814.474 3.42387 1.56358 0
M  V30 7793 C 813.621 2.72801 0.497508 0
M  V30 7794 H 816.572 1.57585 -0.187796 0
M  V30 7795 H 816.593 3.27451 1.93794 0
M  V30 7796 H 816.105 3.87505 0.214851 0
M  V30 7797 H 814.206 2.81497 2.44111 0
M  V30 7798 H 814.319 4.50968 1.61754 0
M  V30 7799 H 812.683 2.36305 0.95038 0
M  V30 7800 H 813.466 3.41529 -0.348234 0
M  V30 7801 N 815.911 -0.310526 1.54511 0
M  V30 7802 C 816.843 -1.40405 1.8116 0
M  V30 7803 C 817.856 -1.47261 0.694114 0
M  V30 7804 O 819.045 -1.49751 0.971441 0
M  V30 7805 C 816.145 -2.78849 1.92604 0
M  V30 7806 C 815.318 -2.95041 3.22908 0
M  V30 7807 C 814.377 -4.13925 3.24889 0
M  V30 7808 O 813.403 -4.06463 3.98467 0
M  V30 7809 N 814.605 -5.24099 2.496 0
M  V30 7810 H 817.37 -1.17903 2.75534 0
M  V30 7811 H 814.931 -0.500564 1.53967 0
M  V30 7812 H 816.923 -3.5661 1.91342 0
M  V30 7813 H 815.493 -2.94342 1.05268 0
M  V30 7814 H 814.713 -2.04472 3.37023 0
M  V30 7815 H 816.001 -3.02763 4.08916 0
M  V30 7816 H 815.399 -5.33039 1.89435 0
M  V30 7817 H 813.956 -6.0023 2.54102 0
M  V30 7818 N 817.389 -1.46805 -0.573248 0
M  V30 7819 C 818.635 -1.53816 -1.33088 0
M  V30 7820 C 818.99 -0.191162 -1.91448 0
M  V30 7821 O 818.283 0.801299 -1.7404 0
M  V30 7822 C 818.477 -2.58001 -2.47326 0
M  V30 7823 C 818.306 -4.027 -2.00157 0
M  V30 7824 C 817.076 -4.70319 -1.84737 0
M  V30 7825 C 819.274 -4.90211 -1.55557 0
M  V30 7826 N 817.256 -5.99598 -1.31739 0
M  V30 7827 C 818.627 -6.09389 -1.14215 0
M  V30 7828 C 820.682 -4.76784 -1.43461 0
M  V30 7829 C 819.385 -7.16625 -0.619809 0
M  V30 7830 C 821.411 -5.84101 -0.926297 0
M  V30 7831 C 820.773 -7.02458 -0.522715 0
M  V30 7832 H 816.872 -0.617642 -0.479627 0
M  V30 7833 H 819.456 -1.83471 -0.65164 0
M  V30 7834 H 817.627 -2.3024 -3.128 0
M  V30 7835 H 819.359 -2.54951 -3.14296 0
M  V30 7836 H 816.114 -4.25982 -2.06969 0
M  V30 7837 H 816.538 -6.68431 -1.07374 0
M  V30 7838 H 821.18 -3.85661 -1.73279 0
M  V30 7839 H 818.898 -8.07508 -0.309228 0
M  V30 7840 H 822.484 -5.75755 -0.836485 0
M  V30 7841 H 821.364 -7.84083 -0.135467 0
M  V30 7842 N 818.867 0.818669 -1.34668 0
M  V30 7843 C 819.799 1.93754 -1.22442 0
M  V30 7844 C 820.812 1.62103 -0.150501 0
M  V30 7845 O 822.001 1.73898 -0.402728 0
M  V30 7846 C 819.101 3.27806 -0.860031 0
M  V30 7847 C 818.274 3.8745 -2.02981 0
M  V30 7848 C 817.333 4.99887 -1.64314 0
M  V30 7849 O 816.359 5.17957 -2.36029 0
M  V30 7850 N 817.561 5.77795 -0.55976 0
M  V30 7851 H 820.326 2.04773 -2.18833 0
M  V30 7852 H 817.887 0.995472 -1.27679 0
M  V30 7853 H 819.879 4.00478 -0.583068 0
M  V30 7854 H 818.449 3.12597 0.0138253 0
M  V30 7855 H 817.669 3.07119 -2.47127 0
M  V30 7856 H 818.957 4.2403 -2.81204 0
M  V30 7857 H 818.355 5.65688 0.0363329 0
M  V30 7858 H 816.912 6.50899 -0.342541 0
M  V30 7859 N 820.346 1.18468 1.03938 0
M  V30 7860 C 821.757 0.984808 1.58614 0
M  V30 7861 C 822.108 -0.465165 1.90606 0
M  V30 7862 O 821.233 -1.34274 1.69704 0
M  V30 7863 C 821.828 1.78135 2.8819 0
M  V30 7864 C 820.387 1.62579 3.39478 0
M  V30 7865 C 819.534 1.77501 2.13046 0
M  V30 7866 H 822.485 1.32993 0.865944 0
M  V30 7867 H 822.506 1.27119 3.58638 0
M  V30 7868 H 822.018 2.83661 2.64874 0
M  V30 7869 H 820.119 0.59595 3.67803 0
M  V30 7870 H 820.232 2.42463 4.13217 0
M  V30 7871 H 818.596 1.2046 2.24414 0
M  V30 7872 H 819.379 2.84464 1.92185 0
M  V30 7873 N 821.824 -1.22873 0.986916 0
M  V30 7874 C 823.235 -1.73264 0.695438 0
M  V30 7875 C 823.586 -1.79679 -0.788023 0
M  V30 7876 O 822.711 -1.43905 -1.61618 0
M  V30 7877 C 823.306 -3.14671 1.2557 0
M  V30 7878 C 821.865 -3.62492 1.01373 0
M  V30 7879 C 821.012 -2.40551 1.37951 0
M  V30 7880 H 823.963 -1.08304 1.15999 0
M  V30 7881 H 823.984 -3.75226 0.631322 0
M  V30 7882 H 823.496 -3.0997 2.33539 0
M  V30 7883 H 821.597 -3.72567 -0.0495917 0
M  V30 7884 H 821.71 -4.48944 1.67289 0
M  V30 7885 H 820.074 -2.41875 0.798033 0
M  V30 7886 H 820.857 -2.38516 2.46911 0
M  V30 7887 N 823.302 -0.75937 -1.38099 0
M  V30 7888 C 824.265 -0.14372 -2.28749 0
M  V30 7889 C 825.265 0.641338 -1.47457 0
M  V30 7890 O 826.455 0.466751 -1.67831 0
M  V30 7891 C 823.587 0.804545 -3.3127 0
M  V30 7892 H 824.78 -0.942663 -2.847 0
M  V30 7893 H 822.333 -0.526757 -1.47156 0
M  V30 7894 H 823.068 1.62895 -2.80421 0
M  V30 7895 H 822.853 0.243939 -3.9134 0
M  V30 7896 H 824.343 1.23111 -3.99041 0
M  V30 7897 N 824.78 1.49157 -0.508906 0
M  V30 7898 C 826.191 1.86593 -0.0630975 0
M  V30 7899 C 826.542 1.42051 1.35337 0
M  V30 7900 O 825.667 0.801866 2.00995 0
M  V30 7901 C 826.262 3.38629 -0.107729 0
M  V30 7902 C 824.821 3.75336 0.282776 0
M  V30 7903 C 823.968 2.7317 -0.4768 0
M  V30 7904 H 826.919 1.41362 -0.72128 0
M  V30 7905 H 826.94 3.74271 0.685689 0
M  V30 7906 H 826.452 3.71017 -1.13876 0
M  V30 7907 H 824.553 3.48558 1.31675 0
M  V30 7908 H 824.666 4.79081 -0.0421728 0
M  V30 7909 H 823.03 2.54591 0.0743552 0
M  V30 7910 H 823.813 3.08403 -1.50807 0
M  V30 7911 N 826.258 0.243083 1.55714 0
M  V30 7912 C 827.208 -0.671915 2.17875 0
M  V30 7913 C 828.192 -1.14199 1.13347 0
M  V30 7914 O 829.384 -1.09239 1.39269 0
M  V30 7915 C 826.513 -1.87027 2.87881 0
M  V30 7916 C 825.599 -1.41888 3.99661 0
M  V30 7917 N 825.99 -0.681465 5.01188 0
M  V30 7918 C 824.288 -1.70447 4.12145 0
M  V30 7919 C 824.989 -0.448285 5.7997 0
M  V30 7920 N 823.965 -1.01137 5.34109 0
M  V30 7921 H 827.767 -0.100321 2.93729 0
M  V30 7922 H 825.281 0.0452371 1.62337 0
M  V30 7923 H 827.278 -2.53674 3.3084 0
M  V30 7924 H 825.938 -2.44613 2.13529 0
M  V30 7925 H 826.949 -0.331959 5.16835 0
M  V30 7926 H 823.626 -2.29198 3.48962 0
M  V30 7927 H 825.016 0.140141 6.71754 0
M  V30 7928 N 827.736 -1.57571 -0.0300757 0
M  V30 7929 C 829.013 -1.80381 -0.756447 0
M  V30 7930 C 829.393 -0.840906 -1.93628 0
M  V30 7931 O 828.741 0.117143 -2.282 0
M  V30 7932 C 828.951 -3.2807 -1.19043 0
M  V30 7933 C 830.299 -3.93025 -1.60676 0
M  V30 7934 O 831.323 -3.32213 -1.28503 0
M  V30 7935 O 830.182 -5.00092 -2.20386 0
M  V30 7936 H 827.276 -0.741737 -0.365725 0
M  V30 7937 H 829.822 -1.69699 -0.00693177 0
M  V30 7938 H 828.594 -3.89748 -0.348128 0
M  V30 7939 H 828.217 -3.43637 -1.99999 0
M  V30 7940 N 829.214 0.302327 -1.54673 0
M  V30 7941 C 830.625 0.875409 -1.64904 0
M  V30 7942 C 830.976 1.88132 -0.55684 0
M  V30 7943 O 830.101 2.14215 0.306754 0
M  V30 7944 C 830.696 1.59457 -2.9893 0
M  V30 7945 C 829.255 2.11607 -3.11287 0
M  V30 7946 C 828.402 0.948324 -2.6058 0
M  V30 7947 H 831.353 0.079362 -1.58501 0
M  V30 7948 H 831.374 2.46005 -2.90279 0
M  V30 7949 H 830.886 0.8622 -3.78402 0
M  V30 7950 H 828.987 2.87895 -2.36532 0
M  V30 7951 H 829.1 2.35151 -4.17422 0
M  V30 7952 H 827.464 1.33352 -2.17001 0
M  V30 7953 H 828.247 0.229936 -3.42529 0
M  V30 7954 N 830.692 1.47107 0.565454 0
M  V30 7955 C 831.917 1.57153 1.35343 0
M  V30 7956 C 832.342 0.219247 1.86818 0
M  V30 7957 O 831.7 -0.803539 1.62521 0
M  V30 7958 C 831.748 2.59387 2.50501 0
M  V30 7959 O 830.852 2.14086 3.52478 0
M  V30 7960 H 830.193 0.528209 0.402357 0
M  V30 7961 H 832.723 1.92821 0.684189 0
M  V30 7962 H 832.733 2.79546 2.97184 0
M  V30 7963 H 831.408 3.57579 2.12391 0
M  V30 7964 H 829.985 2.03991 3.12157 0
M  V30 7965 N 832.17 -0.811516 1.35101 0
M  V30 7966 C 833.117 -1.92308 1.27617 0
M  V30 7967 C 834.087 -1.6543 0.149091 0
M  V30 7968 O 835.272 -1.8789 0.331974 0
M  V30 7969 C 832.412 -3.28768 1.04908 0
M  V30 7970 C 831.525 -3.67865 2.26493 0
M  V30 7971 C 830.66 -4.9333 1.96974 0
M  V30 7972 C 829.699 -5.25041 3.1464 0
M  V30 7973 N 828.836 -6.41685 2.84929 0
M  V30 7974 H 833.676 -1.98041 2.22674 0
M  V30 7975 H 831.213 -0.968755 1.10696 0
M  V30 7976 H 833.171 -4.07426 0.897749 0
M  V30 7977 H 831.801 -3.22517 0.135151 0
M  V30 7978 H 830.853 -2.84507 2.52507 0
M  V30 7979 H 832.165 -3.87263 3.14371 0
M  V30 7980 H 831.319 -5.79803 1.78643 0
M  V30 7981 H 830.058 -4.75958 1.06374 0
M  V30 7982 H 829.063 -4.3706 3.33554 0
M  V30 7983 H 830.288 -5.44346 4.06035 0
M  V30 7984 H 828.234 -6.25747 1.96918 0
M  V30 7985 H 828.151 -6.6131 3.66341 0
M  V30 7986 H 829.419 -7.31198 2.70128 0
M  V30 7987 N 833.648 -1.19017 -1.03309 0
M  V30 7988 C 834.611 -0.926076 -2.09658 0
M  V30 7989 C 835.611 0.0917077 -1.60538 0
M  V30 7990 O 836.801 -0.142574 -1.73616 0
M  V30 7991 C 833.933 -0.390958 -3.38651 0
M  V30 7992 H 835.126 -1.86923 -2.3452 0
M  V30 7993 H 832.679 -1.00325 -1.19853 0
M  V30 7994 H 833.414 0.558446 -3.19456 0
M  V30 7995 H 833.199 -1.12474 -3.75622 0
M  V30 7996 H 834.689 -0.225131 -4.16993 0
M  V30 7997 N 835.127 1.22348 -0.993418 0
M  V30 7998 C 836.09 2.22522 -0.549251 0
M  V30 7999 C 837.09 1.56529 0.368164 0
M  V30 8000 O 838.28 1.73463 0.16005 0
M  V30 8001 C 835.412 3.40307 0.201037 0
M  V30 8002 H 836.605 2.63332 -1.43515 0
M  V30 8003 H 834.158 1.35407 -0.78068 0
M  V30 8004 H 834.893 3.0497 1.10289 0
M  V30 8005 H 834.678 3.8942 -0.457685 0
M  V30 8006 H 836.168 4.14597 0.499946 0
M  V30 8007 N 836.605 0.766683 1.37694 0
M  V30 8008 C 837.568 0.155849 2.2867 0
M  V30 8009 C 838.568 -0.633509 1.47795 0
M  V30 8010 O 839.758 -0.457844 1.68076 0
M  V30 8011 C 836.89 -0.786965 3.31692 0
M  V30 8012 H 838.083 0.957748 2.84196 0
M  V30 8013 H 835.636 0.534554 1.46875 0
M  V30 8014 H 836.371 -1.61406 2.8128 0
M  V30 8015 H 836.156 -0.223182 3.91464 0
M  V30 8016 H 837.646 -1.20994 3.99688 0
M  V30 8017 N 838.083 -1.48885 0.516809 0
M  V30 8018 C 839.046 -2.27916 -0.242256 0
M  V30 8019 C 840.046 -1.34601 -0.879735 0
M  V30 8020 O 841.236 -1.57616 -0.74182 0
M  V30 8021 C 838.368 -3.13067 -1.34914 0
M  V30 8022 H 839.561 -2.96483 0.451444 0
M  V30 8023 H 837.114 -1.5391 0.272294 0
M  V30 8024 H 837.849 -2.49102 -2.07651 0
M  V30 8025 H 837.634 -3.81695 -0.897313 0
M  V30 8026 H 839.124 -3.72716 -1.88341 0
M  V30 8027 N 839.561 -0.251338 -1.55583 0
M  V30 8028 C 840.524 0.63305 -2.20284 0
M  V30 8029 C 841.524 1.09941 -1.17344 0
M  V30 8030 O 842.714 1.00341 -1.42399 0
M  V30 8031 C 839.846 1.8706 -2.84993 0
M  V30 8032 H 841.039 0.0684846 -2.99822 0
M  V30 8033 H 838.592 -0.00181653 -1.563 0
M  V30 8034 H 839.327 2.47629 -2.09405 0
M  V30 8035 H 839.112 1.54436 -3.60405 0
M  V30 8036 H 840.602 2.50004 -3.34496 0
M  V30 8037 N 841.039 1.57585 0.0217189 0
M  V30 8038 C 842.002 2.06004 1.00474 0
M  V30 8039 C 843.002 0.965461 1.2859 0
M  V30 8040 O 844.192 1.22884 1.23471 0
M  V30 8041 C 841.324 2.48319 2.33561 0
M  V30 8042 H 842.517 2.94112 0.586346 0
M  V30 8043 H 840.07 1.53973 0.268716 0
M  V30 8044 H 840.805 1.63389 2.80133 0
M  V30 8045 H 840.59 3.28239 2.1448 0
M  V30 8046 H 842.08 2.86181 3.04122 0
M  V30 8047 N 842.517 -0.29412 1.54831 0
M  V30 8048 C 843.794 -1.04847 1.65126 0
M  V30 8049 C 844.174 -2.04996 0.503986 0
M  V30 8050 O 843.522 -2.22996 -0.498496 0
M  V30 8051 C 843.732 -1.72418 3.03435 0
M  V30 8052 C 845.08 -2.24362 3.60481 0
M  V30 8053 O 846.104 -1.8244 3.05932 0
M  V30 8054 O 844.963 -3.01196 4.56008 0
M  V30 8055 H 842.057 -0.485032 0.669831 0
M  V30 8056 H 844.603 -0.291659 1.67175 0
M  V30 8057 H 843.375 -0.997351 3.78376 0
M  V30 8058 H 842.998 -2.54839 3.05193 0
M  V30 8059 N 843.995 -1.47404 -0.557645 0
M  V30 8060 C 845.406 -1.47872 -1.13977 0
M  V30 8061 C 845.757 -0.233176 -1.94809 0
M  V30 8062 O 844.882 0.661945 -2.06027 0
M  V30 8063 C 845.477 -2.67926 -2.07368 0
M  V30 8064 C 844.036 -2.71354 -2.60852 0
M  V30 8065 C 843.183 -2.40967 -1.37223 0
M  V30 8066 H 846.134 -1.54921 -0.344268 0
M  V30 8067 H 846.155 -2.44871 -2.91236 0
M  V30 8068 H 845.667 -3.58562 -1.48509 0
M  V30 8069 H 843.768 -1.84855 -3.23511 0
M  V30 8070 H 843.881 -3.72032 -3.01876 0
M  V30 8071 H 842.245 -1.91541 -1.67882 0
M  V30 8072 H 843.028 -3.33811 -0.801583 0
M  V30 8073 N 845.473 0.80434 -1.35529 0
M  V30 8074 C 846.421 1.93769 -1.28671 0
M  V30 8075 C 847.415 1.68428 -0.181222 0
M  V30 8076 O 848.621 1.76617 -0.347338 0
M  V30 8077 H 844.996 0.636663 -0.400206 0
M  V30 8078 H 846.967 1.96673 -2.24415 0
M  V30 8079 C 845.716 3.30572 -1.07784 0
M  V30 8080 H 845.039 3.5063 -1.9209 0
M  V30 8081 H 846.479 4.1027 -1.07027 0
M  V30 8082 C 844.938 3.36193 0.218213 0
M  V30 8083 O 845.468 3.82941 1.21323 0
M  V30 8084 N 843.674 2.89455 0.257761 0
M  V30 8085 H 843.221 2.51604 -0.552562 0
M  V30 8086 H 843.179 2.93597 1.12465 0
M  V30 8087 N 846.951 1.19563 1.02676 0
M  V30 8088 C 847.914 0.937182 2.09164 0
M  V30 8089 C 848.914 -0.0831927 1.60585 0
M  V30 8090 O 850.104 0.15178 1.73538 0
M  V30 8091 C 847.236 0.408912 3.38439 0
M  V30 8092 H 848.429 1.88164 2.33526 0
M  V30 8093 H 845.982 1.00959 1.19319 0
M  V30 8094 H 846.717 -0.541497 3.19747 0
M  V30 8095 H 846.502 1.14464 3.7502 0
M  V30 8096 H 847.992 0.247242 4.16867 0
M  V30 8097 N 848.429 -1.21819 0.999893 0
M  V30 8098 C 849.392 -2.22227 0.561044 0
M  V30 8099 C 850.392 -1.56722 -0.359858 0
M  V30 8100 O 851.582 -1.73546 -0.150848 0
M  V30 8101 C 848.714 -3.40409 -0.182987 0
M  V30 8102 H 849.907 -2.62567 1.44909 0
M  V30 8103 H 847.46 -1.34991 0.78785 0
M  V30 8104 H 848.195 -3.05551 -1.08671 0
M  V30 8105 H 847.98 -3.89171 0.47833 0
M  V30 8106 H 849.47 -4.14856 -0.477952 0
M  V30 8107 N 849.908 -0.773975 -1.37286 0
M  V30 8108 C 851.154 -0.348833 -2.00386 0
M  V30 8109 C 851.509 1.06347 -1.60337 0
M  V30 8110 O 850.802 1.72178 -0.840545 0
M  V30 8111 C 850.996 -0.432651 -3.54772 0
M  V30 8112 C 850.825 -1.85155 -4.09814 0
M  V30 8113 C 849.595 -2.47272 -4.40664 0
M  V30 8114 C 851.793 -2.8114 -4.30656 0
M  V30 8115 N 849.775 -3.80912 -4.81435 0
M  V30 8116 C 851.146 -3.99582 -4.74061 0
M  V30 8117 C 853.201 -2.78398 -4.12794 0
M  V30 8118 C 851.904 -5.1567 -5.01475 0
M  V30 8119 C 853.93 -3.9366 -4.41345 0
M  V30 8120 C 853.292 -5.10844 -4.84992 0
M  V30 8121 H 849.391 -0.174738 -0.762227 0
M  V30 8122 H 851.975 -1.00828 -1.66559 0
M  V30 8123 H 850.146 0.19663 -3.87902 0
M  V30 8124 H 851.878 0.0147601 -4.04697 0
M  V30 8125 H 848.633 -1.98872 -4.29822 0
M  V30 8126 H 849.057 -4.49628 -5.06126 0
M  V30 8127 H 853.699 -1.8897 -3.7822 0
M  V30 8128 H 851.417 -6.05696 -5.34938 0
M  V30 8129 H 855.003 -3.92882 -4.2911 0
M  V30 8130 H 853.883 -5.98553 -5.0666 0
M  V30 8131 N 851.386 1.48609 -0.524698 0
M  V30 8132 C 852.349 2.28041 0.230166 0
M  V30 8133 C 853.349 1.35065 0.872584 0
M  V30 8134 O 854.539 1.58007 0.73345 0
M  V30 8135 C 851.671 3.13778 1.33252 0
M  V30 8136 H 852.864 2.96239 -0.467161 0
M  V30 8137 H 850.417 1.53763 -0.280452 0
M  V30 8138 H 851.152 2.502 2.06327 0
M  V30 8139 H 850.937 3.82165 0.877058 0
M  V30 8140 H 852.427 3.7371 1.86362 0
M  V30 8141 N 852.864 0.259585 1.55447 0
M  V30 8142 C 853.827 -0.621359 2.20617 0
M  V30 8143 C 854.827 -1.09317 1.17925 0
M  V30 8144 O 856.017 -0.995842 1.42929 0
M  V30 8145 C 853.149 -1.85546 2.85982 0
M  V30 8146 H 854.342 -0.0525833 2.99854 0
M  V30 8147 H 851.895 0.0101055 1.56297 0
M  V30 8148 H 852.63 -2.46515 2.10715 0
M  V30 8149 H 852.415 -1.52523 3.61219 0
M  V30 8150 H 853.905 -2.48227 3.35817 0
M  V30 8151 N 854.342 -1.57594 -0.0133615 0
M  V30 8152 C 855.572 -1.93969 -0.711295 0
M  V30 8153 C 855.98 -0.859084 -1.68572 0
M  V30 8154 O 855.323 0.171842 -1.82894 0
M  V30 8155 C 855.385 -3.2625 -1.51001 0
M  V30 8156 C 855.049 -4.51628 -0.698645 0
M  V30 8157 C 856.046 -5.19899 0.00791185 0
M  V30 8158 C 853.731 -4.98095 -0.648553 0
M  V30 8159 C 855.725 -6.32928 0.753691 0
M  V30 8160 C 853.412 -6.11017 0.10096 0
M  V30 8161 C 854.41 -6.78289 0.800828 0
M  V30 8162 O 854.098 -7.89048 1.53814 0
M  V30 8163 H 853.83 -0.6445 -0.203951 0
M  V30 8164 H 856.384 -2.05378 0.0298267 0
M  V30 8165 H 854.614 -3.11211 -2.29531 0
M  V30 8166 H 856.303 -3.47835 -2.09202 0
M  V30 8167 H 857.069 -4.84995 -0.0217192 0
M  V30 8168 H 852.948 -4.45568 -1.18282 0
M  V30 8169 H 856.492 -6.85371 1.3005 0
M  V30 8170 H 852.389 -6.45364 0.132459 0
M  V30 8171 H 853.157 -8.05492 1.45345 0
M  V30 8172 N 855.82 0.285905 -1.54985 0
M  V30 8173 C 857.05 1.03626 -1.78732 0
M  V30 8174 C 857.458 1.80896 -0.554377 0
M  V30 8175 O 856.801 1.77161 0.48578 0
M  V30 8176 C 856.863 2.05185 -2.95193 0
M  V30 8177 C 856.527 1.46973 -4.32722 0
M  V30 8178 C 857.524 0.891986 -5.12191 0
M  V30 8179 C 855.209 1.50081 -4.79355 0
M  V30 8180 C 857.203 0.353078 -6.36421 0
M  V30 8181 C 854.89 0.958037 -6.03544 0
M  V30 8182 C 855.888 0.385157 -6.81913 0
M  V30 8183 O 855.576 -0.149341 -8.03761 0
M  V30 8184 H 855.308 0.312416 -0.599477 0
M  V30 8185 H 857.862 0.326067 -2.02795 0
M  V30 8186 H 856.092 2.79928 -2.66791 0
M  V30 8187 H 857.781 2.66244 -3.0638 0
M  V30 8188 H 858.547 0.860762 -4.77301 0
M  V30 8189 H 854.426 1.9361 -4.18373 0
M  V30 8190 H 857.97 -0.0947181 -6.97536 0
M  V30 8191 H 853.867 0.986458 -6.37918 0
M  V30 8192 H 854.635 -0.0374719 -8.18491 0
M  V30 8193 N 857.298 1.47698 0.54982 0
M  V30 8194 C 858.523 1.58579 1.33669 0
M  V30 8195 C 858.948 0.239049 1.86575 0
M  V30 8196 O 858.306 -0.786256 1.63364 0
M  V30 8197 C 858.354 2.62029 2.47736 0
M  V30 8198 O 857.458 2.17813 3.50188 0
M  V30 8199 H 856.799 0.532447 0.396732 0
M  V30 8200 H 859.329 1.93536 0.6637 0
M  V30 8201 H 859.339 2.82682 2.94202 0
M  V30 8202 H 858.014 3.59812 2.08586 0
M  V30 8203 H 856.591 2.07291 3.09976 0
M  V30 8204 N 858.776 -0.797141 1.35954 0
M  V30 8205 C 859.726 -1.89899 1.26184 0
M  V30 8206 C 860.71 -1.60152 0.155007 0
M  V30 8207 O 861.902 -1.72715 0.387108 0
M  V30 8208 C 859.031 -3.2699 1.04559 0
M  V30 8209 C 858.117 -3.62772 2.19675 0
M  V30 8210 N 858.508 -3.6992 3.44953 0
M  V30 8211 C 856.806 -3.92786 2.1127 0
M  V30 8212 C 857.507 -4.01718 4.20711 0
M  V30 8213 N 856.483 -4.16298 3.49567 0
M  V30 8214 H 860.285 -1.9364 2.2109 0
M  V30 8215 H 857.799 -0.992246 1.28562 0
M  V30 8216 H 859.796 -4.0578 0.956474 0
M  V30 8217 H 858.456 -3.24529 0.105467 0
M  V30 8218 H 859.467 -3.52759 3.79185 0
M  V30 8219 H 856.144 -3.98295 1.25168 0
M  V30 8220 H 857.534 -4.14237 5.29016 0
M  V30 8221 N 860.254 -1.20106 -1.0204 0
M  V30 8222 C 861.484 -1.0329 -1.78927 0
M  V30 8223 C 861.892 0.421115 -1.84454 0
M  V30 8224 O 861.235 1.30422 -1.29367 0
M  V30 8225 C 861.297 -1.53627 -3.25021 0
M  V30 8226 C 860.961 -3.01869 -3.4311 0
M  V30 8227 C 861.958 -3.9956 -3.32638 0
M  V30 8228 C 859.643 -3.40746 -3.6905 0
M  V30 8229 C 861.637 -5.34119 -3.47844 0
M  V30 8230 C 859.324 -4.75462 -3.839 0
M  V30 8231 C 860.322 -5.71957 -3.73302 0
M  V30 8232 O 860.01 -7.04231 -3.87703 0
M  V30 8233 H 859.742 -0.363962 -0.569656 0
M  V30 8234 H 862.296 -1.59551 -1.29354 0
M  V30 8235 H 860.526 -0.917481 -3.75658 0
M  V30 8236 H 862.215 -1.32889 -3.8353 0
M  V30 8237 H 862.981 -3.70869 -3.12539 0
M  V30 8238 H 858.86 -2.66182 -3.76388 0
M  V30 8239 H 862.404 -6.09421 -3.39488 0
M  V30 8240 H 858.301 -5.03844 -4.03499 0
M  V30 8241 H 859.069 -7.11425 -4.04744 0
M  V30 8242 N 861.732 1.21287 -1.00634 0
M  V30 8243 C 862.962 1.94103 -0.70765 0
M  V30 8244 C 863.37 1.74382 0.733991 0
M  V30 8245 O 862.713 1.04843 1.50843 0
M  V30 8246 C 862.775 3.46705 -0.950581 0
M  V30 8247 C 862.439 3.90176 -2.37932 0
M  V30 8248 C 863.436 3.96769 -3.35961 0
M  V30 8249 C 861.121 4.22453 -2.71733 0
M  V30 8250 C 863.115 4.35034 -4.65858 0
M  V30 8251 C 860.802 4.60394 -4.01846 0
M  V30 8252 C 861.8 4.66656 -4.9872 0
M  V30 8253 O 861.488 5.03732 -6.26505 0
M  V30 8254 H 861.22 0.62405 -0.259881 0
M  V30 8255 H 863.774 1.55015 -1.34757 0
M  V30 8256 H 862.004 3.85868 -0.253492 0
M  V30 8257 H 863.693 4.00741 -0.645069 0
M  V30 8258 H 864.459 3.72009 -3.11182 0
M  V30 8259 H 860.338 4.16776 -1.97025 0
M  V30 8260 H 863.882 4.39836 -5.4147 0
M  V30 8261 H 859.779 4.84609 -4.26409 0
M  V30 8262 H 860.547 5.21761 -6.30641 0
M  V30 8263 N 863.21 0.781244 1.36873 0
M  V30 8264 C 864.142 0.132075 2.28819 0
M  V30 8265 C 865.155 -0.653925 1.49089 0
M  V30 8266 O 866.344 -0.490453 1.7163 0
M  V30 8267 C 863.444 -0.836297 3.28419 0
M  V30 8268 C 862.617 -0.102097 4.37281 0
M  V30 8269 C 861.676 -0.985217 5.16894 0
M  V30 8270 O 860.702 -0.445478 5.67454 0
M  V30 8271 N 861.904 -2.31043 5.3254 0
M  V30 8272 H 864.669 0.921838 2.85171 0
M  V30 8273 H 862.23 0.634427 1.48952 0
M  V30 8274 H 864.222 -1.43074 3.78566 0
M  V30 8275 H 862.792 -1.52698 2.72767 0
M  V30 8276 H 862.012 0.67335 3.88407 0
M  V30 8277 H 863.3 0.404862 5.07187 0
M  V30 8278 H 862.698 -2.77318 4.93063 0
M  V30 8279 H 861.255 -2.85472 5.8596 0
M  V30 8280 N 864.689 -1.48329 0.532571 0
M  V30 8281 C 865.621 -2.27652 -0.265931 0
M  V30 8282 C 866.634 -1.35522 -0.902083 0
M  V30 8283 O 867.823 -1.60552 -0.780088 0
M  V30 8284 C 864.923 -3.0899 -1.39207 0
M  V30 8285 C 864.096 -4.28915 -0.857349 0
M  V30 8286 C 863.155 -4.92044 -1.86493 0
M  V30 8287 O 862.181 -5.51181 -1.42084 0
M  V30 8288 N 863.383 -4.84518 -3.19723 0
M  V30 8289 H 866.148 -2.96821 0.414389 0
M  V30 8290 H 863.709 -1.57684 0.367066 0
M  V30 8291 H 865.701 -3.48091 -2.06433 0
M  V30 8292 H 864.271 -2.42224 -1.97601 0
M  V30 8293 H 863.491 -3.94199 -0.00901765 0
M  V30 8294 H 864.779 -5.0654 -0.479025 0
M  V30 8295 H 864.177 -4.37628 -3.58467 0
M  V30 8296 H 862.734 -5.27712 -3.82575 0
M  V30 8297 N 866.167 -0.267825 -1.55308 0
M  V30 8298 C 867.578 0.231344 -1.85261 0
M  V30 8299 C 867.929 1.56006 -1.18982 0
M  V30 8300 O 867.054 2.1111 -0.475554 0
M  V30 8301 C 867.649 0.426537 -3.36104 0
M  V30 8302 C 866.208 0.869945 -3.66209 0
M  V30 8303 C 865.355 -0.0409522 -2.7727 0
M  V30 8304 H 868.306 -0.489821 -1.50952 0
M  V30 8305 H 868.327 1.26616 -3.58816 0
M  V30 8306 H 867.839 -0.540678 -3.84315 0
M  V30 8307 H 865.94 1.84889 -3.23492 0
M  V30 8308 H 866.053 0.712316 -4.73775 0
M  V30 8309 H 864.417 0.474097 -2.50249 0
M  V30 8310 H 865.2 -1.00392 -3.28293 0
M  V30 8311 N 867.645 1.57599 0.00500368 0
M  V30 8312 C 869.056 1.78462 0.54848 0
M  V30 8313 C 869.407 0.901869 1.74243 0
M  V30 8314 O 868.532 0.103014 2.16155 0
M  V30 8315 C 869.127 3.2365 1.00179 0
M  V30 8316 C 867.686 3.45627 1.49061 0
M  V30 8317 C 866.833 2.73794 0.439531 0
M  V30 8318 H 869.784 1.57151 -0.22118 0
M  V30 8319 H 869.805 3.31488 1.86805 0
M  V30 8320 H 869.317 3.87873 0.132607 0
M  V30 8321 H 867.418 2.86612 2.38085 0
M  V30 8322 H 867.531 4.54298 1.52152 0
M  V30 8323 H 865.895 2.38267 0.900043 0
M  V30 8324 H 866.678 3.40714 -0.420599 0
M  V30 8325 N 869.123 -0.277682 1.55134 0
M  V30 8326 C 870.371 -1.00791 1.75173 0
M  V30 8327 C 870.692 -1.86987 0.553266 0
M  V30 8328 O 869.962 -1.91079 -0.43195 0
M  V30 8329 H 868.542 -0.375129 0.645978 0
M  V30 8330 H 871.204 -0.303041 1.9253 0
M  V30 8331 H 870.3 -1.64756 2.6507 0
M  V30 8332 N 870.601 -1.47988 -0.541979 0
M  V30 8333 C 872.012 -1.49073 -1.12402 0
M  V30 8334 C 872.363 -0.253825 -1.94551 0
M  V30 8335 O 871.488 0.640056 -2.06718 0
M  V30 8336 C 872.083 -2.7011 -2.04514 0
M  V30 8337 C 870.642 -2.74105 -2.5796 0
M  V30 8338 C 869.789 -2.42409 -1.3466 0
M  V30 8339 H 872.74 -1.55277 -0.327818 0
M  V30 8340 H 872.761 -2.47946 -2.88623 0
M  V30 8341 H 872.273 -3.60117 -1.44697 0
M  V30 8342 H 870.374 -1.88276 -3.21532 0
M  V30 8343 H 870.487 -3.75213 -2.97913 0
M  V30 8344 H 868.851 -1.9331 -1.65841 0
M  V30 8345 H 869.634 -3.34642 -0.766133 0
M  V30 8346 N 872.079 0.78992 -1.36375 0
M  V30 8347 C 873.325 1.55007 -1.3077 0
M  V30 8348 C 873.658 1.93871 0.112979 0
M  V30 8349 O 872.933 1.6267 1.06625 0
M  V30 8350 C 873.216 2.82748 -2.22993 0
M  V30 8351 C 873.069 2.50253 -3.73756 0
M  V30 8352 C 874.388 3.84569 -2.13998 0
M  V30 8353 H 871.507 0.562362 -0.476359 0
M  V30 8354 H 874.149 0.907582 -1.66922 0
M  V30 8355 H 872.299 3.37573 -1.92292 0
M  V30 8356 H 873.971 2.01482 -4.14973 0
M  V30 8357 H 872.214 1.83203 -3.93216 0
M  V30 8358 H 872.885 3.41487 -4.33694 0
M  V30 8359 H 875.361 3.39188 -2.4102 0
M  V30 8360 H 874.237 4.717 -2.80697 0
M  V30 8361 H 874.498 4.27491 -1.12711 0
M  V30 8362 N 873.557 1.20646 1.01402 0
M  V30 8363 C 874.968 1.01823 1.56489 0
M  V30 8364 C 875.319 -0.42463 1.9155 0
M  V30 8365 O 874.444 -1.30644 1.72514 0
M  V30 8366 C 875.039 1.84208 2.84347 0
M  V30 8367 C 873.598 1.69743 3.35953 0
M  V30 8368 C 872.745 1.8198 2.09233 0
M  V30 8369 H 875.696 1.348 0.837539 0
M  V30 8370 H 875.717 1.34698 3.55861 0
M  V30 8371 H 875.229 2.89215 2.58798 0
M  V30 8372 H 873.33 0.673833 3.66456 0
M  V30 8373 H 873.443 2.51173 4.07981 0
M  V30 8374 H 871.807 1.25193 2.21808 0
M  V30 8375 H 872.59 2.88477 1.86107 0
M  V30 8376 N 875.035 -1.20752 1.01276 0
M  V30 8377 C 876.283 -1.89645 0.698505 0
M  V30 8378 C 876.604 -1.78986 -0.773883 0
M  V30 8379 O 875.874 -1.18977 -1.55632 0
M  V30 8380 H 874.454 -0.701992 0.255375 0
M  V30 8381 H 877.116 -1.46668 1.28353 0
M  V30 8382 H 876.212 -2.96364 0.978512 0
M  V30 8383 N 876.513 -0.788492 -1.36457 0
M  V30 8384 C 877.924 -0.423742 -1.81828 0
M  V30 8385 C 878.275 1.05221 -1.65599 0
M  V30 8386 O 877.4 1.8163 -1.17641 0
M  V30 8387 C 877.995 -0.762354 -3.30112 0
M  V30 8388 C 876.554 -0.450445 -3.73695 0
M  V30 8389 C 875.701 -0.997482 -2.58738 0
M  V30 8390 H 878.652 -0.981718 -1.24692 0
M  V30 8391 H 878.673 -0.0531136 -3.80463 0
M  V30 8392 H 878.185 -1.83662 -3.41891 0
M  V30 8393 H 876.286 0.615829 -3.67476 0
M  V30 8394 H 876.399 -0.970408 -4.69169 0
M  V30 8395 H 874.763 -0.420761 -2.51201 0
M  V30 8396 H 875.546 -2.07749 -2.73304 0
M  V30 8397 N 877.991 1.48044 -0.54043 0
M  V30 8398 C 878.954 2.28273 0.205966 0
M  V30 8399 C 879.954 1.35983 0.858209 0
M  V30 8400 O 881.144 1.58776 0.716651 0
M  V30 8401 C 878.276 3.15174 1.29917 0
M  V30 8402 H 879.469 2.95727 -0.498555 0
M  V30 8403 H 877.022 1.53457 -0.296745 0
M  V30 8404 H 877.757 2.52374 2.03661 0
M  V30 8405 H 877.542 3.83074 0.836475 0
M  V30 8406 H 879.032 3.75666 1.82387 0
M  V30 8407 N 879.47 0.276058 1.55163 0
M  V30 8408 C 880.881 -0.221516 1.85381 0
M  V30 8409 C 881.232 -1.55372 1.19808 0
M  V30 8410 O 880.357 -2.10855 0.486742 0
M  V30 8411 C 880.952 -0.408706 3.36326 0
M  V30 8412 C 879.511 -0.850512 3.66665 0
M  V30 8413 C 878.658 0.055656 2.77244 0
M  V30 8414 H 881.609 0.497819 1.5069 0
M  V30 8415 H 881.63 -1.24711 3.59482 0
M  V30 8416 H 881.142 0.561052 3.84023 0
M  V30 8417 H 879.243 -1.83171 3.24468 0
M  V30 8418 H 879.356 -0.687181 4.74146 0
M  V30 8419 H 877.72 -0.460819 2.50497 0
M  V30 8420 H 878.503 1.02131 3.27756 0
M  V30 8421 N 880.948 -1.576 0.00335426 0
M  V30 8422 C 881.911 -2.07576 -0.971838 0
M  V30 8423 C 882.911 -0.985796 -1.27038 0
M  V30 8424 O 884.101 -1.24833 -1.21501 0
M  V30 8425 C 881.233 -2.52003 -2.29581 0
M  V30 8426 H 882.426 -2.95008 -0.539481 0
M  V30 8427 H 879.979 -1.54381 -0.244186 0
M  V30 8428 H 880.714 -1.67825 -2.77498 0
M  V30 8429 H 880.499 -3.31609 -2.09231 0
M  V30 8430 H 881.989 -2.90983 -2.99531 0
M  V30 8431 N 882.426 0.269451 -1.5528 0
M  V30 8432 C 883.837 0.840233 -1.66724 0
M  V30 8433 C 884.188 1.86909 -0.596621 0
M  V30 8434 O 883.313 2.14817 0.261246 0
M  V30 8435 C 883.908 1.5308 -3.02245 0
M  V30 8436 C 882.467 2.04957 -3.15705 0
M  V30 8437 C 881.614 0.892838 -2.62533 0
M  V30 8438 H 884.565 0.0457236 -1.58634 0
M  V30 8439 H 884.586 2.39792 -2.95432 0
M  V30 8440 H 884.098 0.781741 -3.80145 0
M  V30 8441 H 882.199 2.82813 -2.42585 0
M  V30 8442 H 882.312 2.26244 -4.22316 0
M  V30 8443 H 880.676 1.28719 -2.19781 0
M  V30 8444 H 881.459 0.157229 -3.4294 0
M  V30 8445 N 883.904 1.48273 0.534124 0
M  V30 8446 C 884.867 1.6201 1.62127 0
M  V30 8447 C 885.867 0.493653 1.53035 0
M  V30 8448 O 887.057 0.759337 1.56779 0
M  V30 8449 C 884.189 1.5864 3.01739 0
M  V30 8450 H 885.382 2.58944 1.51288 0
M  V30 8451 H 882.935 1.36808 0.755861 0
M  V30 8452 H 883.67 0.631685 3.18088 0
M  V30 8453 H 883.455 2.40415 3.09747 0
M  V30 8454 H 884.945 1.71438 3.80787 0
M  V30 8455 N 885.382 -0.782676 1.36792 0
M  V30 8456 C 886.345 -1.8772 1.31507 0
M  V30 8457 C 887.345 -1.59269 0.221349 0
M  V30 8458 O 888.535 -1.67555 0.476544 0
M  V30 8459 C 885.667 -3.24641 1.04025 0
M  V30 8460 H 886.86 -1.9382 2.28853 0
M  V30 8461 H 884.413 -0.981226 1.21662 0
M  V30 8462 H 885.148 -3.24221 0.0716439 0
M  V30 8463 H 884.933 -3.46681 1.8318 0
M  V30 8464 H 886.423 -4.04711 1.02949 0
M  V30 8465 N 886.86 -1.21182 -1.00761 0
M  V30 8466 C 888.271 -1.02652 -1.55947 0
M  V30 8467 C 888.622 0.414466 -1.91772 0
M  V30 8468 O 887.747 1.29727 -1.73204 0
M  V30 8469 C 888.342 -1.85713 -2.83366 0
M  V30 8470 C 886.901 -1.71523 -3.35048 0
M  V30 8471 C 886.048 -1.83087 -2.08265 0
M  V30 8472 H 888.999 -1.35242 -0.830379 0
M  V30 8473 H 889.02 -1.36583 -3.55141 0
M  V30 8474 H 888.532 -2.90584 -2.5726 0
M  V30 8475 H 886.633 -0.693257 -3.66094 0
M  V30 8476 H 886.746 -2.53333 -4.06644 0
M  V30 8477 H 885.11 -1.26367 -2.21141 0
M  V30 8478 H 885.893 -2.8946 -1.84575 0
M  V30 8479 N 888.338 1.20213 -1.01915 0
M  V30 8480 C 889.749 1.7136 -0.741131 0
M  V30 8481 C 890.1 1.81705 0.740107 0
M  V30 8482 O 889.225 1.48139 1.57746 0
M  V30 8483 C 889.82 3.11231 -1.33869 0
M  V30 8484 C 888.379 3.59677 -1.10948 0
M  V30 8485 C 887.526 2.36809 -1.4428 0
M  V30 8486 H 890.477 1.05191 -1.1883 0
M  V30 8487 H 890.498 3.7342 -0.730585 0
M  V30 8488 H 890.01 3.03669 -2.41675 0
M  V30 8489 H 888.111 3.72568 -0.0492052 0
M  V30 8490 H 888.224 4.44351 -1.79134 0
M  V30 8491 H 886.588 2.39674 -0.861881 0
M  V30 8492 H 887.371 2.31886 -2.53148 0
M  V30 8493 N 889.816 0.795718 1.36037 0
M  V30 8494 C 890.779 0.204318 2.28287 0
M  V30 8495 C 891.779 -0.602017 1.49105 0
M  V30 8496 O 892.969 -0.422089 1.69009 0
M  V30 8497 C 890.101 -0.716431 3.33287 0
M  V30 8498 H 891.294 1.01781 2.821 0
M  V30 8499 H 888.847 0.565588 1.45708 0
M  V30 8500 H 889.582 -1.55403 2.84641 0
M  V30 8501 H 889.367 -0.140096 3.9185 0
M  V30 8502 H 890.857 -1.12488 4.02164 0
M  V30 8503 N 891.294 -1.47756 0.548274 0
M  V30 8504 C 892.226 -2.27921 -0.24177 0
M  V30 8505 C 893.239 -1.36471 -0.887658 0
M  V30 8506 O 894.428 -1.6137 -0.763016 0
M  V30 8507 C 891.528 -3.10449 -1.35922 0
M  V30 8508 C 890.701 -4.298 -0.811808 0
M  V30 8509 C 889.76 -4.93994 -1.81264 0
M  V30 8510 O 888.786 -5.52657 -1.3623 0
M  V30 8511 N 889.988 -4.87882 -3.14566 0
M  V30 8512 H 892.753 -2.96365 0.445848 0
M  V30 8513 H 890.314 -1.57286 0.383769 0
M  V30 8514 H 892.306 -3.50261 -2.02729 0
M  V30 8515 H 890.876 -2.44306 -1.95021 0
M  V30 8516 H 890.096 -3.94186 0.0327929 0
M  V30 8517 H 891.384 -5.0702 -0.425272 0
M  V30 8518 H 890.782 -4.41405 -3.53805 0
M  V30 8519 H 889.339 -5.3174 -3.76956 0
M  V30 8520 N 892.772 -0.284283 -1.55015 0
M  V30 8521 C 894.02 0.329212 -1.99401 0
M  V30 8522 C 894.341 1.55687 -1.17416 0
M  V30 8523 O 893.611 1.94087 -0.265937 0
M  V30 8524 H 892.191 0.12463 -0.73653 0
M  V30 8525 H 894.853 -0.391743 -1.90922 0
M  V30 8526 H 893.949 0.61278 -3.06025 0
M  V30 8527 N 894.251 1.57596 -0.0117121 0
M  V30 8528 C 895.161 2.12596 0.991964 0
M  V30 8529 C 896.177 1.07399 1.36899 0
M  V30 8530 O 897.353 1.39365 1.45394 0
M  V30 8531 C 894.418 2.62796 2.2614 0
M  V30 8532 C 893.479 3.8264 1.94642 0
M  V30 8533 C 892.712 4.30435 3.15533 0
M  V30 8534 O 892.935 3.77495 4.27614 0
M  V30 8535 O 891.869 5.22469 2.98847 0
M  V30 8536 H 895.695 2.98597 0.554371 0
M  V30 8537 H 893.28 1.47947 0.207839 0
M  V30 8538 H 895.162 2.9523 3.00695 0
M  V30 8539 H 893.837 1.79886 2.69114 0
M  V30 8540 H 892.744 3.5516 1.17526 0
M  V30 8541 H 894.077 4.66658 1.56496 0
M  V30 8542 N 895.729 -0.261212 1.5542 0
M  V30 8543 C 897.14 -0.83138 1.67167 0
M  V30 8544 C 897.491 -1.8659 0.606525 0
M  V30 8545 O 896.616 -2.14953 -0.24985 0
M  V30 8546 C 897.211 -1.51475 3.03052 0
M  V30 8547 C 895.77 -2.0328 3.16787 0
M  V30 8548 C 894.917 -0.878903 2.63003 0
M  V30 8549 H 897.868 -0.0373102 1.58656 0
M  V30 8550 H 897.889 -2.38222 2.96699 0
M  V30 8551 H 897.401 -0.76157 3.80554 0
M  V30 8552 H 895.502 -2.81523 2.44082 0
M  V30 8553 H 895.615 -2.24001 4.2351 0
M  V30 8554 H 893.979 -1.27551 2.2046 0
M  V30 8555 H 894.762 -0.13904 3.43018 0
M  V30 8556 N 897.207 -1.48554 -0.526253 0
M  V30 8557 C 898.618 -1.50256 -1.10815 0
M  V30 8558 C 898.969 -0.274445 -1.94271 0
M  V30 8559 O 898.094 0.618094 -2.07385 0
M  V30 8560 C 898.689 -2.72264 -2.01638 0
M  V30 8561 C 897.248 -2.76826 -2.55038 0
M  V30 8562 C 896.395 -2.43823 -1.32081 0
M  V30 8563 H 899.346 -1.55616 -0.31133 0
M  V30 8564 H 899.367 -2.50993 -2.85977 0
M  V30 8565 H 898.879 -3.61632 -1.4087 0
M  V30 8566 H 896.98 -1.91676 -3.19517 0
M  V30 8567 H 897.093 -3.78351 -2.93917 0
M  V30 8568 H 895.457 -1.95058 -1.63781 0
M  V30 8569 H 896.24 -3.35436 -0.730596 0
M  V30 8570 N 898.685 0.775411 -1.37205 0
M  V30 8571 C 899.617 1.89761 -1.28544 0
M  V30 8572 C 900.63 1.61542 -0.201996 0
M  V30 8573 O 901.819 1.72528 -0.457848 0
M  V30 8574 C 898.919 3.24904 -0.963885 0
M  V30 8575 C 898.092 3.80796 -2.15205 0
M  V30 8576 C 897.151 4.94407 -1.80135 0
M  V30 8577 O 896.177 5.10185 -2.52388 0
M  V30 8578 N 897.379 5.75722 -0.743298 0
M  V30 8579 H 900.144 1.97708 -2.25237 0
M  V30 8580 H 897.705 0.954348 -1.30782 0
M  V30 8581 H 899.697 3.9842 -0.710182 0
M  V30 8582 H 898.267 3.12483 -0.085632 0
M  V30 8583 H 897.487 2.99101 -2.56773 0
M  V30 8584 H 898.775 4.1487 -2.94552 0
M  V30 8585 H 898.173 5.65518 -0.143655 0
M  V30 8586 H 896.73 6.4948 -0.549446 0
M  V30 8587 N 900.163 1.21714 1.00117 0
M  V30 8588 C 901.574 1.03477 1.55401 0
M  V30 8589 C 901.925 -0.40429 1.91989 0
M  V30 8590 O 901.05 -1.28807 1.7389 0
M  V30 8591 C 901.645 1.87213 2.82377 0
M  V30 8592 C 900.204 1.73297 3.34133 0
M  V30 8593 C 899.351 1.84189 2.07291 0
M  V30 8594 H 902.302 1.3568 0.823195 0
M  V30 8595 H 902.323 1.38465 3.54412 0
M  V30 8596 H 901.835 2.91944 2.55715 0
M  V30 8597 H 899.936 0.712662 3.65721 0
M  V30 8598 H 900.049 2.55486 4.05294 0
M  V30 8599 H 898.413 1.27538 2.20468 0
M  V30 8600 H 899.196 2.90435 1.83037 0
M  V30 8601 N 901.641 -1.19671 1.02551 0
M  V30 8602 C 903.052 -1.70964 0.750208 0
M  V30 8603 C 903.403 -1.82095 -0.730461 0
M  V30 8604 O 902.528 -1.48974 -1.56958 0
M  V30 8605 C 903.123 -3.10516 1.35518 0
M  V30 8606 C 901.682 -3.59083 1.12854 0
M  V30 8607 C 900.829 -2.36041 1.45534 0
M  V30 8608 H 903.78 -1.04559 1.19386 0
M  V30 8609 H 903.801 -3.73028 0.750378 0
M  V30 8610 H 903.313 -3.02383 2.43282 0
M  V30 8611 H 901.414 -3.72536 0.0689627 0
M  V30 8612 H 901.527 -4.43395 1.81488 0
M  V30 8613 H 899.891 -2.39214 0.87458 0
M  V30 8614 H 900.674 -2.3054 2.54374 0
M  V30 8615 N 903.119 -0.802921 -1.35613 0
M  V30 8616 C 904.53 -0.443004 -1.81368 0
M  V30 8617 C 904.881 1.03459 -1.66706 0
M  V30 8618 O 904.006 1.80372 -1.19561 0
M  V30 8619 C 904.601 -0.797324 -3.29284 0
M  V30 8620 C 903.16 -0.490055 -3.73196 0
M  V30 8621 C 902.307 -1.02487 -2.57666 0
M  V30 8622 H 905.258 -0.994888 -1.23643 0
M  V30 8623 H 905.279 -0.0934638 -3.80385 0
M  V30 8624 H 904.791 -1.87278 -3.39924 0
M  V30 8625 H 902.892 0.576818 -3.68108 0
M  V30 8626 H 903.005 -1.02012 -4.68114 0
M  V30 8627 H 901.369 -0.44738 -2.5074 0
M  V30 8628 H 902.152 -2.10636 -2.71085 0
M  V30 8629 N 904.597 1.47463 -0.556102 0
M  V30 8630 C 905.825 2.06868 -0.0364585 0
M  V30 8631 C 906.24 1.40893 1.25677 0
M  V30 8632 O 905.597 0.505083 1.75371 0
M  V30 8633 C 905.648 3.61128 0.163984 0
M  V30 8634 O 905.369 4.24629 -1.07803 0
M  V30 8635 C 906.87 4.37397 0.721036 0
M  V30 8636 H 904.09 0.669466 -0.0453399 0
M  V30 8637 H 906.634 1.89482 -0.769198 0
M  V30 8638 H 904.789 3.78031 0.84685 0
M  V30 8639 H 905.203 5.17149 -0.875067 0
M  V30 8640 H 906.677 5.46016 0.810584 0
M  V30 8641 H 907.154 4.03604 1.73206 0
M  V30 8642 H 907.76 4.25236 0.073904 0
M  V30 8643 N 906.075 0.2925 1.54862 0
M  V30 8644 C 907.323 -0.318633 1.99572 0
M  V30 8645 C 907.644 -1.55062 1.1824 0
M  V30 8646 O 906.914 -1.93943 0.276226 0
M  V30 8647 H 905.494 -0.120722 0.737181 0
M  V30 8648 H 908.156 0.401862 1.90712 0
M  V30 8649 H 907.252 -0.596542 3.06346 0
M  V30 8650 N 907.553 -1.57587 0.0200696 0
M  V30 8651 C 908.485 -2.06555 -0.993359 0
M  V30 8652 C 909.498 -0.987227 -1.29451 0
M  V30 8653 O 910.687 -1.26361 -1.26075 0
M  V30 8654 C 907.787 -2.4675 -2.3231 0
M  V30 8655 C 906.96 -3.77554 -2.20843 0
M  V30 8656 C 906.019 -4.04397 -3.36674 0
M  V30 8657 O 905.045 -4.7478 -3.13963 0
M  V30 8658 N 906.247 -3.53861 -4.60176 0
M  V30 8659 H 909.012 -2.9412 -0.575617 0
M  V30 8660 H 906.573 -1.61038 -0.166889 0
M  V30 8661 H 908.565 -2.61806 -3.08609 0
M  V30 8662 H 907.135 -1.64598 -2.65756 0
M  V30 8663 H 906.355 -3.72382 -1.29327 0
M  V30 8664 H 907.643 -4.63271 -2.10375 0
M  V30 8665 H 907.041 -2.96904 -4.81523 0
M  V30 8666 H 905.598 -3.74213 -5.33674 0
M  V30 8667 N 909.032 0.252966 -1.55557 0
M  V30 8668 C 910.257 1.0038 -1.8149 0
M  V30 8669 C 910.682 1.78397 -0.596318 0
M  V30 8670 O 910.04 1.7551 0.454535 0
M  V30 8671 C 910.088 1.9222 -3.05096 0
M  V30 8672 O 909.192 3.01302 -2.81587 0
M  V30 8673 H 908.533 0.285949 -0.599274 0
M  V30 8674 H 911.063 0.275795 -2.02733 0
M  V30 8675 H 911.073 2.338 -3.34368 0
M  V30 8676 H 909.748 1.34852 -3.93431 0
M  V30 8677 H 908.325 2.63894 -2.63466 0
M  V30 8678 N 910.51 1.48831 0.518367 0
M  V30 8679 C 911.787 1.47933 1.27966 0
M  V30 8680 C 912.167 0.197393 2.10175 0
M  V30 8681 O 911.515 -0.820656 2.13255 0
M  V30 8682 C 911.725 2.74816 2.15121 0
M  V30 8683 C 913.073 3.23613 2.74881 0
M  V30 8684 O 914.097 2.75814 2.254 0
M  V30 8685 O 912.956 4.06818 3.64913 0
M  V30 8686 H 910.05 0.591316 0.578164 0
M  V30 8687 H 912.596 1.61077 0.534065 0
M  V30 8688 H 911.368 3.59621 1.54234 0
M  V30 8689 H 910.991 2.64449 2.96905 0
M  V30 8690 N 911.988 -0.768124 1.37614 0
M  V30 8691 C 913.218 -1.555 1.36027 0
M  V30 8692 C 913.626 -1.89119 -0.0554273 0
M  V30 8693 O 912.969 -1.52203 -1.02859 0
M  V30 8694 C 913.031 -2.8906 2.13739 0
M  V30 8695 C 912.695 -2.78058 3.62674 0
M  V30 8696 C 913.692 -2.48841 4.5648 0
M  V30 8697 C 911.377 -2.95966 4.05844 0
M  V30 8698 C 913.371 -2.37665 5.91434 0
M  V30 8699 C 911.058 -2.84411 5.40882 0
M  V30 8700 C 912.056 -2.55301 6.33491 0
M  V30 8701 O 911.744 -2.43779 7.66046 0
M  V30 8702 H 911.476 -0.488263 0.467521 0
M  V30 8703 H 914.03 -0.959583 1.81607 0
M  V30 8704 H 912.26 -3.50735 1.62854 0
M  V30 8705 H 913.949 -3.5048 2.04741 0
M  V30 8706 H 914.715 -2.34687 4.24437 0
M  V30 8707 H 910.594 -3.17625 3.34119 0
M  V30 8708 H 914.138 -2.14865 6.63686 0
M  V30 8709 H 910.035 -2.98134 5.72527 0
M  V30 8710 H 910.803 -2.59101 7.76408 0
M  V30 8711 N 913.466 -1.22244 -0.994698 0
M  V30 8712 C 914.694 -1.07218 -1.76952 0
M  V30 8713 C 915.109 0.377388 -1.8499 0
M  V30 8714 O 914.466 1.26157 -1.31874 0
M  V30 8715 C 914.517 -1.67496 -3.20355 0
M  V30 8716 O 914.238 -3.06782 -3.12756 0
M  V30 8717 C 915.739 -1.57721 -4.14294 0
M  V30 8718 H 912.959 -0.375966 -0.555779 0
M  V30 8719 H 915.503 -1.61799 -1.25065 0
M  V30 8720 H 913.658 -1.16982 -3.69315 0
M  V30 8721 H 914.072 -3.35784 -4.02926 0
M  V30 8722 H 915.546 -2.04623 -5.12673 0
M  V30 8723 H 916.023 -0.533434 -4.35949 0
M  V30 8724 H 916.629 -2.07531 -3.71229 0
M  V30 8725 N 914.944 1.19125 -1.03184 0
M  V30 8726 C 915.891 2.2245 -0.6152 0
M  V30 8727 C 916.861 1.61869 0.372502 0
M  V30 8728 O 918.046 1.88901 0.268491 0
M  V30 8729 C 915.186 3.45091 0.0248027 0
M  V30 8730 C 914.299 4.20044 -1.0093 0
M  V30 8731 C 913.434 5.30119 -0.338744 0
M  V30 8732 C 912.473 5.96833 -1.35855 0
M  V30 8733 N 911.61 6.98464 -0.713594 0
M  V30 8734 H 916.45 2.57445 -1.50086 0
M  V30 8735 H 913.987 1.26485 -0.751005 0
M  V30 8736 H 915.945 4.15149 0.413131 0
M  V30 8737 H 914.575 3.10742 0.874028 0
M  V30 8738 H 913.627 3.48901 -1.51566 0
M  V30 8739 H 914.939 4.65796 -1.78425 0
M  V30 8740 H 914.093 6.0661 0.104269 0
M  V30 8741 H 912.832 4.85446 0.468382 0
M  V30 8742 H 911.837 5.1909 -1.81179 0
M  V30 8743 H 913.062 6.4359 -2.16722 0
M  V30 8744 H 911.008 6.55959 0.0733863 0
M  V30 8745 H 910.925 7.42422 -1.42638 0
M  V30 8746 H 912.193 7.78943 -0.294681 0
M  V30 8747 N 916.422 0.810101 1.35185 0
M  V30 8748 C 917.385 0.22852 2.28058 0
M  V30 8749 C 918.385 -0.586168 1.49735 0
M  V30 8750 O 919.575 -0.40414 1.69447 0
M  V30 8751 C 916.707 -0.681041 3.34028 0
M  V30 8752 H 917.9 1.04768 2.81005 0
M  V30 8753 H 915.453 0.58101 1.451 0
M  V30 8754 H 916.188 -1.52375 2.86273 0
M  V30 8755 H 915.973 -0.0985276 3.91976 0
M  V30 8756 H 917.463 -1.08217 4.03335 0
M  V30 8757 N 917.9 -1.47166 0.563914 0
M  V30 8758 C 919.146 -2.03337 0.0506932 0
M  V30 8759 C 919.501 -1.42976 -1.28746 0
M  V30 8760 O 918.794 -0.578508 -1.82658 0
M  V30 8761 C 918.988 -3.57279 -0.0931797 0
M  V30 8762 C 918.817 -4.32567 1.22948 0
M  V30 8763 C 917.587 -4.72206 1.79859 0
M  V30 8764 C 919.785 -4.67282 2.14829 0
M  V30 8765 N 917.767 -5.32166 3.0606 0
M  V30 8766 C 919.138 -5.27615 3.25611 0
M  V30 8767 C 921.193 -4.49211 2.14741 0
M  V30 8768 C 919.896 -5.71784 4.36412 0
M  V30 8769 C 921.922 -4.94384 3.24559 0
M  V30 8770 C 921.284 -5.54771 4.34061 0
M  V30 8771 H 917.383 -0.779627 0.0608761 0
M  V30 8772 H 919.967 -1.79563 0.75268 0
M  V30 8773 H 918.138 -3.80806 -0.764301 0
M  V30 8774 H 919.87 -4.0009 -0.609075 0
M  V30 8775 H 916.625 -4.54372 1.33577 0
M  V30 8776 H 917.049 -5.66684 3.70404 0
M  V30 8777 H 921.691 -4.01875 1.31362 0
M  V30 8778 H 919.409 -6.18108 5.20546 0
M  V30 8779 H 922.995 -4.82167 3.25586 0
M  V30 8780 H 921.875 -5.89087 5.17635 0
M  V30 8781 N 919.378 -0.300708 -1.54705 0
M  V30 8782 C 920.288 0.584996 -2.27189 0
M  V30 8783 C 921.304 1.14866 -1.30697 0
M  V30 8784 O 922.48 1.17351 -1.63679 0
M  V30 8785 C 919.545 1.74076 -2.99831 0
M  V30 8786 C 918.606 1.2112 -4.1186 0
M  V30 8787 C 917.839 2.31188 -4.81028 0
M  V30 8788 O 918.062 3.5108 -4.49554 0
M  V30 8789 O 916.996 1.97897 -5.68437 0
M  V30 8790 H 920.822 -0.00298177 -3.037 0
M  V30 8791 H 918.407 -0.0671802 -1.49249 0
M  V30 8792 H 920.289 2.41413 -3.45395 0
M  V30 8793 H 918.964 2.31535 -2.26215 0
M  V30 8794 H 917.871 0.50357 -3.70695 0
M  V30 8795 H 919.204 0.682046 -4.87452 0
M  V30 8796 N 920.856 1.57574 -0.0284266 0
M  V30 8797 C 921.766 2.13637 0.96936 0
M  V30 8798 C 922.782 1.08845 1.35752 0
M  V30 8799 O 923.958 1.40899 1.43908 0
M  V30 8800 C 921.023 2.65179 2.2334 0
M  V30 8801 C 920.084 3.84683 1.90572 0
M  V30 8802 C 919.317 4.33758 3.1095 0
M  V30 8803 O 919.54 3.82009 4.23586 0
M  V30 8804 O 918.474 5.2561 2.93288 0
M  V30 8805 H 922.3 2.99169 0.52267 0
M  V30 8806 H 919.885 1.48159 0.192135 0
M  V30 8807 H 921.767 2.98402 2.97547 0
M  V30 8808 H 920.442 1.82731 2.67191 0
M  V30 8809 H 919.349 3.56386 1.13753 0
M  V30 8810 H 920.682 4.68292 1.51538 0
M  V30 8811 N 922.334 -0.244713 1.55689 0
M  V30 8812 C 923.564 -0.988508 1.81417 0
M  V30 8813 C 923.972 -1.79362 0.602143 0
M  V30 8814 O 923.315 -1.78386 -0.438639 0
M  V30 8815 C 923.377 -1.97287 3.0053 0
M  V30 8816 C 923.041 -1.35448 4.36466 0
M  V30 8817 C 924.038 -0.755874 5.14376 0
M  V30 8818 C 921.723 -1.37319 4.83165 0
M  V30 8819 C 923.717 -0.184218 6.37134 0
M  V30 8820 C 921.404 -0.797681 6.05871 0
M  V30 8821 C 922.402 -0.204224 6.82695 0
M  V30 8822 O 922.09 0.362392 8.03083 0
M  V30 8823 H 921.822 -0.296412 0.607549 0
M  V30 8824 H 924.376 -0.272185 2.03589 0
M  V30 8825 H 922.606 -2.72756 2.74119 0
M  V30 8826 H 924.295 -2.58028 3.13331 0
M  V30 8827 H 925.061 -0.733912 4.79415 0
M  V30 8828 H 920.94 -1.8245 4.23359 0
M  V30 8829 H 924.484 0.279624 6.97039 0
M  V30 8830 H 920.381 -0.816978 6.40309 0
M  V30 8831 H 921.149 0.254467 8.18104 0
M  V30 8832 N 923.813 -1.49104 -0.510467 0
M  V30 8833 C 925.043 -1.61571 -1.28757 0
M  V30 8834 C 925.451 -0.282638 -1.87077 0
M  V30 8835 O 924.794 0.740749 -1.68103 0
M  V30 8836 C 924.856 -2.61851 -2.46322 0
M  V30 8837 C 924.52 -4.06438 -2.08942 0
M  V30 8838 C 925.517 -4.93532 -1.63469 0
M  V30 8839 C 923.202 -4.52109 -2.18867 0
M  V30 8840 C 925.196 -6.24331 -1.28411 0
M  V30 8841 C 922.883 -5.82924 -1.83421 0
M  V30 8842 C 923.881 -6.68858 -1.38267 0
M  V30 8843 O 923.569 -7.97236 -1.03296 0
M  V30 8844 H 923.301 -0.547082 -0.397086 0
M  V30 8845 H 925.855 -1.95806 -0.620424 0
M  V30 8846 H 924.085 -2.22777 -3.16081 0
M  V30 8847 H 925.774 -2.63947 -3.08362 0
M  V30 8848 H 926.54 -4.59479 -1.55255 0
M  V30 8849 H 922.419 -3.85395 -2.52966 0
M  V30 8850 H 925.963 -6.9136 -0.930946 0
M  V30 8851 H 921.86 -6.16507 -1.91282 0
M  V30 8852 H 922.628 -8.10163 -1.16525 0
M  V30 8853 N 925.291 0.760815 -1.38019 0
M  V30 8854 C 926.238 1.8744 -1.34666 0
M  V30 8855 C 927.208 1.64762 -0.210386 0
M  V30 8856 O 928.393 1.86528 -0.401479 0
M  V30 8857 C 925.533 3.24648 -1.17037 0
M  V30 8858 C 924.646 3.59206 -2.3999 0
M  V30 8859 C 923.781 4.8568 -2.15148 0
M  V30 8860 C 922.82 5.13002 -3.3391 0
M  V30 8861 N 921.957 6.30668 -3.08549 0
M  V30 8862 H 926.797 1.8964 -2.29871 0
M  V30 8863 H 924.334 0.927004 -1.14215 0
M  V30 8864 H 926.292 4.03814 -1.04834 0
M  V30 8865 H 924.922 3.21793 -0.254758 0
M  V30 8866 H 923.974 2.74939 -2.62893 0
M  V30 8867 H 925.286 3.75328 -3.28527 0
M  V30 8868 H 924.44 5.72773 -2.00039 0
M  V30 8869 H 923.179 4.71682 -1.23965 0
M  V30 8870 H 922.184 4.2438 -3.49545 0
M  V30 8871 H 923.409 5.28901 -4.25958 0
M  V30 8872 H 921.355 6.18008 -2.20006 0
M  V30 8873 H 921.272 6.47257 -3.90633 0
M  V30 8874 H 922.54 7.20669 -2.9708 0
M  V30 8875 N 926.769 1.22769 0.988202 0
M  V30 8876 C 927.716 1.00195 2.07917 0
M  V30 8877 C 928.686 -0.0779391 1.65917 0
M  V30 8878 O 929.871 0.0726005 1.90662 0
M  V30 8879 C 927.011 0.590853 3.40004 0
M  V30 8880 C 926.124 1.74202 3.9532 0
M  V30 8881 C 925.259 1.27846 5.15586 0
M  V30 8882 C 924.298 2.40087 5.63049 0
M  V30 8883 N 923.435 1.94744 6.74551 0
M  V30 8884 H 928.275 1.93581 2.26562 0
M  V30 8885 H 925.812 0.96448 1.11068 0
M  V30 8886 H 927.77 0.333653 4.15864 0
M  V30 8887 H 926.4 -0.306007 3.21346 0
M  V30 8888 H 925.452 2.11342 3.16289 0
M  V30 8889 H 926.764 2.58612 4.26522 0
M  V30 8890 H 925.918 0.978919 5.9875 0
M  V30 8891 H 924.657 0.404617 4.86019 0
M  V30 8892 H 923.662 2.70824 4.78471 0
M  V30 8893 H 924.887 3.27995 5.9464 0
M  V30 8894 H 922.833 1.09729 6.46758 0
M  V30 8895 H 922.75 2.72718 7.05096 0
M  V30 8896 H 924.018 1.67873 7.61209 0
M  V30 8897 N 928.247 -1.18576 1.03814 0
M  V30 8898 C 929.496 -1.87822 0.735235 0
M  V30 8899 C 929.809 -1.81069 -0.739819 0
M  V30 8900 O 931.015 -2.45654 -1.15614 0
M  V30 8901 C 929.471 -3.36941 1.26486 0
M  V30 8902 C 929.079 -3.5223 2.76836 0
M  V30 8903 C 930.823 -4.11604 1.03836 0
M  V30 8904 C 928.73 -4.95294 3.23169 0
M  V30 8905 H 927.66 -0.703487 0.271333 0
M  V30 8906 H 930.311 -1.34 1.25365 0
M  V30 8907 H 928.693 -3.90217 0.674318 0
M  V30 8908 H 929.867 -3.09239 3.41625 0
M  V30 8909 H 928.182 -2.90969 2.97869 0
M  V30 8910 H 930.779 -5.17123 1.3597 0
M  V30 8911 H 931.122 -4.16293 -0.0244945 0
M  V30 8912 H 931.655 -3.64494 1.59338 0
M  V30 8913 H 928.394 -4.95772 4.28824 0
M  V30 8914 H 927.914 -5.3901 2.63113 0
M  V30 8915 H 929.593 -5.63996 3.17045 0
M  V30 8916 N 929.725 -0.817259 -1.34754 0
M  V30 8917 C 930.973 -0.401852 -1.98065 0
M  V30 8918 C 931.294 1.03718 -1.65129 0
M  V30 8919 O 930.564 1.71921 -0.939141 0
M  V30 8920 H 929.144 -0.145603 -0.732672 0
M  V30 8921 H 931.806 -1.04545 -1.64488 0
M  V30 8922 H 930.902 -0.516241 -3.07801 0
M  V30 8923 N 931.203 1.46865 -0.571711 0
M  V30 8924 C 932.135 2.28277 0.205479 0
M  V30 8925 C 933.148 1.37866 0.865835 0
M  V30 8926 O 934.337 1.62564 0.737247 0
M  V30 8927 C 931.437 3.12572 1.30965 0
M  V30 8928 C 930.61 4.31038 0.743328 0
M  V30 8929 C 929.669 4.96815 1.73382 0
M  V30 8930 O 928.695 5.54755 1.2742 0
M  V30 8931 N 929.897 4.92825 3.06764 0
M  V30 8932 H 932.662 2.95618 -0.49294 0
M  V30 8933 H 930.223 1.56655 -0.408744 0
M  V30 8934 H 932.215 3.53442 1.97131 0
M  V30 8935 H 930.785 2.47378 1.91109 0
M  V30 8936 H 930.005 3.94084 -0.0955004 0
M  V30 8937 H 931.293 5.07632 0.344556 0
M  V30 8938 H 930.691 4.46978 3.46738 0
M  V30 8939 H 929.248 5.3767 3.68449 0
M  V30 8940 N 932.681 0.308908 1.54543 0
M  V30 8941 C 933.613 -0.597453 2.21276 0
M  V30 8942 C 934.626 -1.09137 1.20801 0
M  V30 8943 O 935.815 -1.00747 1.47351 0
M  V30 8944 C 932.915 -1.83085 2.85189 0
M  V30 8945 C 932.088 -1.4781 4.11669 0
M  V30 8946 C 931.147 -2.56748 4.59311 0
M  V30 8947 O 930.173 -2.21507 5.24331 0
M  V30 8948 N 931.375 -3.87427 4.32297 0
M  V30 8949 H 934.14 -0.0261183 2.99689 0
M  V30 8950 H 931.701 0.131456 1.61365 0
M  V30 8951 H 933.693 -2.55326 3.13992 0
M  V30 8952 H 932.263 -2.31039 2.1057 0
M  V30 8953 H 931.483 -0.587974 3.8979 0
M  V30 8954 H 932.771 -1.2179 4.94009 0
M  V30 8955 H 932.169 -4.18863 3.80224 0
M  V30 8956 H 930.726 -4.55942 4.6579 0
M  V30 8957 N 934.159 -1.57557 0.0367827 0
M  V30 8958 C 935.57 -1.79853 -0.500971 0
M  V30 8959 C 935.921 -0.947749 -1.71791 0
M  V30 8960 O 935.046 -0.160287 -2.15806 0
M  V30 8961 C 935.641 -3.26193 -0.915626 0
M  V30 8962 C 934.2 -3.49457 -1.39845 0
M  V30 8963 C 933.347 -2.74864 -0.366784 0
M  V30 8964 H 936.298 -1.56509 0.262768 0
M  V30 8965 H 936.319 -3.36324 -1.7795 0
M  V30 8966 H 935.831 -3.88089 -0.0297227 0
M  V30 8967 H 933.932 -2.92823 -2.30402 0
M  V30 8968 H 934.045 -4.58172 -1.40054 0
M  V30 8969 H 932.409 -2.4057 -0.836554 0
M  V30 8970 H 933.192 -3.39479 0.510785 0
M  V30 8971 N 935.637 0.236453 -1.55816 0
M  V30 8972 C 936.569 1.31602 -1.87653 0
M  V30 8973 C 937.582 1.43782 -0.763584 0
M  V30 8974 O 938.771 1.44945 -1.04178 0
M  V30 8975 C 935.871 2.69342 -2.05689 0
M  V30 8976 C 935.044 2.79298 -3.36617 0
M  V30 8977 C 934.103 3.97952 -3.44268 0
M  V30 8978 O 933.129 3.86989 -4.17406 0
M  V30 8979 N 934.331 5.11594 -2.74321 0
M  V30 8980 H 937.096 1.04623 -2.80845 0
M  V30 8981 H 934.657 0.426534 -1.5618 0
M  V30 8982 H 936.649 3.47074 -2.08138 0
M  V30 8983 H 935.219 2.88984 -1.19192 0
M  V30 8984 H 934.439 1.8816 -3.46395 0
M  V30 8985 H 935.727 2.82908 -4.22895 0
M  V30 8986 H 935.125 5.23394 -2.14651 0
M  V30 8987 H 933.682 5.87422 -2.8245 0
M  V30 8988 N 937.115 1.49373 0.502552 0
M  V30 8989 C 938.047 1.62045 1.62093 0
M  V30 8990 C 939.06 0.503221 1.54827 0
M  V30 8991 O 940.249 0.775208 1.60788 0
M  V30 8992 C 937.349 1.55971 3.00876 0
M  V30 8993 C 936.522 2.832 3.33341 0
M  V30 8994 C 935.581 2.702 4.51529 0
M  V30 8995 O 934.607 3.44132 4.53389 0
M  V30 8996 N 935.809 1.81642 5.5135 0
M  V30 8997 H 938.574 2.58501 1.51649 0
M  V30 8998 H 936.135 1.46442 0.690396 0
M  V30 8999 H 938.127 1.4493 3.77859 0
M  V30 9000 H 936.697 0.673795 3.05252 0
M  V30 9001 H 935.917 3.08604 2.4527 0
M  V30 9002 H 937.205 3.67551 3.51829 0
M  V30 9003 H 936.603 1.20829 5.52645 0
M  V30 9004 H 935.16 1.76524 6.27441 0
M  V30 9005 N 938.594 -0.753485 1.38421 0
M  V30 9006 C 940.005 -1.33081 1.30944 0
M  V30 9007 C 940.356 -1.96169 -0.0347124 0
M  V30 9008 O 939.481 -1.95073 -0.936768 0
M  V30 9009 C 940.076 -2.41973 2.37138 0
M  V30 9010 C 938.635 -2.95426 2.33239 0
M  V30 9011 C 937.782 -1.68808 2.19998 0
M  V30 9012 H 940.733 -0.552354 1.48777 0
M  V30 9013 H 940.754 -3.21913 2.02859 0
M  V30 9014 H 940.266 -1.96027 3.34956 0
M  V30 9015 H 938.367 -3.45701 1.39003 0
M  V30 9016 H 938.48 -3.49798 3.27381 0
M  V30 9017 H 936.844 -1.92438 1.66852 0
M  V30 9018 H 937.627 -1.24939 3.19758 0
M  V30 9019 N 940.072 -1.23292 -0.981677 0
M  V30 9020 C 941.32 -1.06214 -1.71939 0
M  V30 9021 C 941.641 0.401989 -1.90812 0
M  V30 9022 O 940.911 1.28825 -1.47584 0
M  V30 9023 H 939.491 -0.390042 -0.637084 0
M  V30 9024 H 942.153 -1.54988 -1.18173 0
M  V30 9025 H 941.249 -1.54904 -2.70945 0
M  V30 9026 N 941.55 1.18024 -1.04442 0
M  V30 9027 C 942.513 2.19992 -0.643136 0
M  V30 9028 C 943.513 1.57949 0.301444 0
M  V30 9029 O 944.703 1.73986 0.0863341 0
M  V30 9030 C 941.835 3.40853 0.0565208 0
M  V30 9031 H 943.028 2.57008 -1.54554 0
M  V30 9032 H 940.581 1.31974 -0.837408 0
M  V30 9033 H 941.316 3.09373 0.972553 0
M  V30 9034 H 941.101 3.87128 -0.622439 0
M  V30 9035 H 942.591 4.16344 0.323652 0
M  V30 9036 N 943.028 0.824394 1.34319 0
M  V30 9037 C 944.439 0.471802 1.8064 0
M  V30 9038 C 944.79 -1.00793 1.6833 0
M  V30 9039 O 943.915 -1.78447 1.22416 0
M  V30 9040 C 944.51 0.849609 3.27974 0
M  V30 9041 C 943.069 0.549365 3.72369 0
M  V30 9042 C 942.216 1.06573 2.56003 0
M  V30 9043 H 945.167 1.01443 1.22045 0
M  V30 9044 H 945.188 0.153968 3.80188 0
M  V30 9045 H 944.7 1.92663 3.36902 0
M  V30 9046 H 942.801 -0.518182 3.68979 0
M  V30 9047 H 942.914 1.09446 4.66432 0
M  V30 9048 H 941.278 0.487214 2.49997 0
M  V30 9049 H 942.061 2.14923 2.677 0
M  V30 9050 N 944.506 -1.46559 0.579492 0
M  V30 9051 C 945.917 -1.8608 0.152052 0
M  V30 9052 C 946.268 -1.48346 -1.28405 0
M  V30 9053 O 945.393 -0.89685 -1.9694 0
M  V30 9054 C 945.988 -3.37729 0.269171 0
M  V30 9055 C 944.547 -3.76258 -0.103376 0
M  V30 9056 C 943.694 -2.70584 0.60659 0
M  V30 9057 H 946.645 -1.3776 0.787904 0
M  V30 9058 H 946.666 -3.77116 -0.506339 0
M  V30 9059 H 946.178 -3.65162 1.31448 0
M  V30 9060 H 944.279 -3.54443 -1.14895 0
M  V30 9061 H 944.392 -4.78335 0.270701 0
M  V30 9062 H 942.756 -2.54656 0.0471984 0
M  V30 9063 H 943.539 -3.00856 1.65349 0
M  V30 9064 N 945.984 -0.3171 -1.54377 0
M  V30 9065 C 946.916 0.58571 -2.2159 0
M  V30 9066 C 947.929 1.08495 -1.21378 0
M  V30 9067 O 949.118 0.999638 -1.47883 0
M  V30 9068 C 946.218 1.8157 -2.86156 0
M  V30 9069 C 945.391 1.45625 -4.12447 0
M  V30 9070 C 944.45 2.54308 -4.60667 0
M  V30 9071 O 943.476 2.18724 -5.25498 0
M  V30 9072 N 944.678 3.85129 -4.34345 0
M  V30 9073 H 947.443 0.0102247 -2.99698 0
M  V30 9074 H 945.004 -0.140011 -1.61293 0
M  V30 9075 H 946.996 2.53657 -3.15341 0
M  V30 9076 H 945.566 2.29919 -2.11793 0
M  V30 9077 H 944.786 0.567294 -3.90097 0
M  V30 9078 H 946.074 1.19169 -4.94648 0
M  V30 9079 H 945.472 4.16841 -3.8244 0
M  V30 9080 H 944.029 4.53466 -4.68201 0
M  V30 9081 N 947.462 1.57535 -0.0451378 0
M  V30 9082 C 948.394 2.08109 0.960372 0
M  V30 9083 C 949.407 1.0077 1.27864 0
M  V30 9084 O 950.596 1.28351 1.24049 0
M  V30 9085 C 947.696 2.50414 2.28355 0
M  V30 9086 C 946.869 3.8102 2.14808 0
M  V30 9087 C 945.928 4.09702 3.30198 0
M  V30 9088 O 944.954 4.79715 3.0637 0
M  V30 9089 N 946.156 3.61138 4.54489 0
M  V30 9090 H 948.921 2.94999 0.528752 0
M  V30 9091 H 946.482 1.61283 0.141248 0
M  V30 9092 H 948.474 2.66683 3.04405 0
M  V30 9093 H 947.044 1.68805 2.63104 0
M  V30 9094 H 946.264 3.74392 1.23387 0
M  V30 9095 H 947.552 4.66559 2.02978 0
M  V30 9096 H 946.95 3.04527 4.76739 0
M  V30 9097 H 945.507 3.82656 5.27653 0
M  V30 9098 N 948.94 -0.228186 1.55939 0
M  V30 9099 C 950.217 -0.977492 1.69424 0
M  V30 9100 C 950.597 -2.02674 0.590479 0
M  V30 9101 O 949.945 -2.2491 -0.403467 0
M  V30 9102 C 950.155 -1.59394 3.10475 0
M  V30 9103 C 951.503 -2.08871 3.69673 0
M  V30 9104 O 952.527 -1.693 3.13394 0
M  V30 9105 O 951.386 -2.81584 4.68372 0
M  V30 9106 H 948.48 -0.456185 0.6898 0
M  V30 9107 H 951.026 -0.220492 1.68261 0
M  V30 9108 H 949.798 -0.835971 3.82266 0
M  V30 9109 H 949.421 -2.41665 3.15727 0
M  V30 9110 N 950.418 -1.49637 -0.494624 0
M  V30 9111 C 951.648 -1.62928 -1.27036 0
M  V30 9112 C 952.056 -0.302464 -1.86767 0
M  V30 9113 O 951.399 0.722878 -1.68879 0
M  V30 9114 C 951.461 -2.64449 -2.43531 0
M  V30 9115 C 951.125 -4.08632 -2.0462 0
M  V30 9116 C 952.122 -4.95238 -1.58225 0
M  V30 9117 C 949.807 -4.54405 -2.1406 0
M  V30 9118 C 951.801 -6.25658 -1.21782 0
M  V30 9119 C 949.488 -5.84836 -1.77228 0
M  V30 9120 C 950.486 -6.70287 -1.31165 0
M  V30 9121 O 950.174 -7.98287 -0.948339 0
M  V30 9122 H 949.906 -0.551263 -0.391261 0
M  V30 9123 H 952.46 -1.96453 -0.599621 0
M  V30 9124 H 950.69 -2.26117 -3.137 0
M  V30 9125 H 952.379 -2.67203 -3.05545 0
M  V30 9126 H 953.145 -4.611 -1.50373 0
M  V30 9127 H 949.024 -3.88056 -2.48865 0
M  V30 9128 H 952.568 -6.92309 -0.857566 0
M  V30 9129 H 948.465 -6.18502 -1.84732 0
M  V30 9130 H 949.233 -8.11353 -1.07925 0
M  V30 9131 N 951.896 0.746133 -1.38819 0
M  V30 9132 C 953.124 1.53539 -1.38685 0
M  V30 9133 C 953.539 1.88788 0.0215039 0
M  V30 9134 O 952.896 1.53312 0.990031 0
M  V30 9135 C 952.947 2.8299 -2.24942 0
M  V30 9136 O 952.668 2.49242 -3.60292 0
M  V30 9137 C 954.169 3.77085 -2.3307 0
M  V30 9138 H 951.389 0.474842 -0.474095 0
M  V30 9139 H 953.933 0.922844 -1.82493 0
M  V30 9140 H 952.088 3.40603 -1.84576 0
M  V30 9141 H 952.502 3.32319 -4.05789 0
M  V30 9142 H 953.976 4.64845 -2.97696 0
M  V30 9143 H 954.453 4.18049 -1.34655 0
M  V30 9144 H 955.059 3.25394 -2.73859 0
M  V30 9145 N 953.375 1.23811 0.975125 0
M  V30 9146 C 954.322 1.02394 2.06843 0
M  V30 9147 C 955.292 -0.060337 1.6599 0
M  V30 9148 O 956.477 0.0928187 1.90574 0
M  V30 9149 C 953.617 0.626882 3.39359 0
M  V30 9150 C 952.73 1.78385 3.9345 0
M  V30 9151 C 951.865 1.33307 5.14201 0
M  V30 9152 C 950.904 2.46045 5.60471 0
M  V30 9153 N 950.041 2.01888 6.72448 0
M  V30 9154 H 954.881 1.95973 2.24496 0
M  V30 9155 H 952.418 0.976206 1.10039 0
M  V30 9156 H 954.376 0.377742 4.15486 0
M  V30 9157 H 953.006 -0.271907 3.21653 0
M  V30 9158 H 952.058 2.14685 3.14029 0
M  V30 9159 H 953.37 2.63122 4.23755 0
M  V30 9160 H 952.524 1.04237 5.97678 0
M  V30 9161 H 951.263 0.456143 4.85562 0
M  V30 9162 H 950.268 2.75884 4.75571 0
M  V30 9163 H 951.493 3.34283 5.91127 0
M  V30 9164 H 949.439 1.16583 6.45558 0
M  V30 9165 H 949.356 2.80182 7.02164 0
M  V30 9166 H 950.624 1.75937 7.59386 0
M  V30 9167 N 954.853 -1.17469 1.05066 0
M  V30 9168 C 955.816 -2.19648 0.654793 0
M  V30 9169 C 956.816 -1.58107 -0.293063 0
M  V30 9170 O 958.006 -1.74029 -0.077106 0
M  V30 9171 C 955.138 -3.40878 -0.0384437 0
M  V30 9172 H 956.331 -2.56184 1.55915 0
M  V30 9173 H 953.884 -1.31528 0.844396 0
M  V30 9174 H 954.619 -3.09885 -0.956133 0
M  V30 9175 H 954.404 -3.86792 0.642961 0
M  V30 9176 H 955.894 -4.1651 -0.301568 0
M  V30 9177 N 956.331 -0.831506 -1.3388 0
M  V30 9178 C 957.577 -0.433509 -1.98727 0
M  V30 9179 C 957.932 0.994508 -1.64704 0
M  V30 9180 O 957.225 1.68458 -0.912815 0
M  V30 9181 C 957.419 -0.582733 -3.52617 0
M  V30 9182 C 957.248 -2.0237 -4.01592 0
M  V30 9183 C 956.018 -2.6574 -4.29779 0
M  V30 9184 C 958.216 -2.99152 -4.18345 0
M  V30 9185 N 956.198 -4.00988 -4.64846 0
M  V30 9186 C 957.569 -4.19329 -4.56687 0
M  V30 9187 C 959.624 -2.95655 -4.00615 0
M  V30 9188 C 958.327 -5.36475 -4.79152 0
M  V30 9189 C 960.353 -4.12025 -4.24252 0
M  V30 9190 C 959.715 -5.30955 -4.62889 0
M  V30 9191 H 955.814 -0.20691 -0.75413 0
M  V30 9192 H 958.398 -1.07802 -1.62132 0
M  V30 9193 H 956.569 0.0319301 -3.88387 0
M  V30 9194 H 958.301 -0.156899 -4.04396 0
M  V30 9195 H 955.056 -2.16923 -4.21 0
M  V30 9196 H 955.48 -4.7069 -4.86601 0
M  V30 9197 H 960.122 -2.04842 -3.69864 0
M  V30 9198 H 957.84 -6.27839 -5.08767 0
M  V30 9199 H 961.426 -4.10728 -4.1206 0
M  V30 9200 H 960.306 -6.19504 -4.80817 0
M  V30 9201 N 957.809 1.4625 -0.587256 0
M  V30 9202 C 958.719 2.34147 0.145744 0
M  V30 9203 C 959.735 1.50026 0.881376 0
M  V30 9204 O 960.911 1.82884 0.843539 0
M  V30 9205 C 957.976 3.27294 1.14366 0
M  V30 9206 C 957.037 4.27317 0.412199 0
M  V30 9207 C 956.27 5.16013 1.36257 0
M  V30 9208 O 956.493 5.0773 2.59934 0
M  V30 9209 O 955.427 5.95569 0.870681 0
M  V30 9210 H 959.253 2.98187 -0.576055 0
M  V30 9211 H 956.838 1.45299 -0.347628 0
M  V30 9212 H 958.72 3.84747 1.71894 0
M  V30 9213 H 957.395 2.65845 1.84684 0
M  V30 9214 H 956.302 3.73538 -0.205036 0
M  V30 9215 H 957.635 4.91564 -0.250104 0
M  V30 9216 N 959.287 0.325282 1.54207 0
M  V30 9217 C 960.197 -0.548778 2.28091 0
M  V30 9218 C 961.213 -1.12772 1.32508 0
M  V30 9219 O 962.389 -1.14732 1.65525 0
M  V30 9220 C 959.454 -1.69284 3.02562 0
M  V30 9221 C 958.515 -1.14553 4.13734 0
M  V30 9222 C 957.748 -2.23506 4.84645 0
M  V30 9223 O 957.971 -3.43884 4.55082 0
M  V30 9224 O 956.905 -1.88828 5.71513 0
M  V30 9225 H 960.731 0.0512974 3.03657 0
M  V30 9226 H 958.316 0.0909159 1.49123 0
M  V30 9227 H 960.198 -2.35887 3.49192 0
M  V30 9228 H 958.873 -2.27906 2.2987 0
M  V30 9229 H 957.78 -0.444532 3.71449 0
M  V30 9230 H 959.113 -0.60441 4.88475 0
M  V30 9231 N 960.765 -1.57509 0.0534917 0
M  V30 9232 C 961.995 -1.96812 -0.628386 0
M  V30 9233 C 962.403 -0.929808 -1.64776 0
M  V30 9234 O 961.746 0.0941155 -1.83459 0
M  V30 9235 C 961.808 -3.32361 -1.37027 0
M  V30 9236 C 961.472 -4.54185 -0.506465 0
M  V30 9237 C 962.469 -5.19398 0.228412 0
M  V30 9238 C 960.154 -5.00398 -0.43671 0
M  V30 9239 C 962.148 -6.29162 1.02146 0
M  V30 9240 C 959.835 -6.10039 0.360022 0
M  V30 9241 C 960.833 -6.74282 1.08779 0
M  V30 9242 O 960.521 -7.81814 1.87142 0
M  V30 9243 H 960.253 -0.65257 -0.176432 0
M  V30 9244 H 962.807 -2.05067 0.116908 0
M  V30 9245 H 961.037 -3.20667 -2.16125 0
M  V30 9246 H 962.726 -3.56395 -1.94261 0
M  V30 9247 H 963.492 -4.84651 0.184003 0
M  V30 9248 H 959.371 -4.50183 -0.992772 0
M  V30 9249 H 962.915 -6.79238 1.59002 0
M  V30 9250 H 958.812 -6.44222 0.406061 0
M  V30 9251 H 959.58 -7.98602 1.79378 0
M  V30 9252 N 962.243 0.219913 -1.56058 0
M  V30 9253 C 963.473 0.959521 -1.82967 0
M  V30 9254 C 963.881 1.78382 -0.630602 0
M  V30 9255 O 963.224 1.79062 0.410203 0
M  V30 9256 C 963.286 1.92481 -3.0363 0
M  V30 9257 C 962.95 1.28487 -4.38566 0
M  V30 9258 C 963.947 0.673946 -5.15513 0
M  V30 9259 C 961.632 1.29615 -4.85289 0
M  V30 9260 C 963.626 0.0828324 -6.37346 0
M  V30 9261 C 961.313 0.701191 -6.07064 0
M  V30 9262 C 962.311 0.0955877 -6.82933 0
M  V30 9263 O 961.999 -0.490109 -8.02405 0
M  V30 9264 H 961.731 0.286709 -0.612188 0
M  V30 9265 H 964.285 0.239761 -2.03996 0
M  V30 9266 H 962.515 2.6836 -2.78424 0
M  V30 9267 H 964.204 2.5301 -3.17397 0
M  V30 9268 H 964.97 0.657548 -4.80522 0
M  V30 9269 H 960.849 1.75691 -4.26208 0
M  V30 9270 H 964.393 -0.390482 -6.96506 0
M  V30 9271 H 960.29 0.715007 -6.41528 0
M  V30 9272 H 961.058 -0.384588 -8.17596 0
M  V30 9273 N 963.721 1.49897 0.486681 0
M  V30 9274 C 964.668 1.67619 1.58658 0
M  V30 9275 C 965.638 0.517537 1.57831 0
M  V30 9276 O 966.823 0.746272 1.756 0
M  V30 9277 C 963.963 1.762 2.96728 0
M  V30 9278 C 963.076 3.03465 3.07462 0
M  V30 9279 C 962.211 3.02937 4.36351 0
M  V30 9280 C 961.25 4.24721 4.4077 0
M  V30 9281 N 960.387 4.22021 5.61108 0
M  V30 9282 H 965.227 2.61528 1.42853 0
M  V30 9283 H 962.764 1.29657 0.694807 0
M  V30 9284 H 964.722 1.79156 3.76774 0
M  V30 9285 H 963.352 0.857452 3.11203 0
M  V30 9286 H 962.404 3.10054 2.20387 0
M  V30 9287 H 963.716 3.93454 3.06586 0
M  V30 9288 H 962.87 3.04536 5.24731 0
M  V30 9289 H 961.609 2.10751 4.39813 0
M  V30 9290 H 960.614 4.23352 3.5079 0
M  V30 9291 H 961.839 5.18116 4.39013 0
M  V30 9292 H 959.785 3.3268 5.65385 0
M  V30 9293 H 959.702 5.05761 5.61909 0
M  V30 9294 H 960.97 4.27743 6.51656 0
M  V30 9295 N 965.199 -0.738761 1.39212 0
M  V30 9296 C 966.146 -1.85273 1.37631 0
M  V30 9297 C 967.116 -1.64407 0.236572 0
M  V30 9298 O 968.301 -1.85866 0.431104 0
M  V30 9299 C 965.441 -3.22745 1.22188 0
M  V30 9300 C 964.554 -3.55342 2.45674 0
M  V30 9301 C 963.689 -4.82195 2.22847 0
M  V30 9302 C 962.728 -5.07625 3.42029 0
M  V30 9303 N 961.865 -6.25679 3.18543 0
M  V30 9304 H 966.705 -1.85959 2.32859 0
M  V30 9305 H 964.242 -0.908716 1.15675 0
M  V30 9306 H 966.2 -4.02095 1.11245 0
M  V30 9307 H 964.83 -3.21347 0.30592 0
M  V30 9308 H 963.882 -2.70722 2.67233 0
M  V30 9309 H 965.194 -3.70054 3.34457 0
M  V30 9310 H 964.348 -5.69518 2.09126 0
M  V30 9311 H 963.087 -4.6965 1.31454 0
M  V30 9312 H 962.092 -4.18765 3.56253 0
M  V30 9313 H 963.317 -5.22058 4.34319 0
M  V30 9314 H 961.263 -6.14429 2.2981 0
M  V30 9315 H 961.18 -6.40961 4.0088 0
M  V30 9316 H 962.448 -7.15851 3.08508 0
M  V30 9317 N 966.677 -1.24326 -0.968545 0
M  V30 9318 C 967.609 -0.992749 -2.06584 0
M  V30 9319 C 968.622 0.0374902 -1.62757 0
M  V30 9320 O 969.811 -0.199448 -1.77382 0
M  V30 9321 C 966.911 -0.476165 -3.35538 0
M  V30 9322 C 966.084 -1.56934 -4.08277 0
M  V30 9323 C 965.143 -1.05555 -5.15504 0
M  V30 9324 O 964.169 -1.74707 -5.41725 0
M  V30 9325 N 965.371 0.110465 -5.80395 0
M  V30 9326 H 968.136 -1.93752 -2.28649 0
M  V30 9327 H 965.697 -1.15344 -1.13611 0
M  V30 9328 H 967.689 -0.117223 -4.0453 0
M  V30 9329 H 966.259 0.374315 -3.10351 0
M  V30 9330 H 965.479 -2.10051 -3.33575 0
M  V30 9331 H 966.767 -2.30415 -4.53637 0
M  V30 9332 H 966.165 0.688614 -5.61493 0
M  V30 9333 H 964.722 0.41056 -6.50506 0
M  V30 9334 N 968.156 1.1691 -1.05688 0
M  V30 9335 C 969.119 2.19297 -0.666433 0
M  V30 9336 C 970.119 1.5826 0.284674 0
M  V30 9337 O 971.309 1.74068 0.0678757 0
M  V30 9338 C 968.441 3.40894 0.0203656 0
M  V30 9339 H 969.634 2.55354 -1.57272 0
M  V30 9340 H 967.187 1.31078 -0.851359 0
M  V30 9341 H 967.922 3.10388 0.939686 0
M  V30 9342 H 967.707 3.86446 -0.663464 0
M  V30 9343 H 969.197 4.16664 0.279475 0
M  V30 9344 N 969.634 0.838594 1.33437 0
M  V30 9345 C 970.566 0.229006 2.28053 0
M  V30 9346 C 971.579 -0.590103 1.51729 0
M  V30 9347 O 972.768 -0.417218 1.73556 0
M  V30 9348 C 969.868 -0.696251 3.31671 0
M  V30 9349 C 969.041 0.0834606 4.3732 0
M  V30 9350 C 968.1 -0.765097 5.20608 0
M  V30 9351 O 967.126 -0.2044 5.68833 0
M  V30 9352 N 968.328 -2.08249 5.4186 0
M  V30 9353 H 971.093 1.04196 2.81004 0
M  V30 9354 H 968.654 0.697031 1.46127 0
M  V30 9355 H 970.646 -1.26889 3.84293 0
M  V30 9356 H 969.216 -1.40992 2.78998 0
M  V30 9357 H 968.436 0.837481 3.85201 0
M  V30 9358 H 969.724 0.619613 5.05013 0
M  V30 9359 H 969.122 -2.56156 5.04381 0
M  V30 9360 H 967.679 -2.60362 5.97541 0
M  V30 9361 N 971.112 -1.45937 0.595003 0
M  V30 9362 C 972.358 -2.0262 0.0854317 0
M  V30 9363 C 972.691 -1.46402 -1.27594 0
M  V30 9364 O 971.966 -0.633823 -1.83883 0
M  V30 9365 C 972.249 -3.60085 0.0329075 0
M  V30 9366 C 972.102 -4.26663 1.42405 0
M  V30 9367 C 973.421 -4.35101 -0.661426 0
M  V30 9368 H 970.54 -0.736282 0.0325196 0
M  V30 9369 H 973.182 -1.73938 0.764563 0
M  V30 9370 H 971.332 -3.84652 -0.545439 0
M  V30 9371 H 973.004 -4.13321 2.04851 0
M  V30 9372 H 971.247 -3.85549 1.98833 0
M  V30 9373 H 971.918 -5.35497 1.33965 0
M  V30 9374 H 974.394 -4.15753 -0.169977 0
M  V30 9375 H 973.27 -5.44829 -0.667243 0
M  V30 9376 H 973.531 -4.07053 -1.72513 0
M  V30 9377 N 972.59 -0.333456 -1.54032 0
M  V30 9378 C 973.553 0.515392 -2.2333 0
M  V30 9379 C 974.553 1.03566 -1.23007 0
M  V30 9380 O 975.743 0.926514 -1.47517 0
M  V30 9381 C 972.875 1.7169 -2.94508 0
M  V30 9382 H 974.068 -0.0905407 -2.99763 0
M  V30 9383 H 971.621 -0.0846651 -1.56071 0
M  V30 9384 H 972.356 2.3618 -2.22237 0
M  V30 9385 H 972.141 1.35115 -3.68085 0
M  V30 9386 H 973.631 2.31922 -3.47278 0
M  V30 9387 N 974.068 1.57479 -0.061844 0
M  V30 9388 C 975.296 1.97429 0.618837 0
M  V30 9389 C 975.711 0.939826 1.63746 0
M  V30 9390 O 975.068 -0.0747173 1.82347 0
M  V30 9391 C 975.119 3.3746 1.29628 0
M  V30 9392 O 974.84 4.36941 0.318431 0
M  V30 9393 C 976.341 3.92228 2.06572 0
M  V30 9394 H 973.561 0.649513 0.168444 0
M  V30 9395 H 976.105 2.04078 -0.131303 0
M  V30 9396 H 974.26 3.31928 1.99757 0
M  V30 9397 H 974.674 5.18313 0.803239 0
M  V30 9398 H 976.148 4.92458 2.49377 0
M  V30 9399 H 976.625 3.28231 2.91824 0
M  V30 9400 H 977.231 4.01131 1.4133 0
M  V30 9401 N 975.546 -0.211634 1.56173 0
M  V30 9402 C 976.794 -0.932704 1.7929 0
M  V30 9403 C 977.115 -1.84472 0.632076 0
M  V30 9404 O 976.385 -1.92739 -0.350519 0
M  V30 9405 H 974.965 -0.347393 0.661307 0
M  V30 9406 H 977.627 -0.22111 1.93642 0
M  V30 9407 H 976.723 -1.53365 2.71819 0
M  V30 9408 N 977.024 -1.50153 -0.478725 0
M  V30 9409 C 978.272 -1.60443 -1.22892 0
M  V30 9410 C 978.593 -0.303276 -1.92627 0
M  V30 9411 O 977.863 0.678798 -1.83764 0
M  V30 9412 H 976.443 -0.591205 -0.456602 0
M  V30 9413 H 979.105 -1.86893 -0.552905 0
M  V30 9414 H 978.201 -2.41175 -1.98094 0
M  V30 9415 N 978.502 0.731368 -1.39602 0
M  V30 9416 C 979.75 1.48805 -1.36753 0
M  V30 9417 C 980.071 1.94969 0.034676 0
M  V30 9418 O 979.341 1.69243 0.986591 0
M  V30 9419 H 977.921 0.55203 -0.503261 0
M  V30 9420 H 980.583 0.868013 -1.74504 0
M  V30 9421 H 979.679 2.36844 -2.03252 0
M  V30 9422 N 979.98 1.24838 0.961938 0
M  V30 9423 C 981.391 1.08369 1.5203 0
M  V30 9424 C 981.742 -0.343005 1.93178 0
M  V30 9425 O 980.867 -1.2321 1.779 0
M  V30 9426 C 981.462 1.96102 2.76278 0
M  V30 9427 C 980.021 1.8384 3.28451 0
M  V30 9428 C 979.168 1.9069 2.01327 0
M  V30 9429 H 982.119 1.38231 0.779613 0
M  V30 9430 H 982.14 1.4967 3.49827 0
M  V30 9431 H 981.652 2.99931 2.46298 0
M  V30 9432 H 979.753 0.828653 3.63269 0
M  V30 9433 H 979.866 2.68251 3.96961 0
M  V30 9434 H 978.23 1.34488 2.16299 0
M  V30 9435 H 979.013 2.96111 1.73705 0
M  V30 9436 N 981.458 -1.16348 1.06306 0
M  V30 9437 C 982.706 -1.86512 0.778311 0
M  V30 9438 C 983.027 -1.82107 -0.697273 0
M  V30 9439 O 982.297 -1.2547 -1.50446 0
M  V30 9440 H 980.877 -0.690529 0.284919 0
M  V30 9441 H 983.539 -1.41092 1.34458 0
M  V30 9442 H 982.635 -2.91947 1.10333 0
M  V30 9443 N 982.937 -0.845659 -1.3299 0
M  V30 9444 C 983.9 -0.288905 -2.27372 0
M  V30 9445 C 984.9 0.546263 -1.51237 0
M  V30 9446 O 986.09 0.359072 -1.70459 0
M  V30 9447 C 983.222 0.59224 -3.35716 0
M  V30 9448 H 984.415 -1.12181 -2.78128 0
M  V30 9449 H 981.968 -0.619276 -1.43508 0
M  V30 9450 H 982.703 1.44732 -2.90212 0
M  V30 9451 H 982.488 -0.00543255 -3.921 0
M  V30 9452 H 983.978 0.974848 -4.06062 0
M  V30 9453 N 984.415 1.45619 -0.602734 0
M  V30 9454 C 985.826 1.85814 -0.181636 0
M  V30 9455 C 986.177 1.5037 1.26029 0
M  V30 9456 O 985.302 0.928068 1.95489 0
M  V30 9457 C 985.897 3.37258 -0.322866 0
M  V30 9458 C 984.456 3.76375 0.043504 0
M  V30 9459 C 983.603 2.69585 -0.649561 0
M  V30 9460 H 986.554 1.36489 -0.809721 0
M  V30 9461 H 986.575 3.77874 0.446279 0
M  V30 9462 H 986.087 3.63024 -1.37241 0
M  V30 9463 H 984.188 3.56226 1.09241 0
M  V30 9464 H 984.301 4.77843 -0.346765 0
M  V30 9465 H 982.665 2.54549 -0.087706 0
M  V30 9466 H 983.448 2.98188 -1.70115 0
M  V30 9467 N 985.893 0.34162 1.53853 0
M  V30 9468 C 987.304 -0.14269 1.86154 0
M  V30 9469 C 987.655 -1.50151 1.2629 0
M  V30 9470 O 986.78 -2.08601 0.575735 0
M  V30 9471 C 987.375 -0.265691 3.37757 0
M  V30 9472 C 985.934 -0.694231 3.69942 0
M  V30 9473 C 985.081 0.173195 2.76759 0
M  V30 9474 H 988.032 0.561284 1.48443 0
M  V30 9475 H 988.053 -1.09352 3.64448 0
M  V30 9476 H 987.565 0.723424 3.81298 0
M  V30 9477 H 985.666 -1.69244 3.31945 0
M  V30 9478 H 985.779 -0.485461 4.76634 0
M  V30 9479 H 984.143 -0.35416 2.52226 0
M  V30 9480 H 984.926 1.15941 3.23129 0
M  V30 9481 N 987.371 -1.57444 0.0701946 0
M  V30 9482 C 988.619 -1.93047 -0.598106 0
M  V30 9483 C 988.94 -0.950841 -1.70247 0
M  V30 9484 O 988.21 0.00127177 -1.959 0
M  V30 9485 H 986.79 -0.712648 -0.223924 0
M  V30 9486 H 989.452 -1.94481 0.127674 0
M  V30 9487 H 988.548 -2.94807 -1.02445 0
M  V30 9488 N 988.849 0.203349 -1.56283 0
M  V30 9489 C 990.074 0.945548 -1.84592 0
M  V30 9490 C 990.499 1.7641 -0.652772 0
M  V30 9491 O 989.857 1.76867 0.398468 0
M  V30 9492 C 989.905 1.82416 -3.11057 0
M  V30 9493 O 989.009 2.92191 -2.9103 0
M  V30 9494 H 988.35 0.266739 -0.608068 0
M  V30 9495 H 990.88 0.211158 -2.03507 0
M  V30 9496 H 990.89 2.23044 -3.41636 0
M  V30 9497 H 989.565 1.22267 -3.97522 0
M  V30 9498 H 988.142 2.55378 -2.71728 0
M  V30 9499 N 990.327 1.50405 0.470755 0
M  V30 9500 C 991.259 1.65447 1.58619 0
M  V30 9501 C 992.272 0.535949 1.53725 0
M  V30 9502 O 993.461 0.80914 1.59107 0
M  V30 9503 C 990.561 1.62318 2.975 0
M  V30 9504 C 989.734 2.90207 3.27259 0
M  V30 9505 C 988.793 2.79717 4.45696 0
M  V30 9506 O 987.819 3.53672 4.45987 0
M  V30 9507 N 989.021 1.93296 5.47373 0
M  V30 9508 H 991.786 2.61659 1.46132 0
M  V30 9509 H 989.347 1.47873 0.659178 0
M  V30 9510 H 991.339 1.52912 3.747 0
M  V30 9511 H 989.909 0.738392 3.03754 0
M  V30 9512 H 989.129 3.13737 2.38669 0
M  V30 9513 H 990.417 3.74931 3.43953 0
M  V30 9514 H 989.815 1.32524 5.49958 0
M  V30 9515 H 988.372 1.89793 6.23556 0
M  V30 9516 N 991.805 -0.723954 1.39988 0
M  V30 9517 C 993.216 -1.30273 1.33738 0
M  V30 9518 C 993.567 -1.96199 0.00690581 0
M  V30 9519 O 992.692 -1.97016 -0.895179 0
M  V30 9520 C 993.287 -2.36889 2.42217 0
M  V30 9521 C 991.846 -2.90412 2.39453 0
M  V30 9522 C 990.993 -1.64103 2.2353 0
M  V30 9523 H 993.944 -0.520672 1.49916 0
M  V30 9524 H 993.965 -3.17538 2.09642 0
M  V30 9525 H 993.477 -1.88878 3.39038 0
M  V30 9526 H 991.578 -3.42674 1.46304 0
M  V30 9527 H 991.691 -3.42775 3.34727 0
M  V30 9528 H 990.055 -1.88855 1.70897 0
M  V30 9529 H 990.838 -1.18128 3.22336 0
M  V30 9530 N 993.283 -1.25346 -0.955304 0
M  V30 9531 C 994.56 -1.00829 -1.67609 0
M  V30 9532 C 994.94 0.465675 -2.059 0
M  V30 9533 O 994.288 1.44287 -1.77182 0
M  V30 9534 C 994.498 -1.94337 -2.89886 0
M  V30 9535 C 995.846 -2.22142 -3.61854 0
M  V30 9536 O 996.87 -1.9209 -2.99967 0
M  V30 9537 O 995.729 -2.73239 -4.73289 0
M  V30 9538 H 992.823 -0.382314 -0.733325 0
M  V30 9539 H 995.369 -1.36498 -1.00829 0
M  V30 9540 H 994.141 -2.93867 -2.58376 0
M  V30 9541 H 993.764 -1.59062 -3.64397 0
M  V30 9542 N 994.761 1.15782 -1.06922 0
M  V30 9543 C 995.991 1.90079 -0.809545 0
M  V30 9544 C 996.399 1.78028 0.640523 0
M  V30 9545 O 995.742 1.12692 1.45073 0
M  V30 9546 C 995.804 3.41179 -1.13302 0
M  V30 9547 C 995.468 3.77015 -2.5828 0
M  V30 9548 C 996.465 3.78403 -3.56521 0
M  V30 9549 C 994.15 4.07455 -2.93745 0
M  V30 9550 C 996.144 4.09729 -4.88264 0
M  V30 9551 C 993.831 4.38446 -4.25686 0
M  V30 9552 C 994.829 4.39564 -5.22755 0
M  V30 9553 O 994.517 4.69814 -6.52326 0
M  V30 9554 H 994.249 0.609397 -0.292595 0
M  V30 9555 H 996.803 1.47654 -1.42784 0
M  V30 9556 H 995.033 3.83982 -0.457676 0
M  V30 9557 H 996.722 3.96759 -0.856586 0
M  V30 9558 H 997.488 3.54991 -3.30464 0
M  V30 9559 H 993.367 4.05746 -2.1884 0
M  V30 9560 H 996.911 4.10516 -5.64023 0
M  V30 9561 H 992.808 4.61325 -4.51497 0
M  V30 9562 H 993.576 4.87598 -6.57412 0
M  V30 9563 N 996.239 0.8527 1.3254 0
M  V30 9564 C 997.464 0.468157 2.02047 0
M  V30 9565 C 997.889 -0.926967 1.63673 0
M  V30 9566 O 997.247 -1.60855 0.836378 0
M  V30 9567 C 997.295 0.612519 3.5536 0
M  V30 9568 O 996.399 -0.355506 4.10865 0
M  V30 9569 H 995.74 0.188401 0.636711 0
M  V30 9570 H 998.27 1.15135 1.6913 0
M  V30 9571 H 998.28 0.499315 4.04933 0
M  V30 9572 H 996.955 1.62988 3.82632 0
M  V30 9573 H 995.532 -0.198703 3.7237 0
M  V30 9574 N 997.718 -1.45297 0.610449 0
M  V30 9575 C 998.681 -2.28995 -0.0968194 0
M  V30 9576 C 999.681 -1.39923 -0.792353 0
M  V30 9577 O 1000.87 -1.62014 -0.64008 0
M  V30 9578 C 998.003 -3.21013 -1.14731 0
M  V30 9579 H 999.196 -2.93012 0.639082 0
M  V30 9580 H 996.749 -1.51867 0.369624 0
M  V30 9581 H 997.484 -2.61803 -1.91388 0
M  V30 9582 H 997.269 -3.86628 -0.652753 0
M  V30 9583 H 998.759 -3.8394 -1.64256 0
M  V30 9584 N 999.196 -0.349774 -1.5367 0
M  V30 9585 C 1000.16 0.491676 -2.23864 0
M  V30 9586 C 1001.16 1.02256 -1.24098 0
M  V30 9587 O 1002.35 0.910816 -1.48492 0
M  V30 9588 C 999.481 1.68557 -2.96313 0
M  V30 9589 H 1000.67 -0.12233 -2.9965 0
M  V30 9590 H 998.227 -0.101214 -1.55972 0
M  V30 9591 H 998.962 2.3381 -2.2473 0
M  V30 9592 H 998.747 1.31203 -3.69497 0
M  V30 9593 H 1000.24 2.28225 -3.49718 0
M  V30 9594 N 1000.67 1.57404 -0.0785433 0
M  V30 9595 C 1001.92 1.9484 0.583853 0
M  V30 9596 C 1002.27 0.958758 1.6681 0
M  V30 9597 O 1001.57 -0.0179065 1.91592 0
M  V30 9598 C 1001.76 3.36684 1.1991 0
M  V30 9599 C 1001.59 4.49356 0.175978 0
M  V30 9600 C 1000.36 5.04721 -0.241733 0
M  V30 9601 C 1002.56 5.10911 -0.589415 0
M  V30 9602 N 1000.54 6.00938 -1.25485 0
M  V30 9603 C 1001.91 6.0269 -1.45483 0
M  V30 9604 C 1003.97 4.93708 -0.644746 0
M  V30 9605 C 1002.67 6.79111 -2.37066 0
M  V30 9606 C 1004.7 5.70778 -1.54812 0
M  V30 9607 C 1004.06 6.6221 -2.40119 0
M  V30 9608 H 1000.16 0.75993 0.184472 0
M  V30 9609 H 1002.74 1.94064 -0.157259 0
M  V30 9610 H 1000.91 3.38186 1.91011 0
M  V30 9611 H 1002.64 3.6134 1.82251 0
M  V30 9612 H 999.399 4.73385 0.142732 0
M  V30 9613 H 999.823 6.53746 -1.75912 0
M  V30 9614 H 1004.46 4.228 0.000601434 0
M  V30 9615 H 1002.18 7.49292 -3.02634 0
M  V30 9616 H 1005.77 5.59485 -1.59586 0
M  V30 9617 H 1004.65 7.20804 -3.08887 0
M  V30 9618 N 1002.15 -0.195058 1.56388 0
M  V30 9619 C 1003.11 -1.2254 1.93692 0
M  V30 9620 C 1004.11 -1.38437 0.81804 0
M  V30 9621 O 1005.3 -1.36248 1.08545 0
M  V30 9622 C 1002.44 -2.59476 2.21099 0
M  V30 9623 H 1003.63 -0.906544 2.8587 0
M  V30 9624 H 1001.18 -0.436577 1.50079 0
M  V30 9625 H 1001.92 -2.96417 1.31558 0
M  V30 9626 H 1001.7 -2.4931 3.02634 0
M  V30 9627 H 1003.19 -3.33777 2.50964 0
M  V30 9628 N 1003.63 -1.50653 -0.462772 0
M  V30 9629 C 1004.54 -1.72923 -1.58539 0
M  V30 9630 C 1005.56 -0.612577 -1.6286 0
M  V30 9631 O 1006.73 -0.891885 -1.80575 0
M  V30 9632 C 1003.8 -1.82623 -2.94703 0
M  V30 9633 C 1002.86 -3.06392 -3.00704 0
M  V30 9634 C 1002.09 -3.15618 -4.30373 0
M  V30 9635 O 1002.31 -2.31423 -5.21344 0
M  V30 9636 O 1001.25 -4.0841 -4.42136 0
M  V30 9637 H 1005.07 -2.68103 -1.42669 0
M  V30 9638 H 1002.66 -1.34848 -0.643144 0
M  V30 9639 H 1004.54 -1.91134 -3.7556 0
M  V30 9640 H 1003.22 -0.906275 -3.10754 0
M  V30 9641 H 1002.12 -3.03375 -2.18894 0
M  V30 9642 H 1003.46 -3.97992 -2.89591 0
M  V30 9643 N 1005.11 0.71652 -1.4037 0
M  V30 9644 C 1006.34 1.50344 -1.41704 0
M  V30 9645 C 1006.75 1.89194 -0.0148011 0
M  V30 9646 O 1006.09 1.55916 0.971391 0
M  V30 9647 C 1006.15 2.80928 -2.2432 0
M  V30 9648 C 1005.82 2.64406 -3.72744 0
M  V30 9649 C 1006.81 2.31727 -4.65401 0
M  V30 9650 C 1004.5 2.807 -4.16549 0
M  V30 9651 C 1006.49 2.15551 -5.99847 0
M  V30 9652 C 1004.18 2.64141 -5.51065 0
M  V30 9653 C 1005.18 2.31614 -6.42529 0
M  V30 9654 O 1004.86 2.15179 -7.74566 0
M  V30 9655 H 1004.6 0.470574 -0.48532 0
M  V30 9656 H 1007.15 0.89152 -1.85043 0
M  V30 9657 H 1005.38 3.4445 -1.75759 0
M  V30 9658 H 1007.07 3.4264 -2.17607 0
M  V30 9659 H 1007.84 2.18773 -4.32855 0
M  V30 9660 H 1003.71 3.05005 -3.45677 0
M  V30 9661 H 1007.26 1.90084 -6.71203 0
M  V30 9662 H 1003.16 2.76679 -5.83197 0
M  V30 9663 H 1003.92 2.30106 -7.85489 0
M  V30 9664 N 1006.59 1.25851 0.948643 0
M  V30 9665 C 1007.82 1.13546 1.726 0
M  V30 9666 C 1008.22 -0.312857 1.86595 0
M  V30 9667 O 1007.57 -1.22657 1.36751 0
M  V30 9668 C 1007.63 1.72315 3.15512 0
M  V30 9669 C 1007.29 3.2136 3.24926 0
M  V30 9670 C 1008.29 4.18274 3.08777 0
M  V30 9671 C 1005.98 3.61683 3.48555 0
M  V30 9672 C 1007.97 5.53491 3.16112 0
M  V30 9673 C 1005.66 4.97035 3.55526 0
M  V30 9674 C 1006.65 5.92749 3.3932 0
M  V30 9675 O 1006.34 7.25637 3.45985 0
M  V30 9676 H 1006.07 0.396555 0.547467 0
M  V30 9677 H 1008.63 1.66822 1.19832 0
M  V30 9678 H 1006.86 1.13494 3.6967 0
M  V30 9679 H 1008.55 1.55024 3.7513 0
M  V30 9680 H 1009.31 3.88461 2.90385 0
M  V30 9681 H 1005.19 2.87674 3.60229 0
M  V30 9682 H 1008.74 6.28177 3.0338 0
M  V30 9683 H 1004.63 5.26512 3.73437 0
M  V30 9684 H 1005.4 7.33812 3.62577 0
M  V30 9685 N 1008.06 -1.15214 1.07534 0
M  V30 9686 C 1009.48 -1.38031 0.801228 0
M  V30 9687 C 1009.68 -1.92556 -0.593672 0
M  V30 9688 O 1008.74 -2.1325 -1.35206 0
M  V30 9689 C 1010.05 -2.34958 1.87657 0
M  V30 9690 C 1011.6 -2.48617 1.90154 0
M  V30 9691 C 1012.07 -3.48837 2.96777 0
M  V30 9692 N 1013.56 -3.56374 2.95892 0
M  V30 9693 C 1014.3 -4.33746 3.75036 0
M  V30 9694 N 1013.79 -5.14435 4.64036 0
M  V30 9695 N 1015.59 -4.28853 3.63375 0
M  V30 9696 H 1007.74 -0.781639 1.97495 0
M  V30 9697 H 1010 -0.406243 0.856546 0
M  V30 9698 H 1009.71 -2.02013 2.87895 0
M  V30 9699 H 1009.58 -3.3476 1.73827 0
M  V30 9700 H 1011.97 -2.80859 0.905666 0
M  V30 9701 H 1012.05 -1.48808 2.08062 0
M  V30 9702 H 1011.69 -3.1733 3.96565 0
M  V30 9703 H 1011.62 -4.48406 2.76116 0
M  V30 9704 H 1014.11 -2.98784 2.31379 0
M  V30 9705 H 1014.43 -5.70722 5.21053 0
M  V30 9706 H 1012.77 -5.13734 4.68084 0
M  V30 9707 H 1015.96 -3.64882 2.93221 0
M  V30 9708 H 1016.14 -4.88903 4.25298 0
M  V30 9709 N 1009.54 -0.859717 -1.32086 0
M  V30 9710 C 1010.47 -0.265258 -2.2766 0
M  V30 9711 C 1011.49 0.565889 -1.52648 0
M  V30 9712 O 1012.68 0.389554 -1.74197 0
M  V30 9713 C 1009.78 0.643397 -3.32737 0
M  V30 9714 C 1008.95 -0.153024 -4.37132 0
M  V30 9715 C 1008.01 0.682176 -5.21759 0
M  V30 9716 O 1007.03 0.113878 -5.69086 0
M  V30 9717 N 1008.24 1.99602 -5.45105 0
M  V30 9718 H 1011 -1.08653 -2.79311 0
M  V30 9719 H 1008.56 -0.720191 -1.45 0
M  V30 9720 H 1010.55 1.20759 -3.86263 0
M  V30 9721 H 1009.12 1.36535 -2.81206 0
M  V30 9722 H 1008.34 -0.898657 -3.8382 0
M  V30 9723 H 1009.63 -0.699877 -5.03963 0
M  V30 9724 H 1009.03 2.481 -5.08393 0
M  V30 9725 H 1007.59 2.50823 -6.01607 0
M  V30 9726 N 1011.02 1.44971 -0.618145 0
M  V30 9727 C 1011.95 2.28815 0.132751 0
M  V30 9728 C 1012.97 1.40551 0.821535 0
M  V30 9729 O 1014.15 1.64827 0.685155 0
M  V30 9730 C 1011.25 3.1658 1.20955 0
M  V30 9731 C 1010.43 4.33184 0.605821 0
M  V30 9732 C 1009.49 5.0208 1.57488 0
M  V30 9733 O 1008.51 5.58528 1.09706 0
M  V30 9734 N 1009.71 5.02335 2.9093 0
M  V30 9735 H 1012.48 2.939 -0.58674 0
M  V30 9736 H 1010.04 1.55276 -0.458375 0
M  V30 9737 H 1012.03 3.59535 1.85787 0
M  V30 9738 H 1010.6 2.53333 1.83143 0
M  V30 9739 H 1009.82 3.93581 -0.220827 0
M  V30 9740 H 1011.11 5.08471 0.182883 0
M  V30 9741 H 1010.51 4.57783 3.32342 0
M  V30 9742 H 1009.07 5.49119 3.51157 0
M  V30 9743 N 1012.5 0.357919 1.53482 0
M  V30 9744 C 1013.46 -0.479797 2.24122 0
M  V30 9745 C 1014.46 -1.01596 1.24639 0
M  V30 9746 O 1015.65 -0.902928 1.48973 0
M  V30 9747 C 1012.78 -1.66983 2.97203 0
M  V30 9748 H 1013.98 0.138219 2.99581 0
M  V30 9749 H 1011.53 0.109484 1.55916 0
M  V30 9750 H 1012.26 -2.32615 2.25966 0
M  V30 9751 H 1012.05 -1.29242 3.70188 0
M  V30 9752 H 1013.54 -2.26367 3.50924 0
M  V30 9753 N 1013.98 -1.5736 0.0868897 0
M  V30 9754 C 1014.94 -2.12436 -0.860439 0
M  V30 9755 C 1015.94 -1.05175 -1.21634 0
M  V30 9756 O 1017.13 -1.31098 -1.14713 0
M  V30 9757 C 1014.26 -2.63818 -2.159 0
M  V30 9758 H 1015.45 -2.97453 -0.382346 0
M  V30 9759 H 1013.01 -1.55458 -0.162009 0
M  V30 9760 H 1013.74 -1.82298 -2.68212 0
M  V30 9761 H 1013.53 -3.42234 -1.91359 0
M  V30 9762 H 1015.02 -3.06452 -2.83685 0
M  V30 9763 N 1015.45 0.186762 -1.56489 0
M  V30 9764 C 1016.68 0.920495 -1.84961 0
M  V30 9765 C 1017.09 1.77004 -0.668297 0
M  V30 9766 O 1016.44 1.79891 0.37213 0
M  V30 9767 C 1016.5 1.85997 -3.07645 0
M  V30 9768 C 1016.16 1.19156 -4.41193 0
M  V30 9769 C 1017.16 0.564446 -5.16827 0
M  V30 9770 C 1014.84 1.19292 -4.87929 0
M  V30 9771 C 1016.84 -0.0523768 -6.37378 0
M  V30 9772 C 1014.52 0.572266 -6.08415 0
M  V30 9773 C 1015.52 -0.049294 -6.82982 0
M  V30 9774 O 1015.21 -0.660201 -8.01184 0
M  V30 9775 H 1014.94 0.273659 -0.618132 0
M  V30 9776 H 1017.5 0.196437 -2.04459 0
M  V30 9777 H 1015.73 2.62394 -2.84053 0
M  V30 9778 H 1017.42 2.46221 -3.22692 0
M  V30 9779 H 1018.18 0.555474 -4.81809 0
M  V30 9780 H 1014.06 1.66611 -4.29839 0
M  V30 9781 H 1017.6 -0.538133 -6.95521 0
M  V30 9782 H 1013.5 0.578769 -6.429 0
M  V30 9783 H 1014.27 -0.557926 -8.16596 0
M  V30 9784 N 1016.93 1.50896 0.454776 0
M  V30 9785 C 1018.16 1.66239 1.22671 0
M  V30 9786 C 1018.57 0.351876 1.85899 0
M  V30 9787 O 1017.91 -0.677848 1.70736 0
M  V30 9788 C 1017.98 2.70812 2.36434 0
M  V30 9789 C 1017.64 4.13913 1.93714 0
M  V30 9790 C 1018.64 4.99259 1.45039 0
M  V30 9791 C 1016.32 4.59921 2.01937 0
M  V30 9792 C 1018.32 6.28667 1.05151 0
M  V30 9793 C 1016 5.89329 1.6166 0
M  V30 9794 C 1017 6.73529 1.13347 0
M  V30 9795 O 1016.69 8.0052 0.736354 0
M  V30 9796 H 1016.42 0.561443 0.376508 0
M  V30 9797 H 1018.97 1.97974 0.547325 0
M  V30 9798 H 1017.2 2.34355 3.07595 0
M  V30 9799 H 1018.89 2.7521 2.98353 0
M  V30 9800 H 1019.66 4.64925 1.38095 0
M  V30 9801 H 1015.54 3.94518 2.38488 0
M  V30 9802 H 1019.08 6.94339 0.673711 0
M  V30 9803 H 1014.98 6.23182 1.68269 0
M  V30 9804 H 1015.75 8.1393 0.863759 0
M  V30 9805 N 1018.41 -0.709066 1.40748 0
M  V30 9806 C 1019.66 -1.46611 1.39103 0
M  V30 9807 C 1019.98 -1.95 -0.00365366 0
M  V30 9808 O 1019.25 -1.70791 -0.959541 0
M  V30 9809 H 1017.83 -0.543954 0.511979 0
M  V30 9810 H 1020.49 -0.840141 1.75863 0
M  V30 9811 H 1019.59 -2.33581 2.06994 0
M  V30 9812 N 1019.89 -1.26353 -0.941956 0
M  V30 9813 C 1020.82 -1.03634 -2.04432 0
M  V30 9814 C 1021.83 0.00295864 -1.628 0
M  V30 9815 O 1023.02 -0.237029 -1.76919 0
M  V30 9816 C 1020.12 -0.547231 -3.34453 0
M  V30 9817 C 1019.3 -1.65559 -4.04857 0
M  V30 9818 C 1018.36 -1.16466 -5.13149 0
M  V30 9819 O 1017.38 -1.86158 -5.37898 0
M  V30 9820 N 1018.58 -0.0126703 -5.80499 0
M  V30 9821 H 1021.35 -1.98558 -2.24488 0
M  V30 9822 H 1018.91 -1.17728 -1.11138 0
M  V30 9823 H 1020.9 -0.203004 -4.04191 0
M  V30 9824 H 1019.47 0.308401 -3.11075 0
M  V30 9825 H 1018.69 -2.17079 -3.29044 0
M  V30 9826 H 1019.98 -2.39985 -4.48647 0
M  V30 9827 H 1019.38 0.569358 -5.62828 0
M  V30 9828 H 1017.93 0.272486 -6.5123 0
M  V30 9829 N 1021.37 1.14642 -1.08144 0
M  V30 9830 C 1022.6 1.89484 -0.830864 0
M  V30 9831 C 1023.01 1.78443 0.616722 0
M  V30 9832 O 1022.37 1.14191 1.42361 0
M  V30 9833 C 1022.42 3.39554 -1.24039 0
M  V30 9834 O 1022.14 3.50286 -2.63119 0
M  V30 9835 C 1023.64 4.31399 -1.02029 0
M  V30 9836 H 1020.86 0.600283 -0.299835 0
M  V30 9837 H 1023.4 1.45204 -1.44001 0
M  V30 9838 H 1021.56 3.81467 -0.675407 0
M  V30 9839 H 1021.97 4.43481 -2.80045 0
M  V30 9840 H 1023.45 5.35079 -1.35625 0
M  V30 9841 H 1023.92 4.39179 0.0428697 0
M  V30 9842 H 1024.53 3.95238 -1.57057 0
M  V30 9843 N 1022.85 0.866709 1.31628 0
M  V30 9844 C 1024.26 0.529032 1.79048 0
M  V30 9845 C 1024.61 -0.953871 1.71452 0
M  V30 9846 O 1023.73 -1.74462 1.28031 0
M  V30 9847 C 1024.33 0.953522 3.25105 0
M  V30 9848 C 1022.89 0.667554 3.70433 0
M  V30 9849 C 1022.03 1.14664 2.52483 0
M  V30 9850 H 1024.98 1.05275 1.18756 0
M  V30 9851 H 1025.01 0.274844 3.79506 0
M  V30 9852 H 1024.52 2.03283 3.30602 0
M  V30 9853 H 1022.62 -0.400532 3.70441 0
M  V30 9854 H 1022.73 1.2423 4.62714 0
M  V30 9855 H 1021.1 0.566502 2.4832 0
M  V30 9856 H 1021.88 2.2333 2.60727 0
M  V30 9857 N 1024.32 -1.44642 0.625825 0
M  V30 9858 C 1025.57 -2.01695 0.127948 0
M  V30 9859 C 1025.89 -1.49439 -1.25271 0
M  V30 9860 O 1025.16 -0.695873 -1.83124 0
M  V30 9861 H 1023.74 -0.745685 0.0443096 0
M  V30 9862 H 1026.4 -1.7721 0.811332 0
M  V30 9863 H 1025.5 -3.11966 0.0915933 0
M  V30 9864 N 1025.8 -0.366053 -1.5329 0
M  V30 9865 C 1027.21 0.113056 -1.86357 0
M  V30 9866 C 1027.56 1.48123 -1.28662 0
M  V30 9867 O 1026.69 2.07658 -0.608849 0
M  V30 9868 C 1027.28 0.211923 -3.38137 0
M  V30 9869 C 1025.84 0.635289 -3.71 0
M  V30 9870 C 1024.99 -0.217203 -2.76448 0
M  V30 9871 H 1027.94 -0.584829 -1.47531 0
M  V30 9872 H 1027.96 1.0354 -3.66142 0
M  V30 9873 H 1027.47 -0.783994 -3.80099 0
M  V30 9874 H 1025.57 1.63942 -3.34595 0
M  V30 9875 H 1025.69 0.409571 -4.77346 0
M  V30 9876 H 1024.05 0.313988 -2.52757 0
M  V30 9877 H 1024.83 -1.21067 -3.21244 0
M  V30 9878 N 1027.28 1.57312 -0.0952337 0
M  V30 9879 C 1028.53 1.93974 0.567319 0
M  V30 9880 C 1028.85 0.977805 1.68713 0
M  V30 9881 O 1028.12 0.0298944 1.95877 0
M  V30 9882 H 1026.7 0.71612 0.212558 0
M  V30 9883 H 1029.36 1.94254 -0.158598 0
M  V30 9884 H 1028.46 2.964 0.977423 0
M  V30 9885 N 1028.76 -0.17846 1.56586 0
M  V30 9886 C 1030.01 -0.894464 1.81228 0
M  V30 9887 C 1030.33 -1.83089 0.671062 0
M  V30 9888 O 1029.6 -1.93439 -0.309557 0
M  V30 9889 H 1028.18 -0.333288 0.668527 0
M  V30 9890 H 1030.84 -0.179986 1.94067 0
M  V30 9891 H 1029.93 -1.47565 2.75011 0
M  V30 9892 N 1030.24 -1.51135 -0.446768 0
M  V30 9893 C 1031.65 -1.55919 -1.02694 0
M  V30 9894 C 1032 -0.377038 -1.92543 0
M  V30 9895 O 1031.12 0.507295 -2.1037 0
M  V30 9896 C 1031.72 -2.8257 -1.86922 0
M  V30 9897 C 1030.28 -2.89956 -2.40005 0
M  V30 9898 C 1029.42 -2.50482 -1.18971 0
M  V30 9899 H 1032.37 -1.57048 -0.228403 0
M  V30 9900 H 1032.4 -2.65799 -2.7227 0
M  V30 9901 H 1031.91 -3.6859 -1.21502 0
M  V30 9902 H 1030.01 -2.08343 -3.08907 0
M  V30 9903 H 1030.12 -3.93399 -2.73448 0
M  V30 9904 H 1028.49 -2.03466 -1.53211 0
M  V30 9905 H 1029.27 -3.38837 -0.551762 0
M  V30 9906 N 1031.71 0.701592 -1.41122 0
M  V30 9907 C 1032.65 1.8268 -1.38422 0
M  V30 9908 C 1033.66 1.60244 -0.287342 0
M  V30 9909 O 1034.85 1.69859 -0.548658 0
M  V30 9910 C 1031.95 3.19338 -1.13475 0
M  V30 9911 C 1031.12 3.68853 -2.35088 0
M  V30 9912 C 1030.18 4.84163 -2.06089 0
M  V30 9913 O 1029.21 4.9609 -2.79077 0
M  V30 9914 N 1030.41 5.70972 -1.04743 0
M  V30 9915 H 1033.17 1.8549 -2.35401 0
M  V30 9916 H 1030.73 0.883682 -1.35656 0
M  V30 9917 H 1032.73 3.94095 -0.920377 0
M  V30 9918 H 1031.3 3.11589 -0.251152 0
M  V30 9919 H 1030.52 2.8507 -2.72266 0
M  V30 9920 H 1031.8 3.98673 -3.16129 0
M  V30 9921 H 1031.2 5.63961 -0.443221 0
M  V30 9922 H 1029.76 6.45654 -0.892949 0
M  V30 9923 N 1033.19 1.2685 0.935242 0
M  V30 9924 C 1034.6 1.11569 1.49697 0
M  V30 9925 C 1034.95 -0.301952 1.93863 0
M  V30 9926 O 1034.08 -1.19408 1.80473 0
M  V30 9927 C 1034.67 2.01918 2.72056 0
M  V30 9928 C 1033.23 1.90765 3.24477 0
M  V30 9929 C 1032.38 1.94918 1.97237 0
M  V30 9930 H 1035.33 1.39853 0.750116 0
M  V30 9931 H 1035.35 1.57056 3.46574 0
M  V30 9932 H 1034.86 3.05088 2.39881 0
M  V30 9933 H 1032.96 0.905521 3.61429 0
M  V30 9934 H 1033.08 2.76611 3.91182 0
M  V30 9935 H 1031.44 1.39046 2.13397 0
M  V30 9936 H 1032.22 2.99729 1.67385 0
M  V30 9937 N 1034.67 -1.14067 1.0875 0
M  V30 9938 C 1036.08 -1.66747 0.839778 0
M  V30 9939 C 1036.43 -1.85711 -0.632909 0
M  V30 9940 O 1035.56 -1.57084 -1.48841 0
M  V30 9941 C 1036.15 -3.02896 1.51787 0
M  V30 9942 C 1034.71 -3.52596 1.3173 0
M  V30 9943 C 1033.86 -2.27994 1.57841 0
M  V30 9944 H 1036.81 -0.980838 1.24761 0
M  V30 9945 H 1036.83 -3.68526 0.947057 0
M  V30 9946 H 1036.34 -2.89062 2.58969 0
M  V30 9947 H 1034.44 -3.71647 0.266339 0
M  V30 9948 H 1034.56 -4.33151 2.04736 0
M  V30 9949 H 1032.92 -2.34241 1.00015 0
M  V30 9950 H 1033.7 -2.16732 2.66237 0
M  V30 9951 N 1036.15 -0.873678 -1.31166 0
M  V30 9952 C 1037.56 -0.53852 -1.78765 0
M  V30 9953 C 1037.91 0.944765 -1.71955 0
M  V30 9954 O 1037.04 1.73781 -1.28954 0
M  V30 9955 C 1037.63 -0.970749 -3.24595 0
M  V30 9956 C 1036.19 -0.687189 -3.70074 0
M  V30 9957 C 1035.34 -1.16001 -2.51871 0
M  V30 9958 H 1038.29 -1.05903 -1.18196 0
M  V30 9959 H 1038.31 -0.294966 -3.79355 0
M  V30 9960 H 1037.82 -2.05034 -3.29519 0
M  V30 9961 H 1035.92 0.380881 -3.70648 0
M  V30 9962 H 1036.03 -1.26682 -4.62048 0
M  V30 9963 H 1034.4 -0.579663 -2.48016 0
M  V30 9964 H 1035.18 -2.2471 -2.59539 0
M  V30 9965 N 1037.63 1.44308 -0.633487 0
M  V30 9966 C 1038.85 2.06384 -0.146063 0
M  V30 9967 C 1039.27 1.47357 1.18031 0
M  V30 9968 O 1038.63 0.597334 1.72448 0
M  V30 9969 C 1038.68 3.61489 -0.0276722 0
M  V30 9970 O 1038.4 4.18318 -1.3016 0
M  V30 9971 C 1039.9 4.40604 0.488168 0
M  V30 9972 H 1037.12 0.666122 -0.0807632 0
M  V30 9973 H 1039.66 1.85139 -0.868557 0
M  V30 9974 H 1037.82 3.81988 0.645273 0
M  V30 9975 H 1038.23 5.11783 -1.14797 0
M  V30 9976 H 1039.71 5.49545 0.520013 0
M  V30 9977 H 1040.18 4.12218 1.51568 0
M  V30 9978 H 1040.79 4.2503 -0.151608 0
M  V30 9979 N 1039.1 0.374177 1.53094 0
M  V30 9980 C 1040.04 -0.503065 2.23611 0
M  V30 9981 C 1041.05 -1.03915 1.25321 0
M  V30 9982 O 1042.24 -0.944064 1.51492 0
M  V30 9983 C 1039.34 -1.70825 2.92698 0
M  V30 9984 C 1038.51 -1.30217 4.17567 0
M  V30 9985 C 1037.57 -2.37036 4.69788 0
M  V30 9986 O 1036.6 -1.99069 5.33254 0
M  V30 9987 N 1037.8 -3.68743 4.4834 0
M  V30 9988 H 1040.56 0.101013 2.9953 0
M  V30 9989 H 1038.12 0.199778 1.60663 0
M  V30 9990 H 1040.12 -2.41779 3.24538 0
M  V30 9991 H 1038.69 -2.219 2.2018 0
M  V30 9992 H 1037.91 -0.422121 3.91933 0
M  V30 9993 H 1039.19 -1.00728 4.9873 0
M  V30 9994 H 1038.59 -4.0236 3.97647 0
M  V30 9995 H 1037.15 -4.35776 4.84709 0
M  V30 9996 N 1040.58 -1.57259 0.103575 0
M  V30 9997 C 1041.51 -2.1153 -0.882472 0
M  V30 9998 C 1042.53 -1.05446 -1.24036 0
M  V30 9999 O 1043.72 -1.32867 -1.192 0
M  V30 10000 C 1040.82 -2.58717 -2.18903 0
M  V30 10001 C 1039.99 -3.8873 -2.00519 0
M  V30 10002 C 1039.05 -4.21675 -3.14764 0
M  V30 10003 O 1038.07 -4.90755 -2.88355 0
M  V30 10004 N 1039.28 -3.77757 -4.40772 0
M  V30 10005 H 1042.04 -2.96758 -0.418901 0
M  V30 10006 H 1039.6 -1.61696 -0.0812921 0
M  V30 10007 H 1041.59 -2.77797 -2.94297 0
M  V30 10008 H 1040.16 -1.78454 -2.56657 0
M  V30 10009 H 1039.38 -3.78714 -1.09406 0
M  V30 10010 H 1040.67 -4.73771 -1.85522 0
M  V30 10011 H 1040.07 -3.22011 -4.65108 0
M  V30 10012 H 1038.63 -4.01975 -5.13088 0
M  V30 10013 N 1042.06 0.170153 -1.56679 0
M  V30 10014 C 1043.31 0.884841 -1.817 0
M  V30 10015 C 1043.63 1.82731 -0.680763 0
M  V30 10016 O 1042.9 1.936 0.299294 0
M  V30 10017 H 1041.48 0.329738 -0.670285 0
M  V30 10018 H 1044.14 0.169691 -1.9416 0
M  V30 10019 H 1043.24 1.46104 -2.7579 0
M  V30 10020 N 1043.54 1.5137 0.438746 0
M  V30 10021 C 1044.47 1.68774 1.55074 0
M  V30 10022 C 1045.48 0.568436 1.52554 0
M  V30 10023 O 1046.67 0.842707 1.57355 0
M  V30 10024 C 1043.77 1.68592 2.9399 0
M  V30 10025 C 1042.95 2.97084 3.2103 0
M  V30 10026 C 1042 2.89108 4.39663 0
M  V30 10027 O 1041.03 3.63052 4.38385 0
M  V30 10028 N 1042.23 2.04863 5.4315 0
M  V30 10029 H 1045 2.647 1.40549 0
M  V30 10030 H 1042.56 1.49238 0.627663 0
M  V30 10031 H 1044.55 1.60826 3.71372 0
M  V30 10032 H 1043.12 0.802657 3.02119 0
M  V30 10033 H 1042.34 3.18729 2.3196 0
M  V30 10034 H 1043.63 3.82143 3.35923 0
M  V30 10035 H 1043.03 1.4416 5.47023 0
M  V30 10036 H 1041.58 2.02977 6.1939 0
M  V30 10037 N 1045.02 -0.694098 1.41492 0
M  V30 10038 C 1045.95 -1.81943 1.39389 0
M  V30 10039 C 1046.96 -1.6009 0.295836 0
M  V30 10040 O 1048.15 -1.69565 0.557658 0
M  V30 10041 C 1045.25 -3.18731 1.15167 0
M  V30 10042 C 1044.42 -3.67601 2.37041 0
M  V30 10043 C 1043.48 -4.83063 2.08654 0
M  V30 10044 O 1042.51 -4.94603 2.81704 0
M  V30 10045 N 1043.71 -5.70409 1.0777 0
M  V30 10046 H 1046.48 -1.84239 2.36381 0
M  V30 10047 H 1044.04 -0.876475 1.36123 0
M  V30 10048 H 1046.03 -3.93602 0.941264 0
M  V30 10049 H 1044.6 -3.11452 0.267673 0
M  V30 10050 H 1043.82 -2.83622 2.73774 0
M  V30 10051 H 1045.11 -3.96991 3.18239 0
M  V30 10052 H 1044.5 -5.63718 0.473123 0
M  V30 10053 H 1043.06 -6.45172 0.927177 0
M  V30 10054 N 1046.49 -1.27344 -0.928501 0
M  V30 10055 C 1047.43 -1.05797 -2.03322 0
M  V30 10056 C 1048.44 -0.0143086 -1.62794 0
M  V30 10057 O 1049.63 -0.25578 -1.76658 0
M  V30 10058 C 1046.73 -0.582673 -3.33853 0
M  V30 10059 C 1045.9 -1.69844 -4.03078 0
M  V30 10060 C 1044.96 -1.21902 -5.11885 0
M  V30 10061 O 1043.99 -1.91853 -5.35893 0
M  V30 10062 N 1045.19 -0.0742392 -5.80453 0
M  V30 10063 H 1047.95 -2.00928 -2.22369 0
M  V30 10064 H 1045.51 -1.189 -1.09883 0
M  V30 10065 H 1047.51 -0.245862 -4.03952 0
M  V30 10066 H 1046.08 0.27539 -3.11385 0
M  V30 10067 H 1045.3 -2.20557 -3.26723 0
M  V30 10068 H 1046.58 -2.4473 -4.46077 0
M  V30 10069 H 1045.98 0.509631 -5.634 0
M  V30 10070 H 1044.54 0.203399 -6.51483 0
M  V30 10071 N 1047.97 1.13488 -1.09353 0
M  V30 10072 C 1048.94 2.17066 -0.735863 0
M  V30 10073 C 1049.94 1.59086 0.234181 0
M  V30 10074 O 1051.13 1.74196 0.012463 0
M  V30 10075 C 1048.26 3.40786 -0.0880975 0
M  V30 10076 H 1049.45 2.50221 -1.65316 0
M  V30 10077 H 1047 1.28304 -0.89263 0
M  V30 10078 H 1047.74 3.1322 0.840462 0
M  V30 10079 H 1047.52 3.8414 -0.786073 0
M  V30 10080 H 1049.01 4.17342 0.146775 0
M  V30 10081 N 1049.45 0.880621 1.30701 0
M  V30 10082 C 1050.38 0.301443 2.27209 0
M  V30 10083 C 1051.4 -0.541533 1.53529 0
M  V30 10084 O 1052.59 -0.361791 1.74795 0
M  V30 10085 C 1049.69 -0.59038 3.33718 0
M  V30 10086 C 1048.86 0.222549 4.36833 0
M  V30 10087 C 1047.92 -0.599083 5.22779 0
M  V30 10088 O 1046.94 -0.0233267 5.69195 0
M  V30 10089 N 1048.15 -1.90904 5.48211 0
M  V30 10090 H 1050.91 1.13083 2.77547 0
M  V30 10091 H 1048.47 0.743168 1.43835 0
M  V30 10092 H 1050.46 -1.14599 3.88135 0
M  V30 10093 H 1049.03 -1.32044 2.83343 0
M  V30 10094 H 1048.25 0.959606 3.82342 0
M  V30 10095 H 1049.54 0.779965 5.02786 0
M  V30 10096 H 1048.94 -2.3998 5.12275 0
M  V30 10097 H 1047.5 -2.4122 6.05521 0
M  V30 10098 O 1050.97 -1.41364 0.780922 0
M  V30 10099 H 1051.66 -1.90546 0.348111 0
M  V30 END ATOM
M  V30 BEGIN BOND
M  V30 END BOND
M  V30 END CTAB
M  END
$$$$
