drugbank_target|Q92947 Glutaryl-CoA dehydrogenase, mitochondrial (DB03147; DB03245)
 OpenBabel12092120023D

  0  0  0     0  0            999 V3000
M  V30 BEGIN CTAB
M  V30 COUNTS 6755 6814 0 0 0
M  V30 BEGIN ATOM
M  V30 1 H -0.908 1.98254 -0.117106 0
M  V30 2 N 0 1.576 0 0
M  V30 3 C 0.933 2.03868 1.02534 0
M  V30 4 C 1.911 0.928543 1.3348 0
M  V30 5 O 3.095 1.19667 1.45644 0
M  V30 6 C 0.222 2.43627 2.35294 0
M  V30 7 C -0.732 3.65373 2.2001 0
M  V30 8 S 0.101 5.13292 1.52614 0
M  V30 9 C 1.257 5.56322 2.86805 0
M  V30 10 H 1.49 2.90518 0.631377 0
M  V30 11 H -0.977 1.52953 0.210867 0
M  V30 12 H 0.981 2.67203 3.11629 0
M  V30 13 H -0.358 1.57376 2.7183 0
M  V30 14 H -1.165 3.90944 3.18086 0
M  V30 15 H -1.563 3.418 1.51819 0
M  V30 16 H 0.729 5.58782 3.83104 0
M  V30 17 H 1.672 6.56266 2.65933 0
M  V30 18 H 2.08 4.83886 2.90714 0
M  V30 19 N 1.4781 -0.272755 1.55222 0
M  V30 20 C 2.4411 -1.32041 1.87344 0
M  V30 21 C 3.4411 -1.42342 0.74803 0
M  V30 22 O 4.6311 -1.41488 1.0162 0
M  V30 23 C 1.7631 -2.70173 2.07893 0
M  V30 24 H 2.9561 -1.04789 2.80997 0
M  V30 25 H 0.5091 -0.51083 1.47717 0
M  V30 26 H 1.2441 -3.02605 1.16622 0
M  V30 27 H 1.0291 -2.64082 2.89833 0
M  V30 28 H 2.5191 -3.45869 2.34017 0
M  V30 29 N 2.9562 -1.48159 -0.537278 0
M  V30 30 C 3.8862 -1.65029 -1.6519 0
M  V30 31 C 4.8672 -0.499281 -1.62607 0
M  V30 32 O 6.0522 -0.730972 -1.79918 0
M  V30 33 C 3.1822 -1.68303 -3.03795 0
M  V30 34 C 2.1362 -2.8283 -3.21234 0
M  V30 35 C 1.4622 -2.71189 -4.60826 0
M  V30 36 C 2.7622 -4.24211 -3.04701 0
M  V30 37 H 4.4562 -2.58341 -1.51328 0
M  V30 38 H 2.0022 -1.24325 -0.726585 0
M  V30 39 H 3.9552 -1.78693 -3.81637 0
M  V30 40 H 2.6792 -0.715635 -3.18663 0
M  V30 41 H 1.3382 -2.71983 -2.45807 0
M  V30 42 H 0.9862 -1.72435 -4.7252 0
M  V30 43 H 0.6862 -3.48035 -4.7344 0
M  V30 44 H 2.2102 -2.83537 -5.40777 0
M  V30 45 H 3.6242 -4.3593 -3.72341 0
M  V30 46 H 2.0212 -5.01998 -3.28813 0
M  V30 47 H 3.0912 -4.41184 -2.01209 0
M  V30 48 N 4.4343 0.785586 -1.36625 0
M  V30 49 C 5.8503 1.08419 -1.17122 0
M  V30 50 C 6.0503 2.015 0.00208491 0
M  V30 51 O 5.1063 2.43551 0.666278 0
M  V30 52 C 6.4193 1.69498 -2.48377 0
M  V30 53 C 7.9673 1.81821 -2.54775 0
M  V30 54 C 8.4423 2.46315 -3.86126 0
M  V30 55 N 9.9333 2.53779 -3.87492 0
M  V30 56 C 10.6683 3.045 -4.85868 0
M  V30 57 N 10.1643 3.55499 -5.94637 0
M  V30 58 N 11.9573 3.03247 -4.73284 0
M  V30 59 H 4.1083 0.167264 -2.1174 0
M  V30 60 H 6.3713 0.13682 -0.938075 0
M  V30 61 H 6.0773 1.08571 -3.34522 0
M  V30 62 H 5.9513 2.6896 -2.64462 0
M  V30 63 H 8.3383 2.41884 -1.69045 0
M  V30 64 H 8.4193 0.811532 -2.42586 0
M  V30 65 H 8.0633 1.86895 -4.72263 0
M  V30 66 H 7.9933 3.47561 -3.95612 0
M  V30 67 H 10.4843 2.17672 -3.08913 0
M  V30 68 H 10.7973 3.92562 -6.65669 0
M  V30 69 H 9.1423 3.5364 -5.98301 0
M  V30 70 H 12.3333 2.62696 -3.87438 0
M  V30 71 H 12.5063 3.42467 -5.50109 0
M  V30 72 N 5.9124 1.20967 1.01018 0
M  V30 73 C 7.1604 1.02172 1.74371 0
M  V30 74 C 7.4814 -0.446414 1.89821 0
M  V30 75 O 6.7514 -1.32234 1.44537 0
M  V30 76 H 5.3314 0.375066 0.646014 0
M  V30 77 H 7.9934 1.52187 1.21758 0
M  V30 78 H 7.0894 1.48538 2.74487 0
M  V30 79 N 7.3905 -1.2043 1.01659 0
M  V30 80 C 8.6365 -1.90079 0.706963 0
M  V30 81 C 8.9695 -1.78648 -0.761474 0
M  V30 82 O 8.2445 -1.17069 -1.55323 0
M  V30 83 C 8.5275 -3.41469 1.14327 0
M  V30 84 C 8.3805 -3.61833 2.67201 0
M  V30 85 C 9.6995 -4.34261 0.714529 0
M  V30 86 H 6.8185 -0.690254 0.2583 0
M  V30 87 H 9.4605 -1.41826 1.26433 0
M  V30 88 H 7.6105 -3.82696 0.669056 0
M  V30 89 H 9.2825 -3.2986 3.22475 0
M  V30 90 H 7.5255 -3.05304 3.08175 0
M  V30 91 H 8.1965 -4.67955 2.92783 0
M  V30 92 H 10.6725 -4.00682 1.12221 0
M  V30 93 H 9.5485 -5.38806 1.04784 0
M  V30 94 H 9.8095 -4.40431 -0.383799 0
M  V30 95 N 8.8686 -0.792821 -1.36206 0
M  V30 96 C 10.0936 -0.377701 -2.03932 0
M  V30 97 C 10.5186 0.998947 -1.59382 0
M  V30 98 O 9.8766 1.64421 -0.763903 0
M  V30 99 C 9.9246 -0.453635 -3.57735 0
M  V30 100 O 9.0286 0.538151 -4.08874 0
M  V30 101 H 8.3696 -0.159855 -0.644471 0
M  V30 102 H 10.8996 -1.07488 -1.7409 0
M  V30 103 H 10.9096 -0.318464 -4.06755 0
M  V30 104 H 9.5846 -1.45784 -3.89512 0
M  V30 105 H 8.1616 0.364359 -3.71116 0
M  V30 106 N 10.3467 1.47872 -0.545128 0
M  V30 107 C 11.5927 2.02793 -0.0166104 0
M  V30 108 C 11.9257 1.41987 1.32489 0
M  V30 109 O 11.2007 0.571045 1.85928 0
M  V30 110 C 11.4837 3.59989 0.0893294 0
M  V30 111 C 11.3367 4.3125 -1.27841 0
M  V30 112 C 12.6557 4.32606 0.808724 0
M  V30 113 H 9.7747 0.736962 -0.00751035 0
M  V30 114 H 12.4167 1.76433 -0.705085 0
M  V30 115 H 10.5667 3.82579 0.675681 0
M  V30 116 H 12.2387 4.20035 -1.90704 0
M  V30 117 H 10.4817 3.92076 -1.85632 0
M  V30 118 H 11.1527 5.39736 -1.15713 0
M  V30 119 H 13.6287 4.14936 0.310992 0
M  V30 120 H 12.5047 5.42251 0.851782 0
M  V30 121 H 12.7657 4.00963 1.86229 0
M  V30 122 N 11.8248 0.280983 1.55075 0
M  V30 123 C 13.2408 -0.0729964 1.59433 0
M  V30 124 C 13.4408 -1.5411 1.29817 0
M  V30 125 O 12.4968 -2.29086 1.06187 0
M  V30 126 C 13.8098 0.306921 2.9913 0
M  V30 127 C 15.3578 0.254023 3.11968 0
M  V30 128 C 15.8328 0.608467 4.5394 0
M  V30 129 N 17.3238 0.560241 4.59799 0
M  V30 130 C 18.0588 0.80722 5.6769 0
M  V30 131 N 17.5548 1.11912 6.83701 0
M  V30 132 N 19.3478 0.735623 5.57266 0
M  V30 133 H 11.4988 1.238 1.7259 0
M  V30 134 H 13.7618 0.500547 0.805082 0
M  V30 135 H 13.4678 1.32816 3.25657 0
M  V30 136 H 13.3418 -0.349363 3.75579 0
M  V30 137 H 15.7288 -0.75794 2.852 0
M  V30 138 H 15.8098 0.944649 2.37718 0
M  V30 139 H 15.4538 1.61814 4.81434 0
M  V30 140 H 15.3838 -0.104013 5.26497 0
M  V30 141 H 17.8748 0.329288 3.76463 0
M  V30 142 H 18.1878 1.29409 7.61888 0
M  V30 143 H 16.5328 1.15695 6.85303 0
M  V30 144 H 19.7238 0.491752 4.6551 0
M  V30 145 H 19.8968 0.931482 6.4127 0
M  V30 146 N 13.3029 -1.57598 0.00835791 0
M  V30 147 C 14.2329 -2.1198 -0.979113 0
M  V30 148 C 15.2139 -1.03091 -1.35301 0
M  V30 149 O 16.3989 -1.30818 -1.43528 0
M  V30 150 C 13.5289 -2.62995 -2.26828 0
M  V30 151 C 12.4829 -3.76485 -2.03576 0
M  V30 152 C 11.8089 -4.13846 -3.38579 0
M  V30 153 C 13.1089 -5.0342 -1.39161 0
M  V30 154 H 14.8029 -2.94738 -0.526281 0
M  V30 155 H 12.3489 -1.41783 -0.251704 0
M  V30 156 H 14.3019 -2.99669 -2.96271 0
M  V30 157 H 13.0259 -1.7737 -2.7424 0
M  V30 158 H 11.6849 -3.40217 -1.36557 0
M  V30 159 H 11.3329 -3.25232 -3.83709 0
M  V30 160 H 11.0329 -4.90312 -3.23834 0
M  V30 161 H 12.5569 -4.53086 -4.09323 0
M  V30 162 H 13.9709 -5.37812 -1.98573 0
M  V30 163 H 12.3679 -5.84746 -1.34878 0
M  V30 164 H 13.4379 -4.83548 -0.361868 0
M  V30 165 N 14.781 0.264519 -1.55364 0
M  V30 166 C 15.711 1.33121 -1.91836 0
M  V30 167 C 16.692 1.51101 -0.781192 0
M  V30 168 O 17.877 1.64003 -1.04003 0
M  V30 169 C 15.007 2.68921 -2.19769 0
M  V30 170 C 13.961 2.65661 -3.35571 0
M  V30 171 C 13.287 4.05093 -3.49004 0
M  V30 172 C 14.587 2.24187 -4.71739 0
M  V30 173 H 16.281 1.02844 -2.81182 0
M  V30 174 H 13.827 0.493286 -1.35287 0
M  V30 175 H 15.78 3.43663 -2.43872 0
M  V30 176 H 14.504 3.00799 -1.27231 0
M  V30 177 H 13.163 1.93377 -3.1145 0
M  V30 178 H 12.811 4.34206 -2.53917 0
M  V30 179 H 12.511 4.03804 -4.26868 0
M  V30 180 H 14.035 4.81561 -3.75408 0
M  V30 181 H 15.449 2.88654 -4.9533 0
M  V30 182 H 13.846 2.34044 -5.52579 0
M  V30 183 H 14.916 1.19327 -4.69988 0
M  V30 184 N 16.2591 1.48442 0.529413 0
M  V30 185 C 17.4841 1.60406 1.31471 0
M  V30 186 C 17.9091 0.264738 1.86228 0
M  V30 187 O 17.2671 -0.763668 1.64432 0
M  V30 188 C 17.3151 2.65419 2.44101 0
M  V30 189 O 16.4191 2.22618 3.47153 0
M  V30 190 H 15.7601 0.537863 0.389357 0
M  V30 191 H 18.2901 1.94432 0.636965 0
M  V30 192 H 18.3001 2.86709 2.90279 0
M  V30 193 H 16.9751 3.62652 2.03608 0
M  V30 194 H 15.5521 2.11543 3.0709 0
M  V30 195 N 17.7372 -0.778329 1.37039 0
M  V30 196 C 19.1532 -1.07796 1.17695 0
M  V30 197 C 19.3532 -2.01498 0.00860115 0
M  V30 198 O 18.4092 -2.43901 -0.653352 0
M  V30 199 C 19.7222 -1.68178 2.49272 0
M  V30 200 C 21.2702 -1.80467 2.55735 0
M  V30 201 C 21.7452 -2.44263 3.87427 0
M  V30 202 N 23.2362 -2.51721 3.88833 0
M  V30 203 C 23.9712 -3.01919 4.87476 0
M  V30 204 N 23.4672 -3.5234 5.96513 0
M  V30 205 N 25.2602 -3.00733 4.74885 0
M  V30 206 H 17.4112 -0.156032 2.11826 0
M  V30 207 H 19.6742 -0.131844 0.938787 0
M  V30 208 H 19.3802 -1.06796 3.35093 0
M  V30 209 H 19.2542 -2.67554 2.65885 0
M  V30 210 H 21.6412 -2.40984 1.70325 0
M  V30 211 H 21.7222 -0.798656 2.43013 0
M  V30 212 H 21.3662 -1.84388 4.73248 0
M  V30 213 H 21.2962 -3.45458 3.9745 0
M  V30 214 H 23.7872 -2.1603 3.10063 0
M  V30 215 H 24.1002 -3.89027 6.67741 0
M  V30 216 H 22.4452 -3.50462 6.00168 0
M  V30 217 H 25.6362 -2.60638 3.88826 0
M  V30 218 H 25.8092 -3.39545 5.51918 0
M  V30 219 N 19.2153 -1.21501 -1.00376 0
M  V30 220 C 20.4633 -1.03095 -1.73827 0
M  V30 221 C 20.7843 0.436341 -1.90055 0
M  V30 222 O 20.0543 1.31466 -1.45236 0
M  V30 223 H 18.6343 -0.378487 -0.644016 0
M  V30 224 H 21.2963 -1.52831 -1.20949 0
M  V30 225 H 20.3923 -1.49991 -2.73695 0
M  V30 226 N 20.6934 1.19889 -1.02296 0
M  V30 227 C 22.1044 1.71124 -0.746568 0
M  V30 228 C 22.4554 1.81939 0.734335 0
M  V30 229 O 21.5804 1.48639 1.57275 0
M  V30 230 C 22.1754 3.10804 -1.34857 0
M  V30 231 C 20.7344 3.59323 -1.1209 0
M  V30 232 C 19.8814 2.3635 -1.45031 0
M  V30 233 H 22.8324 1.04813 -1.19163 0
M  V30 234 H 22.8534 3.73186 -0.742437 0
M  V30 235 H 22.3654 3.029 -2.42638 0
M  V30 236 H 20.4664 3.7255 -0.0610337 0
M  V30 237 H 20.5794 4.4378 -1.80544 0
M  V30 238 H 18.9434 2.39399 -0.869487 0
M  V30 239 H 19.7264 2.31081 -2.53883 0
M  V30 240 N 22.1715 0.800033 1.35784 0
M  V30 241 C 23.4195 0.376597 1.9856 0
M  V30 242 C 23.7405 -1.05812 1.63795 0
M  V30 243 O 23.0105 -1.73103 0.917171 0
M  V30 244 H 21.5905 0.136261 0.734467 0
M  V30 245 H 24.2525 1.02442 1.65806 0
M  V30 246 H 23.3485 0.477002 3.08433 0
M  V30 247 N 23.6496 -1.47581 0.552962 0
M  V30 248 C 24.5796 -2.32762 -0.185451 0
M  V30 249 C 25.5606 -1.43527 -0.912905 0
M  V30 250 O 26.7456 -1.72388 -0.894201 0
M  V30 251 C 23.8756 -3.25219 -1.21859 0
M  V30 252 C 22.8296 -4.23661 -0.607864 0
M  V30 253 C 22.1556 -5.05413 -1.74533 0
M  V30 254 C 23.4556 -5.20481 0.435582 0
M  V30 255 H 25.1496 -2.94749 0.525684 0
M  V30 256 H 22.6956 -1.41738 0.254251 0
M  V30 257 H 24.6486 -3.8365 -1.7433 0
M  V30 258 H 23.3726 -2.61279 -1.95961 0
M  V30 259 H 22.0316 -3.66451 -0.104489 0
M  V30 260 H 21.6796 -4.3788 -2.47529 0
M  V30 261 H 21.3796 -5.72059 -1.34249 0
M  V30 262 H 22.9036 -5.66701 -2.27338 0
M  V30 263 H 24.3176 -5.733 -0.00290157 0
M  V30 264 H 22.7146 -5.95305 0.757067 0
M  V30 265 H 23.7846 -4.66217 1.33303 0
M  V30 266 N 25.1277 -0.289203 -1.54924 0
M  V30 267 C 26.0777 0.606939 -2.19773 0
M  V30 268 C 27.0617 1.10783 -1.16687 0
M  V30 269 O 28.2537 1.05057 -1.4245 0
M  V30 270 C 25.3827 1.78398 -2.93307 0
M  V30 271 C 24.4687 1.29961 -4.03697 0
M  V30 272 N 24.8597 0.532377 -5.0299 0
M  V30 273 C 23.1577 1.58136 -4.17024 0
M  V30 274 C 23.8587 0.275912 -5.81045 0
M  V30 275 N 22.8347 0.852365 -5.36876 0
M  V30 276 H 26.6367 0.0130779 -2.93897 0
M  V30 277 H 24.1507 -0.09341 -1.62131 0
M  V30 278 H 26.1477 2.43741 -3.38225 0
M  V30 279 H 24.8077 2.38166 -2.20697 0
M  V30 280 H 25.8187 0.17838 -5.17593 0
M  V30 281 H 22.4957 2.18738 -3.55612 0
M  V30 282 H 23.8857 -0.339502 -6.71042 0
M  V30 283 N 26.6058 1.57591 -0.0167156 0
M  V30 284 C 27.8518 1.91567 0.665582 0
M  V30 285 C 28.1848 0.892298 1.72487 0
M  V30 286 O 27.4598 -0.0867127 1.94307 0
M  V30 287 C 27.7428 3.36069 1.29342 0
M  V30 288 C 27.5958 4.49135 0.244541 0
M  V30 289 C 28.9148 3.803 2.21495 0
M  V30 290 H 26.0338 0.69666 0.240488 0
M  V30 291 H 28.6758 1.89866 -0.0714356 0
M  V30 292 H 26.8258 3.3765 1.92158 0
M  V30 293 H 28.4978 4.59689 -0.385228 0
M  V30 294 H 26.7408 4.3165 -0.431379 0
M  V30 295 H 27.4118 5.47242 0.723207 0
M  V30 296 H 29.8878 3.80377 1.68678 0
M  V30 297 H 28.7638 4.82127 2.62382 0
M  V30 298 H 29.0248 3.15104 3.101 0
M  V30 299 N 28.0839 -0.256276 1.55502 0
M  V30 300 C 29.0139 -1.32102 1.92539 0
M  V30 301 C 29.9949 -1.50684 0.789194 0
M  V30 302 O 31.1799 -1.63449 1.04872 0
M  V30 303 C 28.3099 -2.67752 2.21192 0
M  V30 304 C 27.2639 -2.63878 3.36975 0
M  V30 305 C 26.5899 -4.03236 3.51147 0
M  V30 306 C 27.8899 -2.21682 4.72921 0
M  V30 307 H 29.5839 -1.01351 2.81724 0
M  V30 308 H 27.1299 -0.486105 1.35547 0
M  V30 309 H 29.0829 -3.42365 2.45691 0
M  V30 310 H 27.8069 -3.0012 1.28824 0
M  V30 311 H 26.4659 -1.91722 3.12471 0
M  V30 312 H 26.1139 -4.32854 2.56216 0
M  V30 313 H 25.8139 -4.01535 4.29003 0
M  V30 314 H 27.3379 -4.79563 3.77957 0
M  V30 315 H 28.7519 -2.86023 4.96854 0
M  V30 316 H 27.1489 -2.3111 5.53812 0
M  V30 317 H 28.2189 -1.16833 4.70615 0
M  V30 318 N 29.562 -1.4872 -0.521534 0
M  V30 319 C 30.978 -1.35028 -0.850855 0
M  V30 320 C 31.178 -0.367712 -1.98116 0
M  V30 321 O 30.234 0.208037 -2.51642 0
M  V30 322 C 31.547 -2.75263 -1.21041 0
M  V30 323 C 33.095 -2.83813 -1.31981 0
M  V30 324 C 33.57 -4.24769 -1.71276 0
M  V30 325 N 35.061 -4.27482 -1.78363 0
M  V30 326 C 35.796 -5.33494 -2.1017 0
M  V30 327 N 35.292 -6.49775 -2.40343 0
M  V30 328 N 37.085 -5.20894 -2.11248 0
M  V30 329 H 29.236 -2.11214 0.22413 0
M  V30 330 H 31.499 -0.947252 0.0376439 0
M  V30 331 H 31.205 -3.48765 -0.453415 0
M  V30 332 H 31.079 -3.09327 -2.15863 0
M  V30 333 H 33.466 -2.10561 -2.06756 0
M  V30 334 H 33.547 -2.53358 -0.352596 0
M  V30 335 H 33.191 -4.9854 -0.970588 0
M  V30 336 H 33.121 -4.52673 -2.69062 0
M  V30 337 H 35.612 -3.43611 -1.57288 0
M  V30 338 H 35.925 -7.26402 -2.63743 0
M  V30 339 H 34.27 -6.53035 -2.37844 0
M  V30 340 H 37.461 -4.29065 -1.87139 0
M  V30 341 H 37.634 -6.03612 -2.35704 0
M  V30 342 N 31.0401 0.771051 -1.3745 0
M  V30 343 C 32.2681 1.56015 -1.35893 0
M  V30 344 C 32.6831 1.88718 0.0555523 0
M  V30 345 O 32.0401 1.51502 1.01752 0
M  V30 346 C 32.0911 2.87001 -2.19801 0
M  V30 347 O 31.8121 2.557 -3.55738 0
M  V30 348 C 33.3131 3.81228 -2.26231 0
M  V30 349 H 30.5331 0.483317 -0.465453 0
M  V30 350 H 33.0771 0.955611 -1.80799 0
M  V30 351 H 31.2321 3.43877 -1.78402 0
M  V30 352 H 31.6461 3.39584 -3.99729 0
M  V30 353 H 33.1201 4.70139 -2.89263 0
M  V30 354 H 33.5971 4.20409 -1.27093 0
M  V30 355 H 34.2031 3.30281 -2.67945 0
M  V30 356 N 32.5182 1.22032 0.997298 0
M  V30 357 C 33.7642 1.05382 1.73972 0
M  V30 358 C 34.1192 -0.407419 1.88037 0
M  V30 359 O 33.4122 -1.29811 1.40924 0
M  V30 360 C 33.6062 1.69345 3.14733 0
M  V30 361 C 33.4352 3.21537 3.14395 0
M  V30 362 C 32.2052 3.9062 3.20537 0
M  V30 363 C 34.4032 4.18527 2.98897 0
M  V30 364 N 32.3852 5.29935 3.09906 0
M  V30 365 C 33.7562 5.44645 2.96247 0
M  V30 366 C 35.8112 4.09476 2.83255 0
M  V30 367 C 34.5142 6.62752 2.79557 0
M  V30 368 C 36.5402 5.27228 2.67926 0
M  V30 369 C 35.9022 6.52262 2.65959 0
M  V30 370 H 32.0012 0.440018 0.646458 0
M  V30 371 H 34.5852 1.54505 1.18475 0
M  V30 372 H 32.7562 1.22778 3.68484 0
M  V30 373 H 34.4882 1.45828 3.77513 0
M  V30 374 H 31.2432 3.41592 3.28043 0
M  V30 375 H 31.6672 6.02926 3.07912 0
M  V30 376 H 36.3092 3.13598 2.83577 0
M  V30 377 H 34.0272 7.58783 2.77982 0
M  V30 378 H 37.6132 5.22053 2.56812 0
M  V30 379 H 36.4932 7.41844 2.54239 0
M  V30 380 N 33.9963 -1.19345 1.0293 0
M  V30 381 C 35.2423 -1.89318 0.727083 0
M  V30 382 C 35.5753 -1.79446 -0.742483 0
M  V30 383 O 34.8503 -1.1871 -1.54072 0
M  V30 384 C 35.1333 -3.40238 1.17942 0
M  V30 385 C 34.9863 -3.58979 2.71024 0
M  V30 386 C 36.3053 -4.33479 0.760548 0
M  V30 387 H 33.4243 -0.687475 0.265606 0
M  V30 388 H 36.0663 -1.40477 1.2793 0
M  V30 389 H 34.2163 -3.81964 0.709608 0
M  V30 390 H 35.8883 -3.26421 3.25955 0
M  V30 391 H 34.1313 -3.02018 3.11396 0
M  V30 392 H 34.8023 -4.64823 2.9773 0
M  V30 393 H 37.2783 -3.99469 1.16464 0
M  V30 394 H 36.1543 -5.37664 1.10493 0
M  V30 395 H 36.4153 -4.40813 -0.337063 0
M  V30 396 N 35.4744 -0.807222 -1.35358 0
M  V30 397 C 36.6994 -0.399309 -2.0352 0
M  V30 398 C 37.1244 0.981986 -1.60433 0
M  V30 399 O 36.4824 1.63601 -0.781299 0
M  V30 400 C 36.5304 -0.491552 -3.57234 0
M  V30 401 O 35.6344 0.494754 -4.09421 0
M  V30 402 H 34.9754 -0.166682 -0.642739 0
M  V30 403 H 37.5054 -1.09328 -1.72941 0
M  V30 404 H 37.5154 -0.361588 -4.06395 0
M  V30 405 H 36.1904 -1.49907 -3.87944 0
M  V30 406 H 34.7674 0.324977 -3.71481 0
M  V30 407 N 36.9525 1.47285 -0.560781 0
M  V30 408 C 38.1775 2.07359 -0.0410566 0
M  V30 409 C 38.6025 1.41017 1.24483 0
M  V30 410 O 37.9605 0.486368 1.74654 0
M  V30 411 C 38.0085 3.6035 0.134123 0
M  V30 412 O 37.1125 3.94681 1.19587 0
M  V30 413 H 36.4535 0.661887 -0.0529291 0
M  V30 414 H 38.9835 1.89252 -0.777482 0
M  V30 415 H 38.9935 4.0652 0.347207 0
M  V30 416 H 37.6685 4.08034 -0.805047 0
M  V30 417 H 36.2455 3.60251 0.962987 0
M  V30 418 N 38.4306 0.297415 1.54768 0
M  V30 419 C 39.3936 -0.567375 2.22066 0
M  V30 420 C 40.3936 -1.06409 1.20556 0
M  V30 421 O 41.5836 -0.960691 1.45315 0
M  V30 422 C 38.7156 -1.78517 2.90421 0
M  V30 423 H 39.9086 0.0205534 2.99893 0
M  V30 424 H 37.4616 0.0482163 1.56226 0
M  V30 425 H 38.1966 -2.41303 2.16664 0
M  V30 426 H 37.9816 -1.43669 3.64831 0
M  V30 427 H 39.4716 -2.39964 3.41771 0
M  V30 428 N 39.9087 -1.5758 0.0250728 0
M  V30 429 C 40.8717 -2.08896 -0.943139 0
M  V30 430 C 41.8717 -1.00321 -1.25668 0
M  V30 431 O 43.0617 -1.26495 -1.19769 0
M  V30 432 C 40.1937 -2.55143 -2.26086 0
M  V30 433 H 41.3867 -2.95723 -0.498775 0
M  V30 434 H 38.9397 -1.54703 -0.222888 0
M  V30 435 H 39.6747 -1.71633 -2.75159 0
M  V30 436 H 39.4597 -3.34461 -2.04641 0
M  V30 437 H 40.9497 -2.95083 -2.95492 0
M  V30 438 N 41.3868 0.248026 -1.55636 0
M  V30 439 C 42.3188 1.32993 -1.8667 0
M  V30 440 C 43.3318 1.44345 -0.752877 0
M  V30 441 O 44.5208 1.45715 -1.03098 0
M  V30 442 C 41.6208 2.70863 -2.03682 0
M  V30 443 C 40.7938 2.81792 -3.34532 0
M  V30 444 C 39.8528 4.005 -3.41301 0
M  V30 445 O 38.8788 3.9008 -4.14519 0
M  V30 446 N 40.0808 5.13618 -2.70512 0
M  V30 447 H 42.8458 1.06707 -2.8006 0
M  V30 448 H 40.4068 0.438129 -1.55859 0
M  V30 449 H 42.3988 3.48612 -2.05553 0
M  V30 450 H 40.9688 2.89862 -1.17041 0
M  V30 451 H 40.1888 1.90729 -3.44987 0
M  V30 452 H 41.4768 2.86043 -4.20781 0
M  V30 453 H 40.8748 5.24975 -2.10755 0
M  V30 454 H 39.4318 5.89505 -2.78077 0
M  V30 455 N 42.8649 1.48995 0.513639 0
M  V30 456 C 44.0929 1.61531 1.29288 0
M  V30 457 C 44.5079 0.281801 1.86685 0
M  V30 458 O 43.8649 -0.731111 1.67215 0
M  V30 459 C 43.9159 2.67449 2.43215 0
M  V30 460 O 43.6369 3.95626 1.88179 0
M  V30 461 C 45.1379 2.90575 3.34785 0
M  V30 462 H 42.3579 0.544165 0.392588 0
M  V30 463 H 44.9019 1.9494 0.617956 0
M  V30 464 H 43.0569 2.36853 3.0656 0
M  V30 465 H 43.4709 4.53868 2.62876 0
M  V30 466 H 44.9449 3.68449 4.11035 0
M  V30 467 H 45.4219 2.00011 3.91015 0
M  V30 468 H 46.0279 3.22538 2.77218 0
M  V30 469 N 44.343 -0.763751 1.37857 0
M  V30 470 C 45.253 -1.90817 1.36478 0
M  V30 471 C 46.269 -1.71997 0.263248 0
M  V30 472 O 47.445 -1.95095 0.499979 0
M  V30 473 C 44.51 -3.2605 1.17864 0
M  V30 474 C 43.571 -3.57467 2.3773 0
M  V30 475 C 42.804 -4.86249 2.19995 0
M  V30 476 O 43.027 -5.57884 1.18836 0
M  V30 477 O 41.961 -5.16911 3.08361 0
M  V30 478 H 45.787 -1.94933 2.32884 0
M  V30 479 H 43.372 -0.907619 1.1867 0
M  V30 480 H 45.254 -4.06924 1.09504 0
M  V30 481 H 43.929 -3.22769 0.245372 0
M  V30 482 H 42.836 -2.76796 2.51664 0
M  V30 483 H 44.169 -3.655 3.29652 0
M  V30 484 N 45.8211 -1.22559 -0.990812 0
M  V30 485 C 46.7681 -0.997519 -2.0813 0
M  V30 486 C 47.7381 0.0814702 -1.659 0
M  V30 487 O 48.9231 -0.0685424 -1.90677 0
M  V30 488 C 46.0631 -0.583615 -3.40129 0
M  V30 489 C 45.1761 -1.7336 -3.9569 0
M  V30 490 C 44.3111 -1.26748 -5.15857 0
M  V30 491 C 43.3501 -2.38888 -5.63559 0
M  V30 492 N 42.4871 -1.93308 -6.74964 0
M  V30 493 H 47.3271 -1.93099 -2.26973 0
M  V30 494 H 44.8641 -0.962114 -1.11273 0
M  V30 495 H 46.8221 -0.324801 -4.15934 0
M  V30 496 H 45.4521 0.312845 -3.2128 0
M  V30 497 H 44.5041 -2.10669 -3.16738 0
M  V30 498 H 45.8161 -2.57704 -4.27071 0
M  V30 499 H 44.9701 -0.966173 -5.98957 0
M  V30 500 H 43.7091 -0.394272 -4.86104 0
M  V30 501 H 42.7141 -2.69805 -4.79046 0
M  V30 502 H 43.9391 -3.26728 -5.95336 0
M  V30 503 H 41.8851 -1.08352 -6.4699 0
M  V30 504 H 41.8021 -2.71217 -7.05675 0
M  V30 505 H 43.0701 -1.66252 -7.61564 0
M  V30 506 N 47.2992 1.18797 -1.03562 0
M  V30 507 C 48.5472 1.88278 -0.734569 0
M  V30 508 C 48.8682 1.8043 0.739586 0
M  V30 509 O 48.1382 1.21925 1.53333 0
M  V30 510 H 46.7182 0.696991 -0.268725 0
M  V30 511 H 49.3802 1.44192 -1.31129 0
M  V30 512 H 48.4762 2.94443 -1.03489 0
M  V30 513 N 48.7773 0.814389 1.34928 0
M  V30 514 C 50.0253 0.397636 1.9815 0
M  V30 515 C 50.3463 -1.04069 1.64908 0
M  V30 516 O 49.6163 -1.72121 0.93548 0
M  V30 517 H 48.1963 0.144043 0.732981 0
M  V30 518 H 50.8583 1.04195 1.6471 0
M  V30 519 H 49.9543 0.509688 3.0791 0
M  V30 520 N 50.2554 -1.46986 0.568584 0
M  V30 521 C 51.6714 -1.57946 0.229189 0
M  V30 522 C 51.8714 -1.56567 -1.26843 0
M  V30 523 O 50.9274 -1.47511 -2.04931 0
M  V30 524 C 52.2404 -2.87963 0.865909 0
M  V30 525 C 53.7884 -3.01568 0.838188 0
M  V30 526 C 54.2634 -4.34301 1.45419 0
M  V30 527 N 55.7544 -4.40965 1.41788 0
M  V30 528 C 56.4894 -5.42256 1.86403 0
M  V30 529 N 55.9854 -6.50297 2.38926 0
M  V30 530 N 57.7784 -5.3337 1.77405 0
M  V30 531 H 49.9294 -1.46126 1.54146 0
M  V30 532 H 52.1924 -0.696156 0.643484 0
M  V30 533 H 51.8984 -2.94742 1.91886 0
M  V30 534 H 51.7724 -3.75423 0.365687 0
M  V30 535 H 54.1594 -2.94379 -0.206106 0
M  V30 536 H 54.2404 -2.1562 1.37629 0
M  V30 537 H 53.8844 -4.42247 2.49761 0
M  V30 538 H 53.8144 -5.19 0.891435 0
M  V30 539 H 56.3054 -3.63484 1.03381 0
M  V30 540 H 56.6184 -7.23777 2.70863 0
M  V30 541 H 54.9634 -6.51155 2.42944 0
M  V30 542 H 58.1544 -4.47865 1.3614 0
M  V30 543 H 58.3274 -6.12169 2.12492 0
M  V30 544 N 51.7335 -0.305618 -1.54608 0
M  V30 545 C 52.9615 0.304775 -2.04643 0
M  V30 546 C 53.3765 1.47167 -1.18268 0
M  V30 547 O 52.7335 1.81296 -0.209328 0
M  V30 548 C 52.7845 0.756564 -3.53495 0
M  V30 549 O 52.5055 -0.36389 -4.36586 0
M  V30 550 C 54.0065 1.43163 -4.19546 0
M  V30 551 H 51.2265 0.0655481 -0.667791 0
M  V30 552 H 53.7705 -0.446592 -1.99564 0
M  V30 553 H 51.9255 1.45794 -3.58919 0
M  V30 554 H 52.3395 -0.0113121 -5.24499 0
M  V30 555 H 53.8135 1.69886 -5.25207 0
M  V30 556 H 54.2905 2.37318 -3.69563 0
M  V30 557 H 54.8965 0.773307 -4.18211 0
M  V30 558 N 53.2116 1.57565 -0.0334293 0
M  V30 559 C 54.1436 2.0739 0.975811 0
M  V30 560 C 55.1566 0.998166 1.2861 0
M  V30 561 O 56.3456 1.27426 1.25 0
M  V30 562 C 53.4456 2.4871 2.30209 0
M  V30 563 C 52.6186 3.79413 2.17634 0
M  V30 564 C 51.6776 4.07237 3.33233 0
M  V30 565 O 50.7036 4.77425 3.09927 0
M  V30 566 N 51.9056 3.5775 4.5716 0
M  V30 567 H 54.6706 2.94598 0.55066 0
M  V30 568 H 52.2316 1.61173 0.15323 0
M  V30 569 H 54.2236 2.64413 3.06378 0
M  V30 570 H 52.7936 1.66845 2.64351 0
M  V30 571 H 52.0136 3.73465 1.26165 0
M  V30 572 H 53.3016 4.65038 2.0644 0
M  V30 573 H 52.6996 3.00976 4.78989 0
M  V30 574 H 51.2566 3.78724 5.30482 0
M  V30 575 N 54.6897 -0.239769 1.55765 0
M  V30 576 C 55.9147 -0.988373 1.82335 0
M  V30 577 C 56.3397 -1.77886 0.611421 0
M  V30 578 O 55.6977 -1.75889 -0.439639 0
M  V30 579 C 55.7457 -1.89627 3.06715 0
M  V30 580 O 54.8497 -2.98904 2.84131 0
M  V30 581 H 54.1907 -0.280858 0.601677 0
M  V30 582 H 56.7207 -0.258597 2.02959 0
M  V30 583 H 56.7307 -2.30957 3.36338 0
M  V30 584 H 55.4057 -1.31511 3.9456 0
M  V30 585 H 53.9827 -2.61651 2.65694 0
M  V30 586 N 56.1678 -1.49265 -0.50573 0
M  V30 587 C 57.0998 -1.617 -1.62437 0
M  V30 588 C 58.1128 -0.499924 -1.54934 0
M  V30 589 O 59.3018 -0.771785 -1.60953 0
M  V30 590 C 56.4018 -1.5533 -3.01207 0
M  V30 591 C 55.5748 -2.8249 -3.33943 0
M  V30 592 C 54.6338 -2.69238 -4.52103 0
M  V30 593 O 53.6598 -3.43167 -4.5412 0
M  V30 594 N 54.8618 -1.80468 -5.51735 0
M  V30 595 H 57.6268 -2.58177 -1.52199 0
M  V30 596 H 55.1878 -1.46294 -0.693511 0
M  V30 597 H 57.1798 -1.44125 -3.78167 0
M  V30 598 H 55.7498 -0.667297 -3.05395 0
M  V30 599 H 54.9698 -3.08081 -2.45926 0
M  V30 600 H 56.2578 -3.66802 -3.5261 0
M  V30 601 H 55.6558 -1.19653 -5.52901 0
M  V30 602 H 54.2128 -1.75188 -6.27816 0
M  V30 603 N 57.6459 0.756429 -1.3826 0
M  V30 604 C 58.5759 1.88374 -1.37976 0
M  V30 605 C 59.5569 1.68311 -0.246082 0
M  V30 606 O 60.7419 1.88944 -0.44874 0
M  V30 607 C 57.8719 3.25864 -1.20125 0
M  V30 608 C 56.8259 3.60523 -2.30666 0
M  V30 609 C 56.1519 4.9672 -1.97923 0
M  V30 610 C 57.4519 3.65692 -3.72916 0
M  V30 611 H 59.1459 1.88869 -2.32312 0
M  V30 612 H 56.6919 0.907272 -1.11824 0
M  V30 613 H 58.6449 4.0438 -1.18552 0
M  V30 614 H 57.3689 3.25841 -0.222498 0
M  V30 615 H 56.0279 2.84324 -2.3142 0
M  V30 616 H 55.6759 4.93253 -0.985393 0
M  V30 617 H 55.3759 5.20878 -2.71955 0
M  V30 618 H 56.8999 5.77618 -1.97964 0
M  V30 619 H 58.3139 4.34328 -3.74208 0
M  V30 620 H 56.7109 4.01358 -4.4613 0
M  V30 621 H 57.7809 2.65987 -4.05436 0
M  V30 622 N 59.124 1.23083 0.984299 0
M  V30 623 C 60.087 1.00979 2.05757 0
M  V30 624 C 61.087 -0.0269573 1.60777 0
M  V30 625 O 62.277 0.212403 1.729 0
M  V30 626 C 59.409 0.527072 3.36801 0
M  V30 627 H 60.602 1.9622 2.26799 0
M  V30 628 H 58.155 1.05072 1.15714 0
M  V30 629 H 58.89 -0.429294 3.21446 0
M  V30 630 H 58.675 1.27515 3.70786 0
M  V30 631 H 60.165 0.392942 4.15747 0
M  V30 632 N 60.6021 -1.18246 1.0419 0
M  V30 633 C 61.5491 -2.2192 0.634037 0
M  V30 634 C 62.5191 -1.62179 -0.358765 0
M  V30 635 O 63.7041 -1.89122 -0.252466 0
M  V30 636 C 60.8441 -3.451 0.00445535 0
M  V30 637 C 59.9571 -4.19174 1.04487 0
M  V30 638 C 59.0921 -5.29813 0.383676 0
M  V30 639 C 58.1311 -5.9566 1.4091 0
M  V30 640 N 57.2681 -6.97834 0.772784 0
M  V30 641 H 62.1081 -2.56164 1.52263 0
M  V30 642 H 59.6451 -1.25843 0.761701 0
M  V30 643 H 61.6031 -4.15485 -0.377919 0
M  V30 644 H 60.2331 -3.11472 -0.847652 0
M  V30 645 H 59.2851 -3.47604 1.54518 0
M  V30 646 H 60.5971 -4.64267 1.82368 0
M  V30 647 H 59.7511 -6.06677 -0.0528366 0
M  V30 648 H 58.4901 -4.85825 -0.427208 0
M  V30 649 H 57.4951 -5.17535 1.85574 0
M  V30 650 H 58.7201 -6.4173 2.22171 0
M  V30 651 H 56.6661 -6.55998 -0.0177708 0
M  V30 652 H 56.5831 -7.41186 1.48928 0
M  V30 653 H 57.8511 -7.78665 0.36071 0
M  V30 654 N 62.0802 -0.821533 -1.34494 0
M  V30 655 C 63.3052 -0.420873 -2.03085 0
M  V30 656 C 63.7302 0.964915 -1.61465 0
M  V30 657 O 63.0882 1.62763 -0.798607 0
M  V30 658 C 63.1362 -0.529414 -3.56693 0
M  V30 659 O 62.2402 0.451302 -4.09923 0
M  V30 660 H 61.5812 -0.173489 -0.640935 0
M  V30 661 H 64.1112 -1.11157 -1.71771 0
M  V30 662 H 64.1212 -0.404671 -4.05988 0
M  V30 663 H 62.7962 -1.54014 -3.86332 0
M  V30 664 H 61.3732 0.285558 -3.71805 0
M  V30 665 N 63.5583 1.46682 -0.576371 0
M  V30 666 C 64.7833 2.07304 -0.0630475 0
M  V30 667 C 65.2083 1.42329 1.2298 0
M  V30 668 O 64.5663 0.504865 1.74129 0
M  V30 669 C 64.6143 3.60472 0.095895 0
M  V30 670 O 63.7183 3.95927 1.15394 0
M  V30 671 H 63.0593 0.661288 -0.0599463 0
M  V30 672 H 65.5893 1.88417 -0.797511 0
M  V30 673 H 65.5993 4.06865 0.304071 0
M  V30 674 H 64.2743 4.07157 -0.84828 0
M  V30 675 H 62.8513 3.61252 0.924724 0
M  V30 676 N 65.0364 0.313813 1.54444 0
M  V30 677 C 66.4524 -0.0391619 1.59552 0
M  V30 678 C 66.6524 -1.51322 1.33056 0
M  V30 679 O 65.7084 -2.26782 1.11022 0
M  V30 680 C 67.0214 0.370302 2.98411 0
M  V30 681 C 68.5694 0.320139 3.11358 0
M  V30 682 C 69.0444 0.704617 4.52547 0
M  V30 683 N 70.5354 0.657645 4.58508 0
M  V30 684 C 71.2704 0.927453 5.6585 0
M  V30 685 N 70.7664 1.26389 6.81174 0
M  V30 686 N 72.5594 0.853662 5.5558 0
M  V30 687 H 64.7104 1.27433 1.69925 0
M  V30 688 H 66.9734 0.517511 0.794284 0
M  V30 689 H 66.6794 1.39694 3.22767 0
M  V30 690 H 66.5534 -0.269619 3.76235 0
M  V30 691 H 68.9404 -0.697275 2.86744 0
M  V30 692 H 69.0214 0.99486 2.35661 0
M  V30 693 H 68.6654 1.7199 4.77893 0
M  V30 694 H 68.5954 0.00768843 5.26599 0
M  V30 695 H 71.0864 0.409067 3.75679 0
M  V30 696 H 71.3994 1.4554 7.58972 0
M  V30 697 H 69.7444 1.30206 6.82694 0
M  V30 698 H 72.9354 0.590383 4.64362 0
M  V30 699 H 73.1084 1.0673 6.3915 0
M  V30 700 N 66.5145 -1.57545 0.0417849 0
M  V30 701 C 67.9255 -1.80011 -0.495259 0
M  V30 702 C 68.2765 -0.953199 -1.71489 0
M  V30 703 O 67.4015 -0.167138 -2.15754 0
M  V30 704 C 67.9965 -3.26482 -0.905265 0
M  V30 705 C 66.5555 -3.499 -1.38734 0
M  V30 706 C 65.7025 -2.74979 -0.358056 0
M  V30 707 H 68.6535 -1.56425 0.267736 0
M  V30 708 H 68.6745 -3.36887 -1.76882 0
M  V30 709 H 68.1865 -3.88096 -0.017401 0
M  V30 710 H 66.2875 -2.93553 -2.29471 0
M  V30 711 H 66.4005 -4.58615 -1.38598 0
M  V30 712 H 64.7645 -2.40834 -0.828912 0
M  V30 713 H 65.5475 -3.39315 0.521561 0
M  V30 714 N 67.9926 0.231505 -1.5589 0
M  V30 715 C 68.9026 1.308 -1.94752 0
M  V30 716 C 69.9186 1.51826 -0.849989 0
M  V30 717 O 71.0946 1.6515 -1.15271 0
M  V30 718 C 68.1596 2.63968 -2.24771 0
M  V30 719 C 67.2206 2.51331 -3.48039 0
M  V30 720 C 66.4536 3.78148 -3.76616 0
M  V30 721 O 66.6766 4.80722 -3.07022 0
M  V30 722 O 65.6106 3.75857 -4.70123 0
M  V30 723 H 69.4366 1.0083 -2.86474 0
M  V30 724 H 67.0216 0.433547 -1.42971 0
M  V30 725 H 68.9036 3.42633 -2.45318 0
M  V30 726 H 67.5786 2.9364 -1.36225 0
M  V30 727 H 66.4856 1.709 -3.32782 0
M  V30 728 H 67.8186 2.26601 -4.36936 0
M  V30 729 N 69.4707 1.49531 0.497807 0
M  V30 730 C 70.7177 1.59179 1.25173 0
M  V30 731 C 71.0457 0.279932 1.92475 0
M  V30 732 O 70.3007 -0.732383 1.81479 0
M  V30 733 C 70.5997 2.70252 2.33878 0
M  V30 734 C 70.2657 4.11644 1.84012 0
M  V30 735 C 68.9277 4.50121 1.70132 0
M  V30 736 C 71.2797 5.00121 1.46725 0
M  V30 737 C 68.6077 5.74845 1.17348 0
M  V30 738 C 70.9597 6.25366 0.95392 0
M  V30 739 C 69.6237 6.6267 0.801538 0
M  V30 740 H 68.8937 0.582478 0.45804 0
M  V30 741 H 71.5407 1.83373 0.551948 0
M  V30 742 H 69.8457 2.40041 3.09657 0
M  V30 743 H 71.5427 2.74925 2.9192 0
M  V30 744 H 68.1327 3.81274 1.95775 0
M  V30 745 H 72.3167 4.71048 1.56294 0
M  V30 746 H 67.5727 6.02444 1.04264 0
M  V30 747 H 71.7467 6.93301 0.656225 0
M  V30 748 H 69.3737 7.59197 0.390351 0
M  V30 749 N 70.9488 -0.749086 1.3866 0
M  V30 750 C 72.2258 -1.4992 1.25632 0
M  V30 751 C 72.6058 -2.10633 -0.140317 0
M  V30 752 O 71.9538 -1.97437 -1.15025 0
M  V30 753 C 72.1638 -2.56195 2.36992 0
M  V30 754 C 73.5118 -3.22972 2.75634 0
M  V30 755 O 74.5358 -2.66502 2.36337 0
M  V30 756 O 73.3948 -4.25122 3.43415 0
M  V30 757 H 70.4888 -0.665067 0.491544 0
M  V30 758 H 73.0348 -0.784113 1.50498 0
M  V30 759 H 71.8068 -2.09612 3.30422 0
M  V30 760 H 71.4298 -3.35279 2.13714 0
M  V30 761 N 72.4269 -1.23603 -0.977757 0
M  V30 762 C 73.6729 -1.08136 -1.72274 0
M  V30 763 C 74.0279 0.377453 -1.88661 0
M  V30 764 O 73.3209 1.27552 -1.42972 0
M  V30 765 C 73.5149 -1.7433 -3.11999 0
M  V30 766 C 73.3439 -3.26498 -3.0924 0
M  V30 767 C 72.1139 -3.9567 -3.14282 0
M  V30 768 C 74.3119 -4.2323 -2.92201 0
M  V30 769 N 72.2939 -5.34799 -3.01436 0
M  V30 770 C 73.6649 -5.49289 -2.87544 0
M  V30 771 C 75.7199 -4.13931 -2.76705 0
M  V30 772 C 74.4229 -6.67116 -2.68978 0
M  V30 773 C 76.4489 -5.31424 -2.59504 0
M  V30 774 C 75.8109 -6.5641 -2.55548 0
M  V30 775 H 71.9099 -0.450247 -0.639376 0
M  V30 776 H 74.4939 -1.5637 -1.16002 0
M  V30 777 H 72.6649 -1.28624 -3.66484 0
M  V30 778 H 74.3969 -1.51815 -3.75146 0
M  V30 779 H 71.1519 -3.46767 -3.22567 0
M  V30 780 H 71.5759 -6.07748 -2.98281 0
M  V30 781 H 76.2179 -3.1807 -2.78552 0
M  V30 782 H 73.9359 -7.63109 -2.65876 0
M  V30 783 H 77.5219 -5.26072 -2.48474 0
M  V30 784 H 76.4019 -7.45795 -2.42405 0
M  V30 785 N 73.905 1.17692 -1.04816 0
M  V30 786 C 74.837 2.21103 -0.603822 0
M  V30 787 C 75.85 1.59411 0.33046 0
M  V30 788 O 77.039 1.7807 0.12379 0
M  V30 789 C 74.139 3.38623 0.136898 0
M  V30 790 C 73.312 4.29888 -0.807137 0
M  V30 791 C 72.371 5.26088 -0.10836 0
M  V30 792 O 71.397 5.64353 -0.741232 0
M  V30 793 N 72.599 5.68882 1.15558 0
M  V30 794 H 75.364 2.59848 -1.49329 0
M  V30 795 H 72.925 1.32553 -0.929587 0
M  V30 796 H 74.917 4.00009 0.614401 0
M  V30 797 H 73.487 2.98508 0.927993 0
M  V30 798 H 72.707 3.65993 -1.46434 0
M  V30 799 H 73.995 4.87759 -1.44807 0
M  V30 800 H 73.393 5.39861 1.69015 0
M  V30 801 H 71.95 6.32429 1.57722 0
M  V30 802 N 75.3831 0.828654 1.34056 0
M  V30 803 C 76.6601 0.341809 1.9259 0
M  V30 804 C 77.0401 -1.17158 1.75605 0
M  V30 805 O 76.3881 -1.98132 1.13824 0
M  V30 806 C 76.5981 0.777453 3.4023 0
M  V30 807 C 77.9461 0.779579 4.17382 0
M  V30 808 O 78.9701 0.7204 3.48839 0
M  V30 809 O 77.8291 0.857996 5.39723 0
M  V30 810 H 74.9231 0.0946085 0.821571 0
M  V30 811 H 77.4691 0.913827 1.42994 0
M  V30 812 H 76.2411 1.8196 3.46419 0
M  V30 813 H 75.8641 0.181444 3.97186 0
M  V30 814 N 76.8612 -1.46375 0.584142 0
M  V30 815 C 78.2722 -1.86031 0.157959 0
M  V30 816 C 78.6232 -1.48753 -1.27933 0
M  V30 817 O 77.7482 -0.903098 -1.96655 0
M  V30 818 C 78.3432 -3.37642 0.279892 0
M  V30 819 C 76.9022 -3.76289 -0.09143 0
M  V30 820 C 76.0492 -2.7039 0.615178 0
M  V30 821 H 79.0002 -1.37509 0.792274 0
M  V30 822 H 79.0212 -3.77275 -0.494364 0
M  V30 823 H 78.5332 -3.64742 1.32607 0
M  V30 824 H 76.6342 -3.54806 -1.13769 0
M  V30 825 H 76.7472 -4.78246 0.285886 0
M  V30 826 H 75.1112 -2.5464 0.0552833 0
M  V30 827 H 75.8942 -3.0033 1.66303 0
M  V30 828 N 78.3393 -0.321999 -1.54275 0
M  V30 829 C 79.2693 0.537411 -2.27231 0
M  V30 830 C 80.2503 1.12064 -1.27968 0
M  V30 831 O 81.4353 1.14606 -1.56777 0
M  V30 832 C 78.5653 1.69919 -3.02894 0
M  V30 833 C 77.5193 1.24534 -4.09482 0
M  V30 834 C 76.8453 2.49394 -4.72977 0
M  V30 835 C 78.1453 0.361335 -5.21049 0
M  V30 836 H 79.8393 -0.0711406 -2.99315 0
M  V30 837 H 77.3853 -0.0356555 -1.43956 0
M  V30 838 H 79.3383 2.30668 -3.52662 0
M  V30 839 H 78.0623 2.33431 -2.28424 0
M  V30 840 H 76.7213 0.660782 -3.60596 0
M  V30 841 H 76.3693 3.11265 -3.95124 0
M  V30 842 H 76.0693 2.19718 -5.44975 0
M  V30 843 H 77.5933 3.10908 -5.25517 0
M  V30 844 H 79.0073 0.875072 -5.66582 0
M  V30 845 H 77.4043 0.157428 -5.99893 0
M  V30 846 H 78.4743 -0.60822 -4.8107 0
M  V30 847 N 79.8174 1.5752 -0.0501392 0
M  V30 848 C 81.0634 1.92936 0.624798 0
M  V30 849 C 81.3964 0.928685 1.70555 0
M  V30 850 O 80.6714 -0.0454779 1.94447 0
M  V30 851 C 80.9544 3.38737 1.22185 0
M  V30 852 C 80.8074 4.49552 0.149218 0
M  V30 853 C 82.1264 3.84913 2.13378 0
M  V30 854 H 79.2454 0.701604 0.225657 0
M  V30 855 H 81.8874 1.89671 -0.111693 0
M  V30 856 H 80.0374 3.4165 1.84953 0
M  V30 857 H 81.7094 4.58768 -0.482648 0
M  V30 858 H 79.9524 4.30638 -0.522841 0
M  V30 859 H 80.6234 5.48653 0.606966 0
M  V30 860 H 83.0994 3.8387 1.60572 0
M  V30 861 H 81.9754 4.87584 2.52097 0
M  V30 862 H 82.2364 3.21611 3.03346 0
M  V30 863 N 81.2955 -0.223234 1.56011 0
M  V30 864 C 82.2255 -1.27988 1.95298 0
M  V30 865 C 83.2065 -1.48976 0.820979 0
M  V30 866 O 84.3915 -1.61188 1.08315 0
M  V30 867 C 81.5215 -2.63 2.26822 0
M  V30 868 C 80.4755 -2.56671 3.42497 0
M  V30 869 C 79.8015 -3.95697 3.59622 0
M  V30 870 C 81.1015 -2.11601 4.77517 0
M  V30 871 H 82.7955 -0.953525 2.8381 0
M  V30 872 H 80.3415 -0.457244 1.36548 0
M  V30 873 H 82.2945 -3.37077 2.52898 0
M  V30 874 H 81.0185 -2.9732 1.35161 0
M  V30 875 H 79.6775 -1.85051 3.16467 0
M  V30 876 H 79.3255 -4.27322 2.6534 0
M  V30 877 H 79.0255 -3.92345 4.37424 0
M  V30 878 H 80.5495 -4.71438 3.88044 0
M  V30 879 H 81.9635 -2.7542 5.02809 0
M  V30 880 H 80.3605 -2.19311 5.5859 0
M  V30 881 H 81.4305 -1.06824 4.72987 0
M  V30 882 N 82.7736 -1.49793 -0.48987 0
M  V30 883 C 83.6836 -1.70036 -1.61632 0
M  V30 884 C 84.6996 -0.583102 -1.63939 0
M  V30 885 O 85.8756 -0.859169 -1.82154 0
M  V30 886 C 82.9406 -1.77277 -2.97949 0
M  V30 887 C 82.0016 -3.00918 -3.06181 0
M  V30 888 C 81.2346 -3.07804 -4.35996 0
M  V30 889 O 81.4576 -2.21982 -5.25433 0
M  V30 890 O 80.3916 -4.00369 -4.49431 0
M  V30 891 H 84.2176 -2.65486 -1.47482 0
M  V30 892 H 81.8026 -1.33666 -0.667362 0
M  V30 893 H 83.6846 -1.84329 -3.78947 0
M  V30 894 H 82.3596 -0.850076 -3.12339 0
M  V30 895 H 81.2666 -2.99377 -2.2433 0
M  V30 896 H 82.5996 -3.92704 -2.96723 0
M  V30 897 N 84.2517 0.741722 -1.39055 0
M  V30 898 C 85.1617 1.88621 -1.39496 0
M  V30 899 C 86.1777 1.71557 -0.290578 0
M  V30 900 O 87.3537 1.94275 -0.530954 0
M  V30 901 C 84.4187 3.24134 -1.23037 0
M  V30 902 C 83.4797 3.5364 -2.43387 0
M  V30 903 C 82.7127 4.82687 -2.27703 0
M  V30 904 O 82.9357 5.55922 -1.27696 0
M  V30 905 O 81.8697 5.1194 -3.16545 0
M  V30 906 H 85.6957 1.91203 -2.35956 0
M  V30 907 H 83.2807 0.888625 -1.20099 0
M  V30 908 H 85.1627 4.0513 -1.15964 0
M  V30 909 H 83.8377 3.22337 -0.296691 0
M  V30 910 H 82.7447 2.72758 -2.56035 0
M  V30 911 H 84.0777 3.60209 -3.35425 0
M  V30 912 N 85.7298 1.2412 0.971189 0
M  V30 913 C 86.6618 0.988349 2.06795 0
M  V30 914 C 87.6748 -0.0409541 1.62748 0
M  V30 915 O 88.8638 0.195673 1.77424 0
M  V30 916 C 85.9638 0.469023 3.35639 0
M  V30 917 C 85.1368 1.56065 4.08611 0
M  V30 918 C 84.1958 1.04458 5.15728 0
M  V30 919 O 83.2218 1.73553 5.42096 0
M  V30 920 N 84.4238 -0.122817 5.8037 0
M  V30 921 H 87.1888 1.93265 2.29061 0
M  V30 922 H 84.7498 1.15102 1.13856 0
M  V30 923 H 86.7418 0.108613 4.04554 0
M  V30 924 H 85.3118 -0.380919 3.1027 0
M  V30 925 H 84.5318 2.09341 3.34021 0
M  V30 926 H 85.8198 2.29449 4.54126 0
M  V30 927 H 85.2178 -0.700563 5.61345 0
M  V30 928 H 83.7748 -0.424404 6.50417 0
M  V30 929 N 87.2079 -1.17134 1.05439 0
M  V30 930 C 88.1379 -2.2342 0.678649 0
M  V30 931 C 89.1189 -1.66971 -0.32476 0
M  V30 932 O 90.3039 -1.93149 -0.201802 0
M  V30 933 C 87.4339 -3.47256 0.0552099 0
M  V30 934 C 86.3879 -4.16543 0.98365 0
M  V30 935 C 85.7139 -5.34231 0.223961 0
M  V30 936 C 87.0139 -4.68495 2.3089 0
M  V30 937 H 88.7079 -2.55105 1.56722 0
M  V30 938 H 86.2539 -1.2262 0.754998 0
M  V30 939 H 88.2069 -4.20828 -0.21946 0
M  V30 940 H 86.9309 -3.14846 -0.868319 0
M  V30 941 H 85.5899 -3.44887 1.24293 0
M  V30 942 H 85.2379 -4.98071 -0.702412 0
M  V30 943 H 84.9379 -5.81527 0.842627 0
M  V30 944 H 86.4619 -6.10585 -0.0433671 0
M  V30 945 H 87.8759 -5.33691 2.09396 0
M  V30 946 H 86.2729 -5.26379 2.88176 0
M  V30 947 H 87.3429 -3.85169 2.94572 0
M  V30 948 N 88.686 -0.835752 -1.33615 0
M  V30 949 C 89.914 -0.443344 -2.02094 0
M  V30 950 C 90.329 0.954522 -1.62894 0
M  V30 951 O 89.686 1.61982 -0.840723 0
M  V30 952 C 89.737 -0.550775 -3.5728 0
M  V30 953 O 89.458 -1.89356 -3.95065 0
M  V30 954 C 90.959 -0.154919 -4.43029 0
M  V30 955 H 88.179 -0.176359 -0.647409 0
M  V30 956 H 90.723 -1.12746 -1.70612 0
M  V30 957 H 88.878 0.0853997 -3.87306 0
M  V30 958 H 89.292 -1.87687 -4.89769 0
M  V30 959 H 90.766 -0.281144 -5.51284 0
M  V30 960 H 91.243 0.902863 -4.2982 0
M  V30 961 H 91.849 -0.765404 -4.18356 0
M  V30 962 N 90.1641 1.46063 -0.591896 0
M  V30 963 C 91.3921 2.06717 -0.0868936 0
M  V30 964 C 91.8071 1.43916 1.22203 0
M  V30 965 O 91.1641 0.547698 1.74088 0
M  V30 966 C 91.2151 3.6142 0.0758725 0
M  V30 967 O 90.9361 4.21874 -1.18126 0
M  V30 968 C 92.4371 4.39025 0.61416 0
M  V30 969 H 89.6571 0.668162 -0.0616518 0
M  V30 970 H 92.2011 1.8755 -0.815175 0
M  V30 971 H 90.3561 3.79983 0.754413 0
M  V30 972 H 90.7701 5.14861 -1.00092 0
M  V30 973 H 92.2441 5.4783 0.677193 0
M  V30 974 H 92.7211 4.07708 1.63312 0
M  V30 975 H 93.3271 4.2529 -0.0298142 0
M  V30 976 N 91.6422 0.330177 1.54103 0
M  V30 977 C 92.9192 -0.325007 1.92881 0
M  V30 978 C 93.2992 -1.6934 1.26045 0
M  V30 979 O 92.6472 -2.24855 0.406526 0
M  V30 980 C 92.8572 -0.410634 3.46576 0
M  V30 981 C 94.2052 -0.667801 4.19316 0
M  V30 982 O 95.2292 -0.49329 3.52768 0
M  V30 983 O 94.0882 -1.00491 5.37181 0
M  V30 984 H 91.1822 -0.186873 0.80561 0
M  V30 985 H 93.7282 0.380376 1.65382 0
M  V30 986 H 92.5002 0.550164 3.87413 0
M  V30 987 H 92.1232 -1.16333 3.802 0
M  V30 988 N 93.1203 -1.57491 0.0584922 0
M  V30 989 C 94.0303 -2.15448 -0.928414 0
M  V30 990 C 95.0463 -1.11416 -1.3365 0
M  V30 991 O 96.2223 -1.4362 -1.41193 0
M  V30 992 C 93.2873 -2.69393 -2.18239 0
M  V30 993 C 92.3483 -3.88249 -1.83196 0
M  V30 994 C 91.5813 -4.39613 -3.02616 0
M  V30 995 O 91.8043 -3.90023 -4.16219 0
M  V30 996 O 90.7383 -5.31111 -2.83204 0
M  V30 997 H 94.5643 -3.00112 -0.465483 0
M  V30 998 H 92.1493 -1.48499 -0.163826 0
M  V30 999 H 94.0313 -3.04026 -2.91798 0
M  V30 1000 H 92.7063 -1.87796 -2.63656 0
M  V30 1001 H 91.6133 -3.58492 -1.06931 0
M  V30 1002 H 92.9463 -4.71098 -1.42573 0
M  V30 1003 N 94.5984 0.214957 -1.56127 0
M  V30 1004 C 95.8474 0.936451 -1.78643 0
M  V30 1005 C 96.1604 1.85237 -0.628229 0
M  V30 1006 O 97.3664 2.613 -0.737186 0
M  V30 1007 C 95.8224 1.7154 -3.16389 0
M  V30 1008 C 95.4304 0.845299 -4.39953 0
M  V30 1009 C 97.1744 2.42772 -3.48227 0
M  V30 1010 C 95.0814 1.62198 -5.68723 0
M  V30 1011 H 94.0114 0.353401 -0.666051 0
M  V30 1012 H 96.6624 0.190169 -1.82512 0
M  V30 1013 H 95.0444 2.50484 -3.06715 0
M  V30 1014 H 96.2184 0.0959353 -4.607 0
M  V30 1015 H 94.5334 0.244789 -4.1568 0
M  V30 1016 H 97.1304 3.01394 -4.41663 0
M  V30 1017 H 97.4734 3.15984 -2.71035 0
M  V30 1018 H 98.0064 1.70813 -3.5926 0
M  V30 1019 H 94.7454 0.933011 -6.48826 0
M  V30 1020 H 94.2654 2.34579 -5.52026 0
M  V30 1021 H 95.9444 2.18095 -6.09133 0
M  V30 1022 N 96.0765 1.50051 0.48192 0
M  V30 1023 C 97.0065 1.71046 1.58951 0
M  V30 1024 C 97.9875 0.559288 1.60642 0
M  V30 1025 O 99.1725 0.797243 1.77081 0
M  V30 1026 C 96.3025 1.79462 2.97339 0
M  V30 1027 C 95.2565 2.94558 3.10515 0
M  V30 1028 C 94.5825 2.88105 4.50444 0
M  V30 1029 C 95.8825 4.35227 2.88747 0
M  V30 1030 H 97.5765 2.6378 1.41635 0
M  V30 1031 H 95.1225 1.26936 0.679942 0
M  V30 1032 H 97.0755 1.92734 3.74742 0
M  V30 1033 H 95.7995 0.833412 3.15788 0
M  V30 1034 H 94.4585 2.80918 2.35543 0
M  V30 1035 H 94.1065 1.89853 4.65795 0
M  V30 1036 H 93.8065 3.65366 4.60197 0
M  V30 1037 H 95.3305 3.03412 5.29881 0
M  V30 1038 H 96.7445 4.49449 3.55905 0
M  V30 1039 H 95.1415 5.13856 3.09955 0
M  V30 1040 H 96.2115 4.48347 1.84696 0
M  V30 1041 N 97.5546 -0.734337 1.39446 0
M  V30 1042 C 98.8036 -1.48937 1.36017 0
M  V30 1043 C 99.1166 -1.95557 -0.0409005 0
M  V30 1044 O 100.323 -2.70779 -0.19778 0
M  V30 1045 C 98.7786 -2.69125 2.38955 0
M  V30 1046 C 98.3866 -2.29452 3.8478 0
M  V30 1047 C 100.131 -3.46944 2.44603 0
M  V30 1048 C 98.0376 -3.46366 4.79358 0
M  V30 1049 H 96.9676 -0.559296 0.505672 0
M  V30 1050 H 99.6186 -0.800983 1.65095 0
M  V30 1051 H 98.0006 -3.40041 2.02948 0
M  V30 1052 H 99.1746 -1.66077 4.29831 0
M  V30 1053 H 97.4896 -1.64723 3.82433 0
M  V30 1054 H 100.087 -4.33907 3.12456 0
M  V30 1055 H 100.43 -3.89454 1.47076 0
M  V30 1056 H 100.963 -2.83056 2.79507 0
M  V30 1057 H 97.7016 -3.08905 5.78151 0
M  V30 1058 H 97.2216 -4.08719 4.38986 0
M  V30 1059 H 98.9006 -4.12691 4.98292 0
M  V30 1060 N 99.0327 -1.24633 -0.964593 0
M  V30 1061 C 100.449 -1.01239 -1.2338 0
M  V30 1062 C 100.649 0.2769 -1.99588 0
M  V30 1063 O 99.7047 0.992241 -2.32187 0
M  V30 1064 C 101.018 -2.22937 -2.01791 0
M  V30 1065 C 102.566 -2.27594 -2.14872 0
M  V30 1066 C 103.041 -3.48921 -2.96678 0
M  V30 1067 N 104.532 -3.49257 -3.04259 0
M  V30 1068 C 105.267 -4.39795 -3.67924 0
M  V30 1069 N 104.763 -5.40591 -4.33281 0
M  V30 1070 N 106.556 -4.275 -3.64966 0
M  V30 1071 H 98.7067 -2.0748 -0.454502 0
M  V30 1072 H 100.97 -0.910647 -0.26349 0
M  V30 1073 H 100.676 -3.16587 -1.53184 0
M  V30 1074 H 100.55 -2.25306 -3.02518 0
M  V30 1075 H 102.937 -1.34473 -2.6268 0
M  V30 1076 H 103.018 -2.2925 -1.13482 0
M  V30 1077 H 102.662 -4.42359 -2.49562 0
M  V30 1078 H 102.592 -3.4451 -3.98272 0
M  V30 1079 H 105.083 -2.76337 -2.57771 0
M  V30 1080 H 105.396 -6.05904 -4.79687 0
M  V30 1081 H 103.741 -5.44475 -4.3194 0
M  V30 1082 H 106.932 -3.47987 -3.13086 0
M  V30 1083 H 107.105 -4.98258 -4.14298 0
M  V30 1084 N 100.511 1.16574 -1.06058 0
M  V30 1085 C 101.788 1.83048 -0.689416 0
M  V30 1086 C 102.168 1.94122 0.829443 0
M  V30 1087 O 101.516 1.48249 1.7388 0
M  V30 1088 C 101.726 3.20186 -1.38859 0
M  V30 1089 C 103.074 3.95989 -1.53226 0
M  V30 1090 O 104.098 3.29696 -1.3483 0
M  V30 1091 O 102.957 5.14813 -1.83384 0
M  V30 1092 H 100.051 0.790258 -0.243764 0
M  V30 1093 H 102.597 1.23797 -1.16071 0
M  V30 1094 H 101.369 3.07146 -2.4244 0
M  V30 1095 H 100.992 3.87112 -0.907216 0
M  V30 1096 N 101.989 0.842826 1.3317 0
M  V30 1097 C 103.217 0.454055 2.01856 0
M  V30 1098 C 103.632 -0.94587 1.63397 0
M  V30 1099 O 102.989 -1.61534 0.849302 0
M  V30 1100 C 103.04 0.569715 3.56982 0
M  V30 1101 O 102.761 1.91448 3.94055 0
M  V30 1102 C 104.262 0.178412 4.42941 0
M  V30 1103 H 101.482 0.17979 0.646465 0
M  V30 1104 H 104.026 1.1365 1.70012 0
M  V30 1105 H 102.181 -0.0648587 3.87346 0
M  V30 1106 H 102.595 1.90282 4.88767 0
M  V30 1107 H 104.069 0.310376 5.51127 0
M  V30 1108 H 104.546 -0.880056 4.30293 0
M  V30 1109 H 105.152 0.787579 4.17944 0
M  V30 1110 N 103.467 -1.45747 0.599634 0
M  V30 1111 C 104.714 -2.02292 0.0917284 0
M  V30 1112 C 105.042 -1.46906 -1.27472 0
M  V30 1113 O 104.297 -0.630652 -1.8526 0
M  V30 1114 C 104.596 -3.57399 -0.00602758 0
M  V30 1115 C 104.262 -4.31902 1.29503 0
M  V30 1116 C 102.924 -4.51974 1.65144 0
M  V30 1117 C 105.276 -4.74551 2.15525 0
M  V30 1118 C 102.604 -5.11949 2.86574 0
M  V30 1119 C 104.956 -5.35868 3.36196 0
M  V30 1120 C 103.62 -5.54165 3.72099 0
M  V30 1121 H 102.89 -0.740239 0.0335658 0
M  V30 1122 H 105.537 -1.7491 0.779661 0
M  V30 1123 H 103.842 -3.84014 -0.777183 0
M  V30 1124 H 105.539 -3.98846 -0.415038 0
M  V30 1125 H 102.129 -4.16588 1.00761 0
M  V30 1126 H 106.313 -4.58784 1.8929 0
M  V30 1127 H 101.569 -5.24305 3.14507 0
M  V30 1128 H 105.743 -5.6787 4.03109 0
M  V30 1129 H 103.37 -6.00406 4.6628 0
M  V30 1130 N 104.945 -0.338344 -1.53925 0
M  V30 1131 C 106.361 0.0137736 -1.59594 0
M  V30 1132 C 106.561 1.49186 -1.35447 0
M  V30 1133 O 105.617 2.24987 -1.14616 0
M  V30 1134 C 106.93 -0.41773 -2.97784 0
M  V30 1135 C 108.478 -0.369633 -3.1081 0
M  V30 1136 C 108.953 -0.776524 -4.51369 0
M  V30 1137 N 110.444 -0.730506 -4.57403 0
M  V30 1138 C 111.179 -1.01736 -5.64303 0
M  V30 1139 N 110.675 -1.3721 -6.79077 0
M  V30 1140 N 112.468 -0.941942 -5.54151 0
M  V30 1141 H 104.619 -1.3012 -1.67876 0
M  V30 1142 H 106.882 -0.530082 -0.78595 0
M  V30 1143 H 106.588 -1.44811 -3.20504 0
M  V30 1144 H 106.462 0.209729 -3.76616 0
M  V30 1145 H 108.849 0.651568 -2.87817 0
M  V30 1146 H 108.93 -1.03223 -2.34049 0
M  V30 1147 H 108.574 -1.79571 -4.75096 0
M  V30 1148 H 108.504 -0.0914649 -5.26521 0
M  V30 1149 H 110.995 -0.468783 -3.74981 0
M  V30 1150 H 111.308 -1.57597 -7.5656 0
M  V30 1151 H 109.653 -1.4105 -6.80536 0
M  V30 1152 H 112.844 -0.664184 -4.63364 0
M  V30 1153 H 113.017 -1.16884 -6.37371 0
M  V30 1154 N 106.423 1.57458 -0.0668435 0
M  V30 1155 C 107.651 1.97624 0.612565 0
M  V30 1156 C 108.066 0.94502 1.63447 0
M  V30 1157 O 107.423 -0.0689276 1.8237 0
M  V30 1158 C 107.474 3.37869 1.28555 0
M  V30 1159 O 107.195 4.3704 0.304557 0
M  V30 1160 C 108.696 3.92882 2.05325 0
M  V30 1161 H 105.916 0.650045 0.166381 0
M  V30 1162 H 108.46 2.04035 -0.137782 0
M  V30 1163 H 106.615 3.3256 1.98702 0
M  V30 1164 H 107.029 5.18565 0.786779 0
M  V30 1165 H 108.503 4.93247 2.47812 0
M  V30 1166 H 108.98 3.29156 2.9078 0
M  V30 1167 H 109.586 4.01577 1.40056 0
M  V30 1168 N 107.901 -0.206675 1.56239 0
M  V30 1169 C 109.131 -0.943975 1.83773 0
M  V30 1170 C 109.539 -1.77841 0.645703 0
M  V30 1171 O 108.882 -1.79403 -0.395008 0
M  V30 1172 C 108.944 -1.899 3.05251 0
M  V30 1173 C 108.608 -1.24764 4.39639 0
M  V30 1174 C 109.605 -0.630216 5.16066 0
M  V30 1175 C 107.29 -1.25496 4.8637 0
M  V30 1176 C 109.284 -0.0287946 6.37393 0
M  V30 1177 C 106.971 -0.649698 6.07637 0
M  V30 1178 C 107.969 -0.0376845 6.8299 0
M  V30 1179 O 107.657 0.55812 8.0196 0
M  V30 1180 H 107.389 -0.281508 0.614597 0
M  V30 1181 H 109.943 -0.222458 2.04192 0
M  V30 1182 H 108.173 -2.6599 2.80689 0
M  V30 1183 H 109.862 -2.5031 3.1953 0
M  V30 1184 H 110.628 -0.616785 4.81062 0
M  V30 1185 H 106.507 -1.72072 4.27683 0
M  V30 1186 H 110.051 0.449518 6.9615 0
M  V30 1187 H 105.948 -0.660592 6.42111 0
M  V30 1188 H 106.716 0.453891 8.17241 0
M  V30 1189 N 109.379 -1.50304 -0.473955 0
M  V30 1190 C 110.619 -1.62786 -1.23612 0
M  V30 1191 C 110.983 -0.319786 -1.89318 0
M  V30 1192 O 112.184 -0.320012 -2.66888 0
M  V30 1193 C 110.455 -2.77351 -2.25414 0
M  V30 1194 S 112.014 -3.09948 -3.10608 0
M  V30 1195 H 108.832 -0.573895 -0.419721 0
M  V30 1196 H 111.434 -1.88076 -0.533623 0
M  V30 1197 H 110.138 -3.70879 -1.75719 0
M  V30 1198 H 109.669 -2.54137 -3.00296 0
M  V30 1199 H 111.684 -2.53553 -4.26527 0
M  V30 1200 N 110.857 0.726932 -1.39834 0
M  V30 1201 C 111.789 1.85147 -1.35104 0
M  V30 1202 C 112.802 1.60736 -0.258392 0
M  V30 1203 O 113.991 1.70821 -0.517931 0
M  V30 1204 C 111.091 3.21332 -1.07697 0
M  V30 1205 C 110.264 3.73033 -2.28396 0
M  V30 1206 C 109.323 4.87802 -1.97322 0
M  V30 1207 O 108.349 5.01043 -2.70083 0
M  V30 1208 N 109.551 5.72768 -0.944273 0
M  V30 1209 H 112.316 1.89706 -2.32017 0
M  V30 1210 H 109.877 0.908006 -1.3404 0
M  V30 1211 H 111.869 3.95691 -0.849144 0
M  V30 1212 H 110.439 3.11992 -0.194909 0
M  V30 1213 H 109.659 2.89934 -2.6708 0
M  V30 1214 H 110.947 4.0431 -3.08887 0
M  V30 1215 H 110.345 5.64669 -0.341427 0
M  V30 1216 H 108.902 6.4716 -0.776346 0
M  V30 1217 N 112.336 1.25143 0.95797 0
M  V30 1218 C 113.246 1.06968 2.08794 0
M  V30 1219 C 114.262 0.00773911 1.73998 0
M  V30 1220 O 115.438 0.207972 2.00323 0
M  V30 1221 C 112.503 0.68691 3.39827 0
M  V30 1222 C 111.564 1.82641 3.88511 0
M  V30 1223 C 110.797 1.46181 5.1329 0
M  V30 1224 O 111.02 0.355971 5.69288 0
M  V30 1225 O 109.954 2.29085 5.566 0
M  V30 1226 H 113.78 2.01723 2.27027 0
M  V30 1227 H 111.365 1.04051 1.07209 0
M  V30 1228 H 113.247 0.485417 4.18595 0
M  V30 1229 H 111.922 -0.231417 3.22872 0
M  V30 1230 H 110.829 2.08274 3.10762 0
M  V30 1231 H 112.162 2.72386 4.09959 0
M  V30 1232 N 113.814 -1.1601 1.06675 0
M  V30 1233 C 115.23 -1.38622 0.790948 0
M  V30 1234 C 115.43 -1.92109 -0.607965 0
M  V30 1235 O 114.486 -2.12239 -1.36787 0
M  V30 1236 C 115.799 -2.36347 1.85905 0
M  V30 1237 C 117.347 -2.50023 1.88301 0
M  V30 1238 C 117.822 -3.51033 2.94176 0
M  V30 1239 N 119.313 -3.58563 2.93235 0
M  V30 1240 C 120.048 -4.36521 3.71803 0
M  V30 1241 N 119.544 -5.17869 4.602 0
M  V30 1242 N 121.337 -4.31541 3.60178 0
M  V30 1243 H 113.488 -0.796294 1.96908 0
M  V30 1244 H 115.751 -0.412597 0.853503 0
M  V30 1245 H 115.457 -2.04147 2.86386 0
M  V30 1246 H 115.331 -3.36042 1.71334 0
M  V30 1247 H 117.718 -2.81524 0.884769 0
M  V30 1248 H 117.799 -1.5035 2.06951 0
M  V30 1249 H 117.443 -3.20268 3.94196 0
M  V30 1250 H 117.373 -4.50445 2.72776 0
M  V30 1251 H 119.864 -3.00496 2.29152 0
M  V30 1252 H 120.177 -5.74578 5.16797 0
M  V30 1253 H 118.522 -5.17199 4.64253 0
M  V30 1254 H 121.713 -3.67051 2.90502 0
M  V30 1255 H 121.886 -4.9205 4.21653 0
M  V30 1256 N 115.292 -0.849877 -1.32721 0
M  V30 1257 C 116.222 -0.306308 -2.31482 0
M  V30 1258 C 117.203 0.591952 -1.59468 0
M  V30 1259 O 118.388 0.513199 -1.87296 0
M  V30 1260 C 115.518 0.510204 -3.43532 0
M  V30 1261 C 114.472 -0.293209 -4.26994 0
M  V30 1262 C 113.798 0.647743 -5.30762 0
M  V30 1263 C 115.098 -1.51634 -4.99804 0
M  V30 1264 H 116.792 -1.13153 -2.77195 0
M  V30 1265 H 114.338 -0.545553 -1.33266 0
M  V30 1266 H 116.291 0.900856 -4.11658 0
M  V30 1267 H 115.015 1.36874 -2.96535 0
M  V30 1268 H 113.674 -0.665555 -3.60508 0
M  V30 1269 H 113.322 1.50299 -4.8002 0
M  V30 1270 H 113.022 0.11422 -5.87489 0
M  V30 1271 H 114.546 1.03567 -6.01753 0
M  V30 1272 H 115.96 -1.19824 -5.60638 0
M  V30 1273 H 114.357 -1.98745 -5.66234 0
M  V30 1274 H 115.427 -2.28018 -4.27943 0
M  V30 1275 N 116.77 1.45427 -0.607355 0
M  V30 1276 C 117.703 2.27635 0.160482 0
M  V30 1277 C 118.681 1.37122 0.873857 0
M  V30 1278 O 119.865 1.66551 0.882775 0
M  V30 1279 C 116.992 3.15486 1.23231 0
M  V30 1280 C 116.038 4.21939 0.622097 0
M  V30 1281 S 116.871 5.32459 -0.569852 0
M  V30 1282 C 118.027 6.23879 0.502577 0
M  V30 1283 H 118.26 2.9241 -0.536983 0
M  V30 1284 H 115.793 1.49265 -0.394868 0
M  V30 1285 H 117.751 3.66659 1.84585 0
M  V30 1286 H 116.412 2.49977 1.90185 0
M  V30 1287 H 115.605 4.8333 1.42856 0
M  V30 1288 H 115.207 3.73906 0.0837063 0
M  V30 1289 H 117.499 6.63261 1.38171 0
M  V30 1290 H 118.442 7.0806 -0.0751759 0
M  V30 1291 H 118.85 5.58545 0.8178 0
M  V30 1292 N 118.248 0.346503 1.53744 0
M  V30 1293 C 119.659 -0.136779 1.86198 0
M  V30 1294 C 120.01 -1.49749 1.26766 0
M  V30 1295 O 119.135 -2.08417 0.582355 0
M  V30 1296 C 119.73 -0.254966 3.37839 0
M  V30 1297 C 118.289 -0.682482 3.70161 0
M  V30 1298 C 117.436 0.181981 2.76702 0
M  V30 1299 H 120.387 0.565994 1.48264 0
M  V30 1300 H 120.408 -1.08195 3.64793 0
M  V30 1301 H 119.92 0.735526 3.81066 0
M  V30 1302 H 118.021 -1.68189 3.3248 0
M  V30 1303 H 118.134 -0.470326 4.76786 0
M  V30 1304 H 116.498 -0.34615 2.52337 0
M  V30 1305 H 117.281 1.16966 3.2276 0
M  V30 1306 N 119.726 -1.57421 0.075193 0
M  V30 1307 C 121.142 -1.57099 -0.281444 0
M  V30 1308 C 121.342 -1.08486 -1.69803 0
M  V30 1309 O 120.398 -0.752279 -2.41033 0
M  V30 1310 C 121.711 -3.00571 -0.0880041 0
M  V30 1311 C 123.259 -3.12605 -0.157281 0
M  V30 1312 C 123.734 -4.57999 0.0079207 0
M  V30 1313 N 125.225 -4.63176 -0.0475725 0
M  V30 1314 C 125.96 -5.73373 0.0557876 0
M  V30 1315 N 125.456 -6.92473 0.21286 0
M  V30 1316 N 127.249 -5.621 -0.00152098 0
M  V30 1317 H 119.4 -1.87335 1.00098 0
M  V30 1318 H 121.663 -0.86377 0.390646 0
M  V30 1319 H 121.369 -3.40262 0.889629 0
M  V30 1320 H 121.243 -3.67754 -0.838875 0
M  V30 1321 H 123.63 -2.72798 -1.1254 0
M  V30 1322 H 123.711 -2.48053 0.62475 0
M  V30 1323 H 123.355 -4.98496 0.972824 0
M  V30 1324 H 123.285 -5.20586 -0.793556 0
M  V30 1325 H 125.776 -3.7753 -0.167244 0
M  V30 1326 H 126.089 -7.72279 0.283781 0
M  V30 1327 H 124.434 -6.94556 0.248267 0
M  V30 1328 H 127.625 -4.67938 -0.122958 0
M  V30 1329 H 127.798 -6.47948 0.0824844 0
M  V30 1330 N 121.204 0.198386 -1.56346 0
M  V30 1331 C 122.453 0.917451 -1.79627 0
M  V30 1332 C 122.766 1.8456 -0.64784 0
M  V30 1333 O 123.972 2.60504 -0.764859 0
M  V30 1334 C 122.428 1.68175 -3.18191 0
M  V30 1335 C 122.036 0.798589 -4.40825 0
M  V30 1336 C 123.78 2.39065 -3.50782 0
M  V30 1337 C 121.687 1.56157 -5.70411 0
M  V30 1338 H 120.617 0.346317 -0.669762 0
M  V30 1339 H 123.268 0.170801 -1.82703 0
M  V30 1340 H 121.65 2.47216 -3.09354 0
M  V30 1341 H 122.824 0.0470665 -4.60776 0
M  V30 1342 H 121.139 0.200686 -4.15916 0
M  V30 1343 H 123.736 2.96692 -4.44835 0
M  V30 1344 H 124.079 3.13091 -2.74371 0
M  V30 1345 H 124.612 1.66993 -3.61052 0
M  V30 1346 H 121.351 0.864142 -6.49779 0
M  V30 1347 H 120.871 2.2871 -5.54483 0
M  V30 1348 H 122.55 2.11622 -6.11412 0
M  V30 1349 N 122.682 1.50554 0.465978 0
M  V30 1350 C 123.612 1.72722 1.57128 0
M  V30 1351 C 124.593 0.576294 1.6004 0
M  V30 1352 O 125.778 0.81598 1.76225 0
M  V30 1353 C 122.908 1.82605 2.95419 0
M  V30 1354 C 121.862 2.97835 3.07373 0
M  V30 1355 C 121.188 2.92867 4.47363 0
M  V30 1356 C 122.488 4.38265 2.84114 0
M  V30 1357 H 124.182 2.65267 1.38829 0
M  V30 1358 H 121.728 1.2765 0.666441 0
M  V30 1359 H 123.681 1.96698 3.72677 0
M  V30 1360 H 122.405 0.866858 3.14886 0
M  V30 1361 H 121.064 2.83401 2.3255 0
M  V30 1362 H 120.712 1.94783 4.63755 0
M  V30 1363 H 120.412 3.70227 4.56296 0
M  V30 1364 H 121.936 3.09015 5.26633 0
M  V30 1365 H 123.35 4.53198 3.51118 0
M  V30 1366 H 121.747 5.17115 3.04487 0
M  V30 1367 H 122.817 4.50281 1.7993 0
M  V30 1368 N 124.16 -0.719506 1.40217 0
M  V30 1369 C 125.09 -1.8465 1.42922 0
M  V30 1370 C 126.071 -1.67599 0.29062 0
M  V30 1371 O 127.256 -1.87688 0.498677 0
M  V30 1372 C 124.386 -3.22565 1.28722 0
M  V30 1373 C 123.34 -3.54281 2.40144 0
M  V30 1374 C 122.666 -4.91298 2.11023 0
M  V30 1375 C 123.966 -3.55676 3.82481 0
M  V30 1376 H 125.66 -1.82644 2.37237 0
M  V30 1377 H 123.206 -0.877305 1.1419 0
M  V30 1378 H 125.159 -4.01095 1.29232 0
M  V30 1379 H 123.883 -3.25137 0.308811 0
M  V30 1380 H 122.542 -2.78088 2.38877 0
M  V30 1381 H 122.19 -4.90468 1.11582 0
M  V30 1382 H 121.89 -5.13485 2.8567 0
M  V30 1383 H 123.414 -5.72166 2.13209 0
M  V30 1384 H 124.828 -4.24254 3.85592 0
M  V30 1385 H 123.225 -3.89388 4.56614 0
M  V30 1386 H 124.295 -2.55144 4.12346 0
M  V30 1387 N 125.638 -1.25649 -0.95132 0
M  V30 1388 C 126.601 -1.06399 -2.03007 0
M  V30 1389 C 127.601 -0.0156794 -1.60792 0
M  V30 1390 O 128.791 -0.25817 -1.72276 0
M  V30 1391 C 125.923 -0.616184 -3.35285 0
M  V30 1392 H 127.116 -2.02164 -2.21517 0
M  V30 1393 H 124.669 -1.08103 -1.12887 0
M  V30 1394 H 125.404 0.343917 -3.22471 0
M  V30 1395 H 125.189 -1.37301 -3.67275 0
M  V30 1396 H 126.679 -0.503032 -4.14559 0
M  V30 1397 N 127.117 1.15442 -1.07289 0
M  V30 1398 C 128.065 2.22225 -0.686952 0
M  V30 1399 C 129.059 1.66688 0.30193 0
M  V30 1400 O 130.265 1.79236 0.165712 0
M  V30 1401 H 126.64 0.723783 -0.204064 0
M  V30 1402 H 128.611 2.52056 -1.5972 0
M  V30 1403 C 127.36 3.47556 -0.100149 0
M  V30 1404 H 126.683 3.90612 -0.852211 0
M  V30 1405 H 128.123 4.23794 0.132235 0
M  V30 1406 C 126.582 3.16337 1.159 0
M  V30 1407 O 127.112 3.33074 2.24555 0
M  V30 1408 N 125.318 2.70385 1.06491 0
M  V30 1409 H 124.865 2.56966 0.180668 0
M  V30 1410 H 124.823 2.49871 1.90819 0
M  V30 1411 N 128.595 0.856903 1.32268 0
M  V30 1412 C 130.011 0.547061 1.49931 0
M  V30 1413 C 130.211 -0.921781 1.7918 0
M  V30 1414 O 129.267 -1.70469 1.8627 0
M  V30 1415 C 130.58 1.43599 2.64196 0
M  V30 1416 C 132.128 1.43665 2.78081 0
M  V30 1417 C 132.603 2.31085 3.95428 0
M  V30 1418 N 134.094 2.28893 4.02694 0
M  V30 1419 C 134.829 2.93262 4.92732 0
M  V30 1420 N 134.325 3.66751 5.87763 0
M  V30 1421 N 136.118 2.82638 4.85873 0
M  V30 1422 H 128.269 1.8075 1.11549 0
M  V30 1423 H 130.532 0.772144 0.549997 0
M  V30 1424 H 130.238 2.48058 2.49319 0
M  V30 1425 H 130.112 1.12502 3.60032 0
M  V30 1426 H 132.499 0.399701 2.92381 0
M  V30 1427 H 132.58 1.7878 1.82952 0
M  V30 1428 H 132.224 3.34849 3.81888 0
M  V30 1429 H 132.154 1.93302 4.89839 0
M  V30 1430 H 134.645 1.75466 3.34694 0
M  V30 1431 H 134.958 4.13027 6.53168 0
M  V30 1432 H 133.303 3.70859 5.87783 0
M  V30 1433 H 136.494 2.24774 4.10602 0
M  V30 1434 H 136.667 3.33084 5.55841 0
M  V30 1435 N 130.073 -1.45103 0.615059 0
M  V30 1436 C 131.021 -2.32331 -0.111791 0
M  V30 1437 C 132.015 -1.46409 -0.852102 0
M  V30 1438 O 133.221 -1.62849 -0.766821 0
M  V30 1439 H 129.596 -0.749993 -0.0549072 0
M  V30 1440 H 131.567 -2.91407 0.642225 0
M  V30 1441 C 130.316 -3.3015 -1.09071 0
M  V30 1442 H 129.639 -3.96265 -0.530485 0
M  V30 1443 H 131.079 -3.93898 -1.56908 0
M  V30 1444 C 129.538 -2.57875 -2.168 0
M  V30 1445 O 130.068 -2.36567 -3.24652 0
M  V30 1446 N 128.274 -2.17884 -1.92289 0
M  V30 1447 H 127.821 -2.35413 -1.04587 0
M  V30 1448 H 127.779 -1.6985 -2.64572 0
M  V30 1449 N 131.551 -0.354651 -1.53558 0
M  V30 1450 C 132.461 0.50515 -2.29097 0
M  V30 1451 C 133.477 1.10223 -1.34636 0
M  V30 1452 O 134.653 1.11553 -1.67684 0
M  V30 1453 C 131.718 1.63479 -3.05738 0
M  V30 1454 C 130.779 1.06636 -4.15845 0
M  V30 1455 C 130.012 2.14217 -4.88822 0
M  V30 1456 O 130.235 3.35137 -4.61562 0
M  V30 1457 O 129.169 1.77887 -5.75013 0
M  V30 1458 H 132.995 -0.109237 -3.03503 0
M  V30 1459 H 130.58 -0.119357 -1.48922 0
M  V30 1460 H 132.462 2.2918 -3.5363 0
M  V30 1461 H 131.137 2.23478 -2.34178 0
M  V30 1462 H 130.044 0.373565 -3.7223 0
M  V30 1463 H 131.377 0.511081 -4.89539 0
M  V30 1464 N 133.029 1.57378 -0.0835403 0
M  V30 1465 C 134.275 1.94217 0.583733 0
M  V30 1466 C 134.608 0.964653 1.68547 0
M  V30 1467 O 133.883 -0.00422258 1.945 0
M  V30 1468 C 134.166 3.41253 1.14972 0
M  V30 1469 C 134.019 4.49768 0.0538277 0
M  V30 1470 C 135.338 3.89352 2.05166 0
M  V30 1471 H 132.457 0.706233 0.210724 0
M  V30 1472 H 135.099 1.89392 -0.1519 0
M  V30 1473 H 133.249 3.45496 1.77665 0
M  V30 1474 H 134.921 4.57641 -0.579851 0
M  V30 1475 H 133.164 4.29432 -0.614068 0
M  V30 1476 H 133.835 5.49817 0.490452 0
M  V30 1477 H 136.311 3.87189 1.52393 0
M  V30 1478 H 135.187 4.92822 2.41698 0
M  V30 1479 H 135.448 3.27973 2.96456 0
M  V30 1480 N 134.507 -0.190092 1.56449 0
M  V30 1481 C 135.754 -0.909705 1.80916 0
M  V30 1482 C 136.082 -1.83047 0.657583 0
M  V30 1483 O 135.337 -1.92428 -0.356356 0
M  V30 1484 C 135.636 -1.75382 3.1141 0
M  V30 1485 C 135.302 -0.983606 4.40041 0
M  V30 1486 C 133.964 -0.770967 4.74984 0
M  V30 1487 C 136.316 -0.442024 5.19322 0
M  V30 1488 C 133.644 -0.0053448 5.867 0
M  V30 1489 C 135.996 0.310412 6.31838 0
M  V30 1490 C 134.66 0.534023 6.6536 0
M  V30 1491 H 133.93 -0.332885 0.662019 0
M  V30 1492 H 136.577 -0.175762 1.90692 0
M  V30 1493 H 134.882 -2.55659 2.96893 0
M  V30 1494 H 136.579 -2.31331 3.27547 0
M  V30 1495 H 133.169 -1.15936 4.12622 0
M  V30 1496 H 137.353 -0.593693 4.92736 0
M  V30 1497 H 132.609 0.177825 6.11141 0
M  V30 1498 H 136.783 0.737419 6.92485 0
M  V30 1499 H 134.41 1.12918 7.51767 0
M  V30 1500 N 135.985 -1.50799 -0.457987 0
M  V30 1501 C 136.935 -1.67003 -1.55222 0
M  V30 1502 C 137.919 -0.52434 -1.52117 0
M  V30 1503 O 139.111 -0.779345 -1.58919 0
M  V30 1504 C 136.24 -1.77956 -2.93576 0
M  V30 1505 C 135.326 -2.98243 -3.01516 0
M  V30 1506 N 135.717 -4.21732 -2.79241 0
M  V30 1507 C 134.015 -2.97072 -3.32662 0
M  V30 1508 C 134.716 -5.02817 -2.92489 0
M  V30 1509 N 133.692 -4.37038 -3.23262 0
M  V30 1510 H 137.494 -2.60163 -1.36721 0
M  V30 1511 H 135.008 -1.48163 -0.664952 0
M  V30 1512 H 137.005 -1.87671 -3.72271 0
M  V30 1513 H 135.665 -0.859634 -3.13114 0
M  V30 1514 H 136.676 -4.51016 -2.54567 0
M  V30 1515 H 133.353 -2.14631 -3.58106 0
M  V30 1516 H 134.743 -6.11054 -2.79396 0
M  V30 1517 N 137.463 0.71206 -1.40597 0
M  V30 1518 C 138.879 1.02058 -1.22704 0
M  V30 1519 C 139.079 2.01228 -0.104729 0
M  V30 1520 O 138.135 2.4674 0.53624 0
M  V30 1521 C 139.448 1.56094 -2.57012 0
M  V30 1522 C 140.996 1.6806 -2.64054 0
M  V30 1523 C 141.471 2.25501 -3.9864 0
M  V30 1524 N 142.962 2.32882 -4.004 0
M  V30 1525 C 143.697 2.78317 -5.01325 0
M  V30 1526 N 143.193 3.23478 -6.12645 0
M  V30 1527 N 144.986 2.77733 -4.88693 0
M  V30 1528 H 137.137 0.0547896 -2.12329 0
M  V30 1529 H 139.4 0.0869027 -0.944008 0
M  V30 1530 H 139.106 0.906865 -3.39807 0
M  V30 1531 H 138.98 2.54564 -2.78347 0
M  V30 1532 H 141.367 2.32583 -1.81629 0
M  V30 1533 H 141.448 0.681802 -2.46546 0
M  V30 1534 H 141.092 1.61598 -4.81506 0
M  V30 1535 H 141.022 3.26102 -4.13479 0
M  V30 1536 H 143.513 2.00991 -3.20017 0
M  V30 1537 H 143.826 3.56725 -6.85542 0
M  V30 1538 H 142.171 3.21429 -6.16205 0
M  V30 1539 H 145.362 2.4179 -4.00818 0
M  V30 1540 H 145.535 3.12826 -5.67489 0
M  V30 1541 N 138.941 1.26152 0.944643 0
M  V30 1542 C 139.851 1.09176 2.07648 0
M  V30 1543 C 140.867 0.0261935 1.7398 0
M  V30 1544 O 142.043 0.229208 2.00091 0
M  V30 1545 C 139.108 0.722915 3.39079 0
M  V30 1546 C 138.169 1.86752 3.86552 0
M  V30 1547 C 137.402 1.51617 5.11711 0
M  V30 1548 O 137.625 0.416331 5.68879 0
M  V30 1549 O 136.559 2.34975 5.54139 0
M  V30 1550 H 140.385 2.0412 2.24875 0
M  V30 1551 H 137.97 1.05182 1.061 0
M  V30 1552 H 139.852 0.529787 4.18056 0
M  V30 1553 H 138.527 -0.197159 3.23099 0
M  V30 1554 H 137.434 2.11558 3.08535 0
M  V30 1555 H 138.767 2.76719 4.07047 0
M  V30 1556 N 140.419 -1.14872 1.07899 0
M  V30 1557 C 141.668 -1.85135 0.800499 0
M  V30 1558 C 141.981 -1.83547 -0.676014 0
M  V30 1559 O 143.187 -2.49548 -1.06948 0
M  V30 1560 C 141.643 -3.3231 1.38197 0
M  V30 1561 C 141.251 -3.42329 2.8899 0
M  V30 1562 C 142.995 -4.0772 1.18174 0
M  V30 1563 C 140.902 -4.83684 3.403 0
M  V30 1564 H 139.832 -0.693563 0.29578 0
M  V30 1565 H 142.483 -1.29532 1.29976 0
M  V30 1566 H 140.865 -3.87618 0.810431 0
M  V30 1567 H 142.039 -2.97097 3.52236 0
M  V30 1568 H 140.354 -2.80369 3.07867 0
M  V30 1569 H 142.951 -5.12049 1.5398 0
M  V30 1570 H 143.294 -4.16124 0.12117 0
M  V30 1571 H 143.827 -3.58696 1.71994 0
M  V30 1572 H 140.566 -4.80465 4.45907 0
M  V30 1573 H 140.086 -5.29474 2.81811 0
M  V30 1574 H 141.765 -5.52558 3.36584 0
M  V30 1575 N 141.898 -0.863906 -1.31812 0
M  V30 1576 C 143.147 -0.46801 -1.96195 0
M  V30 1577 C 143.46 0.983474 -1.69077 0
M  V30 1578 O 144.666 1.48523 -2.27273 0
M  V30 1579 C 143.122 -0.785995 -3.51212 0
M  V30 1580 C 142.73 -2.25383 -3.87178 0
M  V30 1581 C 144.474 -0.458274 -4.22019 0
M  V30 1582 C 142.381 -2.51455 -5.3528 0
M  V30 1583 H 141.311 -0.171283 -0.734287 0
M  V30 1584 H 143.962 -1.05597 -1.50072 0
M  V30 1585 H 142.344 -0.127359 -3.95795 0
M  V30 1586 H 143.518 -2.95502 -3.53575 0
M  V30 1587 H 141.833 -2.54698 -3.2942 0
M  V30 1588 H 144.43 -0.630369 -5.30971 0
M  V30 1589 H 144.773 0.600834 -4.11941 0
M  V30 1590 H 145.306 -1.07319 -3.8305 0
M  V30 1591 H 142.045 -3.56025 -5.50387 0
M  V30 1592 H 141.565 -1.85923 -5.70257 0
M  V30 1593 H 143.244 -2.35874 -6.02472 0
M  V30 1594 N 143.376 1.44774 -0.622745 0
M  V30 1595 C 144.601 2.06999 -0.128968 0
M  V30 1596 C 145.026 1.4617 1.1839 0
M  V30 1597 O 144.384 0.560007 1.72434 0
M  V30 1598 C 144.432 3.60595 -0.0188351 0
M  V30 1599 O 143.536 3.99398 1.02739 0
M  V30 1600 H 142.877 0.659047 -0.0809544 0
M  V30 1601 H 145.407 1.85784 -0.85705 0
M  V30 1602 H 145.417 4.07627 0.174476 0
M  V30 1603 H 144.092 4.04252 -0.977384 0
M  V30 1604 H 142.669 3.64011 0.809326 0
M  V30 1605 N 144.854 0.36279 1.53368 0
M  V30 1606 C 145.764 -0.492994 2.29362 0
M  V30 1607 C 146.78 -1.09507 1.35219 0
M  V30 1608 O 147.956 -1.10662 1.68273 0
M  V30 1609 C 145.021 -1.61855 3.066 0
M  V30 1610 C 144.082 -1.04429 4.16405 0
M  V30 1611 C 143.315 -2.11621 4.89951 0
M  V30 1612 O 143.538 -3.32684 4.63333 0
M  V30 1613 O 142.472 -1.74835 5.75948 0
M  V30 1614 H 146.298 0.125331 3.03441 0
M  V30 1615 H 143.883 0.127253 1.48857 0
M  V30 1616 H 145.765 -2.27302 3.54841 0
M  V30 1617 H 144.44 -2.22233 2.3536 0
M  V30 1618 H 143.347 -0.353819 3.72423 0
M  V30 1619 H 144.68 -0.485113 4.89804 0
M  V30 1620 N 146.332 -1.57332 0.0918853 0
M  V30 1621 C 147.265 -2.09499 -0.904735 0
M  V30 1622 C 148.243 -1.00479 -1.27839 0
M  V30 1623 O 149.427 -1.27954 -1.38419 0
M  V30 1624 C 146.554 -2.56931 -2.2069 0
M  V30 1625 C 145.6 -3.77579 -1.98334 0
M  V30 1626 S 146.433 -5.21317 -1.22428 0
M  V30 1627 C 147.589 -5.72097 -2.53882 0
M  V30 1628 H 147.822 -2.93705 -0.460922 0
M  V30 1629 H 145.355 -1.53923 -0.121332 0
M  V30 1630 H 147.313 -2.84917 -2.95521 0
M  V30 1631 H 145.974 -1.72956 -2.62192 0
M  V30 1632 H 145.167 -4.08824 -2.94752 0
M  V30 1633 H 144.769 -3.5007 -1.31633 0
M  V30 1634 H 147.061 -5.80168 -3.49874 0
M  V30 1635 H 148.004 -6.70654 -2.27219 0
M  V30 1636 H 148.412 -5.00012 -2.62007 0
M  V30 1637 N 147.81 0.181792 -1.56548 0
M  V30 1638 C 149.058 0.89832 -1.81038 0
M  V30 1639 C 149.379 1.83232 -0.667164 0
M  V30 1640 O 148.649 1.93372 0.313673 0
M  V30 1641 H 147.229 0.33471 -0.667816 0
M  V30 1642 H 149.891 0.184116 -1.94028 0
M  V30 1643 H 148.987 1.4815 -2.74696 0
M  V30 1644 N 149.288 1.51039 0.449983 0
M  V30 1645 C 150.198 1.74261 1.57067 0
M  V30 1646 C 151.214 0.626363 1.62335 0
M  V30 1647 O 152.39 0.907162 1.79812 0
M  V30 1648 C 149.455 1.85114 2.93144 0
M  V30 1649 C 148.516 3.0893 2.98095 0
M  V30 1650 C 147.749 3.19256 4.27681 0
M  V30 1651 O 147.972 2.35835 5.19363 0
M  V30 1652 O 146.906 4.12144 4.38658 0
M  V30 1653 H 150.732 2.69303 1.40391 0
M  V30 1654 H 148.317 1.35389 0.631688 0
M  V30 1655 H 150.199 1.94311 3.73926 0
M  V30 1656 H 148.874 0.932588 3.09975 0
M  V30 1657 H 147.781 3.0522 2.16314 0
M  V30 1658 H 149.114 4.00433 2.86206 0
M  V30 1659 N 150.766 -0.704594 1.40972 0
M  V30 1660 C 151.696 -1.83124 1.44872 0
M  V30 1661 C 152.677 -1.67281 0.30838 0
M  V30 1662 O 153.862 -1.87149 0.518556 0
M  V30 1663 C 150.992 -3.21181 1.32136 0
M  V30 1664 C 149.946 -3.51714 2.43888 0
M  V30 1665 C 149.272 -4.89032 2.16222 0
M  V30 1666 C 150.572 -3.516 3.86232 0
M  V30 1667 H 152.266 -1.80117 2.39161 0
M  V30 1668 H 149.812 -0.865145 1.15114 0
M  V30 1669 H 151.765 -3.99702 1.33479 0
M  V30 1670 H 150.489 -3.24791 0.343279 0
M  V30 1671 H 149.148 -2.75539 2.41813 0
M  V30 1672 H 148.796 -4.89256 1.16778 0
M  V30 1673 H 148.496 -5.10426 2.911 0
M  V30 1674 H 150.02 -5.69873 2.19265 0
M  V30 1675 H 151.434 -4.2014 3.9007 0
M  V30 1676 H 149.831 -3.84523 4.60719 0
M  V30 1677 H 150.901 -2.50757 4.15029 0
M  V30 1678 N 152.244 -1.26651 -0.937939 0
M  V30 1679 C 153.492 -1.12165 -1.68118 0
M  V30 1680 C 153.813 0.334983 -1.92101 0
M  V30 1681 O 153.083 1.23583 -1.52 0
M  V30 1682 H 151.663 -0.412093 -0.623048 0
M  V30 1683 H 154.325 -1.59027 -1.12678 0
M  V30 1684 H 153.421 -1.64289 -2.6536 0
M  V30 1685 N 153.722 1.14298 -1.08507 0
M  V30 1686 C 154.968 1.85633 -0.816581 0
M  V30 1687 C 155.301 1.82784 0.656021 0
M  V30 1688 O 154.576 1.25926 1.48233 0
M  V30 1689 C 154.859 3.34223 -1.34041 0
M  V30 1690 C 154.712 3.45639 -2.87843 0
M  V30 1691 C 156.031 4.29356 -0.9665 0
M  V30 1692 H 153.15 0.67402 -0.298104 0
M  V30 1693 H 155.792 1.34214 -1.34487 0
M  V30 1694 H 153.942 3.78144 -0.89104 0
M  V30 1695 H 155.614 3.10498 -3.41158 0
M  V30 1696 H 153.857 2.86817 -3.25451 0
M  V30 1697 H 154.528 4.50089 -3.19569 0
M  V30 1698 H 157.004 3.93457 -1.35391 0
M  V30 1699 H 155.88 5.3178 -1.3602 0
M  V30 1700 H 156.141 4.41919 0.126362 0
M  V30 1701 N 155.201 0.870884 1.31352 0
M  V30 1702 C 156.131 0.343096 2.30966 0
M  V30 1703 C 157.112 -0.566507 1.60389 0
M  V30 1704 O 158.297 -0.483336 1.88089 0
M  V30 1705 C 155.427 -0.455487 3.443 0
M  V30 1706 C 154.381 0.361103 4.26474 0
M  V30 1707 C 153.707 -0.563221 5.31725 0
M  V30 1708 C 155.007 1.59566 4.97329 0
M  V30 1709 H 156.701 1.17548 2.75359 0
M  V30 1710 H 154.247 0.566686 1.32381 0
M  V30 1711 H 156.2 -0.83525 4.13039 0
M  V30 1712 H 154.924 -1.32139 2.98675 0
M  V30 1713 H 153.583 0.722825 3.59403 0
M  V30 1714 H 153.231 -1.42643 4.82351 0
M  V30 1715 H 152.931 -0.0207409 5.87596 0
M  V30 1716 H 154.455 -0.939808 6.03324 0
M  V30 1717 H 155.869 1.28728 5.58661 0
M  V30 1718 H 154.266 2.07728 5.63 0
M  V30 1719 H 155.336 2.34798 4.24262 0
M  V30 1720 N 156.679 -1.44442 0.630414 0
M  V30 1721 C 157.927 -2.01653 0.134351 0
M  V30 1722 C 158.248 -1.49836 -1.24796 0
M  V30 1723 O 157.518 -0.701684 -1.82902 0
M  V30 1724 H 156.098 -0.74554 0.0466769 0
M  V30 1725 H 158.76 -1.76952 0.816955 0
M  V30 1726 H 157.856 -3.11935 0.101498 0
M  V30 1727 N 158.157 -0.370918 -1.53173 0
M  V30 1728 C 159.568 0.107139 -1.86392 0
M  V30 1729 C 159.919 1.47714 -1.29132 0
M  V30 1730 O 159.044 2.07464 -0.615439 0
M  V30 1731 C 159.639 0.201187 -3.38202 0
M  V30 1732 C 158.198 0.623507 -3.712 0
M  V30 1733 C 157.345 -0.225978 -2.76378 0
M  V30 1734 H 160.296 -0.58951 -1.47345 0
M  V30 1735 H 160.317 1.02377 -3.66468 0
M  V30 1736 H 159.829 -0.796058 -3.79848 0
M  V30 1737 H 157.93 1.62879 -3.35114 0
M  V30 1738 H 158.043 0.394414 -4.77474 0
M  V30 1739 H 156.407 0.305962 -2.52856 0
M  V30 1740 H 157.19 -1.22086 -3.20858 0
M  V30 1741 N 159.635 1.57281 -0.100228 0
M  V30 1742 C 160.863 1.98879 0.570509 0
M  V30 1743 C 161.278 0.979476 1.61405 0
M  V30 1744 O 160.635 -0.0302288 1.82475 0
M  V30 1745 C 160.686 3.4052 1.2136 0
M  V30 1746 O 160.407 4.37588 0.211786 0
M  V30 1747 C 161.908 3.97149 1.96945 0
M  V30 1748 H 159.128 0.653428 0.152555 0
M  V30 1749 H 161.672 2.03697 -0.18103 0
M  V30 1750 H 159.827 3.367 1.91603 0
M  V30 1751 H 160.241 5.20118 0.676607 0
M  V30 1752 H 161.715 4.98393 2.37294 0
M  V30 1753 H 162.192 3.3525 2.83733 0
M  V30 1754 H 162.798 4.04458 1.31506 0
M  V30 1755 N 161.113 -0.173488 1.56642 0
M  V30 1756 C 162.362 -0.888758 1.81063 0
M  V30 1757 C 162.675 -1.83506 0.67712 0
M  V30 1758 O 163.881 -2.59254 0.806206 0
M  V30 1759 C 162.337 -1.63091 3.20826 0
M  V30 1760 C 161.945 -0.728357 4.4204 0
M  V30 1761 C 163.689 -2.33454 3.54541 0
M  V30 1762 C 161.596 -1.47062 5.72823 0
M  V30 1763 H 160.526 -0.335618 0.675186 0
M  V30 1764 H 163.177 -0.141712 1.82952 0
M  V30 1765 H 161.559 -2.42263 3.13248 0
M  V30 1766 H 162.733 0.0262449 4.60793 0
M  V30 1767 H 161.048 -0.134492 4.16183 0
M  V30 1768 H 163.645 -2.89578 4.49498 0
M  V30 1769 H 163.988 -3.08687 2.79317 0
M  V30 1770 H 164.521 -1.61227 3.63663 0
M  V30 1771 H 161.26 -0.760658 6.51072 0
M  V30 1772 H 160.78 -2.1986 5.58052 0
M  V30 1773 H 162.459 -2.01868 6.14702 0
M  V30 1774 N 162.591 -1.51276 -0.441967 0
M  V30 1775 C 163.538 -1.72256 -1.53612 0
M  V30 1776 C 164.508 -0.564164 -1.56225 0
M  V30 1777 O 165.693 -0.798074 -1.73307 0
M  V30 1778 C 162.833 -1.84932 -2.91366 0
M  V30 1779 C 161.946 -3.12459 -2.98317 0
M  V30 1780 C 161.081 -3.15758 -4.27166 0
M  V30 1781 C 160.12 -4.37619 -4.27967 0
M  V30 1782 N 159.257 -4.38493 -5.48333 0
M  V30 1783 H 164.097 -2.65654 -1.35026 0
M  V30 1784 H 161.634 -1.31662 -0.656009 0
M  V30 1785 H 163.592 -1.90263 -3.7129 0
M  V30 1786 H 162.222 -0.949461 -3.08521 0
M  V30 1787 H 161.274 -3.1646 -2.11086 0
M  V30 1788 H 162.586 -4.02382 -2.94771 0
M  V30 1789 H 161.74 -3.19979 -5.15459 0
M  V30 1790 H 160.479 -2.23715 -4.33362 0
M  V30 1791 H 159.484 -4.33579 -3.38067 0
M  V30 1792 H 160.709 -5.30921 -4.23438 0
M  V30 1793 H 158.655 -3.49318 -5.55259 0
M  V30 1794 H 158.572 -5.22219 -5.46647 0
M  V30 1795 H 159.84 -4.469 -6.38671 0
M  V30 1796 N 164.069 0.697108 -1.41344 0
M  V30 1797 C 165.317 1.45426 -1.40341 0
M  V30 1798 C 165.638 1.94996 -0.0128787 0
M  V30 1799 O 164.908 1.71599 0.945027 0
M  V30 1800 H 163.488 0.539594 -0.516573 0
M  V30 1801 H 166.15 0.825201 -1.76569 0
M  V30 1802 H 165.246 2.31817 -2.08967 0
M  V30 1803 N 165.547 1.27147 0.931209 0
M  V30 1804 C 166.777 1.15914 1.71019 0
M  V30 1805 C 167.185 -0.287112 1.87009 0
M  V30 1806 O 166.528 -1.20761 1.38429 0
M  V30 1807 C 166.59 1.76647 3.13107 0
M  V30 1808 C 166.254 3.25807 3.20467 0
M  V30 1809 C 167.251 4.22489 3.02983 0
M  V30 1810 C 164.936 3.66452 3.43538 0
M  V30 1811 C 166.93 5.57794 3.08454 0
M  V30 1812 C 164.617 5.01888 3.48643 0
M  V30 1813 C 165.615 5.97369 3.31119 0
M  V30 1814 O 165.303 7.30337 3.35952 0
M  V30 1815 H 165.035 0.404062 0.54195 0
M  V30 1816 H 167.589 1.68457 1.17521 0
M  V30 1817 H 165.819 1.18578 3.68071 0
M  V30 1818 H 167.508 1.60179 3.72958 0
M  V30 1819 H 168.274 3.92425 2.85004 0
M  V30 1820 H 164.153 2.92611 3.5623 0
M  V30 1821 H 167.697 6.32298 2.94694 0
M  V30 1822 H 163.594 5.31609 3.66145 0
M  V30 1823 H 164.362 7.38739 3.5243 0
M  V30 1824 N 167.025 -1.13721 1.09112 0
M  V30 1825 C 168.273 -1.84559 0.823562 0
M  V30 1826 C 168.594 -1.83754 -0.652658 0
M  V30 1827 O 167.864 -1.29102 -1.47342 0
M  V30 1828 H 166.444 -0.683376 0.301673 0
M  V30 1829 H 169.106 -1.37771 1.37859 0
M  V30 1830 H 168.202 -2.8917 1.17419 0
M  V30 1831 N 168.503 -0.877838 -1.30888 0
M  V30 1832 C 169.743 -0.499301 -1.98208 0
M  V30 1833 C 170.107 0.932649 -1.67826 0
M  V30 1834 O 171.308 1.41694 -2.28421 0
M  V30 1835 C 169.579 -0.758221 -3.49265 0
M  V30 1836 S 171.138 -0.480719 -4.36159 0
M  V30 1837 H 167.956 -0.186062 -0.686223 0
M  V30 1838 H 170.558 -1.13556 -1.59139 0
M  V30 1839 H 169.262 -1.79903 -3.68867 0
M  V30 1840 H 168.793 -0.109247 -3.93248 0
M  V30 1841 H 170.808 0.683698 -4.91467 0
M  V30 1842 N 169.982 1.44106 -0.638065 0
M  V30 1843 C 170.945 2.29138 0.0531013 0
M  V30 1844 C 171.945 1.41409 0.765506 0
M  V30 1845 O 173.135 1.63206 0.609046 0
M  V30 1846 C 170.267 3.23144 1.08584 0
M  V30 1847 H 171.46 2.91739 -0.694883 0
M  V30 1848 H 169.013 1.51134 -0.398538 0
M  V30 1849 H 169.748 2.65408 1.86357 0
M  V30 1850 H 169.533 3.87804 0.578852 0
M  V30 1851 H 171.023 3.87004 1.56899 0
M  V30 1852 N 171.46 0.379036 1.52974 0
M  V30 1853 C 172.708 -0.206014 2.01047 0
M  V30 1854 C 173.029 -1.48175 1.26765 0
M  V30 1855 O 172.299 -1.92085 0.384743 0
M  V30 1856 H 170.879 -0.0791184 0.742798 0
M  V30 1857 H 173.541 0.508366 1.88153 0
M  V30 1858 H 172.637 -0.423501 3.09213 0
M  V30 1859 N 172.938 -1.57226 0.108567 0
M  V30 1860 C 174.184 -1.95121 -0.552761 0
M  V30 1861 C 174.517 -0.991345 -1.66991 0
M  V30 1862 O 173.792 -0.0267211 -1.94482 0
M  V30 1863 C 174.075 -3.43039 -1.09528 0
M  V30 1864 C 173.928 -4.49797 0.0177332 0
M  V30 1865 C 175.247 -3.92567 -1.98945 0
M  V30 1866 H 172.366 -0.709496 -0.199461 0
M  V30 1867 H 175.008 -1.89126 0.182011 0
M  V30 1868 H 173.158 -3.48279 -1.72146 0
M  V30 1869 H 174.83 -4.56661 0.652584 0
M  V30 1870 H 173.073 -4.284 0.682309 0
M  V30 1871 H 173.744 -5.50528 -0.402919 0
M  V30 1872 H 176.22 -3.89565 -1.46214 0
M  V30 1873 H 175.096 -4.96605 -2.33827 0
M  V30 1874 H 175.357 -3.32648 -2.91201 0
M  V30 1875 N 174.416 0.165178 -1.56732 0
M  V30 1876 C 175.641 0.900253 -1.86843 0
M  V30 1877 C 176.066 1.74766 -0.695596 0
M  V30 1878 O 175.424 1.77786 0.35522 0
M  V30 1879 C 175.472 1.74777 -3.15413 0
M  V30 1880 O 174.576 2.85007 -2.98068 0
M  V30 1881 H 173.917 0.251832 -0.614391 0
M  V30 1882 H 176.447 0.161468 -2.03962 0
M  V30 1883 H 176.457 2.14646 -3.46974 0
M  V30 1884 H 175.132 1.12537 -4.00385 0
M  V30 1885 H 173.709 2.48676 -2.77875 0
M  V30 1886 N 175.894 1.51508 0.433938 0
M  V30 1887 C 177.119 1.68443 1.21003 0
M  V30 1888 C 177.544 0.382636 1.84167 0
M  V30 1889 O 176.902 -0.65755 1.68956 0
M  V30 1890 C 176.95 2.80405 2.26727 0
M  V30 1891 O 176.054 2.44245 3.32292 0
M  V30 1892 H 175.395 0.561536 0.354363 0
M  V30 1893 H 177.925 1.9809 0.512024 0
M  V30 1894 H 177.935 3.0459 2.71457 0
M  V30 1895 H 176.61 3.74867 1.80132 0
M  V30 1896 H 175.187 2.30644 2.93015 0
M  V30 1897 N 177.372 -0.689602 1.41712 0
M  V30 1898 C 178.618 -1.45181 1.41599 0
M  V30 1899 C 178.951 -1.94181 0.0270081 0
M  V30 1900 O 178.226 -1.6993 -0.946265 0
M  V30 1901 C 178.509 -2.65945 2.42787 0
M  V30 1902 C 178.362 -2.22672 3.90816 0
M  V30 1903 C 179.681 -3.68149 2.41151 0
M  V30 1904 H 176.8 -0.526576 0.515642 0
M  V30 1905 H 179.442 -0.784947 1.73028 0
M  V30 1906 H 177.592 -3.2284 2.16116 0
M  V30 1907 H 179.264 -1.71058 4.28412 0
M  V30 1908 H 177.507 -1.54394 4.05395 0
M  V30 1909 H 178.178 -3.0935 4.57172 0
M  V30 1910 H 180.654 -3.2094 2.64834 0
M  V30 1911 H 179.53 -4.50248 3.13955 0
M  V30 1912 H 179.791 -4.18259 1.43221 0
M  V30 1913 N 178.85 -1.27639 -0.924453 0
M  V30 1914 C 179.813 -1.10681 -2.00705 0
M  V30 1915 C 180.813 -0.0497823 -1.60723 0
M  V30 1916 O 182.003 -0.294654 -1.7169 0
M  V30 1917 C 179.135 -0.687164 -3.33902 0
M  V30 1918 H 180.328 -2.06817 -2.17179 0
M  V30 1919 H 177.881 -1.10473 -1.10569 0
M  V30 1920 H 178.616 0.275439 -3.23128 0
M  V30 1921 H 178.401 -1.45061 -3.6428 0
M  V30 1922 H 179.891 -0.590853 -4.13399 0
M  V30 1923 N 180.328 1.1314 -1.09713 0
M  V30 1924 C 181.558 1.88048 -0.855656 0
M  V30 1925 C 181.966 1.79537 0.596919 0
M  V30 1926 O 181.309 1.16196 1.42282 0
M  V30 1927 C 181.371 3.38314 -1.21589 0
M  V30 1928 C 181.035 3.70605 -2.67397 0
M  V30 1929 C 182.032 3.69596 -3.65643 0
M  V30 1930 C 179.717 4.0017 -3.03593 0
M  V30 1931 C 181.711 3.977 -4.9811 0
M  V30 1932 C 179.398 4.27935 -4.36251 0
M  V30 1933 C 180.396 4.26685 -5.33318 0
M  V30 1934 O 180.084 4.53767 -6.63589 0
M  V30 1935 H 179.816 0.60208 -0.307368 0
M  V30 1936 H 182.37 1.44128 -1.46343 0
M  V30 1937 H 180.6 3.82752 -0.551177 0
M  V30 1938 H 182.289 3.94552 -0.953083 0
M  V30 1939 H 183.055 3.46826 -3.39023 0
M  V30 1940 H 178.934 4.00289 -2.2867 0
M  V30 1941 H 182.478 3.9664 -5.73866 0
M  V30 1942 H 178.375 4.50178 -4.62613 0
M  V30 1943 H 179.143 4.71422 -6.69107 0
M  V30 1944 N 181.806 0.884767 1.30421 0
M  V30 1945 C 183.054 0.502112 1.95763 0
M  V30 1946 C 183.375 -0.951815 1.70192 0
M  V30 1947 O 182.645 -1.6692 1.0254 0
M  V30 1948 H 181.225 0.182694 0.724315 0
M  V30 1949 H 183.887 1.1278 1.58955 0
M  V30 1950 H 182.983 0.672188 3.04775 0
M  V30 1951 N 183.284 -1.43765 0.645699 0
M  V30 1952 C 184.214 -2.33471 -0.0370477 0
M  V30 1953 C 185.195 -1.49042 -0.819779 0
M  V30 1954 O 186.38 -1.77726 -0.782758 0
M  V30 1955 C 183.51 -3.32311 -1.0093 0
M  V30 1956 C 182.464 -4.2667 -0.337201 0
M  V30 1957 C 181.79 -5.1549 -1.42037 0
M  V30 1958 C 183.09 -5.16657 0.765706 0
M  V30 1959 H 184.784 -2.90809 0.712069 0
M  V30 1960 H 182.33 -1.39834 0.343876 0
M  V30 1961 H 184.283 -3.9396 -1.49578 0
M  V30 1962 H 183.007 -2.73213 -1.78948 0
M  V30 1963 H 181.666 -3.66374 0.128771 0
M  V30 1964 H 181.314 -4.52735 -2.1918 0
M  V30 1965 H 181.014 -5.79438 -0.975966 0
M  V30 1966 H 182.538 -5.80012 -1.90838 0
M  V30 1967 H 183.952 -5.72158 0.361702 0
M  V30 1968 H 182.349 -5.89286 1.13413 0
M  V30 1969 H 183.419 -4.56796 1.62683 0
M  V30 1970 N 184.763 -0.387143 -1.52771 0
M  V30 1971 C 185.693 0.440551 -2.29306 0
M  V30 1972 C 186.674 1.06535 -1.32606 0
M  V30 1973 O 187.859 1.07853 -1.61497 0
M  V30 1974 C 184.989 1.56919 -3.09829 0
M  V30 1975 C 183.943 1.07054 -4.14395 0
M  V30 1976 C 183.269 2.29109 -4.83129 0
M  V30 1977 C 184.569 0.140015 -5.22112 0
M  V30 1978 H 186.263 -0.198026 -2.98744 0
M  V30 1979 H 183.809 -0.09668 -1.43675 0
M  V30 1980 H 185.762 2.15503 -3.62128 0
M  V30 1981 H 184.486 2.23532 -2.3812 0
M  V30 1982 H 183.145 0.507247 -3.63074 0
M  V30 1983 H 182.793 2.94227 -4.0797 0
M  V30 1984 H 182.493 1.96406 -5.53804 0
M  V30 1985 H 184.017 2.88339 -5.38231 0
M  V30 1986 H 185.431 0.633978 -5.69784 0
M  V30 1987 H 183.828 -0.0971485 -6.00021 0
M  V30 1988 H 184.898 -0.811711 -4.78058 0
M  V30 1989 N 186.241 1.57166 -0.116904 0
M  V30 1990 C 187.204 2.14039 0.819742 0
M  V30 1991 C 188.204 1.07477 1.19605 0
M  V30 1992 O 189.394 1.33263 1.1219 0
M  V30 1993 C 186.526 2.67891 2.10826 0
M  V30 1994 H 187.719 2.98128 0.325511 0
M  V30 1995 H 185.272 1.55739 0.132312 0
M  V30 1996 H 186.007 1.87384 2.64685 0
M  V30 1997 H 185.792 3.45823 1.84793 0
M  V30 1998 H 187.282 3.11809 2.77785 0
M  V30 1999 N 187.719 -0.156864 1.56817 0
M  V30 2000 C 189.135 -0.50916 1.5126 0
M  V30 2001 C 189.335 -1.83897 0.823658 0
M  V30 2002 O 188.391 -2.49469 0.390055 0
M  V30 2003 C 189.704 -0.52857 2.96018 0
M  V30 2004 C 191.252 -0.614771 3.06903 0
M  V30 2005 C 191.727 -0.664938 4.53147 0
M  V30 2006 N 193.218 -0.727433 4.57452 0
M  V30 2007 C 193.953 -0.787067 5.67973 0
M  V30 2008 N 193.449 -0.806649 6.88088 0
M  V30 2009 N 195.242 -0.827195 5.5598 0
M  V30 2010 H 187.393 0.714935 2.00006 0
M  V30 2011 H 189.656 0.259526 0.911784 0
M  V30 2012 H 189.362 0.380154 3.49639 0
M  V30 2013 H 189.236 -1.36998 3.51442 0
M  V30 2014 H 191.623 -1.51392 2.53307 0
M  V30 2015 H 191.704 0.253597 2.5454 0
M  V30 2016 H 191.348 0.230011 5.07379 0
M  V30 2017 H 191.278 -1.54966 5.03282 0
M  V30 2018 H 193.769 -0.719998 3.70978 0
M  V30 2019 H 194.082 -0.853727 7.6807 0
M  V30 2020 H 192.427 -0.774687 6.90669 0
M  V30 2021 H 195.618 -0.808998 4.61056 0
M  V30 2022 H 195.791 -0.870206 6.4213 0
M  V30 2023 N 189.197 -1.51736 -0.425897 0
M  V30 2024 C 190.107 -1.76738 -1.54275 0
M  V30 2025 C 191.123 -0.65211 -1.61318 0
M  V30 2026 O 192.299 -0.935654 -1.78346 0
M  V30 2027 C 189.364 -1.89755 -2.90162 0
M  V30 2028 C 188.425 -3.13633 -2.93143 0
M  V30 2029 C 187.658 -3.2602 -4.22548 0
M  V30 2030 O 187.881 -2.44067 -5.15546 0
M  V30 2031 O 186.815 -4.19071 -4.32046 0
M  V30 2032 H 190.641 -2.71502 -1.36089 0
M  V30 2033 H 188.226 -1.36376 -0.610069 0
M  V30 2034 H 190.108 -2.00236 -3.70788 0
M  V30 2035 H 188.783 -0.981785 -3.08452 0
M  V30 2036 H 187.69 -3.08622 -2.11431 0
M  V30 2037 H 189.023 -4.04936 -2.798 0
M  V30 2038 N 190.675 0.682077 -1.42076 0
M  V30 2039 C 191.605 1.80796 -1.47767 0
M  V30 2040 C 192.586 1.6677 -0.334954 0
M  V30 2041 O 193.771 1.863 -0.548264 0
M  V30 2042 C 190.901 3.19038 -1.37229 0
M  V30 2043 C 189.855 3.47789 -2.49453 0
M  V30 2044 C 189.181 4.8553 -2.23975 0
M  V30 2045 C 190.481 3.45411 -3.91776 0
M  V30 2046 H 192.175 1.7629 -2.41997 0
M  V30 2047 H 189.721 0.846721 -1.16476 0
M  V30 2048 H 191.674 3.97528 -1.39821 0
M  V30 2049 H 190.398 3.24204 -0.394907 0
M  V30 2050 H 189.057 2.71657 -2.46166 0
M  V30 2051 H 188.705 4.87337 -1.24547 0
M  V30 2052 H 188.405 5.0573 -2.99184 0
M  V30 2053 H 189.929 5.66312 -2.28304 0
M  V30 2054 H 191.343 4.13882 -3.96705 0
M  V30 2055 H 189.74 3.77145 -4.66778 0
M  V30 2056 H 190.81 2.44122 -4.18966 0
M  V30 2057 N 192.153 1.28127 0.917671 0
M  V30 2058 C 193.063 1.13556 2.05286 0
M  V30 2059 C 194.079 0.0630914 1.73886 0
M  V30 2060 O 195.255 0.271598 1.9956 0
M  V30 2061 C 192.32 0.794676 3.3747 0
M  V30 2062 C 191.381 1.94909 3.82504 0
M  V30 2063 C 190.614 1.62437 5.0838 0
M  V30 2064 O 190.837 0.536905 5.67867 0
M  V30 2065 O 189.771 2.46677 5.4903 0
M  V30 2066 H 193.597 2.08844 2.20495 0
M  V30 2067 H 191.182 1.07409 1.03845 0
M  V30 2068 H 193.064 0.618344 4.16839 0
M  V30 2069 H 191.739 -0.128581 3.23445 0
M  V30 2070 H 190.646 2.18055 3.03978 0
M  V30 2071 H 191.979 2.85291 4.01086 0
M  V30 2072 N 193.631 -1.12557 1.10312 0
M  V30 2073 C 195.047 -1.36036 0.834649 0
M  V30 2074 C 195.247 -1.93946 -0.546539 0
M  V30 2075 O 194.303 -2.16484 -1.29966 0
M  V30 2076 C 195.616 -2.30312 1.9333 0
M  V30 2077 C 197.164 -2.43906 1.9616 0
M  V30 2078 C 197.639 -3.41496 3.05195 0
M  V30 2079 N 199.13 -3.49053 3.04494 0
M  V30 2080 C 199.865 -4.24471 3.85502 0
M  V30 2081 N 199.361 -5.02966 4.76442 0
M  V30 2082 N 201.154 -4.19864 3.73725 0
M  V30 2083 H 193.305 -0.733246 1.99342 0
M  V30 2084 H 195.568 -0.385234 0.866198 0
M  V30 2085 H 195.274 -1.94933 2.92735 0
M  V30 2086 H 195.148 -3.30421 1.81939 0
M  V30 2087 H 197.535 -2.78567 0.973886 0
M  V30 2088 H 197.616 -1.4369 2.11629 0
M  V30 2089 H 197.26 -3.07565 4.04186 0
M  V30 2090 H 197.19 -4.41539 2.86968 0
M  V30 2091 H 199.681 -2.93053 2.38596 0
M  V30 2092 H 199.994 -5.57846 5.34815 0
M  V30 2093 H 198.339 -5.02167 4.80472 0
M  V30 2094 H 201.53 -3.57623 3.02032 0
M  V30 2095 H 201.703 -4.78386 4.37093 0
M  V30 2096 N 195.109 -0.891671 -1.2995 0
M  V30 2097 C 196.355 -0.514261 -1.96171 0
M  V30 2098 C 196.688 0.935506 -1.70182 0
M  V30 2099 O 195.963 1.66204 -1.01028 0
M  V30 2100 C 196.246 -0.797719 -3.51153 0
M  V30 2101 C 196.099 -2.2986 -3.86632 0
M  V30 2102 C 197.418 -0.278749 -4.39216 0
M  V30 2103 H 194.537 -0.188314 -0.712535 0
M  V30 2104 H 197.179 -1.11689 -1.53706 0
M  V30 2105 H 195.329 -0.284826 -3.87455 0
M  V30 2106 H 197.001 -2.88042 -3.60319 0
M  V30 2107 H 195.244 -2.76257 -3.34462 0
M  V30 2108 H 195.915 -2.44753 -4.94773 0
M  V30 2109 H 198.391 -0.717825 -4.09862 0
M  V30 2110 H 197.267 -0.506353 -5.46559 0
M  V30 2111 H 197.528 0.820266 -4.34424 0
M  V30 2112 N 196.587 1.43421 -0.653314 0
M  V30 2113 C 197.864 1.95361 -0.0966581 0
M  V30 2114 C 198.244 1.59461 1.38331 0
M  V30 2115 O 197.592 0.879777 2.10884 0
M  V30 2116 C 197.802 3.47311 -0.342988 0
M  V30 2117 C 199.15 4.23875 -0.24798 0
M  V30 2118 O 200.174 3.55133 -0.275553 0
M  V30 2119 O 199.033 5.4623 -0.171771 0
M  V30 2120 H 196.127 0.826945 0.00956291 0
M  V30 2121 H 198.673 1.5336 -0.726558 0
M  V30 2122 H 197.445 3.66569 -1.36906 0
M  V30 2123 H 197.068 3.9631 0.319975 0
M  V30 2124 N 198.065 0.39524 1.52563 0
M  V30 2125 C 199.29 -0.187456 2.06551 0
M  V30 2126 C 199.715 -1.39249 1.26457 0
M  V30 2127 O 199.073 -1.78947 0.291151 0
M  V30 2128 C 199.121 -0.529985 3.56684 0
M  V30 2129 O 198.225 -1.62307 3.79118 0
M  V30 2130 H 197.566 -0.0202537 0.663691 0
M  V30 2131 H 200.096 0.564426 1.96661 0
M  V30 2132 H 200.106 -0.792598 4.00227 0
M  V30 2133 H 198.781 0.350987 4.14416 0
M  V30 2134 H 197.358 -1.3537 3.47461 0
M  V30 2135 N 199.544 -1.57102 0.125237 0
M  V30 2136 C 200.792 -1.95021 -0.530198 0
M  V30 2137 C 201.113 -1.00982 -1.66816 0
M  V30 2138 O 200.383 -0.0672693 -1.95784 0
M  V30 2139 H 198.963 -0.720046 -0.198853 0
M  V30 2140 H 201.625 -1.93916 0.19564 0
M  V30 2141 H 200.721 -2.98211 -0.920681 0
M  V30 2142 N 201.022 0.148545 -1.56898 0
M  V30 2143 C 202.252 0.875118 -1.8715 0
M  V30 2144 C 202.66 1.75322 -0.711262 0
M  V30 2145 O 202.003 1.80745 0.328151 0
M  V30 2146 C 202.065 1.7844 -3.12089 0
M  V30 2147 C 201.729 1.08361 -4.43967 0
M  V30 2148 C 202.726 0.438247 -5.1805 0
M  V30 2149 C 200.411 1.07358 -4.90693 0
M  V30 2150 C 202.405 -0.20779 -6.37061 0
M  V30 2151 C 200.092 0.42373 -6.09629 0
M  V30 2152 C 201.09 -0.215829 -6.82659 0
M  V30 2153 O 200.778 -0.855378 -7.99336 0
M  V30 2154 H 200.51 0.258504 -0.624621 0
M  V30 2155 H 203.064 0.14652 -2.04877 0
M  V30 2156 H 201.294 2.55389 -2.90367 0
M  V30 2157 H 202.983 2.38279 -3.286 0
M  V30 2158 H 203.749 0.437817 -4.8302 0
M  V30 2159 H 199.628 1.5608 -4.33774 0
M  V30 2160 H 203.172 -0.70758 -6.94002 0
M  V30 2161 H 199.069 0.421822 -6.4412 0
M  V30 2162 H 199.837 -0.756892 -8.14993 0
M  V30 2163 N 202.5 1.5196 0.417844 0
M  V30 2164 C 203.916 1.40569 0.755816 0
M  V30 2165 C 204.116 0.503316 1.95113 0
M  V30 2166 O 203.172 -0.0341925 2.52477 0
M  V30 2167 C 204.485 2.82947 1.01791 0
M  V30 2168 C 206.033 2.92231 1.12116 0
M  V30 2169 C 206.508 4.35559 1.41608 0
M  V30 2170 N 207.999 4.38753 1.48491 0
M  V30 2171 C 208.734 5.46705 1.7292 0
M  V30 2172 N 208.23 6.64788 1.95011 0
M  V30 2173 N 210.023 5.34209 1.74863 0
M  V30 2174 H 202.174 2.09168 -0.369098 0
M  V30 2175 H 204.437 0.942409 -0.102809 0
M  V30 2176 H 204.143 3.5106 0.212081 0
M  V30 2177 H 204.017 3.23462 1.94042 0
M  V30 2178 H 206.404 2.24304 1.9176 0
M  V30 2179 H 206.485 2.55185 0.177225 0
M  V30 2180 H 206.129 5.04042 0.624848 0
M  V30 2181 H 206.059 4.70133 2.37239 0
M  V30 2182 H 208.55 3.5363 1.33244 0
M  V30 2183 H 208.863 7.42845 2.13076 0
M  V30 2184 H 207.208 6.67869 1.92293 0
M  V30 2185 H 210.399 4.40937 1.57137 0
M  V30 2186 H 210.572 6.18415 1.93563 0
M  V30 2187 N 203.978 -0.674533 1.42435 0
M  V30 2188 C 205.203 -1.46784 1.46524 0
M  V30 2189 C 205.628 -1.87938 0.078066 0
M  V30 2190 O 204.986 -1.56014 -0.92354 0
M  V30 2191 C 205.034 -2.69307 2.39805 0
M  V30 2192 O 204.138 -3.67587 1.86959 0
M  V30 2193 H 203.479 -0.440959 0.496439 0
M  V30 2194 H 206.009 -0.827326 1.87127 0
M  V30 2195 H 206.019 -3.17374 2.56393 0
M  V30 2196 H 204.694 -2.38692 3.40586 0
M  V30 2197 H 203.271 -3.2662 1.79927 0
M  V30 2198 N 205.456 -1.28612 -0.910864 0
M  V30 2199 C 206.419 -1.12803 -1.9952 0
M  V30 2200 C 207.419 -0.0668264 -1.60661 0
M  V30 2201 O 208.609 -0.312847 -1.71368 0
M  V30 2202 C 205.741 -0.72254 -3.33155 0
M  V30 2203 H 206.934 -2.09109 -2.14973 0
M  V30 2204 H 204.487 -1.11639 -1.09391 0
M  V30 2205 H 205.222 0.241152 -3.23402 0
M  V30 2206 H 205.007 -1.48916 -3.62721 0
M  V30 2207 H 206.497 -0.634666 -4.12749 0
M  V30 2208 N 206.934 1.1197 -1.10907 0
M  V30 2209 C 207.867 2.16998 -0.706192 0
M  V30 2210 C 208.845 1.59903 0.294897 0
M  V30 2211 O 210.029 1.87513 0.192636 0
M  V30 2212 C 207.156 3.38673 -0.0427664 0
M  V30 2213 C 206.202 4.14414 -1.00811 0
M  V30 2214 S 207.035 4.72079 -2.52789 0
M  V30 2215 C 208.191 5.97083 -1.87731 0
M  V30 2216 H 208.424 2.50837 -1.59587 0
M  V30 2217 H 205.957 1.23508 -0.926555 0
M  V30 2218 H 207.915 4.09142 0.333668 0
M  V30 2219 H 206.576 3.03105 0.823788 0
M  V30 2220 H 205.769 5.016 -0.491259 0
M  V30 2221 H 205.371 3.49678 -1.3267 0
M  V30 2222 H 207.663 6.66599 -1.21044 0
M  V30 2223 H 208.606 6.53403 -2.72892 0
M  V30 2224 H 209.014 5.4837 -1.33979 0
M  V30 2225 N 208.412 0.89855 1.29475 0
M  V30 2226 C 209.637 0.538561 2.00285 0
M  V30 2227 C 210.062 -0.869135 1.66816 0
M  V30 2228 O 209.42 -1.57831 0.892145 0
M  V30 2229 C 209.468 0.736475 3.52999 0
M  V30 2230 O 208.572 -0.211537 4.11857 0
M  V30 2231 H 207.913 0.210563 0.62973 0
M  V30 2232 H 210.443 1.20982 1.64998 0
M  V30 2233 H 210.453 0.640685 4.02938 0
M  V30 2234 H 209.128 1.76276 3.76696 0
M  V30 2235 H 207.705 -0.0682991 3.72837 0
M  V30 2236 N 209.89 -1.43072 0.660911 0
M  V30 2237 C 211.136 -2.0202 0.177708 0
M  V30 2238 C 211.469 -1.52066 -1.20787 0
M  V30 2239 O 210.744 -0.716987 -1.80802 0
M  V30 2240 C 211.027 -3.59561 0.197019 0
M  V30 2241 C 210.88 -4.19727 1.61706 0
M  V30 2242 C 212.199 -4.37664 -0.462396 0
M  V30 2243 H 209.318 -0.734034 0.0660494 0
M  V30 2244 H 211.96 -1.70272 0.843058 0
M  V30 2245 H 210.11 -3.86739 -0.369527 0
M  V30 2246 H 211.782 -4.03553 2.23479 0
M  V30 2247 H 210.025 -3.76084 2.16201 0
M  V30 2248 H 210.696 -5.28834 1.58237 0
M  V30 2249 H 213.172 -4.16095 0.0197215 0
M  V30 2250 H 212.048 -5.47305 -0.418188 0
M  V30 2251 H 212.309 -4.14493 -1.53778 0
M  V30 2252 N 211.368 -0.403325 -1.52352 0
M  V30 2253 C 212.3 0.4603 -2.2453 0
M  V30 2254 C 213.313 1.01505 -1.27282 0
M  V30 2255 O 214.502 0.914982 -1.53266 0
M  V30 2256 C 211.602 1.65208 -2.95905 0
M  V30 2257 C 210.775 1.22224 -4.19976 0
M  V30 2258 C 209.834 2.28028 -4.74226 0
M  V30 2259 O 208.86 1.88857 -5.36956 0
M  V30 2260 N 210.062 3.6012 -4.55295 0
M  V30 2261 H 212.827 -0.158156 -2.99282 0
M  V30 2262 H 210.388 -0.230402 -1.60252 0
M  V30 2263 H 212.38 2.35541 -3.29093 0
M  V30 2264 H 210.95 2.17658 -2.24374 0
M  V30 2265 H 210.17 0.34725 -3.92668 0
M  V30 2266 H 211.458 0.911924 -5.00561 0
M  V30 2267 H 210.856 3.94698 -4.05253 0
M  V30 2268 H 209.413 4.26447 -4.92936 0
M  V30 2269 N 212.846 1.57033 -0.133567 0
M  V30 2270 C 214.071 2.00475 0.531477 0
M  V30 2271 C 214.496 1.01291 1.58499 0
M  V30 2272 O 213.854 -0.0133279 1.81295 0
M  V30 2273 C 213.902 3.42729 1.12113 0
M  V30 2274 O 213.006 3.46498 2.23636 0
M  V30 2275 H 212.347 0.650876 0.131362 0
M  V30 2276 H 214.877 2.03344 -0.22634 0
M  V30 2277 H 214.887 3.81246 1.4531 0
M  V30 2278 H 213.562 4.14428 0.349557 0
M  V30 2279 H 212.139 3.19811 1.91769 0
M  V30 2280 N 214.325 -0.140222 1.56975 0
M  V30 2281 C 215.55 -0.870414 1.88251 0
M  V30 2282 C 215.975 -1.73637 0.723312 0
M  V30 2283 O 215.333 -1.78329 -0.32689 0
M  V30 2284 C 215.381 -1.69737 3.18154 0
M  V30 2285 O 214.485 -2.80229 3.02565 0
M  V30 2286 H 213.826 -0.242025 0.61832 0
M  V30 2287 H 216.356 -0.128999 2.04193 0
M  V30 2288 H 216.366 -2.09099 3.50345 0
M  V30 2289 H 215.041 -1.06152 4.02125 0
M  V30 2290 H 213.618 -2.44224 2.81796 0
M  V30 2291 N 215.803 -1.52179 -0.40978 0
M  V30 2292 C 216.733 -1.78435 -1.5061 0
M  V30 2293 C 217.714 -0.635295 -1.57791 0
M  V30 2294 O 218.899 -0.880823 -1.73076 0
M  V30 2295 C 216.029 -1.93444 -2.88439 0
M  V30 2296 C 214.983 -3.09038 -2.96108 0
M  V30 2297 C 214.309 -3.09268 -4.36185 0
M  V30 2298 C 215.609 -4.48508 -2.67652 0
M  V30 2299 H 217.303 -2.70237 -1.28889 0
M  V30 2300 H 214.849 -1.30036 -0.618605 0
M  V30 2301 H 216.802 -2.10394 -3.65119 0
M  V30 2302 H 215.526 -0.983129 -3.11452 0
M  V30 2303 H 214.185 -2.91837 -2.21872 0
M  V30 2304 H 213.833 -2.11861 -4.56206 0
M  V30 2305 H 213.533 -3.86907 -4.42241 0
M  V30 2306 H 215.057 -3.28348 -5.14801 0
M  V30 2307 H 216.471 -4.65918 -3.34056 0
M  V30 2308 H 214.868 -5.28059 -2.85085 0
M  V30 2309 H 215.938 -4.56649 -1.63095 0
M  V30 2310 N 217.281 0.66697 -1.42791 0
M  V30 2311 C 218.527 1.4291 -1.43891 0
M  V30 2312 C 218.86 1.94114 -0.0578972 0
M  V30 2313 O 218.135 1.71414 0.91911 0
M  V30 2314 C 218.418 2.62049 -2.46987 0
M  V30 2315 C 218.271 2.16426 -3.94309 0
M  V30 2316 C 219.59 3.64266 -2.46978 0
M  V30 2317 H 216.709 0.518306 -0.523954 0
M  V30 2318 H 219.351 0.757321 -1.74255 0
M  V30 2319 H 217.501 3.19361 -2.21225 0
M  V30 2320 H 219.173 1.64221 -4.31079 0
M  V30 2321 H 217.416 1.47925 -4.078 0
M  V30 2322 H 218.087 3.02038 -4.62036 0
M  V30 2323 H 220.563 3.16686 -2.69906 0
M  V30 2324 H 219.439 4.45196 -3.21079 0
M  V30 2325 H 219.7 4.15927 -1.49857 0
M  V30 2326 N 218.759 1.29093 0.90403 0
M  V30 2327 C 219.692 1.08176 2.00931 0
M  V30 2328 C 220.67 -0.005083 1.62599 0
M  V30 2329 O 221.854 0.144765 1.87943 0
M  V30 2330 C 218.981 0.645897 3.32484 0
M  V30 2331 C 218.027 1.73081 3.89801 0
M  V30 2332 S 218.86 3.32905 4.19446 0
M  V30 2333 C 220.016 2.91176 5.54046 0
M  V30 2334 H 220.249 2.01752 2.18365 0
M  V30 2335 H 217.782 1.13191 1.0501 0
M  V30 2336 H 219.74 0.401131 4.08535 0
M  V30 2337 H 218.401 -0.270188 3.12936 0
M  V30 2338 H 217.594 1.37768 4.84805 0
M  V30 2339 H 217.196 1.92888 3.20422 0
M  V30 2340 H 219.488 2.37952 6.34338 0
M  V30 2341 H 220.431 3.85014 5.94281 0
M  V30 2342 H 220.839 2.296 5.15698 0
M  V30 2343 N 220.237 -1.11381 1.11499 0
M  V30 2344 C 221.187 -2.15555 0.74298 0
M  V30 2345 C 222.171 -1.58894 -0.253276 0
M  V30 2346 O 223.363 -1.76897 -0.0602918 0
M  V30 2347 C 220.492 -3.42782 0.188481 0
M  V30 2348 C 219.578 -4.064 1.21244 0
M  V30 2349 N 219.969 -4.44864 2.40685 0
M  V30 2350 C 218.267 -4.3333 1.05552 0
M  V30 2351 C 218.968 -4.94715 3.05994 0
M  V30 2352 N 217.944 -4.90909 2.33472 0
M  V30 2353 H 221.746 -2.43074 1.65203 0
M  V30 2354 H 219.26 -1.28401 0.994329 0
M  V30 2355 H 221.257 -4.16789 -0.0961693 0
M  V30 2356 H 219.917 -3.16727 -0.715149 0
M  V30 2357 H 220.928 -4.36876 2.78136 0
M  V30 2358 H 217.605 -4.1698 0.208372 0
M  V30 2359 H 218.995 -5.34103 4.07656 0
M  V30 2360 N 221.715 -0.905404 -1.28997 0
M  V30 2361 C 223.126 -0.581953 -1.77398 0
M  V30 2362 C 223.477 0.902552 -1.74208 0
M  V30 2363 O 222.602 1.70584 -1.33154 0
M  V30 2364 C 223.197 -1.04961 -3.22131 0
M  V30 2365 C 221.756 -0.777229 -3.68288 0
M  V30 2366 C 220.903 -1.22109 -2.48967 0
M  V30 2367 H 223.854 -1.08754 -1.15578 0
M  V30 2368 H 223.875 -0.387387 -3.78523 0
M  V30 2369 H 223.387 -2.13008 -3.24421 0
M  V30 2370 H 221.488 0.290383 -3.71467 0
M  V30 2371 H 221.601 -1.37911 -4.58822 0
M  V30 2372 H 219.965 -0.639971 -2.46529 0
M  V30 2373 H 220.748 -2.30972 -2.53982 0
M  V30 2374 N 223.193 1.4272 -0.668489 0
M  V30 2375 C 224.442 2.00846 -0.185389 0
M  V30 2376 C 224.755 1.53442 1.21305 0
M  V30 2377 O 225.961 2.03944 1.79218 0
M  V30 2378 C 224.417 3.58805 -0.280591 0
M  V30 2379 C 224.025 4.15198 -1.68268 0
M  V30 2380 C 225.769 4.24255 0.14412 0
M  V30 2381 C 223.676 5.655 -1.73099 0
M  V30 2382 H 222.606 0.751145 -0.0655475 0
M  V30 2383 H 225.257 1.63516 -0.832752 0
M  V30 2384 H 223.639 3.93608 0.434553 0
M  V30 2385 H 224.813 3.91866 -2.42441 0
M  V30 2386 H 223.128 3.62176 -2.05469 0
M  V30 2387 H 225.725 5.34547 0.128086 0
M  V30 2388 H 226.068 3.99277 1.17827 0
M  V30 2389 H 226.601 3.94389 -0.519798 0
M  V30 2390 H 223.34 5.95268 -2.74475 0
M  V30 2391 H 222.86 5.90842 -1.03274 0
M  V30 2392 H 224.539 6.29808 -1.48158 0
M  V30 2393 N 224.671 0.411399 1.52136 0
M  V30 2394 C 225.901 -0.16284 2.05957 0
M  V30 2395 C 226.309 -1.3922 1.28119 0
M  V30 2396 O 225.652 -1.80768 0.326881 0
M  V30 2397 C 225.714 -0.575946 3.54856 0
M  V30 2398 C 225.378 0.542998 4.53763 0
M  V30 2399 C 226.375 1.40726 5.00492 0
M  V30 2400 C 224.06 0.716337 4.97166 0
M  V30 2401 C 226.054 2.4298 5.8927 0
M  V30 2402 C 223.741 1.74218 5.8574 0
M  V30 2403 C 224.739 2.59731 6.31687 0
M  V30 2404 O 224.427 3.60558 7.18507 0
M  V30 2405 H 224.159 -0.0229125 0.675612 0
M  V30 2406 H 226.713 0.581634 1.96993 0
M  V30 2407 H 224.943 -1.37274 3.61515 0
M  V30 2408 H 226.632 -1.07836 3.91313 0
M  V30 2409 H 227.398 1.28476 4.67674 0
M  V30 2410 H 223.277 0.0603857 4.6096 0
M  V30 2411 H 226.821 3.0976 6.25055 0
M  V30 2412 H 222.718 1.86498 6.17971 0
M  V30 2413 H 223.486 3.56829 7.36624 0
M  V30 2414 N 226.149 -1.5696 0.141893 0
M  V30 2415 C 227.112 -2.15316 -0.785587 0
M  V30 2416 C 228.112 -1.09366 -1.1788 0
M  V30 2417 O 229.302 -1.35031 -1.10056 0
M  V30 2418 C 226.434 -2.71211 -2.06537 0
M  V30 2419 H 227.627 -2.98608 -0.278041 0
M  V30 2420 H 225.18 -1.5593 -0.107519 0
M  V30 2421 H 225.915 -1.91571 -2.6167 0
M  V30 2422 H 225.7 -3.4872 -1.79268 0
M  V30 2423 H 227.19 -3.16189 -2.72789 0
M  V30 2424 N 227.627 0.131896 -1.57047 0
M  V30 2425 C 228.857 0.855219 -1.88068 0
M  V30 2426 C 229.265 1.74557 -0.729817 0
M  V30 2427 O 228.608 1.81083 0.308962 0
M  V30 2428 C 228.67 1.75119 -3.13964 0
M  V30 2429 C 228.334 1.03646 -4.45091 0
M  V30 2430 C 229.331 0.383276 -5.18485 0
M  V30 2431 C 227.016 1.02148 -4.91804 0
M  V30 2432 C 229.01 -0.275347 -6.36805 0
M  V30 2433 C 226.697 0.359047 -6.10044 0
M  V30 2434 C 227.695 -0.288222 -6.82392 0
M  V30 2435 O 227.383 -0.94011 -7.98384 0
M  V30 2436 H 227.115 0.251864 -0.627328 0
M  V30 2437 H 229.669 0.124782 -2.05021 0
M  V30 2438 H 227.899 2.52295 -2.9306 0
M  V30 2439 H 229.588 2.3478 -3.31109 0
M  V30 2440 H 230.354 0.386562 -4.83457 0
M  V30 2441 H 226.233 1.5147 -4.35405 0
M  V30 2442 H 229.777 -0.781148 -6.93213 0
M  V30 2443 H 225.674 0.35348 -6.44531 0
M  V30 2444 H 226.442 -0.84329 -8.14144 0
M  V30 2445 N 229.106 1.52395 0.401703 0
M  V30 2446 C 230.354 1.66488 1.14569 0
M  V30 2447 C 230.675 0.400897 1.90835 0
M  V30 2448 O 229.945 -0.584415 1.8698 0
M  V30 2449 H 228.525 0.613672 0.425929 0
M  V30 2450 H 231.187 1.89464 0.457093 0
M  V30 2451 H 230.283 2.50942 1.85566 0
M  V30 2452 N 230.584 -0.659388 1.43143 0
M  V30 2453 C 231.809 -1.45221 1.48073 0
M  V30 2454 C 232.234 -1.87845 0.097995 0
M  V30 2455 O 231.592 -1.56985 -0.90694 0
M  V30 2456 C 231.64 -2.66748 2.42647 0
M  V30 2457 O 230.744 -3.65583 1.90848 0
M  V30 2458 H 230.085 -0.435669 0.501088 0
M  V30 2459 H 232.615 -0.807432 1.87994 0
M  V30 2460 H 232.625 -3.14637 2.59745 0
M  V30 2461 H 231.3 -2.35067 3.43098 0
M  V30 2462 H 229.877 -3.24693 1.83381 0
M  V30 2463 N 232.062 -1.29571 -0.897171 0
M  V30 2464 C 232.972 -1.16808 -2.03453 0
M  V30 2465 C 233.988 -0.0907471 -1.73763 0
M  V30 2466 O 235.164 -0.303312 -1.99103 0
M  V30 2467 C 232.229 -0.848264 -3.36163 0
M  V30 2468 C 231.29 -2.0097 -3.79354 0
M  V30 2469 C 230.523 -1.70505 -5.05731 0
M  V30 2470 O 230.746 -0.62718 -5.66941 0
M  V30 2471 O 229.68 -2.5538 -5.45036 0
M  V30 2472 H 233.506 -2.12325 -2.17144 0
M  V30 2473 H 231.091 -1.09047 -1.02123 0
M  V30 2474 H 232.973 -0.684581 -4.15802 0
M  V30 2475 H 231.648 0.0771071 -3.23608 0
M  V30 2476 H 230.555 -2.22863 -3.00471 0
M  V30 2477 H 231.888 -2.91636 -3.96496 0
M  V30 2478 N 233.54 1.10788 -1.12088 0
M  V30 2479 C 234.45 2.20599 -0.798338 0
M  V30 2480 C 235.466 1.72712 0.21135 0
M  V30 2481 O 236.642 2.01348 0.0458477 0
M  V30 2482 C 233.707 3.45771 -0.253674 0
M  V30 2483 C 232.768 4.08411 -1.32283 0
M  V30 2484 C 232.001 5.27608 -0.80406 0
M  V30 2485 O 232.224 5.69241 0.363478 0
M  V30 2486 O 231.158 5.8101 -1.57198 0
M  V30 2487 H 234.984 2.50614 -1.7154 0
M  V30 2488 H 232.569 1.19454 -0.897275 0
M  V30 2489 H 234.451 4.21376 0.0453691 0
M  V30 2490 H 233.126 3.1739 0.636005 0
M  V30 2491 H 232.033 3.34507 -1.67499 0
M  V30 2492 H 233.366 4.40986 -2.18614 0
M  V30 2493 N 235.018 0.912232 1.28515 0
M  V30 2494 C 235.95 0.35676 2.26406 0
M  V30 2495 C 236.963 -0.503933 1.54804 0
M  V30 2496 O 238.152 -0.319059 1.75625 0
M  V30 2497 C 235.252 -0.508825 3.35058 0
M  V30 2498 C 234.425 0.329007 4.36161 0
M  V30 2499 C 233.484 -0.471422 5.24084 0
M  V30 2500 O 232.51 0.115482 5.69083 0
M  V30 2501 N 233.712 -1.77479 5.52704 0
M  V30 2502 H 236.477 1.19818 2.74707 0
M  V30 2503 H 234.038 0.778022 1.4198 0
M  V30 2504 H 236.03 -1.051 3.90815 0
M  V30 2505 H 234.6 -1.25095 2.86478 0
M  V30 2506 H 233.82 1.05256 3.79888 0
M  V30 2507 H 235.108 0.90234 5.00735 0
M  V30 2508 H 234.506 -2.27417 5.17975 0
M  V30 2509 H 233.063 -2.26382 6.11224 0
M  V30 2510 N 236.496 -1.42363 0.676048 0
M  V30 2511 C 237.912 -1.55811 0.345718 0
M  V30 2512 C 238.112 -1.65544 -1.14879 0
M  V30 2513 O 237.168 -1.62306 -1.93424 0
M  V30 2514 C 238.481 -2.80746 1.07713 0
M  V30 2515 C 240.029 -2.9452 1.05958 0
M  V30 2516 C 240.504 -4.22318 1.77233 0
M  V30 2517 N 241.995 -4.29233 1.74108 0
M  V30 2518 C 242.73 -5.26935 2.26113 0
M  V30 2519 N 242.226 -6.30783 2.86505 0
M  V30 2520 N 244.019 -5.18741 2.1648 0
M  V30 2521 H 236.17 -1.34289 1.6456 0
M  V30 2522 H 238.433 -0.646506 0.69335 0
M  V30 2523 H 238.139 -2.79696 2.13221 0
M  V30 2524 H 238.013 -3.71676 0.64316 0
M  V30 2525 H 240.4 -2.95097 0.0128255 0
M  V30 2526 H 240.481 -2.04817 1.53244 0
M  V30 2527 H 240.125 -4.22502 2.81877 0
M  V30 2528 H 240.055 -5.10958 1.27396 0
M  V30 2529 H 242.546 -3.54814 1.30059 0
M  V30 2530 H 242.859 -7.01691 3.23805 0
M  V30 2531 H 241.204 -6.31341 2.90575 0
M  V30 2532 H 244.395 -4.36533 1.68987 0
M  V30 2533 H 244.568 -5.94721 2.57316 0
M  V30 2534 N 237.974 -0.419461 -1.51915 0
M  V30 2535 C 238.906 0.43646 -2.25006 0
M  V30 2536 C 239.919 1.00149 -1.28351 0
M  V30 2537 O 241.108 0.898674 -1.54227 0
M  V30 2538 C 238.208 1.6206 -2.9764 0
M  V30 2539 C 237.381 1.17763 -4.21249 0
M  V30 2540 C 236.44 2.22985 -4.76617 0
M  V30 2541 O 235.466 1.83151 -5.38929 0
M  V30 2542 N 236.668 3.55271 -4.59089 0
M  V30 2543 H 239.433 -0.18989 -2.99098 0
M  V30 2544 H 236.994 -0.247386 -1.59999 0
M  V30 2545 H 238.986 2.32038 -3.31573 0
M  V30 2546 H 237.556 2.15266 -2.2667 0
M  V30 2547 H 236.776 0.305582 -3.93014 0
M  V30 2548 H 238.064 0.858781 -5.015 0
M  V30 2549 H 237.462 3.90377 -4.09417 0
M  V30 2550 H 236.019 4.21195 -4.97432 0
M  V30 2551 N 239.452 1.56882 -0.150215 0
M  V30 2552 C 240.399 2.16922 0.788244 0
M  V30 2553 C 241.369 1.10303 1.24187 0
M  V30 2554 O 242.554 1.38359 1.31383 0
M  V30 2555 C 239.694 2.79754 2.02068 0
M  V30 2556 C 238.807 4.00775 1.61257 0
M  V30 2557 C 237.942 4.51595 2.79705 0
M  V30 2558 C 236.981 5.65074 2.35282 0
M  V30 2559 N 236.118 6.10499 3.4675 0
M  V30 2560 H 240.958 2.96779 0.269444 0
M  V30 2561 H 238.495 1.46599 0.12128 0
M  V30 2562 H 240.453 3.14329 2.74323 0
M  V30 2563 H 239.083 2.02536 2.51354 0
M  V30 2564 H 238.135 3.72158 0.787553 0
M  V30 2565 H 239.447 4.82978 1.24633 0
M  V30 2566 H 238.601 4.88242 3.60145 0
M  V30 2567 H 237.34 3.68406 3.19576 0
M  V30 2568 H 236.345 5.28 1.53283 0
M  V30 2569 H 237.57 6.50052 1.96493 0
M  V30 2570 H 235.516 5.30243 3.86236 0
M  V30 2571 H 235.433 6.87637 3.14152 0
M  V30 2572 H 236.701 6.51791 4.27537 0
M  V30 2573 N 240.93 -0.123565 1.57115 0
M  V30 2574 C 242.16 -0.845233 1.88519 0
M  V30 2575 C 242.568 -1.74168 0.739064 0
M  V30 2576 O 241.911 -1.81244 -0.299355 0
M  V30 2577 C 241.973 -1.73452 3.14888 0
M  V30 2578 C 241.637 -1.01285 4.45635 0
M  V30 2579 C 242.634 -0.355774 5.18681 0
M  V30 2580 C 240.319 -0.99538 4.92339 0
M  V30 2581 C 242.313 0.309114 6.3665 0
M  V30 2582 C 240 -0.32669 6.10226 0
M  V30 2583 C 240.998 0.324406 6.82229 0
M  V30 2584 O 240.686 0.982437 7.97874 0
M  V30 2585 H 240.418 -0.248534 0.628655 0
M  V30 2586 H 242.972 -0.113907 2.05084 0
M  V30 2587 H 241.202 -2.50737 2.94394 0
M  V30 2588 H 242.891 -2.33021 3.32349 0
M  V30 2589 H 243.657 -0.360918 4.83655 0
M  V30 2590 H 239.536 -1.49159 4.36202 0
M  V30 2591 H 243.08 0.8179 6.92789 0
M  V30 2592 H 238.977 -0.319294 6.4471 0
M  V30 2593 H 239.745 0.886454 8.13686 0
M  V30 2594 N 242.408 -1.52605 -0.393616 0
M  V30 2595 C 243.338 -1.80022 -1.48709 0
M  V30 2596 C 244.319 -0.651995 -1.57108 0
M  V30 2597 O 245.504 -0.89913 -1.72132 0
M  V30 2598 C 242.634 -1.96492 -2.86371 0
M  V30 2599 C 241.588 -3.12161 -2.92813 0
M  V30 2600 C 240.914 -3.13877 -4.3288 0
M  V30 2601 C 242.214 -4.51322 -2.6288 0
M  V30 2602 H 243.908 -2.71589 -1.26015 0
M  V30 2603 H 241.454 -1.30684 -0.604778 0
M  V30 2604 H 243.407 -2.14255 -3.62867 0
M  V30 2605 H 242.131 -1.01611 -3.10391 0
M  V30 2606 H 240.79 -2.94173 -2.18764 0
M  V30 2607 H 240.438 -2.16687 -4.53933 0
M  V30 2608 H 240.138 -3.91576 -4.38112 0
M  V30 2609 H 241.662 -3.33789 -5.1129 0
M  V30 2610 H 243.076 -4.69435 -3.29096 0
M  V30 2611 H 241.473 -5.31053 -2.79468 0
M  V30 2612 H 242.543 -4.58353 -1.58242 0
M  V30 2613 N 243.887 0.651787 -1.4349 0
M  V30 2614 C 245.298 1.233 -1.40193 0
M  V30 2615 C 245.649 1.9591 -0.106727 0
M  V30 2616 O 244.774 2.01316 0.793773 0
M  V30 2617 C 245.369 2.24257 -2.53957 0
M  V30 2618 C 243.928 2.77852 -2.5392 0
M  V30 2619 C 243.075 1.52517 -2.3159 0
M  V30 2620 H 246.026 0.443717 -1.52371 0
M  V30 2621 H 246.047 3.0646 -2.25528 0
M  V30 2622 H 245.559 1.71382 -3.4821 0
M  V30 2623 H 243.66 3.34786 -1.63551 0
M  V30 2624 H 243.773 3.25299 -3.51735 0
M  V30 2625 H 242.137 1.79915 -1.80285 0
M  V30 2626 H 242.92 1.01574 -3.27929 0
M  V30 2627 N 245.365 1.30045 0.890287 0
M  V30 2628 C 246.297 1.11786 2.00091 0
M  V30 2629 C 247.31 0.0626307 1.62679 0
M  V30 2630 O 248.499 0.308112 1.75821 0
M  V30 2631 C 245.599 0.681527 3.31977 0
M  V30 2632 C 244.772 1.81735 3.97858 0
M  V30 2633 C 243.831 1.37045 5.08041 0
M  V30 2634 O 242.857 2.07677 5.29961 0
M  V30 2635 N 244.059 0.246525 5.79976 0
M  V30 2636 H 246.824 2.07441 2.16306 0
M  V30 2637 H 244.385 1.2211 1.06305 0
M  V30 2638 H 246.377 0.365675 4.03045 0
M  V30 2639 H 244.947 -0.182828 3.12065 0
M  V30 2640 H 244.167 2.30159 3.20032 0
M  V30 2641 H 245.455 2.57865 4.38615 0
M  V30 2642 H 244.853 -0.34215 5.64664 0
M  V30 2643 H 243.41 -0.00990438 6.51799 0
M  V30 2644 N 246.843 -1.10192 1.12674 0
M  V30 2645 C 247.773 -2.18652 0.819362 0
M  V30 2646 C 248.754 -1.68698 -0.217915 0
M  V30 2647 O 249.939 -1.94041 -0.0785581 0
M  V30 2648 C 247.069 -3.46202 0.27594 0
M  V30 2649 C 246.023 -4.09444 1.24656 0
M  V30 2650 C 245.349 -5.31725 0.563258 0
M  V30 2651 C 246.649 -4.52863 2.60217 0
M  V30 2652 H 248.343 -2.44622 1.72628 0
M  V30 2653 H 245.889 -1.17571 0.831451 0
M  V30 2654 H 247.842 -4.21372 0.0486149 0
M  V30 2655 H 246.566 -3.1973 -0.666331 0
M  V30 2656 H 245.225 -3.36284 1.45974 0
M  V30 2657 H 244.873 -5.0153 -0.384235 0
M  V30 2658 H 244.573 -5.74991 1.21075 0
M  V30 2659 H 246.097 -6.09624 0.34503 0
M  V30 2660 H 247.511 -5.19294 2.42913 0
M  V30 2661 H 245.908 -5.06986 3.21068 0
M  V30 2662 H 246.978 -3.65656 3.18471 0
M  V30 2663 N 248.321 -0.919034 -1.28029 0
M  V30 2664 C 249.284 -0.416182 -2.2539 0
M  V30 2665 C 250.284 0.460438 -1.54067 0
M  V30 2666 O 251.474 0.262744 -1.72207 0
M  V30 2667 C 248.606 0.402707 -3.38513 0
M  V30 2668 H 249.799 -1.27629 -2.71387 0
M  V30 2669 H 247.352 -0.698919 -1.39803 0
M  V30 2670 H 248.087 1.282 -2.97885 0
M  V30 2671 H 247.872 -0.225698 -3.9145 0
M  V30 2672 H 249.362 0.745191 -4.10897 0
M  V30 2673 N 249.799 1.42003 -0.683588 0
M  V30 2674 C 250.746 2.30798 -0.0107309 0
M  V30 2675 C 251.716 1.4645 0.783688 0
M  V30 2676 O 252.901 1.75263 0.754156 0
M  V30 2677 C 250.041 3.3238 0.928306 0
M  V30 2678 C 249.154 4.31814 0.126776 0
M  V30 2679 C 248.289 5.20468 1.06236 0
M  V30 2680 C 247.328 6.11577 0.253035 0
M  V30 2681 N 246.465 6.92754 1.14179 0
M  V30 2682 H 251.305 2.8778 -0.773727 0
M  V30 2683 H 248.842 1.41745 -0.393283 0
M  V30 2684 H 250.8 3.89813 1.48666 0
M  V30 2685 H 249.43 2.76976 1.65783 0
M  V30 2686 H 248.482 3.76427 -0.54833 0
M  V30 2687 H 249.794 4.96276 -0.501192 0
M  V30 2688 H 248.948 5.82677 1.69035 0
M  V30 2689 H 247.687 4.56204 1.7242 0
M  V30 2690 H 246.692 5.48428 -0.388108 0
M  V30 2691 H 247.917 6.77892 -0.404839 0
M  V30 2692 H 245.863 6.3111 1.78987 0
M  V30 2693 H 245.78 7.53855 0.569111 0
M  V30 2694 H 247.048 7.59441 1.75697 0
M  V30 2695 N 251.277 0.427512 1.51691 0
M  V30 2696 C 252.525 -0.141948 2.01601 0
M  V30 2697 C 252.846 -1.44067 1.31414 0
M  V30 2698 O 252.116 -1.90763 0.445658 0
M  V30 2699 H 250.696 -0.0554468 0.744939 0
M  V30 2700 H 253.358 0.567968 1.86441 0
M  V30 2701 H 252.454 -0.324913 3.10404 0
M  V30 2702 N 252.755 -1.56801 0.158532 0
M  V30 2703 C 253.665 -2.20916 -0.789518 0
M  V30 2704 C 254.681 -1.1969 -1.26294 0
M  V30 2705 O 255.857 -1.52308 -1.31773 0
M  V30 2706 C 252.922 -2.82727 -2.00665 0
M  V30 2707 C 251.983 -3.99114 -1.58134 0
M  V30 2708 C 251.216 -4.57968 -2.74045 0
M  V30 2709 O 251.439 -4.15704 -3.90572 0
M  V30 2710 O 250.373 -5.48047 -2.48855 0
M  V30 2711 H 254.199 -3.02464 -0.273681 0
M  V30 2712 H 251.784 -1.4924 -0.0690548 0
M  V30 2713 H 253.666 -3.21968 -2.71872 0
M  V30 2714 H 252.341 -2.04184 -2.51179 0
M  V30 2715 H 251.248 -3.64567 -0.839155 0
M  V30 2716 H 252.581 -4.79212 -1.12325 0
M  V30 2717 N 254.233 0.115231 -1.57178 0
M  V30 2718 C 255.163 1.1423 -2.03651 0
M  V30 2719 C 256.144 1.42967 -0.921655 0
M  V30 2720 O 257.329 1.53343 -1.19162 0
M  V30 2721 C 254.459 2.4675 -2.44401 0
M  V30 2722 C 253.413 2.32467 -3.59365 0
M  V30 2723 C 252.739 3.69984 -3.86026 0
M  V30 2724 C 254.039 1.78203 -4.90959 0
M  V30 2725 H 255.733 0.755749 -2.89705 0
M  V30 2726 H 253.279 0.362093 -1.39373 0
M  V30 2727 H 255.232 3.18854 -2.75517 0
M  V30 2728 H 253.956 2.87302 -1.55322 0
M  V30 2729 H 252.615 1.62811 -3.28463 0
M  V30 2730 H 252.263 4.08028 -2.94147 0
M  V30 2731 H 251.963 3.61279 -4.63412 0
M  V30 2732 H 253.487 4.43587 -4.19599 0
M  V30 2733 H 254.901 2.40128 -5.20587 0
M  V30 2734 H 253.298 1.8031 -5.72371 0
M  V30 2735 H 254.368 0.739876 -4.79222 0
M  V30 2736 N 255.711 1.52812 0.385517 0
M  V30 2737 C 256.641 1.80808 1.47752 0
M  V30 2738 C 257.622 0.660318 1.5676 0
M  V30 2739 O 258.807 0.908246 1.71652 0
M  V30 2740 C 255.937 1.98008 2.85324 0
M  V30 2741 C 254.891 3.13709 2.91154 0
M  V30 2742 C 254.217 3.16169 4.31209 0
M  V30 2743 C 255.517 4.52709 2.60483 0
M  V30 2744 H 257.211 2.72253 1.24573 0
M  V30 2745 H 254.757 1.31003 0.597839 0
M  V30 2746 H 256.71 2.16176 3.61726 0
M  V30 2747 H 255.434 1.03255 3.09848 0
M  V30 2748 H 254.093 2.95329 2.17201 0
M  V30 2749 H 253.741 2.19092 4.52778 0
M  V30 2750 H 253.441 3.93894 4.36029 0
M  V30 2751 H 254.965 3.36496 5.09512 0
M  V30 2752 H 256.379 4.71173 3.26602 0
M  V30 2753 H 254.776 5.32528 2.76648 0
M  V30 2754 H 255.846 4.59186 1.55809 0
M  V30 2755 N 257.189 -0.644168 1.43834 0
M  V30 2756 C 258.437 -1.40117 1.45642 0
M  V30 2757 C 258.758 -1.94814 0.0852413 0
M  V30 2758 O 258.028 -1.74988 -0.880688 0
M  V30 2759 H 256.608 -0.52005 0.536243 0
M  V30 2760 H 259.27 -0.7591 1.7951 0
M  V30 2761 H 258.366 -2.23902 2.17427 0
M  V30 2762 N 258.668 -1.30515 -0.883378 0
M  V30 2763 C 259.908 -1.20716 -1.64946 0
M  V30 2764 C 260.272 0.234072 -1.90568 0
M  V30 2765 O 261.473 0.455335 -2.64915 0
M  V30 2766 C 259.744 -2.01444 -2.9522 0
M  V30 2767 S 261.303 -2.0836 -3.86175 0
M  V30 2768 H 258.121 -0.430165 -0.566109 0
M  V30 2769 H 260.723 -1.65011 -1.04841 0
M  V30 2770 H 259.427 -3.05268 -2.74298 0
M  V30 2771 H 258.958 -1.57817 -3.60357 0
M  V30 2772 H 260.973 -1.21215 -4.81167 0
M  V30 2773 N 260.146 1.09593 -1.13257 0
M  V30 2774 C 261.393 1.81734 -0.893257 0
M  V30 2775 C 261.721 1.8563 0.580656 0
M  V30 2776 O 260.976 1.31906 1.44566 0
M  V30 2777 C 261.275 3.27802 -1.42411 0
M  V30 2778 C 260.941 3.44041 -2.91456 0
M  V30 2779 C 259.603 3.48181 -3.3215 0
M  V30 2780 C 261.955 3.48719 -3.87356 0
M  V30 2781 C 259.283 3.54575 -4.67433 0
M  V30 2782 C 261.635 3.56648 -5.2248 0
M  V30 2783 C 260.299 3.59055 -5.62704 0
M  V30 2784 H 259.569 0.665011 -0.326866 0
M  V30 2785 H 262.216 1.2912 -1.41422 0
M  V30 2786 H 260.521 3.83042 -0.823795 0
M  V30 2787 H 262.218 3.82149 -1.21503 0
M  V30 2788 H 258.808 3.41502 -2.58987 0
M  V30 2789 H 262.992 3.44763 -3.57004 0
M  V30 2790 H 258.248 3.54725 -4.97976 0
M  V30 2791 H 262.422 3.59212 -5.96607 0
M  V30 2792 H 260.049 3.63763 -6.67518 0
M  V30 2793 N 261.624 0.925811 1.2754 0
M  V30 2794 C 262.872 0.564138 1.94067 0
M  V30 2795 C 263.193 -0.897188 1.73134 0
M  V30 2796 O 262.463 -1.63573 1.07799 0
M  V30 2797 H 261.043 0.205645 0.718136 0
M  V30 2798 H 263.705 1.1778 1.55287 0
M  V30 2799 H 262.801 0.76881 3.02483 0
M  V30 2800 N 263.102 -1.41638 0.69111 0
M  V30 2801 C 264.032 -2.3347 0.037248 0
M  V30 2802 C 265.013 -1.51575 -0.771947 0
M  V30 2803 O 266.198 -1.80126 -0.72582 0
M  V30 2804 C 263.328 -3.35354 -0.903064 0
M  V30 2805 C 262.282 -4.27526 -0.201288 0
M  V30 2806 C 261.608 -5.19747 -1.25565 0
M  V30 2807 C 262.908 -5.13959 0.929689 0
M  V30 2808 H 264.602 -2.88397 0.804227 0
M  V30 2809 H 262.148 -1.38669 0.388189 0
M  V30 2810 H 264.101 -3.98519 -1.36969 0
M  V30 2811 H 262.825 -2.78767 -1.70166 0
M  V30 2812 H 261.484 -3.65779 0.245265 0
M  V30 2813 H 261.132 -4.59479 -2.04666 0
M  V30 2814 H 260.832 -5.8225 -0.791128 0
M  V30 2815 H 262.356 -5.85789 -1.72288 0
M  V30 2816 H 263.77 -5.70718 0.543546 0
M  V30 2817 H 262.167 -5.85379 1.32103 0
M  V30 2818 H 263.237 -4.51389 1.77133 0
M  V30 2819 N 264.58 -0.43555 -1.51462 0
M  V30 2820 C 265.808 0.130242 -2.0649 0
M  V30 2821 C 266.223 1.36614 -1.30315 0
M  V30 2822 O 265.58 1.78869 -0.362223 0
M  V30 2823 C 265.631 0.454253 -3.58635 0
M  V30 2824 O 265.352 -0.73259 -4.31931 0
M  V30 2825 C 266.853 1.07091 -4.3017 0
M  V30 2826 H 264.073 0.00871669 -0.670943 0
M  V30 2827 H 266.617 -0.614117 -1.95061 0
M  V30 2828 H 264.772 1.14851 -3.69984 0
M  V30 2829 H 265.186 -0.455787 -5.22516 0
M  V30 2830 H 266.66 1.24764 -5.37716 0
M  V30 2831 H 267.137 2.05144 -3.88346 0
M  V30 2832 H 267.743 0.416089 -4.2326 0
M  V30 2833 N 266.058 1.56714 -0.166846 0
M  V30 2834 C 266.968 2.21331 0.777791 0
M  V30 2835 C 267.984 1.20358 1.25658 0
M  V30 2836 O 269.16 1.53005 1.30964 0
M  V30 2837 C 266.225 2.83787 1.99163 0
M  V30 2838 C 265.286 3.99947 1.56016 0
M  V30 2839 C 264.519 4.59415 2.71613 0
M  V30 2840 O 264.742 4.17769 3.88362 0
M  V30 2841 O 263.676 5.49359 2.45945 0
M  V30 2842 H 267.502 3.02605 0.257636 0
M  V30 2843 H 265.087 1.49275 0.0611393 0
M  V30 2844 H 266.969 3.23405 2.70161 0
M  V30 2845 H 265.644 2.05513 2.50092 0
M  V30 2846 H 264.551 3.65007 0.819809 0
M  V30 2847 H 265.884 4.79801 1.09782 0
M  V30 2848 N 267.536 -0.106894 1.57237 0
M  V30 2849 C 268.947 -0.662723 1.74542 0
M  V30 2850 C 269.298 -1.7971 0.787319 0
M  V30 2851 O 268.423 -2.16368 -0.0369636 0
M  V30 2852 C 269.018 -1.20896 3.16496 0
M  V30 2853 C 267.577 -1.71096 3.35266 0
M  V30 2854 C 266.724 -0.615642 2.7038 0
M  V30 2855 H 269.675 0.119106 1.58252 0
M  V30 2856 H 269.696 -2.07847 3.18716 0
M  V30 2857 H 269.208 -0.383122 3.86204 0
M  V30 2858 H 267.309 -2.56119 2.70618 0
M  V30 2859 H 267.422 -1.81208 4.43509 0
M  V30 2860 H 265.786 -1.05222 2.31949 0
M  V30 2861 H 266.569 0.199419 3.4272 0
M  V30 2862 N 269.014 -1.53014 -0.377408 0
M  V30 2863 C 269.962 -1.7927 -1.48206 0
M  V30 2864 C 270.956 -0.661195 -1.55963 0
M  V30 2865 O 272.162 -0.843908 -1.58991 0
M  V30 2866 H 268.537 -0.567425 -0.493491 0
M  V30 2867 H 270.508 -2.71753 -1.2326 0
M  V30 2868 C 269.257 -1.98894 -2.85196 0
M  V30 2869 H 268.58 -2.85395 -2.79981 0
M  V30 2870 H 270.02 -2.21249 -3.61698 0
M  V30 2871 C 268.479 -0.764691 -3.28107 0
M  V30 2872 O 269.009 0.0523226 -4.01666 0
M  V30 2873 N 267.215 -0.591493 -2.84517 0
M  V30 2874 H 266.762 -1.25749 -2.24822 0
M  V30 2875 H 266.72 0.226253 -3.13585 0
M  V30 2876 N 270.492 0.636531 -1.44174 0
M  V30 2877 C 271.717 1.42847 -1.50364 0
M  V30 2878 C 272.142 1.87665 -0.127867 0
M  V30 2879 O 271.5 1.58408 0.88185 0
M  V30 2880 C 271.548 2.62854 -2.4686 0
M  V30 2881 O 270.652 3.62501 -1.9664 0
M  V30 2882 H 269.993 0.427642 -0.507955 0
M  V30 2883 H 272.523 0.777422 -1.89255 0
M  V30 2884 H 272.533 3.10465 -2.64718 0
M  V30 2885 H 271.208 2.29578 -3.46795 0
M  V30 2886 H 269.785 3.21735 -1.88523 0
M  V30 2887 N 271.97 1.30982 0.876444 0
M  V30 2888 C 273.218 1.20058 1.62575 0
M  V30 2889 C 273.539 -0.242947 1.93481 0
M  V30 2890 O 272.809 -1.1619 1.57724 0
M  V30 2891 H 271.389 0.44135 0.602677 0
M  V30 2892 H 274.051 1.64222 1.04962 0
M  V30 2893 H 273.147 1.76762 2.57219 0
M  V30 2894 N 273.449 -1.08991 1.13837 0
M  V30 2895 C 274.674 -1.85551 0.926585 0
M  V30 2896 C 275.099 -1.80782 -0.519566 0
M  V30 2897 O 274.457 -1.18855 -1.36906 0
M  V30 2898 C 274.505 -3.31266 1.42462 0
M  V30 2899 O 273.609 -4.07822 0.612789 0
M  V30 2900 H 272.95 -0.575192 0.331738 0
M  V30 2901 H 275.48 -1.37604 1.51414 0
M  V30 2902 H 275.49 -3.82112 1.43019 0
M  V30 2903 H 274.165 -3.34052 2.47754 0
M  V30 2904 H 272.742 -3.66731 0.675463 0
M  V30 2905 N 274.927 -0.932562 -1.27047 0
M  V30 2906 C 276.204 -0.49377 -1.89265 0
M  V30 2907 C 276.584 1.02833 -1.8436 0
M  V30 2908 O 275.932 1.88461 -1.29209 0
M  V30 2909 C 276.142 -1.04536 -3.32976 0
M  V30 2910 C 277.49 -1.10879 -4.09867 0
M  V30 2911 O 278.514 -0.995327 -3.42011 0
M  V30 2912 O 277.373 -1.28417 -5.31198 0
M  V30 2913 H 274.467 -0.159596 -0.811454 0
M  V30 2914 H 277.013 -1.02457 -1.3528 0
M  V30 2915 H 275.785 -2.08913 -3.30864 0
M  V30 2916 H 275.408 -0.496494 -3.94488 0
M  V30 2917 N 276.405 1.4127 -0.698611 0
M  V30 2918 C 277.816 1.84187 -0.305289 0
M  V30 2919 C 278.167 1.58449 1.15708 0
M  V30 2920 O 277.292 1.05651 1.88856 0
M  V30 2921 C 277.887 3.3435 -0.547314 0
M  V30 2922 C 276.446 3.75826 -0.207878 0
M  V30 2923 C 275.593 2.64647 -0.828099 0
M  V30 2924 H 278.544 1.30778 -0.89904 0
M  V30 2925 H 278.565 3.8001 0.192998 0
M  V30 2926 H 278.077 3.53051 -1.61172 0
M  V30 2927 H 276.178 3.62725 0.852143 0
M  V30 2928 H 276.291 4.74462 -0.665021 0
M  V30 2929 H 274.655 2.53395 -0.257458 0
M  V30 2930 H 275.438 2.86165 -1.89643 0
M  V30 2931 N 277.883 0.443576 1.51229 0
M  V30 2932 C 279.108 -0.121648 2.07043 0
M  V30 2933 C 279.533 -1.35156 1.30823 0
M  V30 2934 O 278.891 -1.7793 0.347934 0
M  V30 2935 C 278.939 -0.41624 3.5819 0
M  V30 2936 O 278.043 -1.50163 3.8409 0
M  V30 2937 H 277.384 0.000871367 0.663999 0
M  V30 2938 H 279.914 0.626706 1.94765 0
M  V30 2939 H 279.924 -0.664867 4.02546 0
M  V30 2940 H 278.599 0.482653 4.1309 0
M  V30 2941 H 277.176 -1.24248 3.51592 0
M  V30 2942 N 279.361 -1.56624 0.175154 0
M  V30 2943 C 280.586 -2.01813 -0.478137 0
M  V30 2944 C 281.011 -1.05457 -1.55757 0
M  V30 2945 O 280.369 -0.0347439 -1.81267 0
M  V30 2946 C 280.417 -3.45581 -1.02987 0
M  V30 2947 O 279.521 -3.52305 -2.14371 0
M  V30 2948 H 278.862 -0.65413 -0.114059 0
M  V30 2949 H 281.392 -2.02673 0.280173 0
M  V30 2950 H 281.402 -3.84965 -1.35151 0
M  V30 2951 H 280.077 -4.1521 -0.239556 0
M  V30 2952 H 278.654 -3.24783 -1.83222 0
M  V30 2953 N 280.839 0.0985539 -1.57292 0
M  V30 2954 C 281.772 1.15082 -1.97057 0
M  V30 2955 C 282.75 1.39025 -0.843255 0
M  V30 2956 O 283.934 1.52842 -1.10325 0
M  V30 2957 C 281.061 2.50069 -2.28437 0
M  V30 2958 C 280.107 2.42428 -3.509 0
M  V30 2959 S 280.94 1.84414 -5.02744 0
M  V30 2960 C 282.096 3.21032 -5.37298 0
M  V30 2961 H 282.329 0.811815 -2.86002 0
M  V30 2962 H 279.862 0.306102 -1.51335 0
M  V30 2963 H 281.82 3.27729 -2.47192 0
M  V30 2964 H 280.481 2.8114 -1.40069 0
M  V30 2965 H 279.674 3.41911 -3.70288 0
M  V30 2966 H 279.276 1.72896 -3.31637 0
M  V30 2967 H 281.568 4.17297 -5.33731 0
M  V30 2968 H 282.511 3.06452 -6.38352 0
M  V30 2969 H 282.919 3.20404 -4.64759 0
M  V30 2970 N 282.317 1.53212 0.369288 0
M  V30 2971 C 283.227 1.82342 1.47609 0
M  V30 2972 C 284.243 0.711532 1.58787 0
M  V30 2973 O 285.419 1.0012 1.74751 0
M  V30 2974 C 282.484 2.00393 2.8292 0
M  V30 2975 C 281.545 3.24297 2.81301 0
M  V30 2976 C 280.778 3.41478 4.10157 0
M  V30 2977 O 281.001 2.63033 5.06132 0
M  V30 2978 O 279.935 4.34817 4.16194 0
M  V30 2979 H 283.761 2.76366 1.25918 0
M  V30 2980 H 281.346 1.38547 0.559034 0
M  V30 2981 H 283.228 2.13859 3.63101 0
M  V30 2982 H 281.903 1.09559 3.04596 0
M  V30 2983 H 280.81 3.16257 1.99831 0
M  V30 2984 H 282.143 4.15041 2.64578 0
M  V30 2985 N 283.795 -0.628877 1.44509 0
M  V30 2986 C 285.023 -1.41554 1.50897 0
M  V30 2987 C 285.438 -1.8832 0.134564 0
M  V30 2988 O 284.795 -1.60969 -0.859965 0
M  V30 2989 C 284.846 -2.63435 2.47556 0
M  V30 2990 O 284.567 -2.18619 3.79654 0
M  V30 2991 C 286.068 -3.56537 2.63431 0
M  V30 2992 H 283.288 -0.434044 0.511709 0
M  V30 2993 H 285.832 -0.768895 1.89495 0
M  V30 2994 H 283.987 -3.24187 2.12089 0
M  V30 2995 H 284.401 -2.97652 4.31861 0
M  V30 2996 H 285.875 -4.38657 3.35088 0
M  V30 2997 H 286.352 -4.05493 1.68738 0
M  V30 2998 H 286.958 -3.01653 2.9981 0
M  V30 2999 N 285.273 -1.31445 -0.869486 0
M  V30 3000 C 286.689 -1.10113 -1.15531 0
M  V30 3001 C 286.889 0.128087 -2.01092 0
M  V30 3002 O 285.945 0.817276 -2.38908 0
M  V30 3003 C 287.258 -2.37291 -1.84698 0
M  V30 3004 C 288.806 -2.42906 -1.97397 0
M  V30 3005 C 289.281 -3.69967 -2.69979 0
M  V30 3006 N 290.772 -3.70864 -2.77514 0
M  V30 3007 C 291.507 -4.65875 -3.34287 0
M  V30 3008 N 291.003 -5.71242 -3.91988 0
M  V30 3009 N 292.796 -4.53394 -3.3225 0
M  V30 3010 H 284.947 -2.1028 -0.299347 0
M  V30 3011 H 287.21 -0.927683 -0.195214 0
M  V30 3012 H 286.916 -3.27078 -1.29278 0
M  V30 3013 H 286.79 -2.47125 -2.84972 0
M  V30 3014 H 289.177 -1.53588 -2.51982 0
M  V30 3015 H 289.258 -2.37036 -0.961643 0
M  V30 3016 H 288.902 -4.59652 -2.16062 0
M  V30 3017 H 288.832 -3.73103 -3.7162 0
M  V30 3018 H 291.323 -2.94697 -2.36563 0
M  V30 3019 H 291.636 -6.39817 -4.33421 0
M  V30 3020 H 289.981 -5.75015 -3.90362 0
M  V30 3021 H 293.172 -3.70252 -2.8641 0
M  V30 3022 H 293.345 -5.27617 -3.76197 0
M  V30 3023 N 286.751 1.08385 -1.14413 0
M  V30 3024 C 287.714 2.13486 -0.834048 0
M  V30 3025 C 288.714 1.59988 0.161418 0
M  V30 3026 O 289.904 1.74071 -0.0669575 0
M  V30 3027 C 287.036 3.4003 -0.243354 0
M  V30 3028 H 288.229 2.42425 -1.7655 0
M  V30 3029 H 285.782 1.24101 -0.950189 0
M  V30 3030 H 286.517 3.16726 0.696807 0
M  V30 3031 H 286.302 3.80157 -0.960367 0
M  V30 3032 H 287.792 4.17577 -0.0436242 0
M  V30 3033 N 288.23 0.939286 1.26551 0
M  V30 3034 C 289.18 0.418284 2.2413 0
M  V30 3035 C 290.164 -0.483935 1.5345 0
M  V30 3036 O 291.356 -0.319489 1.74093 0
M  V30 3037 C 288.485 -0.31709 3.41832 0
M  V30 3038 C 287.571 0.602311 4.19801 0
M  V30 3039 N 287.962 1.72726 4.75394 0
M  V30 3040 C 286.26 0.407534 4.44134 0
M  V30 3041 C 286.961 2.30004 5.34297 0
M  V30 3042 N 285.937 1.58828 5.1988 0
M  V30 3043 H 289.739 1.27705 2.64705 0
M  V30 3044 H 287.253 0.794929 1.41614 0
M  V30 3045 H 289.25 -0.707364 4.10855 0
M  V30 3046 H 287.91 -1.17264 3.02786 0
M  V30 3047 H 288.921 2.10944 4.72994 0
M  V30 3048 H 285.598 -0.406406 4.15517 0
M  V30 3049 H 286.988 3.24778 5.88191 0
M  V30 3050 N 289.708 -1.40897 0.706093 0
M  V30 3051 C 290.938 -2.05075 0.250523 0
M  V30 3052 C 291.346 -1.53275 -1.10921 0
M  V30 3053 O 290.689 -0.680281 -1.7064 0
M  V30 3054 C 290.751 -3.59219 0.142178 0
M  V30 3055 C 290.415 -4.33864 1.43566 0
M  V30 3056 C 291.412 -4.62448 2.37566 0
M  V30 3057 C 289.097 -4.72946 1.69195 0
M  V30 3058 C 291.091 -5.29088 3.5545 0
M  V30 3059 C 288.778 -5.3932 2.87362 0
M  V30 3060 C 289.776 -5.6732 3.80312 0
M  V30 3061 O 289.464 -6.32325 4.96408 0
M  V30 3062 H 289.196 -0.666645 0.112074 0
M  V30 3063 H 291.75 -1.81467 0.962239 0
M  V30 3064 H 289.98 -3.81609 -0.6254 0
M  V30 3065 H 291.669 -4.0495 -0.277584 0
M  V30 3066 H 292.435 -4.32727 2.19027 0
M  V30 3067 H 288.314 -4.50527 0.977042 0
M  V30 3068 H 291.858 -5.50859 4.28018 0
M  V30 3069 H 287.755 -5.68461 3.05814 0
M  V30 3070 H 288.523 -6.50821 4.9636 0
M  V30 3071 N 291.186 -0.45159 -1.50991 0
M  V30 3072 C 292.134 0.366864 -2.29689 0
M  V30 3073 C 293.128 1.00809 -1.36139 0
M  V30 3074 O 294.334 0.941427 -1.53418 0
M  V30 3075 H 290.709 0.137133 -0.739391 0
M  V30 3076 H 292.68 -0.317538 -2.96706 0
M  V30 3077 C 291.429 1.44751 -3.16137 0
M  V30 3078 H 290.752 0.963473 -3.88017 0
M  V30 3079 H 292.192 1.99315 -3.74232 0
M  V30 3080 C 290.651 2.43869 -2.32442 0
M  V30 3081 O 291.181 3.4872 -1.99392 0
M  V30 3082 N 289.387 2.15105 -1.95392 0
M  V30 3083 H 288.934 1.29866 -2.22469 0
M  V30 3084 H 288.892 2.81661 -1.39693 0
M  V30 3085 N 292.664 1.56529 -0.183458 0
M  V30 3086 C 293.889 2.02064 0.467428 0
M  V30 3087 C 294.314 1.06282 1.55196 0
M  V30 3088 O 293.672 0.0443565 1.81246 0
M  V30 3089 C 293.72 3.46122 1.01153 0
M  V30 3090 O 292.824 3.53437 2.12499 0
M  V30 3091 H 292.165 0.654726 0.110588 0
M  V30 3092 H 294.695 2.02521 -0.290917 0
M  V30 3093 H 294.705 3.85676 1.33108 0
M  V30 3094 H 293.38 4.15331 0.217533 0
M  V30 3095 H 291.957 3.2575 1.81497 0
M  V30 3096 N 294.142 -0.090211 1.57342 0
M  V30 3097 C 295.367 -0.810082 1.90925 0
M  V30 3098 C 295.792 -1.71248 0.778187 0
M  V30 3099 O 295.15 -1.79278 -0.269991 0
M  V30 3100 C 295.198 -1.59529 3.23393 0
M  V30 3101 O 294.302 -2.70461 3.11327 0
M  V30 3102 H 293.643 -0.222231 0.625707 0
M  V30 3103 H 296.173 -0.0639716 2.045 0
M  V30 3104 H 296.183 -1.97847 3.5682 0
M  V30 3105 H 294.858 -0.933055 4.05299 0
M  V30 3106 H 293.435 -2.35135 2.89423 0
M  V30 3107 N 295.62 -1.53406 -0.361157 0
M  V30 3108 C 296.568 -1.80832 -1.46296 0
M  V30 3109 C 297.562 -0.677699 -1.55253 0
M  V30 3110 O 298.768 -0.860723 -1.58087 0
M  V30 3111 H 295.143 -0.572627 -0.487445 0
M  V30 3112 H 297.114 -2.73045 -1.20371 0
M  V30 3113 C 295.863 -2.01907 -2.8307 0
M  V30 3114 H 295.186 -2.88349 -2.76938 0
M  V30 3115 H 296.626 -2.25072 -3.59331 0
M  V30 3116 C 295.085 -0.799449 -3.27277 0
M  V30 3117 O 295.615 0.00971761 -4.01699 0
M  V30 3118 N 293.821 -0.621637 -2.83873 0
M  V30 3119 H 293.368 -1.28126 -2.23476 0
M  V30 3120 H 293.326 0.19298 -3.13807 0
M  V30 3121 N 297.098 0.621204 -1.44841 0
M  V30 3122 C 298.045 1.73267 -1.5247 0
M  V30 3123 C 299.015 1.6189 -0.371611 0
M  V30 3124 O 300.2 1.81668 -0.58321 0
M  V30 3125 C 297.34 3.11545 -1.48438 0
M  V30 3126 C 296.453 3.33827 -2.74196 0
M  V30 3127 C 295.588 4.62133 -2.61929 0
M  V30 3128 C 294.627 4.77627 -3.82804 0
M  V30 3129 N 293.764 5.97219 -3.69153 0
M  V30 3130 H 298.604 1.66082 -2.47428 0
M  V30 3131 H 296.141 0.810026 -1.22788 0
M  V30 3132 H 298.099 3.91528 -1.4409 0
M  V30 3133 H 296.729 3.1772 -0.570402 0
M  V30 3134 H 295.781 2.47715 -2.88689 0
M  V30 3135 H 297.093 3.41153 -3.6389 0
M  V30 3136 H 296.247 5.50291 -2.5547 0
M  V30 3137 H 294.986 4.57182 -1.69811 0
M  V30 3138 H 293.991 3.87896 -3.89637 0
M  V30 3139 H 295.216 4.84385 -4.75971 0
M  V30 3140 H 293.162 5.93339 -2.79794 0
M  V30 3141 H 293.079 6.05644 -4.52472 0
M  V30 3142 H 294.347 6.87912 -3.66603 0
M  V30 3143 N 298.576 1.31904 0.862503 0
M  V30 3144 C 299.801 1.25135 1.65397 0
M  V30 3145 C 300.226 -0.179 1.87246 0
M  V30 3146 O 299.584 -1.1277 1.4196 0
M  V30 3147 C 299.632 2.00832 2.99498 0
M  V30 3148 O 298.736 1.35075 3.89652 0
M  V30 3149 H 298.077 0.431655 0.504549 0
M  V30 3150 H 300.607 1.74094 1.07483 0
M  V30 3151 H 300.617 2.10709 3.49379 0
M  V30 3152 H 299.292 3.04847 2.82916 0
M  V30 3153 H 297.869 1.33696 3.48109 0
M  V30 3154 N 300.054 -1.07777 1.14986 0
M  V30 3155 C 301.284 -1.83752 0.944402 0
M  V30 3156 C 301.692 -1.8218 -0.51058 0
M  V30 3157 O 301.035 -1.22852 -1.36576 0
M  V30 3158 C 301.097 -3.32128 1.37592 0
M  V30 3159 C 300.761 -3.57425 2.84775 0
M  V30 3160 C 301.758 -3.5173 3.8286 0
M  V30 3161 C 299.443 -3.8523 3.2234 0
M  V30 3162 C 301.437 -3.73482 5.16517 0
M  V30 3163 C 299.124 -4.06634 4.56171 0
M  V30 3164 C 300.122 -4.00754 5.53069 0
M  V30 3165 O 299.81 -4.2159 6.84483 0
M  V30 3166 H 299.542 -0.58673 0.335744 0
M  V30 3167 H 302.096 -1.36982 1.53052 0
M  V30 3168 H 300.326 -3.79686 0.733165 0
M  V30 3169 H 302.015 -3.89555 1.14024 0
M  V30 3170 H 302.781 -3.30256 3.55184 0
M  V30 3171 H 298.66 -3.88923 2.47508 0
M  V30 3172 H 302.204 -3.68808 5.92137 0
M  V30 3173 H 298.101 -4.27593 4.83564 0
M  V30 3174 H 298.869 -4.38961 6.90837 0
M  V30 3175 N 301.532 -0.945985 -1.26051 0
M  V30 3176 C 302.76 -0.613025 -1.9761 0
M  V30 3177 C 303.175 0.813035 -1.70397 0
M  V30 3178 O 302.532 1.54274 -0.974979 0
M  V30 3179 C 302.583 -0.85159 -3.51326 0
M  V30 3180 O 302.304 -2.22157 -3.77595 0
M  V30 3181 C 303.805 -0.529831 -4.40122 0
M  V30 3182 H 301.025 -0.230593 -0.630133 0
M  V30 3183 H 303.569 -1.268 -1.60443 0
M  V30 3184 H 301.724 -0.243151 -3.86636 0
M  V30 3185 H 302.138 -2.2852 -4.721 0
M  V30 3186 H 303.612 -0.747348 -5.46917 0
M  V30 3187 H 304.089 0.535341 -4.35925 0
M  V30 3188 H 304.695 -1.11721 -4.10364 0
M  V30 3189 N 303.011 1.40521 -0.713556 0
M  V30 3190 C 303.941 2.33381 -0.0743864 0
M  V30 3191 C 304.922 1.52784 0.747735 0
M  V30 3192 O 306.107 1.81258 0.697071 0
M  V30 3193 C 303.237 3.36748 0.849598 0
M  V30 3194 C 302.191 4.27793 0.133247 0
M  V30 3195 C 301.517 5.21679 1.17281 0
M  V30 3196 C 302.817 5.12415 -1.01134 0
M  V30 3197 H 304.511 2.87081 -0.850007 0
M  V30 3198 H 302.057 1.38034 -0.410201 0
M  V30 3199 H 304.01 4.00648 1.30612 0
M  V30 3200 H 302.734 2.81439 1.65709 0
M  V30 3201 H 301.393 3.65342 -0.303426 0
M  V30 3202 H 301.041 4.62677 1.9733 0
M  V30 3203 H 300.741 5.83435 0.698397 0
M  V30 3204 H 302.265 5.88456 1.62947 0
M  V30 3205 H 303.679 5.69781 -0.634274 0
M  V30 3206 H 302.076 5.83203 -1.41399 0
M  V30 3207 H 303.146 4.48514 -1.84292 0
M  V30 3208 N 304.489 0.459591 1.5075 0
M  V30 3209 C 305.437 -0.354678 2.2988 0
M  V30 3210 C 306.431 -1.00086 1.36672 0
M  V30 3211 O 307.637 -0.933277 1.53915 0
M  V30 3212 H 304.012 -0.13321 0.740107 0
M  V30 3213 H 305.983 0.333269 2.96533 0
M  V30 3214 C 304.732 -1.43073 3.169 0
M  V30 3215 H 304.055 -0.942882 3.88523 0
M  V30 3216 H 305.495 -1.97328 3.75284 0
M  V30 3217 C 303.954 -2.42633 2.33732 0
M  V30 3218 O 304.484 -3.47658 2.01238 0
M  V30 3219 N 302.69 -2.14066 1.9653 0
M  V30 3220 H 302.237 -1.28685 2.23155 0
M  V30 3221 H 302.195 -2.80917 1.41185 0
M  V30 3222 N 305.967 -1.56429 0.191757 0
M  V30 3223 C 307.215 -1.97095 -0.447006 0
M  V30 3224 C 307.536 -1.07967 -1.62383 0
M  V30 3225 O 306.806 -0.150248 -1.95323 0
M  V30 3226 H 305.386 -0.727832 -0.168135 0
M  V30 3227 H 308.048 -1.92911 0.27771 0
M  V30 3228 H 307.144 -3.01848 -0.793371 0
M  V30 3229 N 307.445 0.0818655 -1.57387 0
M  V30 3230 C 308.673 0.796108 -1.9097 0
M  V30 3231 C 309.088 1.71626 -0.786757 0
M  V30 3232 O 308.445 1.80908 0.240513 0
M  V30 3233 C 308.496 1.59829 -3.24248 0
M  V30 3234 O 308.217 0.715131 -4.32224 0
M  V30 3235 C 309.718 2.41442 -3.7178 0
M  V30 3236 H 306.938 0.22691 -0.631469 0
M  V30 3237 H 309.482 0.0551439 -2.04426 0
M  V30 3238 H 307.637 2.29163 -3.12351 0
M  V30 3239 H 308.051 1.27205 -5.08841 0
M  V30 3240 H 309.525 2.932 -4.67694 0
M  V30 3241 H 310.002 3.2051 -3.00283 0
M  V30 3242 H 310.608 1.77283 -3.86589 0
M  V30 3243 N 308.923 1.53595 0.353017 0
M  V30 3244 C 309.87 1.80919 1.43308 0
M  V30 3245 C 310.84 0.654288 1.5267 0
M  V30 3246 O 312.025 0.897759 1.6836 0
M  V30 3247 C 309.165 2.01605 2.80089 0
M  V30 3248 C 308.278 3.29321 2.79593 0
M  V30 3249 C 307.413 3.40125 4.0803 0
M  V30 3250 C 306.452 4.61826 4.01725 0
M  V30 3251 N 305.589 4.69716 5.21834 0
M  V30 3252 H 310.429 2.73074 1.19308 0
M  V30 3253 H 307.966 1.35263 0.578131 0
M  V30 3254 H 309.924 2.11586 3.59565 0
M  V30 3255 H 308.554 1.12772 3.0246 0
M  V30 3256 H 307.606 3.28229 1.92276 0
M  V30 3257 H 308.918 4.18884 2.70809 0
M  V30 3258 H 308.072 3.49488 4.95927 0
M  V30 3259 H 306.811 2.48601 4.19582 0
M  V30 3260 H 305.816 4.52552 3.12213 0
M  V30 3261 H 307.041 5.54705 3.91764 0
M  V30 3262 H 304.987 3.81097 5.33948 0
M  V30 3263 H 304.904 5.53202 5.1527 0
M  V30 3264 H 306.172 4.83376 6.11529 0
M  V30 3265 N 310.401 -0.613514 1.45168 0
M  V30 3266 C 311.629 -1.39946 1.5239 0
M  V30 3267 C 312.044 -1.88167 0.154531 0
M  V30 3268 O 311.401 -1.61872 -0.842843 0
M  V30 3269 C 311.452 -2.60795 2.50337 0
M  V30 3270 O 311.173 -2.1458 3.81952 0
M  V30 3271 C 312.674 -3.53723 2.67198 0
M  V30 3272 H 309.894 -0.428593 0.516284 0
M  V30 3273 H 312.438 -0.748753 1.903 0
M  V30 3274 H 310.593 -3.21919 2.15515 0
M  V30 3275 H 311.007 -2.93055 4.34993 0
M  V30 3276 H 312.481 -4.35079 3.39721 0
M  V30 3277 H 312.958 -4.0368 1.73029 0
M  V30 3278 H 313.564 -2.98456 3.02992 0
M  V30 3279 N 311.879 -1.3236 -0.855495 0
M  V30 3280 C 313.125 -1.24064 -1.61182 0
M  V30 3281 C 313.48 0.195914 -1.914 0
M  V30 3282 O 312.773 1.13345 -1.54478 0
M  V30 3283 C 312.967 -2.03275 -2.93963 0
M  V30 3284 C 312.796 -3.54486 -2.76712 0
M  V30 3285 C 311.566 -4.23824 -2.75139 0
M  V30 3286 C 313.764 -4.49154 -2.50531 0
M  V30 3287 N 311.746 -5.61095 -2.4909 0
M  V30 3288 C 313.117 -5.74195 -2.3388 0
M  V30 3289 C 315.172 -4.3842 -2.35992 0
M  V30 3290 C 313.875 -6.89716 -2.04168 0
M  V30 3291 C 315.901 -5.53739 -2.0767 0
M  V30 3292 C 315.263 -6.77779 -1.9182 0
M  V30 3293 H 311.362 -0.509139 -0.59355 0
M  V30 3294 H 313.946 -1.66715 -1.00569 0
M  V30 3295 H 312.117 -1.6297 -3.52555 0
M  V30 3296 H 313.849 -1.86881 -3.58967 0
M  V30 3297 H 310.604 -3.75934 -2.88047 0
M  V30 3298 H 311.028 -6.33411 -2.38996 0
M  V30 3299 H 315.67 -3.43172 -2.46967 0
M  V30 3300 H 313.388 -7.84977 -1.9193 0
M  V30 3301 H 316.974 -5.4736 -1.97201 0
M  V30 3302 H 315.854 -7.65504 -1.70217 0
M  V30 3303 N 313.357 1.07166 -1.15556 0
M  V30 3304 C 314.606 1.79181 -0.926132 0
M  V30 3305 C 314.919 1.87768 0.547967 0
M  V30 3306 O 316.125 2.56323 0.895036 0
M  V30 3307 C 314.581 3.22 -1.60761 0
M  V30 3308 C 314.189 3.21607 -3.11886 0
M  V30 3309 C 315.933 3.9861 -1.4598 0
M  V30 3310 C 313.84 4.59092 -3.72812 0
M  V30 3311 H 312.77 0.67154 -0.342856 0
M  V30 3312 H 315.421 1.2027 -1.3859 0
M  V30 3313 H 313.803 3.81115 -1.07553 0
M  V30 3314 H 314.977 2.72127 -3.71865 0
M  V30 3315 H 313.292 2.58495 -3.2645 0
M  V30 3316 H 315.889 5.00225 -1.88888 0
M  V30 3317 H 316.232 4.143 -0.407541 0
M  V30 3318 H 316.765 3.45996 -1.96295 0
M  V30 3319 H 313.504 4.48606 -4.77946 0
M  V30 3320 H 313.024 5.08803 -3.17616 0
M  V30 3321 H 314.703 5.28059 -3.73848 0
M  V30 3322 N 314.835 0.952656 1.25548 0
M  V30 3323 C 316.063 0.623496 1.97282 0
M  V30 3324 C 316.478 -0.803987 1.70826 0
M  V30 3325 O 315.835 -1.53755 0.983147 0
M  V30 3326 C 315.886 0.870209 3.5087 0
M  V30 3327 O 315.607 2.24156 3.76412 0
M  V30 3328 C 317.108 0.553164 4.39835 0
M  V30 3329 H 314.328 0.233931 0.628902 0
M  V30 3330 H 316.872 1.27649 1.59768 0
M  V30 3331 H 315.027 0.263652 3.86502 0
M  V30 3332 H 315.441 2.31021 4.70882 0
M  V30 3333 H 316.915 0.776342 5.46513 0
M  V30 3334 H 317.392 -0.512215 4.36203 0
M  V30 3335 H 317.998 1.13896 4.09766 0
M  V30 3336 N 316.313 -1.40141 0.720998 0
M  V30 3337 C 317.261 -2.3252 0.0608547 0
M  V30 3338 C 318.255 -1.52326 -0.741152 0
M  V30 3339 O 319.461 -1.68089 -0.643911 0
M  V30 3340 H 315.836 -0.751999 0.000876664 0
M  V30 3341 H 317.807 -2.8584 0.856614 0
M  V30 3342 C 316.556 -3.37331 -0.842809 0
M  V30 3343 H 315.879 -3.99108 -0.235084 0
M  V30 3344 H 317.319 -4.04452 -1.27257 0
M  V30 3345 C 315.778 -2.73246 -1.97074 0
M  V30 3346 O 316.308 -2.59998 -3.06209 0
M  V30 3347 N 314.514 -2.31547 -1.75597 0
M  V30 3348 H 314.061 -2.42522 -0.868368 0
M  V30 3349 H 314.019 -1.89007 -2.51244 0
M  V30 3350 N 317.792 -0.46758 -1.50504 0
M  V30 3351 C 319.017 0.0886943 -2.0721 0
M  V30 3352 C 319.442 1.33057 -1.32956 0
M  V30 3353 O 318.8 1.77354 -0.376197 0
M  V30 3354 C 318.848 0.359202 -3.58806 0
M  V30 3355 O 317.952 1.44034 -3.8643 0
M  V30 3356 H 317.293 -0.0114349 -0.663902 0
M  V30 3357 H 319.823 -0.657613 -1.93744 0
M  V30 3358 H 319.833 0.600742 -4.03553 0
M  V30 3359 H 318.508 -0.548311 -4.1227 0
M  V30 3360 H 317.085 1.18638 -3.53524 0
M  V30 3361 N 319.27 1.56325 -0.20005 0
M  V30 3362 C 320.681 1.8408 0.31167 0
M  V30 3363 C 321.032 1.12087 1.61031 0
M  V30 3364 O 320.157 0.38332 2.12978 0
M  V30 3365 C 320.752 3.33932 0.57226 0
M  V30 3366 C 319.311 3.6208 1.02834 0
M  V30 3367 C 318.458 2.77186 0.079634 0
M  V30 3368 H 321.409 1.52939 -0.423729 0
M  V30 3369 H 321.43 3.52971 1.42096 0
M  V30 3370 H 320.942 3.86303 -0.37308 0
M  V30 3371 H 319.043 3.15147 1.98778 0
M  V30 3372 H 319.156 4.7023 0.917624 0
M  V30 3373 H 317.52 2.47951 0.582448 0
M  V30 3374 H 318.303 3.32347 -0.860238 0
M  V30 3375 N 320.748 -0.0735177 1.57428 0
M  V30 3376 C 321.681 -1.11932 1.98863 0
M  V30 3377 C 322.659 -1.37666 0.865266 0
M  V30 3378 O 323.843 -1.51068 1.12742 0
M  V30 3379 C 320.97 -2.46403 2.32386 0
M  V30 3380 C 320.016 -2.36815 3.54713 0
M  V30 3381 S 320.849 -1.76392 5.05614 0
M  V30 3382 C 322.005 -3.12444 5.42337 0
M  V30 3383 H 322.238 -0.766212 2.87257 0
M  V30 3384 H 319.771 -0.281987 1.51803 0
M  V30 3385 H 321.729 -3.23755 2.52375 0
M  V30 3386 H 320.39 -2.78876 1.44524 0
M  V30 3387 H 319.583 -3.35977 3.7568 0
M  V30 3388 H 319.185 -1.67598 3.34345 0
M  V30 3389 H 321.477 -4.08753 5.40303 0
M  V30 3390 H 322.42 -2.96258 6.43146 0
M  V30 3391 H 322.828 -3.1297 4.69798 0
M  V30 3392 N 322.226 -1.5378 -0.344866 0
M  V30 3393 C 323.189 -1.80981 -1.40637 0
M  V30 3394 C 324.189 -0.680816 -1.45676 0
M  V30 3395 O 325.379 -0.949095 -1.46075 0
M  V30 3396 C 322.511 -1.95063 -2.79577 0
M  V30 3397 H 323.704 -2.75803 -1.17783 0
M  V30 3398 H 321.257 -1.45173 -0.579181 0
M  V30 3399 H 321.992 -1.02379 -3.07716 0
M  V30 3400 H 321.777 -2.77198 -2.77315 0
M  V30 3401 H 323.267 -2.17629 -3.56409 0
M  V30 3402 N 323.704 0.605807 -1.45491 0
M  V30 3403 C 324.981 1.36522 -1.40075 0
M  V30 3404 C 325.361 2.10976 -0.0722744 0
M  V30 3405 O 324.709 2.08007 0.945808 0
M  V30 3406 C 324.919 2.31056 -2.61561 0
M  V30 3407 C 326.267 2.93608 -3.06724 0
M  V30 3408 O 327.291 2.41376 -2.61946 0
M  V30 3409 O 326.15 3.88421 -3.84437 0
M  V30 3410 H 323.244 0.612248 -0.555951 0
M  V30 3411 H 325.79 0.628747 -1.57623 0
M  V30 3412 H 324.562 1.75311 -3.49831 0
M  V30 3413 H 324.185 3.12081 -2.46356 0
M  V30 3414 N 325.182 1.32811 0.848464 0
M  V30 3415 C 326.112 1.24882 1.97299 0
M  V30 3416 C 327.093 0.131357 1.69592 0
M  V30 3417 O 328.278 0.319553 1.91553 0
M  V30 3418 C 325.408 0.97746 3.33261 0
M  V30 3419 C 324.362 2.05682 3.75338 0
M  V30 3420 C 323.688 1.63777 5.09 0
M  V30 3421 C 324.988 3.47254 3.90144 0
M  V30 3422 H 326.682 2.18966 2.04191 0
M  V30 3423 H 324.228 1.05413 0.981029 0
M  V30 3424 H 326.181 0.908513 4.1149 0
M  V30 3425 H 324.905 0.000980011 3.266 0
M  V30 3426 H 323.564 2.11603 2.99366 0
M  V30 3427 H 323.212 0.648569 4.98801 0
M  V30 3428 H 322.912 2.36 5.38124 0
M  V30 3429 H 324.436 1.5833 5.89715 0
M  V30 3430 H 325.85 3.43888 4.58709 0
M  V30 3431 H 324.247 4.1788 4.30693 0
M  V30 3432 H 325.317 3.86462 2.92874 0
M  V30 3433 N 326.66 -1.06551 1.16123 0
M  V30 3434 C 327.907 -1.79302 0.941126 0
M  V30 3435 C 328.235 -1.87105 -0.531235 0
M  V30 3436 O 327.49 -1.35692 -1.41018 0
M  V30 3437 C 327.789 -3.23911 1.51052 0
M  V30 3438 C 327.455 -3.36193 3.00475 0
M  V30 3439 C 326.117 -3.39252 3.41265 0
M  V30 3440 C 328.469 -3.38326 3.96465 0
M  V30 3441 C 325.797 -3.42057 4.76669 0
M  V30 3442 C 328.149 -3.4267 5.31752 0
M  V30 3443 C 326.813 -3.4401 5.72026 0
M  V30 3444 H 326.083 -0.656111 0.344382 0
M  V30 3445 H 328.73 -1.25325 1.44796 0
M  V30 3446 H 327.035 -3.80723 0.925063 0
M  V30 3447 H 328.732 -3.78793 1.31593 0
M  V30 3448 H 325.322 -3.34516 2.6795 0
M  V30 3449 H 329.506 -3.35176 3.6602 0
M  V30 3450 H 324.762 -3.41398 5.07206 0
M  V30 3451 H 328.936 -3.43268 6.05921 0
M  V30 3452 H 326.563 -3.45937 6.76928 0
M  V30 3453 N 328.138 -0.959301 -1.25041 0
M  V30 3454 C 329.384 -0.617525 -1.9317 0
M  V30 3455 C 329.717 0.843981 -1.74902 0
M  V30 3456 O 328.992 1.60615 -1.09696 0
M  V30 3457 C 329.275 -0.982736 -3.46431 0
M  V30 3458 C 329.128 -2.50032 -3.73904 0
M  V30 3459 C 330.447 -0.511176 -4.37121 0
M  V30 3460 H 327.566 -0.22582 -0.701552 0
M  V30 3461 H 330.208 -1.19679 -1.4757 0
M  V30 3462 H 328.358 -0.489806 -3.854 0
M  V30 3463 H 330.03 -3.06737 -3.44544 0
M  V30 3464 H 328.273 -2.93598 -3.19348 0
M  V30 3465 H 328.944 -2.70635 -4.81103 0
M  V30 3466 H 331.42 -0.934075 -4.0548 0
M  V30 3467 H 330.296 -0.795361 -5.43107 0
M  V30 3468 H 330.557 0.588834 -4.38161 0
M  V30 3469 N 329.616 1.39756 -0.72842 0
M  V30 3470 C 330.862 2.00942 -0.273892 0
M  V30 3471 C 331.195 1.57656 1.13394 0
M  V30 3472 O 330.47 0.802434 1.77176 0
M  V30 3473 C 330.753 3.58211 -0.368346 0
M  V30 3474 C 330.606 4.11534 -1.81548 0
M  V30 3475 C 331.925 4.39372 0.253054 0
M  V30 3476 H 329.044 0.730047 -0.100996 0
M  V30 3477 H 331.686 1.66056 -0.923337 0
M  V30 3478 H 329.836 3.88061 0.184588 0
M  V30 3479 H 331.508 3.92431 -2.42478 0
M  V30 3480 H 329.751 3.65341 -2.33898 0
M  V30 3481 H 330.422 5.20682 -1.83288 0
M  V30 3482 H 332.898 4.15527 -0.218224 0
M  V30 3483 H 331.774 5.48677 0.156585 0
M  V30 3484 H 332.035 4.21358 1.33826 0
M  V30 3485 N 331.094 0.475555 1.50254 0
M  V30 3486 C 332.34 -0.0701075 2.03279 0
M  V30 3487 C 332.695 -1.37007 1.35081 0
M  V30 3488 O 331.988 -1.8577 0.469052 0
M  V30 3489 C 332.182 -0.305114 3.56095 0
M  V30 3490 C 332.011 0.970515 4.39103 0
M  V30 3491 C 330.781 1.51509 4.82051 0
M  V30 3492 C 332.979 1.8671 4.79212 0
M  V30 3493 N 330.961 2.73928 5.49397 0
M  V30 3494 C 332.332 2.93715 5.46014 0
M  V30 3495 C 334.387 1.87695 4.61167 0
M  V30 3496 C 333.09 4.01699 5.96683 0
M  V30 3497 C 335.116 2.94637 5.12779 0
M  V30 3498 C 334.478 4.00361 5.79561 0
M  V30 3499 H 330.577 0.014486 0.781866 0
M  V30 3500 H 333.161 0.644755 1.83714 0
M  V30 3501 H 331.332 -0.989019 3.75597 0
M  V30 3502 H 333.064 -0.845516 3.95769 0
M  V30 3503 H 329.819 1.06367 4.61501 0
M  V30 3504 H 330.243 3.36109 5.87673 0
M  V30 3505 H 334.885 1.07273 4.08965 0
M  V30 3506 H 332.603 4.82934 6.4792 0
M  V30 3507 H 336.189 2.96388 5.00645 0
M  V30 3508 H 335.069 4.81751 6.18778 0
M  V30 3509 N 332.573 -1.56217 0.208337 0
M  V30 3510 C 333.536 -2.18455 -0.693557 0
M  V30 3511 C 334.536 -1.14268 -1.13135 0
M  V30 3512 O 335.726 -1.39577 -1.0423 0
M  V30 3513 C 332.858 -2.79727 -1.94848 0
M  V30 3514 H 334.051 -2.99519 -0.15114 0
M  V30 3515 H 331.604 -1.56245 -0.041287 0
M  V30 3516 H 332.339 -2.02497 -2.53309 0
M  V30 3517 H 332.124 -3.56009 -1.64316 0
M  V30 3518 H 333.614 -3.27475 -2.59133 0
M  V30 3519 N 334.051 0.0651679 -1.57465 0
M  V30 3520 C 335.467 0.420105 -1.53972 0
M  V30 3521 C 335.667 1.78782 -0.929474 0
M  V30 3522 O 334.723 2.46771 -0.534839 0
M  V30 3523 C 336.036 0.355084 -2.98596 0
M  V30 3524 C 337.584 0.434792 -3.09965 0
M  V30 3525 C 338.059 0.399609 -4.56253 0
M  V30 3526 N 339.55 0.459488 -4.60915 0
M  V30 3527 C 340.285 0.454584 -5.71595 0
M  V30 3528 N 339.781 0.404102 -6.9162 0
M  V30 3529 N 341.574 0.501635 -5.59857 0
M  V30 3530 H 333.725 -0.830328 -1.95498 0
M  V30 3531 H 335.988 -0.312244 -0.895102 0
M  V30 3532 H 335.694 -0.583357 -3.46828 0
M  V30 3533 H 335.568 1.16275 -3.58831 0
M  V30 3534 H 337.955 1.36366 -2.61703 0
M  V30 3535 H 338.036 -0.40157 -2.52628 0
M  V30 3536 H 337.68 -0.525436 -5.05175 0
M  V30 3537 H 337.61 1.25359 -5.11461 0
M  V30 3538 H 340.101 0.502482 -3.74544 0
M  V30 3539 H 340.414 0.404468 -7.71741 0
M  V30 3540 H 338.759 0.37069 -6.94011 0
M  V30 3541 H 341.95 0.538812 -4.64989 0
M  V30 3542 H 342.123 0.494345 -6.46112 0
M  V30 3543 N 335.529 1.53961 0.336706 0
M  V30 3544 C 336.769 1.73254 1.08454 0
M  V30 3545 C 337.133 0.488937 1.8567 0
M  V30 3546 O 338.334 0.559001 2.62923 0
M  V30 3547 C 336.605 2.96519 1.99528 0
M  V30 3548 S 338.164 3.36655 2.81441 0
M  V30 3549 H 334.982 0.609353 0.366347 0
M  V30 3550 H 337.584 1.92117 0.362124 0
M  V30 3551 H 336.288 3.85193 1.41614 0
M  V30 3552 H 335.819 2.80142 2.76196 0
M  V30 3553 H 337.834 2.90925 4.01967 0
M  V30 3554 N 337.007 -0.598083 1.45811 0
M  V30 3555 C 337.917 -1.73632 1.57763 0
M  V30 3556 C 338.933 -1.67763 0.461676 0
M  V30 3557 O 340.109 -1.87949 0.723685 0
M  V30 3558 C 337.174 -3.10114 1.55018 0
M  V30 3559 C 336.235 -3.27364 2.77726 0
M  V30 3560 C 335.468 -4.57334 2.75102 0
M  V30 3561 O 335.691 -5.40258 1.8297 0
M  V30 3562 O 334.625 -4.77502 3.66437 0
M  V30 3563 H 338.451 -1.66498 2.53992 0
M  V30 3564 H 336.036 -0.763308 1.28429 0
M  V30 3565 H 337.918 -3.9141 1.56129 0
M  V30 3566 H 336.593 -3.17718 0.619431 0
M  V30 3567 H 335.5 -2.45619 2.82174 0
M  V30 3568 H 336.833 -3.24641 3.69958 0
M  V30 3569 N 338.485 -1.33259 -0.841409 0
M  V30 3570 C 339.762 -1.15174 -1.58096 0
M  V30 3571 C 340.142 0.282858 -2.09196 0
M  V30 3572 O 339.49 1.28151 -1.89181 0
M  V30 3573 C 339.7 -2.1907 -2.71679 0
M  V30 3574 C 341.048 -2.53093 -3.40924 0
M  V30 3575 O 342.072 -2.17717 -2.81918 0
M  V30 3576 O 340.931 -3.1379 -4.47435 0
M  V30 3577 H 338.025 -0.445303 -0.696875 0
M  V30 3578 H 340.571 -1.44833 -0.884385 0
M  V30 3579 H 339.343 -3.15443 -2.31541 0
M  V30 3580 H 338.966 -1.90481 -3.49002 0
M  V30 3581 N 339.963 1.05934 -1.16686 0
M  V30 3582 C 341.211 1.78447 -0.948744 0
M  V30 3583 C 341.532 1.87813 0.524523 0
M  V30 3584 O 340.802 1.38945 1.38098 0
M  V30 3585 H 339.382 0.660971 -0.348033 0
M  V30 3586 H 342.044 1.27947 -1.47022 0
M  V30 3587 H 341.14 2.80394 -1.37061 0
M  V30 3588 N 341.441 0.965919 1.2453 0
M  V30 3589 C 342.681 0.634656 1.94297 0
M  V30 3590 C 343.045 -0.814822 1.73852 0
M  V30 3591 O 344.246 -1.25622 2.3764 0
M  V30 3592 C 342.517 0.99702 3.43212 0
M  V30 3593 S 344.076 0.780038 4.31811 0
M  V30 3594 H 340.894 0.232893 0.671775 0
M  V30 3595 H 343.496 1.24249 1.50938 0
M  V30 3596 H 342.2 2.04886 3.55598 0
M  V30 3597 H 341.731 0.379888 3.91562 0
M  V30 3598 H 343.746 -0.343512 4.9501 0
M  V30 3599 N 342.919 -1.39368 0.735821 0
M  V30 3600 C 344.168 -1.99733 0.281004 0
M  V30 3601 C 344.481 -1.59055 -1.13846 0
M  V30 3602 O 345.687 -2.12262 -1.69284 0
M  V30 3603 C 344.143 -3.57057 0.451462 0
M  V30 3604 C 343.751 -4.06697 1.87886 0
M  V30 3605 C 345.495 -4.2446 0.0584616 0
M  V30 3606 C 343.402 -5.56598 1.99883 0
M  V30 3607 H 342.332 -0.747163 0.101311 0
M  V30 3608 H 344.983 -1.59357 0.909819 0
M  V30 3609 H 343.365 -3.95234 -0.246263 0
M  V30 3610 H 344.539 -3.79853 2.60861 0
M  V30 3611 H 342.854 -3.5196 2.22515 0
M  V30 3612 H 345.451 -5.34549 0.127099 0
M  V30 3613 H 345.794 -4.04444 -0.986433 0
M  V30 3614 H 346.327 -3.9146 0.707374 0
M  V30 3615 H 343.066 -5.81494 3.02564 0
M  V30 3616 H 342.586 -5.85242 1.31346 0
M  V30 3617 H 344.265 -6.22022 1.78039 0
M  V30 3618 N 344.397 -0.483516 -1.5 0
M  V30 3619 C 345.813 -0.138404 -1.58999 0
M  V30 3620 C 346.013 1.35597 -1.4905 0
M  V30 3621 O 345.069 2.13039 -1.35539 0
M  V30 3622 C 346.382 -0.699658 -2.92447 0
M  V30 3623 C 347.93 -0.664195 -3.05872 0
M  V30 3624 C 348.405 -1.20321 -4.41913 0
M  V30 3625 N 349.896 -1.16315 -4.48358 0
M  V30 3626 C 350.631 -1.55058 -5.52037 0
M  V30 3627 N 350.127 -2.01311 -6.62907 0
M  V30 3628 N 351.92 -1.46584 -5.42651 0
M  V30 3629 H 344.071 -1.45529 -1.5471 0
M  V30 3630 H 346.334 -0.60258 -0.731848 0
M  V30 3631 H 346.04 -1.747 -3.05242 0
M  V30 3632 H 345.914 -0.150194 -3.76901 0
M  V30 3633 H 348.301 0.374272 -2.92717 0
M  V30 3634 H 348.382 -1.25061 -2.23144 0
M  V30 3635 H 348.026 -2.24037 -4.55818 0
M  V30 3636 H 347.956 -0.592896 -5.23252 0
M  V30 3637 H 350.447 -0.824058 -3.68806 0
M  V30 3638 H 350.76 -2.2899 -7.38095 0
M  V30 3639 H 349.105 -2.05273 -6.63994 0
M  V30 3640 H 352.296 -1.10281 -4.54924 0
M  V30 3641 H 352.469 -1.77103 -6.23329 0
M  V30 3642 N 345.875 1.56104 -0.216619 0
M  V30 3643 C 347.123 1.97781 0.415593 0
M  V30 3644 C 347.444 1.10536 1.60645 0
M  V30 3645 O 346.714 0.181303 1.95059 0
M  V30 3646 H 345.294 0.730415 0.156534 0
M  V30 3647 H 347.956 1.92445 -0.308366 0
M  V30 3648 H 347.052 3.03072 0.74525 0
M  V30 3649 N 347.353 -0.0568162 1.57498 0
M  V30 3650 C 348.6 -0.753104 1.87975 0
M  V30 3651 C 348.928 -1.76815 0.81035 0
M  V30 3652 O 348.183 -1.94756 -0.19199 0
M  V30 3653 C 348.482 -1.48359 3.25153 0
M  V30 3654 C 348.148 -0.60713 4.46794 0
M  V30 3655 C 346.81 -0.365642 4.79809 0
M  V30 3656 C 349.162 -0.000305978 5.212 0
M  V30 3657 C 346.49 0.491905 5.84634 0
M  V30 3658 C 348.842 0.844781 6.26934 0
M  V30 3659 C 347.506 1.096 6.58441 0
M  V30 3660 H 346.776 -0.27558 0.687849 0
M  V30 3661 H 349.423 -0.0135173 1.91495 0
M  V30 3662 H 347.728 -2.29577 3.17492 0
M  V30 3663 H 349.425 -2.02739 3.45974 0
M  V30 3664 H 346.015 -0.805487 4.20963 0
M  V30 3665 H 350.199 -0.173961 4.95995 0
M  V30 3666 H 345.455 0.695131 6.07436 0
M  V30 3667 H 349.629 1.32165 6.83744 0
M  V30 3668 H 347.256 1.76224 7.39492 0
M  V30 3669 N 348.832 -1.54138 -0.328536 0
M  V30 3670 C 349.762 -1.86167 -1.40939 0
M  V30 3671 C 350.743 -0.718044 -1.54202 0
M  V30 3672 O 351.928 -0.971328 -1.68163 0
M  V30 3673 C 349.058 -2.08461 -2.77779 0
M  V30 3674 C 348.012 -3.24299 -2.7931 0
M  V30 3675 C 347.338 -3.31955 -4.19178 0
M  V30 3676 C 348.638 -4.62065 -2.43502 0
M  V30 3677 H 350.332 -2.76689 -1.14383 0
M  V30 3678 H 347.878 -1.33132 -0.548806 0
M  V30 3679 H 349.831 -2.29453 -3.53454 0
M  V30 3680 H 348.555 -1.14684 -3.05802 0
M  V30 3681 H 347.214 -3.03187 -2.0609 0
M  V30 3682 H 346.862 -2.35745 -4.44335 0
M  V30 3683 H 346.562 -4.09805 -4.2111 0
M  V30 3684 H 348.086 -3.55175 -4.96672 0
M  V30 3685 H 349.5 -4.8297 -3.08889 0
M  V30 3686 H 347.897 -5.42429 -2.56693 0
M  V30 3687 H 348.967 -4.64652 -1.38659 0
M  V30 3688 N 350.31 0.590341 -1.46126 0
M  V30 3689 C 351.24 1.71032 -1.58966 0
M  V30 3690 C 352.221 1.64302 -0.440335 0
M  V30 3691 O 353.406 1.82436 -0.665634 0
M  V30 3692 C 350.536 3.09665 -1.57241 0
M  V30 3693 C 349.49 3.31221 -2.71066 0
M  V30 3694 C 348.816 4.70303 -2.54399 0
M  V30 3695 C 350.116 3.19796 -4.1295 0
M  V30 3696 H 351.81 1.60543 -2.52718 0
M  V30 3697 H 349.356 0.770933 -1.21625 0
M  V30 3698 H 351.309 3.87831 -1.64819 0
M  V30 3699 H 350.033 3.21036 -0.600289 0
M  V30 3700 H 348.692 2.55452 -2.62944 0
M  V30 3701 H 348.34 4.78429 -1.55288 0
M  V30 3702 H 348.04 4.85679 -3.30741 0
M  V30 3703 H 349.564 5.50647 -2.63857 0
M  V30 3704 H 350.978 3.87815 -4.22223 0
M  V30 3705 H 349.375 3.46696 -4.89818 0
M  V30 3706 H 350.445 2.16983 -4.33643 0
M  V30 3707 N 351.788 1.33704 0.83433 0
M  V30 3708 C 352.698 1.26382 1.97648 0
M  V30 3709 C 353.714 0.173548 1.73132 0
M  V30 3710 O 354.89 0.397962 1.97429 0
M  V30 3711 C 351.955 1.00769 3.31733 0
M  V30 3712 C 351.016 2.1884 3.69334 0
M  V30 3713 C 350.249 1.9444 4.9702 0
M  V30 3714 O 350.472 0.896961 5.63303 0
M  V30 3715 O 349.406 2.81093 5.32231 0
M  V30 3716 H 353.232 2.22444 2.06767 0
M  V30 3717 H 350.817 1.13795 0.968037 0
M  V30 3718 H 352.699 0.882186 4.12062 0
M  V30 3719 H 351.374 0.0773783 3.23608 0
M  V30 3720 H 350.281 2.36946 2.89495 0
M  V30 3721 H 351.614 3.10221 3.82131 0
M  V30 3722 N 353.266 -1.05314 1.17247 0
M  V30 3723 C 354.213 -2.13031 0.888058 0
M  V30 3724 C 355.183 -1.65253 -0.167537 0
M  V30 3725 O 356.368 -1.90775 -0.0305974 0
M  V30 3726 C 353.508 -3.42702 0.406147 0
M  V30 3727 C 352.621 -4.04161 1.52572 0
M  V30 3728 C 351.756 -5.21744 0.997808 0
M  V30 3729 C 350.795 -5.75207 2.09291 0
M  V30 3730 N 349.932 -6.84094 1.57986 0
M  V30 3731 H 354.772 -2.36698 1.81048 0
M  V30 3732 H 352.309 -1.16121 0.903013 0
M  V30 3733 H 354.267 -4.17059 0.108305 0
M  V30 3734 H 352.897 -3.19222 -0.479313 0
M  V30 3735 H 351.949 -3.27253 1.93931 0
M  V30 3736 H 353.261 -4.39881 2.35172 0
M  V30 3737 H 352.415 -6.03168 0.653739 0
M  V30 3738 H 351.154 -4.87495 0.141232 0
M  V30 3739 H 350.159 -4.92414 2.44557 0
M  V30 3740 H 351.384 -6.11505 2.95362 0
M  V30 3741 H 349.33 -6.51745 0.74598 0
M  V30 3742 H 349.247 -7.18811 2.34195 0
M  V30 3743 H 350.515 -7.69172 1.26468 0
M  V30 3744 N 354.744 -0.972509 -1.24016 0
M  V30 3745 C 355.992 -0.635776 -1.91839 0
M  V30 3746 C 356.313 0.832312 -1.76345 0
M  V30 3747 O 355.583 1.5946 -1.13795 0
M  V30 3748 H 354.163 -0.232157 -0.710009 0
M  V30 3749 H 356.825 -1.23462 -1.50809 0
M  V30 3750 H 355.921 -0.880545 -2.99421 0
M  V30 3751 N 356.222 1.38976 -0.743202 0
M  V30 3752 C 357.155 2.28128 -0.0572165 0
M  V30 3753 C 358.133 1.44827 0.739182 0
M  V30 3754 O 359.317 1.74207 0.720009 0
M  V30 3755 C 356.444 3.25796 0.926001 0
M  V30 3756 C 355.49 4.25947 0.217099 0
M  V30 3757 S 356.323 5.24604 -1.07477 0
M  V30 3758 C 357.479 6.25829 -0.0943545 0
M  V30 3759 H 357.712 2.85961 -0.813246 0
M  V30 3760 H 355.245 1.44822 -0.535341 0
M  V30 3761 H 357.203 3.82583 1.48797 0
M  V30 3762 H 355.864 2.66966 1.65493 0
M  V30 3763 H 355.057 4.94746 0.961372 0
M  V30 3764 H 354.659 3.73002 -0.273059 0
M  V30 3765 H 356.951 6.73411 0.743239 0
M  V30 3766 H 357.894 7.0412 -0.749713 0
M  V30 3767 H 358.302 5.63797 0.281706 0
M  V30 3768 N 357.7 0.491464 1.49741 0
M  V30 3769 C 359.116 0.146835 1.58923 0
M  V30 3770 C 359.316 -1.34804 1.49767 0
M  V30 3771 O 358.372 -2.12317 1.36667 0
M  V30 3772 C 359.685 0.715157 2.92072 0
M  V30 3773 C 361.233 0.680407 3.05515 0
M  V30 3774 C 361.708 1.22663 4.41269 0
M  V30 3775 N 363.199 1.18691 4.47735 0
M  V30 3776 C 363.934 1.57984 5.51207 0
M  V30 3777 N 363.43 2.04824 6.6183 0
M  V30 3778 N 365.223 1.49459 5.41866 0
M  V30 3779 H 357.374 1.46347 1.53936 0
M  V30 3780 H 359.637 0.606453 0.728642 0
M  V30 3781 H 359.343 1.76317 3.04311 0
M  V30 3782 H 359.217 0.17018 3.76816 0
M  V30 3783 H 361.604 -0.358743 2.92911 0
M  V30 3784 H 361.685 1.26242 2.22478 0
M  V30 3785 H 361.329 2.26451 4.54623 0
M  V30 3786 H 361.259 0.620637 5.2293 0
M  V30 3787 H 363.75 0.843605 3.68364 0
M  V30 3788 H 364.063 2.32901 7.3687 0
M  V30 3789 H 362.408 2.08791 6.62896 0
M  V30 3790 H 365.599 1.12692 4.54333 0
M  V30 3791 H 365.772 1.80406 6.22381 0
M  V30 3792 N 359.178 -1.55987 0.224894 0
M  V30 3793 C 360.426 -1.97998 -0.405099 0
M  V30 3794 C 360.747 -1.11387 -1.60056 0
M  V30 3795 O 360.017 -0.191645 -1.9496 0
M  V30 3796 H 358.597 -0.731235 -0.152658 0
M  V30 3797 H 361.259 -1.92279 0.318567 0
M  V30 3798 H 360.355 -3.03463 -0.729167 0
M  V30 3799 N 360.656 0.0484629 -1.57525 0
M  V30 3800 C 361.586 1.0549 -2.08313 0
M  V30 3801 C 362.567 1.38929 -0.981463 0
M  V30 3802 O 363.752 1.48151 -1.25558 0
M  V30 3803 C 360.882 2.36162 -2.54646 0
M  V30 3804 C 359.836 2.17016 -3.68901 0
M  V30 3805 C 359.162 3.53278 -4.01371 0
M  V30 3806 C 360.462 1.57219 -4.98076 0
M  V30 3807 H 362.156 0.632195 -2.92649 0
M  V30 3808 H 359.702 0.302654 -1.40784 0
M  V30 3809 H 361.655 3.06882 -2.88793 0
M  V30 3810 H 360.379 2.80456 -1.67368 0
M  V30 3811 H 359.038 1.48733 -3.35073 0
M  V30 3812 H 358.686 3.95185 -3.11188 0
M  V30 3813 H 358.386 3.41299 -4.78318 0
M  V30 3814 H 359.91 4.25391 -4.38035 0
M  V30 3815 H 361.324 2.17832 -5.30304 0
M  V30 3816 H 359.721 1.55871 -5.79503 0
M  V30 3817 H 360.791 0.535956 -4.81929 0
M  V30 3818 N 362.134 1.5431 0.320358 0
M  V30 3819 C 363.359 1.76954 1.08175 0
M  V30 3820 C 363.784 0.518193 1.80821 0
M  V30 3821 O 363.142 -0.530411 1.73368 0
M  V30 3822 C 363.19 2.96451 2.05303 0
M  V30 3823 O 362.294 2.68221 3.13259 0
M  V30 3824 H 361.635 0.586275 0.311733 0
M  V30 3825 H 364.165 2.01342 0.363676 0
M  V30 3826 H 364.175 3.23887 2.48116 0
M  V30 3827 H 362.85 3.87196 1.51829 0
M  V30 3828 H 361.427 2.51744 2.75099 0
M  V30 3829 N 363.613 -0.582584 1.46437 0
M  V30 3830 C 364.576 -1.67366 1.56592 0
M  V30 3831 C 365.576 -1.54575 0.443072 0
M  V30 3832 O 366.766 -1.59191 0.707381 0
M  V30 3833 C 363.898 -3.06791 1.48634 0
M  V30 3834 H 365.091 -1.5972 2.5383 0
M  V30 3835 H 362.644 -0.800432 1.34249 0
M  V30 3836 H 363.379 -3.19993 0.526763 0
M  V30 3837 H 363.164 -3.17484 2.30101 0
M  V30 3838 H 364.654 -3.86218 1.58826 0
M  V30 3839 N 365.091 -1.34144 -0.827227 0
M  V30 3840 C 366.502 -1.23557 -1.39966 0
M  V30 3841 C 366.853 0.140731 -1.95695 0
M  V30 3842 O 365.978 1.04087 -1.89723 0
M  V30 3843 C 366.573 -2.23708 -2.54441 0
M  V30 3844 C 365.132 -2.16924 -3.07605 0
M  V30 3845 C 364.279 -2.10549 -1.80456 0
M  V30 3846 H 367.23 -1.45573 -0.631991 0
M  V30 3847 H 367.251 -1.85157 -3.32411 0
M  V30 3848 H 366.763 -3.23866 -2.13851 0
M  V30 3849 H 364.864 -1.20107 -3.52711 0
M  V30 3850 H 364.977 -3.07988 -3.66988 0
M  V30 3851 H 363.341 -1.56203 -2.01178 0
M  V30 3852 H 364.124 -3.12535 -1.42046 0
M  V30 3853 N 366.569 1.04691 -1.17803 0
M  V30 3854 C 367.985 1.29963 -0.926379 0
M  V30 3855 C 368.185 1.97251 0.411635 0
M  V30 3856 O 367.241 2.24922 1.14744 0
M  V30 3857 C 368.554 2.16447 -2.08737 0
M  V30 3858 C 370.102 2.29814 -2.12496 0
M  V30 3859 C 370.577 3.19661 -3.27995 0
M  V30 3860 N 372.068 3.27247 -3.27816 0
M  V30 3861 C 372.803 3.96906 -4.13827 0
M  V30 3862 N 372.299 4.6895 -5.09959 0
M  V30 3863 N 374.092 3.93122 -4.01761 0
M  V30 3864 H 366.243 0.594182 -2.0392 0
M  V30 3865 H 368.506 0.324649 -0.890678 0
M  V30 3866 H 368.212 1.74304 -3.05469 0
M  V30 3867 H 368.086 3.17103 -2.04268 0
M  V30 3868 H 370.473 2.71196 -1.16347 0
M  V30 3869 H 370.554 1.2877 -2.21025 0
M  V30 3870 H 370.198 2.78991 -4.24413 0
M  V30 3871 H 370.128 4.20722 -3.16703 0
M  V30 3872 H 372.619 2.75921 -2.58217 0
M  V30 3873 H 372.932 5.19679 -5.71974 0
M  V30 3874 H 371.277 4.67875 -5.13924 0
M  V30 3875 H 374.468 3.35967 -3.2595 0
M  V30 3876 H 374.641 4.47139 -4.6901 0
M  V30 3877 N 368.047 0.979072 1.23499 0
M  V30 3878 C 369.296 0.642751 1.91185 0
M  V30 3879 C 369.609 -0.827253 1.77245 0
M  V30 3880 O 370.815 -1.27458 2.39722 0
M  V30 3881 C 369.271 1.09901 3.42709 0
M  V30 3882 C 368.879 2.59327 3.65313 0
M  V30 3883 C 370.623 0.836371 4.16179 0
M  V30 3884 C 368.53 2.98627 5.10467 0
M  V30 3885 H 367.46 0.236698 0.715884 0
M  V30 3886 H 370.111 1.1868 1.39955 0
M  V30 3887 H 368.493 0.48319 3.93041 0
M  V30 3888 H 369.667 3.26136 3.25533 0
M  V30 3889 H 367.982 2.83323 3.05151 0
M  V30 3890 H 370.579 1.10586 5.23139 0
M  V30 3891 H 370.922 -0.227509 4.15678 0
M  V30 3892 H 371.455 1.41371 3.71832 0
M  V30 3893 H 368.194 4.04133 5.16098 0
M  V30 3894 H 367.714 2.3651 5.51201 0
M  V30 3895 H 369.393 2.89159 5.78788 0
M  V30 3896 N 369.525 -1.3858 0.750561 0
M  V30 3897 C 370.457 -2.29057 0.0810714 0
M  V30 3898 C 371.47 -1.47596 -0.686973 0
M  V30 3899 O 372.659 -1.70495 -0.528563 0
M  V30 3900 C 369.759 -3.26475 -0.909247 0
M  V30 3901 C 368.932 -4.36945 -0.199478 0
M  V30 3902 C 367.991 -5.14572 -1.10011 0
M  V30 3903 O 367.017 -5.66321 -0.57177 0
M  V30 3904 N 368.219 -5.27262 -2.42849 0
M  V30 3905 H 370.984 -2.87153 0.858087 0
M  V30 3906 H 368.545 -1.50328 0.60109 0
M  V30 3907 H 370.537 -3.75285 -1.51471 0
M  V30 3908 H 369.107 -2.69298 -1.58736 0
M  V30 3909 H 368.327 -3.8981 0.586664 0
M  V30 3910 H 369.615 -5.07963 0.291783 0
M  V30 3911 H 369.013 -4.86763 -2.88233 0
M  V30 3912 H 367.57 -5.79456 -2.98453 0
M  V30 3913 N 371.003 -0.499398 -1.49478 0
M  V30 3914 C 372.251 0.0455996 -2.02049 0
M  V30 3915 C 372.572 1.37633 -1.38138 0
M  V30 3916 O 371.842 1.8842 -0.536166 0
M  V30 3917 H 370.422 0.0198416 -0.746736 0
M  V30 3918 H 373.084 -0.656274 -1.83519 0
M  V30 3919 H 372.18 0.176445 -3.11601 0
M  V30 3920 N 372.481 1.55866 -0.233164 0
M  V30 3921 C 373.428 2.20796 0.67215 0
M  V30 3922 C 374.398 1.16731 1.18166 0
M  V30 3923 O 375.583 1.45129 1.23864 0
M  V30 3924 C 372.723 2.90072 1.86955 0
M  V30 3925 C 371.836 4.08759 1.39786 0
M  V30 3926 C 370.971 4.65787 2.55374 0
M  V30 3927 C 370.01 5.76752 2.04998 0
M  V30 3928 N 369.147 6.28021 3.13901 0
M  V30 3929 H 373.987 2.9779 0.111749 0
M  V30 3930 H 371.524 1.47036 0.0434007 0
M  V30 3931 H 373.482 3.28428 2.57276 0
M  V30 3932 H 372.112 2.15575 2.40265 0
M  V30 3933 H 371.164 3.7581 0.589173 0
M  V30 3934 H 372.476 4.88906 0.98856 0
M  V30 3935 H 371.63 5.06646 3.33758 0
M  V30 3936 H 370.369 3.84828 2.99598 0
M  V30 3937 H 369.374 5.35383 1.25079 0
M  V30 3938 H 370.599 6.59553 1.61759 0
M  V30 3939 H 368.545 5.49971 3.57586 0
M  V30 3940 H 368.462 7.03323 2.7726 0
M  V30 3941 H 369.73 6.73538 3.92386 0
M  V30 3942 N 373.959 -0.0401083 1.57549 0
M  V30 3943 C 375.206 -0.733125 1.88763 0
M  V30 3944 C 375.534 -1.75946 0.829058 0
M  V30 3945 O 374.789 -1.94949 -0.171323 0
M  V30 3946 C 375.088 -1.44902 3.26708 0
M  V30 3947 C 374.754 -0.559707 4.47413 0
M  V30 3948 C 373.416 -0.314731 4.8017 0
M  V30 3949 C 375.768 0.0549743 5.21171 0
M  V30 3950 C 373.096 0.553886 5.8408 0
M  V30 3951 C 375.448 0.911229 6.26003 0
M  V30 3952 C 374.112 1.16577 6.57241 0
M  V30 3953 H 373.382 -0.268269 0.690733 0
M  V30 3954 H 376.029 0.00679408 1.91499 0
M  V30 3955 H 374.334 -2.26197 3.1991 0
M  V30 3956 H 376.031 -1.99058 3.48105 0
M  V30 3957 H 372.621 -0.760793 4.21794 0
M  V30 3958 H 376.805 -0.121344 4.96152 0
M  V30 3959 H 372.061 0.759518 6.06664 0
M  V30 3960 H 376.235 1.3941 6.82303 0
M  V30 3961 H 373.862 1.84058 7.37582 0
M  V30 3962 N 375.437 -1.54477 -0.31217 0
M  V30 3963 C 376.662 -1.77526 -1.07235 0
M  V30 3964 C 377.087 -0.527775 -1.80544 0
M  V30 3965 O 376.445 0.52121 -1.73646 0
M  V30 3966 C 376.493 -2.97535 -2.03728 0
M  V30 3967 O 375.597 -2.69878 -3.11833 0
M  V30 3968 H 374.938 -0.58792 -0.30862 0
M  V30 3969 H 377.468 -2.01532 -0.352993 0
M  V30 3970 H 377.478 -3.25198 -2.46395 0
M  V30 3971 H 376.153 -3.87996 -1.49774 0
M  V30 3972 H 374.73 -2.53199 -2.7376 0
M  V30 3973 N 376.915 0.57481 -1.46744 0
M  V30 3974 C 377.845 1.69337 -1.60771 0
M  V30 3975 C 378.826 1.63825 -0.457736 0
M  V30 3976 O 380.011 1.8172 -0.684947 0
M  V30 3977 C 377.141 3.0798 -1.60517 0
M  V30 3978 C 376.095 3.28327 -2.74564 0
M  V30 3979 C 375.421 4.67578 -2.59373 0
M  V30 3980 C 376.721 3.15398 -4.16319 0
M  V30 3981 H 378.415 1.57853 -2.54407 0
M  V30 3982 H 375.961 0.75799 -1.22436 0
M  V30 3983 H 377.914 3.86061 -1.68923 0
M  V30 3984 H 376.638 3.20381 -0.634305 0
M  V30 3985 H 375.297 2.52649 -2.65639 0
M  V30 3986 H 374.945 4.76755 -1.60353 0
M  V30 3987 H 374.645 4.82144 -3.35873 0
M  V30 3988 H 376.169 5.47817 -2.69682 0
M  V30 3989 H 377.583 3.83315 -4.26313 0
M  V30 3990 H 375.98 3.41482 -4.93468 0
M  V30 3991 H 377.05 2.12372 -4.3592 0
M  V30 3992 N 378.394 1.34581 0.820102 0
M  V30 3993 C 379.81 1.14325 1.11364 0
M  V30 3994 C 380.01 -0.0533648 2.01429 0
M  V30 3995 O 379.066 -0.728044 2.41776 0
M  V30 3996 C 380.379 2.43983 1.75764 0
M  V30 3997 C 381.927 2.50065 1.88246 0
M  V30 3998 C 382.402 3.79732 2.56061 0
M  V30 3999 N 383.893 3.80908 2.63558 0
M  V30 4000 C 384.628 4.77961 3.16766 0
M  V30 4001 N 384.124 5.85397 3.70517 0
M  V30 4002 N 385.917 4.65413 3.15194 0
M  V30 4003 H 378.068 2.11246 0.221096 0
M  V30 4004 H 380.331 0.934289 0.160649 0
M  V30 4005 H 380.037 3.31651 1.1705 0
M  V30 4006 H 379.911 2.57531 2.75604 0
M  V30 4007 H 382.298 1.62834 2.46108 0
M  V30 4008 H 382.379 2.40442 0.873006 0
M  V30 4009 H 382.023 4.67354 1.98853 0
M  V30 4010 H 381.953 3.86639 3.57516 0
M  V30 4011 H 384.444 3.03274 2.25463 0
M  V30 4012 H 384.757 6.55463 4.09376 0
M  V30 4013 H 383.102 5.89107 3.68752 0
M  V30 4014 H 386.293 3.80627 2.72471 0
M  V30 4015 H 386.466 5.41216 3.56356 0
M  V30 4016 N 379.872 -1.04064 1.18357 0
M  V30 4017 C 380.835 -2.10243 0.912707 0
M  V30 4018 C 381.835 -1.60477 -0.101928 0
M  V30 4019 O 383.025 -1.73703 0.131517 0
M  V30 4020 C 380.157 -3.38893 0.369387 0
M  V30 4021 H 381.35 -2.35706 1.85426 0
M  V30 4022 H 378.903 -1.20489 0.995594 0
M  V30 4023 H 379.638 -3.19094 -0.578776 0
M  V30 4024 H 379.423 -3.76331 1.1008 0
M  V30 4025 H 380.913 -4.17128 0.198575 0
M  V30 4026 N 381.35 -0.985608 -1.22978 0
M  V30 4027 C 382.575 -0.675254 -1.961 0
M  V30 4028 C 383 0.752154 -1.72407 0
M  V30 4029 O 382.358 1.5131 -0.998751 0
M  V30 4030 C 382.406 -0.977899 -3.47087 0
M  V30 4031 O 381.51 -0.072685 -4.12336 0
M  V30 4032 H 380.851 -0.253443 -0.613728 0
M  V30 4033 H 383.381 -1.32061 -1.56272 0
M  V30 4034 H 383.391 -0.916739 -3.97567 0
M  V30 4035 H 382.066 -2.01807 -3.63657 0
M  V30 4036 H 380.643 -0.188703 -3.72422 0
M  V30 4037 N 382.828 1.3818 -0.7579 0
M  V30 4038 C 383.791 2.28764 -0.141286 0
M  V30 4039 C 384.791 1.47388 0.642907 0
M  V30 4040 O 385.981 1.67781 0.468536 0
M  V30 4041 C 383.113 3.31184 0.808069 0
M  V30 4042 H 384.306 2.848 -0.939633 0
M  V30 4043 H 381.859 1.47212 -0.525191 0
M  V30 4044 H 382.594 2.80247 1.63193 0
M  V30 4045 H 382.379 3.91314 0.248104 0
M  V30 4046 H 383.869 3.98909 1.23536 0
M  V30 4047 N 384.306 0.507319 1.49211 0
M  V30 4048 C 385.534 -0.0315749 2.06876 0
M  V30 4049 C 385.949 -1.30241 1.36685 0
M  V30 4050 O 385.306 -1.76937 0.447152 0
M  V30 4051 C 385.357 -0.282627 3.60393 0
M  V30 4052 O 385.078 0.937835 4.27944 0
M  V30 4053 C 386.579 -0.864453 4.3479 0
M  V30 4054 H 383.799 0.0233048 0.670595 0
M  V30 4055 H 386.343 0.706484 1.91909 0
M  V30 4056 H 384.498 -0.97068 3.75042 0
M  V30 4057 H 384.912 0.704567 5.19746 0
M  V30 4058 H 386.386 -0.989664 5.43056 0
M  V30 4059 H 386.863 -1.86382 3.97692 0
M  V30 4060 H 387.469 -0.213672 4.24763 0
M  V30 4061 N 385.784 -1.5574 0.241426 0
M  V30 4062 C 387.032 -1.98417 -0.384075 0
M  V30 4063 C 387.353 -1.13078 -1.58866 0
M  V30 4064 O 386.623 -0.212312 -1.94746 0
M  V30 4065 H 385.203 -0.732813 -0.144894 0
M  V30 4066 H 387.865 -1.9193 0.338943 0
M  V30 4067 H 386.961 -3.04219 -0.696939 0
M  V30 4068 N 387.262 0.0317525 -1.57568 0
M  V30 4069 C 388.195 1.06621 -2.0176 0
M  V30 4070 C 389.173 1.35323 -0.901462 0
M  V30 4071 O 390.357 1.48025 -1.16708 0
M  V30 4072 C 387.484 2.40155 -2.38837 0
M  V30 4073 C 386.53 2.27327 -3.60867 0
M  V30 4074 S 387.363 1.62925 -5.10113 0
M  V30 4075 C 388.519 2.97955 -5.5043 0
M  V30 4076 H 388.752 0.689781 -2.89187 0
M  V30 4077 H 386.285 0.24164 -1.52497 0
M  V30 4078 H 388.243 3.1695 -2.6087 0
M  V30 4079 H 386.904 2.74946 -1.51867 0
M  V30 4080 H 386.097 3.25898 -3.84456 0
M  V30 4081 H 385.699 1.58675 -3.38671 0
M  V30 4082 H 387.991 3.94285 -5.5095 0
M  V30 4083 H 388.934 2.79102 -6.50775 0
M  V30 4084 H 389.342 3.00404 -4.77931 0
M  V30 4085 N 388.74 1.54641 0.303973 0
M  V30 4086 C 389.989 1.7299 1.03717 0
M  V30 4087 C 390.302 0.521168 1.88529 0
M  V30 4088 O 391.508 0.586408 2.65092 0
M  V30 4089 C 389.964 3.06051 1.89369 0
M  V30 4090 C 389.572 4.34393 1.09574 0
M  V30 4091 C 391.316 3.3376 2.62306 0
M  V30 4092 C 389.223 5.58506 1.94486 0
M  V30 4093 H 388.153 0.64473 0.390947 0
M  V30 4094 H 390.804 1.81124 0.294328 0
M  V30 4095 H 389.186 2.91874 2.67629 0
M  V30 4096 H 390.36 4.59396 0.359485 0
M  V30 4097 H 388.675 4.13597 0.482324 0
M  V30 4098 H 391.272 4.23687 3.26181 0
M  V30 4099 H 391.615 2.52503 3.3098 0
M  V30 4100 H 392.148 3.48894 1.91097 0
M  V30 4101 H 388.887 6.42422 1.30287 0
M  V30 4102 H 388.407 5.37694 2.65792 0
M  V30 4103 H 390.086 5.95651 2.52605 0
M  V30 4104 N 390.218 -0.567019 1.47046 0
M  V30 4105 C 391.467 -1.32091 1.5243 0
M  V30 4106 C 391.78 -1.94704 0.187021 0
M  V30 4107 O 392.986 -2.7124 0.118771 0
M  V30 4108 C 391.442 -2.39479 2.68659 0
M  V30 4109 C 391.05 -1.831 4.08874 0
M  V30 4110 C 392.794 -3.16111 2.83327 0
M  V30 4111 C 390.701 -2.8821 5.16419 0
M  V30 4112 H 389.631 -0.496629 0.56734 0
M  V30 4113 H 392.282 -0.603354 1.73297 0
M  V30 4114 H 390.664 -3.14105 2.41152 0
M  V30 4115 H 391.838 -1.14913 4.46242 0
M  V30 4116 H 390.153 -1.19085 3.99008 0
M  V30 4117 H 392.75 -3.94585 3.60842 0
M  V30 4118 H 393.093 -3.69686 1.91411 0
M  V30 4119 H 393.626 -2.48595 3.10556 0
M  V30 4120 H 390.365 -2.39504 6.10179 0
M  V30 4121 H 389.885 -3.54839 4.8358 0
M  V30 4122 H 391.564 -3.51881 5.42945 0
M  V30 4123 N 391.696 -1.35014 -0.812953 0
M  V30 4124 C 392.629 -1.21761 -1.93001 0
M  V30 4125 C 393.607 -0.10694 -1.62248 0
M  V30 4126 O 394.791 -0.273891 -1.865 0
M  V30 4127 C 391.918 -0.873404 -3.27245 0
M  V30 4128 C 390.964 -1.99523 -3.76952 0
M  V30 4129 S 391.797 -3.61009 -3.95516 0
M  V30 4130 C 392.953 -3.28651 -5.32672 0
M  V30 4131 H 393.186 -2.16315 -2.03948 0
M  V30 4132 H 390.719 -1.20156 -0.969631 0
M  V30 4133 H 392.677 -0.68161 -4.04802 0
M  V30 4134 H 391.338 0.053971 -3.14054 0
M  V30 4135 H 390.531 -1.70838 -4.74163 0
M  V30 4136 H 390.133 -2.14503 -3.06373 0
M  V30 4137 H 392.425 -2.81085 -6.1644 0
M  V30 4138 H 393.368 -4.25039 -5.66346 0
M  V30 4139 H 393.776 -2.6458 -4.98656 0
M  V30 4140 N 393.175 1.03435 -1.18907 0
M  V30 4141 C 394.452 1.73778 -0.89781 0
M  V30 4142 C 394.832 2.02458 0.597832 0
M  V30 4143 O 394.18 1.67482 1.55441 0
M  V30 4144 C 394.39 3.01845 -1.75187 0
M  V30 4145 C 395.738 3.7546 -1.9828 0
M  V30 4146 O 396.762 3.11759 -1.72293 0
M  V30 4147 O 395.621 4.89966 -2.42065 0
M  V30 4148 H 392.715 0.75651 -0.334098 0
M  V30 4149 H 395.261 1.09444 -1.29693 0
M  V30 4150 H 394.033 2.76836 -2.76545 0
M  V30 4151 H 393.656 3.73919 -1.35167 0
M  V30 4152 N 394.653 0.992116 1.22453 0
M  V30 4153 C 395.901 0.666215 1.90804 0
M  V30 4154 C 396.222 -0.804152 1.77647 0
M  V30 4155 O 395.492 -1.57629 1.16318 0
M  V30 4156 H 394.072 0.243423 0.706225 0
M  V30 4157 H 396.734 1.25845 1.48825 0
M  V30 4158 H 395.83 0.928069 2.97982 0
M  V30 4159 N 396.131 -1.37776 0.765217 0
M  V30 4160 C 397.377 -2.00145 0.327072 0
M  V30 4161 C 397.71 -1.60607 -1.09175 0
M  V30 4162 O 396.985 -0.849127 -1.74986 0
M  V30 4163 C 397.268 -3.57109 0.46319 0
M  V30 4164 C 397.121 -4.06576 1.92395 0
M  V30 4165 C 398.44 -4.39888 -0.136473 0
M  V30 4166 H 395.559 -0.727113 0.120316 0
M  V30 4167 H 398.201 -1.63549 0.967039 0
M  V30 4168 H 396.351 -3.88414 -0.0816358 0
M  V30 4169 H 398.023 -3.85864 2.52798 0
M  V30 4170 H 396.266 -3.59011 2.43503 0
M  V30 4171 H 396.937 -5.15639 1.97028 0
M  V30 4172 H 399.413 -4.14803 0.328317 0
M  V30 4173 H 398.289 -5.48899 -0.0110582 0
M  V30 4174 H 398.55 -4.24758 -1.22608 0
M  V30 4175 N 397.609 -0.515225 -1.4894 0
M  V30 4176 C 398.519 0.259774 -2.33157 0
M  V30 4177 C 399.535 0.953501 -1.45548 0
M  V30 4178 O 400.711 0.931735 -1.78552 0
M  V30 4179 C 397.776 1.30193 -3.21326 0
M  V30 4180 C 396.837 0.620129 -4.24797 0
M  V30 4181 C 396.07 1.61263 -5.08753 0
M  V30 4182 O 396.293 2.84389 -4.94448 0
M  V30 4183 O 395.227 1.16013 -5.90614 0
M  V30 4184 H 399.053 -0.429932 -3.00641 0
M  V30 4185 H 396.638 -0.276346 -1.46822 0
M  V30 4186 H 398.52 1.90455 -3.75905 0
M  V30 4187 H 397.195 1.97431 -2.56521 0
M  V30 4188 H 396.102 -0.0226019 -3.74093 0
M  V30 4189 H 397.435 -0.0100493 -4.92199 0
M  V30 4190 N 399.087 1.5561 -0.249682 0
M  V30 4191 C 400.333 1.99306 0.374841 0
M  V30 4192 C 400.666 1.13767 1.57387 0
M  V30 4193 O 399.941 0.201711 1.93451 0
M  V30 4194 C 400.224 3.51507 0.781986 0
M  V30 4195 C 400.077 4.4781 -0.422629 0
M  V30 4196 C 401.396 4.08884 1.62793 0
M  V30 4197 H 398.515 0.724572 0.134773 0
M  V30 4198 H 401.157 1.86719 -0.351549 0
M  V30 4199 H 399.307 3.62363 1.4009 0
M  V30 4200 H 400.979 4.48931 -1.06108 0
M  V30 4201 H 399.222 4.20518 -1.06524 0
M  V30 4202 H 399.893 5.51919 -0.0943766 0
M  V30 4203 H 402.369 4.01147 1.10547 0
M  V30 4204 H 401.245 5.1564 1.88166 0
M  V30 4205 H 401.506 3.57515 2.60068 0
M  V30 4206 N 400.565 -0.0233959 1.57583 0
M  V30 4207 C 401.976 -0.56927 1.77809 0
M  V30 4208 C 402.327 -1.75284 0.881472 0
M  V30 4209 O 401.452 -2.1626 0.0777805 0
M  V30 4210 C 402.047 -1.03949 3.22459 0
M  V30 4211 C 400.606 -1.53084 3.43864 0
M  V30 4212 C 399.753 -0.471454 2.73263 0
M  V30 4213 H 402.704 0.202825 1.57399 0
M  V30 4214 H 402.725 -1.90661 3.29285 0
M  V30 4215 H 402.237 -0.177865 3.87692 0
M  V30 4216 H 400.338 -2.41414 2.83814 0
M  V30 4217 H 400.451 -1.57443 4.52491 0
M  V30 4218 H 398.815 -0.927788 2.37201 0
M  V30 4219 H 399.598 0.380808 3.41181 0
M  V30 4220 N 402.043 -1.548 -0.295768 0
M  V30 4221 C 402.953 -1.89177 -1.38742 0
M  V30 4222 C 403.969 -0.786481 -1.55211 0
M  V30 4223 O 405.145 -1.08344 -1.69775 0
M  V30 4224 C 402.21 -2.13663 -2.73036 0
M  V30 4225 C 401.271 -3.37349 -2.65508 0
M  V30 4226 C 400.504 -3.60658 -3.93398 0
M  V30 4227 O 400.727 -2.86882 -4.93006 0
M  V30 4228 O 399.661 -4.54179 -3.94975 0
M  V30 4229 H 403.487 -2.82059 -1.12589 0
M  V30 4230 H 401.072 -1.41056 -0.492295 0
M  V30 4231 H 402.954 -2.3094 -3.52484 0
M  V30 4232 H 401.629 -1.23967 -2.99022 0
M  V30 4233 H 400.536 -3.25431 -1.84514 0
M  V30 4234 H 401.869 -4.27192 -2.44474 0
M  V30 4235 N 403.521 0.559213 -1.47345 0
M  V30 4236 C 404.431 1.69388 -1.62311 0
M  V30 4237 C 405.447 1.6648 -0.505993 0
M  V30 4238 O 406.623 1.85964 -0.773262 0
M  V30 4239 C 403.688 3.05894 -1.63185 0
M  V30 4240 C 402.749 3.19885 -2.86307 0
M  V30 4241 C 401.982 4.49879 -2.87131 0
M  V30 4242 O 402.205 5.35217 -1.97229 0
M  V30 4243 O 401.139 4.67618 -3.78968 0
M  V30 4244 H 404.965 1.59706 -2.58317 0
M  V30 4245 H 402.55 0.728989 -1.30407 0
M  V30 4246 H 404.432 3.87133 -1.66451 0
M  V30 4247 H 403.107 3.15964 -0.70345 0
M  V30 4248 H 402.014 2.38052 -2.88587 0
M  V30 4249 H 403.347 3.14718 -3.78435 0
M  V30 4250 N 404.999 1.35443 0.805782 0
M  V30 4251 C 405.947 1.28465 1.93906 0
M  V30 4252 C 406.941 0.17943 1.68447 0
M  V30 4253 O 408.147 0.345459 1.76654 0
M  V30 4254 H 404.522 0.399528 0.637088 0
M  V30 4255 H 406.493 2.24206 1.96912 0
M  V30 4256 C 405.242 1.07432 3.30687 0
M  V30 4257 H 404.565 1.91716 3.50835 0
M  V30 4258 H 406.005 1.06591 4.10383 0
M  V30 4259 C 404.464 -0.22179 3.36169 0
M  V30 4260 O 404.994 -1.21731 3.82811 0
M  V30 4261 N 403.2 -0.260841 2.89427 0
M  V30 4262 H 402.747 0.549884 2.51663 0
M  V30 4263 H 402.705 -1.12777 2.93477 0
M  V30 4264 N 406.477 -1.02803 1.19454 0
M  V30 4265 C 407.723 -1.76478 0.999171 0
M  V30 4266 C 408.056 -1.88456 -0.468828 0
M  V30 4267 O 407.331 -1.40198 -1.34814 0
M  V30 4268 C 407.614 -3.19044 1.66981 0
M  V30 4269 C 407.467 -3.14932 3.21151 0
M  V30 4270 C 408.786 -4.17456 1.39349 0
M  V30 4271 H 405.905 -0.640614 0.364393 0
M  V30 4272 H 408.547 -1.20005 1.47305 0
M  V30 4273 H 406.697 -3.67263 1.2669 0
M  V30 4274 H 408.369 -2.74605 3.70661 0
M  V30 4275 H 406.612 -2.52625 3.52652 0
M  V30 4276 H 407.283 -4.1566 3.63223 0
M  V30 4277 H 409.759 -3.77842 1.74283 0
M  V30 4278 H 408.635 -5.154 1.88823 0
M  V30 4279 H 408.896 -4.40949 0.318813 0
M  V30 4280 N 407.956 -0.998596 -1.21925 0
M  V30 4281 C 408.886 -0.573688 -2.26343 0
M  V30 4282 C 409.867 0.402296 -1.65274 0
M  V30 4283 O 411.052 0.291683 -1.91997 0
M  V30 4284 C 408.182 0.106839 -3.47136 0
M  V30 4285 C 407.136 -0.788269 -4.20678 0
M  V30 4286 C 406.462 0.0254927 -5.34694 0
M  V30 4287 C 407.762 -2.08784 -4.78755 0
M  V30 4288 H 409.456 -1.44651 -2.62138 0
M  V30 4289 H 407.002 -0.696975 -1.26009 0
M  V30 4290 H 408.955 0.415531 -4.19346 0
M  V30 4291 H 407.679 1.01424 -3.10452 0
M  V30 4292 H 406.338 -1.08069 -3.50309 0
M  V30 4293 H 405.986 0.933989 -4.94253 0
M  V30 4294 H 405.686 -0.570437 -5.84825 0
M  V30 4295 H 407.21 0.328147 -6.09718 0
M  V30 4296 H 408.624 -1.84272 -5.42878 0
M  V30 4297 H 407.021 -2.63307 -5.39249 0
M  V30 4298 H 408.091 -2.76284 -3.98491 0
M  V30 4299 N 409.434 1.37368 -0.772513 0
M  V30 4300 C 410.845 1.8231 -0.402493 0
M  V30 4301 C 411.196 1.6436 1.07146 0
M  V30 4302 O 410.321 1.15514 1.82991 0
M  V30 4303 C 410.916 3.30979 -0.723776 0
M  V30 4304 C 409.475 3.74195 -0.406802 0
M  V30 4305 C 408.622 2.59885 -0.967218 0
M  V30 4306 H 411.573 1.25829 -0.967099 0
M  V30 4307 H 411.594 3.80499 -0.00870832 0
M  V30 4308 H 411.106 3.44011 -1.7966 0
M  V30 4309 H 409.207 3.66732 0.658673 0
M  V30 4310 H 409.32 4.7027 -0.915588 0
M  V30 4311 H 407.684 2.51674 -0.391416 0
M  V30 4312 H 408.467 2.7571 -2.04546 0
M  V30 4313 N 410.912 0.523116 1.48665 0
M  V30 4314 C 412.16 -0.0134497 2.02096 0
M  V30 4315 C 412.481 -1.35418 1.40311 0
M  V30 4316 O 411.751 -1.87543 0.566074 0
M  V30 4317 H 410.331 -0.00795915 0.746958 0
M  V30 4318 H 412.993 0.685388 1.82451 0
M  V30 4319 H 412.089 -0.126849 3.11842 0
M  V30 4320 N 412.39 -1.55475 0.257931 0
M  V30 4321 C 413.353 -2.20551 -0.623706 0
M  V30 4322 C 414.353 -1.17809 -1.09443 0
M  V30 4323 O 415.543 -1.42823 -0.997362 0
M  V30 4324 C 412.675 -2.85784 -1.8585 0
M  V30 4325 H 413.868 -2.99848 -0.0557743 0
M  V30 4326 H 411.421 -1.56298 0.0084422 0
M  V30 4327 H 412.156 -2.10453 -2.46739 0
M  V30 4328 H 411.941 -3.61057 -1.52907 0
M  V30 4329 H 413.431 -3.35553 -2.48584 0
M  V30 4330 N 413.868 0.0150385 -1.57593 0
M  V30 4331 C 415.093 0.718067 -1.94573 0
M  V30 4332 C 415.518 1.6734 -0.859005 0
M  V30 4333 O 414.876 1.80362 0.184147 0
M  V30 4334 C 414.924 1.43918 -3.30636 0
M  V30 4335 O 414.028 2.55299 -3.23876 0
M  V30 4336 H 413.369 0.192125 -0.635597 0
M  V30 4337 H 415.899 -0.0336708 -2.04572 0
M  V30 4338 H 415.909 1.80598 -3.65853 0
M  V30 4339 H 414.584 0.738619 -4.09289 0
M  V30 4340 H 413.161 2.21058 -3.00312 0
M  V30 4341 N 415.346 1.54954 0.287554 0
M  V30 4342 C 416.571 1.79209 1.04397 0
M  V30 4343 C 416.996 0.556431 1.79682 0
M  V30 4344 O 416.354 -0.493518 1.74454 0
M  V30 4345 C 416.402 3.00739 1.98969 0
M  V30 4346 O 415.506 2.74805 3.075 0
M  V30 4347 H 414.847 0.592755 0.299227 0
M  V30 4348 H 417.377 2.02068 0.320886 0
M  V30 4349 H 417.387 3.29077 2.4119 0
M  V30 4350 H 416.062 3.90329 1.43582 0
M  V30 4351 H 414.639 2.57523 2.69697 0
M  V30 4352 N 416.824 -0.551391 1.4764 0
M  V30 4353 C 417.754 -1.66757 1.63445 0
M  V30 4354 C 418.735 -1.63077 0.483742 0
M  V30 4355 O 419.92 -1.80607 0.71377 0
M  V30 4356 C 417.05 -3.05387 1.65396 0
M  V30 4357 C 416.004 -3.23918 2.79752 0
M  V30 4358 C 415.33 -4.63393 2.66779 0
M  V30 4359 C 416.63 -3.08735 4.21284 0
M  V30 4360 H 418.324 -1.53786 2.56886 0
M  V30 4361 H 415.87 -0.738415 1.23626 0
M  V30 4362 H 417.823 -3.83325 1.75043 0
M  V30 4363 H 416.547 -3.19332 0.685195 0
M  V30 4364 H 415.206 -2.48391 2.69625 0
M  V30 4365 H 414.854 -4.74144 1.67918 0
M  V30 4366 H 414.554 -4.7674 3.43501 0
M  V30 4367 H 416.078 -5.43458 2.78364 0
M  V30 4368 H 417.492 -3.76484 4.32357 0
M  V30 4369 H 415.889 -3.33588 4.98838 0
M  V30 4370 H 416.959 -2.0541 4.39243 0
M  V30 4371 N 418.302 -1.35869 -0.798587 0
M  V30 4372 C 419.55 -1.29332 -1.55298 0
M  V30 4373 C 419.871 0.129729 -1.94568 0
M  V30 4374 O 419.141 1.06796 -1.6423 0
M  V30 4375 H 417.721 -0.475737 -0.57592 0
M  V30 4376 H 420.383 -1.70062 -0.952093 0
M  V30 4377 H 419.479 -1.91458 -2.46476 0
M  V30 4378 N 419.78 1.02168 -1.19998 0
M  V30 4379 C 421.028 1.75338 -1.00504 0
M  V30 4380 C 421.349 1.89387 0.464506 0
M  V30 4381 O 420.619 1.43268 1.33608 0
M  V30 4382 H 419.199 0.649564 -0.368885 0
M  V30 4383 H 421.861 1.23205 -1.51018 0
M  V30 4384 H 420.957 2.75892 -1.45912 0
M  V30 4385 N 421.258 1.00505 1.21394 0
M  V30 4386 C 422.669 0.721082 1.72213 0
M  V30 4387 C 423.02 -0.761263 1.80829 0
M  V30 4388 O 422.145 -1.59464 1.46288 0
M  V30 4389 C 422.74 1.30228 3.12772 0
M  V30 4390 C 421.299 1.06743 3.60947 0
M  V30 4391 C 420.446 1.41507 2.38477 0
M  V30 4392 H 423.397 1.17594 1.06571 0
M  V30 4393 H 423.418 0.686955 3.74247 0
M  V30 4394 H 422.93 2.38115 3.06468 0
M  V30 4395 H 421.031 0.00572162 3.726 0
M  V30 4396 H 421.144 1.73936 4.46411 0
M  V30 4397 H 419.508 0.833852 2.40664 0
M  V30 4398 H 420.291 2.50424 2.34824 0
M  V30 4399 N 422.737 -1.36956 0.779787 0
M  V30 4400 C 423.984 -1.99491 0.347766 0
M  V30 4401 C 424.312 -1.61898 -1.07793 0
M  V30 4402 O 423.567 -0.86071 -1.75756 0
M  V30 4403 C 423.866 -3.54585 0.447686 0
M  V30 4404 C 423.532 -4.1197 1.83279 0
M  V30 4405 C 422.194 -4.27356 2.2118 0
M  V30 4406 C 424.546 -4.43354 2.74019 0
M  V30 4407 C 421.874 -4.71432 3.4924 0
M  V30 4408 C 424.226 -4.88858 4.01497 0
M  V30 4409 C 422.89 -5.0245 4.39432 0
M  V30 4410 H 422.16 -0.729991 0.127257 0
M  V30 4411 H 424.807 -1.63599 0.995376 0
M  V30 4412 H 423.112 -3.90773 -0.283447 0
M  V30 4413 H 424.809 -4.00888 0.0945948 0
M  V30 4414 H 421.399 -4.00428 1.52825 0
M  V30 4415 H 425.583 -4.31045 2.45995 0
M  V30 4416 H 420.839 -4.80141 3.78516 0
M  V30 4417 H 425.013 -5.12108 4.71931 0
M  V30 4418 H 422.64 -5.36362 5.38721 0
M  V30 4419 N 424.215 -0.530993 -1.48385 0
M  V30 4420 C 425.463 0.00273189 -2.021 0
M  V30 4421 C 425.784 1.34672 -1.41027 0
M  V30 4422 O 425.054 1.8724 -0.576012 0
M  V30 4423 H 423.634 0.00399774 -0.746989 0
M  V30 4424 H 426.296 -0.695054 -1.82085 0
M  V30 4425 H 425.392 0.11031 -3.11905 0
M  V30 4426 N 425.693 1.55336 -0.266172 0
M  V30 4427 C 426.933 2.01303 0.354459 0
M  V30 4428 C 427.297 1.15046 1.53715 0
M  V30 4429 O 428.498 1.50554 2.22681 0
M  V30 4430 C 426.769 3.49748 0.735579 0
M  V30 4431 S 428.328 4.1771 1.34401 0
M  V30 4432 H 425.146 0.702333 0.110674 0
M  V30 4433 H 427.748 1.91653 -0.385916 0
M  V30 4434 H 426.452 4.10181 -0.134196 0
M  V30 4435 H 425.983 3.63364 1.50764 0
M  V30 4436 H 427.998 4.20594 2.63278 0
M  V30 4437 N 427.171 -0.0066808 1.57599 0
M  V30 4438 C 428.101 -0.999296 2.11036 0
M  V30 4439 C 429.082 -1.36278 1.01795 0
M  V30 4440 O 430.267 -1.4477 1.29442 0
M  V30 4441 C 427.397 -2.29328 2.60818 0
M  V30 4442 C 426.351 -2.07159 3.74525 0
M  V30 4443 C 425.677 -3.42512 4.10596 0
M  V30 4444 C 426.977 -1.43959 5.02069 0
M  V30 4445 H 428.671 -0.554382 2.94223 0
M  V30 4446 H 426.217 -0.265221 1.41536 0
M  V30 4447 H 428.17 -2.99117 2.96828 0
M  V30 4448 H 426.894 -2.7592 1.74745 0
M  V30 4449 H 425.553 -1.39797 3.38899 0
M  V30 4450 H 425.201 -3.86795 3.21556 0
M  V30 4451 H 424.901 -3.28498 4.87199 0
M  V30 4452 H 426.425 -4.13628 4.4916 0
M  V30 4453 H 427.839 -2.03696 5.35893 0
M  V30 4454 H 426.236 -1.40452 5.83432 0
M  V30 4455 H 427.306 -0.407992 4.83181 0
M  V30 4456 N 428.649 -1.55105 -0.279332 0
M  V30 4457 C 429.597 -1.88333 -1.36505 0
M  V30 4458 C 430.591 -0.759043 -1.51443 0
M  V30 4459 O 431.797 -0.943312 -1.53302 0
M  V30 4460 H 428.172 -0.59766 -0.456406 0
M  V30 4461 H 430.143 -2.79041 -1.05728 0
M  V30 4462 C 428.892 -2.16628 -2.7197 0
M  V30 4463 H 428.215 -3.02624 -2.61264 0
M  V30 4464 H 429.655 -2.43803 -3.46895 0
M  V30 4465 C 428.114 -0.971807 -3.22579 0
M  V30 4466 O 428.644 -0.203228 -4.01186 0
M  V30 4467 N 426.85 -0.771238 -2.80179 0
M  V30 4468 H 426.397 -1.39792 -2.1637 0
M  V30 4469 H 426.355 0.0263667 -3.14389 0
M  V30 4470 N 430.127 0.543554 -1.4793 0
M  V30 4471 C 431.075 1.67039 -1.61866 0
M  V30 4472 C 432.069 1.62294 -0.48549 0
M  V30 4473 O 433.275 1.67315 -0.66376 0
M  V30 4474 H 429.65 0.552954 -0.509652 0
M  V30 4475 H 431.621 1.52426 -2.56533 0
M  V30 4476 C 430.37 3.05357 -1.6629 0
M  V30 4477 H 429.693 3.09696 -2.5284 0
M  V30 4478 H 431.133 3.83855 -1.80088 0
M  V30 4479 C 429.592 3.34531 -0.398861 0
M  V30 4480 O 430.122 3.98649 0.494162 0
M  V30 4481 N 428.328 2.89299 -0.2747 0
M  V30 4482 H 427.875 2.37298 -1.00236 0
M  V30 4483 H 427.833 3.09188 0.570075 0
M  V30 4484 N 431.605 1.3629 0.791371 0
M  V30 4485 C 432.568 1.30309 1.88553 0
M  V30 4486 C 433.568 0.211204 1.59407 0
M  V30 4487 O 434.758 0.465865 1.67855 0
M  V30 4488 C 431.89 1.01956 3.25297 0
M  V30 4489 H 433.083 2.27614 1.95273 0
M  V30 4490 H 430.636 1.21035 0.988953 0
M  V30 4491 H 431.371 0.050998 3.2426 0
M  V30 4492 H 431.156 1.80968 3.4784 0
M  V30 4493 H 432.646 1.0037 4.05359 0
M  V30 4494 N 433.083 -1.0153 1.20538 0
M  V30 4495 C 434.499 -1.27461 0.96051 0
M  V30 4496 C 434.699 -1.98273 -0.359193 0
M  V30 4497 O 433.755 -2.27886 -1.0874 0
M  V30 4498 C 435.068 -2.10837 2.14402 0
M  V30 4499 C 436.616 -2.24099 2.18515 0
M  V30 4500 C 437.091 -3.10852 3.36355 0
M  V30 4501 N 438.582 -3.18441 3.36377 0
M  V30 4502 C 439.317 -3.85795 4.24205 0
M  V30 4503 N 438.813 -4.55264 5.22213 0
M  V30 4504 N 440.606 -3.82331 4.12043 0
M  V30 4505 H 432.757 -0.539907 2.05423 0
M  V30 4506 H 435.02 -0.30092 0.898972 0
M  V30 4507 H 434.726 -1.66144 3.09983 0
M  V30 4508 H 434.6 -3.11576 2.12604 0
M  V30 4509 H 436.987 -2.68016 1.23497 0
M  V30 4510 H 437.068 -1.22865 2.24361 0
M  V30 4511 H 436.712 -2.6764 4.31661 0
M  V30 4512 H 436.642 -4.12177 3.27746 0
M  V30 4513 H 439.133 -2.68978 2.65442 0
M  V30 4514 H 439.446 -5.04331 5.85551 0
M  V30 4515 H 437.791 -4.54085 5.26148 0
M  V30 4516 H 440.982 -3.27207 3.34743 0
M  V30 4517 H 441.155 -4.34547 4.807 0
M  V30 4518 N 434.561 -1.01147 -1.20859 0
M  V30 4519 C 435.791 -0.715872 -1.93801 0
M  V30 4520 C 436.199 0.726592 -1.74692 0
M  V30 4521 O 435.542 1.50397 -1.05482 0
M  V30 4522 C 435.604 -0.965269 -3.46299 0
M  V30 4523 C 435.268 -2.39584 -3.89164 0
M  V30 4524 C 436.265 -3.3764 -3.95342 0
M  V30 4525 C 433.95 -2.73522 -4.21297 0
M  V30 4526 C 435.944 -4.67698 -4.33056 0
M  V30 4527 C 433.631 -4.03794 -4.58687 0
M  V30 4528 C 434.629 -5.00693 -4.64538 0
M  V30 4529 O 434.317 -6.28635 -5.01072 0
M  V30 4530 H 434.049 -0.262524 -0.622942 0
M  V30 4531 H 436.603 -1.35413 -1.54443 0
M  V30 4532 H 434.833 -0.269847 -3.85757 0
M  V30 4533 H 436.522 -0.662051 -4.00464 0
M  V30 4534 H 437.288 -3.12757 -3.70686 0
M  V30 4535 H 433.167 -1.9879 -4.15937 0
M  V30 4536 H 436.711 -5.4333 -4.37537 0
M  V30 4537 H 432.608 -4.28459 -4.82797 0
M  V30 4538 H 433.376 -6.32847 -5.19083 0
M  V30 4539 N 436.039 1.36541 -0.78704 0
M  V30 4540 C 437.287 1.98911 -0.357633 0
M  V30 4541 C 437.608 1.62778 1.07371 0
M  V30 4542 O 436.878 0.900612 1.73971 0
M  V30 4543 H 435.458 0.735734 -0.129246 0
M  V30 4544 H 438.12 1.66776 -1.00855 0
M  V30 4545 H 437.216 3.08874 -0.447549 0
M  V30 4546 N 437.518 0.538854 1.48102 0
M  V30 4547 C 438.767 0.0059532 2.01699 0
M  V30 4548 C 439.08 -1.34476 1.42041 0
M  V30 4549 O 440.286 -1.96653 1.87189 0
M  V30 4550 C 438.742 -0.0397627 3.59878 0
M  V30 4551 C 438.35 1.30659 4.28523 0
M  V30 4552 C 440.094 -0.521024 4.2129 0
M  V30 4553 C 438.001 1.22098 5.78659 0
M  V30 4554 H 436.931 -0.00154456 0.753998 0
M  V30 4555 H 439.582 0.683963 1.70277 0
M  V30 4556 H 437.964 -0.783037 3.88181 0
M  V30 4557 H 439.138 2.06613 4.11883 0
M  V30 4558 H 437.453 1.7243 3.79021 0
M  V30 4559 H 440.05 -0.603184 5.31287 0
M  V30 4560 H 440.393 -1.52885 3.8721 0
M  V30 4561 H 440.926 0.166834 3.9745 0
M  V30 4562 H 437.665 2.20424 6.17328 0
M  V30 4563 H 437.185 0.50295 5.97688 0
M  V30 4564 H 438.864 0.915345 6.40492 0
M  V30 4565 N 438.996 -1.55193 0.274407 0
M  V30 4566 C 439.959 -2.212 -0.600279 0
M  V30 4567 C 440.959 -1.18963 -1.08187 0
M  V30 4568 O 442.149 -1.43873 -0.982158 0
M  V30 4569 C 439.281 -2.87739 -1.82809 0
M  V30 4570 H 440.474 -2.9989 -0.0239682 0
M  V30 4571 H 438.027 -1.5628 0.0250192 0
M  V30 4572 H 438.762 -2.13058 -2.44493 0
M  V30 4573 H 438.547 -3.62658 -1.49069 0
M  V30 4574 H 440.037 -3.38171 -2.45011 0
M  V30 4575 N 440.474 -0.00167713 -1.576 0
M  V30 4576 C 441.72 0.67819 -1.91761 0
M  V30 4577 C 442.075 1.71288 -0.876256 0
M  V30 4578 O 441.368 1.91276 0.111333 0
M  V30 4579 C 441.562 1.36189 -3.30435 0
M  V30 4580 C 441.391 0.394938 -4.47962 0
M  V30 4581 C 440.161 0.00472875 -5.053 0
M  V30 4582 C 442.359 -0.339521 -5.13178 0
M  V30 4583 N 440.341 -0.960257 -6.06343 0
M  V30 4584 C 441.712 -1.15914 -6.09068 0
M  V30 4585 C 443.767 -0.403177 -4.96265 0
M  V30 4586 C 442.47 -2.03661 -6.89866 0
M  V30 4587 C 444.496 -1.26788 -5.77649 0
M  V30 4588 C 443.858 -2.07535 -6.73134 0
M  V30 4589 H 439.957 0.221317 -0.750028 0
M  V30 4590 H 442.541 -0.0624182 -1.946 0
M  V30 4591 H 440.712 2.07278 -3.28467 0
M  V30 4592 H 442.444 1.99658 -3.52021 0
M  V30 4593 H 439.199 0.373452 -4.72125 0
M  V30 4594 H 439.623 -1.43817 -6.61548 0
M  V30 4595 H 444.265 0.206818 -4.22294 0
M  V30 4596 H 441.983 -2.65727 -7.63161 0
M  V30 4597 H 445.569 -1.32107 -5.66603 0
M  V30 4598 H 444.449 -2.73363 -7.35012 0
M  V30 4599 N 441.952 1.55251 0.271103 0
M  V30 4600 C 443.2 1.75599 1.00047 0
M  V30 4601 C 443.521 0.561188 1.8675 0
M  V30 4602 O 442.791 -0.423846 1.9126 0
M  V30 4603 H 441.371 0.647562 0.372387 0
M  V30 4604 H 444.033 1.92656 0.294876 0
M  V30 4605 H 443.129 2.65766 1.6363 0
M  V30 4606 N 443.43 -0.535701 1.48216 0
M  V30 4607 C 444.676 -1.29375 1.56173 0
M  V30 4608 C 445.009 -1.92804 0.232429 0
M  V30 4609 O 444.284 -1.78992 -0.761048 0
M  V30 4610 C 444.567 -2.38747 2.69577 0
M  V30 4611 C 444.42 -1.80046 4.12193 0
M  V30 4612 C 445.739 -3.40551 2.78771 0
M  V30 4613 H 442.858 -0.469027 0.568491 0
M  V30 4614 H 445.5 -0.597358 1.80365 0
M  V30 4615 H 443.65 -2.98147 2.4908 0
M  V30 4616 H 445.322 -1.24742 4.44114 0
M  V30 4617 H 443.565 -1.10609 4.19462 0
M  V30 4618 H 444.236 -2.59212 4.87353 0
M  V30 4619 H 446.712 -2.91099 2.97322 0
M  V30 4620 H 445.588 -4.1448 3.59857 0
M  V30 4621 H 445.849 -4.00746 1.86696 0
M  V30 4622 N 444.908 -1.36708 -0.784132 0
M  V30 4623 C 445.838 -1.34153 -1.91116 0
M  V30 4624 C 446.819 -0.212121 -1.68772 0
M  V30 4625 O 448.004 -0.410581 -1.8981 0
M  V30 4626 C 445.134 -1.13535 -3.28218 0
M  V30 4627 C 444.088 -2.23356 -3.65097 0
M  V30 4628 C 443.414 -1.87875 -5.00607 0
M  V30 4629 C 444.714 -3.65473 -3.73131 0
M  V30 4630 H 446.408 -2.28459 -1.93512 0
M  V30 4631 H 443.954 -1.09973 -0.929618 0
M  V30 4632 H 445.907 -1.10381 -4.06687 0
M  V30 4633 H 444.631 -0.156804 -3.26223 0
M  V30 4634 H 443.29 -2.25645 -2.88929 0
M  V30 4635 H 442.938 -0.885814 -4.95139 0
M  V30 4636 H 442.638 -2.61406 -5.26252 0
M  V30 4637 H 444.162 -1.86286 -5.81489 0
M  V30 4638 H 445.576 -3.65382 -4.41779 0
M  V30 4639 H 443.973 -4.37953 -4.10265 0
M  V30 4640 H 445.043 -3.99995 -2.74102 0
M  V30 4641 N 446.386 1.0089 -1.21074 0
M  V30 4642 C 447.634 1.74262 -1.02358 0
M  V30 4643 C 447.955 1.89869 0.444393 0
M  V30 4644 O 447.225 1.44677 1.32081 0
M  V30 4645 H 445.805 0.645615 -0.375754 0
M  V30 4646 H 448.467 1.21596 -1.52317 0
M  V30 4647 H 447.563 2.74328 -1.4883 0
M  V30 4648 N 447.864 1.01787 1.20321 0
M  V30 4649 C 448.827 0.593972 2.2137 0
M  V30 4650 C 449.827 -0.336553 1.57239 0
M  V30 4651 O 451.017 -0.125069 1.7375 0
M  V30 4652 C 448.149 -0.132433 3.40643 0
M  V30 4653 H 449.342 1.48791 2.60387 0
M  V30 4654 H 446.895 0.807803 1.33807 0
M  V30 4655 H 447.63 -1.04123 3.0713 0
M  V30 4656 H 447.415 0.53605 3.88418 0
M  V30 4657 H 448.905 -0.416314 4.1552 0
M  V30 4658 N 449.342 -1.36122 0.79427 0
M  V30 4659 C 450.567 -2.03891 0.379871 0
M  V30 4660 C 450.992 -1.59488 -0.997251 0
M  V30 4661 O 450.35 -0.765652 -1.64339 0
M  V30 4662 C 450.398 -3.57687 0.457442 0
M  V30 4663 O 449.502 -4.08931 -0.5338 0
M  V30 4664 H 448.843 -0.6443 0.160541 0
M  V30 4665 H 451.373 -1.73976 1.07673 0
M  V30 4666 H 451.383 -4.06721 0.322792 0
M  V30 4667 H 450.058 -3.89357 1.46199 0
M  V30 4668 H 448.635 -3.71154 -0.360409 0
M  V30 4669 N 450.82 -0.546701 -1.47814 0
M  V30 4670 C 451.73 0.21026 -2.33656 0
M  V30 4671 C 452.746 0.922413 -1.47538 0
M  V30 4672 O 453.922 0.893652 -1.80488 0
M  V30 4673 C 450.987 1.23348 -3.24016 0
M  V30 4674 C 450.048 0.529883 -4.26017 0
M  V30 4675 C 449.281 1.50435 -5.12059 0
M  V30 4676 O 449.504 2.73837 -5.00369 0
M  V30 4677 O 448.438 1.03459 -5.92942 0
M  V30 4678 H 452.264 -0.493605 -2.99662 0
M  V30 4679 H 449.849 -0.307427 -1.46203 0
M  V30 4680 H 451.731 1.82438 -3.79861 0
M  V30 4681 H 450.406 1.91945 -2.60651 0
M  V30 4682 H 449.313 -0.101948 -3.73961 0
M  V30 4683 H 450.646 -0.11445 -4.92067 0
M  V30 4684 N 452.299 1.55045 -0.282633 0
M  V30 4685 C 453.546 1.9976 0.33199 0
M  V30 4686 C 453.874 1.17105 1.55295 0
M  V30 4687 O 453.129 0.230599 1.94337 0
M  V30 4688 C 453.428 3.49422 0.750938 0
M  V30 4689 C 453.094 4.4941 -0.366228 0
M  V30 4690 C 451.756 4.76471 -0.672964 0
M  V30 4691 C 454.108 5.09054 -1.11864 0
M  V30 4692 C 451.436 5.60442 -1.73556 0
M  V30 4693 C 453.788 5.9418 -2.17102 0
M  V30 4694 C 452.452 6.19558 -2.48402 0
M  V30 4695 H 451.722 0.730974 0.121484 0
M  V30 4696 H 454.369 1.8732 -0.39791 0
M  V30 4697 H 452.674 3.59377 1.56063 0
M  V30 4698 H 454.371 3.81432 1.23736 0
M  V30 4699 H 450.961 4.2844 -0.117041 0
M  V30 4700 H 455.145 4.88165 -0.894925 0
M  V30 4701 H 450.401 5.78349 -1.983 0
M  V30 4702 H 454.575 6.39427 -2.75873 0
M  V30 4703 H 452.202 6.84417 -3.30874 0
M  V30 4704 N 453.777 0.010035 1.57597 0
M  V30 4705 C 455.017 -0.677084 1.9286 0
M  V30 4706 C 455.381 -1.70377 0.885192 0
M  V30 4707 O 456.582 -2.44199 1.12339 0
M  V30 4708 C 454.853 -1.29452 3.33132 0
M  V30 4709 S 456.412 -2.00537 3.90295 0
M  V30 4710 H 453.23 -0.223409 0.674989 0
M  V30 4711 H 455.832 0.0691289 1.95378 0
M  V30 4712 H 454.536 -0.534593 4.06903 0
M  V30 4713 H 454.067 -2.07845 3.34012 0
M  V30 4714 H 456.082 -3.28168 3.72183 0
M  V30 4715 N 455.255 -1.55392 -0.262866 0
M  V30 4716 C 456.185 -1.91978 -1.32917 0
M  V30 4717 C 457.166 -0.7828 -1.51017 0
M  V30 4718 O 458.351 -1.04178 -1.63892 0
M  V30 4719 C 455.481 -2.20055 -2.68687 0
M  V30 4720 C 454.435 -3.35854 -2.65304 0
M  V30 4721 C 453.761 -3.49435 -4.04721 0
M  V30 4722 C 455.061 -4.71977 -2.23685 0
M  V30 4723 H 456.755 -2.81292 -1.02544 0
M  V30 4724 H 454.301 -1.3534 -0.491846 0
M  V30 4725 H 456.254 -2.44237 -3.43404 0
M  V30 4726 H 454.978 -1.27551 -3.00663 0
M  V30 4727 H 453.637 -3.11655 -1.93045 0
M  V30 4728 H 453.285 -2.54379 -4.33936 0
M  V30 4729 H 452.985 -4.27297 -4.0335 0
M  V30 4730 H 454.509 -3.7592 -4.81161 0
M  V30 4731 H 455.923 -4.95637 -2.88127 0
M  V30 4732 H 454.32 -5.52828 -2.33456 0
M  V30 4733 H 455.39 -4.70115 -1.18827 0
M  V30 4734 N 456.733 0.527833 -1.48498 0
M  V30 4735 C 457.683 1.62844 -1.5958 0
M  V30 4736 C 458.667 1.54397 -0.452809 0
M  V30 4737 O 459.859 1.62381 -0.704364 0
M  V30 4738 C 456.988 3.01557 -1.64067 0
M  V30 4739 C 456.074 3.151 -2.83853 0
M  V30 4740 N 456.465 2.9861 -4.08247 0
M  V30 4741 C 454.763 3.46158 -2.8123 0
M  V30 4742 C 455.464 3.15626 -4.88626 0
M  V30 4743 N 454.44 3.43298 -4.21483 0
M  V30 4744 H 458.242 1.48708 -2.53502 0
M  V30 4745 H 455.756 0.733343 -1.44899 0
M  V30 4746 H 457.753 3.8062 -1.70101 0
M  V30 4747 H 456.413 3.16783 -0.712636 0
M  V30 4748 H 457.424 2.75329 -4.3865 0
M  V30 4749 H 454.101 3.67728 -1.97692 0
M  V30 4750 H 455.491 3.07596 -5.97356 0
M  V30 4751 N 458.211 1.37122 0.776871 0
M  V30 4752 C 459.439 1.3523 1.5659 0
M  V30 4753 C 459.854 -0.0635518 1.88693 0
M  V30 4754 O 459.211 -1.02394 1.51069 0
M  V30 4755 C 459.262 2.18583 2.8793 0
M  V30 4756 O 458.983 3.5465 2.57206 0
M  V30 4757 C 460.484 2.24612 3.82183 0
M  V30 4758 H 457.704 0.4634 0.485285 0
M  V30 4759 H 460.248 1.80392 0.963266 0
M  V30 4760 H 458.403 1.76943 3.4463 0
M  V30 4761 H 458.817 3.98286 3.41275 0
M  V30 4762 H 460.291 2.87267 4.71361 0
M  V30 4763 H 460.768 1.25309 4.20944 0
M  V30 4764 H 461.374 2.66543 3.31414 0
M  V30 4765 N 459.689 -1.00246 1.21608 0
M  V30 4766 C 460.652 -2.07233 0.979133 0
M  V30 4767 C 461.652 -1.6072 -0.0508219 0
M  V30 4768 O 462.842 -1.73196 0.186712 0
M  V30 4769 C 459.974 -3.37546 0.477016 0
M  V30 4770 H 461.167 -2.29687 1.92831 0
M  V30 4771 H 458.72 -1.17261 1.03342 0
M  V30 4772 H 459.455 -3.20773 -0.476966 0
M  V30 4773 H 459.24 -3.72638 1.21997 0
M  V30 4774 H 460.73 -4.16285 0.331181 0
M  V30 4775 N 461.167 -1.02423 -1.1978 0
M  V30 4776 C 462.583 -0.740459 -1.41384 0
M  V30 4777 C 462.783 0.676827 -1.89793 0
M  V30 4778 O 461.839 1.4435 -2.0717 0
M  V30 4779 C 463.152 -1.77264 -2.42895 0
M  V30 4780 C 464.7 -1.79165 -2.56649 0
M  V30 4781 C 465.175 -2.8133 -3.6141 0
M  V30 4782 N 466.666 -2.80118 -3.68901 0
M  V30 4783 C 467.401 -3.55824 -4.49641 0
M  V30 4784 N 466.897 -4.41231 -5.34123 0
M  V30 4785 N 468.69 -3.44387 -4.44246 0
M  V30 4786 H 460.841 -1.9391 -0.866764 0
M  V30 4787 H 463.104 -0.838074 -0.443098 0
M  V30 4788 H 462.81 -2.7884 -2.14339 0
M  V30 4789 H 462.684 -1.59108 -3.42001 0
M  V30 4790 H 465.071 -0.782702 -2.84531 0
M  V30 4791 H 465.152 -2.01396 -1.57713 0
M  V30 4792 H 464.796 -3.82394 -3.34271 0
M  V30 4793 H 464.726 -2.56359 -4.59986 0
M  V30 4794 H 467.217 -2.1817 -3.08562 0
M  V30 4795 H 467.53 -4.95747 -5.92836 0
M  V30 4796 H 465.875 -4.45306 -5.33599 0
M  V30 4797 H 469.066 -2.7708 -3.77285 0
M  V30 4798 H 469.239 -4.0364 -5.06931 0
M  V30 4799 N 462.645 1.35699 -0.801477 0
M  V30 4800 C 463.577 2.28598 -0.166028 0
M  V30 4801 C 464.59 1.50044 0.631721 0
M  V30 4802 O 465.779 1.72339 0.464921 0
M  V30 4803 C 462.879 3.29625 0.787451 0
M  V30 4804 C 462.052 4.37384 0.037171 0
M  V30 4805 C 461.111 5.183 0.908375 0
M  V30 4806 O 460.137 5.68053 0.361189 0
M  V30 4807 N 461.339 5.35912 2.23112 0
M  V30 4808 H 464.104 2.83771 -0.964071 0
M  V30 4809 H 461.665 1.47994 -0.656469 0
M  V30 4810 H 463.657 3.80648 1.37439 0
M  V30 4811 H 462.227 2.75004 1.48632 0
M  V30 4812 H 461.447 3.87364 -0.730935 0
M  V30 4813 H 462.735 5.0653 -0.480109 0
M  V30 4814 H 462.133 4.97125 2.69968 0
M  V30 4815 H 460.69 5.90133 2.76741 0
M  V30 4816 N 464.123 0.554532 1.47522 0
M  V30 4817 C 465.353 0.0342074 2.06572 0
M  V30 4818 C 465.761 -1.26375 1.40805 0
M  V30 4819 O 465.104 -1.7683 0.49769 0
M  V30 4820 C 465.166 -0.235096 3.5873 0
M  V30 4821 C 464.83 0.973024 4.46521 0
M  V30 4822 C 465.827 1.8779 4.848 0
M  V30 4823 C 463.512 1.18694 4.88075 0
M  V30 4824 C 465.506 2.98039 5.63428 0
M  V30 4825 C 463.193 2.29254 5.66468 0
M  V30 4826 C 464.191 3.18757 6.04055 0
M  V30 4827 O 463.879 4.27401 6.8087 0
M  V30 4828 H 463.611 0.041587 0.67472 0
M  V30 4829 H 466.165 0.766748 1.90552 0
M  V30 4830 H 464.395 -1.02191 3.72953 0
M  V30 4831 H 466.084 -0.700477 3.9981 0
M  V30 4832 H 466.85 1.72467 4.53299 0
M  V30 4833 H 462.729 0.49947 4.58286 0
M  V30 4834 H 466.273 3.67926 5.92685 0
M  V30 4835 H 462.17 2.4455 5.97382 0
M  V30 4836 H 462.938 4.25415 6.9926 0
M  V30 4837 N 465.601 -1.54893 0.290851 0
M  V30 4838 C 466.564 -2.21824 -0.576784 0
M  V30 4839 C 467.564 -1.20104 -1.06919 0
M  V30 4840 O 468.754 -1.44906 -0.966843 0
M  V30 4841 C 465.886 -2.89662 -1.79747 0
M  V30 4842 H 467.079 -2.99899 0.00784051 0
M  V30 4843 H 464.632 -1.56245 0.0415934 0
M  V30 4844 H 465.367 -2.15639 -2.42219 0
M  V30 4845 H 465.152 -3.64219 -1.45214 0
M  V30 4846 H 466.642 -3.4075 -2.4141 0
M  V30 4847 N 467.08 -0.0183926 -1.57589 0
M  V30 4848 C 468.01 0.965596 -2.12599 0
M  V30 4849 C 468.991 1.34641 -1.0395 0
M  V30 4850 O 470.176 1.42693 -1.31729 0
M  V30 4851 C 467.306 2.25149 -2.64434 0
M  V30 4852 C 466.26 2.01175 -3.77773 0
M  V30 4853 C 465.586 3.35937 -4.15994 0
M  V30 4854 C 466.886 1.35953 -5.04296 0
M  V30 4855 H 468.58 0.507504 -2.95067 0
M  V30 4856 H 466.126 0.242671 -1.41941 0
M  V30 4857 H 468.079 2.94357 -3.01549 0
M  V30 4858 H 466.803 2.73105 -1.79112 0
M  V30 4859 H 465.462 1.34388 -3.4108 0
M  V30 4860 H 465.11 3.81631 -3.27669 0
M  V30 4861 H 464.81 3.20705 -4.92364 0
M  V30 4862 H 466.334 4.0643 -4.55683 0
M  V30 4863 H 467.748 1.95144 -5.39065 0
M  V30 4864 H 466.145 1.31152 -5.85593 0
M  V30 4865 H 467.215 0.331071 -4.83768 0
M  V30 4866 N 468.558 1.5553 0.254621 0
M  V30 4867 C 469.835 1.6774 1.00611 0
M  V30 4868 C 470.215 0.555993 2.03647 0
M  V30 4869 O 469.563 -0.441583 2.24193 0
M  V30 4870 C 469.773 3.07725 1.6464 0
M  V30 4871 C 471.121 3.66074 2.15116 0
M  V30 4872 O 472.145 3.10476 1.74595 0
M  V30 4873 O 471.004 4.63526 2.89493 0
M  V30 4874 H 468.098 0.681958 0.467828 0
M  V30 4875 H 470.644 1.67863 0.24902 0
M  V30 4876 H 469.416 3.80792 0.900734 0
M  V30 4877 H 469.039 3.1158 2.46989 0
M  V30 4878 N 470.036 -0.519951 1.48776 0
M  V30 4879 C 471.452 -0.849418 1.35119 0
M  V30 4880 C 471.652 -1.98077 0.36982 0
M  V30 4881 O 470.708 -2.51664 -0.205359 0
M  V30 4882 C 472.021 -1.20748 2.75391 0
M  V30 4883 C 473.569 -1.31679 2.83954 0
M  V30 4884 C 474.044 -1.70824 4.24951 0
M  V30 4885 N 475.535 -1.77908 4.27672 0
M  V30 4886 C 476.27 -2.09603 5.33717 0
M  V30 4887 N 475.766 -2.39652 6.5003 0
M  V30 4888 N 477.559 -2.10694 5.21119 0
M  V30 4889 H 469.71 0.226377 2.1119 0
M  V30 4890 H 471.973 0.0386519 0.947212 0
M  V30 4891 H 471.679 -0.449703 3.48813 0
M  V30 4892 H 471.553 -2.15534 3.09556 0
M  V30 4893 H 473.94 -2.06532 2.10781 0
M  V30 4894 H 474.021 -0.3499 2.53396 0
M  V30 4895 H 473.665 -0.965282 4.98643 0
M  V30 4896 H 473.595 -2.6858 4.52959 0
M  V30 4897 H 476.086 -1.56923 3.43779 0
M  V30 4898 H 476.399 -2.6297 7.26682 0
M  V30 4899 H 474.744 -2.37149 6.53288 0
M  V30 4900 H 477.935 -1.86682 4.29264 0
M  V30 4901 H 478.108 -2.35062 6.03863 0
M  V30 4902 N 471.514 -1.37532 -0.769588 0
M  V30 4903 C 472.447 -1.27839 -1.8903 0
M  V30 4904 C 473.425 -0.158504 -1.61826 0
M  V30 4905 O 474.609 -0.333086 -1.85534 0
M  V30 4906 C 471.736 -0.977072 -3.24301 0
M  V30 4907 C 470.782 -2.11414 -3.70414 0
M  V30 4908 S 471.615 -3.73409 -3.83831 0
M  V30 4909 C 472.771 -3.45432 -5.21946 0
M  V30 4910 H 473.004 -2.22694 -1.96963 0
M  V30 4911 H 470.537 -1.2318 -0.930914 0
M  V30 4912 H 472.495 -0.810049 -4.02428 0
M  V30 4913 H 471.156 -0.0459701 -3.14066 0
M  V30 4914 H 470.349 -1.85837 -4.68488 0
M  V30 4915 H 469.951 -2.24141 -2.99394 0
M  V30 4916 H 472.243 -3.00554 -6.07185 0
M  V30 4917 H 473.186 -4.42841 -5.52537 0
M  V30 4918 H 473.594 -2.80311 -4.89986 0
M  V30 4919 N 472.992 0.995999 -1.22138 0
M  V30 4920 C 473.924 2.08745 -0.946485 0
M  V30 4921 C 474.937 1.62633 0.0737356 0
M  V30 4922 O 476.126 1.77782 -0.159886 0
M  V30 4923 C 473.226 3.36516 -0.401305 0
M  V30 4924 C 472.399 4.11672 -1.47801 0
M  V30 4925 C 471.458 5.17728 -0.940461 0
M  V30 4926 O 470.484 5.45482 -1.62596 0
M  V30 4927 N 471.686 5.80005 0.239723 0
M  V30 4928 H 474.451 2.32908 -1.88611 0
M  V30 4929 H 472.012 1.16152 -1.12785 0
M  V30 4930 H 474.004 4.04691 -0.0270837 0
M  V30 4931 H 472.574 3.0944 0.443354 0
M  V30 4932 H 471.794 3.38171 -2.02568 0
M  V30 4933 H 473.082 4.58657 -2.20253 0
M  V30 4934 H 472.48 5.5982 0.813518 0
M  V30 4935 H 471.037 6.4943 0.555361 0
M  V30 4936 N 474.47 1.03057 1.19235 0
M  V30 4937 C 475.717 0.728019 1.88961 0
M  V30 4938 C 476.045 -0.743515 1.79728 0
M  V30 4939 O 475.3 -1.55729 1.1852 0
M  V30 4940 C 475.599 1.1268 3.39172 0
M  V30 4941 C 475.265 2.5969 3.68608 0
M  V30 4942 C 473.927 2.99854 3.76352 0
M  V30 4943 C 476.279 3.54793 3.81801 0
M  V30 4944 C 473.607 4.34031 3.94758 0
M  V30 4945 C 475.959 4.88675 4.0172 0
M  V30 4946 C 474.623 5.28526 4.07697 0
M  V30 4947 H 473.893 0.266401 0.691456 0
M  V30 4948 H 476.54 1.29373 1.41191 0
M  V30 4949 H 474.845 0.479722 3.88852 0
M  V30 4950 H 476.542 0.870203 3.91444 0
M  V30 4951 H 473.132 2.27575 3.63191 0
M  V30 4952 H 477.316 3.24914 3.7516 0
M  V30 4953 H 472.572 4.6444 3.97625 0
M  V30 4954 H 476.746 5.6228 4.1087 0
M  V30 4955 H 474.373 6.32506 4.21712 0
M  V30 4956 N 475.948 -1.35272 0.808662 0
M  V30 4957 C 477.196 -1.98316 0.389233 0
M  V30 4958 C 477.517 -1.64465 -1.04767 0
M  V30 4959 O 476.787 -0.928175 -1.72516 0
M  V30 4960 H 475.367 -0.733585 0.140935 0
M  V30 4961 H 478.029 -1.6515 1.03496 0
M  V30 4962 H 477.125 -3.08123 0.496631 0
M  V30 4963 N 477.426 -0.562348 -1.47226 0
M  V30 4964 C 478.672 -0.0402761 -2.0276 0
M  V30 4965 C 479.005 1.30823 -1.43523 0
M  V30 4966 O 478.28 1.85249 -0.592705 0
M  V30 4967 C 478.563 0.047311 -3.60069 0
M  V30 4968 C 478.416 -1.32865 -4.29729 0
M  V30 4969 C 479.735 0.758182 -4.3352 0
M  V30 4970 H 476.854 -0.0161105 -0.736824 0
M  V30 4971 H 479.496 -0.725628 -1.75598 0
M  V30 4972 H 477.646 0.630986 -3.83342 0
M  V30 4973 H 479.318 -1.95593 -4.17781 0
M  V30 4974 H 477.561 -1.90195 -3.89882 0
M  V30 4975 H 478.232 -1.22004 -5.38349 0
M  V30 4976 H 480.708 0.262546 -4.15271 0
M  V30 4977 H 479.584 0.78844 -5.43208 0
M  V30 4978 H 479.845 1.81537 -4.03109 0
M  V30 4979 N 478.904 1.54736 -0.299062 0
M  V30 4980 C 480.315 1.8569 0.193971 0
M  V30 4981 C 480.666 1.22101 1.53577 0
M  V30 4982 O 479.791 0.51799 2.10109 0
M  V30 4983 C 480.386 3.36895 0.358733 0
M  V30 4984 C 478.945 3.67887 0.795986 0
M  V30 4985 C 478.092 2.77131 -0.096807 0
M  V30 4986 H 481.043 1.49934 -0.520134 0
M  V30 4987 H 481.064 3.61294 1.19361 0
M  V30 4988 H 480.576 3.83148 -0.617998 0
M  V30 4989 H 478.677 3.27151 1.78334 0
M  V30 4990 H 478.79 4.75114 0.616718 0
M  V30 4991 H 477.154 2.51153 0.423581 0
M  V30 4992 H 477.937 3.26204 -1.06986 0
M  V30 4993 N 480.382 0.0267497 1.57577 0
M  V30 4994 C 481.312 -0.954308 2.13108 0
M  V30 4995 C 482.293 -1.34088 1.04663 0
M  V30 4996 O 483.478 -1.41992 1.32484 0
M  V30 4997 C 480.608 -2.23744 2.65624 0
M  V30 4998 C 479.562 -1.99168 3.78835 0
M  V30 4999 C 478.888 -3.33726 4.17769 0
M  V30 5000 C 480.188 -1.33277 5.0501 0
M  V30 5001 H 481.882 -0.491848 2.95332 0
M  V30 5002 H 479.428 -0.23514 1.42067 0
M  V30 5003 H 481.381 -2.92754 3.03106 0
M  V30 5004 H 480.105 -2.72151 1.80558 0
M  V30 5005 H 478.764 -1.32577 3.41788 0
M  V30 5006 H 478.412 -3.79888 3.29688 0
M  V30 5007 H 478.112 -3.18089 4.94058 0
M  V30 5008 H 479.636 -4.04008 4.57832 0
M  V30 5009 H 481.05 -1.92283 5.40093 0
M  V30 5010 H 479.447 -1.28045 5.8628 0
M  V30 5011 H 480.517 -0.305411 4.83937 0
M  V30 5012 N 481.861 -1.55662 -0.24637 0
M  V30 5013 C 482.824 -1.89558 -1.28842 0
M  V30 5014 C 483.824 -0.772082 -1.41052 0
M  V30 5015 O 485.014 -1.04007 -1.39743 0
M  V30 5016 C 482.146 -2.12449 -2.66605 0
M  V30 5017 H 483.339 -2.82735 -1.00004 0
M  V30 5018 H 480.892 -1.48562 -0.485684 0
M  V30 5019 H 481.627 -1.21742 -3.00582 0
M  V30 5020 H 481.412 -2.94273 -2.59125 0
M  V30 5021 H 482.902 -2.39854 -3.41847 0
M  V30 5022 N 483.339 0.512053 -1.4905 0
M  V30 5023 C 484.755 0.84224 -1.35567 0
M  V30 5024 C 484.955 1.97878 -0.380319 0
M  V30 5025 O 484.011 2.51769 0.19201 0
M  V30 5026 C 485.324 1.19286 -2.76028 0
M  V30 5027 C 486.872 1.30171 -2.84648 0
M  V30 5028 C 487.347 1.68568 -4.25851 0
M  V30 5029 N 488.838 1.75638 -4.28609 0
M  V30 5030 C 489.573 2.06769 -5.34821 0
M  V30 5031 N 489.069 2.36201 -6.51292 0
M  V30 5032 N 490.862 2.07927 -5.22229 0
M  V30 5033 H 483.013 -0.237574 -2.11067 0
M  V30 5034 H 485.276 -0.0436747 -0.946993 0
M  V30 5035 H 484.982 0.431199 -3.49047 0
M  V30 5036 H 484.856 2.13889 -3.10695 0
M  V30 5037 H 487.243 2.05411 -2.11873 0
M  V30 5038 H 487.324 0.336457 -2.53578 0
M  V30 5039 H 486.968 0.938824 -4.99148 0
M  V30 5040 H 486.898 2.66174 -4.54377 0
M  V30 5041 H 489.389 1.55097 -3.44606 0
M  V30 5042 H 489.702 2.59112 -7.28066 0
M  V30 5043 H 488.047 2.33681 -6.54536 0
M  V30 5044 H 491.238 1.84403 -4.30248 0
M  V30 5045 H 491.411 2.31856 -6.05101 0
M  V30 5046 N 484.817 1.37938 0.762283 0
M  V30 5047 C 485.765 1.34569 1.89721 0
M  V30 5048 C 486.759 0.232929 1.67791 0
M  V30 5049 O 487.965 0.401485 1.75465 0
M  V30 5050 H 484.34 0.419594 0.624055 0
M  V30 5051 H 486.311 2.30357 1.8968 0
M  V30 5052 C 485.06 1.17898 3.27101 0
M  V30 5053 H 484.383 2.02781 3.44558 0
M  V30 5054 H 485.823 1.19593 4.06784 0
M  V30 5055 C 484.282 -0.114728 3.36705 0
M  V30 5056 O 484.812 -1.0949 3.8649 0
M  V30 5057 N 483.018 -0.16863 2.9011 0
M  V30 5058 H 482.565 0.62967 2.49786 0
M  V30 5059 H 482.523 -1.03383 2.96916 0
M  V30 5060 N 486.295 -0.989507 1.22664 0
M  V30 5061 C 487.227 -2.0824 0.957542 0
M  V30 5062 C 488.24 -1.6267 -0.0651098 0
M  V30 5063 O 489.429 -1.77695 0.169312 0
M  V30 5064 C 486.529 -3.36298 0.419145 0
M  V30 5065 C 485.702 -4.10882 1.49982 0
M  V30 5066 C 484.761 -5.17221 0.967904 0
M  V30 5067 O 483.787 -5.44613 1.65487 0
M  V30 5068 N 484.989 -5.80124 -0.20896 0
M  V30 5069 H 487.754 -2.31904 1.89843 0
M  V30 5070 H 485.315 -1.15552 1.13399 0
M  V30 5071 H 487.307 -4.04671 0.0485451 0
M  V30 5072 H 485.877 -3.09671 -0.426937 0
M  V30 5073 H 485.097 -3.37092 2.04359 0
M  V30 5074 H 486.385 -4.57482 2.22682 0
M  V30 5075 H 485.783 -5.60244 -0.783818 0
M  V30 5076 H 484.34 -6.49715 -0.520913 0
M  V30 5077 N 487.773 -1.03688 -1.18687 0
M  V30 5078 C 488.703 -0.645407 -2.24403 0
M  V30 5079 C 489.684 0.349511 -1.66471 0
M  V30 5080 O 490.869 0.230453 -1.92828 0
M  V30 5081 C 487.999 -0.00365337 -3.473 0
M  V30 5082 C 486.953 -0.921705 -4.17958 0
M  V30 5083 C 486.279 -0.144629 -5.34504 0
M  V30 5084 C 487.579 -2.23909 -4.71871 0
M  V30 5085 H 489.273 -1.52917 -2.57404 0
M  V30 5086 H 486.819 -0.736711 -1.23728 0
M  V30 5087 H 488.772 0.281908 -4.20456 0
M  V30 5088 H 487.496 0.914963 -3.13522 0
M  V30 5089 H 486.155 -1.19159 -3.46694 0
M  V30 5090 H 485.803 0.776274 -4.96974 0
M  V30 5091 H 485.503 -0.756206 -5.82714 0
M  V30 5092 H 487.027 0.134004 -6.10453 0
M  V30 5093 H 488.441 -2.0145 -5.36741 0
M  V30 5094 H 486.838 -2.8033 -5.30599 0
M  V30 5095 H 487.908 -2.88822 -3.895 0
M  V30 5096 N 489.251 1.34841 -0.815825 0
M  V30 5097 C 490.5 1.97755 -0.396976 0
M  V30 5098 C 490.813 1.65422 1.04379 0
M  V30 5099 O 492.019 2.21771 1.5662 0
M  V30 5100 C 490.475 3.53818 -0.658869 0
M  V30 5101 C 490.083 3.95051 -2.11278 0
M  V30 5102 C 491.827 4.23397 -0.305834 0
M  V30 5103 C 489.734 5.43997 -2.31994 0
M  V30 5104 H 488.664 0.739985 -0.1447 0
M  V30 5105 H 491.315 1.53781 -1.00118 0
M  V30 5106 H 489.697 3.95997 0.0154112 0
M  V30 5107 H 490.871 3.63998 -2.82564 0
M  V30 5108 H 489.186 3.38388 -2.42657 0
M  V30 5109 H 491.783 5.32899 -0.43854 0
M  V30 5110 H 492.126 4.09508 0.748952 0
M  V30 5111 H 492.659 3.8667 -0.934403 0
M  V30 5112 H 489.398 5.62865 -3.35952 0
M  V30 5113 H 488.918 5.76589 -1.65244 0
M  V30 5114 H 490.597 6.10584 -2.14001 0
M  V30 5115 N 490.729 0.570148 1.46925 0
M  V30 5116 C 491.661 -0.207909 2.28255 0
M  V30 5117 C 492.674 -0.867301 1.37774 0
M  V30 5118 O 493.863 -0.738976 1.62485 0
M  V30 5119 C 490.963 -1.31298 3.12433 0
M  V30 5120 C 490.136 -0.747915 4.30958 0
M  V30 5121 C 489.195 -1.7391 4.9663 0
M  V30 5122 O 488.221 -1.2801 5.54619 0
M  V30 5123 N 489.423 -3.07288 4.92498 0
M  V30 5124 H 492.188 0.489794 2.95671 0
M  V30 5125 H 489.749 0.407076 1.56699 0
M  V30 5126 H 491.741 -1.97507 3.53232 0
M  V30 5127 H 490.311 -1.91373 2.47175 0
M  V30 5128 H 489.531 0.0913066 3.94094 0
M  V30 5129 H 490.819 -0.349958 5.07595 0
M  V30 5130 H 490.217 -3.47213 4.46609 0
M  V30 5131 H 488.774 -3.69021 5.37277 0
M  V30 5132 N 492.207 -1.54576 0.307264 0
M  V30 5133 C 493.154 -2.23751 -0.56604 0
M  V30 5134 C 494.124 -1.22235 -1.12462 0
M  V30 5135 O 495.309 -1.50873 -1.16799 0
M  V30 5136 C 492.449 -2.98661 -1.72903 0
M  V30 5137 C 491.562 -4.14963 -1.20124 0
M  V30 5138 C 490.697 -4.77441 -2.3286 0
M  V30 5139 C 489.736 -5.85875 -1.77247 0
M  V30 5140 N 488.873 -6.42282 -2.8358 0
M  V30 5141 H 493.713 -2.97984 0.0304578 0
M  V30 5142 H 491.25 -1.47076 0.0268015 0
M  V30 5143 H 493.208 -3.40329 -2.41313 0
M  V30 5144 H 491.838 -2.26793 -2.29706 0
M  V30 5145 H 490.89 -3.78193 -0.409198 0
M  V30 5146 H 492.202 -4.93066 -0.754171 0
M  V30 5147 H 491.356 -5.21993 -3.09205 0
M  V30 5148 H 490.095 -3.98684 -2.80896 0
M  V30 5149 H 489.1 -5.40741 -0.993926 0
M  V30 5150 H 490.325 -6.6652 -1.30107 0
M  V30 5151 H 488.271 -5.66406 -3.30939 0
M  V30 5152 H 488.188 -7.1575 -2.43388 0
M  V30 5153 H 489.456 -6.91492 -3.59804 0
M  V30 5154 N 493.685 -0.035106 -1.57561 0
M  V30 5155 C 494.632 0.94474 -2.10578 0
M  V30 5156 C 495.602 1.3192 -1.00927 0
M  V30 5157 O 496.787 1.41147 -1.28382 0
M  V30 5158 C 493.927 2.21982 -2.64231 0
M  V30 5159 C 493.04 1.90128 -3.87911 0
M  V30 5160 C 492.175 3.11975 -4.29936 0
M  V30 5161 C 491.214 2.75968 -5.46359 0
M  V30 5162 N 490.351 3.90459 -5.83512 0
M  V30 5163 H 495.191 0.485717 -2.94015 0
M  V30 5164 H 492.728 0.228143 -1.4532 0
M  V30 5165 H 494.686 2.96572 -2.9343 0
M  V30 5166 H 493.316 2.6549 -1.83616 0
M  V30 5167 H 492.368 1.05755 -3.65404 0
M  V30 5168 H 493.68 1.59613 -4.72573 0
M  V30 5169 H 492.834 3.9488 -4.60603 0
M  V30 5170 H 491.573 3.45657 -3.44053 0
M  V30 5171 H 490.578 1.91478 -5.1538 0
M  V30 5172 H 491.803 2.43497 -6.33945 0
M  V30 5173 H 489.749 4.23971 -5.00584 0
M  V30 5174 H 489.666 3.63588 -6.62827 0
M  V30 5175 H 490.934 4.7405 -6.18787 0
M  V30 5176 N 495.163 1.55791 0.238111 0
M  V30 5177 C 496.093 1.94068 1.29846 0
M  V30 5178 C 497.074 0.806726 1.49753 0
M  V30 5179 O 498.259 1.06772 1.62214 0
M  V30 5180 C 495.389 2.24302 2.65153 0
M  V30 5181 C 494.343 3.40032 2.59927 0
M  V30 5182 C 493.669 3.55829 3.99111 0
M  V30 5183 C 494.969 4.75476 2.16148 0
M  V30 5184 H 496.663 2.82887 0.980563 0
M  V30 5185 H 494.209 1.36105 0.470253 0
M  V30 5186 H 496.162 2.4967 3.39475 0
M  V30 5187 H 494.886 1.32318 2.98596 0
M  V30 5188 H 493.545 3.14687 1.88063 0
M  V30 5189 H 493.193 2.6125 4.29834 0
M  V30 5190 H 492.893 4.3366 3.96501 0
M  V30 5191 H 494.417 3.83528 4.7512 0
M  V30 5192 H 495.831 5.00158 2.80205 0
M  V30 5193 H 494.228 5.56472 2.24631 0
M  V30 5194 H 495.298 4.71946 1.11333 0
M  V30 5195 N 496.642 -0.504142 1.49319 0
M  V30 5196 C 497.605 -1.5883 1.65244 0
M  V30 5197 C 498.605 -1.52009 0.524386 0
M  V30 5198 O 499.795 -1.55218 0.79077 0
M  V30 5199 C 496.927 -2.98481 1.64687 0
M  V30 5200 H 498.12 -1.4604 2.61939 0
M  V30 5201 H 495.673 -0.728144 1.38303 0
M  V30 5202 H 496.408 -3.16751 0.695644 0
M  V30 5203 H 496.193 -3.0484 2.46607 0
M  V30 5204 H 497.683 -3.77256 1.79075 0
M  V30 5205 N 498.12 -1.38341 -0.754957 0
M  V30 5206 C 499.397 -1.24995 -1.50451 0
M  V30 5207 C 499.777 0.149244 -2.10572 0
M  V30 5208 O 499.125 1.15861 -1.96948 0
M  V30 5209 C 499.335 -2.35904 -2.57197 0
M  V30 5210 C 500.683 -2.74262 -3.24138 0
M  V30 5211 O 501.707 -2.35205 -2.67501 0
M  V30 5212 O 500.566 -3.4161 -4.26574 0
M  V30 5213 H 497.66 -0.48872 -0.667144 0
M  V30 5214 H 500.206 -1.50165 -0.790486 0
M  V30 5215 H 498.978 -3.2953 -2.11011 0
M  V30 5216 H 498.601 -2.12291 -3.36182 0
M  V30 5217 N 499.598 0.982988 -1.23187 0
M  V30 5218 C 500.531 2.07302 -0.953993 0
M  V30 5219 C 501.509 1.62249 0.106753 0
M  V30 5220 O 502.693 1.88481 -0.0269525 0
M  V30 5221 C 499.82 3.35873 -0.436716 0
M  V30 5222 C 498.866 3.99862 -1.48367 0
M  V30 5223 S 499.699 4.39443 -3.06023 0
M  V30 5224 C 500.855 5.7117 -2.55959 0
M  V30 5225 H 501.088 2.30554 -1.87702 0
M  V30 5226 H 498.621 1.11883 -1.06403 0
M  V30 5227 H 500.579 4.10244 -0.144872 0
M  V30 5228 H 499.24 3.10634 0.465351 0
M  V30 5229 H 498.433 4.92471 -1.07182 0
M  V30 5230 H 498.035 3.31857 -1.72473 0
M  V30 5231 H 500.327 6.47977 -1.97818 0
M  V30 5232 H 501.27 6.17194 -3.47098 0
M  V30 5233 H 501.678 5.29046 -1.96902 0
M  V30 5234 N 501.076 1.04316 1.18135 0
M  V30 5235 C 502.006 0.657299 2.24058 0
M  V30 5236 C 502.987 -0.340678 1.66654 0
M  V30 5237 O 504.172 -0.220223 1.92947 0
M  V30 5238 C 501.302 0.0220715 3.47293 0
M  V30 5239 C 500.256 0.943857 4.17463 0
M  V30 5240 C 499.582 0.172973 5.3442 0
M  V30 5241 C 500.882 2.26409 4.70677 0
M  V30 5242 H 502.576 1.5428 2.56589 0
M  V30 5243 H 500.122 0.743263 1.23335 0
M  V30 5244 H 502.075 -0.259607 4.206 0
M  V30 5245 H 500.799 -0.898323 3.14003 0
M  V30 5246 H 499.458 1.20996 3.46057 0
M  V30 5247 H 499.106 -0.749907 4.97379 0
M  V30 5248 H 498.806 0.787098 5.82304 0
M  V30 5249 H 500.33 -0.101628 6.10515 0
M  V30 5250 H 501.744 2.04294 5.35665 0
M  V30 5251 H 500.141 2.8314 5.29105 0
M  V30 5252 H 501.211 2.90883 3.87962 0
M  V30 5253 N 502.554 -1.34406 0.822964 0
M  V30 5254 C 503.782 -2.02508 0.424039 0
M  V30 5255 C 504.197 -1.61975 -0.970022 0
M  V30 5256 O 503.554 -0.825228 -1.62777 0
M  V30 5257 C 503.605 -3.57789 0.516657 0
M  V30 5258 O 503.326 -3.96853 1.85577 0
M  V30 5259 C 504.827 -4.43157 0.112637 0
M  V30 5260 H 502.047 -0.649063 0.170173 0
M  V30 5261 H 504.591 -1.7168 1.11113 0
M  V30 5262 H 502.746 -3.87207 -0.122353 0
M  V30 5263 H 503.16 -4.91538 1.83005 0
M  V30 5264 H 504.634 -5.51527 0.228526 0
M  V30 5265 H 505.111 -4.28939 -0.943837 0
M  V30 5266 H 505.717 -4.19067 0.725449 0
M  V30 5267 N 504.032 -0.577932 -1.46621 0
M  V30 5268 C 504.942 0.160651 -2.34049 0
M  V30 5269 C 505.958 0.890911 -1.49462 0
M  V30 5270 O 507.134 0.855166 -1.82343 0
M  V30 5271 C 504.199 1.16447 -3.26559 0
M  V30 5272 C 503.26 0.4394 -4.27045 0
M  V30 5273 C 502.493 1.3954 -5.15135 0
M  V30 5274 O 502.716 2.63162 -5.06065 0
M  V30 5275 O 501.65 0.908585 -5.95003 0
M  V30 5276 H 505.476 -0.557057 -2.98547 0
M  V30 5277 H 503.061 -0.338369 -1.45518 0
M  V30 5278 H 504.943 1.7434 -3.83645 0
M  V30 5279 H 503.618 1.86373 -2.64663 0
M  V30 5280 H 502.525 -0.181247 -3.73661 0
M  V30 5281 H 503.858 -0.218799 -4.91713 0
M  V30 5282 N 505.51 1.54411 -0.315457 0
M  V30 5283 C 506.759 1.99599 0.290395 0
M  V30 5284 C 507.072 1.20746 1.53882 0
M  V30 5285 O 508.278 1.56272 2.22017 0
M  V30 5286 C 506.734 3.5539 0.56797 0
M  V30 5287 C 506.342 4.43068 -0.662945 0
M  V30 5288 C 508.086 4.09067 1.13422 0
M  V30 5289 C 505.993 5.90317 -0.357722 0
M  V30 5290 H 504.923 0.745592 0.112286 0
M  V30 5291 H 507.574 1.78477 -0.426418 0
M  V30 5292 H 505.956 3.72468 1.34476 0
M  V30 5293 H 507.13 4.37765 -1.43869 0
M  V30 5294 H 505.445 4.00238 -1.14884 0
M  V30 5295 H 508.042 5.16663 1.37707 0
M  V30 5296 H 508.385 3.60552 2.08106 0
M  V30 5297 H 508.918 3.95589 0.418805 0
M  V30 5298 H 505.657 6.4301 -1.27351 0
M  V30 5299 H 505.177 5.98592 0.380472 0
M  V30 5300 H 506.856 6.4699 0.0354284 0
M  V30 5301 N 506.988 0.0434614 1.5754 0
M  V30 5302 C 508.216 -0.641835 1.96693 0
M  V30 5303 C 508.631 -1.64832 0.920652 0
M  V30 5304 O 507.988 -1.82247 -0.095993 0
M  V30 5305 C 508.039 -1.33557 3.35924 0
M  V30 5306 O 507.76 -0.369403 4.3654 0
M  V30 5307 C 509.261 -2.11135 3.89791 0
M  V30 5308 H 506.481 -0.176013 0.647503 0
M  V30 5309 H 509.025 0.107478 2.04217 0
M  V30 5310 H 507.18 -2.03617 3.29574 0
M  V30 5311 H 507.594 -0.863674 5.1734 0
M  V30 5312 H 509.068 -2.55107 4.89514 0
M  V30 5313 H 509.545 -2.95634 3.24803 0
M  V30 5314 H 510.151 -1.46002 3.99454 0
M  V30 5315 N 508.466 -1.55915 -0.229846 0
M  V30 5316 C 509.396 -1.94754 -1.28815 0
M  V30 5317 C 510.377 -0.814657 -1.49323 0
M  V30 5318 O 511.562 -1.07631 -1.61645 0
M  V30 5319 C 508.692 -2.25705 -2.63959 0
M  V30 5320 C 507.646 -3.41406 -2.5812 0
M  V30 5321 C 506.972 -3.57941 -3.97218 0
M  V30 5322 C 508.272 -4.76616 -2.13623 0
M  V30 5323 H 509.966 -2.83404 -0.965547 0
M  V30 5324 H 507.512 -1.36353 -0.463028 0
M  V30 5325 H 509.465 -2.51467 -3.38146 0
M  V30 5326 H 508.189 -1.339 -2.9789 0
M  V30 5327 H 506.848 -3.1568 -1.86391 0
M  V30 5328 H 506.496 -2.63526 -4.28443 0
M  V30 5329 H 506.196 -4.35757 -3.94195 0
M  V30 5330 H 507.72 -3.86042 -4.73079 0
M  V30 5331 H 509.134 -5.01637 -2.77549 0
M  V30 5332 H 507.531 -5.57655 -2.21677 0
M  V30 5333 H 508.601 -4.7253 -1.08829 0
M  V30 5334 N 509.944 0.496216 -1.49584 0
M  V30 5335 C 511.192 1.24756 -1.58998 0
M  V30 5336 C 511.513 1.92968 -0.280775 0
M  V30 5337 O 510.783 1.82959 0.700198 0
M  V30 5338 H 509.363 0.463471 -0.585836 0
M  V30 5339 H 512.025 0.574678 -1.86235 0
M  V30 5340 H 511.121 2.00895 -2.38847 0
M  V30 5341 N 511.423 1.38739 0.74761 0
M  V30 5342 C 512.353 1.39173 1.87492 0
M  V30 5343 C 513.334 0.256794 1.6815 0
M  V30 5344 O 514.519 0.460762 1.88655 0
M  V30 5345 C 511.649 1.22197 3.25093 0
M  V30 5346 C 510.603 2.32957 3.59047 0
M  V30 5347 C 509.929 2.01082 4.95449 0
M  V30 5348 C 511.229 3.75237 3.6331 0
M  V30 5349 H 512.923 2.3351 1.87386 0
M  V30 5350 H 510.469 1.12399 0.900134 0
M  V30 5351 H 512.422 1.21124 4.03617 0
M  V30 5352 H 511.146 0.243241 3.25693 0
M  V30 5353 H 509.805 2.33226 2.82845 0
M  V30 5354 H 509.453 1.01678 4.92616 0
M  V30 5355 H 509.153 2.75267 5.19136 0
M  V30 5356 H 510.677 2.01638 5.76346 0
M  V30 5357 H 512.091 3.76966 4.31937 0
M  V30 5358 H 510.488 4.48677 3.98509 0
M  V30 5359 H 511.558 4.07122 2.634 0
M  V30 5360 N 512.901 -0.976442 1.23707 0
M  V30 5361 C 513.851 -2.0544 0.988851 0
M  V30 5362 C 514.835 -1.60762 -0.0665901 0
M  V30 5363 O 516.027 -1.76396 0.14604 0
M  V30 5364 C 513.156 -3.38258 0.586223 0
M  V30 5365 C 512.242 -3.89523 1.67728 0
M  V30 5366 N 512.633 -4.13823 2.90834 0
M  V30 5367 C 510.931 -4.18097 1.55277 0
M  V30 5368 C 511.632 -4.55731 3.61502 0
M  V30 5369 N 510.608 -4.60394 2.8903 0
M  V30 5370 H 514.41 -2.22191 1.92376 0
M  V30 5371 H 511.924 -1.15954 1.13704 0
M  V30 5372 H 513.921 -4.15075 0.389658 0
M  V30 5373 H 512.581 -3.22898 -0.341594 0
M  V30 5374 H 513.592 -4.01529 3.271 0
M  V30 5375 H 510.269 -4.11719 0.692351 0
M  V30 5376 H 511.659 -4.83018 4.67059 0
M  V30 5377 N 514.379 -1.04941 -1.1758 0
M  V30 5378 C 515.342 -0.652456 -2.19717 0
M  V30 5379 C 516.342 0.294745 -1.58076 0
M  V30 5380 O 517.532 0.0789579 -1.74021 0
M  V30 5381 C 514.664 0.0420712 -3.40874 0
M  V30 5382 H 515.857 -1.55642 -2.5635 0
M  V30 5383 H 513.41 -0.842995 -1.31618 0
M  V30 5384 H 514.145 0.95943 -3.09783 0
M  V30 5385 H 513.93 -0.638844 -3.86861 0
M  V30 5386 H 515.42 0.306 -4.16477 0
M  V30 5387 N 515.857 1.33968 -0.830081 0
M  V30 5388 C 517.097 1.99879 -0.427521 0
M  V30 5389 C 517.461 1.64355 0.992546 0
M  V30 5390 O 518.662 2.23164 1.49837 0
M  V30 5391 C 516.933 3.51771 -0.631815 0
M  V30 5392 S 518.492 4.37608 -0.323168 0
M  V30 5393 H 515.31 0.692485 -0.161202 0
M  V30 5394 H 517.912 1.63129 -1.07745 0
M  V30 5395 H 516.616 3.75113 -1.66488 0
M  V30 5396 H 516.147 3.93386 0.0325936 0
M  V30 5397 H 518.162 4.88683 0.860432 0
M  V30 5398 N 517.335 0.585699 1.46312 0
M  V30 5399 C 518.265 -0.133556 2.33118 0
M  V30 5400 C 519.246 -0.880707 1.45525 0
M  V30 5401 O 520.431 -0.855579 1.74337 0
M  V30 5402 C 517.561 -1.14585 3.27853 0
M  V30 5403 C 516.515 -0.513341 4.2491 0
M  V30 5404 C 515.841 -1.63231 5.09175 0
M  V30 5405 C 517.141 0.551413 5.19381 0
M  V30 5406 H 518.835 0.59121 2.93505 0
M  V30 5407 H 516.381 0.285761 1.41136 0
M  V30 5408 H 518.334 -1.65741 3.87438 0
M  V30 5409 H 517.058 -1.90093 2.65579 0
M  V30 5410 H 515.717 -0.0228349 3.66593 0
M  V30 5411 H 515.365 -2.37713 4.43285 0
M  V30 5412 H 515.065 -1.21473 5.74907 0
M  V30 5413 H 516.589 -2.14658 5.71624 0
M  V30 5414 H 518.003 0.124804 5.73164 0
M  V30 5415 H 516.4 0.889486 5.93471 0
M  V30 5416 H 517.47 1.43655 4.63132 0
M  V30 5417 N 518.813 -1.54241 0.323641 0
M  V30 5418 C 519.745 -2.21836 -0.576311 0
M  V30 5419 C 520.758 -1.21837 -1.07979 0
M  V30 5420 O 521.947 -1.48306 -0.99336 0
M  V30 5421 C 519.047 -2.86923 -1.80356 0
M  V30 5422 C 518.22 -4.1306 -1.43875 0
M  V30 5423 C 517.279 -4.6174 -2.52353 0
M  V30 5424 O 516.305 -5.26421 -2.16494 0
M  V30 5425 N 517.507 -4.35974 -3.83284 0
M  V30 5426 H 520.272 -2.997 0.00247987 0
M  V30 5427 H 517.833 -1.61233 0.146848 0
M  V30 5428 H 519.825 -3.16414 -2.52318 0
M  V30 5429 H 518.395 -2.12765 -2.29019 0
M  V30 5430 H 517.615 -3.90334 -0.550752 0
M  V30 5431 H 518.903 -4.95148 -1.17071 0
M  V30 5432 H 518.301 -3.84203 -4.15216 0
M  V30 5433 H 516.858 -4.70119 -4.51477 0
M  V30 5434 N 520.291 -0.0518155 -1.57515 0
M  V30 5435 C 521.221 0.920283 -2.146 0
M  V30 5436 C 522.202 1.32406 -1.06783 0
M  V30 5437 O 523.387 1.39866 -1.34726 0
M  V30 5438 C 520.517 2.1949 -2.6915 0
M  V30 5439 C 519.471 1.93116 -3.81956 0
M  V30 5440 C 518.797 3.27037 -4.23026 0
M  V30 5441 C 520.097 1.25225 -5.07066 0
M  V30 5442 H 521.791 0.444801 -2.96077 0
M  V30 5443 H 519.337 0.212508 -1.42423 0
M  V30 5444 H 521.29 2.87894 -3.07725 0
M  V30 5445 H 520.014 2.69244 -1.84865 0
M  V30 5446 H 518.673 1.27123 -3.43854 0
M  V30 5447 H 518.321 3.74595 -3.3569 0
M  V30 5448 H 518.021 3.10189 -4.99056 0
M  V30 5449 H 519.545 3.96673 -4.64202 0
M  V30 5450 H 520.959 1.83666 -5.43083 0
M  V30 5451 H 519.356 1.18702 -5.88243 0
M  V30 5452 H 520.426 0.228382 -4.84362 0
M  V30 5453 N 521.769 1.56035 0.221574 0
M  V30 5454 C 523.017 1.78693 0.944102 0
M  V30 5455 C 523.338 0.620317 1.8487 0
M  V30 5456 O 522.608 -0.362784 1.92512 0
M  V30 5457 H 521.188 0.659082 0.351597 0
M  V30 5458 H 523.85 1.93497 0.233435 0
M  V30 5459 H 522.946 2.70837 1.55093 0
M  V30 5460 N 523.247 -0.488276 1.49845 0
M  V30 5461 C 524.663 -0.820566 1.3689 0
M  V30 5462 C 524.863 -1.97248 0.411752 0
M  V30 5463 O 523.919 -2.52042 -0.151931 0
M  V30 5464 C 525.232 -1.1488 2.77891 0
M  V30 5465 C 526.78 -1.25626 2.86683 0
M  V30 5466 C 527.255 -1.61772 4.28479 0
M  V30 5467 N 528.746 -1.68797 4.31349 0
M  V30 5468 C 529.481 -1.98235 5.38043 0
M  V30 5469 N 528.977 -2.2581 6.54967 0
M  V30 5470 N 530.77 -1.99593 5.2547 0
M  V30 5471 H 522.921 0.271123 2.10662 0
M  V30 5472 H 525.184 0.058735 0.946179 0
M  V30 5473 H 524.89 -0.375614 3.49688 0
M  V30 5474 H 524.764 -2.08919 3.14058 0
M  V30 5475 H 527.151 -2.02014 2.15114 0
M  V30 5476 H 527.232 -0.296072 2.54081 0
M  V30 5477 H 526.876 -0.859295 5.00578 0
M  V30 5478 H 526.806 -2.58912 4.58554 0
M  V30 5479 H 529.297 -1.49595 3.4703 0
M  V30 5480 H 529.61 -2.47497 7.32096 0
M  V30 5481 H 527.955 -2.23239 6.58171 0
M  V30 5482 H 531.146 -1.77535 4.33127 0
M  V30 5483 H 531.319 -2.222 6.08713 0
M  V30 5484 N 524.725 -1.39134 -0.740242 0
M  V30 5485 C 525.655 -1.40165 -1.86751 0
M  V30 5486 C 526.636 -0.265708 -1.68012 0
M  V30 5487 O 527.821 -0.47076 -1.88408 0
M  V30 5488 C 524.951 -1.2392 -3.2444 0
M  V30 5489 C 523.905 -2.34858 -3.57807 0
M  V30 5490 C 523.231 -2.03707 -4.94376 0
M  V30 5491 C 524.531 -3.77159 -3.61315 0
M  V30 5492 H 526.225 -2.345 -1.86145 0
M  V30 5493 H 523.771 -1.12875 -0.89416 0
M  V30 5494 H 525.724 -1.23263 -4.02969 0
M  V30 5495 H 524.448 -0.26051 -3.25559 0
M  V30 5496 H 523.107 -2.34723 -2.81604 0
M  V30 5497 H 522.755 -1.04289 -4.9207 0
M  V30 5498 H 522.455 -2.78016 -5.17669 0
M  V30 5499 H 523.979 -2.04691 -5.75268 0
M  V30 5500 H 525.393 -3.79252 -4.29931 0
M  V30 5501 H 523.79 -4.50784 -3.96124 0
M  V30 5502 H 524.86 -4.08513 -2.61238 0
M  V30 5503 N 526.204 0.969867 -1.24223 0
M  V30 5504 C 527.151 2.06407 -1.0327 0
M  V30 5505 C 528.121 1.66014 0.0533 0
M  V30 5506 O 529.306 1.90533 -0.100896 0
M  V30 5507 C 526.446 3.3909 -0.641262 0
M  V30 5508 C 525.559 3.9269 -1.80051 0
M  V30 5509 C 524.694 5.13631 -1.35486 0
M  V30 5510 C 523.733 5.59423 -2.48419 0
M  V30 5511 N 522.87 6.71586 -2.04737 0
M  V30 5512 H 527.71 2.23663 -1.96923 0
M  V30 5513 H 525.247 1.09624 -0.980862 0
M  V30 5514 H 527.205 4.15323 -0.395351 0
M  V30 5515 H 525.835 3.21765 0.258269 0
M  V30 5516 H 524.887 3.13116 -2.16014 0
M  V30 5517 H 526.199 4.22636 -2.64916 0
M  V30 5518 H 525.353 5.97231 -1.0677 0
M  V30 5519 H 524.092 4.85364 -0.476722 0
M  V30 5520 H 523.097 4.74398 -2.77897 0
M  V30 5521 H 524.322 5.89705 -3.36786 0
M  V30 5522 H 522.268 6.45058 -1.19318 0
M  V30 5523 H 522.185 7.0097 -2.83156 0
M  V30 5524 H 523.453 7.58633 -1.79154 0
M  V30 5525 N 527.682 1.05563 1.17022 0
M  V30 5526 C 528.959 0.68165 1.83338 0
M  V30 5527 C 529.339 -0.837665 1.93769 0
M  V30 5528 O 528.687 -1.74507 1.47511 0
M  V30 5529 C 528.897 1.375 3.20772 0
M  V30 5530 C 530.245 1.51545 3.96635 0
M  V30 5531 O 531.269 1.33431 3.30264 0
M  V30 5532 O 530.128 1.812 5.15586 0
M  V30 5533 H 527.222 0.240412 0.791285 0
M  V30 5534 H 529.768 1.15545 1.24288 0
M  V30 5535 H 528.54 2.41135 3.08171 0
M  V30 5536 H 528.163 0.890798 3.87493 0
M  V30 5537 N 529.16 -1.33526 0.837174 0
M  V30 5538 C 530.092 -2.28077 0.226579 0
M  V30 5539 C 531.105 -1.51666 -0.591717 0
M  V30 5540 O 532.294 -1.73511 -0.419064 0
M  V30 5541 C 529.394 -3.31597 -0.69978 0
M  V30 5542 C 528.567 -4.37329 0.0788067 0
M  V30 5543 C 527.626 -5.20526 -0.770637 0
M  V30 5544 O 526.652 -5.68811 -0.210453 0
M  V30 5545 N 527.854 -5.41639 -2.08825 0
M  V30 5546 H 530.619 -2.81115 1.03897 0
M  V30 5547 H 528.18 -1.46201 0.695476 0
M  V30 5548 H 530.172 -3.84158 -1.27298 0
M  V30 5549 H 528.742 -2.78848 -1.41288 0
M  V30 5550 H 527.962 -3.8529 0.833381 0
M  V30 5551 H 529.25 -5.05079 0.614238 0
M  V30 5552 H 528.648 -5.04108 -2.56693 0
M  V30 5553 H 527.205 -5.97263 -2.60998 0
M  V30 5554 N 530.638 -0.59345 -1.46 0
M  V30 5555 C 531.915 -0.0157933 -1.95594 0
M  V30 5556 C 532.295 1.44807 -1.53604 0
M  V30 5557 O 531.643 2.14342 -0.791824 0
M  V30 5558 C 531.853 -0.199081 -3.48432 0
M  V30 5559 C 533.201 -0.0724943 -4.24538 0
M  V30 5560 O 534.225 -0.128469 -3.55968 0
M  V30 5561 O 533.084 0.0542426 -5.46473 0
M  V30 5562 H 530.178 0.043749 -0.825842 0
M  V30 5563 H 532.724 -0.662522 -1.56233 0
M  V30 5564 H 531.496 -1.21631 -3.71916 0
M  V30 5565 H 531.119 0.483576 -3.94648 0
M  V30 5566 N 532.116 1.54067 -0.331816 0
M  V30 5567 C 533.063 2.24623 0.530372 0
M  V30 5568 C 534.033 1.24009 1.10503 0
M  V30 5569 O 535.218 1.52712 1.14384 0
M  V30 5570 C 532.358 3.01374 1.68129 0
M  V30 5571 C 531.471 4.16821 1.13507 0
M  V30 5572 C 530.606 4.81085 2.25234 0
M  V30 5573 C 529.645 5.88621 1.67903 0
M  V30 5574 N 528.782 6.46713 2.73326 0
M  V30 5575 H 533.622 2.97898 -0.0778607 0
M  V30 5576 H 531.159 1.47014 -0.0501965 0
M  V30 5577 H 533.117 3.44125 2.35868 0
M  V30 5578 H 531.747 2.30419 2.26069 0
M  V30 5579 H 530.799 3.78796 0.348979 0
M  V30 5580 H 532.111 4.94203 0.675633 0
M  V30 5581 H 531.265 5.26846 3.00862 0
M  V30 5582 H 530.004 4.03102 2.74518 0
M  V30 5583 H 529.009 5.42254 0.907773 0
M  V30 5584 H 530.234 6.68506 1.19487 0
M  V30 5585 H 528.18 5.71599 3.21886 0
M  V30 5586 H 528.097 7.19532 2.3197 0
M  V30 5587 H 529.365 6.97129 3.48758 0
M  V30 5588 N 533.594 0.0601682 1.57485 0
M  V30 5589 C 534.557 -0.896373 2.10945 0
M  V30 5590 C 535.557 -1.23402 1.03095 0
M  V30 5591 O 536.747 -1.16921 1.29132 0
M  V30 5592 C 533.879 -2.20346 2.60116 0
M  V30 5593 H 535.072 -0.432778 2.96761 0
M  V30 5594 H 532.625 -0.188372 1.55161 0
M  V30 5595 H 533.36 -2.71268 1.7772 0
M  V30 5596 H 533.145 -1.9714 3.38937 0
M  V30 5597 H 534.635 -2.88846 3.01592 0
M  V30 5598 N 535.072 -1.5615 -0.213296 0
M  V30 5599 C 536.035 -1.92249 -1.24792 0
M  V30 5600 C 537.035 -0.801828 -1.39382 0
M  V30 5601 O 538.225 -1.06948 -1.37506 0
M  V30 5602 C 535.357 -2.18056 -2.62039 0
M  V30 5603 H 536.55 -2.84793 -0.939845 0
M  V30 5604 H 534.103 -1.49559 -0.454062 0
M  V30 5605 H 534.838 -1.2809 -2.97932 0
M  V30 5606 H 534.623 -2.99703 -2.52825 0
M  V30 5607 H 536.113 -2.47051 -3.36683 0
M  V30 5608 N 536.55 0.480323 -1.50102 0
M  V30 5609 C 537.961 1.06142 -1.53593 0
M  V30 5610 C 538.312 1.93335 -0.334055 0
M  V30 5611 O 537.437 2.09188 0.55403 0
M  V30 5612 C 538.032 1.9317 -2.78336 0
M  V30 5613 C 536.591 2.46405 -2.84538 0
M  V30 5614 C 535.738 1.24521 -2.4777 0
M  V30 5615 H 538.689 0.26333 -1.565 0
M  V30 5616 H 538.71 2.78123 -2.59669 0
M  V30 5617 H 538.222 1.29683 -3.65792 0
M  V30 5618 H 536.323 3.13472 -2.01411 0
M  V30 5619 H 536.436 2.82143 -3.87211 0
M  V30 5620 H 534.8 1.57706 -2.00003 0
M  V30 5621 H 535.583 0.627102 -3.37524 0
M  V30 5622 N 538.028 1.39524 0.732853 0
M  V30 5623 C 538.938 1.40695 1.87729 0
M  V30 5624 C 539.954 0.301496 1.71368 0
M  V30 5625 O 541.13 0.543313 1.93933 0
M  V30 5626 C 538.195 1.25098 3.23344 0
M  V30 5627 C 537.256 2.45634 3.52083 0
M  V30 5628 C 536.489 2.30772 4.81228 0
M  V30 5629 O 536.712 1.31233 5.55098 0
M  V30 5630 O 535.646 3.19799 5.09914 0
M  V30 5631 H 539.472 2.37168 1.89697 0
M  V30 5632 H 537.057 1.20663 0.880959 0
M  V30 5633 H 538.939 1.18541 4.04383 0
M  V30 5634 H 537.614 0.317209 3.22142 0
M  V30 5635 H 536.521 2.57767 2.71122 0
M  V30 5636 H 537.854 3.37712 3.58066 0
M  V30 5637 N 539.506 -0.963266 1.24736 0
M  V30 5638 C 540.439 -2.05758 0.986852 0
M  V30 5639 C 541.417 -1.62398 -0.0809272 0
M  V30 5640 O 542.601 -1.88414 0.0569347 0
M  V30 5641 C 539.728 -3.35135 0.490095 0
M  V30 5642 C 538.774 -3.97451 1.54709 0
M  V30 5643 S 539.607 -4.34519 3.12976 0
M  V30 5644 C 540.763 -5.67026 2.65014 0
M  V30 5645 H 540.996 -2.27539 1.91346 0
M  V30 5646 H 538.529 -1.10176 1.08169 0
M  V30 5647 H 540.487 -4.09962 0.21012 0
M  V30 5648 H 539.148 -3.11335 -0.415873 0
M  V30 5649 H 538.341 -4.90704 1.15003 0
M  V30 5650 H 537.943 -3.29071 1.77731 0
M  V30 5651 H 540.235 -6.44748 2.08102 0
M  V30 5652 H 541.178 -6.11594 3.56873 0
M  V30 5653 H 541.586 -5.25847 2.05294 0
M  V30 5654 N 540.985 -1.06182 -1.16461 0
M  V30 5655 C 542.231 -0.779015 -1.87241 0
M  V30 5656 C 542.564 0.692715 -1.81425 0
M  V30 5657 O 541.839 1.5074 -1.22913 0
M  V30 5658 C 542.122 -1.2728 -3.36856 0
M  V30 5659 C 541.975 -2.80821 -3.51368 0
M  V30 5660 C 543.294 -0.879799 -4.31216 0
M  V30 5661 H 540.413 -0.284464 -0.679889 0
M  V30 5662 H 543.055 -1.31755 -1.36896 0
M  V30 5663 H 541.205 -0.814673 -3.79862 0
M  V30 5664 H 542.877 -3.34833 -3.17308 0
M  V30 5665 H 541.12 -3.19606 -2.93316 0
M  V30 5666 H 541.791 -3.10435 -4.56436 0
M  V30 5667 H 544.267 -1.27436 -3.96105 0
M  V30 5668 H 543.143 -1.25278 -5.34412 0
M  V30 5669 H 543.404 0.215372 -4.41575 0
M  V30 5670 N 542.463 1.3308 -0.844243 0
M  V30 5671 C 543.688 2.02341 -0.455282 0
M  V30 5672 C 544.113 1.6308 0.93737 0
M  V30 5673 O 543.471 0.826118 1.61385 0
M  V30 5674 C 543.519 3.55743 -0.58988 0
M  V30 5675 O 542.623 4.1063 0.38166 0
M  V30 5676 H 541.964 0.637898 -0.184343 0
M  V30 5677 H 544.494 1.6986 -1.14056 0
M  V30 5678 H 544.504 4.05243 -0.473522 0
M  V30 5679 H 543.179 3.83662 -1.60549 0
M  V30 5680 H 541.756 3.72236 0.22241 0
M  V30 5681 N 543.941 0.601185 1.45683 0
M  V30 5682 C 544.871 -0.108824 2.33246 0
M  V30 5683 C 545.852 -0.865223 1.46451 0
M  V30 5684 O 547.037 -0.83704 1.75235 0
M  V30 5685 C 544.167 -1.11101 3.2905 0
M  V30 5686 C 543.121 -0.468244 4.25431 0
M  V30 5687 C 542.447 -1.57822 5.10878 0
M  V30 5688 C 543.747 0.606469 5.18767 0
M  V30 5689 H 545.441 0.622306 2.92861 0
M  V30 5690 H 542.987 0.300714 1.40825 0
M  V30 5691 H 544.94 -1.61622 3.89174 0
M  V30 5692 H 543.664 -1.87265 2.67581 0
M  V30 5693 H 542.323 0.0160484 3.66596 0
M  V30 5694 H 541.971 -2.32998 4.45781 0
M  V30 5695 H 541.671 -1.15369 5.76163 0
M  V30 5696 H 543.195 -2.08583 5.73869 0
M  V30 5697 H 544.609 0.185589 5.73 0
M  V30 5698 H 543.006 0.952381 5.92494 0
M  V30 5699 H 544.076 1.48559 4.61582 0
M  V30 5700 N 545.419 -1.53889 0.339982 0
M  V30 5701 C 546.349 -2.27843 -0.510856 0
M  V30 5702 C 547.33 -1.29267 -1.10563 0
M  V30 5703 O 548.515 -1.58104 -1.12768 0
M  V30 5704 C 545.645 -3.04857 -1.66372 0
M  V30 5705 C 544.599 -4.10907 -1.19746 0
M  V30 5706 C 543.925 -4.75855 -2.43857 0
M  V30 5707 C 545.225 -5.21435 -0.300501 0
M  V30 5708 H 546.919 -2.99212 0.106067 0
M  V30 5709 H 544.465 -1.43904 0.0524533 0
M  V30 5710 H 546.418 -3.5533 -2.26537 0
M  V30 5711 H 545.142 -2.31133 -2.30749 0
M  V30 5712 H 543.801 -3.61342 -0.618654 0
M  V30 5713 H 543.449 -3.9873 -3.06633 0
M  V30 5714 H 543.149 -5.47502 -2.13343 0
M  V30 5715 H 544.673 -5.2911 -3.04754 0
M  V30 5716 H 546.087 -5.67565 -0.80889 0
M  V30 5717 H 544.484 -6.00036 -0.0874076 0
M  V30 5718 H 545.554 -4.80328 0.664321 0
M  V30 5719 N 546.897 -0.0685191 -1.57451 0
M  V30 5720 C 547.844 0.899861 -2.12535 0
M  V30 5721 C 548.814 1.29749 -1.03703 0
M  V30 5722 O 549.999 1.38392 -1.31348 0
M  V30 5723 C 547.139 2.16328 -2.6888 0
M  V30 5724 C 546.252 1.81857 -3.91857 0
M  V30 5725 C 545.387 3.02786 -4.36457 0
M  V30 5726 C 544.426 2.64317 -5.5209 0
M  V30 5727 N 543.563 3.77994 -5.91663 0
M  V30 5728 H 548.403 0.423243 -2.94979 0
M  V30 5729 H 545.94 0.197268 -1.45771 0
M  V30 5730 H 547.898 2.90281 -2.99655 0
M  V30 5731 H 546.528 2.61536 -1.89206 0
M  V30 5732 H 545.58 0.979808 -3.67565 0
M  V30 5733 H 546.892 1.49553 -4.75852 0
M  V30 5734 H 546.046 3.85021 -4.68875 0
M  V30 5735 H 544.785 3.38281 -3.51308 0
M  V30 5736 H 543.79 1.80503 -5.19325 0
M  V30 5737 H 545.015 2.29995 -6.38967 0
M  V30 5738 H 542.961 4.13258 -5.09464 0
M  V30 5739 H 542.878 3.49447 -6.7039 0
M  V30 5740 H 544.146 4.60818 -6.28703 0
M  V30 5741 N 548.375 1.56261 0.205012 0
M  V30 5742 C 549.791 1.49623 0.555433 0
M  V30 5743 C 549.991 0.766719 1.86343 0
M  V30 5744 O 549.047 0.313158 2.50551 0
M  V30 5745 C 550.36 2.94253 0.619347 0
M  V30 5746 C 551.908 3.04868 0.708855 0
M  V30 5747 C 552.383 4.50888 0.803969 0
M  V30 5748 N 553.874 4.54999 0.867758 0
M  V30 5749 C 554.609 5.65284 0.96135 0
M  V30 5750 N 554.105 6.85282 1.01786 0
M  V30 5751 N 555.898 5.53174 0.997771 0
M  V30 5752 H 548.049 2.0211 -0.653094 0
M  V30 5753 H 550.312 0.919333 -0.231366 0
M  V30 5754 H 550.018 3.50643 -0.272458 0
M  V30 5755 H 549.892 3.47063 1.47741 0
M  V30 5756 H 552.279 2.48532 1.5911 0
M  V30 5757 H 552.36 2.55199 -0.175205 0
M  V30 5758 H 552.004 5.07846 -0.0738798 0
M  V30 5759 H 551.934 4.98279 1.70369 0
M  V30 5760 H 554.425 3.68588 0.833735 0
M  V30 5761 H 554.738 7.65081 1.08951 0
M  V30 5762 H 553.083 6.8796 0.986706 0
M  V30 5763 H 556.274 4.5835 0.950392 0
M  V30 5764 H 556.447 6.39151 1.06725 0
M  V30 5765 N 549.853 -0.472356 1.50355 0
M  V30 5766 C 550.801 -1.59126 1.69651 0
M  V30 5767 C 551.795 -1.59793 0.56237 0
M  V30 5768 O 553.001 -1.63957 0.742832 0
M  V30 5769 H 549.376 -0.528008 0.535454 0
M  V30 5770 H 551.347 -1.40013 2.63513 0
M  V30 5771 C 550.096 -2.97075 1.8067 0
M  V30 5772 H 549.419 -2.9728 2.67329 0
M  V30 5773 H 550.859 -3.74825 1.98197 0
M  V30 5774 C 549.318 -3.32247 0.558016 0
M  V30 5775 O 549.848 -4.00553 -0.303399 0
M  V30 5776 N 548.054 -2.87659 0.412415 0
M  V30 5777 H 547.601 -2.32246 1.11443 0
M  V30 5778 H 547.559 -3.11556 -0.421908 0
M  V30 5779 N 551.331 -1.39911 -0.725443 0
M  V30 5780 C 552.279 -1.39552 -1.86086 0
M  V30 5781 C 553.273 -0.277334 -1.67114 0
M  V30 5782 O 554.479 -0.447865 -1.74339 0
M  V30 5783 H 550.854 -0.435993 -0.612711 0
M  V30 5784 H 552.825 -2.35305 -1.83505 0
M  V30 5785 C 551.574 -1.26529 -3.2386 0
M  V30 5786 H 550.897 -2.11845 -3.3906 0
M  V30 5787 H 552.337 -1.30336 -4.03471 0
M  V30 5788 C 550.796 0.0254168 -3.3689 0
M  V30 5789 O 551.326 0.992048 -3.89257 0
M  V30 5790 N 549.532 0.0916528 -2.90455 0
M  V30 5791 H 549.079 -0.695675 -2.48028 0
M  V30 5792 H 549.037 0.954745 -2.99553 0
M  V30 5793 N 552.809 0.956637 -1.25245 0
M  V30 5794 C 554.049 1.71585 -1.11076 0
M  V30 5795 C 554.413 1.88916 0.34277 0
M  V30 5796 O 555.614 2.61875 0.606227 0
M  V30 5797 C 553.885 3.06267 -1.84215 0
M  V30 5798 S 555.444 3.97469 -1.85914 0
M  V30 5799 H 552.262 0.589803 -0.397055 0
M  V30 5800 H 554.864 1.14114 -1.58739 0
M  V30 5801 H 553.568 2.91322 -2.89067 0
M  V30 5802 H 553.099 3.688 -1.36931 0
M  V30 5803 H 555.114 4.87316 -0.93474 0
M  V30 5804 N 554.287 1.06798 1.15896 0
M  V30 5805 C 555.535 0.786211 1.8618 0
M  V30 5806 C 555.856 -0.689547 1.82401 0
M  V30 5807 O 555.126 -1.49913 1.26107 0
M  V30 5808 H 553.706 0.287843 0.689315 0
M  V30 5809 H 556.368 1.35055 1.40521 0
M  V30 5810 H 555.464 1.1157 2.91477 0
M  V30 5811 N 555.766 -1.3263 0.851289 0
M  V30 5812 C 556.713 -2.28952 0.291469 0
M  V30 5813 C 557.683 -1.54897 -0.599676 0
M  V30 5814 O 558.868 -1.83137 -0.535305 0
M  V30 5815 C 556.008 -3.41206 -0.516992 0
M  V30 5816 C 555.121 -4.30148 0.399566 0
M  V30 5817 C 554.256 -5.29527 -0.4212 0
M  V30 5818 C 553.295 -6.10112 0.492969 0
M  V30 5819 N 552.432 -7.01499 -0.290414 0
M  V30 5820 H 557.272 -2.76228 1.11813 0
M  V30 5821 H 554.809 -1.35907 0.562826 0
M  V30 5822 H 556.767 -4.05005 -1.00132 0
M  V30 5823 H 555.397 -2.9509 -1.30851 0
M  V30 5824 H 554.449 -3.66959 1.00227 0
M  V30 5825 H 555.761 -4.8649 1.1013 0
M  V30 5826 H 554.915 -5.98914 -0.968832 0
M  V30 5827 H 553.654 -4.73794 -1.15632 0
M  V30 5828 H 552.659 -5.39632 1.05251 0
M  V30 5829 H 553.884 -6.6793 1.22664 0
M  V30 5830 H 551.83 -6.48199 -1.00868 0
M  V30 5831 H 551.747 -7.55178 0.352354 0
M  V30 5832 H 553.015 -7.75176 -0.819882 0
M  V30 5833 N 557.244 -0.608902 -1.45362 0
M  V30 5834 C 558.207 0.0992563 -2.28985 0
M  V30 5835 C 559.207 0.793841 -1.39838 0
M  V30 5836 O 560.397 0.641804 -1.61946 0
M  V30 5837 C 557.529 1.15073 -3.20891 0
M  V30 5838 H 558.722 -0.635964 -2.93079 0
M  V30 5839 H 556.275 -0.368007 -1.51906 0
M  V30 5840 H 557.01 1.91667 -2.616 0
M  V30 5841 H 556.795 0.656867 -3.86559 0
M  V30 5842 H 558.285 1.64665 -3.83765 0
M  V30 5843 N 558.722 1.53707 -0.348139 0
M  V30 5844 C 559.652 2.28111 0.498766 0
M  V30 5845 C 560.633 1.29851 1.09876 0
M  V30 5846 O 561.818 1.587 1.11928 0
M  V30 5847 C 558.948 3.05735 1.64753 0
M  V30 5848 C 557.902 4.11537 1.17565 0
M  V30 5849 C 557.228 4.77142 2.4133 0
M  V30 5850 C 558.528 5.21587 0.272844 0
M  V30 5851 H 560.222 2.99152 -0.121934 0
M  V30 5852 H 557.768 1.43875 -0.0600842 0
M  V30 5853 H 559.721 3.56526 2.24649 0
M  V30 5854 H 558.445 2.32354 2.2952 0
M  V30 5855 H 557.104 3.61665 0.599483 0
M  V30 5856 H 556.752 4.0035 3.04514 0
M  V30 5857 H 556.452 5.48626 2.10436 0
M  V30 5858 H 557.976 5.30719 3.01943 0
M  V30 5859 H 559.39 5.67986 0.778779 0
M  V30 5860 H 557.787 6.00074 0.0555849 0
M  V30 5861 H 558.857 4.79969 -0.689785 0
M  V30 5862 N 560.2 0.0768682 1.57412 0
M  V30 5863 C 561.477 -0.632359 1.85096 0
M  V30 5864 C 561.857 -1.87479 0.9703 0
M  V30 5865 O 561.205 -2.28469 0.0379062 0
M  V30 5866 C 561.415 -0.965174 3.35388 0
M  V30 5867 C 562.763 -1.33648 4.03018 0
M  V30 5868 O 563.787 -1.05675 3.40164 0
M  V30 5869 O 562.646 -1.85959 5.13889 0
M  V30 5870 H 559.74 -0.314574 0.764835 0
M  V30 5871 H 562.286 0.108184 1.69355 0
M  V30 5872 H 561.058 -0.0829745 3.91212 0
M  V30 5873 H 560.681 -1.76231 3.5641 0
M  V30 5874 N 561.678 -1.56367 -0.196722 0
M  V30 5875 C 562.927 -1.79724 -0.915539 0
M  V30 5876 C 563.24 -0.649804 -1.84491 0
M  V30 5877 O 564.446 -0.767631 -2.60422 0
M  V30 5878 C 562.902 -3.18369 -1.67836 0
M  V30 5879 C 562.51 -4.4091 -0.793897 0
M  V30 5880 C 564.254 -3.51037 -2.38691 0
M  V30 5881 C 562.161 -5.70577 -1.55549 0
M  V30 5882 H 561.091 -0.67013 -0.345604 0
M  V30 5883 H 563.742 -1.82721 -0.168856 0
M  V30 5884 H 562.124 -3.09617 -2.46887 0
M  V30 5885 H 563.298 -4.60781 -0.042163 0
M  V30 5886 H 561.613 -4.15937 -0.19626 0
M  V30 5887 H 564.21 -4.4515 -2.96219 0
M  V30 5888 H 564.553 -2.74704 -3.12799 0
M  V30 5889 H 565.086 -3.61229 -1.66608 0
M  V30 5890 H 561.825 -6.49871 -0.857226 0
M  V30 5891 H 561.345 -5.54726 -2.2812 0
M  V30 5892 H 563.024 -6.11637 -2.10971 0
M  V30 5893 N 563.156 0.464375 -1.50603 0
M  V30 5894 C 564.119 1.54393 -1.69397 0
M  V30 5895 C 565.119 1.50566 -0.564504 0
M  V30 5896 O 566.309 1.53066 -0.831645 0
M  V30 5897 C 563.441 2.9401 -1.72543 0
M  V30 5898 H 564.634 1.39044 -2.65719 0
M  V30 5899 H 562.187 0.69122 -1.40185 0
M  V30 5900 H 562.922 3.14795 -0.77938 0
M  V30 5901 H 562.707 2.98195 -2.54602 0
M  V30 5902 H 564.197 3.72375 -1.89015 0
M  V30 5903 N 564.634 1.40294 0.718013 0
M  V30 5904 C 566.05 1.2227 1.02577 0
M  V30 5905 C 566.25 0.0961976 2.0127 0
M  V30 5906 O 565.306 -0.546695 2.46511 0
M  V30 5907 C 566.619 2.56348 1.57182 0
M  V30 5908 C 568.167 2.6334 1.69178 0
M  V30 5909 C 568.642 3.9768 2.27188 0
M  V30 5910 N 570.133 3.99409 2.34578 0
M  V30 5911 C 570.868 5.00141 2.8044 0
M  V30 5912 N 570.364 6.11268 3.26073 0
M  V30 5913 N 572.157 4.87511 2.79802 0
M  V30 5914 H 564.308 2.12304 0.0637899 0
M  V30 5915 H 566.571 0.943632 0.0909036 0
M  V30 5916 H 566.277 3.3942 0.921262 0
M  V30 5917 H 566.151 2.77266 2.55741 0
M  V30 5918 H 568.538 1.80641 2.33351 0
M  V30 5919 H 568.619 2.46255 0.692247 0
M  V30 5920 H 568.263 4.80817 1.63638 0
M  V30 5921 H 568.193 4.12093 3.27852 0
M  V30 5922 H 570.684 3.19162 2.02346 0
M  V30 5923 H 570.997 6.84023 3.59628 0
M  V30 5924 H 569.342 6.14837 3.24038 0
M  V30 5925 H 572.533 3.9979 2.43487 0
M  V30 5926 H 572.706 5.66158 3.15228 0
M  V30 5927 N 566.112 -0.949982 1.2575 0
M  V30 5928 C 567.044 -2.05088 1.02331 0
M  V30 5929 C 568.057 -1.62795 -0.0133247 0
M  V30 5930 O 569.246 -1.77067 0.225759 0
M  V30 5931 C 566.346 -3.34794 0.525924 0
M  V30 5932 C 565.519 -4.05903 1.62978 0
M  V30 5933 C 564.578 -5.1388 1.13196 0
M  V30 5934 O 563.604 -5.39072 1.82729 0
M  V30 5935 N 564.806 -5.80495 -0.0242926 0
M  V30 5936 H 567.571 -2.25747 1.97125 0
M  V30 5937 H 565.132 -1.11886 1.17018 0
M  V30 5938 H 567.124 -4.04312 0.177263 0
M  V30 5939 H 565.694 -3.10872 -0.328202 0
M  V30 5940 H 564.914 -3.3042 2.1498 0
M  V30 5941 H 566.202 -4.50166 2.37124 0
M  V30 5942 H 565.6 -5.62454 -0.605184 0
M  V30 5943 H 564.157 -6.51043 -0.313947 0
M  V30 5944 N 567.59 -1.07411 -1.15328 0
M  V30 5945 C 568.553 -0.698914 -2.18284 0
M  V30 5946 C 569.553 0.261149 -1.58665 0
M  V30 5947 O 570.743 0.0420277 -1.74149 0
M  V30 5948 C 567.875 -0.0302427 -3.40887 0
M  V30 5949 H 569.068 -1.61045 -2.52991 0
M  V30 5950 H 566.621 -0.870724 -1.298 0
M  V30 5951 H 567.356 0.893505 -3.11748 0
M  V30 5952 H 567.141 -0.720759 -3.85419 0
M  V30 5953 H 568.631 0.21759 -4.17033 0
M  V30 5954 N 569.068 1.32177 -0.85831 0
M  V30 5955 C 570.484 1.49873 -0.548656 0
M  V30 5956 C 570.684 1.79278 0.919874 0
M  V30 5957 O 569.74 1.86451 1.70271 0
M  V30 5958 C 571.053 2.64043 -1.4388 0
M  V30 5959 C 572.601 2.77928 -1.43961 0
M  V30 5960 C 573.076 3.95182 -2.31506 0
M  V30 5961 N 574.567 4.0245 -2.29321 0
M  V30 5962 C 575.302 4.9242 -2.93786 0
M  V30 5963 N 574.798 5.87373 -3.67376 0
M  V30 5964 N 576.591 4.85572 -2.83155 0
M  V30 5965 H 568.742 1.11357 -1.80868 0
M  V30 5966 H 571.005 0.549175 -0.772729 0
M  V30 5967 H 570.711 2.49055 -2.48324 0
M  V30 5968 H 570.585 3.59912 -1.12885 0
M  V30 5969 H 572.972 2.92338 -0.402813 0
M  V30 5970 H 573.053 1.82762 -1.78974 0
M  V30 5971 H 572.697 3.81531 -3.35256 0
M  V30 5972 H 572.627 4.89633 -1.93823 0
M  V30 5973 H 575.118 3.34507 -1.75822 0
M  V30 5974 H 575.431 6.52728 -4.13722 0
M  V30 5975 H 573.776 5.87388 -3.71484 0
M  V30 5976 H 576.967 4.10363 -2.25211 0
M  V30 5977 H 577.14 5.55486 -3.33676 0
M  V30 5978 N 570.547 0.616602 1.45037 0
M  V30 5979 C 571.824 0.0469086 1.95544 0
M  V30 5980 C 572.204 -1.42345 1.55888 0
M  V30 5981 O 571.552 -2.13055 0.825824 0
M  V30 5982 C 571.762 0.254489 3.48071 0
M  V30 5983 C 573.11 0.140025 4.24369 0
M  V30 5984 O 574.134 0.185084 3.55719 0
M  V30 5985 O 572.993 0.0327034 5.4649 0
M  V30 5986 H 570.087 -0.0306051 0.826433 0
M  V30 5987 H 572.633 0.687293 1.55159 0
M  V30 5988 H 571.405 1.27532 3.69934 0
M  V30 5989 H 571.028 -0.42073 3.95368 0
M  V30 5990 N 572.025 -1.5352 0.356285 0
M  V30 5991 C 572.958 -2.2177 -0.537913 0
M  V30 5992 C 573.936 -1.20626 -1.09033 0
M  V30 5993 O 575.12 -1.49494 -1.1482 0
M  V30 5994 C 572.247 -2.90513 -1.74126 0
M  V30 5995 C 571.293 -4.05652 -1.31715 0
M  V30 5996 S 572.126 -5.34505 -0.326236 0
M  V30 5997 C 573.282 -6.06757 -1.53612 0
M  V30 5998 H 573.515 -2.97271 0.0417411 0
M  V30 5999 H 571.048 -1.53761 0.140372 0
M  V30 6000 H 573.006 -3.30735 -2.43155 0
M  V30 6001 H 571.667 -2.14754 -2.29215 0
M  V30 6002 H 570.86 -4.52733 -2.21471 0
M  V30 6003 H 570.462 -3.67272 -0.706183 0
M  V30 6004 H 572.754 -6.30924 -2.46863 0
M  V30 6005 H 573.697 -6.99395 -1.10687 0
M  V30 6006 H 574.105 -5.3708 -1.73796 0
M  V30 6007 N 573.503 -0.0852151 -1.57369 0
M  V30 6008 C 574.433 0.874556 -2.16503 0
M  V30 6009 C 575.414 1.30111 -1.09568 0
M  V30 6010 O 576.599 1.36977 -1.37662 0
M  V30 6011 C 573.729 2.13731 -2.73745 0
M  V30 6012 C 572.683 1.84971 -3.85966 0
M  V30 6013 C 572.009 3.17991 -4.29867 0
M  V30 6014 C 573.309 1.14442 -5.09608 0
M  V30 6015 H 575.003 0.381899 -2.96954 0
M  V30 6016 H 572.549 0.18225 -1.42842 0
M  V30 6017 H 574.502 2.81302 -3.13763 0
M  V30 6018 H 573.226 2.65263 -1.90534 0
M  V30 6019 H 571.885 1.19801 -3.46473 0
M  V30 6020 H 571.533 3.6739 -3.4356 0
M  V30 6021 H 571.233 2.99534 -5.05523 0
M  V30 6022 H 572.757 3.86737 -4.72511 0
M  V30 6023 H 574.171 1.72105 -5.46857 0
M  V30 6024 H 572.568 1.06197 -5.90629 0
M  V30 6025 H 573.638 0.12559 -4.84737 0
M  V30 6026 N 574.981 1.5647 0.188427 0
M  V30 6027 C 576.229 1.80655 0.905986 0
M  V30 6028 C 576.55 0.659391 1.83513 0
M  V30 6029 O 575.82 -0.321868 1.93238 0
M  V30 6030 H 574.4 0.666391 0.337538 0
M  V30 6031 H 577.062 1.93949 0.192339 0
M  V30 6032 H 576.158 2.74066 1.49313 0
M  V30 6033 N 576.459 -0.456382 1.50847 0
M  V30 6034 C 577.707 -1.20497 1.62249 0
M  V30 6035 C 578.028 -1.92156 0.331839 0
M  V30 6036 O 577.298 -1.84751 -0.651443 0
M  V30 6037 H 575.878 -0.447775 0.597918 0
M  V30 6038 H 578.54 -0.525099 1.87693 0
M  V30 6039 H 577.636 -1.94492 2.44089 0
M  V30 6040 N 577.937 -1.40673 -0.710563 0
M  V30 6041 C 578.885 -1.41517 -1.84596 0
M  V30 6042 C 579.879 -0.295043 -1.66811 0
M  V30 6043 O 581.085 -0.466331 -1.73854 0
M  V30 6044 H 577.46 -0.442467 -0.608052 0
M  V30 6045 H 579.431 -2.37238 -1.80999 0
M  V30 6046 C 578.18 -1.29957 -3.225 0
M  V30 6047 H 577.503 -2.15429 -3.36794 0
M  V30 6048 H 578.943 -1.34608 -4.02066 0
M  V30 6049 C 577.402 -0.0103164 -3.36898 0
M  V30 6050 O 577.932 0.950707 -3.90288 0
M  V30 6051 N 576.138 0.0608409 -2.90536 0
M  V30 6052 H 575.685 -0.721943 -2.47277 0
M  V30 6053 H 575.643 0.92292 -3.00549 0
M  V30 6054 N 579.415 0.9433 -1.26252 0
M  V30 6055 C 580.663 1.68592 -1.11451 0
M  V30 6056 C 580.984 1.91957 0.343123 0
M  V30 6057 O 580.254 1.51475 1.24226 0
M  V30 6058 H 578.834 0.624789 -0.409448 0
M  V30 6059 H 581.496 1.13351 -1.58548 0
M  V30 6060 H 580.592 2.66054 -1.63162 0
M  V30 6061 N 580.893 1.08022 1.14757 0
M  V30 6062 C 582.142 0.802468 1.8505 0
M  V30 6063 C 582.455 -0.674061 1.83619 0
M  V30 6064 O 583.661 -1.06683 2.49662 0
M  V30 6065 C 582.117 1.38551 3.32162 0
M  V30 6066 C 581.725 2.89354 3.42021 0
M  V30 6067 C 583.469 1.18608 4.07594 0
M  V30 6068 C 581.376 3.40815 4.83321 0
M  V30 6069 H 580.306 0.296518 0.693248 0
M  V30 6070 H 582.957 1.30114 1.29393 0
M  V30 6071 H 581.339 0.814556 3.87532 0
M  V30 6072 H 582.513 3.52552 2.96722 0
M  V30 6073 H 580.828 3.08165 2.80041 0
M  V30 6074 H 583.425 1.54525 5.11885 0
M  V30 6075 H 583.768 0.125599 4.1611 0
M  V30 6076 H 584.301 1.72375 3.58513 0
M  V30 6077 H 581.04 4.46418 4.79991 0
M  V30 6078 H 580.56 2.82374 5.29174 0
M  V30 6079 H 582.239 3.37171 5.522 0
M  V30 6080 N 582.371 -1.3172 0.865308 0
M  V30 6081 C 583.596 -2.01591 0.487415 0
M  V30 6082 C 584.021 -1.6455 -0.911307 0
M  V30 6083 O 583.379 -0.851689 -1.6005 0
M  V30 6084 C 583.427 -3.54759 0.646401 0
M  V30 6085 O 582.531 -4.11185 -0.316284 0
M  V30 6086 H 581.872 -0.634884 0.194468 0
M  V30 6087 H 584.402 -1.68024 1.16744 0
M  V30 6088 H 584.412 -4.04438 0.537932 0
M  V30 6089 H 583.087 -3.8106 1.66632 0
M  V30 6090 H 581.664 -3.72543 -0.163162 0
M  V30 6091 N 583.85 -0.624285 -1.44708 0
M  V30 6092 C 585.127 -0.0572781 -1.95516 0
M  V30 6093 C 585.507 1.41516 -1.56641 0
M  V30 6094 O 584.855 2.12614 -0.837111 0
M  V30 6095 C 585.065 -0.272944 -3.47931 0
M  V30 6096 C 586.413 -0.162529 -4.24289 0
M  V30 6097 O 587.437 -0.203946 -3.55616 0
M  V30 6098 O 586.296 -0.0616847 -5.46465 0
M  V30 6099 H 583.389 0.0262219 -0.826584 0
M  V30 6100 H 585.936 -0.695512 -1.54793 0
M  V30 6101 H 584.707 -1.29492 -3.69253 0
M  V30 6102 H 584.331 0.399756 -3.95585 0
M  V30 6103 N 585.328 1.53329 -0.364422 0
M  V30 6104 C 586.238 2.29414 0.490552 0
M  V30 6105 C 587.254 1.35335 1.09363 0
M  V30 6106 O 588.43 1.68391 1.10483 0
M  V30 6107 C 585.495 3.06772 1.61529 0
M  V30 6108 C 584.556 4.16516 1.03986 0
M  V30 6109 C 583.789 4.90176 2.111 0
M  V30 6110 O 584.012 4.63687 3.32191 0
M  V30 6111 O 582.946 5.76134 1.74222 0
M  V30 6112 H 586.772 3.03428 -0.12856 0
M  V30 6113 H 584.357 1.48843 -0.128837 0
M  V30 6114 H 586.239 3.55082 2.26924 0
M  V30 6115 H 584.914 2.35596 2.21983 0
M  V30 6116 H 583.821 3.7246 0.349856 0
M  V30 6117 H 585.154 4.89855 0.4799 0
M  V30 6118 N 586.806 0.0935595 1.57322 0
M  V30 6119 C 588.036 -0.578095 1.98347 0
M  V30 6120 C 588.444 -1.62357 0.971441 0
M  V30 6121 O 587.787 -1.83639 -0.0473959 0
M  V30 6122 C 587.849 -1.28525 3.3574 0
M  V30 6123 C 587.513 -0.390714 4.55327 0
M  V30 6124 C 588.51 0.360522 5.18648 0
M  V30 6125 C 586.195 -0.309221 5.01347 0
M  V30 6126 C 588.189 1.18125 6.26359 0
M  V30 6127 C 585.876 0.515157 6.08925 0
M  V30 6128 C 586.874 1.25904 6.71295 0
M  V30 6129 O 586.562 2.06978 7.76798 0
M  V30 6130 H 586.294 -0.159767 0.656849 0
M  V30 6131 H 588.848 0.169058 2.04703 0
M  V30 6132 H 587.078 -2.07894 3.26063 0
M  V30 6133 H 588.767 -1.85128 3.61223 0
M  V30 6134 H 589.533 0.307285 4.84026 0
M  V30 6135 H 585.412 -0.877881 4.52564 0
M  V30 6136 H 588.956 1.76236 6.74971 0
M  V30 6137 H 584.853 0.56988 6.42979 0
M  V30 6138 H 585.621 1.99644 7.93779 0
M  V30 6139 N 588.284 -1.56567 -0.180126 0
M  V30 6140 C 589.234 -1.92132 -1.22756 0
M  V30 6141 C 590.218 -0.788639 -1.40247 0
M  V30 6142 O 591.41 -1.05171 -1.42366 0
M  V30 6143 C 588.539 -2.27719 -2.56902 0
M  V30 6144 C 587.625 -3.47481 -2.43142 0
M  V30 6145 N 588.016 -4.64973 -1.99082 0
M  V30 6146 C 586.314 -3.51914 -2.73994 0
M  V30 6147 C 587.015 -5.47119 -1.97574 0
M  V30 6148 N 585.991 -4.87925 -2.39645 0
M  V30 6149 H 589.793 -2.80464 -0.878478 0
M  V30 6150 H 587.307 -1.57686 -0.388463 0
M  V30 6151 H 589.304 -2.51389 -3.32579 0
M  V30 6152 H 587.964 -1.40722 -2.92621 0
M  V30 6153 H 588.975 -4.89358 -1.69557 0
M  V30 6154 H 585.652 -2.75372 -3.13809 0
M  V30 6155 H 587.042 -6.51254 -1.65282 0
M  V30 6156 N 589.762 0.448376 -1.51087 0
M  V30 6157 C 591.008 1.20049 -1.6345 0
M  V30 6158 C 591.341 1.91121 -0.344444 0
M  V30 6159 O 590.616 1.83125 0.655396 0
M  V30 6160 C 590.899 2.22624 -2.83038 0
M  V30 6161 C 590.752 1.55708 -4.21989 0
M  V30 6162 C 592.071 3.23718 -2.98152 0
M  V30 6163 H 589.19 0.435085 -0.59487 0
M  V30 6164 H 591.832 0.491183 -1.83541 0
M  V30 6165 H 589.982 2.83117 -2.66039 0
M  V30 6166 H 591.654 0.986367 -4.50631 0
M  V30 6167 H 589.897 0.859647 -4.25197 0
M  V30 6168 H 590.568 2.30357 -5.01637 0
M  V30 6169 H 593.044 2.73269 -3.13788 0
M  V30 6170 H 591.92 3.92795 -3.83411 0
M  V30 6171 H 592.181 3.89179 -2.09743 0
M  V30 6172 N 591.24 1.41047 0.703093 0
M  V30 6173 C 592.489 1.39301 1.4587 0
M  V30 6174 C 592.802 0.00267077 1.956 0
M  V30 6175 O 594.008 -0.137414 2.71152 0
M  V30 6176 C 592.464 2.44891 2.63735 0
M  V30 6177 C 592.072 3.89796 2.20824 0
M  V30 6178 C 593.816 2.5227 3.41409 0
M  V30 6179 C 591.723 4.86955 3.35602 0
M  V30 6180 H 590.653 0.518005 0.547893 0
M  V30 6181 H 593.304 1.66839 0.764009 0
M  V30 6182 H 591.686 2.10472 3.35436 0
M  V30 6183 H 592.86 4.33424 1.56461 0
M  V30 6184 H 591.175 3.86008 1.56163 0
M  V30 6185 H 593.772 3.22044 4.26839 0
M  V30 6186 H 594.115 1.55714 3.86081 0
M  V30 6187 H 594.648 2.85742 2.7676 0
M  V30 6188 H 591.387 5.84888 2.9595 0
M  V30 6189 H 590.907 4.47982 3.98839 0
M  V30 6190 H 592.586 5.07361 4.01489 0
M  V30 6191 N 592.718 -0.936591 1.26751 0
M  V30 6192 C 594.134 -1.21095 1.03963 0
M  V30 6193 C 594.334 -2.00156 -0.232372 0
M  V30 6194 O 593.39 -2.3434 -0.940274 0
M  V30 6195 C 594.703 -1.96775 2.27377 0
M  V30 6196 C 596.251 -2.09749 2.32324 0
M  V30 6197 C 596.726 -2.88832 3.55443 0
M  V30 6198 N 598.217 -2.96404 3.55948 0
M  V30 6199 C 598.952 -3.58036 4.47881 0
M  V30 6200 N 598.448 -4.21132 5.50109 0
M  V30 6201 N 600.241 -3.55353 4.35523 0
M  V30 6202 H 592.392 -0.408173 2.08441 0
M  V30 6203 H 594.655 -0.243139 0.91629 0
M  V30 6204 H 594.361 -1.46094 3.19921 0
M  V30 6205 H 594.235 -2.97424 2.31989 0
M  V30 6206 H 596.622 -2.5962 1.40291 0
M  V30 6207 H 596.703 -1.08347 2.31721 0
M  V30 6208 H 596.347 -2.39647 4.47808 0
M  V30 6209 H 596.277 -3.90499 3.53296 0
M  V30 6210 H 598.768 -2.51552 2.82011 0
M  V30 6211 H 599.081 -4.66071 6.16439 0
M  V30 6212 H 597.426 -4.19705 5.53961 0
M  V30 6213 H 600.617 -3.05256 3.54875 0
M  V30 6214 H 600.79 -4.03097 5.07363 0
M  V30 6215 N 594.196 -1.08629 -1.14182 0
M  V30 6216 C 595.146 -0.687882 -2.17376 0
M  V30 6217 C 596.13 0.293632 -1.58198 0
M  V30 6218 O 597.322 0.105292 -1.76687 0
M  V30 6219 C 594.451 -0.101184 -3.43151 0
M  V30 6220 C 593.537 -1.10862 -4.09354 0
M  V30 6221 N 593.928 -2.29285 -4.50846 0
M  V30 6222 C 592.226 -0.944897 -4.35876 0
M  V30 6223 C 592.927 -2.93305 -5.02342 0
M  V30 6224 N 591.903 -2.20903 -4.96692 0
M  V30 6225 H 595.705 -1.58963 -2.472 0
M  V30 6226 H 593.219 -0.961329 -1.3089 0
M  V30 6227 H 595.216 0.202209 -4.16409 0
M  V30 6228 H 593.876 0.795522 -3.14804 0
M  V30 6229 H 594.887 -2.66927 -4.43813 0
M  V30 6230 H 591.564 -0.102186 -4.17375 0
M  V30 6231 H 592.954 -3.93932 -5.44304 0
M  V30 6232 N 595.674 1.31259 -0.872281 0
M  V30 6233 C 596.637 2.26744 -0.334656 0
M  V30 6234 C 597.637 1.52307 0.515681 0
M  V30 6235 O 598.827 1.71148 0.324656 0
M  V30 6236 C 595.959 3.36841 0.524482 0
M  V30 6237 H 597.152 2.75812 -1.17762 0
M  V30 6238 H 594.705 1.42232 -0.648064 0
M  V30 6239 H 595.44 2.93069 1.38855 0
M  V30 6240 H 595.225 3.92009 -0.0844299 0
M  V30 6241 H 596.715 4.07944 0.892838 0
M  V30 6242 N 597.152 0.631951 1.44375 0
M  V30 6243 C 598.085 -0.121822 2.27875 0
M  V30 6244 C 599.063 -0.850457 1.38586 0
M  V30 6245 O 600.247 -0.854378 1.68026 0
M  V30 6246 C 597.374 -1.17859 3.17533 0
M  V30 6247 C 596.42 -0.550391 4.22934 0
M  V30 6248 S 597.253 0.660145 5.31415 0
M  V30 6249 C 598.409 -0.396613 6.24642 0
M  V30 6250 H 598.642 0.586537 2.91457 0
M  V30 6251 H 596.175 0.420146 1.48574 0
M  V30 6252 H 598.133 -1.78335 3.69739 0
M  V30 6253 H 596.794 -1.85915 2.53169 0
M  V30 6254 H 595.987 -1.34631 4.85685 0
M  V30 6255 H 595.589 -0.0202306 3.73995 0
M  V30 6256 H 597.881 -1.26893 6.65511 0
M  V30 6257 H 598.824 0.195345 7.0783 0
M  V30 6258 H 599.232 -0.72288 5.59852 0
M  V30 6259 N 598.631 -1.53133 0.372548 0
M  V30 6260 C 599.579 -2.27473 -0.485681 0
M  V30 6261 C 600.573 -1.30719 -1.07745 0
M  V30 6262 O 601.779 -1.48321 -1.01985 0
M  V30 6263 H 598.154 -0.731269 -0.175356 0
M  V30 6264 H 600.125 -2.97955 0.162986 0
M  V30 6265 C 598.874 -3.08191 -1.60978 0
M  V30 6266 H 598.197 -3.82488 -1.16373 0
M  V30 6267 H 599.637 -3.63373 -2.18485 0
M  V30 6268 C 598.096 -2.19461 -2.55614 0
M  V30 6269 O 598.626 -1.81008 -3.58607 0
M  V30 6270 N 596.832 -1.83955 -2.24965 0
M  V30 6271 H 596.379 -2.15423 -1.41247 0
M  V30 6272 H 596.337 -1.24874 -2.88538 0
M  V30 6273 N 600.109 -0.101901 -1.5727 0
M  V30 6274 C 601.039 0.851544 -2.17419 0
M  V30 6275 C 602.02 1.28942 -1.10941 0
M  V30 6276 O 603.205 1.35509 -1.39107 0
M  V30 6277 C 600.335 2.10816 -2.75996 0
M  V30 6278 C 599.289 1.80867 -3.87906 0
M  V30 6279 C 598.615 3.13413 -4.33216 0
M  V30 6280 C 599.915 1.0903 -5.10793 0
M  V30 6281 H 601.609 0.350381 -2.97343 0
M  V30 6282 H 599.155 0.16709 -1.43027 0
M  V30 6283 H 601.108 2.77959 -3.16729 0
M  V30 6284 H 599.832 2.63227 -1.93337 0
M  V30 6285 H 598.491 1.16119 -3.47724 0
M  V30 6286 H 598.139 3.63725 -3.47438 0
M  V30 6287 H 597.839 2.94155 -5.08671 0
M  V30 6288 H 599.363 3.81704 -4.76586 0
M  V30 6289 H 600.777 1.66295 -5.48652 0
M  V30 6290 H 599.174 0.99927 -5.91722 0
M  V30 6291 H 600.244 0.0741704 -4.84843 0
M  V30 6292 N 601.587 1.56661 0.17182 0
M  V30 6293 C 602.497 1.99604 1.2327 0
M  V30 6294 C 603.513 0.907333 1.4847 0
M  V30 6295 O 604.689 1.21492 1.60629 0
M  V30 6296 C 601.754 2.34685 2.55194 0
M  V30 6297 C 600.815 3.57381 2.3786 0
M  V30 6298 C 600.048 3.90779 3.63494 0
M  V30 6299 O 600.271 3.25152 4.6865 0
M  V30 6300 O 599.205 4.84129 3.57634 0
M  V30 6301 H 603.031 2.90114 0.898192 0
M  V30 6302 H 600.616 1.44522 0.378647 0
M  V30 6303 H 602.498 2.5822 3.33017 0
M  V30 6304 H 601.173 1.47336 2.88225 0
M  V30 6305 H 600.08 3.39064 1.5807 0
M  V30 6306 H 601.413 4.45268 2.09754 0
M  V30 6307 N 603.065 -0.440357 1.51323 0
M  V30 6308 C 604.028 -1.51679 1.71832 0
M  V30 6309 C 605.028 -1.49648 0.588386 0
M  V30 6310 O 606.218 -1.51724 0.855891 0
M  V30 6311 C 603.35 -2.91228 1.77199 0
M  V30 6312 H 604.543 -1.34799 2.67898 0
M  V30 6313 H 602.096 -0.66883 1.41267 0
M  V30 6314 H 602.831 -3.13516 0.829363 0
M  V30 6315 H 602.616 -2.94107 2.59314 0
M  V30 6316 H 604.106 -3.69321 1.94915 0
M  V30 6317 N 604.543 -1.41418 -0.695603 0
M  V30 6318 C 605.789 -1.40982 -1.4578 0
M  V30 6319 C 606.122 -0.0187763 -1.94191 0
M  V30 6320 O 605.397 0.95346 -1.69527 0
M  V30 6321 C 605.68 -2.41657 -2.66972 0
M  V30 6322 C 605.533 -3.89869 -2.24327 0
M  V30 6323 C 606.852 -2.39589 -3.69168 0
M  V30 6324 H 603.971 -0.513405 -0.528757 0
M  V30 6325 H 606.613 -1.72693 -0.792275 0
M  V30 6326 H 604.763 -2.14746 -3.23754 0
M  V30 6327 H 606.435 -4.27683 -1.72872 0
M  V30 6328 H 604.678 -4.04737 -1.56111 0
M  V30 6329 H 605.349 -4.55857 -3.11285 0
M  V30 6330 H 607.825 -2.63471 -3.2206 0
M  V30 6331 H 606.701 -3.12044 -4.51575 0
M  V30 6332 H 606.962 -1.41447 -4.18862 0
M  V30 6333 N 606.021 0.929856 -1.27246 0
M  V30 6334 C 606.969 2.05151 -1.09616 0
M  V30 6335 C 607.963 1.69388 -0.0198617 0
M  V30 6336 O 609.169 1.79124 -0.177417 0
M  V30 6337 H 605.544 0.671909 -0.337701 0
M  V30 6338 H 607.515 2.17168 -2.04648 0
M  V30 6339 C 606.264 3.3934 -0.757851 0
M  V30 6340 H 605.587 3.67343 -1.57795 0
M  V30 6341 H 607.027 4.18603 -0.674358 0
M  V30 6342 C 605.486 3.32582 0.537658 0
M  V30 6343 O 606.016 3.69633 1.57271 0
M  V30 6344 N 604.222 2.8568 0.532478 0
M  V30 6345 H 603.769 2.55725 -0.310233 0
M  V30 6346 H 603.727 2.81541 1.39936 0
M  V30 6347 N 607.499 1.09233 1.13605 0
M  V30 6348 C 608.727 0.848908 1.88683 0
M  V30 6349 C 609.142 -0.599667 1.79024 0
M  V30 6350 O 608.499 -1.41265 1.15544 0
M  V30 6351 C 608.55 1.27273 3.38355 0
M  V30 6352 O 608.271 2.66449 3.47759 0
M  V30 6353 C 609.772 1.0614 4.30406 0
M  V30 6354 H 606.992 0.305549 0.597395 0
M  V30 6355 H 609.536 1.4538 1.43823 0
M  V30 6356 H 607.691 0.711776 3.80805 0
M  V30 6357 H 608.105 2.84264 4.40788 0
M  V30 6358 H 609.579 1.40725 5.33761 0
M  V30 6359 H 610.056 -0.000960332 4.392 0
M  V30 6360 H 610.662 1.60821 3.93722 0
M  V30 6361 N 608.977 -1.30795 0.87923 0
M  V30 6362 C 610.207 -2.00237 0.50881 0
M  V30 6363 C 610.615 -1.66115 -0.905682 0
M  V30 6364 O 609.958 -0.89138 -1.60624 0
M  V30 6365 C 610.02 -3.54508 0.597003 0
M  V30 6366 C 609.684 -4.12131 1.97477 0
M  V30 6367 C 610.681 -4.28552 2.94346 0
M  V30 6368 C 608.366 -4.47644 2.2786 0
M  V30 6369 C 610.36 -4.79689 4.19735 0
M  V30 6370 C 608.047 -4.98481 3.53496 0
M  V30 6371 C 609.045 -5.14456 4.49248 0
M  V30 6372 O 608.733 -5.64199 5.72656 0
M  V30 6373 H 608.465 -0.647026 0.195788 0
M  V30 6374 H 611.019 -1.67785 1.1848 0
M  V30 6375 H 609.249 -3.86461 -0.135945 0
M  V30 6376 H 610.938 -4.05198 0.238684 0
M  V30 6377 H 611.704 -4.01424 2.72183 0
M  V30 6378 H 607.583 -4.34481 1.54102 0
M  V30 6379 H 611.127 -4.92073 4.9448 0
M  V30 6380 H 607.024 -5.25044 3.75498 0
M  V30 6381 H 607.792 -5.82551 5.74957 0
M  V30 6382 N 610.455 -0.639598 -1.44038 0
M  V30 6383 C 611.365 0.0612377 -2.3452 0
M  V30 6384 C 612.381 0.826717 -1.53106 0
M  V30 6385 O 613.557 0.777059 -1.85806 0
M  V30 6386 C 610.622 1.02492 -3.31204 0
M  V30 6387 C 609.683 0.25788 -4.28525 0
M  V30 6388 C 608.916 1.17566 -5.2059 0
M  V30 6389 O 609.139 2.41461 -5.16771 0
M  V30 6390 O 608.073 0.655407 -5.98321 0
M  V30 6391 H 611.899 -0.68318 -2.95916 0
M  V30 6392 H 609.484 -0.399784 -1.43952 0
M  V30 6393 H 611.366 1.57911 -3.90694 0
M  V30 6394 H 610.041 1.7498 -2.7233 0
M  V30 6395 H 608.948 -0.339566 -3.72556 0
M  V30 6396 H 610.281 -0.427154 -4.90343 0
M  V30 6397 N 611.933 1.52934 -0.380664 0
M  V30 6398 C 613.181 2.01069 0.203874 0
M  V30 6399 C 613.502 1.26922 1.4804 0
M  V30 6400 O 612.772 0.386787 1.92044 0
M  V30 6401 H 611.352 0.742882 0.0783279 0
M  V30 6402 H 614.014 1.88099 -0.510368 0
M  V30 6403 H 613.11 3.09258 0.42021 0
M  V30 6404 N 613.412 0.11024 1.57214 0
M  V30 6405 C 614.64 -0.557834 1.99238 0
M  V30 6406 C 615.055 -1.60778 0.989734 0
M  V30 6407 O 614.412 -1.82491 -0.0186092 0
M  V30 6408 C 614.463 -1.19189 3.41286 0
M  V30 6409 O 614.184 -0.183919 4.37714 0
M  V30 6410 C 615.685 -1.94413 3.98395 0
M  V30 6411 H 612.905 -0.148392 0.654386 0
M  V30 6412 H 615.449 0.193996 2.03578 0
M  V30 6413 H 613.604 -1.89456 3.37913 0
M  V30 6414 H 614.018 -0.643475 5.20538 0
M  V30 6415 H 615.492 -2.34116 4.99894 0
M  V30 6416 H 615.969 -2.81592 3.3705 0
M  V30 6417 H 616.575 -1.28928 4.05287 0
M  V30 6418 N 614.89 -1.56749 -0.16351 0
M  V30 6419 C 615.84 -1.93424 -1.20712 0
M  V30 6420 C 616.824 -0.803469 -1.39403 0
M  V30 6421 O 618.016 -1.06675 -1.41243 0
M  V30 6422 C 615.145 -2.30431 -2.54473 0
M  V30 6423 C 614.231 -3.5004 -2.39443 0
M  V30 6424 N 614.622 -4.67058 -1.9414 0
M  V30 6425 C 612.92 -3.548 -2.70246 0
M  V30 6426 C 613.621 -5.49184 -1.9176 0
M  V30 6427 N 612.597 -4.9044 -2.34457 0
M  V30 6428 H 616.399 -2.8138 -0.848681 0
M  V30 6429 H 613.913 -1.58089 -0.371717 0
M  V30 6430 H 615.91 -2.54903 -3.29894 0
M  V30 6431 H 614.57 -1.43818 -2.91112 0
M  V30 6432 H 615.581 -4.91128 -1.64357 0
M  V30 6433 H 612.258 -2.78685 -3.10871 0
M  V30 6434 H 613.648 -6.5297 -1.58366 0
M  V30 6435 N 616.368 0.432326 -1.51554 0
M  V30 6436 C 617.645 1.19288 -1.55015 0
M  V30 6437 C 618.025 2.08701 -0.317375 0
M  V30 6438 O 617.373 2.17602 0.697243 0
M  V30 6439 C 617.583 1.99037 -2.86679 0
M  V30 6440 C 618.931 2.55907 -3.38817 0
M  V30 6441 O 619.955 2.09243 -2.88263 0
M  V30 6442 O 618.814 3.41029 -4.27038 0
M  V30 6443 H 615.908 0.543369 -0.623441 0
M  V30 6444 H 618.454 0.440988 -1.6387 0
M  V30 6445 H 617.226 1.33397 -3.6786 0
M  V30 6446 H 616.849 2.81281 -2.8101 0
M  V30 6447 N 617.846 1.41785 0.688094 0
M  V30 6448 C 619.095 1.4084 1.44385 0
M  V30 6449 C 619.408 0.0234166 1.95586 0
M  V30 6450 O 620.614 -0.108647 2.71283 0
M  V30 6451 C 619.07 2.47675 2.61123 0
M  V30 6452 C 618.678 3.92116 2.16677 0
M  V30 6453 C 620.422 2.55877 3.38714 0
M  V30 6454 C 618.329 4.90487 3.30419 0
M  V30 6455 H 617.259 0.523787 0.542368 0
M  V30 6456 H 619.91 1.6764 0.74627 0
M  V30 6457 H 618.292 2.14018 3.33185 0
M  V30 6458 H 619.466 4.35059 1.51856 0
M  V30 6459 H 617.781 3.87642 1.5206 0
M  V30 6460 H 620.378 3.26553 4.234 0
M  V30 6461 H 620.721 1.59801 3.84408 0
M  V30 6462 H 621.254 2.88662 2.73714 0
M  V30 6463 H 617.993 5.87994 2.89729 0
M  V30 6464 H 617.513 4.52187 3.94065 0
M  V30 6465 H 619.192 5.11591 3.96085 0
M  V30 6466 N 619.324 -0.923095 1.27737 0
M  V30 6467 C 620.274 -2.01061 1.0751 0
M  V30 6468 C 621.258 -1.609 0.00165451 0
M  V30 6469 O 622.45 -1.75618 0.220724 0
M  V30 6470 C 619.579 -3.35467 0.729162 0
M  V30 6471 C 618.665 -3.82059 1.84098 0
M  V30 6472 N 619.056 -4.01115 3.08124 0
M  V30 6473 C 617.354 -4.11135 1.7287 0
M  V30 6474 C 618.055 -4.39989 3.80506 0
M  V30 6475 N 617.031 -4.47721 3.08297 0
M  V30 6476 H 620.833 -2.13832 2.01626 0
M  V30 6477 H 618.347 -1.11027 1.18519 0
M  V30 6478 H 620.344 -4.13049 0.565355 0
M  V30 6479 H 619.004 -3.24056 -0.204334 0
M  V30 6480 H 620.015 -3.87294 3.43836 0
M  V30 6481 H 616.692 -4.08412 0.866352 0
M  V30 6482 H 618.082 -4.62773 4.87125 0
M  V30 6483 N 620.802 -1.09834 -1.13024 0
M  V30 6484 C 621.765 -0.745058 -2.16752 0
M  V30 6485 C 622.765 0.227435 -1.59183 0
M  V30 6486 O 623.955 0.0050786 -1.74199 0
M  V30 6487 C 621.087 -0.102543 -3.40746 0
M  V30 6488 H 622.28 -1.66375 -2.49518 0
M  V30 6489 H 619.833 -0.898061 -1.27924 0
M  V30 6490 H 620.568 0.827177 -3.13573 0
M  V30 6491 H 620.353 -0.80235 -3.83803 0
M  V30 6492 H 621.843 0.129082 -4.174 0
M  V30 6493 N 622.28 1.30327 -0.886154 0
M  V30 6494 C 623.21 2.30549 -0.370028 0
M  V30 6495 C 624.191 1.61039 0.547751 0
M  V30 6496 O 625.376 1.8864 0.461353 0
M  V30 6497 C 622.506 3.44808 0.415275 0
M  V30 6498 C 621.46 4.26024 -0.41085 0
M  V30 6499 C 620.786 5.32347 0.501128 0
M  V30 6500 C 622.086 4.95433 -1.65359 0
M  V30 6501 H 623.78 2.73969 -1.20754 0
M  V30 6502 H 621.326 1.3171 -0.582097 0
M  V30 6503 H 623.279 4.13986 0.78699 0
M  V30 6504 H 622.003 3.00197 1.28644 0
M  V30 6505 H 620.662 3.58535 -0.764719 0
M  V30 6506 H 620.31 4.83982 1.37004 0
M  V30 6507 H 620.01 5.87581 -0.0478356 0
M  V30 6508 H 621.534 6.0438 0.869333 0
M  V30 6509 H 622.948 5.5712 -1.35239 0
M  V30 6510 H 621.345 5.60537 -2.14284 0
M  V30 6511 H 622.415 4.21493 -2.39733 0
M  V30 6512 N 623.758 0.647228 1.43697 0
M  V30 6513 C 625.007 0.155552 2.01099 0
M  V30 6514 C 625.32 -1.23569 1.51624 0
M  V30 6515 O 626.526 -1.82226 2.01261 0
M  V30 6516 C 624.982 0.227296 3.59182 0
M  V30 6517 C 624.59 1.62086 4.17651 0
M  V30 6518 C 626.334 -0.207085 4.23995 0
M  V30 6519 C 624.241 1.64685 5.68008 0
M  V30 6520 H 623.171 0.0543895 0.752036 0
M  V30 6521 H 625.822 0.808386 1.64734 0
M  V30 6522 H 624.204 -0.492937 3.9292 0
M  V30 6523 H 625.378 2.36597 3.95422 0
M  V30 6524 H 623.693 2.0007 3.65186 0
M  V30 6525 H 626.29 -0.207426 5.34298 0
M  V30 6526 H 626.633 -1.23742 3.97484 0
M  V30 6527 H 627.166 0.461193 3.95118 0
M  V30 6528 H 623.905 2.65608 5.99277 0
M  V30 6529 H 623.425 0.944914 5.9231 0
M  V30 6530 H 625.104 1.38792 6.31938 0
M  V30 6531 N 625.236 -1.5273 0.388769 0
M  V30 6532 C 626.166 -2.29353 -0.438111 0
M  V30 6533 C 627.147 -1.32719 -1.06394 0
M  V30 6534 O 628.332 -1.61612 -1.07681 0
M  V30 6535 C 625.462 -3.09995 -1.56589 0
M  V30 6536 C 624.416 -4.14509 -1.06613 0
M  V30 6537 C 623.742 -4.83372 -2.28594 0
M  V30 6538 C 625.042 -5.22127 -0.134459 0
M  V30 6539 H 626.736 -2.98723 0.201206 0
M  V30 6540 H 624.282 -1.43665 0.0982089 0
M  V30 6541 H 626.235 -3.62357 -2.15118 0
M  V30 6542 H 624.959 -2.38357 -2.23279 0
M  V30 6543 H 623.618 -3.63128 -0.503383 0
M  V30 6544 H 623.266 -4.08283 -2.93792 0
M  V30 6545 H 622.966 -5.54012 -1.95817 0
M  V30 6546 H 624.49 -5.38538 -2.87766 0
M  V30 6547 H 625.904 -5.69851 -0.627914 0
M  V30 6548 H 624.301 -6.00011 0.103534 0
M  V30 6549 H 625.371 -4.77971 0.816798 0
M  V30 6550 N 626.714 -0.118576 -1.57153 0
M  V30 6551 C 627.962 0.538461 -1.94795 0
M  V30 6552 C 628.283 1.67243 -1.00274 0
M  V30 6553 O 627.553 1.95811 -0.0589692 0
M  V30 6554 H 626.133 0.201904 -0.719197 0
M  V30 6555 H 628.795 -0.187418 -1.93997 0
M  V30 6556 H 627.891 0.933315 -2.97818 0
M  V30 6557 N 628.193 1.56834 0.155195 0
M  V30 6558 C 629.609 1.51315 0.50755 0
M  V30 6559 C 629.809 0.825614 1.83809 0
M  V30 6560 O 628.865 0.39271 2.49427 0
M  V30 6561 C 630.178 2.96074 0.52542 0
M  V30 6562 C 631.726 3.06968 0.611505 0
M  V30 6563 C 632.201 4.53218 0.660115 0
M  V30 6564 N 633.692 4.5753 0.722564 0
M  V30 6565 C 634.427 5.68056 0.781023 0
M  V30 6566 N 633.923 6.88173 0.799327 0
M  V30 6567 N 635.716 5.56068 0.821278 0
M  V30 6568 H 627.867 1.9993 -0.717063 0
M  V30 6569 H 630.13 0.911507 -0.260496 0
M  V30 6570 H 629.836 3.49599 -0.383875 0
M  V30 6571 H 629.71 3.51587 1.36624 0
M  V30 6572 H 632.097 2.53468 1.51122 0
M  V30 6573 H 632.178 2.54513 -0.256306 0
M  V30 6574 H 631.822 5.07354 -0.23541 0
M  V30 6575 H 631.752 5.03447 1.5443 0
M  V30 6576 H 634.243 3.71054 0.716049 0
M  V30 6577 H 634.556 7.6816 0.845553 0
M  V30 6578 H 632.901 6.90751 0.767337 0
M  V30 6579 H 636.092 4.61142 0.804091 0
M  V30 6580 H 636.265 6.42223 0.863372 0
M  V30 6581 N 629.671 -0.424282 1.51781 0
M  V30 6582 C 630.634 -1.49848 1.73431 0
M  V30 6583 C 631.634 -1.49016 0.604225 0
M  V30 6584 O 632.824 -1.50808 0.871935 0
M  V30 6585 C 629.956 -2.89332 1.80277 0
M  V30 6586 H 631.149 -1.3195 2.69312 0
M  V30 6587 H 628.702 -0.653809 1.41968 0
M  V30 6588 H 629.437 -3.12618 0.862568 0
M  V30 6589 H 629.222 -2.9134 2.62419 0
M  V30 6590 H 630.712 -3.67233 1.98821 0
M  V30 6591 N 631.149 -1.42148 -0.680565 0
M  V30 6592 C 632.398 -1.41604 -1.43636 0
M  V30 6593 C 632.711 -0.0337887 -1.95571 0
M  V30 6594 O 633.917 0.0942588 -2.71336 0
M  V30 6595 C 632.373 -2.49056 -2.59806 0
M  V30 6596 C 631.981 -3.9326 -2.14594 0
M  V30 6597 C 633.725 -2.5767 -3.37352 0
M  V30 6598 C 631.632 -4.92232 -3.27813 0
M  V30 6599 H 630.562 -0.526656 -0.539583 0
M  V30 6600 H 633.213 -1.68033 -0.737369 0
M  V30 6601 H 631.595 -2.15782 -3.32045 0
M  V30 6602 H 632.769 -4.35858 -1.49546 0
M  V30 6603 H 631.084 -3.88443 -1.50002 0
M  V30 6604 H 633.681 -3.28794 -4.21662 0
M  V30 6605 H 634.024 -1.61837 -3.83555 0
M  V30 6606 H 634.557 -2.90109 -2.72179 0
M  V30 6607 H 631.296 -5.89522 -2.86607 0
M  V30 6608 H 630.816 -4.5427 -3.91661 0
M  V30 6609 H 632.495 -5.13684 -3.93367 0
M  V30 6610 N 632.627 0.916307 -1.28225 0
M  V30 6611 C 633.855 1.69901 -1.18073 0
M  V30 6612 C 634.27 1.86988 0.260968 0
M  V30 6613 O 633.627 1.39505 1.17663 0
M  V30 6614 C 633.678 3.09254 -1.87201 0
M  V30 6615 O 633.399 2.92959 -3.2574 0
M  V30 6616 C 634.9 4.0362 -1.83319 0
M  V30 6617 H 632.12 0.531181 -0.409985 0
M  V30 6618 H 634.664 1.14703 -1.69303 0
M  V30 6619 H 632.819 3.61277 -1.39848 0
M  V30 6620 H 633.233 3.81139 -3.60324 0
M  V30 6621 H 634.707 4.98873 -2.36282 0
M  V30 6622 H 635.184 4.3176 -0.805007 0
M  V30 6623 H 635.79 3.57524 -2.3034 0
M  V30 6624 N 634.105 1.10431 1.1244 0
M  V30 6625 C 635.353 0.845045 1.83585 0
M  V30 6626 C 635.674 -0.631168 1.84503 0
M  V30 6627 O 634.944 -1.45825 1.30813 0
M  V30 6628 H 633.524 0.309628 0.679809 0
M  V30 6629 H 636.186 1.39458 1.36153 0
M  V30 6630 H 635.282 1.20786 2.8778 0
M  V30 6631 N 635.583 -1.29855 0.893053 0
M  V30 6632 C 636.832 -1.95104 0.511597 0
M  V30 6633 C 637.145 -1.71226 -0.945567 0
M  V30 6634 O 638.351 -2.30525 -1.43424 0
M  V30 6635 C 636.807 -3.49374 0.864034 0
M  V30 6636 C 636.415 -3.82061 2.33952 0
M  V30 6637 C 638.159 -4.20894 0.552167 0
M  V30 6638 C 636.066 -5.29546 2.63316 0
M  V30 6639 H 634.996 -0.73029 0.187597 0
M  V30 6640 H 637.647 -1.47682 1.08914 0
M  V30 6641 H 636.029 -3.95413 0.215493 0
M  V30 6642 H 637.203 -3.46904 3.03305 0
M  V30 6643 H 635.518 -3.23665 2.61973 0
M  V30 6644 H 638.115 -5.29435 0.748489 0
M  V30 6645 H 638.458 -4.13178 -0.508924 0
M  V30 6646 H 638.991 -3.80564 1.15825 0
M  V30 6647 H 635.73 -5.4232 3.68197 0
M  V30 6648 H 635.25 -5.65974 1.9858 0
M  V30 6649 H 636.929 -5.97068 2.49236 0
M  V30 6650 N 637.061 -0.65484 -1.43351 0
M  V30 6651 C 637.993 0.0744757 -2.29079 0
M  V30 6652 C 639.006 0.7855 -1.42596 0
M  V30 6653 O 640.195 0.642986 -1.66517 0
M  V30 6654 C 637.295 1.12859 -3.19556 0
M  V30 6655 C 636.468 0.495381 -4.34586 0
M  V30 6656 C 635.527 1.44659 -5.05925 0
M  V30 6657 O 634.553 0.954567 -5.61139 0
M  V30 6658 N 635.755 2.78051 -5.09576 0
M  V30 6659 H 638.52 -0.661346 -2.92312 0
M  V30 6660 H 636.081 -0.497744 -1.54059 0
M  V30 6661 H 638.073 1.76577 -3.64147 0
M  V30 6662 H 636.643 1.76636 -2.57912 0
M  V30 6663 H 635.863 -0.32092 -3.92892 0
M  V30 6664 H 637.151 0.0534203 -5.08772 0
M  V30 6665 H 636.549 3.20584 -4.66093 0
M  V30 6666 H 635.106 3.37068 -5.57878 0
M  V30 6667 N 638.539 1.52521 -0.396863 0
M  V30 6668 C 639.502 2.2527 0.422604 0
M  V30 6669 C 640.502 1.27184 0.983913 0
M  V30 6670 O 641.692 1.51222 0.864723 0
M  V30 6671 C 638.824 3.01356 1.59365 0
M  V30 6672 H 640.017 2.99133 -0.214416 0
M  V30 6673 H 637.57 1.55587 -0.149128 0
M  V30 6674 H 638.305 2.31813 2.26789 0
M  V30 6675 H 638.09 3.73357 1.19779 0
M  V30 6676 H 639.58 3.56571 2.17363 0
M  V30 6677 N 640.017 0.126909 1.57088 0
M  V30 6678 C 641.264 -0.529168 1.95464 0
M  V30 6679 C 641.592 -1.6618 1.01067 0
M  V30 6680 O 640.847 -1.95667 0.0360254 0
M  V30 6681 C 641.146 -1.095 3.40212 0
M  V30 6682 C 640.812 -0.0829015 4.50824 0
M  V30 6683 C 639.474 0.195377 4.80803 0
M  V30 6684 C 641.826 0.606411 5.1766 0
M  V30 6685 C 639.154 1.16912 5.74933 0
M  V30 6686 C 641.506 1.56884 6.12838 0
M  V30 6687 C 640.17 1.85502 6.41206 0
M  V30 6688 H 639.44 -0.193636 0.715252 0
M  V30 6689 H 642.087 0.209489 1.90351 0
M  V30 6690 H 640.392 -1.91058 3.42059 0
M  V30 6691 H 642.089 -1.61087 3.67222 0
M  V30 6692 H 638.679 -0.309979 4.27478 0
M  V30 6693 H 642.863 0.404597 4.94648 0
M  V30 6694 H 638.119 1.3975 5.95214 0
M  V30 6695 H 642.293 2.10859 6.6371 0
M  V30 6696 H 639.92 2.61109 7.13951 0
M  V30 6697 N 641.495 -1.56914 -0.146875 0
M  V30 6698 C 642.723 -1.87515 -0.874394 0
M  V30 6699 C 643.138 -0.715116 -1.74733 0
M  V30 6700 O 642.495 0.315113 -1.79759 0
M  V30 6701 C 642.546 -3.17362 -1.731 0
M  V30 6702 O 642.267 -4.28897 -0.893245 0
M  V30 6703 C 643.768 -3.61479 -2.56609 0
M  V30 6704 H 640.988 -0.621546 -0.252827 0
M  V30 6705 H 643.532 -2.04023 -0.139627 0
M  V30 6706 H 641.687 -3.02608 -2.41883 0
M  V30 6707 H 642.101 -5.03146 -1.48137 0
M  V30 6708 H 643.575 -4.5517 -3.12289 0
M  V30 6709 H 644.052 -2.86773 -3.32653 0
M  V30 6710 H 644.658 -3.78927 -1.93117 0
M  V30 6711 N 642.974 0.416227 -1.52004 0
M  V30 6712 C 643.937 1.48926 -1.74223 0
M  V30 6713 C 644.937 1.48693 -0.612119 0
M  V30 6714 O 646.127 1.50343 -0.879921 0
M  V30 6715 C 643.259 2.88372 -1.81809 0
M  V30 6716 H 644.452 1.3052 -2.70008 0
M  V30 6717 H 642.005 0.646271 -1.42313 0
M  V30 6718 H 642.74 3.12157 -0.879135 0
M  V30 6719 H 642.525 2.89944 -2.6396 0
M  V30 6720 H 644.015 3.66173 -2.00766 0
M  V30 6721 N 644.452 1.42507 0.673017 0
M  V30 6722 C 645.677 1.4668 1.46627 0
M  V30 6723 C 646.102 0.080066 1.8793 0
M  V30 6724 O 645.46 -0.921879 1.56112 0
M  V30 6725 C 645.508 2.40091 2.69051 0
M  V30 6726 O 644.612 1.8735 3.67387 0
M  V30 6727 H 643.953 0.496908 0.44043 0
M  V30 6728 H 646.483 1.87215 0.825334 0
M  V30 6729 H 646.493 2.56731 3.17101 0
M  V30 6730 H 645.168 3.4084 2.3833 0
M  V30 6731 H 643.745 1.80274 3.26429 0
M  V30 6732 N 645.93 -0.909495 1.28709 0
M  V30 6733 C 646.877 -2.01245 1.13 0
M  V30 6734 C 647.847 -1.6608 0.0259684 0
M  V30 6735 O 649.032 -1.89835 0.191687 0
M  V30 6736 C 646.172 -3.35644 0.802315 0
M  V30 6737 C 645.285 -3.83653 1.98582 0
M  V30 6738 C 644.42 -5.06582 1.59837 0
M  V30 6739 C 643.459 -5.46934 2.74827 0
M  V30 6740 N 642.596 -6.61053 2.36546 0
M  V30 6741 H 647.436 -2.14013 2.0737 0
M  V30 6742 H 644.973 -1.0482 1.03205 0
M  V30 6743 H 646.931 -4.12963 0.593057 0
M  V30 6744 H 645.561 -3.22631 -0.104457 0
M  V30 6745 H 644.613 -3.02454 2.30708 0
M  V30 6746 H 645.925 -4.09515 2.84779 0
M  V30 6747 H 645.079 -5.91457 1.35143 0
M  V30 6748 H 643.818 -4.82537 0.707753 0
M  V30 6749 H 642.823 -4.60599 3.00215 0
M  V30 6750 H 644.048 -5.72965 3.64538 0
M  V30 6751 H 641.994 -6.3863 1.49959 0
M  V30 6752 H 641.911 -6.86662 3.16277 0
M  V30 6753 H 643.179 -7.49221 2.15146 0
M  V30 6754 O 647.447 -1.23171 -1.04456 0
M  V30 6755 H 648.138 -1.00158 -1.65795 0
M  V30 END ATOM
M  V30 BEGIN BOND
M  V30 END BOND
M  V30 END CTAB
M  END
$$$$
