drugbank_target|Q92918 Mitogen-activated protein kinase kinase kinase kinase 1 (DB12010)
 OpenBabel12092121163D

  0  0  0     0  0            999 V3000
M  V30 BEGIN CTAB
M  V30 COUNTS 12913 13072 0 0 0
M  V30 BEGIN ATOM
M  V30 1 H -0.908 1.98254 -0.117106 0
M  V30 2 N 0 1.576 0 0
M  V30 3 C 0.933 2.03868 1.02534 0
M  V30 4 C 1.911 0.928543 1.3348 0
M  V30 5 O 3.095 1.19667 1.45644 0
M  V30 6 C 0.222 2.43627 2.35294 0
M  V30 7 C -0.732 3.65373 2.2001 0
M  V30 8 S 0.101 5.13292 1.52614 0
M  V30 9 C 1.257 5.56322 2.86805 0
M  V30 10 H 1.49 2.90518 0.631377 0
M  V30 11 H -0.977 1.52953 0.210867 0
M  V30 12 H 0.981 2.67203 3.11629 0
M  V30 13 H -0.358 1.57376 2.7183 0
M  V30 14 H -1.165 3.90944 3.18086 0
M  V30 15 H -1.563 3.418 1.51819 0
M  V30 16 H 0.729 5.58782 3.83104 0
M  V30 17 H 1.672 6.56266 2.65933 0
M  V30 18 H 2.08 4.83886 2.90714 0
M  V30 19 N 1.4781 -0.272755 1.55222 0
M  V30 20 C 2.7551 -1.02562 1.66555 0
M  V30 21 C 3.1351 -2.04282 0.532189 0
M  V30 22 O 2.4831 -2.23662 -0.467717 0
M  V30 23 C 2.6931 -1.6822 3.05782 0
M  V30 24 C 4.0411 -2.19373 3.63539 0
M  V30 25 O 5.0651 -1.78206 3.08417 0
M  V30 26 O 3.9241 -2.94883 4.60115 0
M  V30 27 H 1.0181 -0.475755 0.676451 0
M  V30 28 H 3.5641 -0.268593 1.67561 0
M  V30 29 H 2.3361 -0.945112 3.79715 0
M  V30 30 H 1.9591 -2.50609 3.08676 0
M  V30 31 N 2.9562 -1.48159 -0.537278 0
M  V30 32 C 4.2022 -1.56035 -1.29541 0
M  V30 33 C 4.5352 -0.230377 -1.92829 0
M  V30 34 O 3.8102 0.762952 -1.78911 0
M  V30 35 C 4.0932 -2.69323 -2.39034 0
M  V30 36 C 3.9462 -4.12002 -1.80485 0
M  V30 37 C 5.2652 -2.78408 -3.40847 0
M  V30 38 H 2.3842 -0.567992 -0.469632 0
M  V30 39 H 5.0262 -1.80302 -0.599277 0
M  V30 40 H 3.1762 -2.48763 -2.98412 0
M  V30 41 H 4.8482 -4.43981 -1.25215 0
M  V30 42 H 3.0912 -4.19344 -1.11055 0
M  V30 43 H 3.7622 -4.87077 -2.59731 0
M  V30 44 H 6.2382 -2.97012 -2.91416 0
M  V30 45 H 5.1142 -3.59416 -4.14863 0
M  V30 46 H 5.3752 -1.86269 -4.00944 0
M  V30 47 N 4.4343 0.785586 -1.36625 0
M  V30 48 C 5.6803 1.54591 -1.31261 0
M  V30 49 C 6.0133 1.93906 0.106823 0
M  V30 50 O 5.2883 1.63007 1.06108 0
M  V30 51 C 5.5713 2.82038 -2.23889 0
M  V30 52 C 5.4243 2.49066 -3.74548 0
M  V30 53 C 6.7433 3.83887 -2.15217 0
M  V30 54 H 3.8623 0.560846 -0.478143 0
M  V30 55 H 6.5043 0.902278 -1.67209 0
M  V30 56 H 4.6543 3.36961 -1.93363 0
M  V30 57 H 6.3263 2.00164 -4.15611 0
M  V30 58 H 4.5693 1.81954 -3.93796 0
M  V30 59 H 5.2403 3.40109 -4.34776 0
M  V30 60 H 7.7163 3.38421 -2.42096 0
M  V30 61 H 6.5923 4.70806 -2.82193 0
M  V30 62 H 6.8533 4.27131 -1.14068 0
M  V30 63 N 5.9124 1.20967 1.01018 0
M  V30 64 C 7.1894 0.93264 1.71934 0
M  V30 65 C 7.5694 -0.55692 2.03621 0
M  V30 66 O 6.9174 -1.52035 1.7058 0
M  V30 67 C 7.1274 1.81233 2.98254 0
M  V30 68 C 8.4754 2.05804 3.71389 0
M  V30 69 O 9.4994 1.78539 3.08225 0
M  V30 70 O 8.3584 2.51888 4.84989 0
M  V30 71 H 5.4524 0.349272 0.749625 0
M  V30 72 H 7.9984 1.31871 1.06808 0
M  V30 73 H 6.7704 2.82067 2.71208 0
M  V30 74 H 6.3934 1.42674 3.7112 0
M  V30 75 N 7.3905 -1.2043 1.01659 0
M  V30 76 C 8.8015 -1.71517 0.737482 0
M  V30 77 C 9.1525 -1.81547 -0.743973 0
M  V30 78 O 8.2775 -1.47803 -1.58061 0
M  V30 79 C 8.8725 -3.11515 1.33206 0
M  V30 80 C 7.4315 -3.59912 1.10183 0
M  V30 81 C 6.5785 -2.37116 1.43776 0
M  V30 82 H 9.5295 -1.05444 1.18606 0
M  V30 83 H 9.5505 -3.73575 0.722636 0
M  V30 84 H 9.0625 -3.04182 2.41028 0
M  V30 85 H 7.1635 -3.72577 0.0412756 0
M  V30 86 H 7.2765 -4.44731 1.78188 0
M  V30 87 H 5.6405 -2.39857 0.856778 0
M  V30 88 H 6.4235 -2.32424 2.52654 0
M  V30 89 N 8.8686 -0.792821 -1.36206 0
M  V30 90 C 10.1456 -0.290627 -1.93429 0
M  V30 91 C 10.5256 1.21773 -1.72437 0
M  V30 92 O 9.8736 2.0108 -1.08531 0
M  V30 93 C 10.0836 -0.686973 -3.42172 0
M  V30 94 C 11.4316 -0.668643 -4.19302 0
M  V30 95 O 12.4556 -0.627658 -3.50626 0
M  V30 96 O 11.3146 -0.714597 -5.41808 0
M  V30 97 H 8.4086 -0.0727927 -0.82379 0
M  V30 98 H 10.9546 -0.875593 -1.45367 0
M  V30 99 H 9.7266 -1.72711 -3.51122 0
M  V30 100 H 9.3496 -0.0760733 -3.97527 0
M  V30 101 N 10.3467 1.47872 -0.545128 0
M  V30 102 C 11.5957 2.01695 -0.0145033 0
M  V30 103 C 11.9087 1.42609 1.33873 0
M  V30 104 O 13.1147 1.88021 1.95858 0
M  V30 105 C 11.5707 3.59892 0.0245068 0
M  V30 106 C 11.1787 4.27966 -1.32475 0
M  V30 107 C 12.9227 4.21507 0.50316 0
M  V30 108 C 10.8297 5.78136 -1.2455 0
M  V30 109 H 9.7597 0.753998 -0.00165172 0
M  V30 110 H 12.4107 1.69985 -0.691175 0
M  V30 111 H 10.7927 3.88509 0.766575 0
M  V30 112 H 11.9667 4.11003 -2.08357 0
M  V30 113 H 10.2817 3.78286 -1.74036 0
M  V30 114 H 12.8787 5.31538 0.580656 0
M  V30 115 H 13.2217 3.87855 1.51243 0
M  V30 116 H 13.7547 3.97376 -0.183681 0
M  V30 117 H 10.4937 6.16388 -2.23039 0
M  V30 118 H 10.0137 5.97469 -0.528282 0
M  V30 119 H 11.6927 6.40099 -0.942488 0
M  V30 120 N 11.8248 0.280983 1.55075 0
M  V30 121 C 13.0718 -0.334115 1.99725 0
M  V30 122 C 13.3998 -1.5542 1.1694 0
M  V30 123 O 12.6548 -1.94361 0.228531 0
M  V30 124 C 12.9538 -0.754656 3.49342 0
M  V30 125 C 12.6198 0.361445 4.49449 0
M  V30 126 C 11.2818 0.667893 4.76542 0
M  V30 127 C 13.6338 1.11322 5.09173 0
M  V30 128 C 10.9618 1.7296 5.60626 0
M  V30 129 C 13.3138 2.1647 5.9441 0
M  V30 130 C 11.9778 2.47742 6.19822 0
M  V30 131 H 11.2478 -0.122261 0.730844 0
M  V30 132 H 13.8948 0.395917 1.87363 0
M  V30 133 H 12.1998 -1.56446 3.5921 0
M  V30 134 H 13.8968 -1.24142 3.813 0
M  V30 135 H 10.4868 0.112481 4.28452 0
M  V30 136 H 14.6708 0.88973 4.8826 0
M  V30 137 H 9.9268 1.97684 5.78559 0
M  V30 138 H 14.1008 2.75193 6.3972 0
M  V30 139 H 11.7278 3.30145 6.84769 0
M  V30 140 N 13.3029 -1.57598 0.00835791 0
M  V30 141 C 14.2509 -2.10078 -0.998508 0
M  V30 142 C 15.2449 -1.02262 -1.35051 0
M  V30 143 O 16.4509 -1.20719 -1.33518 0
M  V30 144 H 12.8259 -0.670903 -0.339696 0
M  V30 145 H 14.7969 -2.93648 -0.530398 0
M  V30 146 C 13.5459 -2.62615 -2.27879 0
M  V30 147 H 12.8689 -3.45213 -2.01662 0
M  V30 148 H 14.3089 -3.03004 -2.96588 0
M  V30 149 C 12.7679 -1.54407 -2.99433 0
M  V30 150 O 13.2979 -0.931812 -3.90743 0
M  V30 151 N 11.5039 -1.2695 -2.61404 0
M  V30 152 H 11.0509 -1.76924 -1.87232 0
M  V30 153 H 11.0089 -0.547704 -3.09593 0
M  V30 154 N 14.781 0.264519 -1.55364 0
M  V30 155 C 16.197 0.61215 -1.47394 0
M  V30 156 C 16.397 1.89134 -0.695018 0
M  V30 157 O 15.453 2.51563 -0.217275 0
M  V30 158 C 16.766 0.731235 -2.91674 0
M  V30 159 C 18.314 0.82473 -3.01939 0
M  V30 160 C 18.789 0.975522 -4.4749 0
M  V30 161 N 20.28 1.04083 -4.51354 0
M  V30 162 C 21.015 1.17646 -5.61201 0
M  V30 163 N 20.511 1.27874 -6.80896 0
M  V30 164 N 22.304 1.20823 -5.48961 0
M  V30 165 H 14.455 -0.575456 -2.04456 0
M  V30 166 H 16.718 -0.196099 -0.927496 0
M  V30 167 H 16.424 -0.138392 -3.51428 0
M  V30 168 H 16.298 1.60883 -3.41169 0
M  V30 169 H 18.685 1.68482 -2.42276 0
M  V30 170 H 18.766 -0.0776479 -2.55682 0
M  V30 171 H 18.41 0.120058 -5.07758 0
M  V30 172 H 18.34 1.89268 -4.91412 0
M  V30 173 H 20.831 0.973846 -3.65136 0
M  V30 174 H 21.144 1.38081 -7.60364 0
M  V30 175 H 19.489 1.24863 -6.83692 0
M  V30 176 H 22.68 1.12469 -4.54388 0
M  V30 177 H 22.853 1.31049 -6.3461 0
M  V30 178 N 16.2591 1.48442 0.529413 0
M  V30 179 C 17.5361 1.46978 1.29062 0
M  V30 180 C 17.9161 0.181769 2.10316 0
M  V30 181 O 17.2641 -0.836481 2.12639 0
M  V30 182 C 17.4741 2.7321 2.17157 0
M  V30 183 C 18.8221 3.21562 2.77278 0
M  V30 184 O 19.8461 2.74131 2.27444 0
M  V30 185 O 18.7051 4.04094 3.67927 0
M  V30 186 H 15.7991 0.587003 0.582543 0
M  V30 187 H 18.3451 1.60676 0.546021 0
M  V30 188 H 17.1171 3.58465 1.56903 0
M  V30 189 H 16.7401 2.62235 2.98862 0
M  V30 190 N 17.7372 -0.778329 1.37039 0
M  V30 191 C 19.1482 -1.35421 1.28523 0
M  V30 192 C 19.4992 -1.96075 -0.0700901 0
M  V30 193 O 18.6242 -1.93352 -0.971801 0
M  V30 194 C 19.2192 -2.46211 2.32735 0
M  V30 195 C 17.7782 -2.99585 2.27873 0
M  V30 196 C 16.9252 -1.72748 2.16918 0
M  V30 197 H 19.8762 -0.5791 1.47757 0
M  V30 198 H 19.8972 -3.2552 1.9702 0
M  V30 199 H 19.4092 -2.02036 3.31365 0
M  V30 200 H 17.5102 -3.48152 1.32745 0
M  V30 201 H 17.6232 -3.55646 3.21018 0
M  V30 202 H 15.9872 -1.95416 1.63354 0
M  V30 203 H 16.7702 -1.30686 3.17452 0
M  V30 204 N 19.2153 -1.21501 -1.00376 0
M  V30 205 C 20.6313 -0.972629 -1.26539 0
M  V30 206 C 20.8313 0.340257 -1.98606 0
M  V30 207 O 19.8873 1.06561 -2.28913 0
M  V30 208 C 21.2003 -2.16404 -2.08781 0
M  V30 209 C 22.7483 -2.20643 -2.22004 0
M  V30 210 C 23.2233 -3.39306 -3.07629 0
M  V30 211 N 24.7143 -3.39401 -3.15217 0
M  V30 212 C 25.4493 -4.27867 -3.81729 0
M  V30 213 N 24.9453 -5.26533 -4.5026 0
M  V30 214 N 26.7383 -4.15672 -3.78382 0
M  V30 215 H 18.8893 -2.05929 -0.520281 0
M  V30 216 H 21.1523 -0.901803 -0.292328 0
M  V30 217 H 20.8583 -3.11554 -1.63178 0
M  V30 218 H 20.7323 -2.15567 -3.09533 0
M  V30 219 H 23.1193 -1.26048 -2.66825 0
M  V30 220 H 23.2003 -2.25523 -1.20718 0
M  V30 221 H 22.8443 -4.34195 -2.63509 0
M  V30 222 H 22.7743 -3.31665 -4.09031 0
M  V30 223 H 25.2653 -2.67997 -2.66432 0
M  V30 224 H 25.5783 -5.90337 -4.98721 0
M  V30 225 H 23.9233 -5.30457 -4.49044 0
M  V30 226 H 27.1143 -3.3785 -3.23998 0
M  V30 227 H 27.2873 -4.84825 -4.2994 0
M  V30 228 N 20.6934 1.19889 -1.02296 0
M  V30 229 C 21.9704 1.85148 -0.630832 0
M  V30 230 C 22.3504 1.91385 0.890782 0
M  V30 231 O 21.6984 1.42642 1.78509 0
M  V30 232 C 21.9084 3.24442 -1.28602 0
M  V30 233 C 23.2564 4.00663 -1.4055 0
M  V30 234 O 24.2804 3.33818 -1.24273 0
M  V30 235 O 23.1394 5.20387 -1.66913 0
M  V30 236 H 20.2334 0.797613 -0.218499 0
M  V30 237 H 22.7794 1.27427 -1.12074 0
M  V30 238 H 21.5514 3.14704 -2.32545 0
M  V30 239 H 21.1744 3.89802 -0.7836 0
M  V30 240 N 22.1715 0.800033 1.35784 0
M  V30 241 C 23.1215 0.178654 2.27299 0
M  V30 242 C 24.1055 -0.643667 1.47464 0
M  V30 243 O 25.2975 -0.502 1.69732 0
M  V30 244 C 22.4265 -0.677194 3.36555 0
M  V30 245 C 21.5125 0.154497 4.23818 0
M  V30 246 N 21.9035 1.21427 4.91008 0
M  V30 247 C 20.2015 -0.0649462 4.45953 0
M  V30 248 C 20.9025 1.72147 5.55644 0
M  V30 249 N 19.8785 1.02897 5.33773 0
M  V30 250 H 23.6805 0.989637 2.76737 0
M  V30 251 H 21.1945 0.64054 1.49234 0
M  V30 252 H 23.1915 -1.13835 4.01058 0
M  V30 253 H 21.8515 -1.4866 2.8867 0
M  V30 254 H 22.8625 1.59684 4.92668 0
M  V30 255 H 19.5395 -0.844016 4.0888 0
M  V30 256 H 20.9295 2.60683 6.19269 0
M  V30 257 N 23.6496 -1.47581 0.552962 0
M  V30 258 C 24.8796 -2.06575 0.0320091 0
M  V30 259 C 25.2876 -1.4067 -1.26525 0
M  V30 260 O 24.6306 -0.495808 -1.76883 0
M  V30 261 C 24.6926 -3.58705 -0.238913 0
M  V30 262 C 24.3566 -4.46625 0.968272 0
M  V30 263 C 25.3536 -4.85 1.87274 0
M  V30 264 C 23.0386 -4.88201 1.18175 0
M  V30 265 C 25.0326 -5.63745 2.9744 0
M  V30 266 C 22.7196 -5.66712 2.28651 0
M  V30 267 C 23.7176 -6.04394 3.18114 0
M  V30 268 O 23.4056 -6.81324 4.26676 0
M  V30 269 H 23.1376 -0.674763 0.0408689 0
M  V30 270 H 25.6916 -1.90634 0.764719 0
M  V30 271 H 23.9216 -3.72844 -1.02588 0
M  V30 272 H 25.6106 -3.99735 -0.704731 0
M  V30 273 H 26.3766 -4.53482 1.71984 0
M  V30 274 H 22.2556 -4.58339 0.494593 0
M  V30 275 H 25.7996 -5.93077 3.67296 0
M  V30 276 H 21.6966 -5.97642 2.43915 0
M  V30 277 H 22.4646 -6.99712 4.24671 0
M  V30 278 N 25.1277 -0.289203 -1.54924 0
M  V30 279 C 26.4047 0.376032 -1.91951 0
M  V30 280 C 26.7847 1.72622 -1.21511 0
M  V30 281 O 26.1327 2.25853 -0.346767 0
M  V30 282 C 26.3427 0.502378 -3.45365 0
M  V30 283 C 27.6907 0.778741 -4.17398 0
M  V30 284 O 28.7147 0.586647 -3.51336 0
M  V30 285 O 27.5737 1.14698 -5.34328 0
M  V30 286 H 24.6677 0.208167 -0.800372 0
M  V30 287 H 27.2137 -0.336394 -1.66332 0
M  V30 288 H 25.9857 -0.447255 -3.88736 0
M  V30 289 H 25.6087 1.26373 -3.76982 0
M  V30 290 N 26.6058 1.57591 -0.0167156 0
M  V30 291 C 27.5358 2.12496 0.967858 0
M  V30 292 C 28.5168 1.03807 1.34752 0
M  V30 293 O 29.7018 1.31577 1.42833 0
M  V30 294 C 26.8318 2.64194 2.25431 0
M  V30 295 C 25.7858 3.77559 2.01576 0
M  V30 296 C 25.1118 4.15636 3.36379 0
M  V30 297 C 26.4118 5.04151 1.36489 0
M  V30 298 H 28.1058 2.95013 0.510643 0
M  V30 299 H 25.6518 1.41915 0.244181 0
M  V30 300 H 27.6048 3.01236 2.94678 0
M  V30 301 H 26.3288 1.78821 2.73296 0
M  V30 302 H 24.9878 3.40937 1.34751 0
M  V30 303 H 24.6358 3.27263 3.81979 0
M  V30 304 H 24.3358 4.92022 3.21229 0
M  V30 305 H 25.8598 4.5525 4.06915 0
M  V30 306 H 27.2738 5.38857 1.95718 0
M  V30 307 H 25.6708 5.85453 1.31776 0
M  V30 308 H 26.7408 4.83733 0.336219 0
M  V30 309 N 28.0839 -0.256276 1.55502 0
M  V30 310 C 29.0139 -1.32102 1.92539 0
M  V30 311 C 29.9949 -1.50684 0.789194 0
M  V30 312 O 31.1799 -1.63449 1.04872 0
M  V30 313 C 28.3099 -2.67752 2.21192 0
M  V30 314 C 27.2639 -2.63878 3.36975 0
M  V30 315 C 26.5899 -4.03236 3.51147 0
M  V30 316 C 27.8899 -2.21682 4.72921 0
M  V30 317 H 29.5839 -1.01351 2.81724 0
M  V30 318 H 27.1299 -0.486105 1.35547 0
M  V30 319 H 29.0829 -3.42365 2.45691 0
M  V30 320 H 27.8069 -3.0012 1.28824 0
M  V30 321 H 26.4659 -1.91722 3.12471 0
M  V30 322 H 26.1139 -4.32854 2.56216 0
M  V30 323 H 25.8139 -4.01535 4.29003 0
M  V30 324 H 27.3379 -4.79563 3.77957 0
M  V30 325 H 28.7519 -2.86023 4.96854 0
M  V30 326 H 27.1489 -2.3111 5.53812 0
M  V30 327 H 28.2189 -1.16833 4.70615 0
M  V30 328 N 29.562 -1.4872 -0.521534 0
M  V30 329 C 30.494 -1.59968 -1.64143 0
M  V30 330 C 31.507 -0.483463 -1.55456 0
M  V30 331 O 32.696 -0.75467 -1.61762 0
M  V30 332 C 29.796 -1.52127 -3.02838 0
M  V30 333 C 28.969 -2.78932 -3.36921 0
M  V30 334 C 28.028 -2.64428 -4.54933 0
M  V30 335 O 27.054 -3.38331 -4.57735 0
M  V30 336 N 28.256 -1.74606 -5.53618 0
M  V30 337 H 31.021 -2.56548 -1.54929 0
M  V30 338 H 28.582 -1.45551 -0.708988 0
M  V30 339 H 30.574 -1.40106 -3.79674 0
M  V30 340 H 29.144 -0.634868 -3.06085 0
M  V30 341 H 28.364 -3.05455 -2.4918 0
M  V30 342 H 29.652 -3.63041 -3.56481 0
M  V30 343 H 29.05 -1.13782 -5.54139 0
M  V30 344 H 27.607 -1.6852 -6.29638 0
M  V30 345 N 31.0401 0.771051 -1.3745 0
M  V30 346 C 32.4561 1.07171 -1.18265 0
M  V30 347 C 32.6561 2.01491 -0.019287 0
M  V30 348 O 31.7121 2.44244 0.640408 0
M  V30 349 C 33.0251 1.66854 -2.50161 0
M  V30 350 C 34.5731 1.79109 -2.56689 0
M  V30 351 C 35.0481 2.42205 -3.88717 0
M  V30 352 N 36.5391 2.49655 -3.90162 0
M  V30 353 C 37.2741 2.9933 -4.8907 0
M  V30 354 N 36.7701 3.49172 -5.98374 0
M  V30 355 N 38.5631 2.9821 -4.76474 0
M  V30 356 H 30.7141 0.144796 -2.11906 0
M  V30 357 H 32.9771 0.126863 -0.939473 0
M  V30 358 H 32.6831 1.05017 -3.35655 0
M  V30 359 H 32.5571 2.6614 -2.673 0
M  V30 360 H 34.9441 2.40077 -1.71601 0
M  V30 361 H 35.0251 0.785757 -2.43433 0
M  V30 362 H 34.6691 1.81875 -4.74219 0
M  V30 363 H 34.5991 3.43345 -3.99276 0
M  V30 364 H 37.0901 2.14383 -3.11205 0
M  V30 365 H 37.4031 3.8548 -6.69795 0
M  V30 366 H 35.7481 3.47275 -6.02018 0
M  V30 367 H 38.9391 2.58572 -3.90203 0
M  V30 368 H 39.1121 3.36613 -5.53711 0
M  V30 369 N 32.5182 1.22032 0.997298 0
M  V30 370 C 33.4482 1.01065 2.10495 0
M  V30 371 C 34.4292 -0.0669542 1.69968 0
M  V30 372 O 35.6142 0.0943987 1.9397 0
M  V30 373 C 32.7442 0.582874 3.42374 0
M  V30 374 C 31.6982 1.60592 3.96729 0
M  V30 375 C 31.0242 1.03412 5.24605 0
M  V30 376 C 32.3242 2.99478 4.27914 0
M  V30 377 H 34.0182 1.93708 2.28292 0
M  V30 378 H 31.5642 0.932761 1.09707 0
M  V30 379 H 33.5172 0.423332 4.19268 0
M  V30 380 H 32.2412 -0.379213 3.24391 0
M  V30 381 H 30.9002 1.75316 3.21963 0
M  V30 382 H 30.5482 0.063518 5.0296 0
M  V30 383 H 30.2482 1.71754 5.61938 0
M  V30 384 H 31.7722 0.886066 6.04137 0
M  V30 385 H 33.1862 2.88153 4.95622 0
M  V30 386 H 31.5832 3.64903 4.76409 0
M  V30 387 H 32.6532 3.49742 3.3587 0
M  V30 388 N 33.9963 -1.19345 1.0293 0
M  V30 389 C 35.2443 -1.88665 0.724574 0
M  V30 390 C 35.5653 -1.80036 -0.749144 0
M  V30 391 O 34.8353 -1.2111 -1.53978 0
M  V30 392 H 33.4153 -0.698406 0.265025 0
M  V30 393 H 36.0773 -1.44885 1.30362 0
M  V30 394 H 35.1733 -2.94987 1.01926 0
M  V30 395 N 35.4744 -0.807222 -1.35358 0
M  V30 396 C 36.7224 -0.387122 -1.98358 0
M  V30 397 C 37.0434 1.04942 -1.64354 0
M  V30 398 O 36.3134 1.72615 -0.926339 0
M  V30 399 H 34.8934 -0.140154 -0.733734 0
M  V30 400 H 37.5554 -1.0332 -1.6526 0
M  V30 401 H 36.6514 -0.493352 -3.08176 0
M  V30 402 N 36.9525 1.47285 -0.560781 0
M  V30 403 C 38.2005 2.02064 -0.0379868 0
M  V30 404 C 38.5215 1.43711 1.31803 0
M  V30 405 O 37.7915 0.61362 1.86042 0
M  V30 406 H 36.3715 0.746918 -0.0110531 0
M  V30 407 H 39.0335 1.80648 -0.731598 0
M  V30 408 H 38.1295 3.12064 0.0474463 0
M  V30 409 N 38.4306 0.297415 1.54768 0
M  V30 410 C 39.6586 -0.315623 2.04478 0
M  V30 411 C 40.0736 -1.47792 1.17486 0
M  V30 412 O 39.4306 -1.81404 0.19971 0
M  V30 413 C 39.4816 -0.7753 3.53088 0
M  V30 414 O 39.2026 0.340732 4.36773 0
M  V30 415 C 40.7036 -1.45386 4.18781 0
M  V30 416 H 37.9236 -0.0690887 0.667434 0
M  V30 417 H 40.4676 0.436003 1.99798 0
M  V30 418 H 38.6226 -1.47696 3.58141 0
M  V30 419 H 39.0366 -0.0165035 5.24497 0
M  V30 420 H 40.5106 -1.72669 5.24299 0
M  V30 421 H 40.9876 -2.39275 3.68299 0
M  V30 422 H 41.5936 -0.795475 4.17795 0
M  V30 423 N 39.9087 -1.5758 0.0250728 0
M  V30 424 C 41.1387 -1.95646 -0.663783 0
M  V30 425 C 41.5467 -0.899935 -1.66427 0
M  V30 426 O 40.8897 0.127191 -1.83259 0
M  V30 427 C 40.9517 -3.29835 -1.43 0
M  V30 428 C 40.6157 -4.53197 -0.588305 0
M  V30 429 C 41.6127 -5.19726 0.13469 0
M  V30 430 C 39.2977 -4.99529 -0.526897 0
M  V30 431 C 41.2917 -6.30902 0.90781 0
M  V30 432 C 38.9787 -6.10589 0.24993 0
M  V30 433 C 39.9767 -6.76134 0.965994 0
M  V30 434 O 39.6647 -7.85062 1.7301 0
M  V30 435 H 39.3967 -0.649282 -0.188174 0
M  V30 436 H 41.9507 -2.05245 0.0799006 0
M  V30 437 H 40.1807 -3.16716 -2.21873 0
M  V30 438 H 41.8697 -3.52833 -2.00658 0
M  V30 439 H 42.6357 -4.84904 0.0965562 0
M  V30 440 H 38.5147 -4.48319 -1.07381 0
M  V30 441 H 42.0587 -6.81995 1.46724 0
M  V30 442 H 37.9557 -6.44849 0.289795 0
M  V30 443 H 38.7237 -8.01708 1.64944 0
M  V30 444 N 41.3868 0.248026 -1.55636 0
M  V30 445 C 42.6348 0.974295 -1.77065 0
M  V30 446 C 42.9558 1.85897 -0.588849 0
M  V30 447 O 42.2258 1.91868 0.395407 0
M  V30 448 H 40.8058 0.362733 -0.653019 0
M  V30 449 H 43.4678 0.266244 -1.93073 0
M  V30 450 H 42.5638 1.59667 -2.68166 0
M  V30 451 N 42.8649 1.48995 0.513639 0
M  V30 452 C 43.7749 1.67443 1.64317 0
M  V30 453 C 44.7909 0.556947 1.64846 0
M  V30 454 O 45.9669 0.830082 1.83498 0
M  V30 455 C 43.0319 1.72515 3.00732 0
M  V30 456 C 42.0929 2.96009 3.1093 0
M  V30 457 C 41.3259 3.00829 4.40837 0
M  V30 458 O 41.5489 2.13594 5.28898 0
M  V30 459 O 40.4829 3.93168 4.55744 0
M  V30 460 H 44.3089 2.63106 1.51687 0
M  V30 461 H 41.8939 1.32588 0.688543 0
M  V30 462 H 43.7759 1.78277 3.81831 0
M  V30 463 H 42.4509 0.800278 3.13651 0
M  V30 464 H 41.3579 2.9577 2.29065 0
M  V30 465 H 42.6909 3.87934 3.02933 0
M  V30 466 N 44.343 -0.763751 1.37857 0
M  V30 467 C 45.589 -1.52483 1.33704 0
M  V30 468 C 45.922 -1.94051 -0.0759612 0
M  V30 469 O 45.197 -1.64675 -1.03501 0
M  V30 470 C 45.48 -2.78441 2.28348 0
M  V30 471 C 45.333 -2.43075 3.78463 0
M  V30 472 C 46.652 -3.80415 2.21298 0
M  V30 473 H 43.771 -0.553169 0.487005 0
M  V30 474 H 46.413 -0.875562 1.68624 0
M  V30 475 H 44.563 -3.33842 1.987 0
M  V30 476 H 46.235 -1.93527 4.18742 0
M  V30 477 H 44.478 -1.75666 3.96641 0
M  V30 478 H 45.149 -3.33149 4.40132 0
M  V30 479 H 47.625 -3.34527 2.47449 0
M  V30 480 H 46.501 -4.66257 2.89647 0
M  V30 481 H 46.762 -4.25262 1.20849 0
M  V30 482 N 45.8211 -1.22559 -0.990812 0
M  V30 483 C 47.0681 -1.05141 -1.73065 0
M  V30 484 C 47.3961 0.413191 -1.9006 0
M  V30 485 O 46.6511 1.32257 -1.44245 0
M  V30 486 C 46.9501 -1.71011 -3.13831 0
M  V30 487 C 46.6161 -3.20911 -3.16745 0
M  V30 488 C 45.2781 -3.61812 -3.17247 0
M  V30 489 C 47.6301 -4.16846 -3.12872 0
M  V30 490 C 44.9581 -4.97127 -3.1158 0
M  V30 491 C 47.3101 -5.5214 -3.08746 0
M  V30 492 C 45.9741 -5.92419 -3.07565 0
M  V30 493 H 45.2441 -0.384738 -0.633291 0
M  V30 494 H 47.8911 -1.5235 -1.16025 0
M  V30 495 H 46.1961 -1.16133 -3.74193 0
M  V30 496 H 47.8931 -1.55023 -3.69823 0
M  V30 497 H 44.4831 -2.88344 -3.17105 0
M  V30 498 H 48.6671 -3.86263 -3.11632 0
M  V30 499 H 43.9231 -5.27562 -3.09012 0
M  V30 500 H 48.0971 -6.26201 -3.04705 0
M  V30 501 H 45.7241 -6.97236 -3.02929 0
M  V30 502 N 47.2992 1.18797 -1.03562 0
M  V30 503 C 48.2462 2.22253 -0.622259 0
M  V30 504 C 49.2162 1.61987 0.36736 0
M  V30 505 O 50.4012 1.88986 0.262492 0
M  V30 506 C 47.5412 3.45097 0.0138462 0
M  V30 507 C 46.6542 4.19722 -1.02263 0
M  V30 508 C 45.7892 5.30009 -0.355573 0
M  V30 509 C 44.8282 5.96399 -1.37749 0
M  V30 510 N 43.9652 6.98234 -0.735766 0
M  V30 511 H 48.8052 2.56968 -1.50903 0
M  V30 512 H 46.3422 1.26245 -0.755017 0
M  V30 513 H 48.3002 4.15279 0.399948 0
M  V30 514 H 46.9302 3.11018 0.864158 0
M  V30 515 H 45.9822 3.48418 -1.52673 0
M  V30 516 H 47.2942 4.65227 -1.79903 0
M  V30 517 H 46.4482 6.0664 0.0850095 0
M  V30 518 H 45.1872 4.85592 0.452967 0
M  V30 519 H 44.1922 5.18512 -1.82826 0
M  V30 520 H 45.4172 6.42899 -2.18764 0
M  V30 521 H 43.3632 6.55979 0.0525597 0
M  V30 522 H 43.2802 7.41965 -1.44995 0
M  V30 523 H 44.5482 7.78845 -0.31941 0
M  V30 524 N 48.7773 0.814389 1.34928 0
M  V30 525 C 49.7403 0.235759 2.27984 0
M  V30 526 C 50.7403 -0.581412 1.49921 0
M  V30 527 O 51.9303 -0.398758 1.69575 0
M  V30 528 C 49.0623 -0.670433 3.34242 0
M  V30 529 H 50.2553 1.05659 2.80671 0
M  V30 530 H 47.8083 0.585614 1.44915 0
M  V30 531 H 48.5433 -1.51466 2.86755 0
M  V30 532 H 48.3283 -0.0860822 3.92005 0
M  V30 533 H 49.8183 -1.06935 4.03676 0
M  V30 534 N 50.2554 -1.46986 0.568584 0
M  V30 535 C 51.6714 -1.57946 0.229189 0
M  V30 536 C 51.8714 -1.56567 -1.26843 0
M  V30 537 O 50.9274 -1.47511 -2.04931 0
M  V30 538 C 52.2404 -2.87963 0.865909 0
M  V30 539 C 53.7884 -3.01568 0.838188 0
M  V30 540 C 54.2634 -4.34301 1.45419 0
M  V30 541 N 55.7544 -4.40965 1.41788 0
M  V30 542 C 56.4894 -5.42256 1.86403 0
M  V30 543 N 55.9854 -6.50297 2.38926 0
M  V30 544 N 57.7784 -5.3337 1.77405 0
M  V30 545 H 49.9294 -1.46126 1.54146 0
M  V30 546 H 52.1924 -0.696156 0.643484 0
M  V30 547 H 51.8984 -2.94742 1.91886 0
M  V30 548 H 51.7724 -3.75423 0.365687 0
M  V30 549 H 54.1594 -2.94379 -0.206106 0
M  V30 550 H 54.2404 -2.1562 1.37629 0
M  V30 551 H 53.8844 -4.42247 2.49761 0
M  V30 552 H 53.8144 -5.19 0.891435 0
M  V30 553 H 56.3054 -3.63484 1.03381 0
M  V30 554 H 56.6184 -7.23777 2.70863 0
M  V30 555 H 54.9634 -6.51155 2.42944 0
M  V30 556 H 58.1544 -4.47865 1.3614 0
M  V30 557 H 58.3274 -6.12169 2.12492 0
M  V30 558 N 51.7335 -0.305618 -1.54608 0
M  V30 559 C 53.0105 0.355652 -1.92339 0
M  V30 560 C 53.3905 1.71324 -1.23335 0
M  V30 561 O 52.7385 2.25473 -0.370702 0
M  V30 562 C 52.9485 0.46572 -3.45879 0
M  V30 563 C 54.2965 0.734426 -4.182 0
M  V30 564 O 55.3205 0.54935 -3.51938 0
M  V30 565 O 54.1795 1.09024 -5.35515 0
M  V30 566 H 51.2735 0.199666 -0.802535 0
M  V30 567 H 53.8195 -0.354017 -1.65966 0
M  V30 568 H 52.5915 -0.488461 -3.88239 0
M  V30 569 H 52.2145 1.22367 -3.78301 0
M  V30 570 N 53.2116 1.57565 -0.0334293 0
M  V30 571 C 54.1586 2.10478 0.946981 0
M  V30 572 C 55.1286 1.00787 1.32027 0
M  V30 573 O 56.3136 1.28232 1.41284 0
M  V30 574 C 53.4536 2.63994 2.22263 0
M  V30 575 C 52.5666 3.87709 1.90541 0
M  V30 576 C 51.7016 4.29604 3.12433 0
M  V30 577 C 50.7406 5.46065 2.76549 0
M  V30 578 N 49.8776 5.83096 3.9108 0
M  V30 579 H 54.7176 2.93963 0.488846 0
M  V30 580 H 52.2546 1.45296 0.22969 0
M  V30 581 H 54.2126 2.93114 2.96884 0
M  V30 582 H 52.8426 1.83333 2.65685 0
M  V30 583 H 51.8946 3.65291 1.06144 0
M  V30 584 H 53.2066 4.72403 1.60116 0
M  V30 585 H 52.3606 4.60182 3.9537 0
M  V30 586 H 51.0996 3.43685 3.46023 0
M  V30 587 H 50.1046 5.15176 1.92026 0
M  V30 588 H 51.3296 6.33685 2.44171 0
M  V30 589 H 49.2756 5.00132 4.24504 0
M  V30 590 H 49.1926 6.6244 3.64293 0
M  V30 591 H 50.4606 6.18282 4.74708 0
M  V30 592 N 54.6897 -0.239769 1.55765 0
M  V30 593 C 55.9357 -0.968234 1.78194 0
M  V30 594 C 56.2687 -1.84701 0.599938 0
M  V30 595 O 55.5437 -1.9031 -0.401524 0
M  V30 596 C 55.8267 -1.8227 3.10564 0
M  V30 597 C 55.6797 -0.971633 4.3918 0
M  V30 598 C 56.9987 -2.80388 3.39221 0
M  V30 599 H 54.1177 -0.350572 0.648281 0
M  V30 600 H 56.7597 -0.238259 1.885 0
M  V30 601 H 54.9097 -2.44507 3.01908 0
M  V30 602 H 56.5817 -0.367408 4.59835 0
M  V30 603 H 54.8247 -0.276276 4.32919 0
M  V30 604 H 55.4957 -1.60346 5.28198 0
M  V30 605 H 57.9717 -2.28287 3.47885 0
M  V30 606 H 56.8477 -3.3729 4.33044 0
M  V30 607 H 57.1087 -3.57212 2.60484 0
M  V30 608 N 56.1678 -1.49265 -0.50573 0
M  V30 609 C 57.3928 -1.62478 -1.28902 0
M  V30 610 C 57.8178 -0.294332 -1.85783 0
M  V30 611 O 57.1758 0.737412 -1.65626 0
M  V30 612 C 57.2238 -2.69268 -2.39848 0
M  V30 613 O 56.3278 -2.28113 -3.43567 0
M  V30 614 H 55.6688 -0.54399 -0.380751 0
M  V30 615 H 58.1988 -1.95421 -0.605952 0
M  V30 616 H 58.2088 -2.91291 -2.85681 0
M  V30 617 H 56.8838 -3.65846 -1.97812 0
M  V30 618 H 55.4608 -2.16401 -3.03685 0
M  V30 619 N 57.6459 0.756429 -1.3826 0
M  V30 620 C 58.8939 1.51248 -1.34047 0
M  V30 621 C 59.2149 1.94875 0.0698372 0
M  V30 622 O 58.4849 1.67436 1.01696 0
M  V30 623 H 57.0649 0.561018 -0.493222 0
M  V30 624 H 59.7269 0.899347 -1.7291 0
M  V30 625 H 58.8229 2.40472 -1.98947 0
M  V30 626 N 59.124 1.23083 0.984299 0
M  V30 627 C 60.401 0.9689 1.69917 0
M  V30 628 C 60.781 -0.513604 2.04757 0
M  V30 629 O 60.129 -1.48383 1.73767 0
M  V30 630 C 60.339 1.87518 2.94343 0
M  V30 631 C 61.687 2.13636 3.6694 0
M  V30 632 O 62.711 1.85036 3.04368 0
M  V30 633 O 61.57 2.62119 4.79537 0
M  V30 634 H 58.664 0.365095 0.742048 0
M  V30 635 H 61.21 1.34107 1.03987 0
M  V30 636 H 59.982 2.87756 2.65164 0
M  V30 637 H 59.605 1.50514 3.6801 0
M  V30 638 N 60.6021 -1.18246 1.0419 0
M  V30 639 C 61.5321 -2.24127 0.654914 0
M  V30 640 C 62.5131 -1.66617 -0.342451 0
M  V30 641 O 63.6981 -1.92924 -0.222277 0
M  V30 642 C 60.8281 -3.47295 0.0183757 0
M  V30 643 C 59.7821 -4.17563 0.939414 0
M  V30 644 C 59.1081 -5.34438 0.167286 0
M  V30 645 C 60.4081 -4.70917 2.25908 0
M  V30 646 H 62.1021 -2.56753 1.54007 0
M  V30 647 H 59.6481 -1.23414 0.74195 0
M  V30 648 H 61.6011 -4.20572 -0.264082 0
M  V30 649 H 60.3251 -3.13907 -0.901664 0
M  V30 650 H 58.9841 -3.46186 1.20628 0
M  V30 651 H 58.6321 -4.97298 -0.7552 0
M  V30 652 H 58.3321 -5.82388 0.780901 0
M  V30 653 H 59.8561 -6.10504 -0.108125 0
M  V30 654 H 61.2701 -5.35882 2.03724 0
M  V30 655 H 59.6671 -5.29406 2.82577 0
M  V30 656 H 60.7371 -3.88272 2.9047 0
M  V30 657 N 62.0802 -0.821533 -1.34494 0
M  V30 658 C 63.3262 -0.409552 -1.98622 0
M  V30 659 C 63.6592 1.0244 -1.64984 0
M  V30 660 O 62.9342 1.71325 -0.920758 0
M  V30 661 C 63.2172 -0.610458 -3.54888 0
M  V30 662 C 63.0702 -2.09043 -3.98273 0
M  V30 663 C 64.3892 -0.0455379 -4.40076 0
M  V30 664 H 61.5082 -0.15028 -0.721516 0
M  V30 665 H 64.1502 -1.03384 -1.59411 0
M  V30 666 H 62.3002 -0.079044 -3.8842 0
M  V30 667 H 63.9722 -2.68537 -3.75081 0
M  V30 668 H 62.2152 -2.58139 -3.48635 0
M  V30 669 H 62.8862 -2.18182 -5.07051 0
M  V30 670 H 65.3622 -0.499557 -4.1309 0
M  V30 671 H 64.2382 -0.215922 -5.48475 0
M  V30 672 H 64.4992 1.04939 -4.29465 0
M  V30 673 N 63.5583 1.46682 -0.576371 0
M  V30 674 C 64.5213 2.28707 0.150239 0
M  V30 675 C 65.5213 1.38035 0.824794 0
M  V30 676 O 66.7113 1.60476 0.677719 0
M  V30 677 C 63.8433 3.18248 1.22192 0
M  V30 678 H 65.0363 2.94423 -0.570521 0
M  V30 679 H 62.5893 1.52688 -0.334078 0
M  V30 680 H 63.3243 2.57265 1.97447 0
M  V30 681 H 63.1093 3.85 0.742812 0
M  V30 682 H 64.5993 3.80001 1.73172 0
M  V30 683 N 65.0364 0.313813 1.54444 0
M  V30 684 C 65.9664 -0.549454 2.26943 0
M  V30 685 C 66.9474 -1.12741 1.27372 0
M  V30 686 O 68.1324 -1.15436 1.56167 0
M  V30 687 C 65.2624 -1.71523 3.01989 0
M  V30 688 C 64.2164 -1.26703 4.08816 0
M  V30 689 C 63.5424 -2.51898 4.71647 0
M  V30 690 C 64.8424 -0.388962 5.2085 0
M  V30 691 H 66.5364 0.0552661 2.99349 0
M  V30 692 H 64.0824 0.0280207 1.43973 0
M  V30 693 H 66.0354 -2.32535 3.51433 0
M  V30 694 H 64.7594 -2.34639 2.27183 0
M  V30 695 H 63.4184 -0.679896 3.6024 0
M  V30 696 H 63.0664 -3.13356 3.93468 0
M  V30 697 H 62.7664 -2.22605 5.43802 0
M  V30 698 H 64.2904 -3.1369 5.23861 0
M  V30 699 H 65.7044 -0.905107 5.6611 0
M  V30 700 H 64.1014 -0.18924 5.99802 0
M  V30 701 H 65.1714 0.582699 4.81386 0
M  V30 702 N 66.5145 -1.57545 0.0417849 0
M  V30 703 C 67.4615 -2.10977 -0.935805 0
M  V30 704 C 68.4315 -1.01486 -1.31491 0
M  V30 705 O 69.6165 -1.2898 -1.40602 0
M  V30 706 C 66.7565 -2.65169 -2.2086 0
M  V30 707 C 65.8695 -3.88714 -1.88482 0
M  V30 708 C 65.0045 -4.31254 -3.1015 0
M  V30 709 C 64.0435 -5.47524 -2.7365 0
M  V30 710 N 63.1805 -5.85162 -3.87982 0
M  V30 711 H 68.0205 -2.94218 -0.473249 0
M  V30 712 H 65.5575 -1.45415 -0.221981 0
M  V30 713 H 67.5155 -2.94685 -2.95325 0
M  V30 714 H 66.1455 -1.8474 -2.64709 0
M  V30 715 H 65.1975 -3.65849 -1.04205 0
M  V30 716 H 66.5095 -4.73245 -1.57608 0
M  V30 717 H 65.6635 -4.62273 -3.92923 0
M  V30 718 H 64.4025 -3.45516 -3.44195 0
M  V30 719 H 63.4075 -5.16187 -1.89291 0
M  V30 720 H 64.6325 -6.34971 -2.40807 0
M  V30 721 H 62.5785 -5.02377 -4.21846 0
M  V30 722 H 62.4955 -6.64362 -3.60775 0
M  V30 723 H 63.7635 -6.20791 -4.71422 0
M  V30 724 N 67.9926 0.231505 -1.5589 0
M  V30 725 C 68.9256 1.31369 -1.86595 0
M  V30 726 C 69.9036 1.45671 -0.722397 0
M  V30 727 O 71.0876 1.61642 -0.969743 0
M  V30 728 C 68.2146 2.68529 -2.06421 0
M  V30 729 C 67.2606 2.71295 -3.29092 0
M  V30 730 S 68.0936 2.26358 -4.85306 0
M  V30 731 C 69.2496 3.65414 -5.08157 0
M  V30 732 H 69.4826 1.05128 -2.78092 0
M  V30 733 H 67.0156 0.433259 -1.48197 0
M  V30 734 H 68.9736 3.47499 -2.18528 0
M  V30 735 H 67.6346 2.91999 -1.15738 0
M  V30 736 H 66.8276 3.72063 -3.39978 0
M  V30 737 H 66.4296 2.0038 -3.15791 0
M  V30 738 H 68.7216 4.6103 -4.96445 0
M  V30 739 H 69.6646 3.5945 -6.10083 0
M  V30 740 H 70.0726 3.5864 -4.35933 0
M  V30 741 N 69.4707 1.49531 0.497807 0
M  V30 742 C 70.7167 1.59415 1.25358 0
M  V30 743 C 71.0497 0.281422 1.9215 0
M  V30 744 O 70.3247 -0.715249 1.80871 0
M  V30 745 C 70.6077 2.75566 2.3181 0
M  V30 746 C 70.4607 4.16642 1.69498 0
M  V30 747 C 71.7797 2.87347 3.33346 0
M  V30 748 H 68.8987 0.580244 0.454408 0
M  V30 749 H 71.5407 1.81827 0.551262 0
M  V30 750 H 69.6907 2.56587 2.91711 0
M  V30 751 H 71.3627 4.47145 1.13399 0
M  V30 752 H 69.6057 4.22141 0.998978 0
M  V30 753 H 70.2767 4.93792 2.46725 0
M  V30 754 H 72.7527 3.04634 2.83438 0
M  V30 755 H 71.6287 3.70289 4.05188 0
M  V30 756 H 71.8897 1.96834 3.95865 0
M  V30 757 N 70.9488 -0.749086 1.3866 0
M  V30 758 C 71.8958 -1.86291 1.36251 0
M  V30 759 C 72.8658 -1.64578 0.224347 0
M  V30 760 O 74.0508 -1.86181 0.417279 0
M  V30 761 C 71.1908 -3.23644 1.19786 0
M  V30 762 C 70.3038 -3.57158 2.43027 0
M  V30 763 C 69.4388 -4.83838 2.19258 0
M  V30 764 C 68.4778 -5.10152 3.38247 0
M  V30 765 N 67.6148 -6.28029 3.13884 0
M  V30 766 H 72.4548 -1.87685 2.3147 0
M  V30 767 H 69.9918 -0.917287 1.14997 0
M  V30 768 H 71.9498 -4.0291 1.08254 0
M  V30 769 H 70.5798 -3.21566 0.282031 0
M  V30 770 H 69.6318 -2.72701 2.65214 0
M  V30 771 H 70.9438 -3.7253 3.31697 0
M  V30 772 H 70.0978 -5.71057 2.04888 0
M  V30 773 H 68.8368 -4.70614 1.2796 0
M  V30 774 H 67.8418 -4.21401 3.53131 0
M  V30 775 H 69.0668 -5.25271 4.30427 0
M  V30 776 H 67.0128 -6.1612 2.25238 0
M  V30 777 H 66.9298 -6.43922 3.96106 0
M  V30 778 H 68.1978 -7.18124 3.03179 0
M  V30 779 N 72.4269 -1.23603 -0.977757 0
M  V30 780 C 73.3599 -0.962772 -2.06896 0
M  V30 781 C 74.3379 0.0998743 -1.62293 0
M  V30 782 O 75.5219 -0.0349421 -1.88468 0
M  V30 783 C 72.6489 -0.45095 -3.35685 0
M  V30 784 C 71.6949 -1.50061 -3.99229 0
M  V30 785 S 72.5279 -3.07884 -4.38142 0
M  V30 786 C 73.6839 -2.58378 -5.7008 0
M  V30 787 H 73.9169 -1.88677 -2.29757 0
M  V30 788 H 71.4499 -1.06876 -1.11431 0
M  V30 789 H 73.4079 -0.162261 -4.10179 0
M  V30 790 H 72.0689 0.452179 -3.10828 0
M  V30 791 H 71.2619 -1.09269 -4.92013 0
M  V30 792 H 70.8639 -1.73878 -3.31123 0
M  V30 793 H 73.1559 -2.00563 -6.47133 0
M  V30 794 H 74.0989 -3.49711 -6.15717 0
M  V30 795 H 74.5069 -1.99143 -5.28207 0
M  V30 796 N 73.905 1.17692 -1.04816 0
M  V30 797 C 74.815 2.25229 -0.65643 0
M  V30 798 C 75.831 1.71018 0.320761 0
M  V30 799 O 77.007 2.00649 0.173805 0
M  V30 800 C 74.072 3.46684 -0.0332629 0
M  V30 801 C 73.133 4.15997 -1.06042 0
M  V30 802 C 72.366 5.31654 -0.466893 0
M  V30 803 O 72.589 5.65777 0.724758 0
M  V30 804 O 71.523 5.89831 -1.1993 0
M  V30 805 H 75.349 2.61016 -1.55255 0
M  V30 806 H 72.934 1.24919 -0.81949 0
M  V30 807 H 74.816 4.20234 0.313256 0
M  V30 808 H 73.491 3.12703 0.836566 0
M  V30 809 H 72.398 3.44482 -1.45886 0
M  V30 810 H 73.731 4.53996 -1.90127 0
M  V30 811 N 75.3831 0.828654 1.34056 0
M  V30 812 C 76.7941 0.477534 1.8049 0
M  V30 813 C 77.1451 -1.00258 1.6865 0
M  V30 814 O 76.2701 -1.78057 1.22982 0
M  V30 815 C 76.8651 0.860018 3.27703 0
M  V30 816 C 75.4241 0.561185 3.72193 0
M  V30 817 C 74.5711 1.07385 2.55663 0
M  V30 818 H 77.5221 1.0183 1.21722 0
M  V30 819 H 77.5431 0.166038 3.80138 0
M  V30 820 H 77.0551 1.93731 3.36288 0
M  V30 821 H 75.1561 -0.506465 3.69142 0
M  V30 822 H 75.2691 1.10926 4.66082 0
M  V30 823 H 73.6331 0.495149 2.49841 0
M  V30 824 H 74.4161 2.15771 2.67016 0
M  V30 825 N 76.8612 -1.46375 0.584142 0
M  V30 826 C 78.1382 -1.956 0.0033388 0
M  V30 827 C 78.5182 -1.52679 -1.45782 0
M  V30 828 O 77.8662 -0.77816 -2.14842 0
M  V30 829 C 78.0762 -3.48551 0.176891 0
M  V30 830 C 79.4242 -4.24576 0.0454609 0
M  V30 831 O 80.4482 -3.56043 0.105801 0
M  V30 832 O 79.3072 -5.46427 -0.0890376 0
M  V30 833 H 76.4012 -0.825547 -0.0490066 0
M  V30 834 H 78.9472 -1.56652 0.65256 0
M  V30 835 H 77.7192 -3.72683 1.1926 0
M  V30 836 H 77.3422 -3.94332 -0.508695 0
M  V30 837 N 78.3393 -0.321999 -1.54275 0
M  V30 838 C 79.6163 0.335232 -1.92706 0
M  V30 839 C 79.9963 1.70006 -1.25145 0
M  V30 840 O 79.3443 2.25067 -0.394596 0
M  V30 841 C 79.5543 0.429008 -3.46353 0
M  V30 842 C 80.9023 0.690029 -4.18956 0
M  V30 843 O 81.9263 0.511992 -3.52501 0
M  V30 844 O 80.7853 1.03338 -5.36641 0
M  V30 845 H 77.8793 0.191143 -0.804608 0
M  V30 846 H 80.4253 -0.3716 -1.65581 0
M  V30 847 H 79.1973 -0.529611 -3.87699 0
M  V30 848 H 78.8203 1.18348 -3.79578 0
M  V30 849 N 79.8174 1.5752 -0.0501392 0
M  V30 850 C 81.0944 1.83996 0.663685 0
M  V30 851 C 81.4744 0.938339 1.89099 0
M  V30 852 O 80.8224 -0.00087759 2.285 0
M  V30 853 C 81.0324 3.33702 1.02196 0
M  V30 854 C 82.3804 4.00691 1.40469 0
M  V30 855 O 83.4044 3.38321 1.11433 0
M  V30 856 O 82.2634 5.10658 1.94654 0
M  V30 857 H 79.3574 0.759385 0.32751 0
M  V30 858 H 81.9034 1.69514 -0.0794238 0
M  V30 859 H 80.6754 3.91015 0.149364 0
M  V30 860 H 80.2984 3.53368 1.82255 0
M  V30 861 N 81.2955 -0.223234 1.56011 0
M  V30 862 C 82.5415 -0.949279 1.79211 0
M  V30 863 C 82.8745 -1.84054 0.619494 0
M  V30 864 O 82.1495 -1.90726 -0.381317 0
M  V30 865 C 82.4325 -1.78965 3.12479 0
M  V30 866 C 82.2855 -0.924997 4.40186 0
M  V30 867 C 83.6045 -2.76774 3.42175 0
M  V30 868 H 80.7235 -0.343676 0.651963 0
M  V30 869 H 83.3655 -0.218253 1.88742 0
M  V30 870 H 81.5155 -2.41291 3.04485 0
M  V30 871 H 83.1875 -0.318615 4.60198 0
M  V30 872 H 81.4305 -0.230344 4.33188 0
M  V30 873 H 82.1015 -1.54735 5.29869 0
M  V30 874 H 84.5775 -2.24584 3.50287 0
M  V30 875 H 83.4535 -3.32678 4.36597 0
M  V30 876 H 83.7145 -3.54429 2.64258 0
M  V30 877 N 82.7736 -1.49793 -0.48987 0
M  V30 878 C 83.9986 -1.63836 -1.27172 0
M  V30 879 C 84.4236 -0.31402 -1.8546 0
M  V30 880 O 83.7816 0.719803 -1.66399 0
M  V30 881 C 83.8296 -2.71797 -2.36978 0
M  V30 882 O 82.9336 -2.31744 -3.41128 0
M  V30 883 H 82.2746 -0.547997 -0.37496 0
M  V30 884 H 84.8046 -1.96053 -0.585191 0
M  V30 885 H 84.8146 -2.94305 -2.82575 0
M  V30 886 H 83.4896 -3.67923 -1.93921 0
M  V30 887 H 82.0666 -2.1961 -3.01373 0
M  V30 888 N 84.2517 0.741722 -1.39055 0
M  V30 889 C 85.4797 1.53098 -1.39171 0
M  V30 890 C 85.8947 1.88794 0.0155099 0
M  V30 891 O 85.2517 1.53626 0.985159 0
M  V30 892 C 85.3027 2.82274 -2.2584 0
M  V30 893 O 85.0237 2.48097 -3.61081 0
M  V30 894 C 86.5247 3.76343 -2.34266 0
M  V30 895 H 83.7447 0.473335 -0.4756 0
M  V30 896 H 86.2887 0.917045 -1.82785 0
M  V30 897 H 84.4437 3.40015 -1.85656 0
M  V30 898 H 84.8577 3.31029 -4.06842 0
M  V30 899 H 86.3317 4.63898 -2.9917 0
M  V30 900 H 86.8087 4.17619 -1.35982 0
M  V30 901 H 87.4147 3.24523 -2.74891 0
M  V30 902 N 85.7298 1.2412 0.971189 0
M  V30 903 C 86.6598 1.05508 2.08304 0
M  V30 904 C 87.6408 -0.0308864 1.70072 0
M  V30 905 O 88.8258 0.135521 1.93727 0
M  V30 906 C 85.9558 0.655365 3.4106 0
M  V30 907 C 84.9098 1.68971 3.93234 0
M  V30 908 C 84.2358 1.14516 5.22293 0
M  V30 909 C 85.5358 3.08487 4.21465 0
M  V30 910 H 87.2298 1.98507 2.24132 0
M  V30 911 H 84.7758 0.955821 1.07704 0
M  V30 912 H 86.7288 0.51217 4.18276 0
M  V30 913 H 85.4528 -0.31032 3.25122 0
M  V30 914 H 84.1118 1.82106 3.18171 0
M  V30 915 H 83.7598 0.170189 5.02712 0
M  V30 916 H 83.4598 1.83635 5.58168 0
M  V30 917 H 84.9838 1.01401 6.02121 0
M  V30 918 H 86.3978 2.98601 4.89398 0
M  V30 919 H 84.7948 3.74926 4.68562 0
M  V30 920 H 85.8648 3.56787 3.28376 0
M  V30 921 N 87.2079 -1.17134 1.05439 0
M  V30 922 C 88.1399 -2.2078 0.615539 0
M  V30 923 C 89.1529 -1.59584 -0.322001 0
M  V30 924 O 90.3419 -1.78133 -0.114344 0
M  V30 925 C 87.4419 -3.38691 -0.118938 0
M  V30 926 C 86.6149 -4.29454 0.829924 0
M  V30 927 C 85.6739 -5.26024 0.136258 0
M  V30 928 O 84.6999 -5.63952 0.77115 0
M  V30 929 N 85.9019 -5.69487 -1.1254 0
M  V30 930 H 88.6669 -2.59052 1.50705 0
M  V30 931 H 86.2279 -1.32058 0.936603 0
M  V30 932 H 88.2199 -4.00329 -0.593179 0
M  V30 933 H 86.7899 -2.98996 -0.91215 0
M  V30 934 H 86.0099 -3.65211 1.48373 0
M  V30 935 H 87.2979 -4.86984 1.47392 0
M  V30 936 H 86.6959 -5.4075 -1.6615 0
M  V30 937 H 85.2529 -6.33257 -1.54366 0
M  V30 938 N 88.686 -0.835752 -1.33615 0
M  V30 939 C 89.633 -0.26473 -2.29277 0
M  V30 940 C 90.603 0.617712 -1.54187 0
M  V30 941 O 91.788 0.556641 -1.825 0
M  V30 942 C 88.928 0.556777 -3.40579 0
M  V30 943 C 88.041 -0.349339 -4.30585 0
M  V30 944 C 87.176 0.482969 -5.29 0
M  V30 945 C 86.215 -0.421732 -6.10645 0
M  V30 946 N 85.352 0.372262 -7.01112 0
M  V30 947 H 90.192 -1.08582 -2.77514 0
M  V30 948 H 87.729 -0.546927 -1.36554 0
M  V30 949 H 89.687 1.04852 -4.03809 0
M  V30 950 H 88.317 1.34286 -2.93542 0
M  V30 951 H 87.369 -0.959372 -3.68104 0
M  V30 952 H 88.681 -1.04445 -4.87742 0
M  V30 953 H 87.835 1.03866 -5.97743 0
M  V30 954 H 86.574 1.21153 -4.72412 0
M  V30 955 H 85.579 -0.989464 -5.40823 0
M  V30 956 H 86.804 -1.14861 -6.69316 0
M  V30 957 H 84.75 1.08426 -6.46977 0
M  V30 958 H 84.667 -0.264198 -7.55538 0
M  V30 959 H 85.935 0.910293 -7.74167 0
M  V30 960 N 90.1641 1.46063 -0.591896 0
M  V30 961 C 91.0741 2.34192 0.13831 0
M  V30 962 C 92.0901 1.50305 0.876608 0
M  V30 963 O 93.2661 1.8315 0.837728 0
M  V30 964 C 90.3311 3.27656 1.13326 0
M  V30 965 C 89.3921 4.27445 0.39863 0
M  V30 966 C 88.6251 5.16443 1.34618 0
M  V30 967 O 88.8481 5.08553 2.58321 0
M  V30 968 O 87.7821 5.95843 0.851768 0
M  V30 969 H 91.6081 2.98002 -0.58552 0
M  V30 970 H 89.1931 1.45188 -0.352239 0
M  V30 971 H 91.0751 3.85291 1.70671 0
M  V30 972 H 89.7501 2.6643 1.83839 0
M  V30 973 H 88.6571 3.73471 -0.216895 0
M  V30 974 H 89.9901 4.91482 -0.265709 0
M  V30 975 N 91.6422 0.330177 1.54103 0
M  V30 976 C 92.8912 -0.271336 1.99867 0
M  V30 977 C 93.2042 -1.52723 1.22209 0
M  V30 978 O 94.4102 -2.20515 1.58383 0
M  V30 979 C 92.8662 -0.534032 3.55916 0
M  V30 980 C 92.4742 0.705193 4.42415 0
M  V30 981 C 94.2182 -1.09514 4.1013 0
M  V30 982 C 92.1252 0.414035 5.89949 0
M  V30 983 H 91.0552 -0.105166 0.74663 0
M  V30 984 H 93.7062 0.443429 1.78062 0
M  V30 985 H 92.0882 -1.30915 3.73734 0
M  V30 986 H 93.2622 1.4804 4.36372 0
M  V30 987 H 91.5772 1.18698 3.99124 0
M  V30 988 H 94.1742 -1.3277 5.17954 0
M  V30 989 H 94.5172 -2.04656 3.62521 0
M  V30 990 H 95.0502 -0.381038 3.95971 0
M  V30 991 H 91.7892 1.33481 6.41766 0
M  V30 992 H 91.3092 -0.323336 5.98928 0
M  V30 993 H 92.9882 0.0263105 6.46995 0
M  V30 994 N 93.1203 -1.57491 0.0584922 0
M  V30 995 C 94.0503 -2.14988 -0.911178 0
M  V30 996 C 95.0313 -1.07343 -1.31952 0
M  V30 997 O 96.2163 -1.35318 -1.39294 0
M  V30 998 C 93.3463 -2.70078 -2.18347 0
M  V30 999 C 92.3003 -3.82771 -1.91495 0
M  V30 1000 C 91.6263 -4.24408 -3.25241 0
M  V30 1001 C 92.9263 -5.07592 -1.23075 0
M  V30 1002 H 94.6203 -2.96263 -0.432246 0
M  V30 1003 H 92.1663 -1.42512 -0.206469 0
M  V30 1004 H 94.1193 -3.08943 -2.86587 0
M  V30 1005 H 92.8433 -1.86005 -2.68458 0
M  V30 1006 H 91.5023 -3.44389 -1.25664 0
M  V30 1007 H 91.1503 -3.37275 -3.73168 0
M  V30 1008 H 90.8503 -5.00366 -3.08071 0
M  V30 1009 H 92.3743 -4.65879 -3.94701 0
M  V30 1010 H 93.7883 -5.43857 -1.81362 0
M  V30 1011 H 92.1853 -5.88741 -1.16207 0
M  V30 1012 H 93.2553 -4.84454 -0.207847 0
M  V30 1013 N 94.5984 0.214957 -1.56127 0
M  V30 1014 C 95.8474 0.936451 -1.78643 0
M  V30 1015 C 96.1604 1.85237 -0.628229 0
M  V30 1016 O 97.3664 2.613 -0.737186 0
M  V30 1017 C 95.8224 1.7154 -3.16389 0
M  V30 1018 C 95.4304 0.845299 -4.39953 0
M  V30 1019 C 97.1744 2.42772 -3.48227 0
M  V30 1020 C 95.0814 1.62198 -5.68723 0
M  V30 1021 H 94.0114 0.353401 -0.666051 0
M  V30 1022 H 96.6624 0.190169 -1.82512 0
M  V30 1023 H 95.0444 2.50484 -3.06715 0
M  V30 1024 H 96.2184 0.0959353 -4.607 0
M  V30 1025 H 94.5334 0.244789 -4.1568 0
M  V30 1026 H 97.1304 3.01394 -4.41663 0
M  V30 1027 H 97.4734 3.15984 -2.71035 0
M  V30 1028 H 98.0064 1.70813 -3.5926 0
M  V30 1029 H 94.7454 0.933011 -6.48826 0
M  V30 1030 H 94.2654 2.34579 -5.52026 0
M  V30 1031 H 95.9444 2.18095 -6.09133 0
M  V30 1032 N 96.0765 1.50051 0.48192 0
M  V30 1033 C 97.0065 1.71046 1.58951 0
M  V30 1034 C 97.9875 0.559288 1.60642 0
M  V30 1035 O 99.1725 0.797243 1.77081 0
M  V30 1036 C 96.3025 1.79462 2.97339 0
M  V30 1037 C 95.2565 2.94558 3.10515 0
M  V30 1038 C 94.5825 2.88105 4.50444 0
M  V30 1039 C 95.8825 4.35227 2.88747 0
M  V30 1040 H 97.5765 2.6378 1.41635 0
M  V30 1041 H 95.1225 1.26936 0.679942 0
M  V30 1042 H 97.0755 1.92734 3.74742 0
M  V30 1043 H 95.7995 0.833412 3.15788 0
M  V30 1044 H 94.4585 2.80918 2.35543 0
M  V30 1045 H 94.1065 1.89853 4.65795 0
M  V30 1046 H 93.8065 3.65366 4.60197 0
M  V30 1047 H 95.3305 3.03412 5.29881 0
M  V30 1048 H 96.7445 4.49449 3.55905 0
M  V30 1049 H 95.1415 5.13856 3.09955 0
M  V30 1050 H 96.2115 4.48347 1.84696 0
M  V30 1051 N 97.5546 -0.734337 1.39446 0
M  V30 1052 C 98.5016 -1.84835 1.38219 0
M  V30 1053 C 99.4716 -1.64331 0.24179 0
M  V30 1054 O 100.657 -1.85728 0.437002 0
M  V30 1055 C 97.7966 -3.22355 1.23212 0
M  V30 1056 C 96.9096 -3.5456 2.46801 0
M  V30 1057 C 96.0446 -4.81485 2.24377 0
M  V30 1058 C 95.0836 -5.06536 3.43639 0
M  V30 1059 N 94.2206 -6.24665 3.20528 0
M  V30 1060 H 99.0606 -1.85219 2.33448 0
M  V30 1061 H 96.5976 -0.905039 1.15963 0
M  V30 1062 H 98.5556 -4.0174 1.12522 0
M  V30 1063 H 97.1856 -3.21248 0.316121 0
M  V30 1064 H 96.2376 -2.69872 2.68092 0
M  V30 1065 H 97.5496 -3.6899 3.3563 0
M  V30 1066 H 96.7036 -5.68852 2.10933 0
M  V30 1067 H 95.4426 -4.6923 1.32944 0
M  V30 1068 H 94.4476 -4.17632 3.5758 0
M  V30 1069 H 95.6726 -5.20676 4.35974 0
M  V30 1070 H 93.6186 -6.13696 2.3176 0
M  V30 1071 H 93.5356 -6.39685 4.02913 0
M  V30 1072 H 94.8036 -7.14868 3.10779 0
M  V30 1073 N 99.0327 -1.24633 -0.964593 0
M  V30 1074 C 100.261 -1.11501 -1.74285 0
M  V30 1075 C 100.676 0.332165 -1.85855 0
M  V30 1076 O 100.033 1.22903 -1.34911 0
M  V30 1077 C 100.084 -1.75258 -3.16175 0
M  V30 1078 O 99.8047 -3.14318 -3.05182 0
M  V30 1079 C 101.306 -1.67776 -4.10324 0
M  V30 1080 H 98.5257 -0.389407 -0.546446 0
M  V30 1081 H 101.07 -1.64801 -1.21083 0
M  V30 1082 H 99.2247 -1.25954 -3.66353 0
M  V30 1083 H 99.6387 -3.4551 -3.94618 0
M  V30 1084 H 101.113 -2.17064 -5.0753 0
M  V30 1085 H 101.59 -0.639584 -4.34518 0
M  V30 1086 H 102.196 -2.16522 -3.66058 0
M  V30 1087 N 100.511 1.16574 -1.06058 0
M  V30 1088 C 101.751 1.88723 -0.78504 0
M  V30 1089 C 102.115 1.79706 0.676006 0
M  V30 1090 O 103.316 2.46757 1.06603 0
M  V30 1091 C 101.587 3.34338 -1.26304 0
M  V30 1092 S 103.146 4.24366 -1.1162 0
M  V30 1093 H 99.9638 0.651448 -0.284846 0
M  V30 1094 H 102.566 1.40732 -1.35701 0
M  V30 1095 H 101.27 3.38439 -2.32136 0
M  V30 1096 H 100.801 3.87378 -0.685719 0
M  V30 1097 H 102.816 4.96179 -0.0456539 0
M  V30 1098 N 101.989 0.842826 1.3317 0
M  V30 1099 C 103.405 0.531128 1.50503 0
M  V30 1100 C 103.605 -0.940734 1.78192 0
M  V30 1101 O 102.661 -1.72436 1.84451 0
M  V30 1102 C 103.974 1.40789 2.65705 0
M  V30 1103 C 105.522 1.40708 2.79589 0
M  V30 1104 C 105.997 2.26878 3.97857 0
M  V30 1105 N 107.488 2.24609 4.05099 0
M  V30 1106 C 108.223 2.88019 4.95815 0
M  V30 1107 N 107.719 3.60496 5.9162 0
M  V30 1108 N 109.512 2.77469 4.88843 0
M  V30 1109 H 101.663 1.79557 1.1346 0
M  V30 1110 H 103.926 0.766267 0.558156 0
M  V30 1111 H 103.632 2.454 2.51936 0
M  V30 1112 H 103.506 1.08677 3.61205 0
M  V30 1113 H 105.893 0.368668 2.92788 0
M  V30 1114 H 105.974 1.76829 1.84838 0
M  V30 1115 H 105.618 3.3078 3.85418 0
M  V30 1116 H 105.548 1.88096 4.91861 0
M  V30 1117 H 108.039 1.71906 3.36536 0
M  V30 1118 H 108.352 4.06076 6.57512 0
M  V30 1119 H 106.697 3.64604 5.91683 0
M  V30 1120 H 109.888 2.20406 4.12963 0
M  V30 1121 H 110.061 3.2717 5.59342 0
M  V30 1122 N 103.467 -1.45747 0.599634 0
M  V30 1123 C 104.417 -2.27538 -0.145107 0
M  V30 1124 C 105.401 -1.3686 -0.846055 0
M  V30 1125 O 106.593 -1.6091 -0.737357 0
M  V30 1126 C 103.722 -3.23569 -1.14708 0
M  V30 1127 C 102.808 -4.21734 -0.447383 0
M  V30 1128 N 103.199 -5.03257 0.506535 0
M  V30 1129 C 101.497 -4.40536 -0.695966 0
M  V30 1130 C 102.198 -5.74426 0.917068 0
M  V30 1131 N 101.174 -5.42966 0.26253 0
M  V30 1132 H 104.976 -2.87965 0.587672 0
M  V30 1133 H 102.49 -1.56803 0.422697 0
M  V30 1134 H 104.487 -3.8089 -1.69495 0
M  V30 1135 H 103.147 -2.64702 -1.8805 0
M  V30 1136 H 104.158 -5.10319 0.882899 0
M  V30 1137 H 100.835 -3.92802 -1.41467 0
M  V30 1138 H 102.225 -6.4995 1.70338 0
M  V30 1139 N 104.945 -0.338344 -1.53925 0
M  V30 1140 C 105.908 0.508299 -2.23493 0
M  V30 1141 C 106.908 1.03175 -1.23335 0
M  V30 1142 O 108.098 0.921826 -1.47811 0
M  V30 1143 C 105.23 1.70754 -2.95052 0
M  V30 1144 H 106.423 -0.100058 -2.99733 0
M  V30 1145 H 103.976 -0.0896198 -1.56043 0
M  V30 1146 H 104.711 2.35474 -2.22986 0
M  V30 1147 H 104.496 1.33946 -3.68512 0
M  V30 1148 H 105.986 2.30818 -3.48013 0
M  V30 1149 N 106.423 1.57458 -0.0668435 0
M  V30 1150 C 107.371 2.13639 0.919851 0
M  V30 1151 C 108.365 1.07204 1.31163 0
M  V30 1152 O 109.571 1.25591 1.28945 0
M  V30 1153 H 105.946 0.683048 0.314562 0
M  V30 1154 H 107.917 2.95415 0.421047 0
M  V30 1155 C 106.666 2.70892 2.17975 0
M  V30 1156 H 105.989 3.5246 1.88711 0
M  V30 1157 H 107.429 3.13803 2.85138 0
M  V30 1158 C 105.888 1.65414 2.93496 0
M  V30 1159 O 106.418 1.07619 3.87015 0
M  V30 1160 N 104.624 1.36564 2.56512 0
M  V30 1161 H 104.171 1.83751 1.80536 0
M  V30 1162 H 104.129 0.66223 3.07347 0
M  V30 1163 N 107.901 -0.206675 1.56239 0
M  V30 1164 C 109.15 -0.926964 1.79138 0
M  V30 1165 C 109.463 -1.84901 0.638043 0
M  V30 1166 O 110.669 -2.60906 0.751033 0
M  V30 1167 C 109.125 -1.6986 3.17294 0
M  V30 1168 C 108.733 -0.821956 4.40395 0
M  V30 1169 C 110.477 -2.40922 3.4951 0
M  V30 1170 C 108.384 -1.59179 5.69575 0
M  V30 1171 H 107.314 -0.349864 0.667915 0
M  V30 1172 H 109.965 -0.180487 1.8261 0
M  V30 1173 H 108.347 -2.48853 3.08039 0
M  V30 1174 H 109.521 -0.0715019 4.60745 0
M  V30 1175 H 107.836 -0.222741 4.15804 0
M  V30 1176 H 110.433 -2.99047 4.43255 0
M  V30 1177 H 110.776 -3.14542 2.72707 0
M  V30 1178 H 111.309 -1.68905 3.60161 0
M  V30 1179 H 108.048 -0.898589 6.49312 0
M  V30 1180 H 107.568 -2.31648 5.53262 0
M  V30 1181 H 109.247 -2.14862 6.10281 0
M  V30 1182 N 109.379 -1.50304 -0.473955 0
M  V30 1183 C 110.625 -1.61389 -1.22806 0
M  V30 1184 C 110.958 -0.311955 -1.91678 0
M  V30 1185 O 110.233 0.686384 -1.81986 0
M  V30 1186 C 110.516 -2.79219 -2.27396 0
M  V30 1187 C 110.369 -4.19286 -1.62848 0
M  V30 1188 C 111.688 -2.92614 -3.28732 0
M  V30 1189 H 108.807 -0.587399 -0.445119 0
M  V30 1190 H 111.449 -1.82681 -0.522265 0
M  V30 1191 H 109.599 -2.61195 -2.87592 0
M  V30 1192 H 111.271 -4.48892 -1.06271 0
M  V30 1193 H 109.514 -4.23677 -0.931693 0
M  V30 1194 H 110.185 -4.97655 -2.38838 0
M  V30 1195 H 112.661 -3.09105 -2.78556 0
M  V30 1196 H 111.537 -3.76688 -3.99246 0
M  V30 1197 H 111.798 -2.03107 -3.92683 0
M  V30 1198 N 110.857 0.726932 -1.39834 0
M  V30 1199 C 111.82 1.82269 -1.38962 0
M  V30 1200 C 112.82 1.58248 -0.285334 0
M  V30 1201 O 114.01 1.65499 -0.54366 0
M  V30 1202 C 111.142 3.20186 -1.17019 0
M  V30 1203 H 112.335 1.84443 -2.36476 0
M  V30 1204 H 109.888 0.931416 -1.25516 0
M  V30 1205 H 110.623 3.23669 -0.202204 0
M  V30 1206 H 110.408 3.3902 -1.96998 0
M  V30 1207 H 111.898 4.00235 -1.1917 0
M  V30 1208 N 112.336 1.25143 0.95797 0
M  V30 1209 C 113.566 1.12261 1.73439 0
M  V30 1210 C 113.974 -0.326715 1.86358 0
M  V30 1211 O 113.317 -1.2367 1.35836 0
M  V30 1212 C 113.379 1.69966 3.16784 0
M  V30 1213 C 113.043 3.18936 3.27305 0
M  V30 1214 C 114.04 4.15968 3.11877 0
M  V30 1215 C 111.725 3.59083 3.51234 0
M  V30 1216 C 113.719 5.51126 3.20217 0
M  V30 1217 C 111.406 4.9438 3.5921 0
M  V30 1218 C 112.404 5.90211 3.43716 0
M  V30 1219 O 112.092 7.23046 3.51368 0
M  V30 1220 H 111.824 0.392476 0.550399 0
M  V30 1221 H 114.378 1.65927 1.21068 0
M  V30 1222 H 112.608 1.10744 3.70503 0
M  V30 1223 H 114.297 1.52232 3.76272 0
M  V30 1224 H 115.063 3.86292 2.93264 0
M  V30 1225 H 110.942 2.84989 3.62356 0
M  V30 1226 H 114.486 6.25905 3.0804 0
M  V30 1227 H 110.383 5.23723 3.77339 0
M  V30 1228 H 111.151 7.31097 3.6802 0
M  V30 1229 N 113.814 -1.1601 1.06675 0
M  V30 1230 C 114.764 -2.18512 0.650888 0
M  V30 1231 C 115.748 -1.57677 -0.320441 0
M  V30 1232 O 116.94 -1.76482 -0.135266 0
M  V30 1233 C 114.069 -3.43273 0.0429255 0
M  V30 1234 C 113.155 -4.11176 1.03898 0
M  V30 1235 N 113.546 -4.54672 2.216 0
M  V30 1236 C 111.844 -4.37417 0.870779 0
M  V30 1237 C 112.545 -5.07248 2.84736 0
M  V30 1238 N 111.521 -5.0037 2.12441 0
M  V30 1239 H 115.323 -2.49863 1.54745 0
M  V30 1240 H 112.837 -1.32503 0.938975 0
M  V30 1241 H 114.834 -4.16006 -0.272857 0
M  V30 1242 H 113.494 -3.13408 -0.84884 0
M  V30 1243 H 114.505 -4.4828 2.59356 0
M  V30 1244 H 111.182 -4.17488 0.0313293 0
M  V30 1245 H 112.572 -5.50912 3.84636 0
M  V30 1246 N 115.292 -0.849877 -1.32721 0
M  V30 1247 C 116.54 -0.450032 -1.97026 0
M  V30 1248 C 116.861 0.996604 -1.67609 0
M  V30 1249 O 116.131 1.6958 -0.980786 0
M  V30 1250 H 114.711 -0.163426 -0.728904 0
M  V30 1251 H 117.373 -1.08526 -1.6189 0
M  V30 1252 H 116.469 -0.591146 -3.0645 0
M  V30 1253 N 116.77 1.45427 -0.607355 0
M  V30 1254 C 117.995 2.07124 -0.107006 0
M  V30 1255 C 118.42 1.44906 1.19933 0
M  V30 1256 O 117.778 0.541687 1.73019 0
M  V30 1257 C 117.826 3.60595 0.0194119 0
M  V30 1258 O 116.93 3.98285 1.0697 0
M  V30 1259 H 116.271 0.659868 -0.0739597 0
M  V30 1260 H 118.801 1.86683 -0.837297 0
M  V30 1261 H 118.811 4.07419 0.2177 0
M  V30 1262 H 117.486 4.05266 -0.934453 0
M  V30 1263 H 116.063 3.63133 0.847889 0
M  V30 1264 N 118.248 0.346503 1.53744 0
M  V30 1265 C 119.478 -0.250047 2.05081 0
M  V30 1266 C 119.886 -1.44529 1.22098 0
M  V30 1267 O 119.229 -1.81992 0.249917 0
M  V30 1268 C 119.291 -0.725934 3.52094 0
M  V30 1269 C 118.955 0.350053 4.55657 0
M  V30 1270 C 119.952 1.19372 5.0601 0
M  V30 1271 C 117.637 0.504827 4.99757 0
M  V30 1272 C 119.631 2.17768 5.99046 0
M  V30 1273 C 117.318 1.49218 5.92602 0
M  V30 1274 C 118.316 2.32706 6.42135 0
M  V30 1275 O 118.004 3.2976 7.33153 0
M  V30 1276 H 117.736 -0.0515469 0.674032 0
M  V30 1277 H 120.29 0.497559 1.99282 0
M  V30 1278 H 118.52 -1.52483 3.55367 0
M  V30 1279 H 120.209 -1.24336 3.86388 0
M  V30 1280 H 120.975 1.08525 4.72702 0
M  V30 1281 H 116.854 -0.135178 4.60802 0
M  V30 1282 H 120.398 2.82971 6.37631 0
M  V30 1283 H 116.295 1.6012 6.25325 0
M  V30 1284 H 117.063 3.25265 7.51096 0
M  V30 1285 N 119.726 -1.57421 0.075193 0
M  V30 1286 C 120.656 -2.15942 -0.888324 0
M  V30 1287 C 121.637 -1.08737 -1.30806 0
M  V30 1288 O 122.822 -1.36787 -1.37851 0
M  V30 1289 C 119.952 -2.72379 -2.1547 0
M  V30 1290 C 118.906 -3.8478 -1.87425 0
M  V30 1291 C 118.232 -4.27834 -3.20721 0
M  V30 1292 C 119.532 -5.08869 -1.17684 0
M  V30 1293 H 121.226 -2.96705 -0.400799 0
M  V30 1294 H 118.772 -1.42723 -0.191342 0
M  V30 1295 H 120.725 -3.11965 -2.83295 0
M  V30 1296 H 119.449 -1.88841 -2.6647 0
M  V30 1297 H 118.108 -3.45703 -1.22004 0
M  V30 1298 H 117.756 -3.41214 -3.6957 0
M  V30 1299 H 117.456 -5.03605 -3.02746 0
M  V30 1300 H 118.98 -4.70039 -3.89738 0
M  V30 1301 H 120.394 -5.4575 -1.75584 0
M  V30 1302 H 118.791 -5.8994 -1.09956 0
M  V30 1303 H 119.861 -4.84648 -0.156453 0
M  V30 1304 N 121.204 0.198386 -1.56346 0
M  V30 1305 C 122.45 0.916115 -1.81601 0
M  V30 1306 C 122.805 1.81025 -0.651744 0
M  V30 1307 O 122.098 1.88316 0.353229 0
M  V30 1308 C 122.292 1.77031 -3.10475 0
M  V30 1309 C 122.121 0.960365 -4.39326 0
M  V30 1310 C 120.891 0.646093 -5.01152 0
M  V30 1311 C 123.089 0.314628 -5.13337 0
M  V30 1312 N 121.071 -0.182828 -6.13628 0
M  V30 1313 C 122.442 -0.37664 -6.18855 0
M  V30 1314 C 124.497 0.230019 -4.97368 0
M  V30 1315 C 123.2 -1.14445 -7.10137 0
M  V30 1316 C 125.226 -0.524389 -5.89071 0
M  V30 1317 C 124.588 -1.20412 -6.94032 0
M  V30 1318 H 120.687 0.314732 -0.715868 0
M  V30 1319 H 123.271 0.185102 -1.93818 0
M  V30 1320 H 121.442 2.47295 -2.99499 0
M  V30 1321 H 123.174 2.42727 -3.2383 0
M  V30 1322 H 119.929 0.969724 -4.63566 0
M  V30 1323 H 120.353 -0.586802 -6.74452 0
M  V30 1324 H 124.995 0.741184 -4.16253 0
M  V30 1325 H 122.713 -1.66706 -7.90718 0
M  V30 1326 H 126.299 -0.591167 -5.78789 0
M  V30 1327 H 125.179 -1.77853 -7.63766 0
M  V30 1328 N 122.682 1.50554 0.465978 0
M  V30 1329 C 123.612 1.72722 1.57128 0
M  V30 1330 C 124.593 0.576294 1.6004 0
M  V30 1331 O 125.778 0.81598 1.76225 0
M  V30 1332 C 122.908 1.82605 2.95419 0
M  V30 1333 C 121.862 2.97835 3.07373 0
M  V30 1334 C 121.188 2.92867 4.47363 0
M  V30 1335 C 122.488 4.38265 2.84114 0
M  V30 1336 H 124.182 2.65267 1.38829 0
M  V30 1337 H 121.728 1.2765 0.666441 0
M  V30 1338 H 123.681 1.96698 3.72677 0
M  V30 1339 H 122.405 0.866858 3.14886 0
M  V30 1340 H 121.064 2.83401 2.3255 0
M  V30 1341 H 120.712 1.94783 4.63755 0
M  V30 1342 H 120.412 3.70227 4.56296 0
M  V30 1343 H 121.936 3.09015 5.26633 0
M  V30 1344 H 123.35 4.53198 3.51118 0
M  V30 1345 H 121.747 5.17115 3.04487 0
M  V30 1346 H 122.817 4.50281 1.7993 0
M  V30 1347 N 124.16 -0.719506 1.40217 0
M  V30 1348 C 125.092 -1.84428 1.36084 0
M  V30 1349 C 126.105 -1.60597 0.266913 0
M  V30 1350 O 127.294 -1.70544 0.526983 0
M  V30 1351 C 124.394 -3.20757 1.094 0
M  V30 1352 C 123.567 -3.71817 2.30372 0
M  V30 1353 C 122.626 -4.86748 1.99907 0
M  V30 1354 O 121.652 -4.99603 2.72737 0
M  V30 1355 N 122.854 -5.7226 0.974635 0
M  V30 1356 H 125.619 -1.88473 2.33019 0
M  V30 1357 H 123.18 -0.900885 1.3452 0
M  V30 1358 H 125.172 -3.95235 0.870116 0
M  V30 1359 H 123.742 -3.11884 0.211452 0
M  V30 1360 H 122.962 -2.88514 2.68614 0
M  V30 1361 H 124.25 -4.02666 3.11026 0
M  V30 1362 H 123.648 -5.6448 0.371368 0
M  V30 1363 H 122.205 -6.46739 0.810656 0
M  V30 1364 N 125.638 -1.25649 -0.95132 0
M  V30 1365 C 126.585 -1.06323 -2.04851 0
M  V30 1366 C 127.555 0.0286491 -1.66075 0
M  V30 1367 O 128.74 -0.12917 -1.90362 0
M  V30 1368 C 125.88 -0.691529 -3.381 0
M  V30 1369 C 124.993 -1.85861 -3.89974 0
M  V30 1370 C 124.128 -1.43096 -5.11563 0
M  V30 1371 C 123.167 -2.56696 -5.55674 0
M  V30 1372 N 122.304 -2.14684 -6.68472 0
M  V30 1373 H 127.144 -2.00222 -2.20715 0
M  V30 1374 H 124.681 -0.997027 -1.08156 0
M  V30 1375 H 126.639 -0.456963 -4.1469 0
M  V30 1376 H 125.269 0.210474 -3.22113 0
M  V30 1377 H 124.321 -2.20639 -3.09875 0
M  V30 1378 H 125.633 -2.71161 -4.18657 0
M  V30 1379 H 124.787 -1.15624 -5.9558 0
M  V30 1380 H 123.526 -0.548722 -4.84603 0
M  V30 1381 H 122.531 -2.84909 -4.7022 0
M  V30 1382 H 123.756 -3.45503 -5.8464 0
M  V30 1383 H 121.702 -1.28881 -6.43215 0
M  V30 1384 H 121.619 -2.9353 -6.96689 0
M  V30 1385 H 122.887 -1.90397 -7.5589 0
M  V30 1386 N 127.117 1.15442 -1.07289 0
M  V30 1387 C 128.047 2.22312 -0.714107 0
M  V30 1388 C 129.028 1.67467 0.298155 0
M  V30 1389 O 130.213 1.93445 0.171048 0
M  V30 1390 C 127.343 3.47124 -0.110448 0
M  V30 1391 C 126.297 4.14926 -1.04979 0
M  V30 1392 C 125.623 5.33807 -0.308924 0
M  V30 1393 C 126.923 4.64762 -2.38314 0
M  V30 1394 H 128.617 2.5258 -1.6076 0
M  V30 1395 H 126.163 1.21404 -0.77441 0
M  V30 1396 H 128.116 4.21124 0.152482 0
M  V30 1397 H 126.84 3.16187 0.81812 0
M  V30 1398 H 125.499 3.42866 -1.29764 0
M  V30 1399 H 125.147 4.99126 0.623084 0
M  V30 1400 H 124.847 5.80113 -0.935036 0
M  V30 1401 H 126.371 6.10576 -0.0537771 0
M  V30 1402 H 127.785 5.30292 -2.1786 0
M  V30 1403 H 126.182 5.21728 -2.96514 0
M  V30 1404 H 127.252 3.80434 -3.00663 0
M  V30 1405 N 128.595 0.856903 1.32268 0
M  V30 1406 C 129.841 0.471355 1.97863 0
M  V30 1407 C 130.196 -0.962896 1.66572 0
M  V30 1408 O 129.489 -1.66686 0.944797 0
M  V30 1409 C 129.683 0.649919 3.51441 0
M  V30 1410 C 129.512 2.09997 3.97657 0
M  V30 1411 C 128.282 2.73893 4.2463 0
M  V30 1412 C 130.48 3.07081 4.1256 0
M  V30 1413 N 128.462 4.09786 4.57109 0
M  V30 1414 C 129.833 4.27968 4.48602 0
M  V30 1415 C 131.888 3.03247 3.949 0
M  V30 1416 C 130.591 5.45521 4.68827 0
M  V30 1417 C 132.617 4.20046 4.16311 0
M  V30 1418 C 131.979 5.39692 4.52672 0
M  V30 1419 H 128.078 0.221263 0.750044 0
M  V30 1420 H 130.662 1.10876 1.60045 0
M  V30 1421 H 128.833 0.0421938 3.88377 0
M  V30 1422 H 130.565 0.234044 4.04023 0
M  V30 1423 H 127.32 2.24918 4.16784 0
M  V30 1424 H 127.744 4.7989 4.7753 0
M  V30 1425 H 132.386 2.11863 3.65888 0
M  V30 1426 H 130.104 6.37434 4.96693 0
M  V30 1427 H 133.69 4.18517 4.04147 0
M  V30 1428 H 132.57 6.28566 4.68907 0
M  V30 1429 N 130.073 -1.45103 0.615059 0
M  V30 1430 C 131.322 -2.01396 0.110718 0
M  V30 1431 C 131.635 -1.48834 -1.26916 0
M  V30 1432 O 132.841 -1.97152 -1.86664 0
M  V30 1433 C 131.297 -3.59599 0.14723 0
M  V30 1434 C 130.905 -4.21158 1.52743 0
M  V30 1435 C 132.649 -4.23428 -0.30148 0
M  V30 1436 C 130.556 -5.71535 1.51992 0
M  V30 1437 H 129.486 -0.753061 0.0376241 0
M  V30 1438 H 132.137 -1.66494 0.77149 0
M  V30 1439 H 130.519 -3.91724 -0.580339 0
M  V30 1440 H 131.693 -4.00594 2.2773 0
M  V30 1441 H 130.008 -3.69552 1.91886 0
M  V30 1442 H 132.605 -5.33703 -0.326392 0
M  V30 1443 H 132.948 -3.94629 -1.32565 0
M  V30 1444 H 133.481 -3.96047 0.373065 0
M  V30 1445 H 130.22 -6.05044 2.52193 0
M  V30 1446 H 129.74 -5.94268 0.81274 0
M  V30 1447 H 131.419 -6.34873 1.24681 0
M  V30 1448 N 131.551 -0.354651 -1.53558 0
M  V30 1449 C 132.791 0.238651 -2.03002 0
M  V30 1450 C 133.155 1.46878 -1.23656 0
M  V30 1451 O 134.356 2.13699 -1.63053 0
M  V30 1452 C 132.627 0.534175 -3.53386 0
M  V30 1453 S 134.186 1.10271 -4.24719 0
M  V30 1454 H 131.004 0.0702908 -0.707517 0
M  V30 1455 H 133.606 -0.494987 -1.8913 0
M  V30 1456 H 132.31 -0.368765 -4.0874 0
M  V30 1457 H 131.841 1.29718 -3.71398 0
M  V30 1458 H 133.856 2.38772 -4.34974 0
M  V30 1459 N 133.029 1.57378 -0.0835403 0
M  V30 1460 C 133.962 2.09016 0.915833 0
M  V30 1461 C 134.94 0.997993 1.2837 0
M  V30 1462 O 136.124 1.27219 1.39096 0
M  V30 1463 C 133.251 2.55757 2.22049 0
M  V30 1464 C 132.297 3.76522 2.00333 0
M  V30 1465 S 133.13 5.20661 1.25191 0
M  V30 1466 C 134.286 5.70743 2.56912 0
M  V30 1467 H 134.519 2.93457 0.476492 0
M  V30 1468 H 132.052 1.53856 0.129493 0
M  V30 1469 H 134.01 2.83346 2.97027 0
M  V30 1470 H 132.671 1.71564 2.63106 0
M  V30 1471 H 131.864 4.07256 2.96916 0
M  V30 1472 H 131.466 3.49367 1.33488 0
M  V30 1473 H 133.758 5.78304 3.52946 0
M  V30 1474 H 134.701 6.6944 2.30772 0
M  V30 1475 H 135.109 4.98616 2.64655 0
M  V30 1476 N 134.507 -0.190092 1.56449 0
M  V30 1477 C 135.417 -1.25591 1.98152 0
M  V30 1478 C 136.433 -1.49519 0.889944 0
M  V30 1479 O 137.609 -1.62036 1.19609 0
M  V30 1480 C 134.674 -2.57916 2.3169 0
M  V30 1481 C 133.735 -2.42015 3.5458 0
M  V30 1482 C 132.968 -3.6803 3.8651 0
M  V30 1483 O 133.191 -4.72413 3.1966 0
M  V30 1484 O 132.125 -3.6326 4.79923 0
M  V30 1485 H 135.951 -0.931988 2.89046 0
M  V30 1486 H 133.536 -0.395488 1.4407 0
M  V30 1487 H 135.418 -3.36008 2.54316 0
M  V30 1488 H 134.093 -2.89925 1.43963 0
M  V30 1489 H 133 -1.62017 3.37196 0
M  V30 1490 H 134.333 -2.14937 4.4279 0
M  V30 1491 N 135.985 -1.50799 -0.457987 0
M  V30 1492 C 137.232 -1.62442 -1.20908 0
M  V30 1493 C 137.56 -0.330865 -1.91665 0
M  V30 1494 O 136.815 0.68401 -1.83357 0
M  V30 1495 C 137.114 -2.76358 -2.2663 0
M  V30 1496 C 136.78 -4.16378 -1.73033 0
M  V30 1497 C 135.442 -4.54473 -1.58138 0
M  V30 1498 C 137.794 -5.03836 -1.33413 0
M  V30 1499 C 135.122 -5.77754 -1.02065 0
M  V30 1500 C 137.474 -6.27676 -0.78778 0
M  V30 1501 C 136.138 -6.64562 -0.625561 0
M  V30 1502 H 135.408 -0.594417 -0.442435 0
M  V30 1503 H 138.055 -1.84772 -0.503136 0
M  V30 1504 H 136.36 -2.48167 -3.03184 0
M  V30 1505 H 138.057 -2.82568 -2.84528 0
M  V30 1506 H 134.647 -3.86331 -1.85598 0
M  V30 1507 H 138.831 -4.75026 -1.4375 0
M  V30 1508 H 134.087 -6.04997 -0.882547 0
M  V30 1509 H 138.261 -6.94797 -0.472177 0
M  V30 1510 H 135.888 -7.59965 -0.188926 0
M  V30 1511 N 137.463 0.71206 -1.40597 0
M  V30 1512 C 138.703 1.48438 -1.40519 0
M  V30 1513 C 139.067 1.91998 -0.00767611 0
M  V30 1514 O 140.268 2.6854 0.118239 0
M  V30 1515 C 138.539 2.67514 -2.37004 0
M  V30 1516 S 140.098 3.56875 -2.55315 0
M  V30 1517 H 136.916 0.507457 -0.498005 0
M  V30 1518 H 139.518 0.832355 -1.76896 0
M  V30 1519 H 138.222 2.33689 -3.37368 0
M  V30 1520 H 137.753 3.37625 -2.01923 0
M  V30 1521 H 139.768 4.62081 -1.8082 0
M  V30 1522 N 138.941 1.26152 0.944643 0
M  V30 1523 C 140.189 1.11271 1.6871 0
M  V30 1524 C 140.51 -0.345166 1.91921 0
M  V30 1525 O 139.78 -1.24387 1.51343 0
M  V30 1526 H 138.36 0.408783 0.625224 0
M  V30 1527 H 141.022 1.58427 1.1352 0
M  V30 1528 H 140.118 1.62879 2.66227 0
M  V30 1529 N 140.419 -1.14872 1.07899 0
M  V30 1530 C 141.382 -2.17986 0.708161 0
M  V30 1531 C 142.382 -1.58775 -0.25442 0
M  V30 1532 O 143.572 -1.74166 -0.034645 0
M  V30 1533 C 140.704 -3.40871 0.0446929 0
M  V30 1534 H 141.897 -2.52306 1.62116 0
M  V30 1535 H 139.45 -1.2943 0.876218 0
M  V30 1536 H 140.185 -3.12124 -0.880281 0
M  V30 1537 H 139.97 -3.8511 0.737091 0
M  V30 1538 H 141.46 -4.17121 -0.19991 0
M  V30 1539 N 141.898 -0.863906 -1.31812 0
M  V30 1540 C 143.146 -0.470904 -1.96537 0
M  V30 1541 C 143.467 0.978771 -1.68657 0
M  V30 1542 O 142.737 1.6853 -0.998717 0
M  V30 1543 H 141.317 -0.171148 -0.72713 0
M  V30 1544 H 143.979 -1.10236 -1.60729 0
M  V30 1545 H 143.075 -0.623616 -3.05806 0
M  V30 1546 N 143.376 1.44774 -0.622745 0
M  V30 1547 C 144.601 2.06999 -0.128968 0
M  V30 1548 C 145.026 1.4617 1.1839 0
M  V30 1549 O 144.384 0.560007 1.72434 0
M  V30 1550 C 144.432 3.60595 -0.0188351 0
M  V30 1551 O 143.536 3.99398 1.02739 0
M  V30 1552 H 142.877 0.659047 -0.0809544 0
M  V30 1553 H 145.407 1.85784 -0.85705 0
M  V30 1554 H 145.417 4.07627 0.174476 0
M  V30 1555 H 144.092 4.04252 -0.977384 0
M  V30 1556 H 142.669 3.64011 0.809326 0
M  V30 1557 N 144.854 0.36279 1.53368 0
M  V30 1558 C 145.784 -0.476976 2.28576 0
M  V30 1559 C 146.765 -1.08631 1.30894 0
M  V30 1560 O 147.95 -1.10409 1.59761 0
M  V30 1561 C 145.08 -1.61828 3.07293 0
M  V30 1562 C 144.034 -1.13633 4.1264 0
M  V30 1563 C 143.36 -2.36766 4.79423 0
M  V30 1564 C 144.66 -0.223061 5.21823 0
M  V30 1565 H 146.354 0.150474 2.99022 0
M  V30 1566 H 143.9 0.0738103 1.43811 0
M  V30 1567 H 145.853 -2.21237 3.58653 0
M  V30 1568 H 144.577 -2.27292 2.34533 0
M  V30 1569 H 143.236 -0.564945 3.62221 0
M  V30 1570 H 142.884 -3.0068 4.03238 0
M  V30 1571 H 142.584 -2.05192 5.50609 0
M  V30 1572 H 144.108 -2.96865 5.33576 0
M  V30 1573 H 145.522 -0.724545 5.68703 0
M  V30 1574 H 143.919 0.001678 6.001 0
M  V30 1575 H 144.989 0.735553 4.79289 0
M  V30 1576 N 146.332 -1.57332 0.0918853 0
M  V30 1577 C 147.264 -2.10869 -0.898168 0
M  V30 1578 C 148.277 -1.04521 -1.24817 0
M  V30 1579 O 149.466 -1.31977 -1.20184 0
M  V30 1580 C 146.566 -2.57083 -2.2082 0
M  V30 1581 C 145.739 -3.87229 -2.03402 0
M  V30 1582 C 144.798 -4.19324 -3.17889 0
M  V30 1583 O 143.824 -4.88598 -2.91994 0
M  V30 1584 N 145.026 -3.74471 -4.43567 0
M  V30 1585 H 147.791 -2.96439 -0.440943 0
M  V30 1586 H 145.352 -1.61631 -0.0933064 0
M  V30 1587 H 147.344 -2.75602 -2.96354 0
M  V30 1588 H 145.914 -1.76541 -2.57977 0
M  V30 1589 H 145.134 -3.7789 -1.12218 0
M  V30 1590 H 146.422 -4.72379 -1.89038 0
M  V30 1591 H 145.82 -3.18546 -4.67488 0
M  V30 1592 H 144.377 -3.98151 -5.16061 0
M  V30 1593 N 147.81 0.181792 -1.56548 0
M  V30 1594 C 149.087 0.926765 -1.72251 0
M  V30 1595 C 149.467 2.00831 -0.650386 0
M  V30 1596 O 148.815 2.26008 0.336521 0
M  V30 1597 C 149.025 1.50106 -3.1507 0
M  V30 1598 C 150.373 1.97805 -3.75711 0
M  V30 1599 O 151.397 1.59922 -3.18282 0
M  V30 1600 O 150.256 2.67555 -4.76525 0
M  V30 1601 H 147.35 0.435506 -0.703039 0
M  V30 1602 H 149.896 0.170443 -1.68842 0
M  V30 1603 H 148.668 0.72212 -3.84579 0
M  V30 1604 H 148.291 2.32186 -3.22763 0
M  V30 1605 N 149.288 1.51039 0.449983 0
M  V30 1606 C 150.537 1.62317 1.19733 0
M  V30 1607 C 150.85 0.339101 1.92638 0
M  V30 1608 O 152.056 0.331069 2.69474 0
M  V30 1609 C 150.512 2.86608 2.17678 0
M  V30 1610 C 150.12 4.21972 1.50479 0
M  V30 1611 C 151.864 3.07239 2.92924 0
M  V30 1612 C 149.771 5.37426 2.46834 0
M  V30 1613 H 148.701 0.604532 0.450619 0
M  V30 1614 H 151.352 1.77494 0.465625 0
M  V30 1615 H 149.734 2.65037 2.94231 0
M  V30 1616 H 150.908 4.53878 0.795716 0
M  V30 1617 H 149.223 4.07117 0.874344 0
M  V30 1618 H 151.82 3.90668 3.65079 0
M  V30 1619 H 152.163 2.19807 3.5354 0
M  V30 1620 H 152.696 3.29091 2.23481 0
M  V30 1621 H 149.435 6.27079 1.90926 0
M  V30 1622 H 148.955 5.09912 3.15832 0
M  V30 1623 H 150.634 5.68862 3.08228 0
M  V30 1624 N 150.766 -0.704594 1.40972 0
M  V30 1625 C 151.996 -1.49138 1.42974 0
M  V30 1626 C 152.404 -1.89175 0.0308406 0
M  V30 1627 O 151.747 -1.56734 -0.958138 0
M  V30 1628 C 151.809 -2.79016 2.26694 0
M  V30 1629 C 151.473 -2.61236 3.74973 0
M  V30 1630 C 152.47 -2.27773 4.67349 0
M  V30 1631 C 150.155 -2.77158 4.18914 0
M  V30 1632 C 152.149 -2.10457 6.01653 0
M  V30 1633 C 149.836 -2.59459 5.53285 0
M  V30 1634 C 150.834 -2.26158 6.4447 0
M  V30 1635 O 150.522 -2.08605 7.76363 0
M  V30 1636 H 150.254 -0.466443 0.489292 0
M  V30 1637 H 152.808 -0.8758 1.85793 0
M  V30 1638 H 151.038 -3.42947 1.78673 0
M  V30 1639 H 152.727 -3.40782 2.20504 0
M  V30 1640 H 153.493 -2.15095 4.34694 0
M  V30 1641 H 149.372 -3.02064 3.48251 0
M  V30 1642 H 152.916 -1.84387 6.72791 0
M  V30 1643 H 148.813 -2.71725 5.85522 0
M  V30 1644 H 149.581 -2.23439 7.87412 0
M  V30 1645 N 152.244 -1.26651 -0.937939 0
M  V30 1646 C 153.176 -1.04283 -2.04102 0
M  V30 1647 C 154.189 -0.00221014 -1.628 0
M  V30 1648 O 155.378 -0.242645 -1.76843 0
M  V30 1649 C 152.478 -0.557846 -3.34277 0
M  V30 1650 C 151.651 -1.66843 -4.04329 0
M  V30 1651 C 150.71 -1.18095 -5.12777 0
M  V30 1652 O 149.736 -1.87865 -5.37304 0
M  V30 1653 N 150.938 -0.0311006 -5.80492 0
M  V30 1654 H 153.703 -1.9927 -2.23856 0
M  V30 1655 H 151.264 -1.1808 -1.10764 0
M  V30 1656 H 153.256 -0.215836 -4.04124 0
M  V30 1657 H 151.826 0.298523 -3.11171 0
M  V30 1658 H 151.046 -2.18123 -3.28353 0
M  V30 1659 H 152.334 -2.41408 -4.47883 0
M  V30 1660 H 151.732 0.551486 -5.63005 0
M  V30 1661 H 150.289 0.251809 -6.51313 0
M  V30 1662 N 153.722 1.14298 -1.08507 0
M  V30 1663 C 154.968 1.85633 -0.816581 0
M  V30 1664 C 155.301 1.82784 0.656021 0
M  V30 1665 O 154.576 1.25926 1.48233 0
M  V30 1666 C 154.859 3.34223 -1.34041 0
M  V30 1667 C 154.712 3.45639 -2.87843 0
M  V30 1668 C 156.031 4.29356 -0.9665 0
M  V30 1669 H 153.15 0.67402 -0.298104 0
M  V30 1670 H 155.792 1.34214 -1.34487 0
M  V30 1671 H 153.942 3.78144 -0.89104 0
M  V30 1672 H 155.614 3.10498 -3.41158 0
M  V30 1673 H 153.857 2.86817 -3.25451 0
M  V30 1674 H 154.528 4.50089 -3.19569 0
M  V30 1675 H 157.004 3.93457 -1.35391 0
M  V30 1676 H 155.88 5.3178 -1.3602 0
M  V30 1677 H 156.141 4.41919 0.126362 0
M  V30 1678 N 155.201 0.870884 1.31352 0
M  V30 1679 C 156.429 0.49677 2.00848 0
M  V30 1680 C 156.844 -0.910998 1.65367 0
M  V30 1681 O 156.201 -1.59696 0.883374 0
M  V30 1682 C 156.252 0.645308 3.55694 0
M  V30 1683 O 155.973 1.99764 3.89905 0
M  V30 1684 C 157.474 0.272326 4.42463 0
M  V30 1685 H 154.694 0.193462 0.642506 0
M  V30 1686 H 157.238 1.1723 1.67563 0
M  V30 1687 H 155.393 0.0173176 3.87396 0
M  V30 1688 H 155.807 2.00607 4.84621 0
M  V30 1689 H 157.281 0.427208 5.50344 0
M  V30 1690 H 157.758 -0.788587 4.32062 0
M  V30 1691 H 158.364 0.876054 4.1618 0
M  V30 1692 N 156.679 -1.44442 0.630414 0
M  V30 1693 C 157.927 -2.01653 0.134351 0
M  V30 1694 C 158.248 -1.49836 -1.24796 0
M  V30 1695 O 157.518 -0.701684 -1.82902 0
M  V30 1696 H 156.098 -0.74554 0.0466769 0
M  V30 1697 H 158.76 -1.76952 0.816955 0
M  V30 1698 H 157.856 -3.11935 0.101498 0
M  V30 1699 N 158.157 -0.370918 -1.53173 0
M  V30 1700 C 159.382 0.220293 -2.06227 0
M  V30 1701 C 159.807 1.41243 -1.24225 0
M  V30 1702 O 159.165 1.79387 -0.262645 0
M  V30 1703 C 159.213 0.586663 -3.55796 0
M  V30 1704 O 158.317 1.68317 -3.76488 0
M  V30 1705 H 157.658 0.0308099 -0.663285 0
M  V30 1706 H 160.188 -0.533068 -1.97534 0
M  V30 1707 H 160.198 0.85617 -3.98916 0
M  V30 1708 H 158.873 -0.285013 -4.14922 0
M  V30 1709 H 157.45 1.40881 -3.45264 0
M  V30 1710 N 159.635 1.57281 -0.100228 0
M  V30 1711 C 160.565 2.17328 0.853857 0
M  V30 1712 C 161.546 1.10804 1.2906 0
M  V30 1713 O 162.731 1.38963 1.35657 0
M  V30 1714 C 159.861 2.75772 2.11109 0
M  V30 1715 C 158.815 3.87713 1.81279 0
M  V30 1716 C 158.141 4.32882 3.13874 0
M  V30 1717 C 159.441 5.10677 1.09574 0
M  V30 1718 H 161.135 2.97305 0.353545 0
M  V30 1719 H 158.681 1.43009 0.168612 0
M  V30 1720 H 160.634 3.16433 2.78296 0
M  V30 1721 H 159.358 1.93057 2.63432 0
M  V30 1722 H 158.017 3.476 1.16489 0
M  V30 1723 H 157.665 3.47051 3.64095 0
M  V30 1724 H 157.365 5.08358 2.94696 0
M  V30 1725 H 158.889 4.7618 3.82211 0
M  V30 1726 H 160.303 5.48474 1.66879 0
M  V30 1727 H 158.7 5.91615 1.00557 0
M  V30 1728 H 159.77 4.84835 0.0793299 0
M  V30 1729 N 161.113 -0.173488 1.56642 0
M  V30 1730 C 162.338 -0.910149 1.86363 0
M  V30 1731 C 162.763 -1.75132 0.686318 0
M  V30 1732 O 162.121 -1.77595 -0.364643 0
M  V30 1733 C 162.169 -1.76447 3.14482 0
M  V30 1734 O 161.273 -2.86584 2.96553 0
M  V30 1735 H 160.614 -0.255086 0.613047 0
M  V30 1736 H 163.144 -0.172283 2.03873 0
M  V30 1737 H 163.154 -2.16483 3.45831 0
M  V30 1738 H 161.829 -1.14658 3.99783 0
M  V30 1739 H 160.406 -2.50146 2.76553 0
M  V30 1740 N 162.591 -1.51276 -0.441967 0
M  V30 1741 C 163.501 -1.75092 -1.56141 0
M  V30 1742 C 164.517 -0.634963 -1.62001 0
M  V30 1743 O 165.693 -0.916686 -1.79329 0
M  V30 1744 C 162.758 -1.86666 -2.92158 0
M  V30 1745 C 161.819 -3.10506 -2.96453 0
M  V30 1746 C 161.052 -3.21519 -4.25982 0
M  V30 1747 O 161.275 -2.38586 -5.18105 0
M  V30 1748 O 160.209 -4.14465 -4.36466 0
M  V30 1749 H 164.035 -2.70044 -1.38961 0
M  V30 1750 H 161.62 -1.35722 -0.624499 0
M  V30 1751 H 163.502 -1.96292 -3.72891 0
M  V30 1752 H 162.177 -0.949014 -3.09476 0
M  V30 1753 H 161.084 -3.06363 -2.14692 0
M  V30 1754 H 162.417 -4.01945 -2.84079 0
M  V30 1755 N 164.069 0.697108 -1.41344 0
M  V30 1756 C 164.999 1.82353 -1.45841 0
M  V30 1757 C 165.98 1.67115 -0.317247 0
M  V30 1758 O 167.165 1.86871 -0.528474 0
M  V30 1759 C 164.295 3.20476 -1.33838 0
M  V30 1760 C 163.249 3.50415 -2.4575 0
M  V30 1761 C 162.575 4.87878 -2.18813 0
M  V30 1762 C 163.875 3.49546 -3.88091 0
M  V30 1763 H 165.569 1.78846 -2.40113 0
M  V30 1764 H 163.115 0.859028 -1.15571 0
M  V30 1765 H 165.068 3.98988 -1.35596 0
M  V30 1766 H 163.792 3.24604 -0.360498 0
M  V30 1767 H 162.451 2.74253 -2.43271 0
M  V30 1768 H 162.099 4.8863 -1.19371 0
M  V30 1769 H 161.799 5.08875 -2.93803 0
M  V30 1770 H 163.323 5.68702 -2.22284 0
M  V30 1771 H 164.737 4.18066 -3.92293 0
M  V30 1772 H 163.134 3.82075 -4.62751 0
M  V30 1773 H 164.204 2.48552 -4.16353 0
M  V30 1774 N 165.547 1.27147 0.931209 0
M  V30 1775 C 166.479 1.05364 2.03546 0
M  V30 1776 C 167.492 0.0108438 1.62796 0
M  V30 1777 O 168.681 0.25202 1.76712 0
M  V30 1778 C 165.781 0.575566 3.33977 0
M  V30 1779 C 164.954 1.68985 4.03439 0
M  V30 1780 C 164.013 1.20813 5.12143 0
M  V30 1781 O 163.039 1.90712 5.363 0
M  V30 1782 N 164.241 0.0618851 5.80467 0
M  V30 1783 H 167.006 2.00454 2.22796 0
M  V30 1784 H 164.567 1.18666 1.10136 0
M  V30 1785 H 166.559 0.237264 4.04004 0
M  V30 1786 H 165.129 -0.282016 3.11325 0
M  V30 1787 H 164.349 2.19861 3.27192 0
M  V30 1788 H 165.637 2.4378 4.46597 0
M  V30 1789 H 165.035 -0.521621 5.6329 0
M  V30 1790 H 163.592 -0.217264 6.51438 0
M  V30 1791 N 167.025 -1.13721 1.09112 0
M  V30 1792 C 168.274 -1.84275 0.82009 0
M  V30 1793 C 168.587 -1.84253 -0.656509 0
M  V30 1794 O 169.793 -2.50668 -1.04296 0
M  V30 1795 C 168.249 -3.30825 1.41714 0
M  V30 1796 C 167.857 -3.39244 2.92605 0
M  V30 1797 C 169.601 -4.06443 1.22492 0
M  V30 1798 C 167.508 -4.80047 3.45411 0
M  V30 1799 H 166.438 -0.690387 0.30312 0
M  V30 1800 H 169.089 -1.28146 1.31343 0
M  V30 1801 H 167.471 -3.86737 0.851498 0
M  V30 1802 H 168.645 -2.93344 3.55367 0
M  V30 1803 H 166.96 -2.77088 3.10823 0
M  V30 1804 H 169.557 -5.10387 1.59402 0
M  V30 1805 H 169.9 -4.15972 0.165299 0
M  V30 1806 H 170.433 -3.56852 1.75788 0
M  V30 1807 H 167.172 -4.75709 4.50978 0
M  V30 1808 H 166.692 -5.26455 2.87411 0
M  V30 1809 H 168.371 -5.48957 3.42425 0
M  V30 1810 N 168.503 -0.877838 -1.30888 0
M  V30 1811 C 169.728 -0.506629 -2.01117 0
M  V30 1812 C 170.153 0.895564 -1.65412 0
M  V30 1813 O 169.511 1.5923 -0.866922 0
M  V30 1814 C 169.559 -0.680223 -3.54126 0
M  V30 1815 O 168.663 0.277033 -4.11468 0
M  V30 1816 H 168.004 -0.200518 -0.633 0
M  V30 1817 H 170.534 -1.18342 -1.66902 0
M  V30 1818 H 170.544 -0.5765 -4.03907 0
M  V30 1819 H 169.219 -1.70261 -3.79452 0
M  V30 1820 H 167.796 0.127606 -3.72682 0
M  V30 1821 N 169.982 1.44106 -0.638065 0
M  V30 1822 C 171.212 2.06037 -0.152394 0
M  V30 1823 C 171.62 1.47808 1.18108 0
M  V30 1824 O 170.963 0.598092 1.73691 0
M  V30 1825 C 171.025 3.59488 0.0293714 0
M  V30 1826 C 170.689 4.4022 -1.22702 0
M  V30 1827 C 171.686 4.73256 -2.15232 0
M  V30 1828 C 169.371 4.8048 -1.46437 0
M  V30 1829 C 171.365 5.45444 -3.29802 0
M  V30 1830 C 169.052 5.52417 -2.61303 0
M  V30 1831 C 170.05 5.84819 -3.52811 0
M  V30 1832 O 169.738 6.55289 -4.65673 0
M  V30 1833 H 169.47 0.671233 -0.0801401 0
M  V30 1834 H 172.024 1.85851 -0.874563 0
M  V30 1835 H 170.254 3.78191 0.806758 0
M  V30 1836 H 171.943 4.03164 0.470475 0
M  V30 1837 H 172.709 4.42684 -1.98131 0
M  V30 1838 H 168.588 4.54676 -0.760977 0
M  V30 1839 H 172.132 5.70653 -4.01249 0
M  V30 1840 H 168.029 5.82404 -2.78344 0
M  V30 1841 H 168.797 6.73762 -4.64744 0
M  V30 1842 N 171.46 0.379036 1.52974 0
M  V30 1843 C 172.706 -0.206727 2.01744 0
M  V30 1844 C 173.039 -1.47314 1.26539 0
M  V30 1845 O 172.314 -1.91084 0.362903 0
M  V30 1846 C 172.597 -0.485066 3.56818 0
M  V30 1847 C 172.45 0.795919 4.42702 0
M  V30 1848 C 173.769 -1.28003 4.21074 0
M  V30 1849 H 170.888 -0.0736607 0.73331 0
M  V30 1850 H 173.53 0.506581 1.83122 0
M  V30 1851 H 171.68 -1.09272 3.72816 0
M  V30 1852 H 173.352 1.43307 4.38476 0
M  V30 1853 H 171.595 1.41344 4.10127 0
M  V30 1854 H 172.266 0.555947 5.49193 0
M  V30 1855 H 174.742 -0.765867 4.08991 0
M  V30 1856 H 173.618 -1.44352 5.29579 0
M  V30 1857 H 173.879 -2.29236 3.78026 0
M  V30 1858 N 172.938 -1.57226 0.108567 0
M  V30 1859 C 174.178 -1.96717 -0.555155 0
M  V30 1860 C 174.542 -0.990003 -1.64508 0
M  V30 1861 O 175.743 -1.2739 -2.36696 0
M  V30 1862 C 174.014 -3.40575 -1.08367 0
M  V30 1863 S 175.573 -4.02072 -1.75737 0
M  V30 1864 H 172.391 -0.687638 -0.180762 0
M  V30 1865 H 174.993 -1.94563 0.191172 0
M  V30 1866 H 173.697 -4.0945 -0.279092 0
M  V30 1867 H 173.228 -3.46356 -1.86551 0
M  V30 1868 H 175.243 -3.91977 -3.04251 0
M  V30 1869 N 174.416 0.165178 -1.56732 0
M  V30 1870 C 175.832 0.517174 -1.50988 0
M  V30 1871 C 176.032 1.84331 -0.813894 0
M  V30 1872 O 175.088 2.49672 -0.37682 0
M  V30 1873 C 176.401 0.544261 -2.95733 0
M  V30 1874 C 177.949 0.631039 -3.06573 0
M  V30 1875 C 178.424 0.68896 -4.52788 0
M  V30 1876 N 179.915 0.751683 -4.5706 0
M  V30 1877 C 180.65 0.817177 -5.67547 0
M  V30 1878 N 180.146 0.843129 -6.8765 0
M  V30 1879 N 181.939 0.856668 -5.55534 0
M  V30 1880 H 174.09 -0.704318 -2.00382 0
M  V30 1881 H 176.353 -0.254687 -0.913148 0
M  V30 1882 H 176.059 -0.361607 -3.49836 0
M  V30 1883 H 175.933 1.3886 -3.5071 0
M  V30 1884 H 178.32 1.52733 -2.52501 0
M  V30 1885 H 178.401 -0.240095 -2.54671 0
M  V30 1886 H 178.045 -0.2031 -5.07494 0
M  V30 1887 H 177.975 1.57633 -5.02454 0
M  V30 1888 H 180.466 0.739661 -3.70591 0
M  V30 1889 H 180.779 0.894448 -7.67606 0
M  V30 1890 H 179.124 0.811304 -6.90248 0
M  V30 1891 H 182.315 0.833437 -4.60621 0
M  V30 1892 H 182.488 0.904247 -6.4166 0
M  V30 1893 N 175.894 1.51508 0.433938 0
M  V30 1894 C 176.804 1.75917 1.5521 0
M  V30 1895 C 177.82 0.643545 1.61662 0
M  V30 1896 O 178.996 0.926183 1.7884 0
M  V30 1897 C 176.061 1.88213 2.91164 0
M  V30 1898 C 175.122 3.12074 2.94802 0
M  V30 1899 C 174.355 3.23774 4.24271 0
M  V30 1900 O 174.578 2.4133 5.16833 0
M  V30 1901 O 173.512 4.16774 4.34262 0
M  V30 1902 H 177.338 2.70777 1.37527 0
M  V30 1903 H 174.923 1.36051 0.617293 0
M  V30 1904 H 176.805 1.98267 3.71845 0
M  V30 1905 H 175.48 0.965413 3.08968 0
M  V30 1906 H 174.387 3.07497 2.13065 0
M  V30 1907 H 175.72 4.03446 2.81943 0
M  V30 1908 N 177.372 -0.689602 1.41712 0
M  V30 1909 C 178.618 -1.45181 1.41599 0
M  V30 1910 C 178.951 -1.94181 0.0270081 0
M  V30 1911 O 178.226 -1.6993 -0.946265 0
M  V30 1912 C 178.509 -2.65945 2.42787 0
M  V30 1913 C 178.362 -2.22672 3.90816 0
M  V30 1914 C 179.681 -3.68149 2.41151 0
M  V30 1915 H 176.8 -0.526576 0.515642 0
M  V30 1916 H 179.442 -0.784947 1.73028 0
M  V30 1917 H 177.592 -3.2284 2.16116 0
M  V30 1918 H 179.264 -1.71058 4.28412 0
M  V30 1919 H 177.507 -1.54394 4.05395 0
M  V30 1920 H 178.178 -3.0935 4.57172 0
M  V30 1921 H 180.654 -3.2094 2.64834 0
M  V30 1922 H 179.53 -4.50248 3.13955 0
M  V30 1923 H 179.791 -4.18259 1.43221 0
M  V30 1924 N 178.85 -1.27639 -0.924453 0
M  V30 1925 C 179.78 -1.13166 -2.04244 0
M  V30 1926 C 180.761 -0.032256 -1.70069 0
M  V30 1927 O 181.946 -0.207328 -1.9309 0
M  V30 1928 C 179.076 -0.781496 -3.38393 0
M  V30 1929 C 178.03 -1.83449 -3.86692 0
M  V30 1930 C 177.356 -1.33822 -5.17683 0
M  V30 1931 C 178.656 -3.23917 -4.09726 0
M  V30 1932 H 180.35 -2.06689 -2.1661 0
M  V30 1933 H 177.896 -0.995136 -1.04082 0
M  V30 1934 H 179.849 -0.667057 -4.16087 0
M  V30 1935 H 178.573 0.189439 -3.2605 0
M  V30 1936 H 177.232 -1.93789 -3.11193 0
M  V30 1937 H 176.88 -0.35665 -5.01734 0
M  V30 1938 H 176.58 -2.04224 -5.50968 0
M  V30 1939 H 178.104 -1.23679 -5.97943 0
M  V30 1940 H 179.518 -3.16559 -4.77978 0
M  V30 1941 H 177.915 -3.92059 -4.54324 0
M  V30 1942 H 178.985 -3.68729 -3.14908 0
M  V30 1943 N 180.328 1.1314 -1.09713 0
M  V30 1944 C 181.26 2.18343 -0.697056 0
M  V30 1945 C 182.273 1.60669 0.262551 0
M  V30 1946 O 183.462 1.78435 0.0481527 0
M  V30 1947 C 180.562 3.38899 -0.00684728 0
M  V30 1948 C 179.735 4.26078 -0.988741 0
M  V30 1949 C 178.794 5.25155 -0.331394 0
M  V30 1950 O 177.82 5.60701 -0.979926 0
M  V30 1951 N 179.022 5.73271 0.913261 0
M  V30 1952 H 181.787 2.5328 -1.60216 0
M  V30 1953 H 179.348 1.28491 -0.984971 0
M  V30 1954 H 181.34 4.02255 0.444191 0
M  V30 1955 H 179.91 3.02175 0.800551 0
M  V30 1956 H 179.13 3.59453 -1.61826 0
M  V30 1957 H 180.418 4.81178 -1.65364 0
M  V30 1958 H 179.816 5.46544 1.45966 0
M  V30 1959 H 178.373 6.3855 1.30757 0
M  V30 1960 N 181.806 0.884767 1.30421 0
M  V30 1961 C 183.054 0.502112 1.95763 0
M  V30 1962 C 183.375 -0.951815 1.70192 0
M  V30 1963 O 182.645 -1.6692 1.0254 0
M  V30 1964 H 181.225 0.182694 0.724315 0
M  V30 1965 H 183.887 1.1278 1.58955 0
M  V30 1966 H 182.983 0.672188 3.04775 0
M  V30 1967 N 183.284 -1.43765 0.645699 0
M  V30 1968 C 184.214 -2.33471 -0.0370477 0
M  V30 1969 C 185.195 -1.49042 -0.819779 0
M  V30 1970 O 186.38 -1.77726 -0.782758 0
M  V30 1971 C 183.51 -3.32311 -1.0093 0
M  V30 1972 C 182.464 -4.2667 -0.337201 0
M  V30 1973 C 181.79 -5.1549 -1.42037 0
M  V30 1974 C 183.09 -5.16657 0.765706 0
M  V30 1975 H 184.784 -2.90809 0.712069 0
M  V30 1976 H 182.33 -1.39834 0.343876 0
M  V30 1977 H 184.283 -3.9396 -1.49578 0
M  V30 1978 H 183.007 -2.73213 -1.78948 0
M  V30 1979 H 181.666 -3.66374 0.128771 0
M  V30 1980 H 181.314 -4.52735 -2.1918 0
M  V30 1981 H 181.014 -5.79438 -0.975966 0
M  V30 1982 H 182.538 -5.80012 -1.90838 0
M  V30 1983 H 183.952 -5.72158 0.361702 0
M  V30 1984 H 182.349 -5.89286 1.13413 0
M  V30 1985 H 183.419 -4.56796 1.62683 0
M  V30 1986 N 184.763 -0.387143 -1.52771 0
M  V30 1987 C 185.726 0.436939 -2.24997 0
M  V30 1988 C 186.726 0.991991 -1.26555 0
M  V30 1989 O 187.916 0.874335 -1.50669 0
M  V30 1990 C 185.048 1.61281 -3.00335 0
M  V30 1991 H 186.241 -0.195365 -2.99263 0
M  V30 1992 H 183.794 -0.139218 -1.55679 0
M  V30 1993 H 184.529 2.2826 -2.30364 0
M  V30 1994 H 184.314 1.22154 -3.72587 0
M  V30 1995 H 185.804 2.19629 -3.5518 0
M  V30 1996 N 186.241 1.57166 -0.116904 0
M  V30 1997 C 187.471 1.99184 0.548586 0
M  V30 1998 C 187.879 0.995436 1.60897 0
M  V30 1999 O 187.222 -0.0201293 1.83689 0
M  V30 2000 C 187.284 3.37611 1.23526 0
M  V30 2001 C 186.948 4.55857 0.323077 0
M  V30 2002 C 187.945 5.18056 -0.437476 0
M  V30 2003 C 185.63 5.01751 0.234761 0
M  V30 2004 C 187.624 6.24536 -1.2741 0
M  V30 2005 C 185.311 6.08093 -0.605496 0
M  V30 2006 C 186.309 6.69352 -1.35856 0
M  V30 2007 O 185.997 7.7364 -2.18487 0
M  V30 2008 H 185.729 0.659148 0.149999 0
M  V30 2009 H 188.283 2.0443 -0.199428 0
M  V30 2010 H 186.513 3.29113 2.0303 0
M  V30 2011 H 188.202 3.63932 1.79745 0
M  V30 2012 H 188.968 4.83516 -0.379105 0
M  V30 2013 H 184.847 4.53817 0.810601 0
M  V30 2014 H 188.391 6.72281 -1.86237 0
M  V30 2015 H 184.288 6.42063 -0.665268 0
M  V30 2016 H 185.056 7.90727 -2.11406 0
M  V30 2017 N 187.719 -0.156864 1.56817 0
M  V30 2018 C 188.649 -1.19589 2.00551 0
M  V30 2019 C 189.63 -1.4536 0.883426 0
M  V30 2020 O 190.815 -1.56449 1.15054 0
M  V30 2021 C 187.945 -2.53143 2.37773 0
M  V30 2022 C 186.899 -2.41913 3.53075 0
M  V30 2023 C 186.225 -3.80088 3.76081 0
M  V30 2024 C 187.525 -1.91157 4.86062 0
M  V30 2025 H 189.219 -0.832293 2.87599 0
M  V30 2026 H 186.765 -0.398918 1.38364 0
M  V30 2027 H 188.718 -3.26047 2.66967 0
M  V30 2028 H 187.442 -2.91319 1.4765 0
M  V30 2029 H 186.101 -1.71462 3.24031 0
M  V30 2030 H 185.749 -4.15683 2.83225 0
M  V30 2031 H 185.449 -3.73439 4.53671 0
M  V30 2032 H 186.973 -4.54556 4.0769 0
M  V30 2033 H 188.387 -2.53846 5.14038 0
M  V30 2034 H 186.784 -1.95422 5.67389 0
M  V30 2035 H 187.854 -0.866673 4.77092 0
M  V30 2036 N 189.197 -1.51736 -0.425897 0
M  V30 2037 C 190.147 -1.70258 -1.51645 0
M  V30 2038 C 191.131 -0.556488 -1.5097 0
M  V30 2039 O 192.323 -0.812879 -1.5723 0
M  V30 2040 C 189.452 -1.84143 -2.89735 0
M  V30 2041 C 188.538 -3.04572 -2.95122 0
M  V30 2042 N 188.929 -4.2756 -2.70233 0
M  V30 2043 C 187.227 -3.04061 -3.26286 0
M  V30 2044 C 187.928 -5.08908 -2.81757 0
M  V30 2045 N 186.904 -4.43797 -3.13919 0
M  V30 2046 H 190.706 -2.63004 -1.31172 0
M  V30 2047 H 188.22 -1.4954 -0.633375 0
M  V30 2048 H 190.217 -1.95525 -3.68206 0
M  V30 2049 H 188.877 -0.925857 -3.1122 0
M  V30 2050 H 189.888 -4.56315 -2.44943 0
M  V30 2051 H 186.565 -2.22179 -3.53473 0
M  V30 2052 H 187.955 -6.16843 -2.66372 0
M  V30 2053 N 190.675 0.682077 -1.42076 0
M  V30 2054 C 191.9 1.47558 -1.45744 0
M  V30 2055 C 192.325 1.87977 -0.0680981 0
M  V30 2056 O 191.683 1.55522 0.9318 0
M  V30 2057 C 191.731 2.70575 -2.38373 0
M  V30 2058 O 190.835 3.68573 -1.85007 0
M  V30 2059 H 190.176 0.443585 -0.494093 0
M  V30 2060 H 192.706 0.837238 -1.86686 0
M  V30 2061 H 192.716 3.18729 -2.54707 0
M  V30 2062 H 191.391 2.40495 -3.39315 0
M  V30 2063 H 189.968 3.2757 -1.78192 0
M  V30 2064 N 192.153 1.28127 0.917671 0
M  V30 2065 C 193.085 1.07517 2.02417 0
M  V30 2066 C 194.098 0.0281099 1.62776 0
M  V30 2067 O 195.287 0.270748 1.76435 0
M  V30 2068 C 192.387 0.610957 3.33347 0
M  V30 2069 C 191.56 1.73255 4.01624 0
M  V30 2070 C 190.619 1.26238 5.10833 0
M  V30 2071 O 189.645 1.96389 5.34247 0
M  V30 2072 N 190.847 0.123448 5.80369 0
M  V30 2073 H 193.612 2.02806 2.20658 0
M  V30 2074 H 191.173 1.19827 1.08871 0
M  V30 2075 H 193.165 0.280101 4.0373 0
M  V30 2076 H 191.735 -0.24898 3.11607 0
M  V30 2077 H 190.955 2.23319 3.24842 0
M  V30 2078 H 192.243 2.48503 4.43986 0
M  V30 2079 H 191.641 -0.461847 5.63812 0
M  V30 2080 H 190.198 -0.148158 6.51632 0
M  V30 2081 N 193.631 -1.12557 1.10312 0
M  V30 2082 C 194.578 -2.18247 0.750781 0
M  V30 2083 C 195.548 -1.63853 -0.272293 0
M  V30 2084 O 196.733 -1.90195 -0.151862 0
M  V30 2085 C 193.873 -3.44591 0.187379 0
M  V30 2086 C 192.986 -4.13046 1.2656 0
M  V30 2087 C 192.121 -5.27034 0.663978 0
M  V30 2088 C 191.16 -5.87353 1.72287 0
M  V30 2089 N 190.297 -6.92757 1.1416 0
M  V30 2090 H 195.137 -2.47732 1.65628 0
M  V30 2091 H 192.674 -1.21629 0.827337 0
M  V30 2092 H 194.632 -4.16904 -0.157148 0
M  V30 2093 H 193.262 -3.15527 -0.681355 0
M  V30 2094 H 192.314 -3.38924 1.72727 0
M  V30 2095 H 193.626 -4.53947 2.06721 0
M  V30 2096 H 192.78 -6.06104 0.268824 0
M  V30 2097 H 191.519 -4.87407 -0.169082 0
M  V30 2098 H 190.524 -5.06971 2.12746 0
M  V30 2099 H 191.749 -6.29051 2.55875 0
M  V30 2100 H 189.695 -6.5517 0.329984 0
M  V30 2101 H 189.612 -7.3225 1.88007 0
M  V30 2102 H 190.88 -7.75658 0.772956 0
M  V30 2103 N 195.109 -0.891671 -1.2995 0
M  V30 2104 C 196.056 -0.361736 -2.27948 0
M  V30 2105 C 197.026 0.551761 -1.56668 0
M  V30 2106 O 198.211 0.478736 -1.84696 0
M  V30 2107 C 195.351 0.411825 -3.42634 0
M  V30 2108 C 194.464 -0.531651 -4.28716 0
M  V30 2109 C 193.599 0.258167 -5.30572 0
M  V30 2110 C 192.638 -0.680349 -6.08307 0
M  V30 2111 N 191.775 0.0745613 -7.0206 0
M  V30 2112 H 196.615 -1.20254 -2.72659 0
M  V30 2113 H 194.152 -0.604352 -1.34112 0
M  V30 2114 H 196.11 0.876304 -4.07893 0
M  V30 2115 H 194.74 1.21715 -2.98974 0
M  V30 2116 H 193.792 -1.11463 -3.63703 0
M  V30 2117 H 195.104 -1.25038 -4.82874 0
M  V30 2118 H 194.258 0.784204 -6.0161 0
M  V30 2119 H 192.997 1.01008 -4.77126 0
M  V30 2120 H 192.002 -1.21796 -5.3614 0
M  V30 2121 H 193.227 -1.43145 -6.63842 0
M  V30 2122 H 191.173 0.808883 -6.50994 0
M  V30 2123 H 191.09 -0.584409 -7.53738 0
M  V30 2124 H 192.358 0.581123 -7.77331 0
M  V30 2125 N 196.587 1.43421 -0.653314 0
M  V30 2126 C 197.836 2.01032 -0.164076 0
M  V30 2127 C 198.149 1.52147 1.22926 0
M  V30 2128 O 199.355 2.02031 1.81371 0
M  V30 2129 C 197.811 3.59082 -0.24252 0
M  V30 2130 C 197.419 4.1696 -1.63855 0
M  V30 2131 C 199.163 4.24079 0.18911 0
M  V30 2132 C 197.07 5.67304 -1.67092 0
M  V30 2133 H 196 0.751798 -0.0575769 0
M  V30 2134 H 198.651 1.6439 -0.815362 0
M  V30 2135 H 197.033 3.93125 0.476276 0
M  V30 2136 H 198.207 3.94416 -2.38271 0
M  V30 2137 H 196.522 3.64335 -2.01616 0
M  V30 2138 H 199.119 5.34381 0.184775 0
M  V30 2139 H 199.462 3.98005 1.22056 0
M  V30 2140 H 199.995 3.94918 -0.477938 0
M  V30 2141 H 196.734 5.98145 -2.68146 0
M  V30 2142 H 196.254 5.91904 -0.970014 0
M  V30 2143 H 197.933 6.31344 -1.4147 0
M  V30 2144 N 198.065 0.39524 1.52563 0
M  V30 2145 C 199.015 -0.4541 2.23432 0
M  V30 2146 C 199.999 -1.02482 1.24042 0
M  V30 2147 O 201.191 -0.949938 1.49349 0
M  V30 2148 C 198.32 -1.57769 3.049 0
M  V30 2149 C 197.406 -1.01842 4.1169 0
M  V30 2150 N 197.797 -0.184613 5.05463 0
M  V30 2151 C 196.095 -1.29033 4.26927 0
M  V30 2152 C 196.796 0.125013 5.81566 0
M  V30 2153 N 195.772 -0.480498 5.41472 0
M  V30 2154 H 199.574 0.189413 2.93289 0
M  V30 2155 H 197.088 0.204877 1.61102 0
M  V30 2156 H 199.085 -2.19862 3.54212 0
M  V30 2157 H 197.745 -2.22397 2.36579 0
M  V30 2158 H 198.756 0.178602 5.17592 0
M  V30 2159 H 195.433 -1.93721 3.69836 0
M  V30 2160 H 196.823 0.800962 6.67109 0
M  V30 2161 N 199.544 -1.57102 0.125237 0
M  V30 2162 C 200.96 -1.57915 -0.231322 0
M  V30 2163 C 201.16 -1.13833 -1.66266 0
M  V30 2164 O 200.216 -0.828581 -2.38518 0
M  V30 2165 C 201.529 -3.00699 0.00766489 0
M  V30 2166 C 203.077 -3.12947 -0.0577483 0
M  V30 2167 C 203.552 -4.57742 0.153626 0
M  V30 2168 N 205.043 -4.63092 0.0998073 0
M  V30 2169 C 205.778 -5.72905 0.238174 0
M  V30 2170 N 205.274 -6.91445 0.433057 0
M  V30 2171 N 207.067 -5.6182 0.177308 0
M  V30 2172 H 199.218 -1.84055 1.06007 0
M  V30 2173 H 201.481 -0.850905 0.417929 0
M  V30 2174 H 201.187 -3.3726 0.997431 0
M  V30 2175 H 201.061 -3.70236 -0.721452 0
M  V30 2176 H 203.448 -2.7624 -1.03804 0
M  V30 2177 H 203.529 -2.4594 0.70335 0
M  V30 2178 H 203.173 -4.95149 1.13092 0
M  V30 2179 H 203.103 -5.22848 -0.627534 0
M  V30 2180 H 205.594 -3.77871 -0.047051 0
M  V30 2181 H 205.907 -7.70985 0.529332 0
M  V30 2182 H 204.252 -6.93415 0.469109 0
M  V30 2183 H 207.443 -4.68093 0.0259748 0
M  V30 2184 H 207.616 -6.47357 0.288582 0
M  V30 2185 N 201.022 0.148545 -1.56898 0
M  V30 2186 C 202.299 0.890019 -1.74178 0
M  V30 2187 C 202.679 1.99407 -0.692839 0
M  V30 2188 O 202.027 2.26671 0.288505 0
M  V30 2189 C 202.237 1.43389 -3.18183 0
M  V30 2190 C 203.585 1.89791 -3.79822 0
M  V30 2191 O 204.609 1.53134 -3.21603 0
M  V30 2192 O 203.468 2.57387 -4.82093 0
M  V30 2193 H 200.562 0.420496 -0.712118 0
M  V30 2194 H 203.108 0.134591 -1.69165 0
M  V30 2195 H 201.88 0.640383 -3.86024 0
M  V30 2196 H 201.503 2.25287 -3.27615 0
M  V30 2197 N 202.5 1.5196 0.417844 0
M  V30 2198 C 203.749 1.6482 1.16264 0
M  V30 2199 C 204.062 0.379886 1.91876 0
M  V30 2200 O 205.268 0.388154 2.68711 0
M  V30 2201 C 203.724 2.91161 2.1155 0
M  V30 2202 C 203.332 4.25068 1.41495 0
M  V30 2203 C 205.076 3.13383 2.86341 0
M  V30 2204 C 202.983 5.42541 2.35379 0
M  V30 2205 H 201.913 0.613954 0.437694 0
M  V30 2206 H 204.564 1.78442 0.427871 0
M  V30 2207 H 202.946 2.71218 2.88543 0
M  V30 2208 H 204.12 4.55463 0.699263 0
M  V30 2209 H 202.435 4.0888 0.787792 0
M  V30 2210 H 205.032 3.98324 3.5671 0
M  V30 2211 H 205.375 2.27256 3.48798 0
M  V30 2212 H 205.908 3.33757 2.1645 0
M  V30 2213 H 202.647 6.30987 1.77582 0
M  V30 2214 H 202.167 5.16497 3.04945 0
M  V30 2215 H 203.846 5.75272 2.96093 0
M  V30 2216 N 203.978 -0.674533 1.42435 0
M  V30 2217 C 204.925 -1.78807 1.45934 0
M  V30 2218 C 205.895 -1.63157 0.311271 0
M  V30 2219 O 207.08 -1.83707 0.515383 0
M  V30 2220 C 204.22 -3.16839 1.36773 0
M  V30 2221 C 203.333 -3.43774 2.61617 0
M  V30 2222 C 202.468 -4.71536 2.44597 0
M  V30 2223 C 201.507 -4.91505 3.64814 0
M  V30 2224 N 200.644 -6.10508 3.46734 0
M  V30 2225 H 205.484 -1.75151 2.41093 0
M  V30 2226 H 203.021 -0.85504 1.19697 0
M  V30 2227 H 204.979 -3.96606 1.29459 0
M  V30 2228 H 203.609 -3.19619 0.452089 0
M  V30 2229 H 202.661 -2.58259 2.79297 0
M  V30 2230 H 203.973 -3.54423 3.50978 0
M  V30 2231 H 203.127 -5.59393 2.3487 0
M  V30 2232 H 201.866 -4.6317 1.52726 0
M  V30 2233 H 200.871 -4.0209 3.74972 0
M  V30 2234 H 202.096 -5.01716 4.57665 0
M  V30 2235 H 200.042 -6.03315 2.5758 0
M  V30 2236 H 199.959 -6.2202 4.29682 0
M  V30 2237 H 201.227 -7.01044 3.40819 0
M  V30 2238 N 205.456 -1.28612 -0.910864 0
M  V30 2239 C 206.704 -1.15705 -1.65701 0
M  V30 2240 C 207.025 0.29416 -1.92769 0
M  V30 2241 O 206.295 1.20331 -1.54588 0
M  V30 2242 H 204.875 -0.425216 -0.614167 0
M  V30 2243 H 207.537 -1.61381 -1.0928 0
M  V30 2244 H 206.633 -1.6988 -2.61815 0
M  V30 2245 N 206.934 1.1197 -1.10907 0
M  V30 2246 C 207.897 2.16031 -0.765707 0
M  V30 2247 C 208.897 1.59393 0.212235 0
M  V30 2248 O 210.087 1.74196 -0.0115441 0
M  V30 2249 C 207.219 3.40632 -0.135053 0
M  V30 2250 H 208.412 2.47919 -1.68748 0
M  V30 2251 H 205.965 1.27061 -0.910226 0
M  V30 2252 H 206.7 3.14348 0.797218 0
M  V30 2253 H 206.485 3.8302 -0.838937 0
M  V30 2254 H 207.975 4.17505 0.0892469 0
M  V30 2255 N 208.412 0.89855 1.29475 0
M  V30 2256 C 209.36 0.365253 2.29714 0
M  V30 2257 C 210.354 -0.534993 1.6073 0
M  V30 2258 O 211.56 -0.417921 1.75081 0
M  V30 2259 H 207.935 0.0994853 0.74539 0
M  V30 2260 H 209.906 1.22406 2.72138 0
M  V30 2261 C 208.655 -0.393159 3.4547 0
M  V30 2262 H 207.978 0.290332 3.98744 0
M  V30 2263 H 209.418 -0.731189 4.17648 0
M  V30 2264 C 207.877 -1.59539 2.9673 0
M  V30 2265 O 208.407 -2.69469 2.97908 0
M  V30 2266 N 206.613 -1.43716 2.52575 0
M  V30 2267 H 206.16 -0.542828 2.51816 0
M  V30 2268 H 206.118 -2.24288 2.20323 0
M  V30 2269 N 209.89 -1.43072 0.660911 0
M  V30 2270 C 211.139 -2.00942 0.174735 0
M  V30 2271 C 211.452 -1.52797 -1.22117 0
M  V30 2272 O 212.658 -2.02991 -1.80297 0
M  V30 2273 C 211.114 -3.58948 0.261559 0
M  V30 2274 C 210.722 -4.16085 1.66064 0
M  V30 2275 C 212.466 -4.24173 -0.166617 0
M  V30 2276 C 210.373 -5.6641 1.70098 0
M  V30 2277 H 209.303 -0.751483 0.0615631 0
M  V30 2278 H 211.954 -1.63955 0.824069 0
M  V30 2279 H 210.336 -3.93372 -0.455421 0
M  V30 2280 H 211.51 -3.93147 2.40359 0
M  V30 2281 H 209.825 -3.6326 2.03546 0
M  V30 2282 H 212.422 -5.34471 -0.156433 0
M  V30 2283 H 212.765 -3.98647 -1.19943 0
M  V30 2284 H 213.298 -3.94659 0.498875 0
M  V30 2285 H 210.037 -5.96715 2.71315 0
M  V30 2286 H 209.557 -5.91382 1.00139 0
M  V30 2287 H 211.236 -6.30585 1.44816 0
M  V30 2288 N 211.368 -0.403325 -1.52352 0
M  V30 2289 C 212.298 0.416205 -2.29761 0
M  V30 2290 C 213.279 1.05123 -1.33728 0
M  V30 2291 O 214.464 1.06134 -1.62632 0
M  V30 2292 C 211.594 1.53624 -3.11475 0
M  V30 2293 C 210.548 1.02653 -4.15507 0
M  V30 2294 C 209.874 2.23971 -4.85532 0
M  V30 2295 C 211.174 0.08463 -5.22231 0
M  V30 2296 H 212.868 -0.229701 -2.98518 0
M  V30 2297 H 210.414 -0.111913 -1.43564 0
M  V30 2298 H 212.367 2.1165 -3.64393 0
M  V30 2299 H 211.091 2.20994 -2.40477 0
M  V30 2300 H 209.75 0.46871 -3.63591 0
M  V30 2301 H 209.398 2.89883 -4.11068 0
M  V30 2302 H 209.098 1.90521 -5.55856 0
M  V30 2303 H 210.622 2.82614 -5.41259 0
M  V30 2304 H 212.036 0.573509 -5.70424 0
M  V30 2305 H 210.433 -0.160783 -5.99885 0
M  V30 2306 H 211.503 -0.86237 -4.7717 0
M  V30 2307 N 212.846 1.57033 -0.133567 0
M  V30 2308 C 214.095 1.94861 0.520768 0
M  V30 2309 C 214.408 1.02012 1.66892 0
M  V30 2310 O 215.614 1.29365 2.38699 0
M  V30 2311 C 214.07 3.46362 0.977809 0
M  V30 2312 C 213.678 4.47773 -0.142674 0
M  V30 2313 C 215.422 3.93083 1.60269 0
M  V30 2314 C 213.329 5.90468 0.331883 0
M  V30 2315 H 212.259 0.727453 0.198315 0
M  V30 2316 H 214.91 1.82227 -0.215759 0
M  V30 2317 H 213.292 3.54282 1.7692 0
M  V30 2318 H 214.466 4.51536 -0.919317 0
M  V30 2319 H 212.781 4.10891 -0.675124 0
M  V30 2320 H 215.378 4.97121 1.96914 0
M  V30 2321 H 215.721 3.33876 2.48662 0
M  V30 2322 H 216.254 3.88025 0.876453 0
M  V30 2323 H 212.993 6.53463 -0.516341 0
M  V30 2324 H 212.513 5.90094 1.07469 0
M  V30 2325 H 214.192 6.42179 0.788332 0
M  V30 2326 N 214.325 -0.140222 1.56975 0
M  V30 2327 C 215.273 -1.19207 1.99731 0
M  V30 2328 C 216.267 -1.44089 0.890777 0
M  V30 2329 O 217.473 -1.44301 1.07597 0
M  V30 2330 H 213.848 -0.40142 0.635898 0
M  V30 2331 H 215.819 -0.804813 2.87342 0
M  V30 2332 C 214.568 -2.51617 2.39967 0
M  V30 2333 H 213.891 -2.33303 3.24669 0
M  V30 2334 H 215.331 -3.23827 2.73701 0
M  V30 2335 C 213.79 -3.12654 1.25496 0
M  V30 2336 O 214.32 -3.97786 0.559371 0
M  V30 2337 N 212.526 -2.72206 1.01746 0
M  V30 2338 H 212.073 -2.03074 1.58489 0
M  V30 2339 H 212.031 -3.13377 0.253461 0
M  V30 2340 N 215.803 -1.52179 -0.40978 0
M  V30 2341 C 217.08 -1.56769 -1.16974 0
M  V30 2342 C 217.46 -0.348322 -2.08206 0
M  V30 2343 O 216.808 0.664862 -2.18613 0
M  V30 2344 C 217.018 -2.89603 -1.9476 0
M  V30 2345 C 218.366 -3.42579 -2.50849 0
M  V30 2346 O 219.39 -2.91338 -2.04941 0
M  V30 2347 O 218.249 -4.32054 -3.34652 0
M  V30 2348 H 215.343 -0.631439 -0.534054 0
M  V30 2349 H 217.889 -1.64507 -0.416613 0
M  V30 2350 H 216.661 -3.698 -1.27921 0
M  V30 2351 H 216.284 -2.85155 -2.77079 0
M  V30 2352 N 217.281 0.66697 -1.42791 0
M  V30 2353 C 218.244 1.76211 -1.46568 0
M  V30 2354 C 219.244 1.56896 -0.352196 0
M  V30 2355 O 220.434 1.63044 -0.613364 0
M  V30 2356 C 217.566 3.14935 -1.30494 0
M  V30 2357 H 218.759 1.74247 -2.44086 0
M  V30 2358 H 216.312 0.877342 -1.29354 0
M  V30 2359 H 217.047 3.2252 -0.339301 0
M  V30 2360 H 216.832 3.30359 -2.11199 0
M  V30 2361 H 218.322 3.94821 -1.36038 0
M  V30 2362 N 218.759 1.29093 0.90403 0
M  V30 2363 C 220.007 1.16583 1.65085 0
M  V30 2364 C 220.328 -0.283933 1.92922 0
M  V30 2365 O 219.598 -1.19509 1.55224 0
M  V30 2366 H 218.178 0.428467 0.611903 0
M  V30 2367 H 220.84 1.61959 1.08422 0
M  V30 2368 H 219.936 1.71266 2.6091 0
M  V30 2369 N 220.237 -1.11381 1.11499 0
M  V30 2370 C 221.147 -2.21019 0.786628 0
M  V30 2371 C 222.163 -1.72597 -0.220507 0
M  V30 2372 O 223.339 -2.01321 -0.0565251 0
M  V30 2373 C 220.404 -3.459 0.235333 0
M  V30 2374 C 219.465 -4.09107 1.30115 0
M  V30 2375 C 218.698 -5.28027 0.776068 0
M  V30 2376 O 218.921 -5.6904 -0.393661 0
M  V30 2377 O 217.855 -5.81835 1.54114 0
M  V30 2378 H 221.681 -2.51521 1.70209 0
M  V30 2379 H 219.266 -1.19928 0.890928 0
M  V30 2380 H 221.148 -4.21346 -0.067715 0
M  V30 2381 H 219.823 -3.17049 -0.652828 0
M  V30 2382 H 218.73 -3.35391 1.65722 0
M  V30 2383 H 220.063 -4.42139 2.16273 0
M  V30 2384 N 221.715 -0.905404 -1.28997 0
M  V30 2385 C 222.961 -0.535039 -1.95615 0
M  V30 2386 C 223.294 0.917404 -1.71165 0
M  V30 2387 O 222.569 1.65123 -1.02785 0
M  V30 2388 C 222.852 -0.834918 -3.50287 0
M  V30 2389 C 222.705 -2.33948 -3.84172 0
M  V30 2390 C 224.024 -0.325318 -4.38896 0
M  V30 2391 H 221.143 -0.195861 -0.710498 0
M  V30 2392 H 223.785 -1.13313 -1.52513 0
M  V30 2393 H 221.935 -0.325904 -3.87131 0
M  V30 2394 H 223.607 -2.91847 -3.57243 0
M  V30 2395 H 221.85 -2.79789 -3.31513 0
M  V30 2396 H 222.521 -2.49987 -4.92149 0
M  V30 2397 H 224.997 -0.761256 -4.09077 0
M  V30 2398 H 223.873 -0.564295 -5.45992 0
M  V30 2399 H 224.134 0.774144 -4.35269 0
M  V30 2400 N 223.193 1.4272 -0.668489 0
M  V30 2401 C 224.609 1.55992 -0.33745 0
M  V30 2402 C 224.809 1.64933 1.15756 0
M  V30 2403 O 223.865 1.61278 1.94282 0
M  V30 2404 C 225.178 2.81314 -1.06222 0
M  V30 2405 C 226.726 2.95078 -1.04394 0
M  V30 2406 C 227.201 4.23252 -1.74991 0
M  V30 2407 N 228.692 4.3015 -1.71829 0
M  V30 2408 C 229.427 5.28127 -2.23315 0
M  V30 2409 N 228.923 6.32293 -2.83156 0
M  V30 2410 N 230.716 5.19882 -2.13726 0
M  V30 2411 H 222.867 1.3516 -1.63846 0
M  V30 2412 H 225.13 0.650174 -0.689912 0
M  V30 2413 H 224.836 2.80823 -2.11734 0
M  V30 2414 H 224.71 3.72012 -0.62344 0
M  V30 2415 H 227.097 2.951 0.0028244 0
M  V30 2416 H 227.178 2.05627 -1.52155 0
M  V30 2417 H 226.822 4.2399 -2.79633 0
M  V30 2418 H 226.752 5.11626 -1.24685 0
M  V30 2419 H 229.243 3.55499 -1.28175 0
M  V30 2420 H 229.556 7.03398 -3.20079 0
M  V30 2421 H 227.901 6.32873 -2.87223 0
M  V30 2422 H 231.092 4.37423 -1.66669 0
M  V30 2423 H 231.265 5.96077 -2.54158 0
M  V30 2424 N 224.671 0.411399 1.52136 0
M  V30 2425 C 225.601 -0.404015 2.29978 0
M  V30 2426 C 226.582 -1.04412 1.34284 0
M  V30 2427 O 227.767 -1.0527 1.63192 0
M  V30 2428 C 224.897 -1.5197 3.12286 0
M  V30 2429 C 223.851 -1.00448 4.16046 0
M  V30 2430 C 223.177 -2.21393 4.86712 0
M  V30 2431 C 224.477 -0.0569336 5.22269 0
M  V30 2432 H 226.171 0.245529 2.98392 0
M  V30 2433 H 223.717 0.119525 1.43503 0
M  V30 2434 H 225.67 -2.09715 3.6551 0
M  V30 2435 H 224.394 -2.19716 2.41646 0
M  V30 2436 H 223.053 -0.449421 3.63835 0
M  V30 2437 H 222.701 -2.87699 4.12599 0
M  V30 2438 H 222.401 -1.87571 5.56858 0
M  V30 2439 H 223.925 -2.7974 5.4275 0
M  V30 2440 H 225.339 -0.54325 5.7072 0
M  V30 2441 H 223.736 0.192594 5.99791 0
M  V30 2442 H 224.806 0.887663 4.76706 0
M  V30 2443 N 226.149 -1.5696 0.141893 0
M  V30 2444 C 227.112 -2.15316 -0.785587 0
M  V30 2445 C 228.112 -1.09366 -1.1788 0
M  V30 2446 O 229.302 -1.35031 -1.10056 0
M  V30 2447 C 226.434 -2.71211 -2.06537 0
M  V30 2448 H 227.627 -2.98608 -0.278041 0
M  V30 2449 H 225.18 -1.5593 -0.107519 0
M  V30 2450 H 225.915 -1.91571 -2.6167 0
M  V30 2451 H 225.7 -3.4872 -1.79268 0
M  V30 2452 H 227.19 -3.16189 -2.72789 0
M  V30 2453 N 227.627 0.131896 -1.57047 0
M  V30 2454 C 228.904 0.871495 -1.75112 0
M  V30 2455 C 229.284 1.9866 -0.713949 0
M  V30 2456 O 228.632 2.26965 0.264447 0
M  V30 2457 C 228.842 1.40007 -3.19686 0
M  V30 2458 C 230.19 1.85752 -3.81813 0
M  V30 2459 O 231.214 1.49715 -3.23209 0
M  V30 2460 O 230.073 2.5226 -4.84796 0
M  V30 2461 H 227.167 0.412919 -0.716538 0
M  V30 2462 H 229.713 0.116641 -1.69299 0
M  V30 2463 H 228.485 0.599404 -3.86682 0
M  V30 2464 H 228.108 2.218 -3.29986 0
M  V30 2465 N 229.106 1.52395 0.401703 0
M  V30 2466 C 230.353 1.66817 1.14796 0
M  V30 2467 C 230.681 0.401772 1.90305 0
M  V30 2468 O 229.936 -0.615487 1.85769 0
M  V30 2469 C 230.235 2.84578 2.16217 0
M  V30 2470 C 229.901 4.22513 1.5746 0
M  V30 2471 C 228.563 4.60029 1.41161 0
M  V30 2472 C 230.915 5.0844 1.14622 0
M  V30 2473 C 228.243 5.81144 0.80552 0
M  V30 2474 C 230.595 6.30167 0.55428 0
M  V30 2475 C 229.259 6.66426 0.378482 0
M  V30 2476 H 228.529 0.610428 0.420069 0
M  V30 2477 H 231.176 1.86512 0.434212 0
M  V30 2478 H 229.481 2.59248 2.93764 0
M  V30 2479 H 231.178 2.92933 2.73845 0
M  V30 2480 H 227.768 3.92953 1.71132 0
M  V30 2481 H 231.952 4.80034 1.26021 0
M  V30 2482 H 227.208 6.07855 0.657399 0
M  V30 2483 H 231.382 6.96071 0.213983 0
M  V30 2484 H 229.009 7.60143 -0.0932606 0
M  V30 2485 N 230.584 -0.659388 1.43143 0
M  V30 2486 C 231.832 -1.41654 1.44147 0
M  V30 2487 C 232.153 -1.94893 0.0645739 0
M  V30 2488 O 231.423 -1.74044 -0.899198 0
M  V30 2489 H 230.003 -0.525708 0.530697 0
M  V30 2490 H 232.665 -0.778097 1.78694 0
M  V30 2491 H 231.761 -2.26195 2.1504 0
M  V30 2492 N 232.062 -1.29571 -0.897171 0
M  V30 2493 C 233.311 -1.1706 -1.64256 0
M  V30 2494 C 233.624 0.276476 -1.93636 0
M  V30 2495 O 234.83 0.52294 -2.66416 0
M  V30 2496 C 233.286 -2.0475 -2.95982 0
M  V30 2497 C 232.894 -3.54295 -2.74187 0
M  V30 2498 C 234.638 -2.0097 -3.73914 0
M  V30 2499 C 232.545 -4.34081 -4.01656 0
M  V30 2500 H 231.475 -0.43452 -0.616205 0
M  V30 2501 H 234.126 -1.54229 -0.994268 0
M  V30 2502 H 232.508 -1.60452 -3.62038 0
M  V30 2503 H 233.682 -4.06662 -2.1671 0
M  V30 2504 H 231.997 -3.59773 -2.09648 0
M  V30 2505 H 234.594 -2.57838 -4.68427 0
M  V30 2506 H 234.937 -0.990273 -4.0435 0
M  V30 2507 H 235.47 -2.43325 -3.14703 0
M  V30 2508 H 232.209 -5.36671 -3.76384 0
M  V30 2509 H 231.729 -3.86483 -4.58684 0
M  V30 2510 H 233.408 -4.44877 -4.69781 0
M  V30 2511 N 233.54 1.10788 -1.12088 0
M  V30 2512 C 234.765 1.87002 -0.896949 0
M  V30 2513 C 235.19 1.79933 0.548261 0
M  V30 2514 O 234.548 1.16662 1.38779 0
M  V30 2515 C 234.596 3.3349 -1.37174 0
M  V30 2516 O 233.7 4.08745 -0.547831 0
M  V30 2517 H 233.041 0.580397 -0.322545 0
M  V30 2518 H 235.571 1.39996 -1.49206 0
M  V30 2519 H 235.581 3.84339 -1.36922 0
M  V30 2520 H 234.256 3.37951 -2.42408 0
M  V30 2521 H 232.833 3.6776 -0.617034 0
M  V30 2522 N 235.018 0.912232 1.28515 0
M  V30 2523 C 235.981 0.404223 2.25607 0
M  V30 2524 C 236.981 -0.468602 1.53821 0
M  V30 2525 O 238.171 -0.271873 1.72065 0
M  V30 2526 C 235.303 -0.420653 3.38295 0
M  V30 2527 H 236.496 1.26188 2.7206 0
M  V30 2528 H 234.049 0.691495 1.40171 0
M  V30 2529 H 234.784 -1.29777 2.97201 0
M  V30 2530 H 234.569 0.204935 3.91564 0
M  V30 2531 H 236.059 -0.766971 4.10496 0
M  V30 2532 N 236.496 -1.42363 0.676048 0
M  V30 2533 C 237.428 -2.29164 -0.0404605 0
M  V30 2534 C 238.441 -1.43747 -0.764245 0
M  V30 2535 O 239.63 -1.67453 -0.618195 0
M  V30 2536 C 236.73 -3.21196 -1.08103 0
M  V30 2537 C 235.903 -4.35273 -0.430812 0
M  V30 2538 C 234.962 -5.08017 -1.37133 0
M  V30 2539 O 233.988 -5.62494 -0.87116 0
M  V30 2540 N 235.19 -5.13647 -2.70456 0
M  V30 2541 H 237.955 -2.91298 0.704667 0
M  V30 2542 H 235.516 -1.53303 0.520559 0
M  V30 2543 H 237.508 -3.66728 -1.71152 0
M  V30 2544 H 236.078 -2.60505 -1.72788 0
M  V30 2545 H 235.298 -3.92372 0.379209 0
M  V30 2546 H 236.586 -5.08795 0.0221132 0
M  V30 2547 H 235.984 -4.708 -3.1363 0
M  V30 2548 H 234.541 -5.62821 -3.28749 0
M  V30 2549 N 237.974 -0.419461 -1.51915 0
M  V30 2550 C 239.223 0.154346 -2.01109 0
M  V30 2551 C 239.536 1.45338 -1.30905 0
M  V30 2552 O 240.742 2.10906 -1.7097 0
M  V30 2553 C 239.198 0.325615 -3.58424 0
M  V30 2554 C 238.806 -0.961934 -4.37551 0
M  V30 2555 C 240.55 0.854155 -4.15818 0
M  V30 2556 C 238.457 -0.757287 -5.86531 0
M  V30 2557 H 237.387 0.0614563 -0.751491 0
M  V30 2558 H 240.038 -0.54649 -1.75173 0
M  V30 2559 H 238.42 1.08903 -3.80731 0
M  V30 2560 H 239.594 -1.7323 -4.26999 0
M  V30 2561 H 237.909 -1.41766 -3.91524 0
M  V30 2562 H 240.506 1.02346 -5.24814 0
M  V30 2563 H 240.849 1.83172 -3.73837 0
M  V30 2564 H 241.382 0.149528 -3.97519 0
M  V30 2565 H 238.121 -1.70671 -6.32892 0
M  V30 2566 H 237.641 -0.0264061 -5.99794 0
M  V30 2567 H 239.32 -0.403482 -6.45741 0
M  V30 2568 N 239.452 1.56882 -0.150215 0
M  V30 2569 C 240.7 1.9584 0.499105 0
M  V30 2570 C 241.021 1.03623 1.65188 0
M  V30 2571 O 240.291 0.0984084 1.95653 0
M  V30 2572 H 238.871 0.723119 0.187373 0
M  V30 2573 H 241.533 1.9358 -0.226466 0
M  V30 2574 H 240.629 2.99638 0.873122 0
M  V30 2575 N 240.93 -0.123565 1.57115 0
M  V30 2576 C 241.893 -1.13583 1.99076 0
M  V30 2577 C 242.893 -1.34564 0.880296 0
M  V30 2578 O 244.083 -1.31158 1.14644 0
M  V30 2579 C 241.215 -2.49128 2.32698 0
M  V30 2580 H 242.408 -0.775287 2.89706 0
M  V30 2581 H 239.961 -0.36771 1.51913 0
M  V30 2582 H 240.696 -2.90111 1.44934 0
M  V30 2583 H 240.481 -2.35255 3.13684 0
M  V30 2584 H 241.971 -3.2199 2.65918 0
M  V30 2585 N 242.408 -1.52605 -0.393616 0
M  V30 2586 C 243.636 -1.71294 -1.16043 0
M  V30 2587 C 244.051 -0.429259 -1.83855 0
M  V30 2588 O 243.408 0.595921 -1.72496 0
M  V30 2589 C 243.459 -2.8593 -2.21193 0
M  V30 2590 O 243.18 -4.09329 -1.56146 0
M  V30 2591 C 244.681 -3.16259 -3.10636 0
M  V30 2592 H 241.901 -0.573641 -0.348104 0
M  V30 2593 H 244.445 -1.99234 -0.461092 0
M  V30 2594 H 242.6 -2.60465 -2.86769 0
M  V30 2595 H 243.014 -4.73323 -2.25978 0
M  V30 2596 H 244.488 -3.99946 -3.80456 0
M  V30 2597 H 244.965 -2.3045 -3.73884 0
M  V30 2598 H 245.571 -3.43547 -2.50711 0
M  V30 2599 N 243.887 0.651787 -1.4349 0
M  V30 2600 C 244.817 1.77621 -1.51569 0
M  V30 2601 C 245.798 1.66022 -0.370253 0
M  V30 2602 O 246.983 1.85095 -0.587658 0
M  V30 2603 C 244.113 3.16056 -1.43966 0
M  V30 2604 C 243.067 3.4242 -2.56774 0
M  V30 2605 C 242.393 4.8067 -2.34223 0
M  V30 2606 C 243.693 3.37023 -3.99015 0
M  V30 2607 H 245.387 1.71117 -2.45681 0
M  V30 2608 H 242.933 0.821825 -1.18246 0
M  V30 2609 H 244.886 3.94472 -1.48221 0
M  V30 2610 H 243.61 3.23293 -0.463586 0
M  V30 2611 H 242.269 2.66375 -2.51873 0
M  V30 2612 H 241.917 4.84585 -1.34856 0
M  V30 2613 H 241.617 4.9927 -3.09844 0
M  V30 2614 H 243.141 5.61342 -2.40265 0
M  V30 2615 H 244.555 4.05374 -4.05395 0
M  V30 2616 H 242.952 3.67159 -4.74673 0
M  V30 2617 H 244.022 2.3518 -4.2405 0
M  V30 2618 N 245.365 1.30045 0.890287 0
M  V30 2619 C 246.328 1.15963 1.977 0
M  V30 2620 C 247.328 0.0923777 1.60534 0
M  V30 2621 O 248.518 0.340071 1.70848 0
M  V30 2622 C 245.65 0.775451 3.31963 0
M  V30 2623 H 246.843 2.12502 2.11619 0
M  V30 2624 H 244.396 1.13366 1.07601 0
M  V30 2625 H 245.131 -0.189671 3.23745 0
M  V30 2626 H 244.916 1.54668 3.60306 0
M  V30 2627 H 246.406 0.700251 4.11687 0
M  V30 2628 N 246.843 -1.10192 1.12674 0
M  V30 2629 C 248.259 -1.34235 0.863317 0
M  V30 2630 C 248.459 -1.95062 -0.505277 0
M  V30 2631 O 247.515 -2.19192 -1.25345 0
M  V30 2632 C 248.828 -2.2616 1.98172 0
M  V30 2633 C 250.376 -2.3969 2.0129 0
M  V30 2634 C 250.851 -3.34946 3.1237 0
M  V30 2635 N 252.342 -3.42515 3.11829 0
M  V30 2636 C 253.077 -4.16199 3.94419 0
M  V30 2637 N 252.573 -4.92747 4.87004 0
M  V30 2638 N 254.366 -4.11843 3.82547 0
M  V30 2639 H 246.517 -0.690798 2.00853 0
M  V30 2640 H 248.78 -0.366774 0.874174 0
M  V30 2641 H 248.486 -1.8868 2.96804 0
M  V30 2642 H 248.36 -3.26488 1.88906 0
M  V30 2643 H 250.747 -2.76438 1.03276 0
M  V30 2644 H 250.828 -1.39169 2.14629 0
M  V30 2645 H 250.472 -2.98923 4.10619 0
M  V30 2646 H 250.402 -4.35353 2.96269 0
M  V30 2647 H 252.893 -2.87926 2.44759 0
M  V30 2648 H 253.206 -5.46376 5.46528 0
M  V30 2649 H 251.551 -4.91862 4.91016 0
M  V30 2650 H 254.742 -3.51136 3.0955 0
M  V30 2651 H 254.915 -4.69007 4.47142 0
M  V30 2652 N 248.321 -0.919034 -1.28029 0
M  V30 2653 C 249.737 -0.617972 -1.4715 0
M  V30 2654 C 249.937 0.835242 -1.83374 0
M  V30 2655 O 248.993 1.61388 -1.94191 0
M  V30 2656 C 250.306 -1.56041 -2.57044 0
M  V30 2657 C 251.854 -1.56769 -2.7091 0
M  V30 2658 C 252.329 -2.49688 -3.83953 0
M  V30 2659 N 253.82 -2.47845 -3.91314 0
M  V30 2660 C 254.555 -3.16437 -4.78179 0
M  V30 2661 N 254.051 -3.94376 -5.69596 0
M  V30 2662 N 255.844 -3.05498 -4.71834 0
M  V30 2663 H 247.995 -1.85866 -1.02798 0
M  V30 2664 H 250.258 -0.797506 -0.512531 0
M  V30 2665 H 249.964 -2.59671 -2.372 0
M  V30 2666 H 249.838 -1.29551 -3.54255 0
M  V30 2667 H 252.225 -0.538745 -2.90141 0
M  V30 2668 H 252.306 -1.87305 -1.74214 0
M  V30 2669 H 251.95 -3.52688 -3.65477 0
M  V30 2670 H 251.88 -2.16453 -4.80058 0
M  V30 2671 H 254.371 -1.91234 -3.25941 0
M  V30 2672 H 254.684 -4.43721 -6.32718 0
M  V30 2673 H 253.029 -3.98481 -5.69419 0
M  V30 2674 H 256.22 -2.44108 -3.99411 0
M  V30 2675 H 256.393 -3.59225 -5.39316 0
M  V30 2676 N 249.799 1.42003 -0.683588 0
M  V30 2677 C 250.729 2.33487 -0.024866 0
M  V30 2678 C 251.71 1.51163 0.779975 0
M  V30 2679 O 252.895 1.79739 0.735362 0
M  V30 2680 C 250.025 3.3487 0.920836 0
M  V30 2681 C 248.979 4.27414 0.223958 0
M  V30 2682 C 248.305 5.19074 1.2832 0
M  V30 2683 C 249.605 5.14445 -0.90242 0
M  V30 2684 H 251.299 2.88819 -0.788921 0
M  V30 2685 H 248.845 1.38873 -0.38083 0
M  V30 2686 H 250.798 3.97787 1.39081 0
M  V30 2687 H 249.522 2.77861 1.71642 0
M  V30 2688 H 248.181 3.65904 -0.225864 0
M  V30 2689 H 247.829 4.58387 2.071 0
M  V30 2690 H 247.529 5.81822 0.821995 0
M  V30 2691 H 249.053 5.84867 1.75392 0
M  V30 2692 H 250.467 5.70998 -0.513272 0
M  V30 2693 H 248.864 5.86072 -1.28997 0
M  V30 2694 H 249.934 4.52322 -1.74737 0
M  V30 2695 N 251.277 0.427512 1.51691 0
M  V30 2696 C 252.502 -0.143601 2.06902 0
M  V30 2697 C 252.927 -1.36536 1.29382 0
M  V30 2698 O 252.285 -1.78289 0.329043 0
M  V30 2699 C 252.333 -0.454207 3.57728 0
M  V30 2700 O 251.437 -1.54228 3.82475 0
M  V30 2701 H 250.778 -0.00617128 0.663971 0
M  V30 2702 H 253.308 0.606014 1.95419 0
M  V30 2703 H 253.318 -0.707525 4.01818 0
M  V30 2704 H 251.993 0.438812 4.13579 0
M  V30 2705 H 250.57 -1.2797 3.50254 0
M  V30 2706 N 252.755 -1.56801 0.158532 0
M  V30 2707 C 254.002 -1.9649 -0.489679 0
M  V30 2708 C 254.33 -1.04394 -1.6411 0
M  V30 2709 O 253.585 -0.0754401 -1.95555 0
M  V30 2710 C 253.884 -3.4235 -1.02623 0
M  V30 2711 C 253.55 -4.50899 0.00794526 0
M  V30 2712 C 252.212 -4.80312 0.292207 0
M  V30 2713 C 254.564 -5.16333 0.710584 0
M  V30 2714 C 251.892 -5.72461 1.28472 0
M  V30 2715 C 254.244 -6.09553 1.69199 0
M  V30 2716 C 252.908 -6.37339 1.98383 0
M  V30 2717 H 252.178 -0.719009 -0.179186 0
M  V30 2718 H 254.825 -1.8989 0.247798 0
M  V30 2719 H 253.13 -3.45838 -1.84128 0
M  V30 2720 H 254.827 -3.70393 -1.53656 0
M  V30 2721 H 251.417 -4.28015 -0.22379 0
M  V30 2722 H 255.601 -4.93732 0.504174 0
M  V30 2723 H 250.857 -5.92278 1.51714 0
M  V30 2724 H 255.031 -6.59327 2.24189 0
M  V30 2725 H 252.658 -7.08546 2.7544 0
M  V30 2726 N 254.233 0.115231 -1.57178 0
M  V30 2727 C 255.482 0.820945 -1.84237 0
M  V30 2728 C 255.795 1.80866 -0.744761 0
M  V30 2729 O 257.001 2.56083 -0.901871 0
M  V30 2730 C 255.457 1.51072 -3.26658 0
M  V30 2731 C 255.065 0.563795 -4.44438 0
M  V30 2732 C 256.809 2.20134 -3.62962 0
M  V30 2733 C 254.716 1.25701 -5.77887 0
M  V30 2734 H 253.646 0.310328 -0.687177 0
M  V30 2735 H 256.297 0.0737134 -1.83352 0
M  V30 2736 H 254.679 2.30471 -3.22024 0
M  V30 2737 H 255.853 -0.197247 -4.60378 0
M  V30 2738 H 254.168 -0.0200638 -4.16395 0
M  V30 2739 H 256.765 2.72696 -4.59936 0
M  V30 2740 H 257.108 2.98107 -2.90582 0
M  V30 2741 H 257.641 1.47619 -3.69396 0
M  V30 2742 H 254.38 0.518493 -6.53446 0
M  V30 2743 H 253.9 1.98997 -5.65827 0
M  V30 2744 H 255.579 1.78915 -6.2177 0
M  V30 2745 N 255.711 1.52812 0.385517 0
M  V30 2746 C 256.959 1.67694 1.12797 0
M  V30 2747 C 257.28 0.421115 1.90399 0
M  V30 2748 O 256.55 -0.564551 1.87589 0
M  V30 2749 H 255.13 0.618155 0.419396 0
M  V30 2750 H 257.792 1.89938 0.436972 0
M  V30 2751 H 256.888 2.52896 1.82894 0
M  V30 2752 N 257.189 -0.644168 1.43834 0
M  V30 2753 C 258.417 -1.43147 1.49387 0
M  V30 2754 C 258.832 -1.88452 0.114583 0
M  V30 2755 O 258.189 -1.60047 -0.876989 0
M  V30 2756 C 258.24 -2.66046 2.44748 0
M  V30 2757 O 257.961 -2.22633 3.77314 0
M  V30 2758 C 259.462 -3.59311 2.59635 0
M  V30 2759 H 256.682 -0.439447 0.507077 0
M  V30 2760 H 259.226 -0.78895 1.88669 0
M  V30 2761 H 257.381 -3.26418 2.08638 0
M  V30 2762 H 257.795 -3.02216 4.28679 0
M  V30 2763 H 259.269 -4.42187 3.30416 0
M  V30 2764 H 259.746 -4.07259 1.64427 0
M  V30 2765 H 260.352 -3.04816 2.96593 0
M  V30 2766 N 258.668 -1.30515 -0.883378 0
M  V30 2767 C 260.079 -1.17509 -1.45081 0
M  V30 2768 C 260.43 0.223605 -1.94922 0
M  V30 2769 O 259.555 1.12041 -1.85137 0
M  V30 2770 C 260.15 -2.12715 -2.63701 0
M  V30 2771 C 258.709 -2.03682 -3.16529 0
M  V30 2772 C 257.856 -2.02706 -1.89224 0
M  V30 2773 H 260.807 -1.42762 -0.693165 0
M  V30 2774 H 260.828 -1.70891 -3.39965 0
M  V30 2775 H 260.34 -3.14505 -2.27395 0
M  V30 2776 H 258.441 -1.05039 -3.57488 0
M  V30 2777 H 258.554 -2.92146 -3.7972 0
M  V30 2778 H 256.918 -1.4753 -2.07622 0
M  V30 2779 H 257.701 -3.06229 -1.55174 0
M  V30 2780 N 260.146 1.09593 -1.13257 0
M  V30 2781 C 261.376 1.85231 -0.915049 0
M  V30 2782 C 261.784 1.81345 0.539498 0
M  V30 2783 O 261.127 1.20664 1.38513 0
M  V30 2784 C 261.189 3.34275 -1.3229 0
M  V30 2785 C 260.853 3.6191 -2.79052 0
M  V30 2786 C 261.85 3.57777 -3.77216 0
M  V30 2787 C 259.535 3.90309 -3.16171 0
M  V30 2788 C 261.529 3.81652 -5.1051 0
M  V30 2789 C 259.216 4.13839 -4.49644 0
M  V30 2790 C 260.214 4.09502 -5.46623 0
M  V30 2791 O 259.902 4.32426 -6.77689 0
M  V30 2792 H 259.634 0.591997 -0.326367 0
M  V30 2793 H 262.188 1.394 -1.50854 0
M  V30 2794 H 260.418 3.80805 -0.672667 0
M  V30 2795 H 262.107 3.9132 -1.07812 0
M  V30 2796 H 262.873 3.35865 -3.49885 0
M  V30 2797 H 258.752 3.92811 -2.41289 0
M  V30 2798 H 262.296 3.78182 -5.86195 0
M  V30 2799 H 258.193 4.35232 -4.767 0
M  V30 2800 H 258.961 4.49896 -6.83766 0
M  V30 2801 N 261.624 0.925811 1.2754 0
M  V30 2802 C 262.87 0.575575 1.95086 0
M  V30 2803 C 263.225 -0.873246 1.71441 0
M  V30 2804 O 262.518 -1.61443 1.03183 0
M  V30 2805 C 262.712 0.835296 3.47502 0
M  V30 2806 C 262.541 2.30781 3.85967 0
M  V30 2807 C 261.311 2.96017 4.09514 0
M  V30 2808 C 263.509 3.28519 3.95702 0
M  V30 2809 N 261.491 4.3344 4.34744 0
M  V30 2810 C 262.862 4.51146 4.25285 0
M  V30 2811 C 264.917 3.23753 3.7827 0
M  V30 2812 C 263.62 5.69606 4.39251 0
M  V30 2813 C 265.646 4.41523 3.9346 0
M  V30 2814 C 265.008 5.62928 4.23428 0
M  V30 2815 H 261.107 0.260711 0.737261 0
M  V30 2816 H 263.691 1.19204 1.53943 0
M  V30 2817 H 261.862 0.248005 3.87607 0
M  V30 2818 H 263.594 0.447878 4.02214 0
M  V30 2819 H 260.349 2.46695 4.04275 0
M  V30 2820 H 260.773 5.04528 4.5142 0
M  V30 2821 H 265.415 2.3096 3.54143 0
M  V30 2822 H 263.133 6.62866 4.62205 0
M  V30 2823 H 266.719 4.39351 3.81394 0
M  V30 2824 H 265.599 6.52538 4.34929 0
M  V30 2825 N 263.102 -1.41638 0.69111 0
M  V30 2826 C 264.035 -2.28183 -0.0274913 0
M  V30 2827 C 265.013 -1.41984 -0.792424 0
M  V30 2828 O 266.197 -1.71415 -0.784169 0
M  V30 2829 C 263.324 -3.22135 -1.04628 0
M  V30 2830 C 262.37 -4.24848 -0.375037 0
M  V30 2831 S 263.203 -5.28231 0.879321 0
M  V30 2832 C 264.359 -6.25748 -0.137983 0
M  V30 2833 H 264.592 -2.88782 0.706553 0
M  V30 2834 H 262.125 -1.46709 0.481222 0
M  V30 2835 H 264.083 -3.76797 -1.62894 0
M  V30 2836 H 262.744 -2.6064 -1.75287 0
M  V30 2837 H 261.937 -4.90837 -1.14433 0
M  V30 2838 H 261.539 -3.73758 0.134434 0
M  V30 2839 H 263.831 -6.70188 -0.992659 0
M  V30 2840 H 264.774 -7.06417 0.487867 0
M  V30 2841 H 265.182 -5.62363 -0.490762 0
M  V30 2842 N 264.58 -0.43555 -1.51462 0
M  V30 2843 C 265.543 0.365137 -2.26273 0
M  V30 2844 C 266.543 0.951227 -1.29647 0
M  V30 2845 O 267.733 0.825958 -1.53374 0
M  V30 2846 C 264.865 1.51645 -3.05314 0
M  V30 2847 H 266.058 -0.290474 -2.9849 0
M  V30 2848 H 263.611 -0.188676 -1.55157 0
M  V30 2849 H 264.346 2.20816 -2.3751 0
M  V30 2850 H 264.131 1.10238 -3.76284 0
M  V30 2851 H 265.621 2.08218 -3.61987 0
M  V30 2852 N 266.058 1.56714 -0.166846 0
M  V30 2853 C 267.469 1.83378 0.350646 0
M  V30 2854 C 267.82 1.08646 1.63372 0
M  V30 2855 O 266.945 0.338058 2.13743 0
M  V30 2856 C 267.54 3.32643 0.642963 0
M  V30 2857 C 266.099 3.59818 1.10491 0
M  V30 2858 C 265.246 2.76954 0.138411 0
M  V30 2859 H 268.197 1.53803 -0.391193 0
M  V30 2860 H 268.218 3.49878 1.49551 0
M  V30 2861 H 267.73 3.87007 -0.291055 0
M  V30 2862 H 265.831 3.1086 2.05418 0
M  V30 2863 H 265.944 4.68178 1.01716 0
M  V30 2864 H 264.308 2.4666 0.634911 0
M  V30 2865 H 265.091 3.34097 -0.789549 0
M  V30 2866 N 267.536 -0.106894 1.57237 0
M  V30 2867 C 268.446 -1.14911 2.0453 0
M  V30 2868 C 269.462 -1.44592 0.96795 0
M  V30 2869 O 270.638 -1.55468 1.2803 0
M  V30 2870 C 267.703 -2.45272 2.45036 0
M  V30 2871 C 266.764 -2.22879 3.66911 0
M  V30 2872 C 265.997 -3.47024 4.05475 0
M  V30 2873 O 266.22 -4.54804 3.44252 0
M  V30 2874 O 265.154 -3.3731 4.98504 0
M  V30 2875 H 268.98 -0.777461 2.9358 0
M  V30 2876 H 266.565 -0.318563 1.45964 0
M  V30 2877 H 268.447 -3.22055 2.71769 0
M  V30 2878 H 267.122 -2.81886 1.59129 0
M  V30 2879 H 266.029 -1.43915 3.45311 0
M  V30 2880 H 267.362 -1.91163 4.53561 0
M  V30 2881 N 269.014 -1.53014 -0.377408 0
M  V30 2882 C 270.26 -1.68872 -1.12294 0
M  V30 2883 C 270.593 -0.433224 -1.89306 0
M  V30 2884 O 269.868 0.569258 -1.85983 0
M  V30 2885 C 270.151 -2.93115 -2.09179 0
M  V30 2886 C 270.004 -4.28794 -1.35853 0
M  V30 2887 C 271.323 -3.12928 -3.09458 0
M  V30 2888 H 268.442 -0.614518 -0.406862 0
M  V30 2889 H 271.084 -1.85633 -0.40503 0
M  V30 2890 H 269.234 -2.78956 -2.70399 0
M  V30 2891 H 270.906 -4.54742 -0.775082 0
M  V30 2892 H 269.149 -4.28744 -0.660364 0
M  V30 2893 H 269.82 -5.11837 -2.06706 0
M  V30 2894 H 272.296 -3.26194 -2.58334 0
M  V30 2895 H 271.172 -4.01316 -3.74482 0
M  V30 2896 H 271.433 -2.27669 -3.78971 0
M  V30 2897 N 270.492 0.636531 -1.44174 0
M  V30 2898 C 271.455 1.73063 -1.50273 0
M  V30 2899 C 272.455 1.56113 -0.385397 0
M  V30 2900 O 273.645 1.61707 -0.64781 0
M  V30 2901 C 270.777 3.12096 -1.37145 0
M  V30 2902 H 271.97 1.69031 -2.47727 0
M  V30 2903 H 269.523 0.849706 -1.31186 0
M  V30 2904 H 270.258 3.21728 -0.407636 0
M  V30 2905 H 270.043 3.25805 -2.18159 0
M  V30 2906 H 271.533 3.91846 -1.44382 0
M  V30 2907 N 271.97 1.30982 0.876444 0
M  V30 2908 C 272.933 1.18054 1.96459 0
M  V30 2909 C 273.933 0.109399 1.60427 0
M  V30 2910 O 275.123 0.358173 1.70478 0
M  V30 2911 C 272.255 0.810616 3.31122 0
M  V30 2912 H 273.448 2.14735 2.09354 0
M  V30 2913 H 271.001 1.145 1.06392 0
M  V30 2914 H 271.736 -0.155322 3.23928 0
M  V30 2915 H 271.521 1.58481 3.58645 0
M  V30 2916 H 273.011 0.743876 4.10921 0
M  V30 2917 N 273.449 -1.08991 1.13837 0
M  V30 2918 C 274.695 -1.81526 0.90422 0
M  V30 2919 C 275.028 -1.85706 -0.568066 0
M  V30 2920 O 274.303 -1.32855 -1.42056 0
M  V30 2921 C 274.586 -3.27447 1.49835 0
M  V30 2922 C 274.439 -3.31512 3.04006 0
M  V30 2923 C 275.758 -4.24256 1.17025 0
M  V30 2924 H 272.877 -0.659029 0.329923 0
M  V30 2925 H 275.519 -1.27644 1.40737 0
M  V30 2926 H 273.669 -3.73462 1.07044 0
M  V30 2927 H 275.341 -2.93867 3.55584 0
M  V30 2928 H 273.584 -2.70963 3.38765 0
M  V30 2929 H 274.255 -4.34329 3.40679 0
M  V30 2930 H 276.731 -3.86549 1.54009 0
M  V30 2931 H 275.607 -5.24684 1.61237 0
M  V30 2932 H 275.868 -4.42019 0.0846274 0
M  V30 2933 N 274.927 -0.932562 -1.27047 0
M  V30 2934 C 275.89 -0.440064 -2.24936 0
M  V30 2935 C 276.89 0.444071 -1.54547 0
M  V30 2936 O 278.08 0.244465 -1.72476 0
M  V30 2937 C 275.212 0.36678 -3.38921 0
M  V30 2938 H 276.405 -1.305 -2.70018 0
M  V30 2939 H 273.958 -0.713707 -1.39054 0
M  V30 2940 H 274.693 1.25033 -2.99228 0
M  V30 2941 H 274.478 -0.267204 -3.91188 0
M  V30 2942 H 275.968 0.701567 -4.11665 0
M  V30 2943 N 276.405 1.4127 -0.698611 0
M  V30 2944 C 277.335 2.33447 -0.049629 0
M  V30 2945 C 278.316 1.51982 0.763898 0
M  V30 2946 O 279.501 1.80509 0.716257 0
M  V30 2947 C 276.631 3.35828 0.885267 0
M  V30 2948 C 275.585 4.27627 0.178613 0
M  V30 2949 C 274.911 5.20406 1.22807 0
M  V30 2950 C 276.211 5.13459 -0.956933 0
M  V30 2951 H 277.905 2.87966 -0.81951 0
M  V30 2952 H 275.451 1.38461 -0.395538 0
M  V30 2953 H 277.404 3.9924 1.34854 0
M  V30 2954 H 276.128 2.79666 1.68685 0
M  V30 2955 H 274.787 3.65643 -0.26466 0
M  V30 2956 H 274.435 4.60558 2.02226 0
M  V30 2957 H 274.135 5.82661 0.760239 0
M  V30 2958 H 275.659 5.86695 1.69179 0
M  V30 2959 H 277.073 5.70421 -0.573805 0
M  V30 2960 H 275.47 5.8467 -1.35205 0
M  V30 2961 H 276.54 4.50443 -1.79524 0
M  V30 2962 N 277.883 0.443576 1.51229 0
M  V30 2963 C 278.83 -0.364716 2.279 0
M  V30 2964 C 279.8 -1.0114 1.31757 0
M  V30 2965 O 280.985 -1.02912 1.60667 0
M  V30 2966 C 278.125 -1.45644 3.12861 0
M  V30 2967 C 277.238 -0.827269 4.24005 0
M  V30 2968 C 276.373 -1.89456 4.96266 0
M  V30 2969 C 275.412 -1.24416 5.99322 0
M  V30 2970 N 274.549 -2.25309 6.64966 0
M  V30 2971 H 279.389 0.295464 2.96532 0
M  V30 2972 H 276.926 0.157554 1.46254 0
M  V30 2973 H 278.884 -2.10076 3.6045 0
M  V30 2974 H 277.514 -2.08616 2.46331 0
M  V30 2975 H 276.566 -0.0710839 3.80334 0
M  V30 2976 H 277.878 -0.312481 4.9782 0
M  V30 2977 H 277.032 -2.61535 5.47434 0
M  V30 2978 H 275.771 -2.4431 4.22095 0
M  V30 2979 H 274.776 -0.508868 5.4744 0
M  V30 2980 H 276.001 -0.702882 6.75453 0
M  V30 2981 H 273.947 -2.79231 5.93604 0
M  V30 2982 H 273.864 -1.78739 7.34567 0
M  V30 2983 H 275.132 -2.96853 7.20763 0
M  V30 2984 N 279.361 -1.56624 0.175154 0
M  V30 2985 C 280.609 -1.96609 -0.467885 0
M  V30 2986 C 280.93 -1.06238 -1.63519 0
M  V30 2987 O 280.2 -0.129523 -1.95471 0
M  V30 2988 H 278.78 -0.726008 -0.175845 0
M  V30 2989 H 281.442 -1.93195 0.257234 0
M  V30 2990 H 280.538 -3.00989 -0.825342 0
M  V30 2991 N 280.839 0.0985539 -1.57292 0
M  V30 2992 C 282.087 0.801092 -1.85545 0
M  V30 2993 C 282.408 1.79438 -0.763353 0
M  V30 2994 O 281.678 1.94763 0.21073 0
M  V30 2995 H 280.258 0.29884 -0.684619 0
M  V30 2996 H 282.92 0.0810064 -1.94732 0
M  V30 2997 H 282.016 1.3338 -2.82163 0
M  V30 2998 N 282.317 1.53212 0.369288 0
M  V30 2999 C 283.547 1.72868 1.13139 0
M  V30 3000 C 283.955 0.455754 1.83629 0
M  V30 3001 O 283.298 -0.580861 1.74275 0
M  V30 3002 C 283.36 2.83667 2.20847 0
M  V30 3003 C 283.024 4.24142 1.70155 0
M  V30 3004 C 284.021 5.06619 1.16763 0
M  V30 3005 C 281.706 4.70539 1.7578 0
M  V30 3006 C 283.7 6.33581 0.696678 0
M  V30 3007 C 281.387 5.97481 1.28297 0
M  V30 3008 C 282.385 6.78833 0.753307 0
M  V30 3009 O 282.073 8.03393 0.285475 0
M  V30 3010 H 281.805 0.581707 0.344373 0
M  V30 3011 H 284.359 2.00736 0.435243 0
M  V30 3012 H 282.589 2.51265 2.93944 0
M  V30 3013 H 284.278 2.91536 2.82421 0
M  V30 3014 H 285.044 4.71948 1.11758 0
M  V30 3015 H 280.923 4.07293 2.15949 0
M  V30 3016 H 284.467 6.97027 0.282581 0
M  V30 3017 H 280.364 6.31651 1.32994 0
M  V30 3018 H 281.132 8.17497 0.405145 0
M  V30 3019 N 283.795 -0.628877 1.44509 0
M  V30 3020 C 284.743 -1.76193 1.51852 0
M  V30 3021 C 285.737 -1.64849 0.390042 0
M  V30 3022 O 286.943 -1.709 0.565082 0
M  V30 3023 H 283.318 -0.581728 0.476547 0
M  V30 3024 H 285.289 -1.67123 2.47209 0
M  V30 3025 C 284.038 -3.14533 1.48204 0
M  V30 3026 H 283.361 -3.23911 2.34354 0
M  V30 3027 H 284.801 -3.93701 1.57402 0
M  V30 3028 C 283.26 -3.36287 0.203142 0
M  V30 3029 O 283.79 -3.9509 -0.725745 0
M  V30 3030 N 281.996 -2.90408 0.105563 0
M  V30 3031 H 281.543 -2.42739 0.862301 0
M  V30 3032 H 281.501 -3.05339 -0.749371 0
M  V30 3033 N 285.273 -1.31445 -0.869486 0
M  V30 3034 C 286.183 -1.21097 -2.0093 0
M  V30 3035 C 287.199 -0.127584 -1.73532 0
M  V30 3036 O 288.375 -0.345477 -1.98415 0
M  V30 3037 C 285.44 -0.919378 -3.34288 0
M  V30 3038 C 284.501 -2.08971 -3.75006 0
M  V30 3039 C 283.734 -1.81194 -5.02001 0
M  V30 3040 O 283.957 -0.747296 -5.65484 0
M  V30 3041 O 282.891 -2.66883 -5.39497 0
M  V30 3042 H 286.717 -2.16883 -2.12592 0
M  V30 3043 H 284.302 -1.11189 -0.997868 0
M  V30 3044 H 286.184 -0.772625 -4.14257 0
M  V30 3045 H 284.859 0.00844772 -3.23699 0
M  V30 3046 H 283.766 -2.29187 -2.95676 0
M  V30 3047 H 285.099 -2.9998 -3.90221 0
M  V30 3048 N 286.751 1.08385 -1.14413 0
M  V30 3049 C 287.681 2.17321 -0.854044 0
M  V30 3050 C 288.662 1.69024 0.191049 0
M  V30 3051 O 289.847 1.94141 0.0476779 0
M  V30 3052 C 286.977 3.45719 -0.330983 0
M  V30 3053 C 285.931 4.07409 -1.31155 0
M  V30 3054 C 285.257 5.30762 -0.64778 0
M  V30 3055 C 286.557 4.48665 -2.67388 0
M  V30 3056 H 288.251 2.41845 -1.76498 0
M  V30 3057 H 285.797 1.16233 -0.850051 0
M  V30 3058 H 287.75 4.21241 -0.115645 0
M  V30 3059 H 286.474 3.2075 0.615381 0
M  V30 3060 H 285.133 3.33919 -1.51306 0
M  V30 3061 H 284.781 5.02078 0.304398 0
M  V30 3062 H 284.481 5.72992 -1.30207 0
M  V30 3063 H 286.005 6.08998 -0.441972 0
M  V30 3064 H 287.419 5.15364 -2.51143 0
M  V30 3065 H 285.816 5.01814 -3.29093 0
M  V30 3066 H 286.886 3.60543 -3.24248 0
M  V30 3067 N 288.23 0.939286 1.26551 0
M  V30 3068 C 289.47 0.5933 1.956 0
M  V30 3069 C 289.834 -0.851515 1.72085 0
M  V30 3070 O 291.035 -1.30634 2.34921 0
M  V30 3071 C 289.306 0.923996 3.45249 0
M  V30 3072 S 290.865 0.688269 4.33369 0
M  V30 3073 H 287.683 0.218591 0.676564 0
M  V30 3074 H 290.285 1.2102 1.5354 0
M  V30 3075 H 288.989 1.97297 3.59864 0
M  V30 3076 H 288.52 0.296746 3.92279 0
M  V30 3077 H 290.535 -0.448434 4.9417 0
M  V30 3078 N 289.708 -1.40897 0.706093 0
M  V30 3079 C 290.985 -1.94868 0.169099 0
M  V30 3080 C 291.365 -1.64485 -1.32318 0
M  V30 3081 O 290.713 -0.95744 -2.07474 0
M  V30 3082 C 290.923 -3.45798 0.471654 0
M  V30 3083 C 292.271 -4.22663 0.405127 0
M  V30 3084 O 293.295 -3.53865 0.407168 0
M  V30 3085 O 292.154 -5.45216 0.374383 0
M  V30 3086 H 289.248 -0.82673 0.0211352 0
M  V30 3087 H 291.794 -1.50558 0.782976 0
M  V30 3088 H 290.566 -3.61235 1.50416 0
M  V30 3089 H 290.189 -3.97225 -0.172666 0
M  V30 3090 N 291.186 -0.45159 -1.50991 0
M  V30 3091 C 292.435 0.111653 -2.01391 0
M  V30 3092 C 292.748 1.42529 -1.33959 0
M  V30 3093 O 293.954 2.07232 -1.75405 0
M  V30 3094 C 292.41 0.249514 -3.59034 0
M  V30 3095 C 292.018 -1.05453 -4.35412 0
M  V30 3096 C 293.762 0.765762 -4.17536 0
M  V30 3097 C 291.669 -0.881529 -5.84793 0
M  V30 3098 H 290.599 0.0455022 -0.752626 0
M  V30 3099 H 293.25 -0.583524 -1.73975 0
M  V30 3100 H 291.632 1.00803 -3.82955 0
M  V30 3101 H 292.806 -1.82248 -4.23229 0
M  V30 3102 H 291.121 -1.50039 -3.88429 0
M  V30 3103 H 293.718 0.911913 -5.26866 0
M  V30 3104 H 294.061 1.75201 -3.77638 0
M  V30 3105 H 294.594 0.0651744 -3.97747 0
M  V30 3106 H 291.333 -1.84057 -6.29129 0
M  V30 3107 H 290.853 -0.153625 -5.99603 0
M  V30 3108 H 292.532 -0.540363 -6.4474 0
M  V30 3109 N 292.664 1.56529 -0.183458 0
M  V30 3110 C 293.91 1.98304 0.452466 0
M  V30 3111 C 294.265 1.06799 1.60037 0
M  V30 3112 O 293.558 0.110049 1.91284 0
M  V30 3113 C 293.752 3.43939 0.971637 0
M  V30 3114 C 293.581 4.49528 -0.124425 0
M  V30 3115 C 292.351 5.01981 -0.578168 0
M  V30 3116 C 294.549 5.05836 -0.929207 0
M  V30 3117 N 292.531 5.91219 -1.65327 0
M  V30 3118 C 293.902 5.91632 -1.85396 0
M  V30 3119 C 295.957 4.88302 -0.972929 0
M  V30 3120 C 294.66 6.61768 -2.81878 0
M  V30 3121 C 296.686 5.59168 -1.92574 0
M  V30 3122 C 296.048 6.44701 -2.83795 0
M  V30 3123 H 292.147 0.770551 0.133324 0
M  V30 3124 H 294.731 1.92581 -0.286473 0
M  V30 3125 H 292.902 3.50184 1.68006 0
M  V30 3126 H 294.634 3.72702 1.5772 0
M  V30 3127 H 291.389 4.73282 -0.173639 0
M  V30 3128 H 291.813 6.40543 -2.19167 0
M  V30 3129 H 296.455 4.21861 -0.28168 0
M  V30 3130 H 294.173 7.27415 -3.51984 0
M  V30 3131 H 297.759 5.47582 -1.96583 0
M  V30 3132 H 296.639 6.98573 -3.56322 0
M  V30 3133 N 294.142 -0.090211 1.57342 0
M  V30 3134 C 295.367 -0.810082 1.90925 0
M  V30 3135 C 295.792 -1.71248 0.778187 0
M  V30 3136 O 295.15 -1.79278 -0.269991 0
M  V30 3137 C 295.198 -1.59529 3.23393 0
M  V30 3138 O 294.302 -2.70461 3.11327 0
M  V30 3139 H 293.643 -0.222231 0.625707 0
M  V30 3140 H 296.173 -0.0639716 2.045 0
M  V30 3141 H 296.183 -1.97847 3.5682 0
M  V30 3142 H 294.858 -0.933055 4.05299 0
M  V30 3143 H 293.435 -2.35135 2.89423 0
M  V30 3144 N 295.62 -1.53406 -0.361157 0
M  V30 3145 C 296.55 -1.83136 -1.44857 0
M  V30 3146 C 297.531 -0.685174 -1.5569 0
M  V30 3147 O 298.716 -0.93544 -1.70186 0
M  V30 3148 C 295.846 -2.02522 -2.82138 0
M  V30 3149 C 294.8 -3.18302 -2.86126 0
M  V30 3150 C 294.126 -3.22989 -4.26125 0
M  V30 3151 C 295.426 -4.56796 -2.53248 0
M  V30 3152 H 297.12 -2.74201 -1.20226 0
M  V30 3153 H 294.666 -1.31938 -0.576922 0
M  V30 3154 H 296.619 -2.21904 -3.58241 0
M  V30 3155 H 295.343 -1.08172 -3.08166 0
M  V30 3156 H 294.002 -2.98747 -2.12475 0
M  V30 3157 H 293.65 -2.26267 -4.49235 0
M  V30 3158 H 293.35 -4.00781 -4.29708 0
M  V30 3159 H 294.874 -3.44559 -5.04094 0
M  V30 3160 H 296.288 -4.7631 -3.19064 0
M  V30 3161 H 294.685 -5.36862 -2.68141 0
M  V30 3162 H 295.755 -4.61606 -1.48484 0
M  V30 3163 N 297.098 0.621204 -1.44841 0
M  V30 3164 C 298.346 1.37783 -1.47852 0
M  V30 3165 C 298.667 1.94653 -0.116224 0
M  V30 3166 O 297.937 1.76367 0.852737 0
M  V30 3167 H 296.517 0.511453 -0.544449 0
M  V30 3168 H 299.179 0.730446 -1.80694 0
M  V30 3169 H 298.275 2.20414 -2.20961 0
M  V30 3170 N 298.576 1.31904 0.862503 0
M  V30 3171 C 299.825 1.21373 1.61094 0
M  V30 3172 C 300.138 -0.22504 1.94301 0
M  V30 3173 O 301.344 -0.452121 2.67709 0
M  V30 3174 C 299.8 2.12525 2.9045 0
M  V30 3175 C 299.408 3.61441 2.64697 0
M  V30 3176 C 301.152 2.10813 3.68454 0
M  V30 3177 C 299.059 4.44578 3.90006 0
M  V30 3178 H 297.989 0.450705 0.604468 0
M  V30 3179 H 300.64 1.56811 0.953027 0
M  V30 3180 H 299.022 1.69994 3.57656 0
M  V30 3181 H 300.196 4.12264 2.05851 0
M  V30 3182 H 298.511 3.65205 2.00036 0
M  V30 3183 H 301.108 2.70167 4.61426 0
M  V30 3184 H 301.451 1.09713 4.01583 0
M  V30 3185 H 301.984 2.51583 3.08141 0
M  V30 3186 H 298.723 5.46461 3.62023 0
M  V30 3187 H 298.243 3.98508 4.48276 0
M  V30 3188 H 299.922 4.57176 4.5782 0
M  V30 3189 N 300.054 -1.07777 1.14986 0
M  V30 3190 C 301.282 -1.84018 0.945773 0
M  V30 3191 C 301.697 -1.81897 -0.505863 0
M  V30 3192 O 301.054 -1.22726 -1.35072 0
M  V30 3193 C 301.105 -3.31287 1.44677 0
M  V30 3194 O 300.826 -3.33449 2.84154 0
M  V30 3195 C 302.327 -4.24311 1.28355 0
M  V30 3196 H 299.547 -0.580716 0.336169 0
M  V30 3197 H 302.091 -1.36077 1.52654 0
M  V30 3198 H 300.246 -3.76594 0.908625 0
M  V30 3199 H 300.66 -4.25427 3.06777 0
M  V30 3200 H 302.134 -5.2573 1.68261 0
M  V30 3201 H 302.611 -4.38612 0.227184 0
M  V30 3202 H 303.217 -3.84836 1.81056 0
M  V30 3203 N 301.532 -0.945985 -1.26051 0
M  V30 3204 C 302.495 -0.463897 -2.24456 0
M  V30 3205 C 303.495 0.427655 -1.55009 0
M  V30 3206 O 304.685 0.226157 -1.72726 0
M  V30 3207 C 301.817 0.330812 -3.39291 0
M  V30 3208 H 303.01 -1.33357 -2.68619 0
M  V30 3209 H 300.563 -0.728416 -1.38289 0
M  V30 3210 H 301.298 1.21852 -3.00537 0
M  V30 3211 H 301.083 -0.308679 -3.90883 0
M  V30 3212 H 302.573 0.657865 -4.12386 0
M  V30 3213 N 303.011 1.40521 -0.713556 0
M  V30 3214 C 304.26 2.00155 -0.249192 0
M  V30 3215 C 304.573 1.57224 1.16362 0
M  V30 3216 O 305.779 2.09542 1.72639 0
M  V30 3217 C 304.235 3.5773 -0.3946 0
M  V30 3218 C 303.843 4.09635 -1.81392 0
M  V30 3219 C 305.587 4.24499 0.00907364 0
M  V30 3220 C 303.494 5.59707 -1.91003 0
M  V30 3221 H 302.424 0.74868 -0.0894114 0
M  V30 3222 H 305.075 1.60784 -0.884352 0
M  V30 3223 H 303.457 3.94792 0.30911 0
M  V30 3224 H 304.631 3.83955 -2.54785 0
M  V30 3225 H 302.946 3.55456 -2.16888 0
M  V30 3226 H 305.543 5.34683 -0.0420404 0
M  V30 3227 H 305.886 4.02824 1.05065 0
M  V30 3228 H 306.419 3.92536 -0.645007 0
M  V30 3229 H 303.158 5.86234 -2.93275 0
M  V30 3230 H 302.678 5.87258 -1.22019 0
M  V30 3231 H 304.357 6.24776 -1.6812 0
M  V30 3232 N 304.489 0.459591 1.5075 0
M  V30 3233 C 305.399 -0.34613 2.32033 0
M  V30 3234 C 306.415 -1.00686 1.41909 0
M  V30 3235 O 307.591 -0.997361 1.7497 0
M  V30 3236 C 304.656 -1.42029 3.16273 0
M  V30 3237 C 303.717 -0.777362 4.22203 0
M  V30 3238 C 302.95 -1.80034 5.02418 0
M  V30 3239 O 303.173 -3.02544 4.83553 0
M  V30 3240 O 302.107 -1.37853 5.85901 0
M  V30 3241 H 305.933 0.318054 3.0203 0
M  V30 3242 H 303.518 0.221663 1.47746 0
M  V30 3243 H 305.4 -2.04275 3.68578 0
M  V30 3244 H 304.075 -2.06815 2.49016 0
M  V30 3245 H 302.982 -0.116256 3.73919 0
M  V30 3246 H 304.315 -0.172634 4.91897 0
M  V30 3247 N 305.967 -1.56429 0.191757 0
M  V30 3248 C 306.897 -2.21937 -0.725696 0
M  V30 3249 C 307.878 -1.1814 -1.2238 0
M  V30 3250 O 309.063 -1.46636 -1.27325 0
M  V30 3251 C 306.193 -2.87611 -1.94672 0
M  V30 3252 C 305.147 -3.97623 -1.58366 0
M  V30 3253 C 304.473 -4.50446 -2.88102 0
M  V30 3254 C 305.773 -5.16197 -0.796133 0
M  V30 3255 H 307.467 -2.98861 -0.179606 0
M  V30 3256 H 305.013 -1.43749 -0.0849464 0
M  V30 3257 H 306.966 -3.3212 -2.59373 0
M  V30 3258 H 305.69 -2.08087 -2.51728 0
M  V30 3259 H 304.349 -3.53801 -0.960247 0
M  V30 3260 H 303.997 -3.67688 -3.43241 0
M  V30 3261 H 303.697 -5.24675 -2.64556 0
M  V30 3262 H 305.221 -4.97654 -3.53798 0
M  V30 3263 H 306.635 -5.57271 -1.34618 0
M  V30 3264 H 305.032 -5.96471 -0.658928 0
M  V30 3265 H 306.102 -4.84473 0.203478 0
M  V30 3266 N 307.445 0.0818655 -1.57387 0
M  V30 3267 C 308.408 1.08265 -2.02018 0
M  V30 3268 C 309.408 1.32183 -0.915664 0
M  V30 3269 O 310.598 1.28073 -1.18081 0
M  V30 3270 C 307.73 2.42871 -2.39221 0
M  V30 3271 H 308.923 0.698204 -2.91659 0
M  V30 3272 H 306.476 0.327303 -1.52835 0
M  V30 3273 H 307.211 2.86167 -1.52575 0
M  V30 3274 H 306.996 2.26855 -3.19811 0
M  V30 3275 H 308.486 3.14826 -2.74362 0
M  V30 3276 N 308.923 1.53595 0.353017 0
M  V30 3277 C 309.833 1.83897 1.45667 0
M  V30 3278 C 310.849 0.728334 1.58023 0
M  V30 3279 O 312.025 1.01968 1.73679 0
M  V30 3280 C 309.09 2.03383 2.80778 0
M  V30 3281 C 308.151 3.27262 2.77845 0
M  V30 3282 C 307.384 3.45809 4.06512 0
M  V30 3283 O 307.607 2.68387 5.03314 0
M  V30 3284 O 306.541 4.39207 4.11559 0
M  V30 3285 H 310.367 2.77686 1.2298 0
M  V30 3286 H 307.952 1.39132 0.544308 0
M  V30 3287 H 309.834 2.17698 3.60812 0
M  V30 3288 H 308.509 1.12783 3.03417 0
M  V30 3289 H 307.416 3.18359 1.96465 0
M  V30 3290 H 308.749 4.17824 2.60161 0
M  V30 3291 N 310.401 -0.613514 1.45168 0
M  V30 3292 C 311.331 -1.7354 1.56225 0
M  V30 3293 C 312.312 -1.64981 0.41414 0
M  V30 3294 O 313.497 -1.83472 0.636526 0
M  V30 3295 C 310.627 -3.12128 1.52295 0
M  V30 3296 C 309.581 -3.35491 2.65762 0
M  V30 3297 C 308.907 -4.74291 2.46885 0
M  V30 3298 C 310.207 -3.26325 4.0781 0
M  V30 3299 H 311.901 -1.64543 2.50132 0
M  V30 3300 H 309.447 -0.790185 1.20383 0
M  V30 3301 H 311.4 -3.90404 1.58628 0
M  V30 3302 H 310.124 -3.2195 0.549139 0
M  V30 3303 H 308.783 -2.59603 2.58847 0
M  V30 3304 H 308.431 -4.80839 1.47657 0
M  V30 3305 H 308.131 -4.9088 3.22972 0
M  V30 3306 H 309.655 -5.54775 2.55063 0
M  V30 3307 H 311.069 -3.94483 4.16 0
M  V30 3308 H 309.466 -3.54445 4.8424 0
M  V30 3309 H 310.536 -2.23855 4.30136 0
M  V30 3310 N 311.879 -1.3236 -0.855495 0
M  V30 3311 C 312.811 -1.17052 -1.97057 0
M  V30 3312 C 313.824 -0.10574 -1.62456 0
M  V30 3313 O 315.013 -0.354619 -1.74942 0
M  V30 3314 C 312.113 -0.769305 -3.30053 0
M  V30 3315 C 311.286 -1.9222 -3.929 0
M  V30 3316 C 310.345 -1.50466 -5.04228 0
M  V30 3317 O 309.371 -2.21655 -5.24269 0
M  V30 3318 N 310.573 -0.400209 -5.79119 0
M  V30 3319 H 313.338 -2.13103 -2.1073 0
M  V30 3320 H 310.899 -1.24885 -1.0303 0
M  V30 3321 H 312.891 -0.472407 -4.01933 0
M  V30 3322 H 311.461 0.100025 -3.1244 0
M  V30 3323 H 310.681 -2.38563 -3.13817 0
M  V30 3324 H 311.969 -2.69403 -4.31624 0
M  V30 3325 H 311.367 0.192319 -5.65373 0
M  V30 3326 H 309.924 -0.162912 -6.51596 0
M  V30 3327 N 313.357 1.07166 -1.15556 0
M  V30 3328 C 314.768 1.6127 -0.940693 0
M  V30 3329 C 315.119 1.89251 0.517551 0
M  V30 3330 O 314.244 1.65937 1.38903 0
M  V30 3331 C 314.839 2.92993 -1.7012 0
M  V30 3332 C 313.398 3.43832 -1.53156 0
M  V30 3333 C 312.545 2.1786 -1.71558 0
M  V30 3334 H 315.496 0.90229 -1.30554 0
M  V30 3335 H 315.517 3.62007 -1.17181 0
M  V30 3336 H 315.029 2.72596 -2.76248 0
M  V30 3337 H 313.13 3.69307 -0.494294 0
M  V30 3338 H 313.243 4.19747 -2.30975 0
M  V30 3339 H 311.607 2.2765 -1.14225 0
M  V30 3340 H 312.39 1.99956 -2.79056 0
M  V30 3341 N 314.835 0.952656 1.25548 0
M  V30 3342 C 316.246 0.647392 1.75116 0
M  V30 3343 C 316.597 -0.837274 1.77438 0
M  V30 3344 O 315.722 -1.65525 1.39393 0
M  V30 3345 C 316.317 1.16845 3.18014 0
M  V30 3346 C 314.876 0.913382 3.6515 0
M  V30 3347 C 314.023 1.31265 2.44264 0
M  V30 3348 H 316.974 1.12968 1.11462 0
M  V30 3349 H 316.995 0.527606 3.76824 0
M  V30 3350 H 316.507 2.24902 3.16292 0
M  V30 3351 H 314.608 -0.152316 3.72289 0
M  V30 3352 H 314.721 1.54845 4.53387 0
M  V30 3353 H 313.085 0.731028 2.43984 0
M  V30 3354 H 313.868 2.40239 2.45234 0
M  V30 3355 N 316.313 -1.40141 0.720998 0
M  V30 3356 C 317.243 -2.33339 0.0867621 0
M  V30 3357 C 318.224 -1.53178 -0.739622 0
M  V30 3358 O 319.409 -1.81625 -0.687449 0
M  V30 3359 C 316.539 -3.37194 -0.831728 0
M  V30 3360 C 315.493 -4.27857 -0.110558 0
M  V30 3361 C 314.819 -5.22294 -1.14513 0
M  V30 3362 C 316.119 -5.11872 1.0385 0
M  V30 3363 H 317.813 -2.86626 0.865219 0
M  V30 3364 H 315.359 -1.37814 0.417516 0
M  V30 3365 H 317.312 -4.01335 -1.28485 0
M  V30 3366 H 316.036 -2.82314 -1.64214 0
M  V30 3367 H 314.695 -3.65176 0.322797 0
M  V30 3368 H 314.343 -4.63717 -1.94874 0
M  V30 3369 H 314.043 -5.83797 -0.667446 0
M  V30 3370 H 315.567 -5.89312 -1.59824 0
M  V30 3371 H 316.981 -5.69436 0.664482 0
M  V30 3372 H 315.378 -5.82445 1.4449 0
M  V30 3373 H 316.448 -4.4753 1.86668 0
M  V30 3374 N 317.792 -0.46758 -1.50504 0
M  V30 3375 C 319.039 0.0886219 -2.02306 0
M  V30 3376 C 319.367 1.40037 -1.34981 0
M  V30 3377 O 318.622 1.90136 -0.463318 0
M  V30 3378 C 318.921 0.323995 -3.55928 0
M  V30 3379 C 318.587 -0.905618 -4.41712 0
M  V30 3380 C 317.249 -1.24275 -4.64875 0
M  V30 3381 C 319.601 -1.72448 -4.91845 0
M  V30 3382 C 316.929 -2.39888 -5.35417 0
M  V30 3383 C 319.281 -2.87185 -5.63656 0
M  V30 3384 C 317.945 -3.21317 -5.85074 0
M  V30 3385 H 317.215 0.0324291 -0.74029 0
M  V30 3386 H 319.862 -0.620945 -1.81153 0
M  V30 3387 H 318.167 1.11577 -3.75577 0
M  V30 3388 H 319.864 0.76826 -3.93572 0
M  V30 3389 H 316.454 -0.632956 -4.239 0
M  V30 3390 H 320.638 -1.4772 -4.73806 0
M  V30 3391 H 315.894 -2.66611 -5.50208 0
M  V30 3392 H 320.068 -3.50985 -6.01484 0
M  V30 3393 H 317.695 -4.1101 -6.39511 0
M  V30 3394 N 319.27 1.56325 -0.20005 0
M  V30 3395 C 320.547 1.89484 0.48529 0
M  V30 3396 C 320.927 1.1143 1.79294 0
M  V30 3397 O 320.275 0.216919 2.27468 0
M  V30 3398 C 320.485 3.41923 0.699243 0
M  V30 3399 C 321.833 4.12256 1.01638 0
M  V30 3400 O 322.857 3.47402 0.786792 0
M  V30 3401 O 321.716 5.26887 1.45095 0
M  V30 3402 H 318.81 0.787144 0.253639 0
M  V30 3403 H 321.356 1.67985 -0.240633 0
M  V30 3404 H 320.128 3.90658 -0.224008 0
M  V30 3405 H 319.751 3.69131 1.47744 0
M  V30 3406 N 320.748 -0.0735177 1.57428 0
M  V30 3407 C 321.994 -0.774145 1.87443 0
M  V30 3408 C 322.327 -1.77311 0.792103 0
M  V30 3409 O 321.602 -1.93492 -0.197793 0
M  V30 3410 C 321.885 -1.48367 3.28115 0
M  V30 3411 C 321.738 -0.501227 4.46999 0
M  V30 3412 C 323.057 -2.429 3.66998 0
M  V30 3413 H 320.176 -0.279971 0.681752 0
M  V30 3414 H 322.818 -0.0373616 1.89963 0
M  V30 3415 H 320.968 -2.11171 3.26097 0
M  V30 3416 H 322.64 0.121468 4.6114 0
M  V30 3417 H 320.883 0.183593 4.33411 0
M  V30 3418 H 321.554 -1.03526 5.42205 0
M  V30 3419 H 324.03 -1.90175 3.70098 0
M  V30 3420 H 322.906 -2.89549 4.66318 0
M  V30 3421 H 323.167 -3.27628 2.96837 0
M  V30 3422 N 322.226 -1.5378 -0.344866 0
M  V30 3423 C 323.176 -1.78057 -1.42407 0
M  V30 3424 C 324.16 -0.635732 -1.47808 0
M  V30 3425 O 325.352 -0.89508 -1.527 0
M  V30 3426 C 322.481 -1.99242 -2.79566 0
M  V30 3427 C 321.567 -3.19787 -2.78562 0
M  V30 3428 N 321.958 -4.41284 -2.47189 0
M  V30 3429 C 320.256 -3.2093 -3.0971 0
M  V30 3430 C 320.957 -5.23128 -2.54385 0
M  V30 3431 N 319.933 -4.59813 -2.89953 0
M  V30 3432 H 323.735 -2.69588 -1.17046 0
M  V30 3433 H 321.249 -1.52687 -0.553217 0
M  V30 3434 H 323.246 -2.14768 -3.57324 0
M  V30 3435 H 321.906 -1.08953 -3.05875 0
M  V30 3436 H 322.917 -4.68657 -2.20411 0
M  V30 3437 H 319.594 -2.40603 -3.41199 0
M  V30 3438 H 320.984 -6.30096 -2.333 0
M  V30 3439 N 323.704 0.605807 -1.45491 0
M  V30 3440 C 325.115 1.18777 -1.44045 0
M  V30 3441 C 325.466 1.95471 -0.169001 0
M  V30 3442 O 324.591 2.0374 0.729324 0
M  V30 3443 C 325.186 2.16064 -2.60963 0
M  V30 3444 C 323.745 2.69633 -2.62631 0
M  V30 3445 C 322.892 1.45072 -2.36325 0
M  V30 3446 H 325.843 0.395017 -1.53705 0
M  V30 3447 H 325.864 2.9913 -2.35163 0
M  V30 3448 H 325.376 1.60217 -3.53486 0
M  V30 3449 H 323.477 3.29414 -1.74119 0
M  V30 3450 H 323.59 3.13944 -3.61906 0
M  V30 3451 H 321.954 1.74089 -1.85917 0
M  V30 3452 H 322.737 0.910899 -3.30995 0
M  V30 3453 N 325.182 1.32811 0.848464 0
M  V30 3454 C 326.112 1.24882 1.97299 0
M  V30 3455 C 327.093 0.131357 1.69592 0
M  V30 3456 O 328.278 0.319553 1.91553 0
M  V30 3457 C 325.408 0.97746 3.33261 0
M  V30 3458 C 324.362 2.05682 3.75338 0
M  V30 3459 C 323.688 1.63777 5.09 0
M  V30 3460 C 324.988 3.47254 3.90144 0
M  V30 3461 H 326.682 2.18966 2.04191 0
M  V30 3462 H 324.228 1.05413 0.981029 0
M  V30 3463 H 326.181 0.908513 4.1149 0
M  V30 3464 H 324.905 0.000980011 3.266 0
M  V30 3465 H 323.564 2.11603 2.99366 0
M  V30 3466 H 323.212 0.648569 4.98801 0
M  V30 3467 H 322.912 2.36 5.38124 0
M  V30 3468 H 324.436 1.5833 5.89715 0
M  V30 3469 H 325.85 3.43888 4.58709 0
M  V30 3470 H 324.247 4.1788 4.30693 0
M  V30 3471 H 325.317 3.86462 2.92874 0
M  V30 3472 N 326.66 -1.06551 1.16123 0
M  V30 3473 C 328.076 -1.3142 0.905585 0
M  V30 3474 C 328.276 -1.96571 -0.442964 0
M  V30 3475 O 327.332 -2.23068 -1.18308 0
M  V30 3476 C 328.645 -2.19741 2.05267 0
M  V30 3477 C 330.193 -2.33165 2.08813 0
M  V30 3478 C 330.668 -3.24838 3.22868 0
M  V30 3479 N 332.159 -3.32421 3.22568 0
M  V30 3480 C 332.894 -4.0344 4.0746 0
M  V30 3481 N 332.39 -4.77003 5.02434 0
M  V30 3482 N 334.183 -3.99464 3.95456 0
M  V30 3483 H 326.334 -0.626548 2.02949 0
M  V30 3484 H 328.597 -0.338777 0.8854 0
M  V30 3485 H 328.303 -1.79142 3.02657 0
M  V30 3486 H 328.177 -3.20313 1.99198 0
M  V30 3487 H 330.564 -2.73013 1.12018 0
M  V30 3488 H 330.645 -1.3227 2.18948 0
M  V30 3489 H 330.289 -2.85708 4.19921 0
M  V30 3490 H 330.219 -4.25707 3.0997 0
M  V30 3491 H 332.71 -2.79994 2.53795 0
M  V30 3492 H 333.023 -5.28712 5.63634 0
M  V30 3493 H 331.368 -4.75992 5.06415 0
M  V30 3494 H 334.559 -3.4111 3.20564 0
M  V30 3495 H 334.732 -4.54544 4.61837 0
M  V30 3496 N 328.138 -0.959301 -1.25041 0
M  V30 3497 C 329.384 -0.617525 -1.9317 0
M  V30 3498 C 329.717 0.843981 -1.74902 0
M  V30 3499 O 328.992 1.60615 -1.09696 0
M  V30 3500 C 329.275 -0.982736 -3.46431 0
M  V30 3501 C 329.128 -2.50032 -3.73904 0
M  V30 3502 C 330.447 -0.511176 -4.37121 0
M  V30 3503 H 327.566 -0.22582 -0.701552 0
M  V30 3504 H 330.208 -1.19679 -1.4757 0
M  V30 3505 H 328.358 -0.489806 -3.854 0
M  V30 3506 H 330.03 -3.06737 -3.44544 0
M  V30 3507 H 328.273 -2.93598 -3.19348 0
M  V30 3508 H 328.944 -2.70635 -4.81103 0
M  V30 3509 H 331.42 -0.934075 -4.0548 0
M  V30 3510 H 330.296 -0.795361 -5.43107 0
M  V30 3511 H 330.557 0.588834 -4.38161 0
M  V30 3512 N 329.616 1.39756 -0.72842 0
M  V30 3513 C 330.546 2.33289 -0.0991354 0
M  V30 3514 C 331.527 1.53568 0.731489 0
M  V30 3515 O 332.712 1.81987 0.677807 0
M  V30 3516 C 329.842 3.3763 0.813834 0
M  V30 3517 C 328.796 4.2791 0.0878663 0
M  V30 3518 C 328.122 5.22894 1.11741 0
M  V30 3519 C 329.422 5.11314 -1.06563 0
M  V30 3520 H 331.116 2.86163 -0.880408 0
M  V30 3521 H 328.662 1.37591 -0.424819 0
M  V30 3522 H 330.615 4.0201 1.26355 0
M  V30 3523 H 329.339 2.83181 1.62715 0
M  V30 3524 H 327.998 3.65 -0.342159 0
M  V30 3525 H 327.646 4.64744 1.92412 0
M  V30 3526 H 327.346 5.84143 0.636477 0
M  V30 3527 H 328.87 5.90151 1.56697 0
M  V30 3528 H 330.284 5.69076 -0.694671 0
M  V30 3529 H 328.681 5.81671 -1.47577 0
M  V30 3530 H 329.751 4.46534 -1.89038 0
M  V30 3531 N 331.094 0.475555 1.50254 0
M  V30 3532 C 332.341 -0.0778919 2.0235 0
M  V30 3533 C 332.669 -1.39319 1.35722 0
M  V30 3534 O 331.924 -1.89888 0.473395 0
M  V30 3535 C 332.223 -0.305114 3.56095 0
M  V30 3536 C 331.889 0.92903 4.41225 0
M  V30 3537 C 330.551 1.26739 4.6421 0
M  V30 3538 C 332.903 1.75054 4.90923 0
M  V30 3539 C 330.231 2.42724 5.34137 0
M  V30 3540 C 332.583 2.9017 5.62125 0
M  V30 3541 C 331.247 3.24416 5.83362 0
M  V30 3542 H 330.517 -0.0285027 0.740452 0
M  V30 3543 H 333.164 0.630543 1.80821 0
M  V30 3544 H 331.469 -1.09584 3.76163 0
M  V30 3545 H 333.166 -0.747377 3.93974 0
M  V30 3546 H 329.756 0.655428 4.23559 0
M  V30 3547 H 333.94 1.50231 4.73016 0
M  V30 3548 H 329.196 2.69525 5.48786 0
M  V30 3549 H 333.37 3.54169 5.99614 0
M  V30 3550 H 330.997 4.14396 6.37323 0
M  V30 3551 N 332.573 -1.56217 0.208337 0
M  V30 3552 C 333.503 -2.22694 -0.702116 0
M  V30 3553 C 334.484 -1.19432 -1.2112 0
M  V30 3554 O 335.669 -1.47978 -1.25762 0
M  V30 3555 C 332.799 -2.8966 -1.9161 0
M  V30 3556 C 331.753 -3.9928 -1.5414 0
M  V30 3557 C 331.079 -4.53476 -2.83308 0
M  V30 3558 C 332.379 -5.17012 -0.741339 0
M  V30 3559 H 334.073 -2.99034 -0.147898 0
M  V30 3560 H 331.619 -1.43831 -0.0696951 0
M  V30 3561 H 333.572 -3.34852 -2.55836 0
M  V30 3562 H 332.296 -2.10746 -2.49507 0
M  V30 3563 H 330.955 -3.54799 -0.922668 0
M  V30 3564 H 330.603 -3.71308 -3.39322 0
M  V30 3565 H 330.303 -5.27451 -2.58976 0
M  V30 3566 H 331.827 -5.01378 -3.485 0
M  V30 3567 H 333.241 -5.58667 -1.28699 0
M  V30 3568 H 331.638 -5.97137 -0.595627 0
M  V30 3569 H 332.708 -4.8423 0.254851 0
M  V30 3570 N 334.051 0.0651679 -1.57465 0
M  V30 3571 C 334.984 1.10876 -1.99453 0
M  V30 3572 C 335.962 1.37205 -0.872555 0
M  V30 3573 O 337.146 1.50468 -1.13542 0
M  V30 3574 C 334.273 2.45167 -2.3369 0
M  V30 3575 C 333.319 2.3493 -3.55964 0
M  V30 3576 S 334.152 1.73708 -5.06543 0
M  V30 3577 C 335.308 3.09563 -5.43987 0
M  V30 3578 H 335.541 0.750967 -2.87659 0
M  V30 3579 H 333.074 0.273933 -1.51951 0
M  V30 3580 H 335.032 3.22412 -2.54088 0
M  V30 3581 H 333.693 2.78105 -1.46001 0
M  V30 3582 H 332.886 3.3398 -3.77457 0
M  V30 3583 H 332.488 1.65823 -3.3523 0
M  V30 3584 H 334.78 4.05882 -5.42463 0
M  V30 3585 H 335.723 2.92843 -6.44708 0
M  V30 3586 H 336.131 3.10474 -4.71451 0
M  V30 3587 N 335.529 1.53961 0.336706 0
M  V30 3588 C 336.757 1.75483 1.09605 0
M  V30 3589 C 337.172 0.4972 1.82136 0
M  V30 3590 O 336.529 -0.53149 1.74589 0
M  V30 3591 C 336.58 2.93943 2.10428 0
M  V30 3592 O 336.301 4.14842 1.40846 0
M  V30 3593 C 337.802 3.27571 2.98684 0
M  V30 3594 H 335.022 0.586166 0.326574 0
M  V30 3595 H 337.566 2.00808 0.38683 0
M  V30 3596 H 335.721 2.70929 2.76905 0
M  V30 3597 H 336.135 4.81383 2.08255 0
M  V30 3598 H 337.609 4.13791 3.6535 0
M  V30 3599 H 338.086 2.44168 3.65074 0
M  V30 3600 H 338.692 3.52615 2.37787 0
M  V30 3601 N 337.007 -0.598083 1.45811 0
M  V30 3602 C 337.954 -1.7082 1.55207 0
M  V30 3603 C 338.924 -1.61278 0.39732 0
M  V30 3604 O 340.109 -1.80717 0.612038 0
M  V30 3605 C 337.249 -3.09144 1.53376 0
M  V30 3606 C 336.362 -3.29423 2.79472 0
M  V30 3607 C 335.497 -4.57907 2.69248 0
M  V30 3608 C 334.536 -4.71476 3.90354 0
M  V30 3609 N 333.673 -5.9127 3.78608 0
M  V30 3610 H 338.513 -1.62125 2.50039 0
M  V30 3611 H 336.05 -0.790389 1.24062 0
M  V30 3612 H 338.008 -3.89186 1.50301 0
M  V30 3613 H 336.638 -3.16773 0.620876 0
M  V30 3614 H 335.69 -2.43091 2.92594 0
M  V30 3615 H 337.002 -3.3532 3.69272 0
M  V30 3616 H 336.156 -5.46157 2.64192 0
M  V30 3617 H 334.895 -4.54423 1.77063 0
M  V30 3618 H 333.9 -3.81648 3.95759 0
M  V30 3619 H 335.125 -4.76751 4.83617 0
M  V30 3620 H 333.071 -5.88813 2.89199 0
M  V30 3621 H 332.988 -5.98369 4.6205 0
M  V30 3622 H 334.256 -6.81992 3.77501 0
M  V30 3623 N 338.485 -1.33259 -0.841409 0
M  V30 3624 C 339.71 -1.2775 -1.63385 0
M  V30 3625 C 340.135 0.149188 -1.87507 0
M  V30 3626 O 339.493 1.10498 -1.43736 0
M  V30 3627 C 339.541 -2.05571 -2.96265 0
M  V30 3628 O 338.645 -1.41257 -3.87453 0
M  V30 3629 H 337.986 -0.439627 -0.497618 0
M  V30 3630 H 340.516 -1.75782 -1.04699 0
M  V30 3631 H 340.526 -2.16241 -3.45982 0
M  V30 3632 H 339.201 -3.09309 -2.7803 0
M  V30 3633 H 337.778 -1.39217 -3.45938 0
M  V30 3634 N 339.963 1.05934 -1.16686 0
M  V30 3635 C 341.211 1.78447 -0.948744 0
M  V30 3636 C 341.532 1.87813 0.524523 0
M  V30 3637 O 340.802 1.38945 1.38098 0
M  V30 3638 H 339.382 0.660971 -0.348033 0
M  V30 3639 H 342.044 1.27947 -1.47022 0
M  V30 3640 H 341.14 2.80394 -1.37061 0
M  V30 3641 N 341.441 0.965919 1.2453 0
M  V30 3642 C 342.671 0.643451 1.96324 0
M  V30 3643 C 343.079 -0.790927 1.71875 0
M  V30 3644 O 342.422 -1.54208 0.998273 0
M  V30 3645 C 342.484 0.836078 3.49643 0
M  V30 3646 C 342.148 2.24975 3.97788 0
M  V30 3647 C 343.145 3.22735 4.07601 0
M  V30 3648 C 340.83 2.57697 4.31158 0
M  V30 3649 C 342.824 4.51303 4.50116 0
M  V30 3650 C 340.511 3.86492 4.73357 0
M  V30 3651 C 341.509 4.83107 4.828 0
M  V30 3652 O 341.197 6.09605 5.24058 0
M  V30 3653 H 340.929 0.239223 0.632257 0
M  V30 3654 H 343.483 1.29587 1.59362 0
M  V30 3655 H 341.713 0.12649 3.86493 0
M  V30 3656 H 343.402 0.512965 4.02646 0
M  V30 3657 H 344.168 2.98783 3.82039 0
M  V30 3658 H 340.047 1.83216 4.23028 0
M  V30 3659 H 343.591 5.26716 4.57401 0
M  V30 3660 H 339.488 4.10245 4.98366 0
M  V30 3661 H 340.256 6.13146 5.42213 0
M  V30 3662 N 342.919 -1.39368 0.735821 0
M  V30 3663 C 343.851 -2.2913 0.0567723 0
M  V30 3664 C 344.864 -1.46859 -0.702589 0
M  V30 3665 O 346.053 -1.69925 -0.546616 0
M  V30 3666 C 343.153 -3.25492 -0.943823 0
M  V30 3667 C 342.326 -4.36709 -0.24581 0
M  V30 3668 C 341.385 -5.13376 -1.15463 0
M  V30 3669 O 340.411 -5.65683 -0.631803 0
M  V30 3670 N 341.613 -5.24656 -2.48427 0
M  V30 3671 H 344.378 -2.88047 0.827582 0
M  V30 3672 H 341.939 -1.50957 0.585112 0
M  V30 3673 H 343.931 -3.73657 -1.55443 0
M  V30 3674 H 342.501 -2.676 -1.61583 0
M  V30 3675 H 341.721 -3.9041 0.545286 0
M  V30 3676 H 343.009 -5.08244 0.237891 0
M  V30 3677 H 342.407 -4.83679 -2.93379 0
M  V30 3678 H 340.964 -5.76258 -3.04582 0
M  V30 3679 N 344.397 -0.483516 -1.5 0
M  V30 3680 C 345.808 -0.0314176 -1.86674 0
M  V30 3681 C 346.159 1.37728 -1.39733 0
M  V30 3682 O 345.284 2.02327 -0.767635 0
M  V30 3683 C 345.879 -0.0502376 -3.38763 0
M  V30 3684 C 344.438 0.346442 -3.74802 0
M  V30 3685 C 343.585 -0.430366 -2.7394 0
M  V30 3686 H 346.536 -0.697182 -1.42566 0
M  V30 3687 H 346.557 0.749116 -3.73053 0
M  V30 3688 H 346.069 -1.07563 -3.72897 0
M  V30 3689 H 344.17 1.37572 -3.46273 0
M  V30 3690 H 344.283 0.0391486 -4.79084 0
M  V30 3691 H 342.647 0.117557 -2.54429 0
M  V30 3692 H 343.43 -1.4555 -3.10918 0
M  V30 3693 N 345.875 1.56104 -0.216619 0
M  V30 3694 C 347.286 1.844 0.292128 0
M  V30 3695 C 347.637 1.13788 1.59833 0
M  V30 3696 O 346.762 0.405888 2.12559 0
M  V30 3697 C 347.357 3.3452 0.53681 0
M  V30 3698 C 345.916 3.63151 0.989876 0
M  V30 3699 C 345.063 2.77255 0.0502302 0
M  V30 3700 H 348.014 1.52481 -0.439926 0
M  V30 3701 H 348.035 3.54459 1.38345 0
M  V30 3702 H 347.547 3.85885 -0.414031 0
M  V30 3703 H 345.648 3.17238 1.95425 0
M  V30 3704 H 345.761 4.71177 0.867698 0
M  V30 3705 H 344.125 2.48555 0.556117 0
M  V30 3706 H 344.908 3.31416 -0.89544 0
M  V30 3707 N 347.353 -0.0568162 1.57498 0
M  V30 3708 C 348.769 -0.411933 1.54192 0
M  V30 3709 C 348.969 -1.78287 0.938942 0
M  V30 3710 O 348.025 -2.46483 0.547919 0
M  V30 3711 C 349.338 -0.339244 2.9878 0
M  V30 3712 C 350.886 -0.418348 3.10192 0
M  V30 3713 C 351.361 -0.375407 4.56459 0
M  V30 3714 N 352.852 -0.435038 4.61153 0
M  V30 3715 C 353.587 -0.424265 5.71828 0
M  V30 3716 N 353.083 -0.367418 6.91825 0
M  V30 3717 N 354.876 -0.471938 5.60115 0
M  V30 3718 H 347.027 0.840684 1.95055 0
M  V30 3719 H 349.29 0.316987 0.893433 0
M  V30 3720 H 348.996 0.601742 3.46514 0
M  V30 3721 H 348.87 -1.14371 3.59443 0
M  V30 3722 H 351.257 -1.34976 2.62422 0
M  V30 3723 H 351.338 0.414962 2.52412 0
M  V30 3724 H 350.982 0.552219 5.04889 0
M  V30 3725 H 350.912 -1.22645 5.12119 0
M  V30 3726 H 353.403 -0.482612 3.74806 0
M  V30 3727 H 353.716 -0.363535 7.71944 0
M  V30 3728 H 352.061 -0.333879 6.94198 0
M  V30 3729 H 355.252 -0.514145 4.65268 0
M  V30 3730 H 355.425 -0.460073 6.46365 0
M  V30 3731 N 348.832 -1.54138 -0.328536 0
M  V30 3732 C 349.762 -1.86167 -1.40939 0
M  V30 3733 C 350.743 -0.718044 -1.54202 0
M  V30 3734 O 351.928 -0.971328 -1.68163 0
M  V30 3735 C 349.058 -2.08461 -2.77779 0
M  V30 3736 C 348.012 -3.24299 -2.7931 0
M  V30 3737 C 347.338 -3.31955 -4.19178 0
M  V30 3738 C 348.638 -4.62065 -2.43502 0
M  V30 3739 H 350.332 -2.76689 -1.14383 0
M  V30 3740 H 347.878 -1.33132 -0.548806 0
M  V30 3741 H 349.831 -2.29453 -3.53454 0
M  V30 3742 H 348.555 -1.14684 -3.05802 0
M  V30 3743 H 347.214 -3.03187 -2.0609 0
M  V30 3744 H 346.862 -2.35745 -4.44335 0
M  V30 3745 H 346.562 -4.09805 -4.2111 0
M  V30 3746 H 348.086 -3.55175 -4.96672 0
M  V30 3747 H 349.5 -4.8297 -3.08889 0
M  V30 3748 H 347.897 -5.42429 -2.56693 0
M  V30 3749 H 348.967 -4.64652 -1.38659 0
M  V30 3750 N 350.31 0.590341 -1.46126 0
M  V30 3751 C 351.257 1.69994 -1.56111 0
M  V30 3752 C 352.227 1.61065 -0.405867 0
M  V30 3753 O 353.412 1.8039 -0.621613 0
M  V30 3754 C 350.552 3.08326 -1.55013 0
M  V30 3755 C 349.665 3.27936 -2.81215 0
M  V30 3756 C 348.8 4.56473 -2.71673 0
M  V30 3757 C 347.839 4.694 -3.92849 0
M  V30 3758 N 346.976 5.89254 -3.81738 0
M  V30 3759 H 351.816 1.60797 -2.50895 0
M  V30 3760 H 349.353 0.783799 -1.24479 0
M  V30 3761 H 351.311 3.88383 -1.52362 0
M  V30 3762 H 349.941 3.16439 -0.637667 0
M  V30 3763 H 348.993 2.41536 -2.93879 0
M  V30 3764 H 350.305 3.33357 -3.71045 0
M  V30 3765 H 349.459 5.44748 -2.67085 0
M  V30 3766 H 348.198 4.53477 -1.7947 0
M  V30 3767 H 347.203 3.79544 -3.97777 0
M  V30 3768 H 348.428 4.7418 -4.86138 0
M  V30 3769 H 346.374 5.87271 -2.92317 0
M  V30 3770 H 346.291 5.95911 -4.65217 0
M  V30 3771 H 347.559 6.79981 -3.81112 0
M  V30 3772 N 351.788 1.33704 0.83433 0
M  V30 3773 C 352.698 1.26382 1.97648 0
M  V30 3774 C 353.714 0.173548 1.73132 0
M  V30 3775 O 354.89 0.397962 1.97429 0
M  V30 3776 C 351.955 1.00769 3.31733 0
M  V30 3777 C 351.016 2.1884 3.69334 0
M  V30 3778 C 350.249 1.9444 4.9702 0
M  V30 3779 O 350.472 0.896961 5.63303 0
M  V30 3780 O 349.406 2.81093 5.32231 0
M  V30 3781 H 353.232 2.22444 2.06767 0
M  V30 3782 H 350.817 1.13795 0.968037 0
M  V30 3783 H 352.699 0.882186 4.12062 0
M  V30 3784 H 351.374 0.0773783 3.23608 0
M  V30 3785 H 350.281 2.36946 2.89495 0
M  V30 3786 H 351.614 3.10221 3.82131 0
M  V30 3787 N 353.266 -1.05314 1.17247 0
M  V30 3788 C 354.213 -2.13031 0.888058 0
M  V30 3789 C 355.183 -1.65253 -0.167537 0
M  V30 3790 O 356.368 -1.90775 -0.0305974 0
M  V30 3791 C 353.508 -3.42702 0.406147 0
M  V30 3792 C 352.621 -4.04161 1.52572 0
M  V30 3793 C 351.756 -5.21744 0.997808 0
M  V30 3794 C 350.795 -5.75207 2.09291 0
M  V30 3795 N 349.932 -6.84094 1.57986 0
M  V30 3796 H 354.772 -2.36698 1.81048 0
M  V30 3797 H 352.309 -1.16121 0.903013 0
M  V30 3798 H 354.267 -4.17059 0.108305 0
M  V30 3799 H 352.897 -3.19222 -0.479313 0
M  V30 3800 H 351.949 -3.27253 1.93931 0
M  V30 3801 H 353.261 -4.39881 2.35172 0
M  V30 3802 H 352.415 -6.03168 0.653739 0
M  V30 3803 H 351.154 -4.87495 0.141232 0
M  V30 3804 H 350.159 -4.92414 2.44557 0
M  V30 3805 H 351.384 -6.11505 2.95362 0
M  V30 3806 H 349.33 -6.51745 0.74598 0
M  V30 3807 H 349.247 -7.18811 2.34195 0
M  V30 3808 H 350.515 -7.69172 1.26468 0
M  V30 3809 N 354.744 -0.972509 -1.24016 0
M  V30 3810 C 355.992 -0.635776 -1.91839 0
M  V30 3811 C 356.313 0.832312 -1.76345 0
M  V30 3812 O 355.583 1.5946 -1.13795 0
M  V30 3813 H 354.163 -0.232157 -0.710009 0
M  V30 3814 H 356.825 -1.23462 -1.50809 0
M  V30 3815 H 355.921 -0.880545 -2.99421 0
M  V30 3816 N 356.222 1.38976 -0.743202 0
M  V30 3817 C 357.169 2.30544 -0.10861 0
M  V30 3818 C 358.139 1.49642 0.720869 0
M  V30 3819 O 359.324 1.78304 0.679142 0
M  V30 3820 C 356.464 3.36018 0.786496 0
M  V30 3821 C 355.577 4.31963 -0.0564849 0
M  V30 3822 C 354.712 5.24506 0.840657 0
M  V30 3823 C 353.751 6.121 -0.00658363 0
M  V30 3824 N 352.888 6.96973 0.846943 0
M  V30 3825 H 357.728 2.8424 -0.895088 0
M  V30 3826 H 355.265 1.3995 -0.453048 0
M  V30 3827 H 357.223 3.95768 1.31999 0
M  V30 3828 H 355.853 2.83758 1.53887 0
M  V30 3829 H 354.905 3.73763 -0.707492 0
M  V30 3830 H 356.217 4.93703 -0.711229 0
M  V30 3831 H 355.371 5.89322 1.4417 0
M  V30 3832 H 354.11 4.63107 1.52916 0
M  V30 3833 H 353.115 5.46289 -0.620366 0
M  V30 3834 H 354.34 6.75565 -0.691992 0
M  V30 3835 H 352.286 6.38133 1.52059 0
M  V30 3836 H 352.203 7.5559 0.248864 0
M  V30 3837 H 353.471 7.6621 1.43328 0
M  V30 3838 N 357.7 0.491464 1.49741 0
M  V30 3839 C 358.946 -0.0485431 2.03342 0
M  V30 3840 C 359.301 -1.35566 1.36527 0
M  V30 3841 O 358.594 -1.85262 0.488729 0
M  V30 3842 C 358.788 -0.267329 3.56399 0
M  V30 3843 C 358.617 1.01703 4.38049 0
M  V30 3844 C 357.387 1.56614 4.80417 0
M  V30 3845 C 359.585 1.91782 4.77204 0
M  V30 3846 N 357.567 2.7974 5.4646 0
M  V30 3847 C 358.938 2.99489 5.42868 0
M  V30 3848 C 360.993 1.92575 4.5915 0
M  V30 3849 C 359.696 4.08005 5.92389 0
M  V30 3850 C 361.722 3.0006 5.09626 0
M  V30 3851 C 361.084 4.06485 5.75282 0
M  V30 3852 H 357.183 0.0227779 0.781668 0
M  V30 3853 H 359.767 0.664204 1.8302 0
M  V30 3854 H 357.938 -0.949126 3.76625 0
M  V30 3855 H 359.67 -0.803492 3.96644 0
M  V30 3856 H 356.425 1.11256 4.60347 0
M  V30 3857 H 356.849 3.42323 5.84075 0
M  V30 3858 H 361.491 1.11605 4.07804 0
M  V30 3859 H 359.209 4.89779 6.42761 0
M  V30 3860 H 362.795 3.01681 4.97473 0
M  V30 3861 H 361.675 4.88287 6.13633 0
M  V30 3862 N 359.178 -1.55987 0.224894 0
M  V30 3863 C 360.403 -2.03232 -0.41369 0
M  V30 3864 C 360.828 -1.10359 -1.52323 0
M  V30 3865 O 360.186 -0.092395 -1.81064 0
M  V30 3866 C 360.234 -3.48682 -0.919405 0
M  V30 3867 O 359.338 -3.58947 -2.03054 0
M  V30 3868 H 358.679 -0.657428 -0.0931903 0
M  V30 3869 H 361.209 -2.01679 0.34451 0
M  V30 3870 H 361.219 -3.8907 -1.22835 0
M  V30 3871 H 359.894 -4.15761 -0.107339 0
M  V30 3872 H 358.471 -3.30448 -1.72796 0
M  V30 3873 N 360.656 0.0484629 -1.57525 0
M  V30 3874 C 361.619 1.03956 -2.04269 0
M  V30 3875 C 362.619 1.30211 -0.943496 0
M  V30 3876 O 363.809 1.25539 -1.20771 0
M  V30 3877 C 360.941 2.37742 -2.44319 0
M  V30 3878 H 362.134 0.636182 -2.93075 0
M  V30 3879 H 359.687 0.294811 -1.53494 0
M  V30 3880 H 360.422 2.82866 -1.5861 0
M  V30 3881 H 360.207 2.20021 -3.24551 0
M  V30 3882 H 361.697 3.08936 -2.80978 0
M  V30 3883 N 362.134 1.5431 0.320358 0
M  V30 3884 C 363.097 1.83195 1.3774 0
M  V30 3885 C 364.097 0.703906 1.44575 0
M  V30 3886 O 365.287 0.972214 1.44546 0
M  V30 3887 C 362.419 1.99487 2.76438 0
M  V30 3888 H 363.612 2.77642 1.1338 0
M  V30 3889 H 361.165 1.46076 0.556012 0
M  V30 3890 H 361.9 1.07262 3.06048 0
M  V30 3891 H 361.685 2.81575 2.7287 0
M  V30 3892 H 363.175 2.23271 3.52902 0
M  V30 3893 N 363.613 -0.582584 1.46437 0
M  V30 3894 C 364.86 -1.34079 1.51753 0
M  V30 3895 C 365.188 -1.93762 0.169299 0
M  V30 3896 O 364.443 -1.76989 -0.835062 0
M  V30 3897 C 364.742 -2.48964 2.56421 0
M  V30 3898 C 364.408 -2.07273 4.00436 0
M  V30 3899 C 363.07 -1.95618 4.39644 0
M  V30 3900 C 365.422 -1.75111 4.90903 0
M  V30 3901 C 362.75 -1.5006 5.67185 0
M  V30 3902 C 365.102 -1.31032 6.18881 0
M  V30 3903 C 363.766 -1.17954 6.56996 0
M  V30 3904 H 363.036 -0.49063 0.555304 0
M  V30 3905 H 365.683 -0.656007 1.79913 0
M  V30 3906 H 363.988 -3.22889 2.21923 0
M  V30 3907 H 365.685 -3.07178 2.57765 0
M  V30 3908 H 362.275 -2.17279 3.69443 0
M  V30 3909 H 366.459 -1.83001 4.61329 0
M  V30 3910 H 361.715 -1.38577 5.95488 0
M  V30 3911 H 365.889 -1.052 6.88408 0
M  V30 3912 H 363.516 -0.824279 7.55718 0
M  V30 3913 N 365.091 -1.34144 -0.827227 0
M  V30 3914 C 366.041 -1.21923 -1.92663 0
M  V30 3915 C 367.025 -0.119294 -1.60457 0
M  V30 3916 O 368.217 -0.348539 -1.73534 0
M  V30 3917 C 365.346 -0.972492 -3.29238 0
M  V30 3918 C 364.432 -2.1154 -3.67576 0
M  V30 3919 N 364.823 -3.36627 -3.77512 0
M  V30 3920 C 363.121 -2.02468 -3.97395 0
M  V30 3921 C 363.822 -4.11658 -4.1099 0
M  V30 3922 N 362.798 -3.40207 -4.23981 0
M  V30 3923 H 366.6 -2.16721 -1.98517 0
M  V30 3924 H 364.114 -1.2632 -1.02064 0
M  V30 3925 H 366.111 -0.865847 -4.0781 0
M  V30 3926 H 364.771 -0.0331509 -3.24683 0
M  V30 3927 H 365.782 -3.71234 -3.61118 0
M  V30 3928 H 362.459 -1.16265 -4.00985 0
M  V30 3929 H 363.849 -5.19657 -4.25918 0
M  V30 3930 N 366.569 1.04691 -1.17803 0
M  V30 3931 C 367.517 2.14665 -0.895635 0
M  V30 3932 C 368.511 1.68806 0.141679 0
M  V30 3933 O 369.717 1.79999 -0.00587914 0
M  V30 3934 H 366.092 0.701038 -0.272121 0
M  V30 3935 H 368.063 2.35685 -1.83017 0
M  V30 3936 C 366.812 3.45019 -0.430962 0
M  V30 3937 H 366.135 3.8071 -1.22064 0
M  V30 3938 H 367.575 4.23125 -0.272301 0
M  V30 3939 C 366.034 3.25943 0.852207 0
M  V30 3940 O 366.564 3.5296 1.91786 0
M  V30 3941 N 364.77 2.79304 0.802346 0
M  V30 3942 H 364.317 2.57518 -0.0650788 0
M  V30 3943 H 364.275 2.66921 1.66134 0
M  V30 3944 N 368.047 0.979072 1.23499 0
M  V30 3945 C 369.294 0.647219 1.91878 0
M  V30 3946 C 369.622 -0.819074 1.76413 0
M  V30 3947 O 368.877 -1.60616 1.11808 0
M  V30 3948 C 369.176 0.981932 3.43646 0
M  V30 3949 C 368.842 2.43822 3.79291 0
M  V30 3950 C 367.504 2.83622 3.88731 0
M  V30 3951 C 369.856 3.3828 3.96505 0
M  V30 3952 C 367.184 4.16897 4.12812 0
M  V30 3953 C 369.536 4.71197 4.22085 0
M  V30 3954 C 368.2 5.10758 4.29747 0
M  V30 3955 H 367.47 0.236834 0.702133 0
M  V30 3956 H 370.117 1.23268 1.46551 0
M  V30 3957 H 368.422 0.314365 3.90537 0
M  V30 3958 H 370.119 0.703395 3.94783 0
M  V30 3959 H 366.709 2.11966 3.72516 0
M  V30 3960 H 370.893 3.0871 3.88603 0
M  V30 3961 H 366.149 4.47157 4.16966 0
M  V30 3962 H 370.323 5.44348 4.34348 0
M  V30 3963 H 367.95 6.1405 4.48159 0
M  V30 3964 N 369.525 -1.3858 0.750561 0
M  V30 3965 C 370.774 -1.99424 0.302172 0
M  V30 3966 C 371.087 -1.60254 -1.12152 0
M  V30 3967 O 372.293 -2.14046 -1.67023 0
M  V30 3968 C 370.749 -3.56558 0.489307 0
M  V30 3969 C 370.357 -4.04682 1.92189 0
M  V30 3970 C 372.101 -4.24374 0.103478 0
M  V30 3971 C 370.008 -5.54446 2.05775 0
M  V30 3972 H 368.938 -0.746046 0.10923 0
M  V30 3973 H 371.589 -1.58383 0.92667 0
M  V30 3974 H 369.971 -3.95472 -0.204329 0
M  V30 3975 H 371.145 -3.77065 2.64875 0
M  V30 3976 H 369.46 -3.4958 2.26236 0
M  V30 3977 H 372.057 -5.34384 0.183787 0
M  V30 3978 H 372.4 -4.05468 -0.943481 0
M  V30 3979 H 372.933 -3.90688 0.748854 0
M  V30 3980 H 369.672 -5.78252 3.08714 0
M  V30 3981 H 369.192 -5.83816 1.37546 0
M  V30 3982 H 370.871 -6.20099 1.84626 0
M  V30 3983 N 371.003 -0.499398 -1.49478 0
M  V30 3984 C 371.95 0.279881 -2.29097 0
M  V30 3985 C 372.92 0.961805 -1.3542 0
M  V30 3986 O 374.105 0.968777 -1.64376 0
M  V30 3987 C 371.245 1.33932 -3.18051 0
M  V30 3988 C 370.358 0.669333 -4.26783 0
M  V30 3989 C 369.493 1.70907 -5.02955 0
M  V30 3990 C 368.532 1.02087 -6.03527 0
M  V30 3991 N 367.669 2.00474 -6.7287 0
M  V30 3992 H 372.509 -0.405317 -2.95231 0
M  V30 3993 H 370.046 -0.211726 -1.45568 0
M  V30 3994 H 372.004 1.96553 -3.67998 0
M  V30 3995 H 370.634 1.9933 -2.53904 0
M  V30 3996 H 369.686 -0.0701234 -3.80335 0
M  V30 3997 H 370.998 0.127503 -4.98637 0
M  V30 3998 H 370.152 2.41037 -5.56764 0
M  V30 3999 H 368.891 2.28476 -4.30871 0
M  V30 4000 H 367.896 0.305338 -5.48951 0
M  V30 4001 H 369.121 0.451708 -6.77596 0
M  V30 4002 H 367.067 2.57007 -6.03559 0
M  V30 4003 H 366.984 1.51353 -7.40694 0
M  V30 4004 H 368.252 2.69897 -7.31284 0
M  V30 4005 N 372.481 1.55866 -0.233164 0
M  V30 4006 C 373.727 1.98897 0.395959 0
M  V30 4007 C 374.06 1.12091 1.58585 0
M  V30 4008 O 373.335 0.181182 1.93654 0
M  V30 4009 C 373.618 3.50658 0.819224 0
M  V30 4010 C 373.471 4.48233 -0.375109 0
M  V30 4011 C 374.79 4.07135 1.67121 0
M  V30 4012 H 371.909 0.723102 0.142451 0
M  V30 4013 H 374.551 1.87082 -0.331725 0
M  V30 4014 H 372.701 3.60857 1.43925 0
M  V30 4015 H 374.373 4.50031 -1.01341 0
M  V30 4016 H 372.616 4.21624 -1.02058 0
M  V30 4017 H 373.287 5.51988 -0.0358328 0
M  V30 4018 H 375.763 3.99952 1.14795 0
M  V30 4019 H 374.639 5.13615 1.93625 0
M  V30 4020 H 374.9 3.54736 2.63846 0
M  V30 4021 N 373.959 -0.0401083 1.57549 0
M  V30 4022 C 375.187 -0.745196 1.93014 0
M  V30 4023 C 375.602 -1.6948 0.831984 0
M  V30 4024 O 374.959 -1.81482 -0.192463 0
M  V30 4025 C 375.01 -1.51176 3.28372 0
M  V30 4026 O 374.731 -0.600284 4.33968 0
M  V30 4027 C 376.232 -2.315 3.78051 0
M  V30 4028 H 373.452 -0.210088 0.637263 0
M  V30 4029 H 375.996 -0.000924689 2.045 0
M  V30 4030 H 374.151 -2.20801 3.18317 0
M  V30 4031 H 374.565 -1.13669 5.12035 0
M  V30 4032 H 376.039 -2.80697 4.75303 0
M  V30 4033 H 376.516 -3.12436 3.08675 0
M  V30 4034 H 377.122 -1.66971 3.91153 0
M  V30 4035 N 375.437 -1.54477 -0.31217 0
M  V30 4036 C 376.367 -1.87652 -1.38957 0
M  V30 4037 C 377.348 -0.734358 -1.53431 0
M  V30 4038 O 378.533 -0.98911 -1.67123 0
M  V30 4039 C 375.663 -2.11396 -2.75552 0
M  V30 4040 C 374.617 -3.27243 -2.75855 0
M  V30 4041 C 373.943 -3.36382 -4.15633 0
M  V30 4042 C 375.243 -4.64622 -2.38587 0
M  V30 4043 H 376.937 -2.77887 -1.11442 0
M  V30 4044 H 374.483 -1.33707 -0.534655 0
M  V30 4045 H 376.436 -2.33189 -3.51 0
M  V30 4046 H 375.16 -1.17921 -3.04569 0
M  V30 4047 H 373.819 -3.05356 -2.02863 0
M  V30 4048 H 373.467 -2.40445 -4.41809 0
M  V30 4049 H 373.167 -4.14249 -4.1674 0
M  V30 4050 H 374.691 -3.60422 -4.92877 0
M  V30 4051 H 376.105 -4.86219 -3.03749 0
M  V30 4052 H 374.502 -5.45121 -2.50925 0
M  V30 4053 H 375.572 -4.66097 -1.33723 0
M  V30 4054 N 376.915 0.57481 -1.46744 0
M  V30 4055 C 378.143 1.35856 -1.56047 0
M  V30 4056 C 378.558 1.87691 -0.204365 0
M  V30 4057 O 377.915 1.64049 0.79963 0
M  V30 4058 C 377.966 2.54066 -2.57163 0
M  V30 4059 O 377.687 2.04377 -3.87507 0
M  V30 4060 C 379.188 3.46514 -2.76483 0
M  V30 4061 H 376.408 0.414754 -0.527466 0
M  V30 4062 H 378.952 0.698035 -1.92218 0
M  V30 4063 H 377.107 3.16092 -2.23974 0
M  V30 4064 H 377.521 2.81419 -4.4261 0
M  V30 4065 H 378.995 4.25919 -3.51137 0
M  V30 4066 H 379.472 3.98951 -1.83671 0
M  V30 4067 H 380.078 2.90318 -3.10799 0
M  V30 4068 N 378.394 1.34581 0.820102 0
M  V30 4069 C 379.341 1.2639 1.93117 0
M  V30 4070 C 380.311 0.138554 1.65521 0
M  V30 4071 O 381.496 0.320004 1.88097 0
M  V30 4072 C 378.636 1.02812 3.29429 0
M  V30 4073 C 377.749 2.24146 3.693 0
M  V30 4074 C 376.884 1.93829 4.94574 0
M  V30 4075 C 375.923 3.1129 5.27034 0
M  V30 4076 N 375.06 2.80838 6.43486 0
M  V30 4077 H 379.9 2.21408 1.99455 0
M  V30 4078 H 377.437 1.10077 0.975784 0
M  V30 4079 H 379.395 0.871788 4.0799 0
M  V30 4080 H 378.025 0.114612 3.22596 0
M  V30 4081 H 377.077 2.50691 2.86109 0
M  V30 4082 H 378.389 3.11899 3.89257 0
M  V30 4083 H 377.543 1.74948 5.80929 0
M  V30 4084 H 376.282 1.03341 4.76626 0
M  V30 4085 H 375.287 3.30764 4.39175 0
M  V30 4086 H 376.512 4.02561 5.4692 0
M  V30 4087 H 374.458 1.92929 6.26988 0
M  V30 4088 H 374.375 3.62123 6.63629 0
M  V30 4089 H 375.643 2.65467 7.32903 0
M  V30 4090 N 379.872 -1.04064 1.18357 0
M  V30 4091 C 381.097 -1.81454 1.00445 0
M  V30 4092 C 381.522 -1.82823 -0.442423 0
M  V30 4093 O 380.88 -1.24555 -1.31741 0
M  V30 4094 C 380.928 -3.24925 1.56384 0
M  V30 4095 O 380.032 -4.04856 0.785209 0
M  V30 4096 H 379.373 -0.560604 0.355835 0
M  V30 4097 H 381.903 -1.31059 1.57114 0
M  V30 4098 H 381.913 -3.75702 1.59097 0
M  V30 4099 H 380.588 -3.23244 2.61699 0
M  V30 4100 H 379.165 -3.63537 0.830399 0
M  V30 4101 N 381.35 -0.985608 -1.22978 0
M  V30 4102 C 382.761 -0.693593 -1.73338 0
M  V30 4103 C 383.112 0.789935 -1.79595 0
M  V30 4104 O 382.237 1.61771 -1.43733 0
M  V30 4105 C 382.832 -1.25235 -3.14804 0
M  V30 4106 C 381.391 -1.00987 -3.626 0
M  V30 4107 C 380.538 -1.37695 -2.40698 0
M  V30 4108 H 383.489 -1.15884 -1.08428 0
M  V30 4109 H 383.51 -0.627329 -3.75293 0
M  V30 4110 H 383.022 -2.33209 -3.10218 0
M  V30 4111 H 381.123 0.0535565 -3.72562 0
M  V30 4112 H 381.236 -1.66812 -4.49122 0
M  V30 4113 H 379.6 -0.795459 -2.4196 0
M  V30 4114 H 380.383 -2.46657 -2.38779 0
M  V30 4115 N 382.828 1.3818 -0.7579 0
M  V30 4116 C 383.775 2.30416 -0.133057 0
M  V30 4117 C 384.745 1.50398 0.704957 0
M  V30 4118 O 385.93 1.79014 0.660192 0
M  V30 4119 C 383.07 3.36834 0.750813 0
M  V30 4120 C 382.183 4.31879 -0.102297 0
M  V30 4121 C 381.318 5.25368 0.784979 0
M  V30 4122 C 380.357 6.12058 -0.0715046 0
M  V30 4123 N 379.494 6.97832 0.772972 0
M  V30 4124 H 384.334 2.83274 -0.925186 0
M  V30 4125 H 381.871 1.39461 -0.467866 0
M  V30 4126 H 383.829 3.97145 1.27794 0
M  V30 4127 H 382.459 2.85374 1.50868 0
M  V30 4128 H 381.511 3.72991 -0.747095 0
M  V30 4129 H 382.823 4.92921 -0.763552 0
M  V30 4130 H 381.977 5.90818 1.37911 0
M  V30 4131 H 380.716 4.64703 1.47996 0
M  V30 4132 H 379.721 5.456 -0.678272 0
M  V30 4133 H 380.946 6.74793 -0.763606 0
M  V30 4134 H 378.892 6.3971 1.45282 0
M  V30 4135 H 378.809 7.55812 0.168709 0
M  V30 4136 H 380.077 7.67687 1.35194 0
M  V30 4137 N 384.306 0.507319 1.49211 0
M  V30 4138 C 385.253 -0.267728 2.29242 0
M  V30 4139 C 386.223 -0.954609 1.35928 0
M  V30 4140 O 387.408 -0.960046 1.64887 0
M  V30 4141 C 384.548 -1.32243 3.18756 0
M  V30 4142 C 383.661 -0.64669 4.27132 0
M  V30 4143 C 382.796 -1.68238 5.03855 0
M  V30 4144 C 381.835 -0.98885 6.0406 0
M  V30 4145 N 380.972 -1.96903 6.73924 0
M  V30 4146 H 385.812 0.420968 2.95012 0
M  V30 4147 H 383.349 0.219443 1.45454 0
M  V30 4148 H 385.307 -1.94599 3.69036 0
M  V30 4149 H 383.937 -1.97981 2.54958 0
M  V30 4150 H 382.989 0.0902926 3.80293 0
M  V30 4151 H 384.301 -0.101058 4.98698 0
M  V30 4152 H 383.455 -2.38081 5.58034 0
M  V30 4153 H 382.194 -2.26187 4.32077 0
M  V30 4154 H 381.199 -0.276222 5.49106 0
M  V30 4155 H 382.424 -0.415767 6.77826 0
M  V30 4156 H 380.37 -2.53803 6.04913 0
M  V30 4157 H 380.287 -1.47423 7.41487 0
M  V30 4158 H 381.555 -2.66015 7.32705 0
M  V30 4159 N 385.784 -1.5574 0.241426 0
M  V30 4160 C 387.2 -1.59196 -0.113548 0
M  V30 4161 C 387.4 -1.25852 -1.57364 0
M  V30 4162 O 386.456 -1.00322 -2.31715 0
M  V30 4163 C 387.769 -2.99814 0.230695 0
M  V30 4164 C 389.317 -3.12513 0.174547 0
M  V30 4165 C 389.792 -4.55342 0.492744 0
M  V30 4166 N 391.283 -4.61076 0.443043 0
M  V30 4167 C 392.018 -5.6956 0.662484 0
M  V30 4168 N 391.514 -6.86328 0.944761 0
M  V30 4169 N 393.307 -5.58957 0.593564 0
M  V30 4170 H 385.458 -1.75685 1.19368 0
M  V30 4171 H 387.721 -0.81756 0.479896 0
M  V30 4172 H 387.427 -3.28932 1.24485 0
M  V30 4173 H 387.301 -3.74568 -0.444833 0
M  V30 4174 H 389.688 -2.83179 -0.830277 0
M  V30 4175 H 389.769 -2.40045 0.883845 0
M  V30 4176 H 389.413 -4.85396 1.4951 0
M  V30 4177 H 389.343 -5.26062 -0.23797 0
M  V30 4178 H 391.834 -3.77179 0.233374 0
M  V30 4179 H 392.147 -7.64935 1.09977 0
M  V30 4180 H 390.492 -6.88025 0.982175 0
M  V30 4181 H 393.683 -4.66611 0.373123 0
M  V30 4182 H 393.856 -6.43433 0.767981 0
M  V30 4183 N 387.262 0.0317525 -1.57568 0
M  V30 4184 C 388.673 0.578692 -1.77505 0
M  V30 4185 C 389.024 1.75749 -0.872164 0
M  V30 4186 O 388.149 2.16298 -0.0663106 0
M  V30 4187 C 388.744 1.05658 -3.21904 0
M  V30 4188 C 387.303 1.54906 -3.43047 0
M  V30 4189 C 386.45 0.485939 -2.73009 0
M  V30 4190 H 389.401 -0.194475 -1.57504 0
M  V30 4191 H 389.422 1.92404 -3.28269 0
M  V30 4192 H 388.934 0.198422 -3.87592 0
M  V30 4193 H 387.035 2.42915 -2.82529 0
M  V30 4194 H 387.148 1.59841 -4.5165 0
M  V30 4195 H 385.512 0.940354 -2.36705 0
M  V30 4196 H 386.295 -0.362709 -3.41379 0
M  V30 4197 N 388.74 1.54641 0.303973 0
M  V30 4198 C 389.965 1.78092 1.06292 0
M  V30 4199 C 390.39 0.537342 1.80262 0
M  V30 4200 O 389.748 -0.511993 1.7392 0
M  V30 4201 C 389.796 2.98612 2.02147 0
M  V30 4202 O 388.9 2.71528 3.10397 0
M  V30 4203 H 388.241 0.589548 0.305497 0
M  V30 4204 H 390.771 2.01716 0.3423 0
M  V30 4205 H 390.781 3.265 2.44667 0
M  V30 4206 H 389.456 3.88785 1.47714 0
M  V30 4207 H 388.033 2.54648 2.72413 0
M  V30 4208 N 390.218 -0.567019 1.47046 0
M  V30 4209 C 391.181 -1.65696 1.58359 0
M  V30 4210 C 392.181 -1.54097 0.459441 0
M  V30 4211 O 393.371 -1.58432 0.724225 0
M  V30 4212 C 390.503 -3.05197 1.51879 0
M  V30 4213 H 391.696 -1.57019 2.5551 0
M  V30 4214 H 389.249 -0.786148 1.3509 0
M  V30 4215 H 389.984 -3.19417 0.560673 0
M  V30 4216 H 389.769 -3.15025 2.33455 0
M  V30 4217 H 391.259 -3.84511 1.62913 0
M  V30 4218 N 391.696 -1.35014 -0.812953 0
M  V30 4219 C 392.924 -1.31031 -1.6012 0
M  V30 4220 C 393.339 0.113558 -1.88458 0
M  V30 4221 O 392.696 1.06363 -1.48301 0
M  V30 4222 C 392.747 -2.10872 -2.93624 0
M  V30 4223 O 392.468 -3.47706 -2.66518 0
M  V30 4224 C 393.969 -2.14401 -3.88004 0
M  V30 4225 H 391.189 -0.45037 -0.497401 0
M  V30 4226 H 393.733 -1.77775 -1.01076 0
M  V30 4227 H 391.888 -1.67744 -3.492 0
M  V30 4228 H 392.302 -3.89097 -3.51715 0
M  V30 4229 H 393.776 -2.74669 -4.78812 0
M  V30 4230 H 394.253 -1.14105 -4.24119 0
M  V30 4231 H 394.859 -2.57662 -3.38364 0
M  V30 4232 N 393.175 1.03435 -1.18907 0
M  V30 4233 C 394.122 2.11591 -0.921837 0
M  V30 4234 C 395.092 1.65499 0.141226 0
M  V30 4235 O 396.277 1.908 0.000242829 0
M  V30 4236 C 393.417 3.42012 -0.460616 0
M  V30 4237 C 392.53 4.01682 -1.58982 0
M  V30 4238 C 391.665 5.20091 -1.08069 0
M  V30 4239 C 390.704 5.71805 -2.18416 0
M  V30 4240 N 389.841 6.81494 -1.68849 0
M  V30 4241 H 394.681 2.33787 -1.8479 0
M  V30 4242 H 392.218 1.1467 -0.921373 0
M  V30 4243 H 394.176 4.16834 -0.174642 0
M  V30 4244 H 392.806 3.19944 0.428467 0
M  V30 4245 H 391.858 3.24127 -1.99113 0
M  V30 4246 H 393.17 4.36084 -2.4214 0
M  V30 4247 H 392.324 6.02051 -0.749615 0
M  V30 4248 H 391.063 4.87209 -0.218771 0
M  V30 4249 H 390.068 4.88461 -2.5236 0
M  V30 4250 H 391.293 6.06728 -3.05054 0
M  V30 4251 H 389.239 6.50475 -0.849572 0
M  V30 4252 H 389.156 7.14994 -2.45601 0
M  V30 4253 H 390.424 7.67063 -1.38689 0
M  V30 4254 N 394.653 0.992116 1.22453 0
M  V30 4255 C 395.586 0.486701 2.22949 0
M  V30 4256 C 396.564 -0.45259 1.56174 0
M  V30 4257 O 397.748 -0.378317 1.84665 0
M  V30 4258 C 394.875 -0.294537 3.37417 0
M  V30 4259 C 393.921 0.590628 4.22391 0
M  V30 4260 S 394.754 2.04546 4.94895 0
M  V30 4261 C 395.91 1.27369 6.12803 0
M  V30 4262 H 396.143 1.33828 2.65475 0
M  V30 4263 H 393.676 0.799023 1.32117 0
M  V30 4264 H 395.634 -0.739241 4.03789 0
M  V30 4265 H 394.295 -1.12139 2.934 0
M  V30 4266 H 393.488 -0.0104375 5.03999 0
M  V30 4267 H 393.09 0.972064 3.61147 0
M  V30 4268 H 395.382 0.540943 6.75337 0
M  V30 4269 H 396.325 2.06502 6.7732 0
M  V30 4270 H 396.733 0.787324 5.58983 0
M  V30 4271 N 396.131 -1.37776 0.765217 0
M  V30 4272 C 397.061 -2.32945 0.160953 0
M  V30 4273 C 398.042 -1.55454 -0.690516 0
M  V30 4274 O 399.227 -1.83721 -0.629318 0
M  V30 4275 C 396.357 -3.39669 -0.724031 0
M  V30 4276 C 395.311 -4.27992 0.0256173 0
M  V30 4277 C 394.637 -5.25673 -0.978383 0
M  V30 4278 C 395.937 -5.08309 1.20082 0
M  V30 4279 H 397.631 -2.83728 0.955969 0
M  V30 4280 H 395.177 -1.36416 0.461149 0
M  V30 4281 H 397.13 -4.05219 -1.15652 0
M  V30 4282 H 395.854 -2.87396 -1.5515 0
M  V30 4283 H 394.513 -3.63964 0.438812 0
M  V30 4284 H 394.161 -4.69682 -1.80022 0
M  V30 4285 H 393.861 -5.85625 -0.481378 0
M  V30 4286 H 395.385 -5.94098 -1.40995 0
M  V30 4287 H 396.799 -5.67034 0.845307 0
M  V30 4288 H 395.196 -5.77554 1.62947 0
M  V30 4289 H 396.266 -4.41365 2.00811 0
M  V30 4290 N 397.609 -0.515225 -1.4894 0
M  V30 4291 C 398.834 0.022727 -2.07388 0
M  V30 4292 C 399.259 1.2876 -1.37122 0
M  V30 4293 O 398.617 1.76067 -0.432431 0
M  V30 4294 C 398.665 0.244869 -3.59768 0
M  V30 4295 O 397.769 1.31667 -3.90817 0
M  V30 4296 H 397.11 -0.0325506 -0.663202 0
M  V30 4297 H 399.64 -0.718918 -1.91553 0
M  V30 4298 H 399.65 0.47205 -4.0526 0
M  V30 4299 H 398.325 -0.679194 -4.10317 0
M  V30 4300 H 396.902 1.07331 -3.5712 0
M  V30 4301 N 399.087 1.5561 -0.249682 0
M  V30 4302 C 400.037 2.18157 0.662673 0
M  V30 4303 C 401.021 1.1383 1.13717 0
M  V30 4304 O 402.213 1.39731 1.08648 0
M  V30 4305 C 399.342 2.88672 1.85805 0
M  V30 4306 C 398.428 4.00258 1.40193 0
M  V30 4307 N 398.819 5.01473 0.660213 0
M  V30 4308 C 397.117 4.12864 1.68698 0
M  V30 4309 C 397.818 5.80155 0.423695 0
M  V30 4310 N 396.794 5.34533 0.988721 0
M  V30 4311 H 400.596 2.93769 0.0878688 0
M  V30 4312 H 398.11 1.62316 -0.0521183 0
M  V30 4313 H 400.107 3.31912 2.5227 0
M  V30 4314 H 398.767 2.14564 2.43705 0
M  V30 4315 H 399.778 5.16971 0.310047 0
M  V30 4316 H 396.455 3.4993 2.27717 0
M  V30 4317 H 397.845 6.71688 -0.168616 0
M  V30 4318 N 400.565 -0.0233959 1.57583 0
M  V30 4319 C 401.497 -1.04994 2.03737 0
M  V30 4320 C 402.51 -1.32125 0.951152 0
M  V30 4321 O 403.699 -1.29512 1.22837 0
M  V30 4322 C 400.799 -2.39026 2.40249 0
M  V30 4323 C 399.972 -2.31171 3.7132 0
M  V30 4324 C 399.031 -3.47698 3.94959 0
M  V30 4325 O 398.057 -3.26937 4.65941 0
M  V30 4326 N 399.259 -4.6976 3.41037 0
M  V30 4327 H 402.024 -0.656507 2.92421 0
M  V30 4328 H 399.585 -0.211235 1.60516 0
M  V30 4329 H 401.577 -3.15712 2.53196 0
M  V30 4330 H 400.147 -2.70194 1.57207 0
M  V30 4331 H 399.367 -1.39547 3.68674 0
M  V30 4332 H 400.655 -2.23071 4.57293 0
M  V30 4333 H 400.053 -4.89528 2.83512 0
M  V30 4334 H 398.61 -5.43791 3.59353 0
M  V30 4335 N 402.043 -1.548 -0.295768 0
M  V30 4336 C 402.973 -1.89115 -1.36959 0
M  V30 4337 C 403.954 -0.75059 -1.52644 0
M  V30 4338 O 405.139 -1.00678 -1.66065 0
M  V30 4339 C 402.269 -2.14307 -2.73295 0
M  V30 4340 C 401.223 -3.30151 -2.72368 0
M  V30 4341 C 400.549 -3.40772 -4.12042 0
M  V30 4342 C 401.849 -4.67126 -2.33646 0
M  V30 4343 H 403.543 -2.79053 -1.08488 0
M  V30 4344 H 401.089 -1.34266 -0.520443 0
M  V30 4345 H 403.042 -2.36898 -3.48507 0
M  V30 4346 H 401.766 -1.21145 -3.03301 0
M  V30 4347 H 400.425 -3.0749 -1.99613 0
M  V30 4348 H 400.073 -2.45117 -4.39234 0
M  V30 4349 H 399.773 -4.18645 -4.12322 0
M  V30 4350 H 401.297 -3.6563 -4.89027 0
M  V30 4351 H 402.711 -4.89414 -2.98575 0
M  V30 4352 H 401.108 -5.47751 -2.45129 0
M  V30 4353 H 402.178 -4.67489 -1.28772 0
M  V30 4354 N 403.521 0.559213 -1.47345 0
M  V30 4355 C 404.767 1.31843 -1.54095 0
M  V30 4356 C 405.1 1.93149 -0.201726 0
M  V30 4357 O 404.375 1.77759 0.789428 0
M  V30 4358 C 404.658 2.43006 -2.65744 0
M  V30 4359 C 404.511 1.86581 -4.09277 0
M  V30 4360 C 405.83 3.44943 -2.73318 0
M  V30 4361 H 402.949 0.478012 -0.560957 0
M  V30 4362 H 405.591 0.625977 -1.79392 0
M  V30 4363 H 403.741 3.02072 -2.44305 0
M  V30 4364 H 405.413 1.31792 -4.42073 0
M  V30 4365 H 403.656 1.17268 -4.17649 0
M  V30 4366 H 404.327 2.66933 -4.83168 0
M  V30 4367 H 406.803 2.95793 -2.92653 0
M  V30 4368 H 405.679 4.20153 -3.53218 0
M  V30 4369 H 405.94 4.03665 -1.80296 0
M  V30 4370 N 404.999 1.35443 0.805782 0
M  V30 4371 C 406.224 1.32037 1.59941 0
M  V30 4372 C 406.649 -0.0994215 1.87837 0
M  V30 4373 O 406.007 -1.06648 1.46615 0
M  V30 4374 C 406.055 2.13354 2.90711 0
M  V30 4375 O 405.159 1.5148 3.83572 0
M  V30 4376 H 404.5 0.452666 0.485787 0
M  V30 4377 H 407.03 1.78496 1.00002 0
M  V30 4378 H 407.04 2.25338 3.40128 0
M  V30 4379 H 405.715 3.16572 2.69732 0
M  V30 4380 H 404.292 1.4834 3.42125 0
M  V30 4381 N 406.477 -1.02803 1.19454 0
M  V30 4382 C 407.409 -2.11181 0.890807 0
M  V30 4383 C 408.422 -1.6238 -0.116829 0
M  V30 4384 O 409.611 -1.78144 0.112694 0
M  V30 4385 C 406.711 -3.37461 0.311942 0
M  V30 4386 C 405.884 -4.15446 1.36834 0
M  V30 4387 C 404.943 -5.20039 0.802864 0
M  V30 4388 O 403.969 -5.49602 1.48077 0
M  V30 4389 N 405.171 -5.79165 -0.393417 0
M  V30 4390 H 407.936 -2.37827 1.82369 0
M  V30 4391 H 405.497 -1.19101 1.09666 0
M  V30 4392 H 407.489 -4.0462 -0.0802225 0
M  V30 4393 H 406.059 -3.08156 -0.52524 0
M  V30 4394 H 405.279 -3.43423 1.93531 0
M  V30 4395 H 406.567 -4.64335 2.08015 0
M  V30 4396 H 405.965 -5.57466 -0.961658 0
M  V30 4397 H 404.522 -6.47729 -0.727351 0
M  V30 4398 N 407.956 -0.998596 -1.21925 0
M  V30 4399 C 409.367 -0.711939 -1.72593 0
M  V30 4400 C 409.718 0.770842 -1.80423 0
M  V30 4401 O 408.843 1.60237 -1.4544 0
M  V30 4402 C 409.438 -1.28567 -3.13458 0
M  V30 4403 C 407.997 -1.04828 -3.61508 0
M  V30 4404 C 407.144 -1.4024 -2.39224 0
M  V30 4405 H 410.095 -1.17027 -1.07193 0
M  V30 4406 H 410.116 -0.667098 -3.74607 0
M  V30 4407 H 409.628 -2.36486 -3.07727 0
M  V30 4408 H 407.729 0.0140383 -3.72597 0
M  V30 4409 H 407.842 -1.71566 -4.47328 0
M  V30 4410 H 406.206 -0.821077 -2.41103 0
M  V30 4411 H 406.989 -2.49176 -2.36149 0
M  V30 4412 N 409.434 1.37368 -0.772513 0
M  V30 4413 C 410.682 1.99279 -0.336516 0
M  V30 4414 C 411.003 1.6163 1.09091 0
M  V30 4415 O 410.273 0.882109 1.74916 0
M  V30 4416 H 408.853 0.737063 -0.121435 0
M  V30 4417 H 411.515 1.67836 -0.990809 0
M  V30 4418 H 410.611 3.09332 -0.414763 0
M  V30 4419 N 410.912 0.523116 1.48665 0
M  V30 4420 C 411.842 -0.23231 2.32342 0
M  V30 4421 C 412.823 -0.941637 1.41659 0
M  V30 4422 O 414.008 -0.928751 1.70552 0
M  V30 4423 C 411.138 -1.28387 3.22698 0
M  V30 4424 C 410.092 -0.693098 4.22351 0
M  V30 4425 C 409.418 -1.8468 5.01794 0
M  V30 4426 C 410.718 0.33063 5.21252 0
M  V30 4427 H 412.412 0.466192 2.95748 0
M  V30 4428 H 409.958 0.225643 1.42221 0
M  V30 4429 H 411.911 -1.82024 3.80059 0
M  V30 4430 H 410.635 -2.01186 2.57278 0
M  V30 4431 H 409.294 -0.178299 3.66166 0
M  V30 4432 H 408.942 -2.56301 4.32804 0
M  V30 4433 H 408.642 -1.45747 5.69238 0
M  V30 4434 H 410.166 -2.38709 5.62006 0
M  V30 4435 H 411.58 -0.118407 5.73178 0
M  V30 4436 H 409.977 0.636974 5.9671 0
M  V30 4437 H 411.047 1.23883 4.68808 0
M  V30 4438 N 412.39 -1.55475 0.257931 0
M  V30 4439 C 413.338 -2.23244 -0.653076 0
M  V30 4440 C 414.332 -1.22366 -1.17144 0
M  V30 4441 O 415.538 -1.40347 -1.12706 0
M  V30 4442 H 411.913 -0.716247 -0.229117 0
M  V30 4443 H 413.884 -2.98343 -0.0584788 0
M  V30 4444 C 412.633 -2.95401 -1.83395 0
M  V30 4445 H 411.956 -3.72802 -1.44424 0
M  V30 4446 H 413.396 -3.46165 -2.44838 0
M  V30 4447 C 411.855 -1.99895 -2.71189 0
M  V30 4448 O 412.385 -1.53909 -3.71046 0
M  V30 4449 N 410.591 -1.6676 -2.3799 0
M  V30 4450 H 410.138 -2.04352 -1.56837 0
M  V30 4451 H 410.096 -1.03127 -2.97005 0
M  V30 4452 N 413.868 0.0150385 -1.57593 0
M  V30 4453 C 415.284 0.370907 -1.5523 0
M  V30 4454 C 415.484 1.75735 -0.985882 0
M  V30 4455 O 414.54 2.44944 -0.613077 0
M  V30 4456 C 415.853 0.259908 -2.99575 0
M  V30 4457 C 417.401 0.335959 -3.11192 0
M  V30 4458 C 417.876 0.254253 -4.57294 0
M  V30 4459 N 419.367 0.312618 -4.62144 0
M  V30 4460 C 420.102 0.272505 -5.72752 0
M  V30 4461 N 419.598 0.183864 -6.92556 0
M  V30 4462 N 421.391 0.323267 -5.6117 0
M  V30 4463 H 413.542 -0.892104 -1.92757 0
M  V30 4464 H 415.805 -0.340563 -0.884715 0
M  V30 4465 H 415.511 -0.693403 -3.44797 0
M  V30 4466 H 415.385 1.048 -3.62349 0
M  V30 4467 H 417.772 1.27971 -2.65909 0
M  V30 4468 H 417.853 -0.481739 -2.51223 0
M  V30 4469 H 417.497 -0.685887 -5.03247 0
M  V30 4470 H 417.427 1.09024 -5.15191 0
M  V30 4471 H 419.918 0.38307 -3.75953 0
M  V30 4472 H 420.231 0.15874 -7.72637 0
M  V30 4473 H 418.576 0.149708 -6.94839 0
M  V30 4474 H 421.767 0.390607 -4.66467 0
M  V30 4475 H 421.94 0.288539 -6.47357 0
M  V30 4476 N 415.346 1.54954 0.287554 0
M  V30 4477 C 416.594 1.74528 1.01904 0
M  V30 4478 C 416.915 0.541349 1.87335 0
M  V30 4479 O 416.185 -0.444108 1.908 0
M  V30 4480 H 414.765 0.643576 0.379235 0
M  V30 4481 H 417.427 1.92333 0.315294 0
M  V30 4482 H 416.523 2.64015 1.6644 0
M  V30 4483 N 416.824 -0.551391 1.4764 0
M  V30 4484 C 417.754 -1.66757 1.63445 0
M  V30 4485 C 418.735 -1.63077 0.483742 0
M  V30 4486 O 419.92 -1.80607 0.71377 0
M  V30 4487 C 417.05 -3.05387 1.65396 0
M  V30 4488 C 416.004 -3.23918 2.79752 0
M  V30 4489 C 415.33 -4.63393 2.66779 0
M  V30 4490 C 416.63 -3.08735 4.21284 0
M  V30 4491 H 418.324 -1.53786 2.56886 0
M  V30 4492 H 415.87 -0.738415 1.23626 0
M  V30 4493 H 417.823 -3.83325 1.75043 0
M  V30 4494 H 416.547 -3.19332 0.685195 0
M  V30 4495 H 415.206 -2.48391 2.69625 0
M  V30 4496 H 414.854 -4.74144 1.67918 0
M  V30 4497 H 414.554 -4.7674 3.43501 0
M  V30 4498 H 416.078 -5.43458 2.78364 0
M  V30 4499 H 417.492 -3.76484 4.32357 0
M  V30 4500 H 415.889 -3.33588 4.98838 0
M  V30 4501 H 416.959 -2.0541 4.39243 0
M  V30 4502 N 418.302 -1.35869 -0.798587 0
M  V30 4503 C 419.551 -1.28921 -1.5512 0
M  V30 4504 C 419.864 0.13208 -1.95154 0
M  V30 4505 O 421.07 0.323879 -2.69561 0
M  V30 4506 C 419.526 -2.26141 -2.79979 0
M  V30 4507 C 419.134 -3.73658 -2.47151 0
M  V30 4508 C 420.878 -2.28152 -3.57976 0
M  V30 4509 C 418.785 -4.62679 -3.6835 0
M  V30 4510 H 417.715 -0.479031 -0.582276 0
M  V30 4511 H 420.366 -1.61179 -0.877125 0
M  V30 4512 H 418.748 -1.86865 -3.49138 0
M  V30 4513 H 419.922 -4.21616 -1.85947 0
M  V30 4514 H 418.237 -3.74333 -1.82383 0
M  V30 4515 H 420.834 -2.91875 -4.4801 0
M  V30 4516 H 421.177 -1.28748 -3.95891 0
M  V30 4517 H 421.71 -2.65998 -2.95787 0
M  V30 4518 H 418.449 -5.63111 -3.35538 0
M  V30 4519 H 417.969 -4.19442 -4.28752 0
M  V30 4520 H 419.648 -4.78498 -4.35487 0
M  V30 4521 N 419.78 1.02168 -1.19998 0
M  V30 4522 C 420.71 2.12488 -0.96804 0
M  V30 4523 C 421.691 1.69799 0.101185 0
M  V30 4524 O 422.876 1.94121 -0.0552993 0
M  V30 4525 C 420.006 3.43479 -0.513776 0
M  V30 4526 C 418.96 3.99884 -1.52566 0
M  V30 4527 C 418.286 5.26582 -0.928214 0
M  V30 4528 C 419.586 4.33861 -2.90795 0
M  V30 4529 H 421.28 2.32149 -1.89069 0
M  V30 4530 H 418.826 1.11564 -0.910468 0
M  V30 4531 H 420.779 4.20036 -0.338774 0
M  V30 4532 H 419.503 3.23561 0.444493 0
M  V30 4533 H 418.162 3.25429 -1.68794 0
M  V30 4534 H 417.81 5.02986 0.0378289 0
M  V30 4535 H 417.51 5.65284 -1.60397 0
M  V30 4536 H 419.034 6.05799 -0.764167 0
M  V30 4537 H 420.448 5.01327 -2.78109 0
M  V30 4538 H 418.845 4.83664 -3.55231 0
M  V30 4539 H 419.915 3.42848 -3.42904 0
M  V30 4540 N 421.258 1.00505 1.21394 0
M  V30 4541 C 422.535 0.603277 1.86064 0
M  V30 4542 C 422.915 -0.919095 1.90042 0
M  V30 4543 O 422.263 -1.80607 1.39977 0
M  V30 4544 C 422.473 1.23772 3.26315 0
M  V30 4545 C 423.821 1.34586 4.02705 0
M  V30 4546 O 424.845 1.19304 3.35626 0
M  V30 4547 O 423.704 1.59169 5.22807 0
M  V30 4548 H 420.798 0.206634 0.800769 0
M  V30 4549 H 423.344 1.1017 1.29076 0
M  V30 4550 H 422.116 2.27848 3.18121 0
M  V30 4551 H 421.739 0.725648 3.90922 0
M  V30 4552 N 422.737 -1.36956 0.779787 0
M  V30 4553 C 423.667 -2.32761 0.185651 0
M  V30 4554 C 424.648 -1.56177 -0.673989 0
M  V30 4555 O 425.833 -1.84378 -0.609797 0
M  V30 4556 C 422.963 -3.40418 -0.687964 0
M  V30 4557 C 421.917 -4.27941 0.0710102 0
M  V30 4558 C 421.243 -5.26681 -0.922573 0
M  V30 4559 C 422.543 -5.07006 1.25467 0
M  V30 4560 H 424.237 -2.82698 0.986008 0
M  V30 4561 H 421.783 -1.3592 0.475592 0
M  V30 4562 H 423.736 -4.06423 -1.11348 0
M  V30 4563 H 422.46 -2.89025 -1.52093 0
M  V30 4564 H 421.119 -3.63478 0.47739 0
M  V30 4565 H 420.767 -4.71565 -1.7503 0
M  V30 4566 H 420.467 -5.86103 -0.419237 0
M  V30 4567 H 421.991 -5.9556 -1.34686 0
M  V30 4568 H 423.405 -5.66105 0.905401 0
M  V30 4569 H 421.802 -5.75793 1.69063 0
M  V30 4570 H 422.872 -4.3921 2.05481 0
M  V30 4571 N 424.215 -0.530993 -1.48385 0
M  V30 4572 C 425.145 0.219985 -2.32461 0
M  V30 4573 C 426.126 0.934111 -1.42156 0
M  V30 4574 O 427.311 0.919694 -1.71042 0
M  V30 4575 C 424.441 1.26674 -3.23375 0
M  V30 4576 C 423.395 0.67069 -4.22712 0
M  V30 4577 C 422.721 1.82017 -5.02766 0
M  V30 4578 C 424.021 -0.358268 -5.2107 0
M  V30 4579 H 425.715 -0.48187 -2.95497 0
M  V30 4580 H 423.261 -0.233182 -1.42099 0
M  V30 4581 H 425.214 1.80006 -3.81019 0
M  V30 4582 H 423.938 1.99818 -2.58341 0
M  V30 4583 H 422.597 0.158878 -3.66256 0
M  V30 4584 H 422.245 2.54002 -4.34157 0
M  V30 4585 H 421.945 1.42727 -5.70003 0
M  V30 4586 H 423.469 2.35725 -5.63264 0
M  V30 4587 H 424.883 0.0880081 -5.73232 0
M  V30 4588 H 423.28 -0.66861 -5.96364 0
M  V30 4589 H 424.35 -1.26367 -4.68145 0
M  V30 4590 N 425.693 1.55336 -0.266172 0
M  V30 4591 C 426.97 1.91372 0.404486 0
M  V30 4592 C 427.35 1.18935 1.74407 0
M  V30 4593 O 426.698 0.3132 2.26343 0
M  V30 4594 C 426.908 3.44581 0.553593 0
M  V30 4595 C 428.256 4.16196 0.840618 0
M  V30 4596 O 429.28 3.50426 0.638739 0
M  V30 4597 O 428.139 5.32567 1.22618 0
M  V30 4598 H 425.233 0.797194 0.220025 0
M  V30 4599 H 427.779 1.66813 -0.311664 0
M  V30 4600 H 426.551 3.89357 -0.389498 0
M  V30 4601 H 426.174 3.75065 1.31955 0
M  V30 4602 N 427.171 -0.0066808 1.57599 0
M  V30 4603 C 428.118 -1.00024 2.08 0
M  V30 4604 C 429.088 -1.34549 0.973943 0
M  V30 4605 O 430.273 -1.44502 1.24595 0
M  V30 4606 C 427.413 -2.2891 2.58252 0
M  V30 4607 C 426.526 -2.00346 3.82734 0
M  V30 4608 C 425.661 -3.23265 4.21513 0
M  V30 4609 C 424.7 -2.90357 5.3885 0
M  V30 4610 N 423.837 -4.05793 5.72954 0
M  V30 4611 H 428.677 -0.563499 2.92624 0
M  V30 4612 H 426.214 -0.266592 1.44664 0
M  V30 4613 H 428.172 -3.04247 2.85464 0
M  V30 4614 H 426.802 -2.70265 1.76512 0
M  V30 4615 H 425.854 -1.15406 3.62471 0
M  V30 4616 H 427.166 -1.72086 4.68175 0
M  V30 4617 H 426.32 -4.06953 4.49971 0
M  V30 4618 H 425.059 -3.54657 3.34768 0
M  V30 4619 H 424.064 -2.05075 5.10122 0
M  V30 4620 H 425.289 -2.60219 6.27266 0
M  V30 4621 H 423.235 -4.37094 4.89167 0
M  V30 4622 H 423.152 -3.81034 6.52954 0
M  V30 4623 H 424.42 -4.90289 6.06001 0
M  V30 4624 N 428.649 -1.55105 -0.279332 0
M  V30 4625 C 429.579 -1.90557 -1.34945 0
M  V30 4626 C 430.56 -0.766738 -1.51839 0
M  V30 4627 O 431.745 -1.02434 -1.64988 0
M  V30 4628 C 428.875 -2.17193 -2.71006 0
M  V30 4629 C 427.829 -3.33021 -2.68851 0
M  V30 4630 C 427.155 -3.45123 -4.08405 0
M  V30 4631 C 428.455 -4.69578 -2.28678 0
M  V30 4632 H 430.149 -2.80188 -1.05522 0
M  V30 4633 H 427.695 -1.34811 -0.506173 0
M  V30 4634 H 429.648 -2.40581 -3.45975 0
M  V30 4635 H 428.372 -1.24355 -3.01999 0
M  V30 4636 H 427.031 -3.0959 -1.9634 0
M  V30 4637 H 426.679 -2.49762 -4.3661 0
M  V30 4638 H 426.379 -4.22995 -4.07859 0
M  V30 4639 H 427.903 -3.70796 -4.85121 0
M  V30 4640 H 429.317 -4.92553 -2.93368 0
M  V30 4641 H 427.714 -5.5032 -2.39306 0
M  V30 4642 H 428.784 -4.68828 -1.23807 0
M  V30 4643 N 430.127 0.543554 -1.4793 0
M  V30 4644 C 431.074 1.64942 -1.6144 0
M  V30 4645 C 432.044 1.59692 -0.456903 0
M  V30 4646 O 433.229 1.78321 -0.678688 0
M  V30 4647 C 430.369 3.03238 -1.64744 0
M  V30 4648 C 429.482 3.18823 -2.91506 0
M  V30 4649 C 428.617 4.47599 -2.86057 0
M  V30 4650 C 427.656 4.56664 -4.07584 0
M  V30 4651 N 426.793 5.76811 -4.00292 0
M  V30 4652 H 431.633 1.52733 -2.55884 0
M  V30 4653 H 429.17 0.7438 -1.2691 0
M  V30 4654 H 431.128 3.83339 -1.64641 0
M  V30 4655 H 429.758 3.1425 -0.738017 0
M  V30 4656 H 428.81 2.32064 -3.01414 0
M  V30 4657 H 430.122 3.21384 -3.81463 0
M  V30 4658 H 429.276 5.35975 -2.84281 0
M  V30 4659 H 428.015 4.47538 -1.93807 0
M  V30 4660 H 427.02 3.66697 -4.09651 0
M  V30 4661 H 428.245 4.58474 -5.00978 0
M  V30 4662 H 426.191 5.77673 -3.10853 0
M  V30 4663 H 426.108 5.80808 -4.8394 0
M  V30 4664 H 427.376 6.67512 -4.02553 0
M  V30 4665 N 431.605 1.3629 0.791371 0
M  V30 4666 C 432.553 1.30514 1.92533 0
M  V30 4667 C 433.547 0.197285 1.68247 0
M  V30 4668 O 434.753 0.364176 1.76278 0
M  V30 4669 H 431.128 0.406263 0.632815 0
M  V30 4670 H 433.099 2.26282 1.94523 0
M  V30 4671 C 431.848 1.10933 3.29529 0
M  V30 4672 H 431.171 1.95427 3.48781 0
M  V30 4673 H 432.611 1.10937 4.0923 0
M  V30 4674 C 431.07 -0.186123 3.36385 0
M  V30 4675 O 431.6 -1.17664 3.84081 0
M  V30 4676 N 429.806 -0.230128 2.89687 0
M  V30 4677 H 429.353 0.576545 2.51065 0
M  V30 4678 H 429.311 -1.09658 2.94657 0
M  V30 4679 N 433.083 -1.0153 1.20538 0
M  V30 4680 C 434.494 -1.56598 1.01657 0
M  V30 4681 C 434.845 -1.91505 -0.426668 0
M  V30 4682 O 433.97 -1.72375 -1.30827 0
M  V30 4683 C 434.565 -2.84542 1.83905 0
M  V30 4684 C 433.124 -3.36133 1.69386 0
M  V30 4685 C 432.271 -2.09427 1.81757 0
M  V30 4686 H 435.222 -0.838974 1.34711 0
M  V30 4687 H 435.243 -3.56004 1.34319 0
M  V30 4688 H 434.755 -2.59105 2.8894 0
M  V30 4689 H 432.856 -3.66528 0.669933 0
M  V30 4690 H 432.969 -4.08248 2.50739 0
M  V30 4691 H 431.333 -2.21941 1.24957 0
M  V30 4692 H 432.116 -1.86414 2.88279 0
M  V30 4693 N 434.561 -1.01147 -1.20859 0
M  V30 4694 C 435.809 -0.696486 -1.89719 0
M  V30 4695 C 436.13 0.775788 -1.78904 0
M  V30 4696 O 435.4 1.55759 -1.18811 0
M  V30 4697 H 433.98 -0.254628 -0.702263 0
M  V30 4698 H 436.642 -1.28197 -1.46804 0
M  V30 4699 H 435.738 -0.975357 -2.96468 0
M  V30 4700 N 436.039 1.36541 -0.78704 0
M  V30 4701 C 436.986 2.30082 -0.181901 0
M  V30 4702 C 437.956 1.5186 0.672896 0
M  V30 4703 O 439.141 1.80374 0.622072 0
M  V30 4704 C 436.281 3.3835 0.679197 0
M  V30 4705 C 435.394 4.31565 -0.193882 0
M  V30 4706 C 434.529 5.26915 0.673364 0
M  V30 4707 C 433.568 6.11769 -0.201315 0
M  V30 4708 N 432.705 6.99315 0.624777 0
M  V30 4709 H 437.545 2.81248 -0.985064 0
M  V30 4710 H 435.082 1.38437 -0.497342 0
M  V30 4711 H 437.04 3.99767 1.19341 0
M  V30 4712 H 435.67 2.8851 1.44781 0
M  V30 4713 H 434.722 3.71323 -0.826044 0
M  V30 4714 H 436.034 4.91191 -0.867937 0
M  V30 4715 H 435.188 5.9361 1.25348 0
M  V30 4716 H 433.927 4.67737 1.38105 0
M  V30 4717 H 432.932 5.44039 -0.793849 0
M  V30 4718 H 434.157 6.73022 -0.906568 0
M  V30 4719 H 432.103 6.42648 1.3168 0
M  V30 4720 H 432.02 7.56 0.00835237 0
M  V30 4721 H 433.288 7.70382 1.18879 0
M  V30 4722 N 437.518 0.538854 1.48102 0
M  V30 4723 C 438.766 0.00798599 2.02098 0
M  V30 4724 C 439.087 -1.33922 1.41739 0
M  V30 4725 O 438.357 -1.86932 0.585934 0
M  V30 4726 H 436.937 -3.62179e-05 0.747 0
M  V30 4727 H 439.599 0.7047 1.81714 0
M  V30 4728 H 438.695 -0.0937672 3.11959 0
M  V30 4729 N 438.996 -1.55193 0.274407 0
M  V30 4730 C 440.407 -1.85358 -0.223488 0
M  V30 4731 C 440.758 -1.19642 -1.555 0
M  V30 4732 O 439.883 -0.484498 -2.10907 0
M  V30 4733 C 440.478 -3.36282 -0.412285 0
M  V30 4734 C 439.037 -3.66574 -0.854413 0
M  V30 4735 C 438.184 -2.7725 0.0527056 0
M  V30 4736 H 441.135 -1.50743 0.496215 0
M  V30 4737 H 441.156 -3.59349 -1.25094 0
M  V30 4738 H 440.668 -3.84083 0.556965 0
M  V30 4739 H 438.769 -3.24273 -1.83516 0
M  V30 4740 H 438.882 -4.74073 -0.692226 0
M  V30 4741 H 437.246 -2.50447 -0.463484 0
M  V30 4742 H 438.029 -3.27865 1.01783 0
M  V30 4743 N 440.474 -0.00167713 -1.576 0
M  V30 4744 C 441.699 0.69739 -1.95323 0
M  V30 4745 C 442.124 1.6642 -0.876706 0
M  V30 4746 O 441.482 1.80548 0.165007 0
M  V30 4747 C 441.53 1.40403 -3.32144 0
M  V30 4748 O 440.634 2.5185 -3.26566 0
M  V30 4749 H 439.975 0.185373 -0.637599 0
M  V30 4750 H 442.505 -0.0553665 -2.04525 0
M  V30 4751 H 442.515 1.76707 -3.67748 0
M  V30 4752 H 441.19 0.695167 -4.10049 0
M  V30 4753 H 439.767 2.17861 -3.0264 0
M  V30 4754 N 441.952 1.55251 0.271103 0
M  V30 4755 C 443.201 1.75151 1.00025 0
M  V30 4756 C 443.514 0.561041 1.87381 0
M  V30 4757 O 444.72 0.642506 2.63788 0
M  V30 4758 C 443.176 3.09999 1.82835 0
M  V30 4759 C 442.784 4.3662 1.00336 0
M  V30 4760 C 444.528 3.39249 2.55168 0
M  V30 4761 C 442.435 5.62506 1.82595 0
M  V30 4762 H 441.365 0.652877 0.377183 0
M  V30 4763 H 444.016 1.81708 0.255843 0
M  V30 4764 H 442.398 2.97485 2.61378 0
M  V30 4765 H 443.572 4.60055 0.261959 0
M  V30 4766 H 441.887 4.14527 0.394486 0
M  V30 4767 H 444.484 4.3051 3.1712 0
M  V30 4768 H 444.827 2.59467 3.2555 0
M  V30 4769 H 445.36 3.52869 1.83653 0
M  V30 4770 H 442.099 6.45041 1.16631 0
M  V30 4771 H 441.619 5.43211 2.54327 0
M  V30 4772 H 443.298 6.00875 2.39913 0
M  V30 4773 N 443.43 -0.535701 1.48216 0
M  V30 4774 C 444.678 -1.28928 1.55634 0
M  V30 4775 C 444.999 -1.93645 0.229514 0
M  V30 4776 O 444.269 -1.81038 -0.74846 0
M  V30 4777 H 442.849 -0.47884 0.573342 0
M  V30 4778 H 445.511 -0.623853 1.84646 0
M  V30 4779 H 444.607 -2.07157 2.33436 0
M  V30 4780 N 444.908 -1.36708 -0.784132 0
M  V30 4781 C 446.185 -1.21776 -1.53069 0
M  V30 4782 C 446.565 0.193876 -2.10208 0
M  V30 4783 O 445.913 1.20012 -1.94446 0
M  V30 4784 C 446.123 -2.30395 -2.62143 0
M  V30 4785 C 447.471 -2.67325 -3.29882 0
M  V30 4786 O 448.495 -2.29478 -2.7243 0
M  V30 4787 O 447.354 -3.32485 -4.33724 0
M  V30 4788 H 444.448 -0.474459 -0.677361 0
M  V30 4789 H 446.994 -1.48454 -0.82216 0
M  V30 4790 H 445.766 -3.2498 -2.17953 0
M  V30 4791 H 445.389 -2.05112 -3.40609 0
M  V30 4792 N 446.386 1.0089 -1.21074 0
M  V30 4793 C 447.635 1.74019 -1.01981 0
M  V30 4794 C 447.948 1.90408 0.447665 0
M  V30 4795 O 449.154 2.60707 0.757906 0
M  V30 4796 C 447.61 3.13026 -1.77603 0
M  V30 4797 C 447.218 3.04623 -3.28495 0
M  V30 4798 C 448.962 3.90312 -1.66904 0
M  V30 4799 C 446.869 4.38685 -3.96623 0
M  V30 4800 H 445.799 0.652422 -0.377971 0
M  V30 4801 H 448.45 1.12755 -1.44771 0
M  V30 4802 H 446.832 3.74878 -1.27604 0
M  V30 4803 H 448.006 2.52032 -3.85767 0
M  V30 4804 H 446.321 2.40827 -3.39693 0
M  V30 4805 H 448.918 4.8951 -2.15138 0
M  V30 4806 H 449.261 4.11558 -0.62658 0
M  V30 4807 H 449.794 3.35104 -2.14359 0
M  V30 4808 H 446.533 4.22641 -5.01054 0
M  V30 4809 H 446.053 4.91252 -3.4414 0
M  V30 4810 H 447.732 5.075 -4.01314 0
M  V30 4811 N 447.864 1.01787 1.20321 0
M  V30 4812 C 448.774 0.598898 2.26827 0
M  V30 4813 C 449.79 -0.36418 1.70146 0
M  V30 4814 O 450.966 -0.224812 2.00141 0
M  V30 4815 C 448.031 -0.0549769 3.46656 0
M  V30 4816 C 447.092 0.954205 4.18561 0
M  V30 4817 C 446.325 0.331439 5.3267 0
M  V30 4818 O 446.548 -0.86851 5.63749 0
M  V30 4819 O 445.482 1.0488 5.92692 0
M  V30 4820 H 449.308 1.48562 2.64883 0
M  V30 4821 H 446.893 0.787434 1.26964 0
M  V30 4822 H 448.775 -0.420102 4.19301 0
M  V30 4823 H 447.45 -0.915876 3.10473 0
M  V30 4824 H 446.357 1.37072 3.48083 0
M  V30 4825 H 447.69 1.78511 4.58688 0
M  V30 4826 N 449.342 -1.36122 0.79427 0
M  V30 4827 C 450.619 -1.93398 0.292685 0
M  V30 4828 C 450.999 -1.72567 -1.21589 0
M  V30 4829 O 450.347 -1.08745 -2.00965 0
M  V30 4830 C 450.557 -3.42099 0.690614 0
M  V30 4831 C 451.905 -4.19231 0.673105 0
M  V30 4832 O 452.929 -3.50559 0.631389 0
M  V30 4833 O 451.788 -5.41732 0.720362 0
M  V30 4834 H 448.882 -0.823712 0.0736693 0
M  V30 4835 H 451.428 -1.45273 0.87714 0
M  V30 4836 H 450.2 -3.50938 1.73085 0
M  V30 4837 H 449.823 -3.97519 0.0803036 0
M  V30 4838 N 450.82 -0.546701 -1.47814 0
M  V30 4839 C 451.73 0.21026 -2.33656 0
M  V30 4840 C 452.746 0.922413 -1.47538 0
M  V30 4841 O 453.922 0.893652 -1.80488 0
M  V30 4842 C 450.987 1.23348 -3.24016 0
M  V30 4843 C 450.048 0.529883 -4.26017 0
M  V30 4844 C 449.281 1.50435 -5.12059 0
M  V30 4845 O 449.504 2.73837 -5.00369 0
M  V30 4846 O 448.438 1.03459 -5.92942 0
M  V30 4847 H 452.264 -0.493605 -2.99662 0
M  V30 4848 H 449.849 -0.307427 -1.46203 0
M  V30 4849 H 451.731 1.82438 -3.79861 0
M  V30 4850 H 450.406 1.91945 -2.60651 0
M  V30 4851 H 449.313 -0.101948 -3.73961 0
M  V30 4852 H 450.646 -0.11445 -4.92067 0
M  V30 4853 N 452.299 1.55045 -0.282633 0
M  V30 4854 C 453.209 2.26491 0.61147 0
M  V30 4855 C 454.225 1.29348 1.16384 0
M  V30 4856 O 455.401 1.62298 1.19253 0
M  V30 4857 C 452.466 2.97779 1.77563 0
M  V30 4858 C 451.527 4.10418 1.25919 0
M  V30 4859 C 450.76 4.78297 2.36786 0
M  V30 4860 O 450.983 4.45426 3.56303 0
M  V30 4861 O 449.917 5.66089 2.04517 0
M  V30 4862 H 453.743 3.03683 0.0324615 0
M  V30 4863 H 451.328 1.49317 -0.0497576 0
M  V30 4864 H 453.21 3.42554 2.45427 0
M  V30 4865 H 451.885 2.23498 2.34159 0
M  V30 4866 H 450.792 3.70082 0.546797 0
M  V30 4867 H 452.125 4.86622 0.738887 0
M  V30 4868 N 453.777 0.010035 1.57597 0
M  V30 4869 C 455.188 -0.531426 1.78977 0
M  V30 4870 C 455.539 -1.73375 0.918454 0
M  V30 4871 O 454.664 -2.16047 0.123635 0
M  V30 4872 C 455.259 -0.97086 3.24592 0
M  V30 4873 C 453.818 -1.45756 3.47033 0
M  V30 4874 C 452.965 -0.413384 2.74201 0
M  V30 4875 H 455.916 0.236166 1.56933 0
M  V30 4876 H 455.937 -1.83633 3.33255 0
M  V30 4877 H 455.449 -0.0955893 3.87982 0
M  V30 4878 H 453.55 -2.35339 2.88871 0
M  V30 4879 H 453.663 -1.4781 4.55729 0
M  V30 4880 H 452.027 -0.877266 2.39115 0
M  V30 4881 H 452.81 0.453092 3.40297 0
M  V30 4882 N 455.255 -1.55392 -0.262866 0
M  V30 4883 C 456.165 -1.92077 -1.34698 0
M  V30 4884 C 457.181 -0.819227 -1.53508 0
M  V30 4885 O 458.357 -1.11921 -1.67439 0
M  V30 4886 C 455.422 -2.19407 -2.68443 0
M  V30 4887 C 454.483 -3.42905 -2.58292 0
M  V30 4888 C 453.716 -3.68921 -3.85659 0
M  V30 4889 O 453.939 -2.97275 -4.8681 0
M  V30 4890 O 452.873 -4.62455 -3.85252 0
M  V30 4891 H 456.699 -2.84384 -1.06581 0
M  V30 4892 H 454.284 -1.42069 -0.462264 0
M  V30 4893 H 456.166 -2.38365 -3.47506 0
M  V30 4894 H 454.841 -1.30282 -2.96325 0
M  V30 4895 H 453.748 -3.29272 -1.7757 0
M  V30 4896 H 455.081 -4.32282 -2.35358 0
M  V30 4897 N 456.733 0.527833 -1.48498 0
M  V30 4898 C 457.663 1.64136 -1.66077 0
M  V30 4899 C 458.644 1.62286 -0.509625 0
M  V30 4900 O 459.829 1.79449 -0.742413 0
M  V30 4901 C 456.959 3.02717 -1.70234 0
M  V30 4902 C 455.913 3.19426 -2.8487 0
M  V30 4903 C 455.239 4.5909 -2.74118 0
M  V30 4904 C 456.539 3.01993 -4.26142 0
M  V30 4905 H 458.233 1.4968 -2.593 0
M  V30 4906 H 455.779 0.718654 -1.24785 0
M  V30 4907 H 457.732 3.80491 -1.8112 0
M  V30 4908 H 456.456 3.18201 -0.735911 0
M  V30 4909 H 455.115 2.4407 -2.73542 0
M  V30 4910 H 454.763 4.71413 -1.7544 0
M  V30 4911 H 454.463 4.71214 -3.51042 0
M  V30 4912 H 455.987 5.3896 -2.86974 0
M  V30 4913 H 457.401 3.69558 -4.38292 0
M  V30 4914 H 455.798 3.2561 -5.04082 0
M  V30 4915 H 456.868 1.98396 -4.42456 0
M  V30 4916 N 458.211 1.37122 0.776871 0
M  V30 4917 C 459.622 1.28667 1.35284 0
M  V30 4918 C 459.973 -0.0680035 1.96082 0
M  V30 4919 O 459.098 -0.969743 1.93455 0
M  V30 4920 C 459.693 2.32997 2.45963 0
M  V30 4921 C 458.252 2.28191 2.99342 0
M  V30 4922 C 457.399 2.17101 1.72517 0
M  V30 4923 H 460.35 1.47819 0.577527 0
M  V30 4924 H 460.371 1.97366 3.2531 0
M  V30 4925 H 459.883 3.3158 2.01684 0
M  V30 4926 H 457.984 1.33115 3.4801 0
M  V30 4927 H 458.097 3.21397 3.55304 0
M  V30 4928 H 456.461 1.63562 1.95242 0
M  V30 4929 H 457.244 3.17591 1.30348 0
M  V30 4930 N 459.689 -1.00246 1.21608 0
M  V30 4931 C 461.1 -1.55511 1.03312 0
M  V30 4932 C 461.451 -1.91946 -0.406332 0
M  V30 4933 O 460.576 -1.73753 -1.28992 0
M  V30 4934 C 461.171 -2.82576 1.86913 0
M  V30 4935 C 459.73 -3.34318 1.72941 0
M  V30 4936 C 458.877 -2.07487 1.83968 0
M  V30 4937 H 461.828 -0.824638 1.35593 0
M  V30 4938 H 461.849 -3.54559 1.38087 0
M  V30 4939 H 461.361 -2.56026 2.91672 0
M  V30 4940 H 459.462 -3.65797 0.70877 0
M  V30 4941 H 459.575 -4.05566 2.55055 0
M  V30 4942 H 457.939 -2.20603 1.27304 0
M  V30 4943 H 458.722 -1.83346 2.9024 0
M  V30 4944 N 461.167 -1.02423 -1.1978 0
M  V30 4945 C 462.13 -0.605703 -2.21052 0
M  V30 4946 C 463.13 0.328209 -1.57415 0
M  V30 4947 O 464.32 0.115853 -1.73814 0
M  V30 4948 C 461.452 0.114366 -3.40708 0
M  V30 4949 H 462.645 -1.5017 -2.59594 0
M  V30 4950 H 460.198 -0.814888 -1.33376 0
M  V30 4951 H 460.933 1.02492 -3.07678 0
M  V30 4952 H 460.718 -0.556641 -3.88129 0
M  V30 4953 H 462.208 0.394272 -4.15735 0
M  V30 4954 N 462.645 1.35699 -0.801477 0
M  V30 4955 C 463.894 1.98165 -0.375979 0
M  V30 4956 C 464.207 1.64306 1.06127 0
M  V30 4957 O 465.413 2.20097 1.58964 0
M  V30 4958 C 463.869 3.54497 -0.621305 0
M  V30 4959 C 463.477 3.9727 -2.07076 0
M  V30 4960 C 465.221 4.23697 -0.26091 0
M  V30 4961 C 463.128 5.46427 -2.26211 0
M  V30 4962 H 462.058 0.741478 -0.136844 0
M  V30 4963 H 464.709 1.54834 -0.984814 0
M  V30 4964 H 463.091 3.95958 0.0574112 0
M  V30 4965 H 464.265 3.66974 -2.78687 0
M  V30 4966 H 462.58 3.40943 -2.39054 0
M  V30 4967 H 465.177 5.33334 -0.381994 0
M  V30 4968 H 465.52 4.0869 0.792344 0
M  V30 4969 H 466.053 3.87639 -0.893339 0
M  V30 4970 H 462.792 5.66396 -3.29963 0
M  V30 4971 H 462.312 5.78309 -1.59119 0
M  V30 4972 H 463.991 6.12819 -2.07513 0
M  V30 4973 N 464.123 0.554532 1.47522 0
M  V30 4974 C 465.534 0.120446 1.86311 0
M  V30 4975 C 465.885 -1.30904 1.46145 0
M  V30 4976 O 465.01 -1.98434 0.863294 0
M  V30 4977 C 465.605 0.211808 3.38137 0
M  V30 4978 C 464.164 -0.167224 3.76028 0
M  V30 4979 C 463.311 0.560576 2.71575 0
M  V30 4980 H 466.262 0.764408 1.39077 0
M  V30 4981 H 466.283 -0.570275 3.76202 0
M  V30 4982 H 465.795 1.25232 3.6734 0
M  V30 4983 H 463.896 -1.20894 3.52442 0
M  V30 4984 H 464.009 0.189473 4.78725 0
M  V30 4985 H 462.373 0.00396836 2.547 0
M  V30 4986 H 463.156 1.60219 3.0362 0
M  V30 4987 N 465.601 -1.54893 0.290851 0
M  V30 4988 C 467.017 -1.59476 -0.0628432 0
M  V30 4989 C 467.217 -1.30795 -1.5328 0
M  V30 4990 O 466.273 -1.07644 -2.28406 0
M  V30 4991 C 467.586 -2.98928 0.325962 0
M  V30 4992 C 469.134 -3.11799 0.273882 0
M  V30 4993 C 469.609 -4.53544 0.637359 0
M  V30 4994 N 471.1 -4.59433 0.589507 0
M  V30 4995 C 471.835 -5.67164 0.84335 0
M  V30 4996 N 471.331 -6.82975 1.16263 0
M  V30 4997 N 473.124 -5.56786 0.771091 0
M  V30 4998 H 465.275 -1.71798 1.24896 0
M  V30 4999 H 467.538 -0.801879 0.505663 0
M  V30 5000 H 467.244 -3.24805 1.34887 0
M  V30 5001 H 467.118 -3.75793 -0.325441 0
M  V30 5002 H 469.505 -2.85677 -0.739765 0
M  V30 5003 H 469.586 -2.37112 0.959766 0
M  V30 5004 H 469.23 -4.80394 1.64877 0
M  V30 5005 H 469.16 -5.26553 -0.0704866 0
M  V30 5006 H 471.651 -3.76245 0.353252 0
M  V30 5007 H 471.964 -7.61048 1.34257 0
M  V30 5008 H 470.309 -6.84552 1.20057 0
M  V30 5009 H 473.5 -4.65187 0.521383 0
M  V30 5010 H 473.673 -6.40664 0.972295 0
M  V30 5011 N 467.08 -0.0183926 -1.57589 0
M  V30 5012 C 468.496 0.337897 -1.55982 0
M  V30 5013 C 468.696 1.73604 -1.02294 0
M  V30 5014 O 467.752 2.43589 -0.664895 0
M  V30 5015 C 469.065 0.196305 -3.00059 0
M  V30 5016 C 470.613 0.269875 -3.11834 0
M  V30 5017 C 471.088 0.157197 -4.5773 0
M  V30 5018 N 472.579 0.214521 -4.62703 0
M  V30 5019 C 473.314 0.150955 -5.73201 0
M  V30 5020 N 472.81 0.0369212 -6.9279 0
M  V30 5021 N 474.603 0.204162 -5.61729 0
M  V30 5022 H 466.754 -0.93279 -1.90821 0
M  V30 5023 H 469.017 -0.359253 -0.877292 0
M  V30 5024 H 468.723 -0.766383 -3.43248 0
M  V30 5025 H 468.597 0.970908 -3.6449 0
M  V30 5026 H 470.984 1.22302 -2.68563 0
M  V30 5027 H 471.065 -0.534918 -2.50144 0
M  V30 5028 H 470.709 -0.792479 -5.01679 0
M  V30 5029 H 470.639 0.980717 -5.17387 0
M  V30 5030 H 473.13 0.303238 -3.76681 0
M  V30 5031 H 473.443 -0.00518321 -7.728 0
M  V30 5032 H 471.788 0.0022886 -6.95 0
M  V30 5033 H 474.979 0.291575 -4.67191 0
M  V30 5034 H 475.152 0.15116 -6.47824 0
M  V30 5035 N 468.558 1.5553 0.254621 0
M  V30 5036 C 469.807 1.76202 0.981612 0
M  V30 5037 C 470.12 0.580883 1.86776 0
M  V30 5038 O 471.326 0.670448 2.63092 0
M  V30 5039 C 469.782 3.11921 1.79537 0
M  V30 5040 C 469.39 4.37659 0.956991 0
M  V30 5041 C 471.134 3.41936 2.51555 0
M  V30 5042 C 469.041 5.64411 1.76619 0
M  V30 5043 H 467.971 0.656841 0.370237 0
M  V30 5044 H 470.622 1.81969 0.236556 0
M  V30 5045 H 469.004 3.00241 2.58208 0
M  V30 5046 H 470.178 4.60307 0.21315 0
M  V30 5047 H 468.493 4.14922 0.350497 0
M  V30 5048 H 471.09 4.33849 3.12536 0
M  V30 5049 H 471.433 2.62905 3.22779 0
M  V30 5050 H 471.966 3.54797 1.799 0
M  V30 5051 H 468.705 6.46241 1.09783 0
M  V30 5052 H 468.225 5.45877 2.48551 0
M  V30 5053 H 469.904 6.03386 2.33527 0
M  V30 5054 N 470.036 -0.519951 1.48776 0
M  V30 5055 C 471.452 -0.849418 1.35119 0
M  V30 5056 C 471.652 -1.98077 0.36982 0
M  V30 5057 O 470.708 -2.51664 -0.205359 0
M  V30 5058 C 472.021 -1.20748 2.75391 0
M  V30 5059 C 473.569 -1.31679 2.83954 0
M  V30 5060 C 474.044 -1.70824 4.24951 0
M  V30 5061 N 475.535 -1.77908 4.27672 0
M  V30 5062 C 476.27 -2.09603 5.33717 0
M  V30 5063 N 475.766 -2.39652 6.5003 0
M  V30 5064 N 477.559 -2.10694 5.21119 0
M  V30 5065 H 469.71 0.226377 2.1119 0
M  V30 5066 H 471.973 0.0386519 0.947212 0
M  V30 5067 H 471.679 -0.449703 3.48813 0
M  V30 5068 H 471.553 -2.15534 3.09556 0
M  V30 5069 H 473.94 -2.06532 2.10781 0
M  V30 5070 H 474.021 -0.3499 2.53396 0
M  V30 5071 H 473.665 -0.965282 4.98643 0
M  V30 5072 H 473.595 -2.6858 4.52959 0
M  V30 5073 H 476.086 -1.56923 3.43779 0
M  V30 5074 H 476.399 -2.6297 7.26682 0
M  V30 5075 H 474.744 -2.37149 6.53288 0
M  V30 5076 H 477.935 -1.86682 4.29264 0
M  V30 5077 H 478.108 -2.35062 6.03863 0
M  V30 5078 N 471.514 -1.37532 -0.769588 0
M  V30 5079 C 472.739 -1.36231 -1.56384 0
M  V30 5080 C 473.164 0.0495849 -1.88035 0
M  V30 5081 O 472.522 1.02723 -1.49391 0
M  V30 5082 C 472.57 -2.20986 -2.84952 0
M  V30 5083 O 471.674 -1.61597 -3.79421 0
M  V30 5084 H 471.015 -0.465387 -0.473615 0
M  V30 5085 H 473.545 -1.81085 -0.952342 0
M  V30 5086 H 473.555 -2.34277 -3.34034 0
M  V30 5087 H 472.23 -3.23612 -2.61243 0
M  V30 5088 H 470.807 -1.57359 -3.38072 0
M  V30 5089 N 472.992 0.995999 -1.22138 0
M  V30 5090 C 474.22 1.77066 -1.07029 0
M  V30 5091 C 474.635 1.8495 0.379357 0
M  V30 5092 O 473.992 1.3174 1.26297 0
M  V30 5093 C 474.043 3.20533 -1.67155 0
M  V30 5094 O 473.764 3.13082 -3.06449 0
M  V30 5095 C 475.265 4.14461 -1.5728 0
M  V30 5096 H 472.485 0.556179 -0.375374 0
M  V30 5097 H 475.029 1.25238 -1.61666 0
M  V30 5098 H 473.184 3.6944 -1.16589 0
M  V30 5099 H 473.598 4.03283 -3.35355 0
M  V30 5100 H 475.072 5.1289 -2.04078 0
M  V30 5101 H 475.549 4.36005 -0.528795 0
M  V30 5102 H 476.155 3.71449 -2.07136 0
M  V30 5103 N 474.47 1.03057 1.19235 0
M  V30 5104 C 475.42 0.583386 2.2041 0
M  V30 5105 C 476.404 -0.368776 1.56617 0
M  V30 5106 O 477.596 -0.189471 1.75983 0
M  V30 5107 C 474.725 -0.0626534 3.43243 0
M  V30 5108 C 473.811 0.91205 4.14177 0
M  V30 5109 N 474.202 2.07514 4.61272 0
M  V30 5110 C 472.5 0.735859 4.39888 0
M  V30 5111 C 473.201 2.69003 5.15764 0
M  V30 5112 N 472.177 1.96954 5.06666 0
M  V30 5113 H 475.979 1.46988 2.54503 0
M  V30 5114 H 473.493 0.897785 1.35328 0
M  V30 5115 H 475.49 -0.400653 4.1497 0
M  V30 5116 H 474.15 -0.944813 3.1065 0
M  V30 5117 H 475.161 2.45448 4.56043 0
M  V30 5118 H 471.838 -0.0970656 4.17387 0
M  V30 5119 H 473.228 3.67514 5.6248 0
M  V30 5120 N 475.948 -1.35272 0.808662 0
M  V30 5121 C 477.364 -1.51806 0.492653 0
M  V30 5122 C 477.564 -1.7574 -0.985778 0
M  V30 5123 O 476.62 -1.80003 -1.77074 0
M  V30 5124 C 477.933 -2.69202 1.33981 0
M  V30 5125 C 479.481 -2.8308 1.33547 0
M  V30 5126 C 479.956 -4.03502 2.16679 0
M  V30 5127 N 481.447 -4.10684 2.14227 0
M  V30 5128 C 482.182 -5.02984 2.75308 0
M  V30 5129 N 481.678 -6.00603 3.45323 0
M  V30 5130 N 483.471 -4.95746 2.64938 0
M  V30 5131 H 475.622 -1.17993 1.76611 0
M  V30 5132 H 477.885 -0.577476 0.751814 0
M  V30 5133 H 477.591 -2.581 2.38909 0
M  V30 5134 H 477.465 -3.63854 0.994491 0
M  V30 5135 H 479.852 -2.93631 0.294036 0
M  V30 5136 H 479.933 -1.89278 1.72068 0
M  V30 5137 H 479.577 -3.93711 3.20864 0
M  V30 5138 H 479.507 -4.96489 1.75517 0
M  V30 5139 H 481.998 -3.40802 1.63285 0
M  V30 5140 H 482.311 -6.67633 3.89212 0
M  V30 5141 H 480.656 -6.0077 3.49428 0
M  V30 5142 H 483.847 -4.18439 2.09825 0
M  V30 5143 H 484.02 -5.67487 3.12829 0
M  V30 5144 N 477.426 -0.562348 -1.47226 0
M  V30 5145 C 478.651 -0.0432632 -2.07355 0
M  V30 5146 C 479.076 1.24332 -1.41149 0
M  V30 5147 O 478.434 1.74603 -0.488226 0
M  V30 5148 C 478.482 0.130288 -3.60365 0
M  V30 5149 O 477.586 1.19166 -3.94808 0
M  V30 5150 H 476.927 -0.0536334 -0.66183 0
M  V30 5151 H 479.457 -0.779495 -1.89169 0
M  V30 5152 H 479.467 0.342881 -4.06557 0
M  V30 5153 H 478.142 -0.809389 -4.07948 0
M  V30 5154 H 476.719 0.959153 -3.60354 0
M  V30 5155 N 478.904 1.54736 -0.299062 0
M  V30 5156 C 480.129 2.04975 0.316254 0
M  V30 5157 C 480.554 1.17501 1.46885 0
M  V30 5158 O 479.912 0.178678 1.80417 0
M  V30 5159 C 479.96 3.52672 0.751997 0
M  V30 5160 O 479.064 3.68226 1.85697 0
M  V30 5161 H 478.405 0.661126 0.0617175 0
M  V30 5162 H 480.935 1.99805 -0.440341 0
M  V30 5163 H 480.945 3.94488 1.04133 0
M  V30 5164 H 479.62 4.158 -0.0911482 0
M  V30 5165 H 478.197 3.38316 1.56834 0
M  V30 5166 N 480.382 0.0267497 1.57577 0
M  V30 5167 C 481.607 -0.666227 1.96408 0
M  V30 5168 C 482.032 -1.65004 0.903071 0
M  V30 5169 O 481.39 -1.80787 -0.136263 0
M  V30 5170 C 481.438 -1.35101 3.34335 0
M  V30 5171 O 480.542 -2.46623 3.30531 0
M  V30 5172 H 479.883 -0.175206 0.640468 0
M  V30 5173 H 482.413 0.0878977 2.04411 0
M  V30 5174 H 482.423 -1.70834 3.70513 0
M  V30 5175 H 481.098 -0.629844 4.11103 0
M  V30 5176 H 479.675 -2.13019 3.06068 0
M  V30 5177 N 481.861 -1.55662 -0.24637 0
M  V30 5178 C 482.791 -1.93377 -1.30873 0
M  V30 5179 C 483.772 -0.798773 -1.50179 0
M  V30 5180 O 484.957 -1.0591 -1.62778 0
M  V30 5181 C 482.087 -2.22893 -2.66338 0
M  V30 5182 C 481.041 -3.38649 -2.61727 0
M  V30 5183 C 480.367 -3.53708 -4.00992 0
M  V30 5184 C 481.667 -4.74323 -2.18666 0
M  V30 5185 H 483.361 -2.82363 -0.995552 0
M  V30 5186 H 480.907 -1.35854 -0.477464 0
M  V30 5187 H 482.86 -2.47866 -3.40794 0
M  V30 5188 H 481.584 -1.30733 -2.99293 0
M  V30 5189 H 480.243 -3.13685 -1.89729 0
M  V30 5190 H 479.891 -2.58967 -4.31214 0
M  V30 5191 H 479.591 -4.31551 -3.98795 0
M  V30 5192 H 481.115 -3.81003 -4.77147 0
M  V30 5193 H 482.529 -4.98665 -2.82854 0
M  V30 5194 H 480.926 -5.55273 -2.27579 0
M  V30 5195 H 481.996 -4.71349 -1.13834 0
M  V30 5196 N 483.339 0.512053 -1.4905 0
M  V30 5197 C 484.587 1.26436 -1.57665 0
M  V30 5198 C 484.908 1.93255 -0.260293 0
M  V30 5199 O 484.178 1.82206 0.719564 0
M  V30 5200 H 482.758 0.469658 -0.580888 0
M  V30 5201 H 485.42 0.594398 -1.85615 0
M  V30 5202 H 484.516 2.03417 -2.36702 0
M  V30 5203 N 484.817 1.37938 0.762283 0
M  V30 5204 C 486.066 1.32989 1.51647 0
M  V30 5205 C 486.379 -0.0802922 1.95435 0
M  V30 5206 O 487.585 -0.252295 2.70325 0
M  V30 5207 C 486.041 2.33485 2.73885 0
M  V30 5208 C 485.649 3.80079 2.37157 0
M  V30 5209 C 487.393 2.37563 3.51801 0
M  V30 5210 C 485.3 4.72283 3.55954 0
M  V30 5211 H 484.23 0.494301 0.56937 0
M  V30 5212 H 486.881 1.63448 0.834083 0
M  V30 5213 H 485.263 1.96056 3.44061 0
M  V30 5214 H 486.437 4.26398 1.74704 0
M  V30 5215 H 484.752 3.79037 1.72395 0
M  V30 5216 H 487.349 3.0365 4.40114 0
M  V30 5217 H 487.692 1.39199 3.92338 0
M  V30 5218 H 488.225 2.73747 2.8863 0
M  V30 5219 H 484.964 5.7181 3.2049 0
M  V30 5220 H 484.484 4.30663 4.1748 0
M  V30 5221 H 486.163 4.89876 4.22647 0
M  V30 5222 N 486.295 -0.989507 1.22664 0
M  V30 5223 C 487.706 -1.54406 1.04955 0
M  V30 5224 C 488.057 -1.92366 -0.385951 0
M  V30 5225 O 487.182 -1.75111 -1.27142 0
M  V30 5226 C 487.777 -2.80578 1.89899 0
M  V30 5227 C 486.336 -3.32464 1.76478 0
M  V30 5228 C 485.483 -2.05524 1.86159 0
M  V30 5229 H 488.434 -0.810211 1.3646 0
M  V30 5230 H 488.455 -3.53075 1.4184 0
M  V30 5231 H 487.967 -2.52918 2.94371 0
M  V30 5232 H 486.068 -3.65024 0.747528 0
M  V30 5233 H 486.181 -4.02838 2.59342 0
M  V30 5234 H 484.545 -2.19241 1.29636 0
M  V30 5235 H 485.328 -1.80258 2.92168 0
M  V30 5236 N 487.773 -1.03688 -1.18687 0
M  V30 5237 C 489.05 -0.652397 -1.84399 0
M  V30 5238 C 489.43 0.868386 -1.92412 0
M  V30 5239 O 488.778 1.76832 -1.44716 0
M  V30 5240 C 488.988 -1.3238 -3.22919 0
M  V30 5241 C 490.336 -1.45216 -3.98996 0
M  V30 5242 O 491.36 -1.2816 -3.32345 0
M  V30 5243 O 490.219 -1.72975 -5.18403 0
M  V30 5244 H 487.313 -0.227793 -0.795009 0
M  V30 5245 H 489.859 -1.13553 -1.2611 0
M  V30 5246 H 488.631 -2.36202 -3.11968 0
M  V30 5247 H 488.254 -0.829039 -3.88861 0
M  V30 5248 N 489.251 1.34841 -0.815825 0
M  V30 5249 C 490.214 2.27959 -0.238185 0
M  V30 5250 C 491.214 1.49983 0.579816 0
M  V30 5251 O 492.404 1.69617 0.396953 0
M  V30 5252 C 489.536 3.34314 0.666876 0
M  V30 5253 H 490.729 2.80558 -1.05958 0
M  V30 5254 H 488.282 1.44852 -0.587156 0
M  V30 5255 H 489.017 2.86916 1.5116 0
M  V30 5256 H 488.802 3.92014 0.0819106 0
M  V30 5257 H 490.292 4.0379 1.06506 0
M  V30 5258 N 490.729 0.570148 1.46925 0
M  V30 5259 C 492.006 -0.0153259 1.95594 0
M  V30 5260 C 492.386 -1.47232 1.51281 0
M  V30 5261 O 491.734 -2.15574 0.757624 0
M  V30 5262 C 491.944 0.143624 3.48704 0
M  V30 5263 C 493.292 0.00494484 4.246 0
M  V30 5264 O 494.316 0.0718214 3.56128 0
M  V30 5265 O 493.175 -0.141175 5.46318 0
M  V30 5266 H 490.269 -0.0568819 0.825041 0
M  V30 5267 H 492.815 0.637583 1.57267 0
M  V30 5268 H 491.587 1.15699 3.73804 0
M  V30 5269 H 491.21 -0.5463 3.93829 0
M  V30 5270 N 492.207 -1.54576 0.307264 0
M  V30 5271 C 493.447 -2.02172 -0.300962 0
M  V30 5272 C 493.811 -1.19081 -1.50611 0
M  V30 5273 O 495.012 -1.56405 -2.18612 0
M  V30 5274 C 493.283 -3.51576 -0.642591 0
M  V30 5275 S 494.842 -4.21127 -1.23279 0
M  V30 5276 H 491.66 -0.705021 -0.0920141 0
M  V30 5277 H 494.262 -1.90563 0.436594 0
M  V30 5278 H 492.966 -4.09681 0.242901 0
M  V30 5279 H 492.497 -3.67234 -1.41077 0
M  V30 5280 H 494.512 -4.27426 -2.52034 0
M  V30 5281 N 493.685 -0.035106 -1.57561 0
M  V30 5282 C 494.925 0.646316 -1.93913 0
M  V30 5283 C 495.289 1.68947 -0.912185 0
M  V30 5284 O 496.49 2.42381 -1.1621 0
M  V30 5285 C 494.761 1.24136 -3.35149 0
M  V30 5286 S 496.32 1.94302 -3.93436 0
M  V30 5287 H 493.138 0.212642 -0.678457 0
M  V30 5288 H 495.74 -0.100203 -1.95243 0
M  V30 5289 H 494.444 0.46979 -4.07702 0
M  V30 5290 H 493.975 2.02505 -3.37276 0
M  V30 5291 H 495.99 3.22205 -3.77357 0
M  V30 5292 N 495.163 1.55791 0.238111 0
M  V30 5293 C 496.579 1.48411 0.587045 0
M  V30 5294 C 496.779 0.72702 1.87927 0
M  V30 5295 O 495.835 0.259942 2.51158 0
M  V30 5296 C 497.148 2.92873 0.681623 0
M  V30 5297 C 498.696 3.03295 0.773363 0
M  V30 5298 C 499.171 4.49082 0.899428 0
M  V30 5299 N 500.662 4.53056 0.964075 0
M  V30 5300 C 501.397 5.63117 1.08104 0
M  V30 5301 N 500.893 6.82969 1.16299 0
M  V30 5302 N 502.686 5.50933 1.11488 0
M  V30 5303 H 494.837 2.0345 -0.610076 0
M  V30 5304 H 497.1 0.924034 -0.211813 0
M  V30 5305 H 496.806 3.51142 -0.19802 0
M  V30 5306 H 496.68 3.43851 1.55069 0
M  V30 5307 H 499.067 2.45101 1.64346 0
M  V30 5308 H 499.148 2.55513 -0.121034 0
M  V30 5309 H 498.792 5.07889 0.0338586 0
M  V30 5310 H 498.722 4.94553 1.809 0
M  V30 5311 H 501.213 3.66737 0.91173 0
M  V30 5312 H 501.526 7.62598 1.25155 0
M  V30 5313 H 499.871 6.85712 1.13241 0
M  V30 5314 H 503.062 4.56231 1.0474 0
M  V30 5315 H 503.235 6.36743 1.20259 0
M  V30 5316 N 496.642 -0.504142 1.49319 0
M  V30 5317 C 498.058 -0.835039 1.36012 0
M  V30 5318 C 498.258 -1.97674 0.390808 0
M  V30 5319 O 497.314 -2.51867 -0.178655 0
M  V30 5320 C 498.627 -1.17821 2.76656 0
M  V30 5321 C 500.175 -1.2866 2.85334 0
M  V30 5322 C 500.65 -1.66307 4.26739 0
M  V30 5323 N 502.141 -1.73362 4.29534 0
M  V30 5324 C 502.876 -2.0393 5.35911 0
M  V30 5325 N 502.372 -2.32744 6.52535 0
M  V30 5326 N 504.165 -2.05155 5.23324 0
M  V30 5327 H 496.316 0.248764 2.10938 0
M  V30 5328 H 498.579 0.0486962 0.946748 0
M  V30 5329 H 498.285 -0.412682 3.4927 0
M  V30 5330 H 498.159 -2.12239 3.11825 0
M  V30 5331 H 500.546 -2.04285 2.1296 0
M  V30 5332 H 500.627 -0.323004 2.53752 0
M  V30 5333 H 500.271 -0.91234 4.99639 0
M  V30 5334 H 500.201 -2.63761 4.55782 0
M  V30 5335 H 502.692 -1.53268 3.45424 0
M  V30 5336 H 503.005 -2.55248 7.2943 0
M  V30 5337 H 501.35 -2.30207 6.55767 0
M  V30 5338 H 504.541 -1.82119 4.3122 0
M  V30 5339 H 504.714 -2.28644 6.06322 0
M  V30 5340 N 498.12 -1.38341 -0.754957 0
M  V30 5341 C 499.07 -1.31964 -1.85929 0
M  V30 5342 C 500.054 -0.204181 -1.59599 0
M  V30 5343 O 501.246 -0.440036 -1.71443 0
M  V30 5344 C 498.375 -1.14565 -3.2362 0
M  V30 5345 C 497.461 -2.30727 -3.55846 0
M  V30 5346 N 497.852 -3.56165 -3.59138 0
M  V30 5347 C 496.15 -2.23249 -3.86104 0
M  V30 5348 C 496.851 -4.32865 -3.88591 0
M  V30 5349 N 495.827 -3.62203 -4.05351 0
M  V30 5350 H 499.629 -2.2694 -1.8675 0
M  V30 5351 H 497.143 -1.31553 -0.952243 0
M  V30 5352 H 499.14 -1.0808 -4.02647 0
M  V30 5353 H 497.8 -0.205212 -3.24051 0
M  V30 5354 H 498.811 -3.89854 -3.40932 0
M  V30 5355 H 495.488 -1.37357 -3.94258 0
M  V30 5356 H 496.878 -5.41504 -3.97773 0
M  V30 5357 N 499.598 0.982988 -1.23187 0
M  V30 5358 C 500.531 2.07302 -0.953993 0
M  V30 5359 C 501.509 1.62249 0.106753 0
M  V30 5360 O 502.693 1.88481 -0.0269525 0
M  V30 5361 C 499.82 3.35873 -0.436716 0
M  V30 5362 C 498.866 3.99862 -1.48367 0
M  V30 5363 S 499.699 4.39443 -3.06023 0
M  V30 5364 C 500.855 5.7117 -2.55959 0
M  V30 5365 H 501.088 2.30554 -1.87702 0
M  V30 5366 H 498.621 1.11883 -1.06403 0
M  V30 5367 H 500.579 4.10244 -0.144872 0
M  V30 5368 H 499.24 3.10634 0.465351 0
M  V30 5369 H 498.433 4.92471 -1.07182 0
M  V30 5370 H 498.035 3.31857 -1.72473 0
M  V30 5371 H 500.327 6.47977 -1.97818 0
M  V30 5372 H 501.27 6.17194 -3.47098 0
M  V30 5373 H 501.678 5.29046 -1.96902 0
M  V30 5374 N 501.076 1.04316 1.18135 0
M  V30 5375 C 501.986 0.646876 2.25505 0
M  V30 5376 C 503.002 -0.328008 1.7088 0
M  V30 5377 O 504.178 -0.182309 2.00573 0
M  V30 5378 C 501.243 0.0185664 3.46695 0
M  V30 5379 C 500.304 1.04277 4.16443 0
M  V30 5380 C 499.537 0.444352 5.31847 0
M  V30 5381 O 499.76 -0.748735 5.65465 0
M  V30 5382 O 498.694 1.17428 5.90334 0
M  V30 5383 H 502.52 1.54147 2.61672 0
M  V30 5384 H 500.105 0.814188 1.25265 0
M  V30 5385 H 501.987 -0.331068 4.20097 0
M  V30 5386 H 500.662 -0.849814 3.12346 0
M  V30 5387 H 499.569 1.44425 3.45098 0
M  V30 5388 H 500.902 1.882 4.54798 0
M  V30 5389 N 502.554 -1.34406 0.822964 0
M  V30 5390 C 503.801 -1.98284 0.411057 0
M  V30 5391 C 504.129 -1.65245 -1.02588 0
M  V30 5392 O 503.384 -0.91619 -1.72929 0
M  V30 5393 C 503.683 -3.52981 0.560268 0
M  V30 5394 C 503.349 -4.05931 1.96293 0
M  V30 5395 C 502.011 -4.20103 2.34664 0
M  V30 5396 C 504.363 -4.34412 2.87985 0
M  V30 5397 C 501.691 -4.60082 3.64062 0
M  V30 5398 C 504.043 -4.75838 4.16847 0
M  V30 5399 C 502.707 -4.88215 4.55195 0
M  V30 5400 H 501.977 -0.725573 0.150416 0
M  V30 5401 H 504.624 -1.60349 1.04692 0
M  V30 5402 H 502.929 -3.91477 -0.158982 0
M  V30 5403 H 504.626 -4.00385 0.222087 0
M  V30 5404 H 501.216 -3.95363 1.65487 0
M  V30 5405 H 505.4 -4.23001 2.59584 0
M  V30 5406 H 500.656 -4.67856 3.93599 0
M  V30 5407 H 504.83 -4.96834 4.87984 0
M  V30 5408 H 502.457 -5.18952 5.55512 0
M  V30 5409 N 504.032 -0.577932 -1.46621 0
M  V30 5410 C 505.448 -0.239242 -1.57797 0
M  V30 5411 C 505.648 1.25843 -1.57371 0
M  V30 5412 O 504.704 2.03988 -1.48813 0
M  V30 5413 C 506.017 -0.884227 -2.87405 0
M  V30 5414 C 507.565 -0.857373 -3.01028 0
M  V30 5415 C 508.04 -1.48181 -4.33366 0
M  V30 5416 N 509.531 -1.44593 -4.40053 0
M  V30 5417 C 510.266 -1.89852 -5.41058 0
M  V30 5418 N 509.762 -2.43062 -6.48762 0
M  V30 5419 N 511.555 -1.80797 -5.3223 0
M  V30 5420 H 503.706 -1.55073 -1.45142 0
M  V30 5421 H 505.969 -0.647903 -0.692044 0
M  V30 5422 H 505.675 -1.93759 -2.93514 0
M  V30 5423 H 505.549 -0.389585 -3.75183 0
M  V30 5424 H 507.936 0.187357 -2.94505 0
M  V30 5425 H 508.017 -1.38999 -2.14739 0
M  V30 5426 H 507.661 -2.52572 -4.40647 0
M  V30 5427 H 507.591 -0.924464 -5.18422 0
M  V30 5428 H 510.082 -1.05694 -3.62819 0
M  V30 5429 H 510.395 -2.75466 -7.22038 0
M  V30 5430 H 508.74 -2.47085 -6.49595 0
M  V30 5431 H 511.931 -1.38989 -4.46989 0
M  V30 5432 H 512.104 -2.16385 -6.10804 0
M  V30 5433 N 505.51 1.54411 -0.315457 0
M  V30 5434 C 506.457 2.24048 0.554166 0
M  V30 5435 C 507.427 1.2283 1.11812 0
M  V30 5436 O 508.612 1.51491 1.15997 0
M  V30 5437 C 505.752 2.99574 1.71316 0
M  V30 5438 C 504.865 4.15594 1.17922 0
M  V30 5439 C 504 4.78669 2.30324 0
M  V30 5440 C 503.039 5.86807 1.74137 0
M  V30 5441 N 502.176 6.43777 2.8017 0
M  V30 5442 H 507.016 2.97964 -0.0462602 0
M  V30 5443 H 504.553 1.47059 -0.0346009 0
M  V30 5444 H 506.511 3.41604 2.39505 0
M  V30 5445 H 505.141 2.28008 2.285 0
M  V30 5446 H 504.193 3.78404 0.389136 0
M  V30 5447 H 505.505 4.93459 0.728012 0
M  V30 5448 H 504.659 5.23626 3.06433 0
M  V30 5449 H 503.398 4.00168 2.78778 0
M  V30 5450 H 502.403 5.41261 0.965236 0
M  V30 5451 H 503.628 6.67201 1.2657 0
M  V30 5452 H 501.574 5.68153 3.2793 0
M  V30 5453 H 501.491 7.17031 2.39588 0
M  V30 5454 H 502.759 6.9339 3.56132 0
M  V30 5455 N 506.988 0.0434614 1.5754 0
M  V30 5456 C 507.918 -0.931651 2.14109 0
M  V30 5457 C 508.899 -1.32971 1.06079 0
M  V30 5458 O 510.084 -1.40579 1.33982 0
M  V30 5459 C 507.214 -2.20914 2.67982 0
M  V30 5460 C 506.168 -1.95139 3.80926 0
M  V30 5461 C 505.494 -3.29276 4.21285 0
M  V30 5462 C 506.794 -1.27913 5.06395 0
M  V30 5463 H 508.488 -0.460497 2.95837 0
M  V30 5464 H 506.034 -0.220058 1.42309 0
M  V30 5465 H 507.987 -2.89522 3.06194 0
M  V30 5466 H 506.711 -2.70221 1.83434 0
M  V30 5467 H 505.37 -1.28945 3.43175 0
M  V30 5468 H 505.018 -3.76369 3.33699 0
M  V30 5469 H 504.718 -3.12831 4.97404 0
M  V30 5470 H 506.242 -3.99129 4.62091 0
M  V30 5471 H 507.656 -1.86544 5.42102 0
M  V30 5472 H 506.053 -1.2182 5.87605 0
M  V30 5473 H 507.123 -0.254066 4.84234 0
M  V30 5474 N 508.466 -1.55915 -0.229846 0
M  V30 5475 C 509.882 -1.48721 -0.579166 0
M  V30 5476 C 510.082 -0.736976 -1.87539 0
M  V30 5477 O 509.138 -0.273258 -2.51017 0
M  V30 5478 C 510.451 -2.9323 -0.666082 0
M  V30 5479 C 511.999 -3.03701 -0.757267 0
M  V30 5480 C 512.474 -4.49552 -0.8756 0
M  V30 5481 N 513.965 -4.53561 -0.940035 0
M  V30 5482 C 514.7 -5.63683 -1.05116 0
M  V30 5483 N 514.196 -6.83576 -1.12675 0
M  V30 5484 N 515.989 -5.51516 -1.08565 0
M  V30 5485 H 508.14 -2.03123 0.620857 0
M  V30 5486 H 510.403 -0.922898 0.21671 0
M  V30 5487 H 510.109 -3.51032 0.21664 0
M  V30 5488 H 509.983 -3.44668 -1.53243 0
M  V30 5489 H 512.37 -2.45969 -1.63043 0
M  V30 5490 H 512.451 -2.55446 0.134583 0
M  V30 5491 H 512.095 -5.079 -0.00692351 0
M  V30 5492 H 512.025 -4.95506 -1.78274 0
M  V30 5493 H 514.516 -3.67215 -0.892269 0
M  V30 5494 H 514.829 -7.63251 -1.21109 0
M  V30 5495 H 513.174 -6.86303 -1.09603 0
M  V30 5496 H 516.365 -4.5678 -1.02319 0
M  V30 5497 H 516.538 -6.37372 -1.1688 0
M  V30 5498 N 509.944 0.496216 -1.49584 0
M  V30 5499 C 511.192 1.24756 -1.58998 0
M  V30 5500 C 511.513 1.92968 -0.280775 0
M  V30 5501 O 510.783 1.82959 0.700198 0
M  V30 5502 H 509.363 0.463471 -0.585836 0
M  V30 5503 H 512.025 0.574678 -1.86235 0
M  V30 5504 H 511.121 2.00895 -2.38847 0
M  V30 5505 N 511.423 1.38739 0.74761 0
M  V30 5506 C 512.356 1.3083 1.86972 0
M  V30 5507 C 513.334 0.184229 1.61553 0
M  V30 5508 O 514.518 0.36256 1.8498 0
M  V30 5509 C 511.645 1.02854 3.22705 0
M  V30 5510 C 510.691 2.17281 3.67003 0
M  V30 5511 S 511.524 3.79468 3.77842 0
M  V30 5512 C 512.68 3.53692 5.16385 0
M  V30 5513 H 512.913 2.258 1.93395 0
M  V30 5514 H 510.446 1.24646 0.911199 0
M  V30 5515 H 512.404 0.87397 4.01089 0
M  V30 5516 H 511.065 0.0959295 3.13953 0
M  V30 5517 H 510.258 1.93267 4.65472 0
M  V30 5518 H 509.86 2.28876 2.9579 0
M  V30 5519 H 512.152 3.10176 6.02327 0
M  V30 5520 H 513.095 4.51576 5.45422 0
M  V30 5521 H 513.503 2.8807 4.85464 0
M  V30 5522 N 512.901 -0.976442 1.23707 0
M  V30 5523 C 513.811 -2.10359 1.03856 0
M  V30 5524 C 514.827 -1.73991 -0.0180919 0
M  V30 5525 O 516.003 -2.0061 0.178211 0
M  V30 5526 C 513.068 -3.40809 0.636387 0
M  V30 5527 C 512.129 -3.91179 1.76854 0
M  V30 5528 C 511.362 -5.15404 1.38546 0
M  V30 5529 O 511.585 -5.69754 0.27142 0
M  V30 5530 O 510.519 -5.5994 2.20797 0
M  V30 5531 H 514.345 -2.29997 1.98331 0
M  V30 5532 H 511.93 -1.08742 1.02448 0
M  V30 5533 H 513.812 -4.19269 0.423223 0
M  V30 5534 H 512.487 -3.22493 -0.279322 0
M  V30 5535 H 511.394 -3.13819 2.03638 0
M  V30 5536 H 512.727 -4.13958 2.6627 0
M  V30 5537 N 514.379 -1.04941 -1.1758 0
M  V30 5538 C 515.607 -0.778294 -1.91703 0
M  V30 5539 C 516.022 0.665697 -1.76675 0
M  V30 5540 O 515.379 1.45456 -1.10222 0
M  V30 5541 C 515.43 -1.14628 -3.42845 0
M  V30 5542 O 515.151 -2.53359 -3.57409 0
M  V30 5543 C 516.652 -0.900931 -4.34049 0
M  V30 5544 H 513.872 -0.283167 -0.608323 0
M  V30 5545 H 516.416 -1.39942 -1.49119 0
M  V30 5546 H 514.571 -0.569953 -3.83184 0
M  V30 5547 H 514.985 -2.67709 -4.51035 0
M  V30 5548 H 516.459 -1.20817 -5.38616 0
M  V30 5549 H 516.936 0.163966 -4.38894 0
M  V30 5550 H 517.542 -1.46097 -3.99419 0
M  V30 5551 N 515.857 1.33968 -0.830081 0
M  V30 5552 C 517.273 1.51003 -0.516742 0
M  V30 5553 C 517.473 1.77286 0.957694 0
M  V30 5554 O 516.529 1.82797 1.74188 0
M  V30 5555 C 517.842 2.67036 -1.38247 0
M  V30 5556 C 519.39 2.80919 -1.38034 0
M  V30 5557 C 519.865 4.00004 -2.23071 0
M  V30 5558 N 521.356 4.07224 -2.20733 0
M  V30 5559 C 522.091 4.98541 -2.83275 0
M  V30 5560 N 521.587 5.95033 -3.54835 0
M  V30 5561 N 523.38 4.91469 -2.72791 0
M  V30 5562 H 515.531 1.15168 -1.78466 0
M  V30 5563 H 517.794 0.565443 -0.760906 0
M  V30 5564 H 517.5 2.54266 -2.42985 0
M  V30 5565 H 517.374 3.62226 -1.05225 0
M  V30 5566 H 519.761 2.93127 -0.340713 0
M  V30 5567 H 519.842 1.86517 -1.75057 0
M  V30 5568 H 519.486 3.88557 -3.27087 0
M  V30 5569 H 519.416 4.93634 -1.83394 0
M  V30 5570 H 521.907 3.38162 -1.68687 0
M  V30 5571 H 522.22 6.61357 -3.99784 0
M  V30 5572 H 520.565 5.95135 -3.58942 0
M  V30 5573 H 523.756 4.15048 -2.16456 0
M  V30 5574 H 523.929 5.62439 -3.21818 0
M  V30 5575 N 517.335 0.585699 1.46312 0
M  V30 5576 C 518.746 0.159938 1.86014 0
M  V30 5577 C 519.097 -1.27775 1.48889 0
M  V30 5578 O 518.222 -1.96559 0.90519 0
M  V30 5579 C 518.817 0.283485 3.37612 0
M  V30 5580 C 517.376 -0.0874256 3.76298 0
M  V30 5581 C 516.523 0.618055 2.70325 0
M  V30 5582 H 519.474 0.793737 1.37425 0
M  V30 5583 H 519.495 -0.490348 3.77327 0
M  V30 5584 H 519.007 1.32995 3.64601 0
M  V30 5585 H 517.108 -1.13391 3.54927 0
M  V30 5586 H 517.221 0.290975 4.78216 0
M  V30 5587 H 515.585 0.057993 2.54634 0
M  V30 5588 H 516.368 1.66623 3.00153 0
M  V30 5589 N 518.813 -1.54241 0.323641 0
M  V30 5590 C 520.224 -1.85975 -0.164405 0
M  V30 5591 C 520.575 -1.24529 -1.51615 0
M  V30 5592 O 519.7 -0.551351 -2.09258 0
M  V30 5593 C 520.295 -3.37424 -0.305091 0
M  V30 5594 C 518.854 -3.69107 -0.737358 0
M  V30 5595 C 518.001 -2.76942 0.140884 0
M  V30 5596 H 520.952 -1.49088 0.543922 0
M  V30 5597 H 520.973 -3.63147 -1.13598 0
M  V30 5598 H 520.485 -3.82116 0.678876 0
M  V30 5599 H 518.586 -3.29947 -1.73107 0
M  V30 5600 H 518.699 -4.76035 -0.541053 0
M  V30 5601 H 517.063 -2.51795 -0.383572 0
M  V30 5602 H 517.846 -3.24461 1.12162 0
M  V30 5603 N 520.291 -0.0518155 -1.57515 0
M  V30 5604 C 521.254 0.907547 -2.10467 0
M  V30 5605 C 522.254 1.23947 -1.02439 0
M  V30 5606 O 523.444 1.17604 -1.2851 0
M  V30 5607 C 520.576 2.21723 -2.58944 0
M  V30 5608 H 521.769 0.44851 -2.96527 0
M  V30 5609 H 519.322 0.196598 -1.55059 0
M  V30 5610 H 520.057 2.72206 -1.76279 0
M  V30 5611 H 519.842 1.98935 -3.37886 0
M  V30 5612 H 521.332 2.90441 -3.00056 0
M  V30 5613 N 521.769 1.56035 0.221574 0
M  V30 5614 C 522.717 1.93269 1.29421 0
M  V30 5615 C 523.711 0.814727 1.48521 0
M  V30 5616 O 524.917 0.999559 1.49696 0
M  V30 5617 H 521.292 0.614188 0.43391 0
M  V30 5618 H 523.263 2.82773 0.952987 0
M  V30 5619 C 522.012 2.26573 2.63742 0
M  V30 5620 H 521.335 3.12112 2.49853 0
M  V30 5621 H 522.775 2.5651 3.37607 0
M  V30 5622 C 521.234 1.09086 3.1875 0
M  V30 5623 O 521.764 0.351985 4.00155 0
M  V30 5624 N 519.97 0.874693 2.77124 0
M  V30 5625 H 519.517 1.47726 2.11033 0
M  V30 5626 H 519.475 0.0903349 3.1427 0
M  V30 5627 N 523.247 -0.488276 1.49845 0
M  V30 5628 C 524.475 -1.26527 1.63702 0
M  V30 5629 C 524.89 -1.8618 0.313447 0
M  V30 5630 O 524.247 -1.68432 -0.702624 0
M  V30 5631 C 524.298 -2.3864 2.71538 0
M  V30 5632 O 524.019 -1.81437 3.98763 0
M  V30 5633 C 525.52 -3.29805 2.96215 0
M  V30 5634 H 522.74 -0.383295 0.55075 0
M  V30 5635 H 525.284 -0.584779 1.95961 0
M  V30 5636 H 523.439 -3.02496 2.42023 0
M  V30 5637 H 523.853 -2.55135 4.58265 0
M  V30 5638 H 525.327 -4.04722 3.75372 0
M  V30 5639 H 525.804 -3.87563 2.06619 0
M  V30 5640 H 526.41 -2.71703 3.27196 0
M  V30 5641 N 524.725 -1.39134 -0.740242 0
M  V30 5642 C 525.688 -1.37217 -1.83587 0
M  V30 5643 C 526.688 -0.270221 -1.58513 0
M  V30 5644 O 527.878 -0.527843 -1.6601 0
M  V30 5645 C 525.01 -1.13959 -3.21288 0
M  V30 5646 H 526.203 -2.34705 -1.86691 0
M  V30 5647 H 523.756 -1.24622 -0.94335 0
M  V30 5648 H 524.491 -0.17131 -3.23847 0
M  V30 5649 H 524.276 -1.93754 -3.40884 0
M  V30 5650 H 525.766 -1.15346 -4.01354 0
M  V30 5651 N 526.204 0.969867 -1.24223 0
M  V30 5652 C 527.62 1.23809 -1.00716 0
M  V30 5653 C 527.82 1.99469 0.285358 0
M  V30 5654 O 526.876 2.31764 1.00207 0
M  V30 5655 C 528.189 2.02734 -2.2208 0
M  V30 5656 C 529.737 2.15834 -2.26681 0
M  V30 5657 C 530.212 2.98154 -3.47661 0
M  V30 5658 N 531.703 3.05737 -3.47964 0
M  V30 5659 C 532.438 3.69785 -4.38231 0
M  V30 5660 N 531.934 4.35569 -5.3875 0
M  V30 5661 N 533.727 3.66775 -4.25949 0
M  V30 5662 H 525.878 0.463294 -2.07286 0
M  V30 5663 H 528.141 0.267348 -0.909521 0
M  V30 5664 H 527.847 1.54524 -3.15935 0
M  V30 5665 H 527.721 3.0347 -2.24021 0
M  V30 5666 H 530.108 2.63248 -1.33359 0
M  V30 5667 H 530.189 1.14453 -2.28767 0
M  V30 5668 H 529.833 2.51435 -4.41297 0
M  V30 5669 H 529.763 3.99729 -3.42818 0
M  V30 5670 H 532.254 2.58941 -2.75242 0
M  V30 5671 H 532.567 4.82251 -6.03866 0
M  V30 5672 H 530.912 4.34244 -5.42639 0
M  V30 5673 H 534.103 3.14558 -3.46657 0
M  V30 5674 H 534.276 4.16407 -4.96497 0
M  V30 5675 N 527.682 1.05563 1.17022 0
M  V30 5676 C 528.612 0.681026 2.23348 0
M  V30 5677 C 529.593 -0.322983 1.67005 0
M  V30 5678 O 530.778 -0.199746 1.9317 0
M  V30 5679 C 527.908 0.0589053 3.4725 0
M  V30 5680 C 526.862 0.988082 4.16438 0
M  V30 5681 C 526.188 0.229646 5.34207 0
M  V30 5682 C 527.488 2.31388 4.68249 0
M  V30 5683 H 529.182 1.56993 2.54938 0
M  V30 5684 H 526.728 0.756302 1.2254 0
M  V30 5685 H 528.681 -0.214982 4.20851 0
M  V30 5686 H 527.405 -0.864968 3.14938 0
M  V30 5687 H 526.064 1.24659 3.44754 0
M  V30 5688 H 525.712 -0.697111 4.98146 0
M  V30 5689 H 525.412 0.848815 5.81437 0
M  V30 5690 H 526.936 -0.0368694 6.10589 0
M  V30 5691 H 528.35 2.09964 5.33468 0
M  V30 5692 H 526.747 2.88736 5.26072 0
M  V30 5693 H 527.817 2.94982 3.84855 0
M  V30 5694 N 529.16 -1.33526 0.837174 0
M  V30 5695 C 530.092 -2.28077 0.226579 0
M  V30 5696 C 531.105 -1.51666 -0.591717 0
M  V30 5697 O 532.294 -1.73511 -0.419064 0
M  V30 5698 C 529.394 -3.31597 -0.69978 0
M  V30 5699 C 528.567 -4.37329 0.0788067 0
M  V30 5700 C 527.626 -5.20526 -0.770637 0
M  V30 5701 O 526.652 -5.68811 -0.210453 0
M  V30 5702 N 527.854 -5.41639 -2.08825 0
M  V30 5703 H 530.619 -2.81115 1.03897 0
M  V30 5704 H 528.18 -1.46201 0.695476 0
M  V30 5705 H 530.172 -3.84158 -1.27298 0
M  V30 5706 H 528.742 -2.78848 -1.41288 0
M  V30 5707 H 527.962 -3.8529 0.833381 0
M  V30 5708 H 529.25 -5.05079 0.614238 0
M  V30 5709 H 528.648 -5.04108 -2.56693 0
M  V30 5710 H 527.205 -5.97263 -2.60998 0
M  V30 5711 N 530.638 -0.59345 -1.46 0
M  V30 5712 C 532.049 -0.169801 -1.85926 0
M  V30 5713 C 532.4 1.26984 -1.49565 0
M  V30 5714 O 531.525 1.96076 -0.915602 0
M  V30 5715 C 532.12 -0.301385 -3.37457 0
M  V30 5716 C 530.679 0.0674684 -3.7634 0
M  V30 5717 C 529.826 -0.632383 -2.69993 0
M  V30 5718 H 532.777 -0.801014 -1.37002 0
M  V30 5719 H 532.798 0.470331 -3.77582 0
M  V30 5720 H 532.31 -1.34927 -3.63891 0
M  V30 5721 H 530.411 1.11507 -3.55523 0
M  V30 5722 H 530.524 -0.316332 -4.78055 0
M  V30 5723 H 528.888 -0.0714961 -2.546 0
M  V30 5724 H 529.671 -1.68212 -2.99265 0
M  V30 5725 N 532.116 1.54067 -0.331816 0
M  V30 5726 C 533.527 1.86059 0.15454 0
M  V30 5727 C 533.878 1.25331 1.50952 0
M  V30 5728 O 533.003 0.562441 2.08963 0
M  V30 5729 C 533.598 3.37581 0.287192 0
M  V30 5730 C 532.157 3.69493 0.717773 0
M  V30 5731 C 531.304 2.76863 -0.155569 0
M  V30 5732 H 534.255 1.48797 -0.55182 0
M  V30 5733 H 534.276 3.63744 1.11671 0
M  V30 5734 H 533.788 3.81751 -0.699131 0
M  V30 5735 H 531.889 3.3086 1.71354 0
M  V30 5736 H 532.002 4.76315 0.5158 0
M  V30 5737 H 530.366 2.51995 0.370213 0
M  V30 5738 H 531.149 3.23861 -1.13881 0
M  V30 5739 N 533.594 0.0601682 1.57485 0
M  V30 5740 C 535.01 -0.296422 1.56823 0
M  V30 5741 C 535.21 -1.70831 1.0686 0
M  V30 5742 O 534.266 -2.4174 0.729245 0
M  V30 5743 C 535.579 -0.116681 3.00474 0
M  V30 5744 C 537.127 -0.187103 3.1244 0
M  V30 5745 C 537.602 -0.035783 4.57986 0
M  V30 5746 N 539.093 -0.0917676 4.63109 0
M  V30 5747 C 539.828 0.00107251 5.734 0
M  V30 5748 N 539.324 0.146773 6.92645 0
M  V30 5749 N 541.117 -0.0551577 5.62073 0
M  V30 5750 H 533.268 0.983055 1.88281 0
M  V30 5751 H 535.531 0.382386 0.867459 0
M  V30 5752 H 535.237 0.85712 3.41096 0
M  V30 5753 H 535.111 -0.873929 3.66936 0
M  V30 5754 H 537.498 -1.15138 2.71712 0
M  V30 5755 H 537.579 0.601052 2.48638 0
M  V30 5756 H 537.223 0.925212 4.99402 0
M  V30 5757 H 537.153 -0.843196 5.19806 0
M  V30 5758 H 539.644 -0.203261 3.77353 0
M  V30 5759 H 539.957 0.210076 7.72514 0
M  V30 5760 H 538.302 0.181979 6.94762 0
M  V30 5761 H 541.493 -0.167605 4.678 0
M  V30 5762 H 541.666 0.020652 6.47997 0
M  V30 5763 N 535.072 -1.5615 -0.213296 0
M  V30 5764 C 536.349 -1.70349 -0.961281 0
M  V30 5765 C 536.729 -0.609791 -2.02101 0
M  V30 5766 O 536.077 0.381987 -2.25285 0
M  V30 5767 C 536.287 -3.11982 -1.56424 0
M  V30 5768 C 537.635 -3.71649 -2.05334 0
M  V30 5769 O 538.659 -3.14995 -1.66302 0
M  V30 5770 O 537.518 -4.71038 -2.77102 0
M  V30 5771 H 534.612 -0.694121 -0.449582 0
M  V30 5772 H 537.158 -1.68464 -0.204426 0
M  V30 5773 H 535.93 -3.83046 -0.799457 0
M  V30 5774 H 535.553 -3.18019 -2.38641 0
M  V30 5775 N 536.55 0.480323 -1.50102 0
M  V30 5776 C 537.48 1.58769 -1.71215 0
M  V30 5777 C 538.461 1.60583 -0.560997 0
M  V30 5778 O 539.646 1.76996 -0.799127 0
M  V30 5779 C 536.776 2.97148 -1.79778 0
M  V30 5780 C 535.73 3.10201 -2.94888 0
M  V30 5781 C 535.056 4.50137 -2.88584 0
M  V30 5782 C 536.356 2.88283 -4.35534 0
M  V30 5783 H 538.05 1.41354 -2.6393 0
M  V30 5784 H 535.596 0.678591 -1.27008 0
M  V30 5785 H 537.549 3.74536 -1.93133 0
M  V30 5786 H 536.273 3.15699 -0.836772 0
M  V30 5787 H 534.932 2.35244 -2.81169 0
M  V30 5788 H 534.58 4.65593 -1.90349 0
M  V30 5789 H 534.28 4.59808 -3.65856 0
M  V30 5790 H 535.804 5.29558 -3.03976 0
M  V30 5791 H 537.218 3.55427 -4.49827 0
M  V30 5792 H 535.615 3.09408 -5.14186 0
M  V30 5793 H 536.685 1.84219 -4.48544 0
M  V30 5794 N 538.028 1.39524 0.732853 0
M  V30 5795 C 539.444 1.21176 1.03868 0
M  V30 5796 C 539.644 0.0748448 2.01361 0
M  V30 5797 O 538.7 -0.57281 2.45917 0
M  V30 5798 C 540.013 2.54667 1.59892 0
M  V30 5799 C 541.561 2.6153 1.71962 0
M  V30 5800 C 542.036 3.95248 2.31394 0
M  V30 5801 N 543.527 3.96899 2.38801 0
M  V30 5802 C 544.262 4.97138 2.85729 0
M  V30 5803 N 543.758 6.07775 3.32537 0
M  V30 5804 N 545.551 4.84516 2.84957 0
M  V30 5805 H 537.702 2.12225 0.086304 0
M  V30 5806 H 539.965 0.942614 0.100907 0
M  V30 5807 H 539.671 3.38423 0.95721 0
M  V30 5808 H 539.545 2.74538 2.58668 0
M  V30 5809 H 541.932 1.78156 2.35254 0
M  V30 5810 H 542.013 2.45507 0.718327 0
M  V30 5811 H 541.657 4.79054 1.68729 0
M  V30 5812 H 541.587 4.08593 3.32204 0
M  V30 5813 H 544.078 3.16998 2.05719 0
M  V30 5814 H 544.391 6.8017 3.66862 0
M  V30 5815 H 542.736 6.11366 3.30541 0
M  V30 5816 H 545.927 3.97185 2.47713 0
M  V30 5817 H 546.1 5.62783 3.21215 0
M  V30 5818 N 539.506 -0.963266 1.24736 0
M  V30 5819 C 540.731 -1.74699 1.11781 0
M  V30 5820 C 541.156 -1.85267 -0.325258 0
M  V30 5821 O 540.514 -1.32681 -1.23553 0
M  V30 5822 C 540.562 -3.14322 1.76731 0
M  V30 5823 O 539.666 -3.99043 1.04109 0
M  V30 5824 H 539.007 -0.53684 0.390767 0
M  V30 5825 H 541.537 -1.20801 1.65131 0
M  V30 5826 H 541.547 -3.64824 1.82668 0
M  V30 5827 H 540.222 -3.05946 2.81726 0
M  V30 5828 H 538.799 -3.5752 1.05991 0
M  V30 5829 N 540.985 -1.06182 -1.16461 0
M  V30 5830 C 542.21 -0.798599 -1.91408 0
M  V30 5831 C 542.635 0.640987 -1.76842 0
M  V30 5832 O 541.993 1.44652 -1.09296 0
M  V30 5833 C 542.041 -1.19665 -3.40165 0
M  V30 5834 O 541.145 -0.334768 -4.11039 0
M  V30 5835 H 540.486 -0.291961 -0.596368 0
M  V30 5836 H 543.016 -1.41732 -1.47557 0
M  V30 5837 H 543.026 -1.16772 -3.90933 0
M  V30 5838 H 541.701 -2.24526 -3.50087 0
M  V30 5839 H 540.278 -0.425168 -3.70468 0
M  V30 5840 N 542.463 1.3308 -0.844243 0
M  V30 5841 C 543.688 2.02341 -0.455282 0
M  V30 5842 C 544.113 1.6308 0.93737 0
M  V30 5843 O 543.471 0.826118 1.61385 0
M  V30 5844 C 543.519 3.55743 -0.58988 0
M  V30 5845 O 542.623 4.1063 0.38166 0
M  V30 5846 H 541.964 0.637898 -0.184343 0
M  V30 5847 H 544.494 1.6986 -1.14056 0
M  V30 5848 H 544.504 4.05243 -0.473522 0
M  V30 5849 H 543.179 3.83662 -1.60549 0
M  V30 5850 H 541.756 3.72236 0.22241 0
M  V30 5851 N 543.941 0.601185 1.45683 0
M  V30 5852 C 545.352 0.179659 1.85834 0
M  V30 5853 C 545.703 -1.26189 1.50236 0
M  V30 5854 O 544.828 -1.95587 0.925987 0
M  V30 5855 C 545.423 0.319277 3.37292 0
M  V30 5856 C 543.982 -0.0475092 3.7637 0
M  V30 5857 C 543.129 0.646692 2.69654 0
M  V30 5858 H 546.08 0.808268 1.36575 0
M  V30 5859 H 546.101 -0.4503 3.77826 0
M  V30 5860 H 545.613 1.36855 3.6317 0
M  V30 5861 H 543.714 -1.0962 3.5611 0
M  V30 5862 H 543.827 0.34168 4.7788 0
M  V30 5863 H 542.191 0.0849971 2.54558 0
M  V30 5864 H 542.974 1.69797 2.98369 0
M  V30 5865 N 545.419 -1.53889 0.339982 0
M  V30 5866 C 546.835 -1.59595 -0.0120752 0
M  V30 5867 C 547.035 -1.35605 -1.49042 0
M  V30 5868 O 546.091 -1.14856 -2.24865 0
M  V30 5869 C 547.404 -2.9774 0.420898 0
M  V30 5870 C 548.952 -3.1077 0.37294 0
M  V30 5871 C 549.427 -4.51286 0.781327 0
M  V30 5872 N 550.918 -4.57325 0.735374 0
M  V30 5873 C 551.653 -5.64194 1.02336 0
M  V30 5874 N 551.149 -6.7893 1.37933 0
M  V30 5875 N 552.942 -5.54051 0.947838 0
M  V30 5876 H 545.093 -1.67738 1.30299 0
M  V30 5877 H 547.356 -0.785385 0.530918 0
M  V30 5878 H 547.062 -3.20349 1.45152 0
M  V30 5879 H 546.936 -3.76639 -0.205721 0
M  V30 5880 H 549.323 -2.87886 -0.648505 0
M  V30 5881 H 549.404 -2.33939 1.03472 0
M  V30 5882 H 549.048 -4.74905 1.80077 0
M  V30 5883 H 548.978 -5.26511 0.0970679 0
M  V30 5884 H 551.469 -3.74931 0.472773 0
M  V30 5885 H 551.782 -7.56392 1.58402 0
M  V30 5886 H 550.127 -6.80386 1.41774 0
M  V30 5887 H 553.318 -4.63293 0.669115 0
M  V30 5888 H 553.491 -6.37246 1.17563 0
M  V30 5889 N 546.897 -0.0685191 -1.57451 0
M  V30 5890 C 547.844 0.899861 -2.12535 0
M  V30 5891 C 548.814 1.29749 -1.03703 0
M  V30 5892 O 549.999 1.38392 -1.31348 0
M  V30 5893 C 547.139 2.16328 -2.6888 0
M  V30 5894 C 546.252 1.81857 -3.91857 0
M  V30 5895 C 545.387 3.02786 -4.36457 0
M  V30 5896 C 544.426 2.64317 -5.5209 0
M  V30 5897 N 543.563 3.77994 -5.91663 0
M  V30 5898 H 548.403 0.423243 -2.94979 0
M  V30 5899 H 545.94 0.197268 -1.45771 0
M  V30 5900 H 547.898 2.90281 -2.99655 0
M  V30 5901 H 546.528 2.61536 -1.89206 0
M  V30 5902 H 545.58 0.979808 -3.67565 0
M  V30 5903 H 546.892 1.49553 -4.75852 0
M  V30 5904 H 546.046 3.85021 -4.68875 0
M  V30 5905 H 544.785 3.38281 -3.51308 0
M  V30 5906 H 543.79 1.80503 -5.19325 0
M  V30 5907 H 545.015 2.29995 -6.38967 0
M  V30 5908 H 542.961 4.13258 -5.09464 0
M  V30 5909 H 542.878 3.49447 -6.7039 0
M  V30 5910 H 544.146 4.60818 -6.28703 0
M  V30 5911 N 548.375 1.56261 0.205012 0
M  V30 5912 C 549.307 1.90266 1.27795 0
M  V30 5913 C 550.32 0.792397 1.42214 0
M  V30 5914 O 551.509 1.07077 1.42817 0
M  V30 5915 C 548.609 2.11074 2.65143 0
M  V30 5916 C 547.782 3.42176 2.7246 0
M  V30 5917 C 546.841 3.52216 3.90936 0
M  V30 5918 O 545.867 4.25119 3.78501 0
M  V30 5919 N 547.069 2.84573 5.05963 0
M  V30 5920 H 549.834 2.82896 0.989434 0
M  V30 5921 H 547.395 1.57008 0.394981 0
M  V30 5922 H 549.387 2.15089 3.4281 0
M  V30 5923 H 547.957 1.2499 2.86524 0
M  V30 5924 H 547.177 3.50116 1.81142 0
M  V30 5925 H 548.465 4.28509 2.74331 0
M  V30 5926 H 547.863 2.25152 5.18963 0
M  V30 5927 H 546.42 2.94228 5.81613 0
M  V30 5928 N 549.853 -0.472356 1.50355 0
M  V30 5929 C 550.783 -1.57859 1.72055 0
M  V30 5930 C 551.764 -1.60283 0.569505 0
M  V30 5931 O 552.949 -1.7657 0.808503 0
M  V30 5932 C 550.079 -2.96191 1.81351 0
M  V30 5933 C 549.033 -3.08633 2.96529 0
M  V30 5934 C 548.359 -4.486 2.90968 0
M  V30 5935 C 549.659 -2.85969 4.37057 0
M  V30 5936 H 551.353 -1.39953 2.64676 0
M  V30 5937 H 548.899 -0.671846 1.27367 0
M  V30 5938 H 550.852 -3.73507 1.95117 0
M  V30 5939 H 549.576 -3.15251 0.853502 0
M  V30 5940 H 548.235 -2.33749 2.82413 0
M  V30 5941 H 547.883 -4.64577 1.92815 0
M  V30 5942 H 547.583 -4.57861 3.68289 0
M  V30 5943 H 549.107 -5.27938 3.0678 0
M  V30 5944 H 550.521 -3.53036 4.51706 0
M  V30 5945 H 548.918 -3.06677 5.15819 0
M  V30 5946 H 549.988 -1.81838 4.49514 0
M  V30 5947 N 551.331 -1.39911 -0.725443 0
M  V30 5948 C 552.556 -1.41137 -1.5197 0
M  V30 5949 C 552.981 -0.010262 -1.88097 0
M  V30 5950 O 552.339 0.979184 -1.52583 0
M  V30 5951 C 552.387 -2.2994 -2.77777 0
M  V30 5952 O 551.491 -1.73586 -3.74088 0
M  V30 5953 H 550.832 -0.480219 -0.458569 0
M  V30 5954 H 553.362 -1.84023 -0.894249 0
M  V30 5955 H 553.372 -2.44785 -3.26411 0
M  V30 5956 H 552.047 -3.31759 -2.50816 0
M  V30 5957 H 550.624 -1.68035 -3.32894 0
M  V30 5958 N 552.809 0.956637 -1.25245 0
M  V30 5959 C 553.719 2.0868 -1.0719 0
M  V30 5960 C 554.735 1.73997 -0.00959074 0
M  V30 5961 O 555.911 2.00301 -0.210104 0
M  V30 5962 C 552.976 3.39754 -0.690526 0
M  V30 5963 C 552.037 3.88316 -1.83055 0
M  V30 5964 C 551.27 5.13134 -1.46728 0
M  V30 5965 O 551.493 5.6925 -0.362029 0
M  V30 5966 O 550.427 5.56356 -2.29677 0
M  V30 5967 H 554.253 2.26813 -2.01965 0
M  V30 5968 H 551.838 1.07098 -1.04165 0
M  V30 5969 H 553.72 4.18543 -0.489871 0
M  V30 5970 H 552.395 3.22896 0.227981 0
M  V30 5971 H 551.302 3.1054 -2.08604 0
M  V30 5972 H 552.635 4.09669 -2.72822 0
M  V30 5973 N 554.287 1.06798 1.15896 0
M  V30 5974 C 555.512 0.808739 1.90982 0
M  V30 5975 C 555.937 -0.6316 1.77179 0
M  V30 5976 O 555.295 -1.4407 1.10061 0
M  V30 5977 C 555.343 1.21468 3.39526 0
M  V30 5978 O 554.447 0.356562 4.10856 0
M  V30 5979 H 553.788 0.29512 0.594811 0
M  V30 5980 H 556.318 1.42513 1.46804 0
M  V30 5981 H 556.328 1.18844 3.90308 0
M  V30 5982 H 555.003 2.26379 3.48891 0
M  V30 5983 H 553.58 0.444808 3.70238 0
M  V30 5984 N 555.766 -1.3263 0.851289 0
M  V30 5985 C 556.991 -2.02097 0.466006 0
M  V30 5986 C 557.416 -1.63574 -0.928709 0
M  V30 5987 O 556.774 -0.834665 -1.60944 0
M  V30 5988 C 556.822 -3.55425 0.608737 0
M  V30 5989 O 555.926 -4.10827 -0.359878 0
M  V30 5990 H 555.267 -0.636911 0.187724 0
M  V30 5991 H 557.797 -1.69253 1.14955 0
M  V30 5992 H 557.807 -4.04986 0.495006 0
M  V30 5993 H 556.482 -3.82806 1.62581 0
M  V30 5994 H 555.059 -3.72349 -0.202666 0
M  V30 5995 N 557.244 -0.608902 -1.45362 0
M  V30 5996 C 558.521 -0.0365378 -1.95566 0
M  V30 5997 C 558.901 1.43169 -1.55131 0
M  V30 5998 O 558.249 2.1349 -0.814513 0
M  V30 5999 C 558.459 -0.236026 -3.48201 0
M  V30 6000 C 559.807 -0.117518 -4.24437 0
M  V30 6001 O 560.831 -0.166217 -3.55812 0
M  V30 6002 O 559.69 -0.00372127 -5.465 0
M  V30 6003 H 556.784 0.0349874 -0.82626 0
M  V30 6004 H 559.33 -0.679055 -1.55521 0
M  V30 6005 H 558.102 -1.25569 -3.70605 0
M  V30 6006 H 557.725 0.441691 -3.95139 0
M  V30 6007 N 558.722 1.53707 -0.348139 0
M  V30 6008 C 559.999 1.93247 0.302475 0
M  V30 6009 C 560.379 1.28012 1.67857 0
M  V30 6010 O 559.727 0.43274 2.24365 0
M  V30 6011 C 559.937 3.47031 0.370159 0
M  V30 6012 C 561.285 4.20066 0.61882 0
M  V30 6013 O 562.309 3.53319 0.452087 0
M  V30 6014 O 561.168 5.38318 0.94215 0
M  V30 6015 H 558.262 0.807736 0.177458 0
M  V30 6016 H 560.808 1.64927 -0.399651 0
M  V30 6017 H 559.58 3.86745 -0.59534 0
M  V30 6018 H 559.203 3.81532 1.11888 0
M  V30 6019 N 560.2 0.0768682 1.57412 0
M  V30 6020 C 561.477 -0.632359 1.85096 0
M  V30 6021 C 561.857 -1.87479 0.9703 0
M  V30 6022 O 561.205 -2.28469 0.0379062 0
M  V30 6023 C 561.415 -0.965174 3.35388 0
M  V30 6024 C 562.763 -1.33648 4.03018 0
M  V30 6025 O 563.787 -1.05675 3.40164 0
M  V30 6026 O 562.646 -1.85959 5.13889 0
M  V30 6027 H 559.74 -0.314574 0.764835 0
M  V30 6028 H 562.286 0.108184 1.69355 0
M  V30 6029 H 561.058 -0.0829745 3.91212 0
M  V30 6030 H 560.681 -1.76231 3.5641 0
M  V30 6031 N 561.678 -1.56367 -0.196722 0
M  V30 6032 C 562.908 -1.84371 -0.932254 0
M  V30 6033 C 563.316 -0.657013 -1.77426 0
M  V30 6034 O 562.659 0.383576 -1.79651 0
M  V30 6035 C 562.721 -3.06454 -1.87952 0
M  V30 6036 C 562.385 -4.40425 -1.21962 0
M  V30 6037 C 563.382 -5.16457 -0.597343 0
M  V30 6038 C 561.067 -4.8716 -1.22396 0
M  V30 6039 C 563.061 -6.37399 0.0117913 0
M  V30 6040 C 560.748 -6.08038 -0.610995 0
M  V30 6041 C 561.746 -6.83 0.00580487 0
M  V30 6042 O 561.434 -8.01589 0.609173 0
M  V30 6043 H 561.166 -0.616377 -0.277589 0
M  V30 6044 H 563.72 -2.04329 -0.209452 0
M  V30 6045 H 561.95 -2.82377 -2.64197 0
M  V30 6046 H 563.639 -3.21118 -2.48271 0
M  V30 6047 H 564.405 -4.81445 -0.586142 0
M  V30 6048 H 560.284 -4.2877 -1.69345 0
M  V30 6049 H 563.828 -6.9585 0.493836 0
M  V30 6050 H 559.725 -6.42519 -0.619693 0
M  V30 6051 H 560.493 -8.16935 0.505919 0
M  V30 6052 N 563.156 0.464375 -1.50603 0
M  V30 6053 C 564.433 1.22549 -1.5245 0
M  V30 6054 C 564.813 2.09327 -0.273035 0
M  V30 6055 O 564.161 2.16074 0.743242 0
M  V30 6056 C 564.371 2.05074 -2.82393 0
M  V30 6057 C 565.719 2.63036 -3.33313 0
M  V30 6058 O 566.743 2.1531 -2.8376 0
M  V30 6059 O 565.602 3.5001 -4.19709 0
M  V30 6060 H 562.696 0.556471 -0.611775 0
M  V30 6061 H 565.242 0.475648 -1.62898 0
M  V30 6062 H 564.014 1.41169 -3.64948 0
M  V30 6063 H 563.637 2.87179 -2.7498 0
M  V30 6064 N 564.634 1.40294 0.718013 0
M  V30 6065 C 565.911 1.2894 1.47084 0
M  V30 6066 C 566.291 -0.0933625 2.10893 0
M  V30 6067 O 565.639 -1.10598 1.99951 0
M  V30 6068 C 565.849 2.4264 2.50852 0
M  V30 6069 C 567.197 2.8276 3.16752 0
M  V30 6070 O 568.221 2.42215 2.61171 0
M  V30 6071 O 567.08 3.528 4.17366 0
M  V30 6072 H 564.174 0.506236 0.653952 0
M  V30 6073 H 566.72 1.52208 0.750394 0
M  V30 6074 H 565.492 3.35009 2.022 0
M  V30 6075 H 565.115 2.21129 3.30435 0
M  V30 6076 N 566.112 -0.949982 1.2575 0
M  V30 6077 C 567.358 -1.69766 1.10938 0
M  V30 6078 C 567.691 -1.91056 -0.348028 0
M  V30 6079 O 566.966 -1.48488 -1.25625 0
M  V30 6080 C 567.249 -3.07779 1.86933 0
M  V30 6081 C 567.102 -2.9387 3.4053 0
M  V30 6082 C 568.421 -4.07749 1.65616 0
M  V30 6083 H 565.54 -0.616144 0.404396 0
M  V30 6084 H 568.182 -1.10394 1.54639 0
M  V30 6085 H 566.332 -3.58462 1.4979 0
M  V30 6086 H 568.004 -2.50476 3.87375 0
M  V30 6087 H 566.247 -2.29686 3.68004 0
M  V30 6088 H 566.918 -3.91719 3.88922 0
M  V30 6089 H 569.394 -3.65994 1.97959 0
M  V30 6090 H 568.27 -5.02348 2.21218 0
M  V30 6091 H 568.531 -4.38029 0.598595 0
M  V30 6092 N 567.59 -1.07411 -1.15328 0
M  V30 6093 C 568.867 -0.710732 -1.82231 0
M  V30 6094 C 569.247 0.806732 -1.95077 0
M  V30 6095 O 568.595 1.72139 -1.50268 0
M  V30 6096 C 568.805 -1.42586 -3.18544 0
M  V30 6097 C 570.153 -1.57836 -3.94174 0
M  V30 6098 O 571.177 -1.38669 -3.281 0
M  V30 6099 O 570.036 -1.8938 -5.12638 0
M  V30 6100 H 567.13 -0.25297 -0.78736 0
M  V30 6101 H 569.676 -1.17508 -1.22434 0
M  V30 6102 H 568.448 -2.46008 -3.04296 0
M  V30 6103 H 568.071 -0.952332 -3.86026 0
M  V30 6104 N 569.068 1.32177 -0.85831 0
M  V30 6105 C 570.317 1.96392 -0.459689 0
M  V30 6106 C 570.63 1.68659 0.990632 0
M  V30 6107 O 571.836 2.26641 1.49485 0
M  V30 6108 C 570.292 3.51542 -0.7711 0
M  V30 6109 C 569.9 3.8813 -2.2374 0
M  V30 6110 C 571.644 4.2221 -0.44038 0
M  V30 6111 C 569.551 5.36341 -2.49183 0
M  V30 6112 H 568.481 0.735007 -0.168169 0
M  V30 6113 H 571.132 1.50518 -1.0496 0
M  V30 6114 H 569.514 3.95846 -0.11058 0
M  V30 6115 H 570.688 3.54824 -2.94001 0
M  V30 6116 H 569.003 3.30497 -2.533 0
M  V30 6117 H 571.6 5.31234 -0.607855 0
M  V30 6118 H 571.943 4.11683 0.618291 0
M  V30 6119 H 572.476 3.83502 -1.05695 0
M  V30 6120 H 569.215 5.51892 -3.53689 0
M  V30 6121 H 568.735 5.7104 -1.83504 0
M  V30 6122 H 570.414 6.03466 -2.33318 0
M  V30 6123 N 570.547 0.616602 1.45037 0
M  V30 6124 C 571.958 0.199359 1.85633 0
M  V30 6125 C 572.309 -1.24588 1.51566 0
M  V30 6126 O 571.434 -1.94594 0.94668 0
M  V30 6127 C 572.029 0.355033 3.36935 0
M  V30 6128 C 570.588 -0.00758748 3.76399 0
M  V30 6129 C 569.735 0.675256 2.68953 0
M  V30 6130 H 572.686 0.822708 1.3571 0
M  V30 6131 H 572.707 -0.410201 3.78282 0
M  V30 6132 H 572.219 1.40699 3.61698 0
M  V30 6133 H 570.32 -1.05837 3.57252 0
M  V30 6134 H 570.433 0.392346 4.77491 0
M  V30 6135 H 568.797 0.111992 2.54454 0
M  V30 6136 H 569.58 1.72952 2.96551 0
M  V30 6137 N 572.025 -1.5352 0.356285 0
M  V30 6138 C 573.253 -2.05534 -0.237328 0
M  V30 6139 C 573.668 -1.23043 -1.43199 0
M  V30 6140 O 573.025 -0.268821 -1.80509 0
M  V30 6141 C 573.076 -3.55791 -0.639933 0
M  V30 6142 O 572.797 -4.35154 0.507233 0
M  V30 6143 C 574.298 -4.24027 -1.29292 0
M  V30 6144 H 571.518 -0.669585 -0.0435572 0
M  V30 6145 H 574.062 -1.97988 0.511963 0
M  V30 6146 H 572.217 -3.63518 -1.33915 0
M  V30 6147 H 572.631 -5.24178 0.18375 0
M  V30 6148 H 574.105 -5.30509 -1.52527 0
M  V30 6149 H 574.582 -3.77166 -2.25039 0
M  V30 6150 H 575.188 -4.20527 -0.63539 0
M  V30 6151 N 573.503 -0.0852151 -1.57369 0
M  V30 6152 C 574.914 0.445428 -1.81309 0
M  V30 6153 C 575.265 1.68795 -1.00013 0
M  V30 6154 O 574.39 2.15211 -0.226573 0
M  V30 6155 C 574.985 0.814887 -3.28854 0
M  V30 6156 C 573.544 1.29032 -3.53592 0
M  V30 6157 C 572.691 0.282089 -2.75861 0
M  V30 6158 H 575.642 -0.310771 -1.55627 0
M  V30 6159 H 575.663 1.67524 -3.41637 0
M  V30 6160 H 575.175 -0.0896309 -3.87996 0
M  V30 6161 H 573.276 2.21289 -2.9977 0
M  V30 6162 H 573.389 1.25898 -4.62262 0
M  V30 6163 H 571.753 0.762182 -2.43029 0
M  V30 6164 H 572.536 -0.614936 -3.37748 0
M  V30 6165 N 574.981 1.5647 0.188427 0
M  V30 6166 C 575.944 1.9421 1.21718 0
M  V30 6167 C 576.944 0.823901 1.38089 0
M  V30 6168 O 578.134 1.09122 1.35787 0
M  V30 6169 C 575.266 2.22197 2.58537 0
M  V30 6170 H 576.459 2.86252 0.894418 0
M  V30 6171 H 574.012 1.50263 0.430211 0
M  V30 6172 H 574.747 1.32814 2.95856 0
M  V30 6173 H 574.532 3.03688 2.48025 0
M  V30 6174 H 576.022 2.52376 3.3271 0
M  V30 6175 N 576.459 -0.456382 1.50847 0
M  V30 6176 C 577.369 -1.57805 1.73594 0
M  V30 6177 C 578.385 -1.62599 0.619476 0
M  V30 6178 O 579.561 -1.80195 0.899532 0
M  V30 6179 C 576.626 -2.93926 1.8387 0
M  V30 6180 C 575.687 -2.99402 3.07663 0
M  V30 6181 C 574.92 -4.29031 3.1744 0
M  V30 6182 O 575.143 -5.20358 2.33631 0
M  V30 6183 O 574.077 -4.40401 4.10281 0
M  V30 6184 H 577.903 -1.41531 2.68705 0
M  V30 6185 H 575.488 -0.637422 1.3512 0
M  V30 6186 H 577.37 -3.74747 1.92725 0
M  V30 6187 H 576.045 -3.10368 0.91944 0
M  V30 6188 H 574.952 -2.17606 3.043 0
M  V30 6189 H 576.285 -2.87901 3.99216 0
M  V30 6190 N 577.937 -1.40673 -0.710563 0
M  V30 6191 C 579.214 -1.29718 -1.46398 0
M  V30 6192 C 579.594 0.082177 -2.1094 0
M  V30 6193 O 578.942 1.09536 -2.00534 0
M  V30 6194 C 579.152 -2.43967 -2.49562 0
M  V30 6195 C 580.5 -2.84436 -3.15248 0
M  V30 6196 O 581.524 -2.43597 -2.59883 0
M  V30 6197 O 580.383 -3.55008 -4.1549 0
M  V30 6198 H 577.477 -0.509697 -0.651258 0
M  V30 6199 H 580.023 -1.52603 -0.742312 0
M  V30 6200 H 578.795 -3.36076 -2.0042 0
M  V30 6201 H 578.418 -2.22879 -3.29258 0
M  V30 6202 N 579.415 0.9433 -1.26252 0
M  V30 6203 C 580.643 1.72367 -1.14443 0
M  V30 6204 C 581.058 1.86392 0.300572 0
M  V30 6205 O 580.415 1.36978 1.20596 0
M  V30 6206 C 580.466 3.13155 -1.806 0
M  V30 6207 O 580.187 2.99803 -3.19452 0
M  V30 6208 C 581.688 4.07417 -1.74717 0
M  V30 6209 H 578.908 0.539758 -0.398626 0
M  V30 6210 H 581.452 1.18268 -1.66832 0
M  V30 6211 H 579.607 3.64162 -1.32154 0
M  V30 6212 H 580.021 3.88697 -3.52158 0
M  V30 6213 H 581.495 5.03773 -2.25647 0
M  V30 6214 H 581.972 4.3337 -0.713244 0
M  V30 6215 H 582.578 3.6233 -2.22704 0
M  V30 6216 N 580.893 1.08022 1.14757 0
M  V30 6217 C 582.304 0.829144 1.67279 0
M  V30 6218 C 582.655 -0.644721 1.85305 0
M  V30 6219 O 581.78 -1.49838 1.56133 0
M  V30 6220 C 582.375 1.49855 3.03857 0
M  V30 6221 C 580.934 1.29482 3.53428 0
M  V30 6222 C 580.081 1.56386 2.28995 0
M  V30 6223 H 583.032 1.24134 0.988762 0
M  V30 6224 H 583.053 0.923572 3.69121 0
M  V30 6225 H 582.565 2.57123 2.90705 0
M  V30 6226 H 580.666 0.242669 3.71809 0
M  V30 6227 H 580.779 2.01974 4.34446 0
M  V30 6228 H 579.143 0.985217 2.34874 0
M  V30 6229 H 579.926 2.64851 2.18423 0
M  V30 6230 N 582.371 -1.3172 0.865308 0
M  V30 6231 C 583.782 -1.79104 0.527126 0
M  V30 6232 C 584.133 -1.7135 -0.955695 0
M  V30 6233 O 583.258 -1.27845 -1.74598 0
M  V30 6234 C 583.853 -3.25207 0.950061 0
M  V30 6235 C 582.412 -3.70504 0.663611 0
M  V30 6236 C 581.559 -2.52605 1.14395 0
M  V30 6237 H 584.51 -1.18868 1.05148 0
M  V30 6238 H 584.531 -3.79535 0.270805 0
M  V30 6239 H 584.043 -3.30818 2.02931 0
M  V30 6240 H 582.144 -3.70398 -0.404474 0
M  V30 6241 H 582.257 -4.62845 1.23737 0
M  V30 6242 H 580.621 -2.4838 0.563859 0
M  V30 6243 H 581.404 -2.60964 2.23053 0
M  V30 6244 N 583.85 -0.624285 -1.44708 0
M  V30 6245 C 585.26 -0.2092 -1.85524 0
M  V30 6246 C 585.611 1.23783 -1.52225 0
M  V30 6247 O 584.736 1.94089 -0.956986 0
M  V30 6248 C 585.332 -0.372897 -3.36742 0
M  V30 6249 C 583.891 -0.012374 -3.76398 0
M  V30 6250 C 583.038 -0.68951 -2.68591 0
M  V30 6251 H 585.989 -0.829894 -1.35272 0
M  V30 6252 H 586.01 0.390134 -3.78495 0
M  V30 6253 H 585.522 -1.42615 -3.60947 0
M  V30 6254 H 583.623 1.03941 -3.57809 0
M  V30 6255 H 583.736 -0.417663 -4.77276 0
M  V30 6256 H 582.1 -0.125484 -2.54391 0
M  V30 6257 H 582.883 -1.74522 -2.9563 0
M  V30 6258 N 585.328 1.53329 -0.364422 0
M  V30 6259 C 586.258 2.28627 0.474543 0
M  V30 6260 C 587.239 1.31009 1.08492 0
M  V30 6261 O 588.424 1.59878 1.10239 0
M  V30 6262 C 585.554 3.07465 1.61501 0
M  V30 6263 C 584.508 4.1276 1.13194 0
M  V30 6264 C 583.834 4.79674 2.36255 0
M  V30 6265 C 585.134 5.21847 0.217507 0
M  V30 6266 H 586.828 2.99005 -0.153656 0
M  V30 6267 H 584.374 1.43803 -0.0753406 0
M  V30 6268 H 586.327 3.58889 2.20855 0
M  V30 6269 H 585.051 2.34775 2.27042 0
M  V30 6270 H 583.71 3.62281 0.56109 0
M  V30 6271 H 583.358 4.03557 3.00251 0
M  V30 6272 H 583.058 5.50827 2.04606 0
M  V30 6273 H 584.582 5.33892 2.96297 0
M  V30 6274 H 585.996 5.6878 0.718493 0
M  V30 6275 H 584.393 6.00099 -0.00806408 0
M  V30 6276 H 585.463 4.7921 -0.740653 0
M  V30 6277 N 586.806 0.0935595 1.57322 0
M  V30 6278 C 588.217 -0.435807 1.81542 0
M  V30 6279 C 588.568 -1.68263 1.00907 0
M  V30 6280 O 587.693 -2.15087 0.237983 0
M  V30 6281 C 588.288 -0.797436 3.29282 0
M  V30 6282 C 586.847 -1.27155 3.54272 0
M  V30 6283 C 585.994 -0.267455 2.76007 0
M  V30 6284 H 588.945 0.31902 1.5546 0
M  V30 6285 H 588.966 -1.6571 3.42521 0
M  V30 6286 H 588.478 0.110206 3.87943 0
M  V30 6287 H 586.579 -2.19696 3.00939 0
M  V30 6288 H 586.692 -1.23445 4.62923 0
M  V30 6289 H 585.056 -0.749282 2.43429 0
M  V30 6290 H 585.839 0.632839 3.37417 0
M  V30 6291 N 588.284 -1.56567 -0.180126 0
M  V30 6292 C 589.695 -1.7126 -0.743422 0
M  V30 6293 C 590.046 -0.70263 -1.83187 0
M  V30 6294 O 589.171 0.137856 -2.1596 0
M  V30 6295 C 589.766 -3.10512 -1.35528 0
M  V30 6296 C 588.325 -3.26919 -1.8655 0
M  V30 6297 C 587.472 -2.67213 -0.741099 0
M  V30 6298 H 590.423 -1.58636 0.0451543 0
M  V30 6299 H 590.444 -3.08673 -2.22489 0
M  V30 6300 H 589.956 -3.83997 -0.562862 0
M  V30 6301 H 588.057 -2.58376 -2.68464 0
M  V30 6302 H 588.17 -4.34574 -2.01699 0
M  V30 6303 H 586.534 -2.26788 -1.15927 0
M  V30 6304 H 587.317 -3.43277 0.0393291 0
M  V30 6305 N 589.762 0.448376 -1.51087 0
M  V30 6306 C 590.709 1.54341 -1.71603 0
M  V30 6307 C 591.679 1.56463 -0.557536 0
M  V30 6308 O 592.864 1.73644 -0.79072 0
M  V30 6309 C 590.004 2.92148 -1.83695 0
M  V30 6310 C 589.117 2.99639 -3.11192 0
M  V30 6311 C 588.252 4.285 -3.13944 0
M  V30 6312 C 587.291 4.29819 -4.35801 0
M  V30 6313 N 586.428 5.50186 -4.36164 0
M  V30 6314 H 591.268 1.36151 -2.65079 0
M  V30 6315 H 588.805 0.661585 -1.31383 0
M  V30 6316 H 590.763 3.72093 -1.88687 0
M  V30 6317 H 589.393 3.0892 -0.936374 0
M  V30 6318 H 588.445 2.12425 -3.15562 0
M  V30 6319 H 589.757 2.96474 -4.01129 0
M  V30 6320 H 588.911 5.16811 -3.17791 0
M  V30 6321 H 587.65 4.34307 -2.21876 0
M  V30 6322 H 586.655 3.39902 -4.32142 0
M  V30 6323 H 587.88 4.25685 -5.29121 0
M  V30 6324 H 585.826 5.56735 -3.46961 0
M  V30 6325 H 585.743 5.48856 -5.19897 0
M  V30 6326 H 587.011 6.40559 -4.44189 0
M  V30 6327 N 591.24 1.41047 0.703093 0
M  V30 6328 C 592.651 1.35657 1.28274 0
M  V30 6329 C 593.002 0.0360309 1.96167 0
M  V30 6330 O 592.127 -0.865833 1.98324 0
M  V30 6331 C 592.722 2.45707 2.33267 0
M  V30 6332 C 591.281 2.43738 2.86825 0
M  V30 6333 C 590.428 2.25941 1.60767 0
M  V30 6334 H 593.379 1.50672 0.49836 0
M  V30 6335 H 593.4 2.14333 3.14391 0
M  V30 6336 H 592.912 3.41805 1.83824 0
M  V30 6337 H 591.013 1.51375 3.40465 0
M  V30 6338 H 591.126 3.39779 3.37768 0
M  V30 6339 H 589.49 1.73681 1.86298 0
M  V30 6340 H 590.273 3.24054 1.1333 0
M  V30 6341 N 592.718 -0.936591 1.26751 0
M  V30 6342 C 593.665 -2.03597 1.08706 0
M  V30 6343 C 594.635 -1.66097 -0.00926542 0
M  V30 6344 O 595.82 -1.90199 0.151377 0
M  V30 6345 C 592.96 -3.3727 0.73094 0
M  V30 6346 C 592.073 -3.87778 1.90399 0
M  V30 6347 C 591.208 -5.09859 1.49056 0
M  V30 6348 C 590.247 -5.5264 2.63164 0
M  V30 6349 N 589.384 -6.65921 2.22471 0
M  V30 6350 H 594.224 -2.18364 2.02784 0
M  V30 6351 H 591.761 -1.06985 1.00958 0
M  V30 6352 H 593.719 -4.14128 0.505328 0
M  V30 6353 H 592.349 -3.22337 -0.172868 0
M  V30 6354 H 591.401 -3.07279 2.2424 0
M  V30 6355 H 592.713 -4.15464 2.76028 0
M  V30 6356 H 591.867 -5.9419 1.22567 0
M  V30 6357 H 590.606 -4.8393 0.60524 0
M  V30 6358 H 589.611 -4.66863 2.90377 0
M  V30 6359 H 590.836 -5.80568 3.52303 0
M  V30 6360 H 588.782 -6.41667 1.36379 0
M  V30 6361 H 588.699 -6.93216 3.01641 0
M  V30 6362 H 589.967 -7.53616 1.99205 0
M  V30 6363 N 594.196 -1.08629 -1.14182 0
M  V30 6364 C 595.443 -0.817345 -1.85272 0
M  V30 6365 C 595.771 0.656917 -1.83071 0
M  V30 6366 O 595.026 1.49897 -1.25815 0
M  V30 6367 C 595.325 -1.28734 -3.3341 0
M  V30 6368 C 594.991 -2.76981 -3.55798 0
M  V30 6369 C 593.653 -3.17469 -3.61617 0
M  V30 6370 C 596.005 -3.72605 -3.64438 0
M  V30 6371 C 593.333 -4.52371 -3.736 0
M  V30 6372 C 595.685 -5.07286 -3.77947 0
M  V30 6373 C 594.349 -5.47376 -3.82016 0
M  V30 6374 H 593.619 -0.299088 -0.677958 0
M  V30 6375 H 596.266 -1.35962 -1.34857 0
M  V30 6376 H 594.571 -0.664702 -3.8612 0
M  V30 6377 H 596.268 -1.05598 -3.86846 0
M  V30 6378 H 592.858 -2.44644 -3.51919 0
M  V30 6379 H 597.042 -3.42443 -3.5923 0
M  V30 6380 H 592.298 -4.82882 -3.75013 0
M  V30 6381 H 596.472 -5.81243 -3.83575 0
M  V30 6382 H 594.099 -6.51906 -3.91054 0
M  V30 6383 N 595.674 1.31259 -0.872281 0
M  V30 6384 C 597.09 1.49283 -0.564521 0
M  V30 6385 C 597.29 1.80243 0.900807 0
M  V30 6386 O 596.346 1.88246 1.68284 0
M  V30 6387 C 597.659 2.62503 -1.46673 0
M  V30 6388 C 599.207 2.76386 -1.46901 0
M  V30 6389 C 599.682 3.92705 -2.35684 0
M  V30 6390 N 601.173 3.99995 -2.33577 0
M  V30 6391 C 601.908 4.89276 -2.98992 0
M  V30 6392 N 601.404 5.83443 -3.73585 0
M  V30 6393 N 603.197 4.82541 -2.88289 0
M  V30 6394 H 595.348 1.09432 -1.82039 0
M  V30 6395 H 597.611 0.540949 -0.77851 0
M  V30 6396 H 597.317 2.46407 -2.50951 0
M  V30 6397 H 597.191 3.58695 -1.16696 0
M  V30 6398 H 599.578 2.91894 -0.433796 0
M  V30 6399 H 599.659 1.80853 -1.80903 0
M  V30 6400 H 599.303 3.77954 -3.39283 0
M  V30 6401 H 599.233 4.87549 -1.99006 0
M  V30 6402 H 601.724 3.32624 -1.7936 0
M  V30 6403 H 602.037 6.48303 -4.20622 0
M  V30 6404 H 600.382 5.83415 -3.77694 0
M  V30 6405 H 603.573 4.07951 -2.2955 0
M  V30 6406 H 603.746 5.51916 -3.39549 0
M  V30 6407 N 597.152 0.631951 1.44375 0
M  V30 6408 C 598.377 0.142146 2.06912 0
M  V30 6409 C 598.802 -1.17456 1.4692 0
M  V30 6410 O 598.16 -1.72074 0.570975 0
M  V30 6411 C 598.208 0.0417952 3.60576 0
M  V30 6412 O 597.312 -1.00194 4.00044 0
M  V30 6413 H 596.653 0.0851491 0.658518 0
M  V30 6414 H 599.183 0.868863 1.85235 0
M  V30 6415 H 599.193 -0.148517 4.0773 0
M  V30 6416 H 597.868 1.0031 4.03622 0
M  V30 6417 H 596.445 -0.786131 3.64519 0
M  V30 6418 N 598.631 -1.53133 0.372548 0
M  V30 6419 C 600.042 -1.86404 -0.105155 0
M  V30 6420 C 600.393 -1.29289 -1.47576 0
M  V30 6421 O 599.518 -0.617646 -2.07398 0
M  V30 6422 C 600.113 -3.38223 -0.197588 0
M  V30 6423 C 598.672 -3.71266 -0.619556 0
M  V30 6424 C 597.819 -2.76353 0.228919 0
M  V30 6425 H 600.77 -1.47282 0.591077 0
M  V30 6426 H 600.791 -3.66577 -1.01987 0
M  V30 6427 H 600.303 -3.79763 0.800099 0
M  V30 6428 H 598.404 -3.35287 -1.62522 0
M  V30 6429 H 598.517 -4.77515 -0.389332 0
M  V30 6430 H 596.881 -2.52888 -0.303271 0
M  V30 6431 H 597.664 -3.20728 1.22428 0
M  V30 6432 N 600.109 -0.101901 -1.5727 0
M  V30 6433 C 601.334 0.571759 -1.99363 0
M  V30 6434 C 601.759 1.60507 -0.980768 0
M  V30 6435 O 601.117 1.81231 0.0498517 0
M  V30 6436 C 601.165 1.18996 -3.404 0
M  V30 6437 O 600.269 2.30572 -3.41922 0
M  V30 6438 H 599.61 0.144449 -0.648098 0
M  V30 6439 H 602.14 -0.185325 -2.03759 0
M  V30 6440 H 602.15 1.52962 -3.78241 0
M  V30 6441 H 600.825 0.432984 -4.1364 0
M  V30 6442 H 599.402 1.98173 -3.15883 0
M  V30 6443 N 601.587 1.56661 0.17182 0
M  V30 6444 C 602.864 1.72838 0.915778 0
M  V30 6445 C 603.244 0.66316 2.00413 0
M  V30 6446 O 602.592 -0.322123 2.26218 0
M  V30 6447 C 602.802 3.16019 1.48097 0
M  V30 6448 C 604.15 3.76962 1.95408 0
M  V30 6449 O 605.174 3.19294 1.57892 0
M  V30 6450 O 604.033 4.78219 2.64516 0
M  V30 6451 H 601.127 0.705797 0.431021 0
M  V30 6452 H 603.673 1.68947 0.159689 0
M  V30 6453 H 602.445 3.85031 0.697618 0
M  V30 6454 H 602.068 3.24234 2.30126 0
M  V30 6455 N 603.065 -0.440357 1.51323 0
M  V30 6456 C 603.975 -1.55955 1.75258 0
M  V30 6457 C 604.991 -1.61933 0.636687 0
M  V30 6458 O 606.167 -1.79231 0.918593 0
M  V30 6459 C 603.232 -2.9196 1.86977 0
M  V30 6460 C 602.293 -2.96122 3.10822 0
M  V30 6461 C 601.526 -4.2564 3.21973 0
M  V30 6462 O 601.749 -5.17851 2.39137 0
M  V30 6463 O 600.683 -4.36025 4.14929 0
M  V30 6464 H 604.509 -1.38673 2.70191 0
M  V30 6465 H 602.094 -0.623055 1.35788 0
M  V30 6466 H 603.976 -3.72682 1.96688 0
M  V30 6467 H 602.651 -3.09375 0.952307 0
M  V30 6468 H 601.558 -2.14366 3.06591 0
M  V30 6469 H 602.891 -2.83651 4.02247 0
M  V30 6470 N 604.543 -1.41418 -0.695603 0
M  V30 6471 C 605.791 -1.40496 -1.45277 0
M  V30 6472 C 606.112 -0.0149538 -1.94994 0
M  V30 6473 O 605.382 0.9432 -1.71699 0
M  V30 6474 H 603.962 -0.517147 -0.539044 0
M  V30 6475 H 606.624 -1.76656 -0.823321 0
M  V30 6476 H 605.72 -2.09214 -2.31595 0
M  V30 6477 N 606.021 0.929856 -1.27246 0
M  V30 6478 C 607.432 1.49223 -1.12203 0
M  V30 6479 C 607.783 1.93989 0.293731 0
M  V30 6480 O 606.908 1.80978 1.18642 0
M  V30 6481 C 607.503 2.71198 -2.0307 0
M  V30 6482 C 606.062 3.23666 -1.92139 0
M  V30 6483 C 605.209 1.96409 -1.95752 0
M  V30 6484 H 608.16 0.744181 -1.4017 0
M  V30 6485 H 608.181 3.45905 -1.58524 0
M  V30 6486 H 607.693 2.38585 -3.06102 0
M  V30 6487 H 605.794 3.61042 -0.920834 0
M  V30 6488 H 605.907 3.90006 -2.78267 0
M  V30 6489 H 604.271 2.12806 -1.39949 0
M  V30 6490 H 605.054 1.66113 -3.00436 0
M  V30 6491 N 607.499 1.09233 1.13605 0
M  V30 6492 C 608.747 0.825525 1.84471 0
M  V30 6493 C 609.068 -0.650702 1.83823 0
M  V30 6494 O 608.338 -1.47204 1.29259 0
M  V30 6495 H 606.918 0.3024 0.683054 0
M  V30 6496 H 609.58 1.38006 1.37624 0
M  V30 6497 H 608.676 1.17727 2.89045 0
M  V30 6498 N 608.977 -1.30795 0.87923 0
M  V30 6499 C 610.202 -2.01063 0.508769 0
M  V30 6500 C 610.627 -1.65508 -0.893803 0
M  V30 6501 O 609.985 -0.868616 -1.59138 0
M  V30 6502 C 610.033 -3.54054 0.683991 0
M  V30 6503 O 609.137 -4.11498 -0.272654 0
M  V30 6504 H 608.478 -0.632786 0.201191 0
M  V30 6505 H 611.008 -1.66776 1.18519 0
M  V30 6506 H 611.018 -4.03845 0.580798 0
M  V30 6507 H 609.693 -3.79271 1.70665 0
M  V30 6508 H 608.27 -3.72695 -0.12364 0
M  V30 6509 N 610.455 -0.639598 -1.44038 0
M  V30 6510 C 611.388 0.109736 -2.27936 0
M  V30 6511 C 612.366 0.843095 -1.39035 0
M  V30 6512 O 613.55 0.845456 -1.68476 0
M  V30 6513 C 610.677 1.16173 -3.18153 0
M  V30 6514 C 609.723 0.527954 -4.2322 0
M  V30 6515 S 610.556 -0.688318 -5.31058 0
M  V30 6516 C 611.712 0.363481 -6.24844 0
M  V30 6517 H 611.945 -0.601986 -2.91142 0
M  V30 6518 H 609.478 -0.42802 -1.48349 0
M  V30 6519 H 611.436 1.76372 -3.7068 0
M  V30 6520 H 610.097 1.84569 -2.54151 0
M  V30 6521 H 609.29 1.32054 -4.86393 0
M  V30 6522 H 608.892 0.000396444 -3.74 0
M  V30 6523 H 611.184 1.23362 -6.66174 0
M  V30 6524 H 612.127 -0.23288 -7.07717 0
M  V30 6525 H 612.535 0.693179 -5.60228 0
M  V30 6526 N 611.933 1.52934 -0.380664 0
M  V30 6527 C 613.181 2.01069 0.203874 0
M  V30 6528 C 613.502 1.26922 1.4804 0
M  V30 6529 O 612.772 0.386787 1.92044 0
M  V30 6530 H 611.352 0.742882 0.0783279 0
M  V30 6531 H 614.014 1.88099 -0.510368 0
M  V30 6532 H 613.11 3.09258 0.42021 0
M  V30 6533 N 613.412 0.11024 1.57214 0
M  V30 6534 C 614.689 -0.592956 1.86396 0
M  V30 6535 C 615.069 -1.85379 1.00985 0
M  V30 6536 O 614.417 -2.28337 0.0863592 0
M  V30 6537 C 614.627 -0.893816 3.3736 0
M  V30 6538 C 615.975 -1.25069 4.05762 0
M  V30 6539 O 616.999 -0.984356 3.42329 0
M  V30 6540 O 615.858 -1.75017 5.17718 0
M  V30 6541 H 612.952 -0.29828 0.771335 0
M  V30 6542 H 615.498 0.144083 1.69087 0
M  V30 6543 H 614.27 2.6031e-05 3.913 0
M  V30 6544 H 613.893 -1.68631 3.60068 0
M  V30 6545 N 614.89 -1.56749 -0.16351 0
M  V30 6546 C 616.167 -1.73321 -0.906599 0
M  V30 6547 C 616.547 -0.673779 -2.00059 0
M  V30 6548 O 615.895 0.310121 -2.26386 0
M  V30 6549 C 616.105 -3.168 -1.46419 0
M  V30 6550 C 617.453 -3.77993 -1.93407 0
M  V30 6551 O 618.477 -3.20127 -1.56196 0
M  V30 6552 O 617.336 -4.79615 -2.61976 0
M  V30 6553 H 614.43 -0.708073 -0.427272 0
M  V30 6554 H 616.976 -1.69029 -0.150727 0
M  V30 6555 H 615.748 -3.85396 -0.677189 0
M  V30 6556 H 615.371 -3.2545 -2.28403 0
M  V30 6557 N 616.368 0.432326 -1.51554 0
M  V30 6558 C 617.616 1.17901 -1.64146 0
M  V30 6559 C 617.937 1.91604 -0.362367 0
M  V30 6560 O 617.207 1.85764 0.621968 0
M  V30 6561 H 615.787 0.438206 -0.604966 0
M  V30 6562 H 618.449 0.495172 -1.88505 0
M  V30 6563 H 617.545 1.90584 -2.47152 0
M  V30 6564 N 617.846 1.41785 0.688094 0
M  V30 6565 C 618.778 1.40159 1.81351 0
M  V30 6566 C 619.791 0.30262 1.59963 0
M  V30 6567 O 620.98 0.564841 1.69327 0
M  V30 6568 C 618.08 1.16517 3.1824 0
M  V30 6569 C 617.253 2.38597 3.66593 0
M  V30 6570 C 616.312 2.10699 4.82174 0
M  V30 6571 O 615.338 2.83798 4.93404 0
M  V30 6572 N 616.54 1.10187 5.69947 0
M  V30 6573 H 619.305 2.3716 1.83236 0
M  V30 6574 H 616.866 1.36494 0.870697 0
M  V30 6575 H 618.858 0.957941 3.93199 0
M  V30 6576 H 617.428 0.280873 3.11336 0
M  V30 6577 H 616.648 2.74974 2.82459 0
M  V30 6578 H 617.936 3.19919 3.95638 0
M  V30 6579 H 617.334 0.497016 5.63512 0
M  V30 6580 H 615.891 0.954518 6.44773 0
M  V30 6581 N 619.324 -0.923095 1.27737 0
M  V30 6582 C 620.254 -2.04124 1.13383 0
M  V30 6583 C 621.235 -1.70066 0.0340658 0
M  V30 6584 O 622.42 -1.93068 0.209383 0
M  V30 6585 C 619.55 -3.3831 0.785097 0
M  V30 6586 C 618.504 -3.86496 1.8386 0
M  V30 6587 C 617.83 -5.1754 1.34373 0
M  V30 6588 C 619.13 -4.09381 3.24353 0
M  V30 6589 H 620.824 -2.1639 2.06919 0
M  V30 6590 H 618.37 -1.03976 0.996243 0
M  V30 6591 H 620.323 -4.16016 0.671485 0
M  V30 6592 H 619.047 -3.2607 -0.185969 0
M  V30 6593 H 617.706 -3.10987 1.9412 0
M  V30 6594 H 617.354 -5.01696 0.361989 0
M  V30 6595 H 617.054 -5.50751 2.04811 0
M  V30 6596 H 618.578 -5.97811 1.24315 0
M  V30 6597 H 619.992 -4.77641 3.17067 0
M  V30 6598 H 618.389 -4.53906 3.92542 0
M  V30 6599 H 619.459 -3.14515 3.69064 0
M  V30 6600 N 620.802 -1.09834 -1.13024 0
M  V30 6601 C 622.027 -0.85909 -1.88771 0
M  V30 6602 C 622.452 0.584402 -1.78791 0
M  V30 6603 O 621.81 1.41101 -1.13842 0
M  V30 6604 C 621.858 -1.30427 -3.36186 0
M  V30 6605 O 620.962 -0.465368 -4.09766 0
M  V30 6606 H 620.303 -0.310786 -0.586778 0
M  V30 6607 H 622.833 -1.46355 -1.42973 0
M  V30 6608 H 622.843 -1.2915 -3.8702 0
M  V30 6609 H 621.518 -2.3555 -3.42767 0
M  V30 6610 H 620.095 -0.542814 -3.68928 0
M  V30 6611 N 622.28 1.30327 -0.886154 0
M  V30 6612 C 623.691 1.78243 -0.555554 0
M  V30 6613 C 624.042 1.72849 0.928314 0
M  V30 6614 O 623.167 1.30607 1.72542 0
M  V30 6615 C 623.762 3.23654 -1.00168 0
M  V30 6616 C 622.321 3.69401 -0.722471 0
M  V30 6617 C 621.468 2.50753 -1.18399 0
M  V30 6618 H 624.419 1.1718 -1.07026 0
M  V30 6619 H 624.44 3.79056 -0.331152 0
M  V30 6620 H 623.952 3.27548 -2.08169 0
M  V30 6621 H 622.053 3.70995 0.345496 0
M  V30 6622 H 622.166 4.60818 -1.31085 0
M  V30 6623 H 620.53 2.47452 -0.603303 0
M  V30 6624 H 621.313 2.57383 -2.27176 0
M  V30 6625 N 623.758 0.647228 1.43697 0
M  V30 6626 C 625.006 0.157876 2.01482 0
M  V30 6627 C 625.327 -1.23039 1.51282 0
M  V30 6628 O 624.597 -1.82071 0.722982 0
M  V30 6629 H 623.177 0.0553745 0.744945 0
M  V30 6630 H 625.839 0.83755 1.75986 0
M  V30 6631 H 624.935 0.137895 3.11795 0
M  V30 6632 N 625.236 -1.5273 0.388769 0
M  V30 6633 C 626.482 -2.01871 -0.193877 0
M  V30 6634 C 626.815 -1.27475 -1.46505 0
M  V30 6635 O 626.09 -0.375063 -1.90849 0
M  V30 6636 C 626.373 -3.5712 -0.462336 0
M  V30 6637 C 626.226 -4.42186 0.824091 0
M  V30 6638 C 627.545 -4.21881 -1.25319 0
M  V30 6639 H 624.664 -0.733764 -0.0689899 0
M  V30 6640 H 627.306 -1.82796 0.518231 0
M  V30 6641 H 625.456 -3.73504 -1.06896 0
M  V30 6642 H 627.128 -4.37554 1.46096 0
M  V30 6643 H 625.371 -4.09219 1.43952 0
M  V30 6644 H 626.042 -5.48828 0.590905 0
M  V30 6645 H 628.518 -4.0947 -0.73981 0
M  V30 6646 H 627.394 -5.30487 -1.40977 0
M  V30 6647 H 627.655 -3.79478 -2.26824 0
M  V30 6648 N 626.714 -0.118576 -1.57153 0
M  V30 6649 C 627.644 0.828436 -2.1831 0
M  V30 6650 C 628.625 1.27758 -1.12303 0
M  V30 6651 O 629.81 1.34026 -1.40537 0
M  V30 6652 C 626.94 2.07876 -2.78217 0
M  V30 6653 C 625.894 1.76742 -3.89803 0
M  V30 6654 C 625.22 3.08801 -4.36516 0
M  V30 6655 C 626.52 1.03606 -5.11921 0
M  V30 6656 H 628.214 0.318824 -2.97698 0
M  V30 6657 H 625.76 0.151911 -1.43196 0
M  V30 6658 H 627.713 2.74584 -3.19659 0
M  V30 6659 H 626.437 2.61161 -1.96118 0
M  V30 6660 H 625.096 1.12424 -3.48936 0
M  V30 6661 H 624.744 3.6002 -3.51276 0
M  V30 6662 H 624.444 2.88743 -5.11763 0
M  V30 6663 H 625.968 3.76627 -4.80608 0
M  V30 6664 H 627.382 1.60467 -5.50385 0
M  V30 6665 H 625.779 0.936454 -5.92748 0
M  V30 6666 H 626.849 0.0227421 -4.84895 0
M  V30 6667 N 628.193 1.56834 0.155195 0
M  V30 6668 C 629.439 1.83169 0.870467 0
M  V30 6669 C 629.772 0.698929 1.81187 0
M  V30 6670 O 629.047 -0.298035 1.92203 0
M  V30 6671 C 629.33 3.19965 1.65211 0
M  V30 6672 C 629.183 4.43792 0.732744 0
M  V30 6673 C 630.502 3.53885 2.61636 0
M  V30 6674 H 627.621 0.666288 0.315006 0
M  V30 6675 H 630.263 1.89513 0.135988 0
M  V30 6676 H 628.413 3.14687 2.27825 0
M  V30 6677 H 630.085 4.61148 0.118236 0
M  V30 6678 H 628.328 4.3378 0.0417906 0
M  V30 6679 H 628.999 5.36095 1.31552 0
M  V30 6680 H 631.475 3.5972 2.09143 0
M  V30 6681 H 630.351 4.50648 3.13381 0
M  V30 6682 H 630.612 2.79418 3.42605 0
M  V30 6683 N 629.671 -0.424282 1.51781 0
M  V30 6684 C 631.087 -0.761768 1.40247 0
M  V30 6685 C 631.287 -1.95324 0.495041 0
M  V30 6686 O 630.343 -2.5246 -0.0448949 0
M  V30 6687 C 631.656 -1.0299 2.82513 0
M  V30 6688 C 633.204 -1.13354 2.91753 0
M  V30 6689 C 633.679 -1.43453 4.34954 0
M  V30 6690 N 635.17 -1.5035 4.3812 0
M  V30 6691 C 635.905 -1.75236 5.45967 0
M  V30 6692 N 635.401 -1.97827 6.63955 0
M  V30 6693 N 637.194 -1.77126 5.33463 0
M  V30 6694 H 629.345 0.360228 2.09323 0
M  V30 6695 H 631.608 0.0988128 0.942836 0
M  V30 6696 H 631.314 -0.226961 3.50967 0
M  V30 6697 H 631.188 -1.95411 3.22637 0
M  V30 6698 H 633.575 -1.92709 2.23489 0
M  V30 6699 H 633.656 -0.188041 2.55108 0
M  V30 6700 H 633.3 -0.646209 5.03772 0
M  V30 6701 H 633.23 -2.3923 4.69123 0
M  V30 6702 H 635.721 -1.34742 3.53062 0
M  V30 6703 H 636.034 -2.16223 7.41935 0
M  V30 6704 H 634.379 -1.95123 6.67047 0
M  V30 6705 H 637.57 -1.59005 4.40267 0
M  V30 6706 H 637.743 -1.96182 6.17589 0
M  V30 6707 N 631.149 -1.42148 -0.680565 0
M  V30 6708 C 632.389 -1.4379 -1.45271 0
M  V30 6709 C 632.753 -0.0504426 -1.91934 0
M  V30 6710 O 633.954 0.0583916 -2.68737 0
M  V30 6711 C 632.225 -2.42904 -2.62168 0
M  V30 6712 S 633.784 -2.63201 -3.51099 0
M  V30 6713 H 630.602 -0.509185 -0.496237 0
M  V30 6714 H 633.204 -1.78706 -0.792744 0
M  V30 6715 H 631.908 -3.4249 -2.26116 0
M  V30 6716 H 631.439 -2.09394 -3.33043 0
M  V30 6717 H 633.454 -1.91068 -4.57938 0
M  V30 6718 N 632.627 0.916307 -1.28225 0
M  V30 6719 C 633.59 1.99996 -1.11957 0
M  V30 6720 C 634.59 1.60688 -0.0600152 0
M  V30 6721 O 635.78 1.71499 -0.30558 0
M  V30 6722 C 632.912 3.33458 -0.708411 0
M  V30 6723 H 634.105 2.15858 -2.08196 0
M  V30 6724 H 631.658 1.09863 -1.11175 0
M  V30 6725 H 632.393 3.23297 0.254859 0
M  V30 6726 H 632.178 3.63349 -1.47377 0
M  V30 6727 H 633.668 4.13014 -0.617164 0
M  V30 6728 N 634.105 1.10431 1.1244 0
M  V30 6729 C 635.33 0.869089 1.88313 0
M  V30 6730 C 635.755 -0.574912 1.79099 0
M  V30 6731 O 635.113 -1.40496 1.14589 0
M  V30 6732 C 635.161 1.32208 3.3549 0
M  V30 6733 O 634.265 0.487092 4.09513 0
M  V30 6734 H 633.606 0.313894 0.585121 0
M  V30 6735 H 636.136 1.47111 1.42195 0
M  V30 6736 H 636.146 1.31201 3.86329 0
M  V30 6737 H 634.821 2.37364 3.41513 0
M  V30 6738 H 633.398 0.562372 3.68635 0
M  V30 6739 N 635.583 -1.29855 0.893053 0
M  V30 6740 C 636.831 -1.9544 0.514566 0
M  V30 6741 C 637.152 -1.70795 -0.940959 0
M  V30 6742 O 636.422 -1.03601 -1.66264 0
M  V30 6743 H 635.002 -0.723137 0.187302 0
M  V30 6744 H 637.664 -1.58234 1.13789 0
M  V30 6745 H 636.76 -3.04341 0.691581 0
M  V30 6746 N 637.061 -0.65484 -1.43351 0
M  V30 6747 C 638.472 -0.248506 -1.85039 0
M  V30 6748 C 638.823 1.20526 -1.54816 0
M  V30 6749 O 637.948 1.92016 -0.99794 0
M  V30 6750 C 638.543 -0.444241 -3.35875 0
M  V30 6751 C 637.102 -0.0922108 -3.76287 0
M  V30 6752 C 636.249 -0.746327 -2.67068 0
M  V30 6753 H 639.2 -0.8584 -1.33481 0
M  V30 6754 H 639.221 0.309762 -3.79237 0
M  V30 6755 H 638.733 -1.50239 -3.5784 0
M  V30 6756 H 636.834 0.96328 -3.59933 0
M  V30 6757 H 636.947 -0.518807 -4.76283 0
M  V30 6758 H 635.311 -0.179416 -2.54067 0
M  V30 6759 H 636.094 -1.80754 -2.91861 0
M  V30 6760 N 638.539 1.52521 -0.396863 0
M  V30 6761 C 639.95 1.86547 0.0754868 0
M  V30 6762 C 640.301 1.31621 1.45501 0
M  V30 6763 O 639.426 0.650563 2.0639 0
M  V30 6764 C 640.021 3.38495 0.143754 0
M  V30 6765 C 638.58 3.72205 0.560413 0
M  V30 6766 C 637.727 2.75954 -0.272856 0
M  V30 6767 H 640.678 1.46323 -0.614434 0
M  V30 6768 H 640.699 3.68153 0.961425 0
M  V30 6769 H 640.211 3.78442 -0.860415 0
M  V30 6770 H 638.312 3.3783 1.57167 0
M  V30 6771 H 638.425 4.78074 0.313314 0
M  V30 6772 H 636.789 2.53339 0.263 0
M  V30 6773 H 637.572 3.1874 -1.27515 0
M  V30 6774 N 640.017 0.126909 1.57088 0
M  V30 6775 C 641.428 -0.397201 1.82426 0
M  V30 6776 C 641.779 -1.66084 1.04453 0
M  V30 6777 O 640.904 -2.14534 0.283552 0
M  V30 6778 C 641.499 -0.727411 3.30899 0
M  V30 6779 C 640.058 -1.19612 3.56889 0
M  V30 6780 C 639.205 -0.20885 2.76512 0
M  V30 6781 H 642.156 0.351924 1.54749 0
M  V30 6782 H 642.177 -1.58407 3.45959 0
M  V30 6783 H 641.689 0.19247 3.87622 0
M  V30 6784 H 639.79 -2.13263 3.05532 0
M  V30 6785 H 639.903 -1.13598 4.65438 0
M  V30 6786 H 638.267 -0.697479 2.44964 0
M  V30 6787 H 639.05 0.704267 3.35998 0
M  V30 6788 N 641.495 -1.56914 -0.146875 0
M  V30 6789 C 642.443 -1.99224 -1.20053 0
M  V30 6790 C 643.437 -0.884661 -1.44465 0
M  V30 6791 O 644.643 -1.06984 -1.44756 0
M  V30 6792 H 641.018 -0.634191 -0.404112 0
M  V30 6793 H 642.989 -2.86998 -0.816987 0
M  V30 6794 C 641.738 -2.38899 -2.52632 0
M  V30 6795 H 641.061 -3.23677 -2.34677 0
M  V30 6796 H 642.501 -2.72326 -3.24984 0
M  V30 6797 C 640.96 -1.2417 -3.13183 0
M  V30 6798 O 641.49 -0.542503 -3.9802 0
M  V30 6799 N 639.696 -1.00592 -2.72635 0
M  V30 6800 H 639.243 -1.57627 -2.03744 0
M  V30 6801 H 639.201 -0.240174 -3.13481 0
M  V30 6802 N 642.974 0.416227 -1.52004 0
M  V30 6803 C 644.199 1.19029 -1.69843 0
M  V30 6804 C 644.624 1.83708 -0.404103 0
M  V30 6805 O 643.982 1.69711 0.637787 0
M  V30 6806 C 644.03 2.23439 -2.83032 0
M  V30 6807 O 643.134 3.29419 -2.48106 0
M  V30 6808 H 642.475 0.347785 -0.565634 0
M  V30 6809 H 645.005 0.488871 -1.98674 0
M  V30 6810 H 645.015 2.67884 -3.07737 0
M  V30 6811 H 643.69 1.75745 -3.76944 0
M  V30 6812 H 642.267 2.90303 -2.34048 0
M  V30 6813 N 644.452 1.42507 0.673017 0
M  V30 6814 C 645.863 1.38347 1.25367 0
M  V30 6815 C 646.214 0.0776327 1.96046 0
M  V30 6816 O 645.339 -0.823571 2.00116 0
M  V30 6817 C 645.934 2.506 2.28002 0
M  V30 6818 C 644.493 2.49767 2.81591 0
M  V30 6819 C 643.64 2.293 1.55938 0
M  V30 6820 H 646.591 1.51695 0.466288 0
M  V30 6821 H 646.612 2.20953 3.09774 0
M  V30 6822 H 646.124 3.45627 1.76532 0
M  V30 6823 H 644.225 1.58563 3.37177 0
M  V30 6824 H 644.338 3.46867 3.30485 0
M  V30 6825 H 642.702 1.77594 1.82572 0
M  V30 6826 H 643.485 3.26385 1.06431 0
M  V30 6827 N 645.93 -0.909495 1.28709 0
M  V30 6828 C 647.346 -1.18862 1.06508 0
M  V30 6829 C 647.546 -2.00604 -0.189864 0
M  V30 6830 O 646.602 -2.36281 -0.890355 0
M  V30 6831 C 647.915 -1.91908 2.31499 0
M  V30 6832 C 649.463 -2.04773 2.36721 0
M  V30 6833 C 649.938 -2.81228 3.6149 0
M  V30 6834 N 651.429 -2.88787 3.62155 0
M  V30 6835 C 652.164 -3.48455 4.55375 0
M  V30 6836 N 651.66 -4.09369 5.58918 0
M  V30 6837 N 653.453 -3.46035 4.42963 0
M  V30 6838 H 645.604 -0.363867 2.0926 0
M  V30 6839 H 647.867 -0.223649 0.921241 0
M  V30 6840 H 647.573 -1.39275 3.22948 0
M  V30 6841 H 647.447 -2.92436 2.38245 0
M  V30 6842 H 649.834 -2.56585 1.45767 0
M  V30 6843 H 649.915 -1.03408 2.33967 0
M  V30 6844 H 649.559 -2.30094 4.5279 0
M  V30 6845 H 649.489 -3.82917 3.61499 0
M  V30 6846 H 651.98 -2.45514 2.87283 0
M  V30 6847 H 652.293 -4.52891 6.26187 0
M  V30 6848 H 650.638 -4.0786 5.62739 0
M  V30 6849 H 653.829 -2.9766 3.6127 0
M  V30 6850 H 654.002 -3.92244 5.15799 0
M  V30 6851 N 647.408 -1.11026 -1.11852 0
M  V30 6852 C 648.819 -0.873203 -1.65021 0
M  V30 6853 C 649.17 0.595364 -1.86949 0
M  V30 6854 O 648.295 1.45645 -1.60051 0
M  V30 6855 C 648.89 -1.57859 -2.99777 0
M  V30 6856 C 647.449 -1.38807 -3.49871 0
M  V30 6857 C 646.596 -1.62403 -2.24768 0
M  V30 6858 H 649.547 -1.26712 -0.955503 0
M  V30 6859 H 649.568 -1.02111 -3.66543 0
M  V30 6860 H 649.08 -2.6474 -2.83786 0
M  V30 6861 H 647.181 -0.341163 -3.71035 0
M  V30 6862 H 647.294 -2.13421 -4.28938 0
M  V30 6863 H 645.658 -1.04714 -2.32179 0
M  V30 6864 H 646.441 -2.70549 -2.11324 0
M  V30 6865 N 648.886 1.2938 -0.899927 0
M  V30 6866 C 650.134 1.95164 -0.524924 0
M  V30 6867 C 650.455 1.71292 0.931888 0
M  V30 6868 O 649.725 1.04481 1.65712 0
M  V30 6869 H 648.305 0.722133 -0.191135 0
M  V30 6870 H 650.967 1.57628 -1.14627 0
M  V30 6871 H 650.063 3.0397 -0.707711 0
M  V30 6872 N 650.364 0.662433 1.43002 0
M  V30 6873 C 651.775 0.258315 1.84904 0
M  V30 6874 C 652.126 -1.19703 1.55453 0
M  V30 6875 O 651.251 -1.91484 1.00811 0
M  V30 6876 C 651.846 0.462047 3.35635 0
M  V30 6877 C 650.405 0.112165 3.76233 0
M  V30 6878 C 649.552 0.760479 2.66668 0
M  V30 6879 H 652.503 0.865467 1.33024 0
M  V30 6880 H 652.524 -0.289646 3.79396 0
M  V30 6881 H 652.036 1.52135 3.57039 0
M  V30 6882 H 650.137 -0.944179 3.60439 0
M  V30 6883 H 650.25 0.544058 4.76001 0
M  V30 6884 H 648.614 0.192887 2.53969 0
M  V30 6885 H 649.397 1.82299 2.90898 0
M  V30 6886 N 651.842 -1.52309 0.404946 0
M  V30 6887 C 653.253 -1.86585 -0.0655926 0
M  V30 6888 C 653.604 -1.3239 -1.44801 0
M  V30 6889 O 652.729 -0.6615 -2.06042 0
M  V30 6890 C 653.324 -3.38566 -0.125801 0
M  V30 6891 C 651.883 -3.72497 -0.540666 0
M  V30 6892 C 651.03 -2.75806 0.287487 0
M  V30 6893 H 653.981 -1.45995 0.622185 0
M  V30 6894 H 654.002 -3.68658 -0.941888 0
M  V30 6895 H 653.514 -3.77981 0.880473 0
M  V30 6896 H 651.615 -3.38659 -1.55373 0
M  V30 6897 H 651.728 -4.78234 -0.287956 0
M  V30 6898 H 650.092 -2.53474 -0.249561 0
M  V30 6899 H 650.875 -3.18059 1.29203 0
M  V30 6900 N 653.32 -0.135238 -1.57019 0
M  V30 6901 C 654.731 0.387521 -1.82634 0
M  V30 6902 C 655.082 1.65528 -1.05332 0
M  V30 6903 O 654.207 2.14381 -0.294926 0
M  V30 6904 C 654.802 0.709852 -3.3128 0
M  V30 6905 C 653.361 1.17718 -3.57518 0
M  V30 6906 C 652.508 0.194183 -2.76619 0
M  V30 6907 H 655.459 -0.360126 -1.5456 0
M  V30 6908 H 655.48 1.5657 -3.46794 0
M  V30 6909 H 654.992 -0.213024 -3.87515 0
M  V30 6910 H 653.093 2.1164 -3.06658 0
M  V30 6911 H 653.206 1.11128 -4.66034 0
M  V30 6912 H 651.57 0.684478 -2.4533 0
M  V30 6913 H 652.353 -0.722076 -3.3562 0
M  V30 6914 N 654.798 1.5699 0.138552 0
M  V30 6915 C 656.023 1.88344 0.86841 0
M  V30 6916 C 656.448 0.725159 1.7356 0
M  V30 6917 O 655.806 -0.324992 1.78363 0
M  V30 6918 C 655.854 3.18334 1.69398 0
M  V30 6919 O 654.958 3.02863 2.79907 0
M  V30 6920 H 654.299 0.618577 0.241367 0
M  V30 6921 H 656.829 2.04207 0.126826 0
M  V30 6922 H 656.839 3.50567 2.08726 0
M  V30 6923 H 655.514 4.02238 1.05725 0
M  V30 6924 H 654.091 2.82056 2.43924 0
M  V30 6925 N 656.276 -0.40816 1.52223 0
M  V30 6926 C 657.504 -1.17672 1.70179 0
M  V30 6927 C 657.919 -1.84257 0.411696 0
M  V30 6928 O 657.276 -1.7192 -0.612354 0
M  V30 6929 C 657.327 -2.23911 2.83806 0
M  V30 6930 O 657.048 -1.60044 4.0782 0
M  V30 6931 C 658.549 -3.1364 3.13281 0
M  V30 6932 H 655.769 -0.353562 0.570293 0
M  V30 6933 H 658.313 -0.480083 1.98785 0
M  V30 6934 H 656.468 -2.89242 2.57717 0
M  V30 6935 H 656.882 -2.30484 4.71145 0
M  V30 6936 H 658.356 -3.84255 3.96298 0
M  V30 6937 H 658.833 -3.76066 2.26872 0
M  V30 6938 H 659.439 -2.53977 3.41139 0
M  V30 6939 N 657.755 -1.42862 -0.66545 0
M  V30 6940 C 658.98 -1.47456 -1.45848 0
M  V30 6941 C 659.405 -0.0900312 -1.87884 0
M  V30 6942 O 658.763 0.913587 -1.56599 0
M  V30 6943 C 658.811 -2.41514 -2.67774 0
M  V30 6944 O 657.915 -1.89296 -3.66389 0
M  V30 6945 H 657.256 -0.499236 -0.437789 0
M  V30 6946 H 659.786 -1.8765 -0.815394 0
M  V30 6947 H 659.796 -2.58409 -3.15735 0
M  V30 6948 H 658.471 -3.42099 -2.36519 0
M  V30 6949 H 657.048 -1.82003 -3.25468 0
M  V30 6950 N 659.233 0.902656 -1.29189 0
M  V30 6951 C 660.458 1.69167 -1.19989 0
M  V30 6952 C 660.883 1.86607 0.236495 0
M  V30 6953 O 660.241 1.38425 1.17082 0
M  V30 6954 C 660.289 3.05532 -1.91527 0
M  V30 6955 O 659.393 3.93621 -1.2303 0
M  V30 6956 H 658.734 0.517584 -0.415936 0
M  V30 6957 H 661.264 1.12785 -1.70706 0
M  V30 6958 H 661.274 3.55693 -1.99866 0
M  V30 6959 H 659.949 2.92156 -2.96003 0
M  V30 6960 H 658.526 3.52055 -1.22928 0
M  V30 6961 N 660.711 1.11618 1.11262 0
M  V30 6962 C 662.122 0.881942 1.64556 0
M  V30 6963 C 662.473 -0.585442 1.87262 0
M  V30 6964 O 661.598 -1.44795 1.60821 0
M  V30 6965 C 662.193 1.59446 2.98935 0
M  V30 6966 C 660.752 1.40661 3.4913 0
M  V30 6967 C 659.899 1.63593 2.23903 0
M  V30 6968 H 662.85 1.27217 0.94877 0
M  V30 6969 H 662.871 1.04054 3.65996 0
M  V30 6970 H 662.383 2.66241 2.82378 0
M  V30 6971 H 660.484 0.360835 3.70849 0
M  V30 6972 H 660.597 2.15693 4.27801 0
M  V30 6973 H 658.961 1.05944 2.3162 0
M  V30 6974 H 659.744 2.71666 2.09886 0
M  V30 6975 N 662.189 -1.289 0.906776 0
M  V30 6976 C 663.139 -2.25122 0.361109 0
M  V30 6977 C 664.123 -1.52169 -0.52283 0
M  V30 6978 O 665.315 -1.73223 -0.363691 0
M  V30 6979 C 662.444 -3.40915 -0.403982 0
M  V30 6980 C 661.53 -4.21198 0.495279 0
M  V30 6981 N 661.921 -4.79636 1.60572 0
M  V30 6982 C 660.219 -4.45027 0.294372 0
M  V30 6983 C 660.92 -5.39977 2.16332 0
M  V30 6984 N 659.896 -5.23753 1.45546 0
M  V30 6985 H 663.698 -2.67869 1.20927 0
M  V30 6986 H 661.212 -1.43592 0.758632 0
M  V30 6987 H 663.209 -4.08922 -0.811695 0
M  V30 6988 H 661.869 -2.99703 -1.24932 0
M  V30 6989 H 662.88 -4.78209 1.98838 0
M  V30 6990 H 659.557 -4.14348 -0.512021 0
M  V30 6991 H 660.947 -5.96266 3.09704 0
M  V30 6992 N 663.667 -0.670007 -1.42649 0
M  V30 6993 C 664.597 -0.00258501 -2.335 0
M  V30 6994 C 665.578 0.794364 -1.50412 0
M  V30 6995 O 666.763 0.75248 -1.79029 0
M  V30 6996 C 663.893 0.952748 -3.33976 0
M  V30 6997 C 662.847 0.264733 -4.2718 0
M  V30 6998 C 662.173 1.33267 -5.17826 0
M  V30 6999 C 663.473 -0.853289 -5.15283 0
M  V30 7000 H 665.167 -0.761326 -2.89559 0
M  V30 7001 H 662.713 -0.367561 -1.3923 0
M  V30 7002 H 664.666 1.4287 -3.96442 0
M  V30 7003 H 663.39 1.74285 -2.7621 0
M  V30 7004 H 662.049 -0.190938 -3.66102 0
M  V30 7005 H 661.697 2.11464 -4.5639 0
M  V30 7006 H 661.397 0.877476 -5.81011 0
M  V30 7007 H 662.921 1.80965 -5.83167 0
M  V30 7008 H 664.335 -0.458763 -5.71462 0
M  V30 7009 H 662.732 -1.23398 -5.87276 0
M  V30 7010 H 663.802 -1.70412 -4.53969 0
M  V30 7011 N 665.145 1.52092 -0.413018 0
M  V30 7012 C 666.373 2.06274 0.160881 0
M  V30 7013 C 666.788 1.28273 1.38533 0
M  V30 7014 O 666.145 0.33563 1.79387 0
M  V30 7015 C 666.196 3.57921 0.507443 0
M  V30 7016 O 665.917 4.32971 -0.668388 0
M  V30 7017 C 667.418 4.28533 1.13465 0
M  V30 7018 H 664.638 0.67074 0.0186759 0
M  V30 7019 H 667.182 1.95951 -0.585092 0
M  V30 7020 H 665.337 3.68238 1.20331 0
M  V30 7021 H 665.751 5.23135 -0.378169 0
M  V30 7022 H 667.225 5.35804 1.32732 0
M  V30 7023 H 667.702 3.85258 2.10886 0
M  V30 7024 H 668.308 4.22595 0.478876 0
M  V30 7025 N 666.623 0.143563 1.56945 0
M  V30 7026 C 667.586 -0.783295 2.154 0
M  V30 7027 C 668.586 -1.17763 1.09492 0
M  V30 7028 O 669.776 -1.09912 1.35148 0
M  V30 7029 C 666.908 -2.06248 2.7143 0
M  V30 7030 H 668.101 -0.274863 2.98638 0
M  V30 7031 H 665.654 -0.105859 1.55941 0
M  V30 7032 H 666.389 -2.61466 1.91849 0
M  V30 7033 H 666.174 -1.78897 3.4891 0
M  V30 7034 H 667.664 -2.72453 3.16479 0
M  V30 7035 N 668.101 -1.57061 -0.130224 0
M  V30 7036 C 669.051 -1.95941 -1.16582 0
M  V30 7037 C 670.035 -0.832858 -1.37667 0
M  V30 7038 O 671.227 -1.09647 -1.38948 0
M  V30 7039 C 668.356 -2.35777 -2.49528 0
M  V30 7040 C 667.442 -3.5504 -2.31964 0
M  V30 7041 N 667.833 -4.71071 -1.84189 0
M  V30 7042 C 666.131 -3.60453 -2.62659 0
M  V30 7043 C 666.832 -5.53128 -1.80068 0
M  V30 7044 N 665.808 -4.95303 -2.24001 0
M  V30 7045 H 669.61 -2.83117 -0.788806 0
M  V30 7046 H 667.124 -1.58842 -0.3381 0
M  V30 7047 H 669.121 -2.61843 -3.24413 0
M  V30 7048 H 667.781 -1.49961 -2.87996 0
M  V30 7049 H 668.792 -4.94504 -1.53903 0
M  V30 7050 H 665.469 -2.85217 -3.0489 0
M  V30 7051 H 666.859 -6.56182 -1.4448 0
M  V30 7052 N 669.579 0.400081 -1.52437 0
M  V30 7053 C 670.804 1.17221 -1.71096 0
M  V30 7054 C 671.229 1.83269 -0.423565 0
M  V30 7055 O 670.587 1.70378 0.619751 0
M  V30 7056 C 670.635 2.20425 -2.85386 0
M  V30 7057 O 669.739 3.26769 -2.51586 0
M  V30 7058 H 669.08 0.341766 -0.569291 0
M  V30 7059 H 671.61 0.467772 -1.99181 0
M  V30 7060 H 671.62 2.64605 -3.10561 0
M  V30 7061 H 670.295 1.71737 -3.78786 0
M  V30 7062 H 668.872 2.87804 -2.37114 0
M  V30 7063 N 671.057 1.43213 0.657864 0
M  V30 7064 C 671.967 1.50448 1.80007 0
M  V30 7065 C 672.983 0.39191 1.69529 0
M  V30 7066 O 674.159 0.645349 1.90781 0
M  V30 7067 C 671.224 1.42062 3.16258 0
M  V30 7068 C 670.285 2.63951 3.38568 0
M  V30 7069 C 669.518 2.55956 4.68318 0
M  V30 7070 O 669.741 1.60473 5.47361 0
M  V30 7071 O 668.675 3.46378 4.92245 0
M  V30 7072 H 672.501 2.4689 1.76858 0
M  V30 7073 H 670.086 1.25163 0.81576 0
M  V30 7074 H 671.968 1.3981 3.97531 0
M  V30 7075 H 670.643 0.487524 3.20008 0
M  V30 7076 H 669.55 2.71776 2.57077 0
M  V30 7077 H 670.883 3.56217 3.39662 0
M  V30 7078 N 672.536 -0.895792 1.29666 0
M  V30 7079 C 673.947 -1.46195 1.1612 0
M  V30 7080 C 674.298 -1.94699 -0.242195 0
M  V30 7081 O 673.423 -1.8406 -1.13802 0
M  V30 7082 C 674.018 -2.65718 2.10189 0
M  V30 7083 C 672.577 -3.18458 2.00653 0
M  V30 7084 C 671.724 -1.91149 2.00891 0
M  V30 7085 H 674.675 -0.706756 1.42094 0
M  V30 7086 H 674.696 -3.4158 1.6764 0
M  V30 7087 H 674.208 -2.30386 3.12321 0
M  V30 7088 H 672.309 -3.58474 1.01623 0
M  V30 7089 H 672.422 -3.82491 2.88509 0
M  V30 7090 H 670.786 -2.09021 1.45542 0
M  V30 7091 H 671.569 -1.58089 3.04734 0
M  V30 7092 N 674.014 -1.12206 -1.10668 0
M  V30 7093 C 675.239 -0.898938 -1.86906 0
M  V30 7094 C 675.664 0.546346 -1.79991 0
M  V30 7095 O 675.022 1.38655 -1.1681 0
M  V30 7096 C 675.07 -1.37529 -3.33344 0
M  V30 7097 O 674.174 -0.55218 -4.08687 0
M  V30 7098 H 673.515 -0.323163 -0.580053 0
M  V30 7099 H 676.045 -1.49355 -1.39837 0
M  V30 7100 H 676.055 -1.3733 -3.84193 0
M  V30 7101 H 674.73 -2.42767 -3.37693 0
M  V30 7102 H 673.307 -0.620947 -3.67694 0
M  V30 7103 N 675.492 1.28418 -0.913599 0
M  V30 7104 C 676.422 2.29713 -0.418847 0
M  V30 7105 C 677.403 1.62165 0.513469 0
M  V30 7106 O 678.588 1.89576 0.421235 0
M  V30 7107 C 675.718 3.45612 0.342042 0
M  V30 7108 C 674.672 4.25056 -0.501123 0
M  V30 7109 C 673.998 5.3329 0.388097 0
M  V30 7110 C 675.298 4.91814 -1.75831 0
M  V30 7111 H 676.992 2.71346 -1.26538 0
M  V30 7112 H 674.538 1.30446 -0.609903 0
M  V30 7113 H 676.491 4.15562 0.699 0
M  V30 7114 H 675.215 3.02858 1.22248 0
M  V30 7115 H 673.874 3.56833 -0.840598 0
M  V30 7116 H 673.522 4.8678 1.26707 0
M  V30 7117 H 673.222 5.87347 -0.172459 0
M  V30 7118 H 674.746 6.06088 0.74094 0
M  V30 7119 H 676.16 5.54126 -1.47026 0
M  V30 7120 H 674.557 5.55866 -2.26126 0
M  V30 7121 H 675.627 4.16313 -2.4862 0
M  V30 7122 N 676.97 0.677563 1.42291 0
M  V30 7123 C 678.216 0.209962 2.02313 0
M  V30 7124 C 678.571 -1.1714 1.52631 0
M  V30 7125 O 677.864 -1.7756 0.719938 0
M  V30 7126 C 678.058 0.187229 3.56909 0
M  V30 7127 C 677.887 1.56484 4.21595 0
M  V30 7128 C 676.657 2.16329 4.56651 0
M  V30 7129 C 678.855 2.50805 4.49 0
M  V30 7130 N 676.837 3.46842 5.06531 0
M  V30 7131 C 678.208 3.65976 5.00461 0
M  V30 7132 C 680.263 2.493 4.30992 0
M  V30 7133 C 678.966 4.79899 5.35807 0
M  V30 7134 C 680.992 3.62322 4.67415 0
M  V30 7135 C 680.354 4.76221 5.19031 0
M  V30 7136 H 676.453 0.121815 0.772454 0
M  V30 7137 H 679.037 0.891148 1.73109 0
M  V30 7138 H 677.208 -0.46338 3.85626 0
M  V30 7139 H 678.94 -0.293512 4.03634 0
M  V30 7140 H 675.695 1.6879 4.42501 0
M  V30 7141 H 676.119 4.13694 5.35898 0
M  V30 7142 H 680.761 1.62467 3.90339 0
M  V30 7143 H 678.479 5.67406 5.75392 0
M  V30 7144 H 682.065 3.62388 4.55155 0
M  V30 7145 H 680.945 5.62228 5.46689 0
M  V30 7146 N 678.448 -1.51871 0.421078 0
M  V30 7147 C 679.396 -2.28903 -0.413066 0
M  V30 7148 C 680.39 -1.3408 -1.03532 0
M  V30 7149 O 681.596 -1.5149 -0.972146 0
M  V30 7150 H 677.971 -0.736478 -0.152003 0
M  V30 7151 H 679.942 -2.97285 0.257695 0
M  V30 7152 C 678.691 -3.13156 -1.51091 0
M  V30 7153 H 678.014 -3.85997 -1.04145 0
M  V30 7154 H 679.454 -3.7014 -2.06814 0
M  V30 7155 C 677.913 -2.27482 -2.48503 0
M  V30 7156 O 678.443 -1.92325 -3.52667 0
M  V30 7157 N 676.649 -1.91019 -2.18998 0
M  V30 7158 H 676.196 -2.19808 -1.34322 0
M  V30 7159 H 676.154 -1.3399 -2.84419 0
M  V30 7160 N 679.926 -0.151884 -1.56866 0
M  V30 7161 C 681.337 0.368128 -1.83035 0
M  V30 7162 C 681.688 1.64402 -1.07082 0
M  V30 7163 O 680.813 2.14056 -0.317647 0
M  V30 7164 C 681.408 0.674676 -3.32014 0
M  V30 7165 C 679.967 1.13919 -3.58747 0
M  V30 7166 C 679.114 0.164833 -2.7681 0
M  V30 7167 H 682.065 -0.376499 -1.54169 0
M  V30 7168 H 682.086 1.52883 -3.48435 0
M  V30 7169 H 681.598 -0.254113 -3.87267 0
M  V30 7170 H 679.699 2.08375 -3.08886 0
M  V30 7171 H 679.812 1.06179 -4.67186 0
M  V30 7172 H 678.176 0.658419 -2.46043 0
M  V30 7173 H 678.959 -0.757633 -3.34836 0
M  V30 7174 N 681.404 1.57128 0.121893 0
M  V30 7175 C 682.815 1.73902 0.679348 0
M  V30 7176 C 683.166 0.770135 1.80453 0
M  V30 7177 O 682.291 -0.0576083 2.16323 0
M  V30 7178 C 682.886 3.15328 1.2391 0
M  V30 7179 C 681.445 3.33618 1.74288 0
M  V30 7180 C 680.592 2.6978 0.641414 0
M  V30 7181 H 683.543 1.58359 -0.104 0
M  V30 7182 H 683.564 3.16718 2.10879 0
M  V30 7183 H 683.076 3.85821 0.419957 0
M  V30 7184 H 681.177 2.68162 2.58689 0
M  V30 7185 H 681.29 4.4176 1.85432 0
M  V30 7186 H 679.654 2.30935 1.0743 0
M  V30 7187 H 680.437 3.42895 -0.166707 0
M  V30 7188 N 682.882 -0.391992 1.52647 0
M  V30 7189 C 684.107 -1.16312 1.71716 0
M  V30 7190 C 684.532 -1.83042 0.433279 0
M  V30 7191 O 683.89 -1.70705 -0.610707 0
M  V30 7192 C 683.938 -2.18908 2.86551 0
M  V30 7193 O 683.042 -3.2543 2.53316 0
M  V30 7194 H 682.383 -0.338743 0.571095 0
M  V30 7195 H 684.913 -0.457202 1.99426 0
M  V30 7196 H 684.923 -2.62954 3.1196 0
M  V30 7197 H 683.598 -1.69726 3.79692 0
M  V30 7198 H 682.175 -2.86543 2.38637 0
M  V30 7199 N 684.36 -1.4356 -0.65026 0
M  V30 7200 C 685.776 -1.27025 -0.966269 0
M  V30 7201 C 685.976 -0.192117 -2.00582 0
M  V30 7202 O 685.032 0.428459 -2.48838 0
M  V30 7203 C 686.345 -2.63556 -1.44772 0
M  V30 7204 C 687.893 -2.71111 -1.56421 0
M  V30 7205 C 688.368 -4.08067 -2.07956 0
M  V30 7206 N 689.859 -4.10146 -2.15254 0
M  V30 7207 C 690.594 -5.12952 -2.56258 0
M  V30 7208 N 690.09 -6.26129 -2.96537 0
M  V30 7209 N 691.883 -5.00306 -2.56224 0
M  V30 7210 H 684.034 -2.12367 0.0375758 0
M  V30 7211 H 686.297 -0.946894 -0.0457782 0
M  V30 7212 H 686.003 -3.43429 -0.758271 0
M  V30 7213 H 685.877 -2.89152 -2.42221 0
M  V30 7214 H 688.264 -1.91569 -2.24467 0
M  V30 7215 H 688.345 -2.49277 -0.573967 0
M  V30 7216 H 687.989 -4.88077 -1.40511 0
M  V30 7217 H 687.919 -4.27266 -3.07817 0
M  V30 7218 H 690.41 -3.28453 -1.86887 0
M  V30 7219 H 690.723 -7.00403 -3.26582 0
M  V30 7220 H 689.068 -6.29597 -2.94334 0
M  V30 7221 H 692.259 -4.10952 -2.24135 0
M  V30 7222 H 692.432 -5.80553 -2.87857 0
M  V30 7223 N 685.838 0.888903 -1.30139 0
M  V30 7224 C 686.748 2.02705 -1.18101 0
M  V30 7225 C 687.764 1.73702 -0.101809 0
M  V30 7226 O 688.94 1.98906 -0.315984 0
M  V30 7227 C 686.005 3.35616 -0.869651 0
M  V30 7228 C 685.066 3.78067 -2.03381 0
M  V30 7229 C 684.299 5.04635 -1.73721 0
M  V30 7230 O 684.522 5.66531 -0.663267 0
M  V30 7231 O 683.456 5.43399 -2.58845 0
M  V30 7232 H 687.282 2.15788 -2.13704 0
M  V30 7233 H 684.867 1.01426 -1.09695 0
M  V30 7234 H 686.749 4.15358 -0.711043 0
M  V30 7235 H 685.424 3.23651 0.0565002 0
M  V30 7236 H 684.331 2.99046 -2.24772 0
M  V30 7237 H 685.664 3.94631 -2.94155 0
M  V30 7238 N 687.317 1.12792 1.10072 0
M  V30 7239 C 688.247 0.821688 2.18565 0
M  V30 7240 C 689.228 -0.21612 1.68721 0
M  V30 7241 O 690.413 -0.0764932 1.94049 0
M  V30 7242 C 687.543 0.279624 3.46172 0
M  V30 7243 C 686.497 1.25092 4.09312 0
M  V30 7244 C 685.823 0.568916 5.31665 0
M  V30 7245 C 687.123 2.60699 4.52585 0
M  V30 7246 H 688.817 1.72888 2.44438 0
M  V30 7247 H 686.363 0.832702 1.17482 0
M  V30 7248 H 688.316 0.053099 4.21367 0
M  V30 7249 H 687.04 -0.662929 3.19801 0
M  V30 7250 H 685.699 1.46332 3.36129 0
M  V30 7251 H 685.347 -0.378898 5.01571 0
M  V30 7252 H 685.047 1.21687 5.74862 0
M  V30 7253 H 686.571 0.351517 6.09587 0
M  V30 7254 H 687.985 2.43465 5.19035 0
M  V30 7255 H 686.382 3.21608 5.06644 0
M  V30 7256 H 687.452 3.1886 3.65317 0
M  V30 7257 N 688.795 -1.27931 0.920396 0
M  V30 7258 C 690.072 -1.89728 0.475687 0
M  V30 7259 C 690.452 -1.8337 -1.04588 0
M  V30 7260 O 689.8 -1.27404 -1.89685 0
M  V30 7261 C 690.01 -3.33959 1.01354 0
M  V30 7262 C 691.358 -4.10907 1.06963 0
M  V30 7263 O 692.382 -3.42945 0.962646 0
M  V30 7264 O 691.241 -5.32399 1.23343 0
M  V30 7265 H 688.335 -0.81294 0.151845 0
M  V30 7266 H 690.881 -1.36252 1.01161 0
M  V30 7267 H 689.653 -3.32843 2.05746 0
M  V30 7268 H 689.276 -3.94944 0.458829 0
M  V30 7269 N 690.273 -0.685099 -1.4193 0
M  V30 7270 C 691.22 -0.0131869 -2.30796 0
M  V30 7271 C 692.19 0.782129 -1.46533 0
M  V30 7272 O 693.375 0.75229 -1.75343 0
M  V30 7273 C 690.515 0.924768 -3.32479 0
M  V30 7274 C 689.628 0.122181 -4.31827 0
M  V30 7275 C 688.763 1.05682 -5.20581 0
M  V30 7276 C 687.802 0.246526 -6.11603 0
M  V30 7277 N 686.939 1.13442 -6.92875 0
M  V30 7278 H 691.779 -0.776789 -2.87698 0
M  V30 7279 H 689.316 -0.394791 -1.41703 0
M  V30 7280 H 691.274 1.48251 -3.89971 0
M  V30 7281 H 689.904 1.65488 -2.77152 0
M  V30 7282 H 688.956 -0.552335 -3.76369 0
M  V30 7283 H 690.268 -0.506473 -4.96222 0
M  V30 7284 H 689.422 1.68415 -5.82856 0
M  V30 7285 H 688.161 1.71935 -4.56388 0
M  V30 7286 H 687.166 -0.393944 -5.48387 0
M  V30 7287 H 688.391 -0.412053 -6.77849 0
M  V30 7288 H 686.337 1.78316 -6.313 0
M  V30 7289 H 686.254 0.561089 -7.53915 0
M  V30 7290 H 687.522 1.74889 -7.59628 0
M  V30 7291 N 691.751 1.51645 -0.429126 0
M  V30 7292 C 693.162 1.86665 0.0359003 0
M  V30 7293 C 693.513 1.34677 1.42676 0
M  V30 7294 O 692.638 0.694195 2.04963 0
M  V30 7295 C 693.233 3.38724 0.0719221 0
M  V30 7296 C 691.792 3.7331 0.481336 0
M  V30 7297 C 690.939 2.75313 -0.331329 0
M  V30 7298 H 693.89 1.44987 -0.645333 0
M  V30 7299 H 693.911 3.7011 0.883118 0
M  V30 7300 H 693.423 3.76532 -0.940495 0
M  V30 7301 H 691.524 3.41088 1.49966 0
M  V30 7302 H 691.637 4.78631 0.211837 0
M  V30 7303 H 690.001 2.53839 0.209204 0
M  V30 7304 H 690.784 3.15963 -1.34247 0
M  V30 7305 N 693.229 0.160201 1.56784 0
M  V30 7306 C 694.64 -0.358417 1.83227 0
M  V30 7307 C 694.991 -1.63831 1.07952 0
M  V30 7308 O 694.116 -2.13885 0.328995 0
M  V30 7309 C 694.711 -0.657058 3.32368 0
M  V30 7310 C 693.27 -1.12015 3.59346 0
M  V30 7311 C 692.417 -0.15015 2.76893 0
M  V30 7312 H 695.368 0.384669 1.53967 0
M  V30 7313 H 695.389 -1.51033 3.49241 0
M  V30 7314 H 694.901 0.274647 3.87127 0
M  V30 7315 H 693.002 -2.06734 3.09987 0
M  V30 7316 H 693.115 -1.037 4.67743 0
M  V30 7317 H 691.479 -0.645361 2.46388 0
M  V30 7318 H 692.262 0.775379 3.34429 0
M  V30 7319 N 694.707 -1.5719 -0.113559 0
M  V30 7320 C 695.637 -2.03772 -1.14013 0
M  V30 7321 C 696.618 -0.923176 -1.42869 0
M  V30 7322 O 697.803 -1.19325 -1.53216 0
M  V30 7323 C 694.933 -2.44663 -2.4649 0
M  V30 7324 C 693.887 -3.59612 -2.32085 0
M  V30 7325 C 693.213 -3.8642 -3.69573 0
M  V30 7326 C 694.513 -4.91149 -1.7768 0
M  V30 7327 H 696.207 -2.89785 -0.752665 0
M  V30 7328 H 693.753 -1.39412 -0.360609 0
M  V30 7329 H 695.706 -2.75857 -3.18561 0
M  V30 7330 H 694.43 -1.55628 -2.87137 0
M  V30 7331 H 693.089 -3.28636 -1.62461 0
M  V30 7332 H 692.737 -2.94581 -4.07715 0
M  V30 7333 H 692.437 -4.63797 -3.60786 0
M  V30 7334 H 693.961 -4.2007 -4.4314 0
M  V30 7335 H 695.375 -5.20843 -2.39574 0
M  V30 7336 H 693.772 -5.72562 -1.79701 0
M  V30 7337 H 694.842 -4.79301 -0.734776 0
M  V30 7338 N 696.185 0.383891 -1.52853 0
M  V30 7339 C 697.115 1.47559 -1.80965 0
M  V30 7340 C 698.096 1.5669 -0.661986 0
M  V30 7341 O 699.281 1.71556 -0.910072 0
M  V30 7342 C 696.411 2.85114 -1.98312 0
M  V30 7343 C 695.365 2.9082 -3.14019 0
M  V30 7344 C 694.691 4.30873 -3.16627 0
M  V30 7345 C 695.991 2.60001 -4.52986 0
M  V30 7346 H 697.685 1.24283 -2.72386 0
M  V30 7347 H 695.231 0.596445 -1.31067 0
M  V30 7348 H 697.184 3.61496 -2.16561 0
M  V30 7349 H 695.908 3.09738 -1.03585 0
M  V30 7350 H 694.567 2.16886 -2.9556 0
M  V30 7351 H 694.215 4.52545 -2.19573 0
M  V30 7352 H 693.915 4.3561 -3.94357 0
M  V30 7353 H 695.439 5.09154 -3.37038 0
M  V30 7354 H 696.853 3.261 -4.71521 0
M  V30 7355 H 695.25 2.76081 -5.32822 0
M  V30 7356 H 696.32 1.5532 -4.59351 0
M  V30 7357 N 697.663 1.43903 0.642637 0
M  V30 7358 C 699.074 1.40975 1.22404 0
M  V30 7359 C 699.425 0.1192 1.95838 0
M  V30 7360 O 698.55 -0.780939 2.01818 0
M  V30 7361 C 699.145 2.5538 2.22636 0
M  V30 7362 C 697.704 2.55684 2.76229 0
M  V30 7363 C 696.851 2.32556 1.51039 0
M  V30 7364 H 699.802 1.5265 0.434006 0
M  V30 7365 H 699.823 2.27474 3.05017 0
M  V30 7366 H 699.335 3.49294 1.69161 0
M  V30 7367 H 697.436 1.65679 3.33738 0
M  V30 7368 H 697.549 3.53799 3.23053 0
M  V30 7369 H 695.913 1.81427 1.78764 0
M  V30 7370 H 696.696 3.28569 0.99484 0
M  V30 7371 N 699.141 -0.881989 1.30609 0
M  V30 7372 C 700.552 -1.44956 1.17664 0
M  V30 7373 C 700.903 -1.94945 -0.221531 0
M  V30 7374 O 700.028 -1.85257 -1.11844 0
M  V30 7375 C 700.623 -2.63474 2.12995 0
M  V30 7376 C 699.182 -3.16312 2.04019 0
M  V30 7377 C 698.329 -1.89008 2.02907 0
M  V30 7378 H 701.28 -0.691645 1.42835 0
M  V30 7379 H 701.301 -3.39783 1.71253 0
M  V30 7380 H 700.813 -2.2706 3.14746 0
M  V30 7381 H 698.914 -3.57376 1.0542 0
M  V30 7382 H 699.027 -3.79409 2.9255 0
M  V30 7383 H 697.391 -2.07465 1.47751 0
M  V30 7384 H 698.174 -1.54848 3.06394 0
M  V30 7385 N 700.619 -1.13374 -1.09472 0
M  V30 7386 C 701.566 -0.810682 -2.16094 0
M  V30 7387 C 702.536 0.227003 -1.64541 0
M  V30 7388 O 703.721 0.0993538 -1.90541 0
M  V30 7389 C 700.861 -0.282336 -3.43943 0
M  V30 7390 C 699.974 -1.37902 -4.09398 0
M  V30 7391 C 699.109 -0.809066 -5.25002 0
M  V30 7392 C 698.148 -1.88419 -5.82379 0
M  V30 7393 N 697.285 -1.33221 -6.89345 0
M  V30 7394 H 702.125 -1.72397 -2.43071 0
M  V30 7395 H 699.662 -0.860564 -1.19301 0
M  V30 7396 H 701.62 0.0421189 -4.17179 0
M  V30 7397 H 700.25 0.594083 -3.17286 0
M  V30 7398 H 699.302 -1.82008 -3.34032 0
M  V30 7399 H 700.614 -2.19161 -4.48074 0
M  V30 7400 H 699.768 -0.435867 -6.05132 0
M  V30 7401 H 698.507 0.0346058 -4.87688 0
M  V30 7402 H 697.512 -2.26646 -5.00911 0
M  V30 7403 H 698.737 -2.73125 -6.21755 0
M  V30 7404 H 696.683 -0.510535 -6.5401 0
M  V30 7405 H 696.6 -2.08129 -7.26786 0
M  V30 7406 H 697.868 -0.986565 -7.73232 0
M  V30 7407 N 702.098 1.27442 -0.927168 0
M  V30 7408 C 703.045 2.26863 -0.424459 0
M  V30 7409 C 704.015 1.5813 0.508346 0
M  V30 7410 O 705.2 1.85946 0.42762 0
M  V30 7411 C 702.34 3.43639 0.31718 0
M  V30 7412 C 701.453 4.27087 -0.649675 0
M  V30 7413 C 700.588 5.31082 0.111753 0
M  V30 7414 C 699.627 6.062 -0.847843 0
M  V30 7415 N 698.764 7.01999 -0.119074 0
M  V30 7416 H 703.604 2.69239 -1.27728 0
M  V30 7417 H 701.141 1.32394 -0.641106 0
M  V30 7418 H 703.099 4.10155 0.763486 0
M  V30 7419 H 701.729 3.02217 1.13424 0
M  V30 7420 H 700.781 3.60491 -1.21451 0
M  V30 7421 H 702.093 4.79242 -1.38307 0
M  V30 7422 H 701.247 6.03544 0.618 0
M  V30 7423 H 699.986 4.7973 0.878114 0
M  V30 7424 H 698.991 5.32577 -1.36534 0
M  V30 7425 H 700.216 6.59642 -1.61398 0
M  V30 7426 H 698.162 6.52977 0.629051 0
M  V30 7427 H 698.079 7.5184 -0.792046 0
M  V30 7428 H 699.347 7.78638 0.366537 0
M  V30 7429 N 703.576 0.692616 1.41565 0
M  V30 7430 C 704.486 0.0258451 2.34586 0
M  V30 7431 C 705.502 -0.769324 1.56069 0
M  V30 7432 O 706.678 -0.707563 1.88562 0
M  V30 7433 C 703.743 -0.901289 3.3478 0
M  V30 7434 C 702.804 -0.0986579 4.29187 0
M  V30 7435 C 702.037 -0.981634 5.24595 0
M  V30 7436 O 702.26 -2.22115 5.25377 0
M  V30 7437 O 701.194 -0.432892 6.00341 0
M  V30 7438 H 705.02 0.792537 2.93177 0
M  V30 7439 H 702.605 0.452935 1.42369 0
M  V30 7440 H 704.487 -1.43302 3.96286 0
M  V30 7441 H 703.162 -1.64752 2.78637 0
M  V30 7442 H 702.069 0.477604 3.71039 0
M  V30 7443 H 703.402 0.608848 4.8842 0
M  V30 7444 N 705.054 -1.51416 0.437162 0
M  V30 7445 C 706.001 -2.27743 -0.374374 0
M  V30 7446 C 706.971 -1.31327 -1.01698 0
M  V30 7447 O 708.156 -1.60229 -1.03592 0
M  V30 7448 C 705.296 -3.12241 -1.46969 0
M  V30 7449 C 704.409 -4.23651 -0.845236 0
M  V30 7450 C 703.544 -4.95458 -1.91559 0
M  V30 7451 C 702.583 -5.98789 -1.26956 0
M  V30 7452 N 701.72 -6.64005 -2.28126 0
M  V30 7453 H 706.56 -2.96654 0.282892 0
M  V30 7454 H 704.097 -1.46319 0.151352 0
M  V30 7455 H 706.055 -3.59556 -2.11602 0
M  V30 7456 H 704.685 -2.45445 -2.09659 0
M  V30 7457 H 703.737 -3.803 -0.0872059 0
M  V30 7458 H 705.049 -4.97683 -0.333582 0
M  V30 7459 H 704.203 -5.46321 -2.63854 0
M  V30 7460 H 702.942 -4.21055 -2.46097 0
M  V30 7461 H 701.947 -5.47219 -0.53207 0
M  V30 7462 H 703.172 -6.75149 -0.731509 0
M  V30 7463 H 701.118 -5.92415 -2.81745 0
M  V30 7464 H 701.035 -7.33802 -1.81852 0
M  V30 7465 H 702.303 -7.19498 -2.99905 0
M  V30 7466 N 706.532 -0.168513 -1.56696 0
M  V30 7467 C 707.465 0.801477 -2.13662 0
M  V30 7468 C 708.443 1.22786 -1.06594 0
M  V30 7469 O 709.627 1.32014 -1.34554 0
M  V30 7470 C 706.754 2.07896 -2.6739 0
M  V30 7471 C 705.8 1.79681 -3.86803 0
M  V30 7472 S 706.633 0.968556 -5.26668 0
M  V30 7473 C 707.789 2.25676 -5.83799 0
M  V30 7474 H 708.022 0.317121 -2.95604 0
M  V30 7475 H 705.555 0.0461132 -1.54331 0
M  V30 7476 H 707.513 2.81272 -2.98992 0
M  V30 7477 H 706.174 2.53445 -1.85539 0
M  V30 7478 H 705.367 2.74461 -4.22714 0
M  V30 7479 H 704.969 1.14402 -3.56073 0
M  V30 7480 H 707.261 3.2116 -5.96542 0
M  V30 7481 H 708.204 1.94238 -6.80939 0
M  V30 7482 H 708.612 2.37308 -5.12197 0
M  V30 7483 N 708.01 1.57248 0.105221 0
M  V30 7484 C 708.957 2.01338 1.12835 0
M  V30 7485 C 709.927 0.887897 1.40377 0
M  V30 7486 O 711.112 1.15315 1.5201 0
M  V30 7487 C 708.252 2.43432 2.44611 0
M  V30 7488 C 707.365 3.69457 2.23888 0
M  V30 7489 C 706.5 4.00473 3.48991 0
M  V30 7490 C 705.539 5.19638 3.23485 0
M  V30 7491 N 704.676 5.46457 4.40828 0
M  V30 7492 H 709.516 2.88527 0.745386 0
M  V30 7493 H 707.053 1.42714 0.356535 0
M  V30 7494 H 709.011 2.65879 3.21503 0
M  V30 7495 H 707.641 1.59266 2.80774 0
M  V30 7496 H 706.693 3.54545 1.37847 0
M  V30 7497 H 708.005 4.56497 2.01026 0
M  V30 7498 H 707.159 4.23642 4.34295 0
M  V30 7499 H 705.898 3.11935 3.74897 0
M  V30 7500 H 704.903 4.96299 2.36574 0
M  V30 7501 H 706.128 6.09766 2.98935 0
M  V30 7502 H 704.074 4.60876 4.66829 0
M  V30 7503 H 703.991 6.27849 4.2112 0
M  V30 7504 H 705.259 5.74155 5.27225 0
M  V30 7505 N 709.488 -0.375779 1.53054 0
M  V30 7506 C 710.904 -0.716764 1.426 0
M  V30 7507 C 711.104 -1.93651 0.556931 0
M  V30 7508 O 710.16 -2.52475 0.0354461 0
M  V30 7509 C 711.473 -0.939499 2.85646 0
M  V30 7510 C 713.021 -1.04015 2.95212 0
M  V30 7511 C 713.496 -1.29543 4.39298 0
M  V30 7512 N 714.987 -1.36335 4.42682 0
M  V30 7513 C 715.722 -1.57778 5.51266 0
M  V30 7514 N 715.218 -1.76604 6.69913 0
M  V30 7515 N 717.011 -1.60065 5.38828 0
M  V30 7516 H 709.162 0.42664 2.08071 0
M  V30 7517 H 711.425 0.128758 0.939215 0
M  V30 7518 H 711.131 -0.115189 3.51511 0
M  V30 7519 H 711.005 -1.85048 3.2869 0
M  V30 7520 H 713.392 -1.85501 2.29507 0
M  V30 7521 H 713.473 -0.106785 2.55577 0
M  V30 7522 H 713.117 -0.485611 5.05573 0
M  V30 7523 H 713.047 -2.24184 4.76497 0
M  V30 7524 H 715.538 -1.23441 3.5717 0
M  V30 7525 H 715.851 -1.9251 7.48438 0
M  V30 7526 H 714.196 -1.73802 6.72917 0
M  V30 7527 H 717.387 -1.44917 4.45103 0
M  V30 7528 H 717.56 -1.76435 6.23518 0
M  V30 7529 N 710.966 -1.44241 -0.634997 0
M  V30 7530 C 711.913 -1.5081 -1.74714 0
M  V30 7531 C 712.883 -0.356147 -1.62237 0
M  V30 7532 O 714.068 -0.565848 -1.82216 0
M  V30 7533 C 711.208 -1.45458 -3.12947 0
M  V30 7534 C 710.321 -2.70998 -3.36428 0
M  V30 7535 C 709.456 -2.57507 -4.64611 0
M  V30 7536 C 708.495 -3.78229 -4.81258 0
M  V30 7537 N 707.632 -3.63438 -6.00714 0
M  V30 7538 H 712.472 -2.45832 -1.68436 0
M  V30 7539 H 710.009 -1.2201 -0.821706 0
M  V30 7540 H 711.967 -1.40347 -3.92885 0
M  V30 7541 H 710.597 -0.540058 -3.1825 0
M  V30 7542 H 709.649 -2.86312 -2.50458 0
M  V30 7543 H 710.961 -3.60619 -3.44609 0
M  V30 7544 H 710.115 -2.50207 -5.52703 0
M  V30 7545 H 708.854 -1.65441 -4.58782 0
M  V30 7546 H 707.859 -3.85918 -3.91596 0
M  V30 7547 H 709.084 -4.71327 -4.88904 0
M  V30 7548 H 707.03 -2.7412 -5.95982 0
M  V30 7549 H 706.947 -4.46672 -6.09934 0
M  V30 7550 H 708.215 -3.60022 -6.91378 0
M  V30 7551 N 712.444 0.87505 -1.31075 0
M  V30 7552 C 713.692 1.62447 -1.20231 0
M  V30 7553 C 714.013 1.93506 0.240888 0
M  V30 7554 O 713.283 1.57847 1.16022 0
M  V30 7555 H 711.863 0.602207 -0.441991 0
M  V30 7556 H 714.525 1.04788 -1.64334 0
M  V30 7557 H 713.621 2.57031 -1.77036 0
M  V30 7558 N 713.922 1.13953 1.08869 0
M  V30 7559 C 715.162 0.915128 1.8277 0
M  V30 7560 C 715.526 -0.548647 1.83994 0
M  V30 7561 O 716.727 -0.890817 2.5361 0
M  V30 7562 C 714.998 1.49382 3.24684 0
M  V30 7563 S 716.557 1.4103 4.15519 0
M  V30 7564 H 713.375 0.329716 0.629927 0
M  V30 7565 H 715.977 1.45213 1.30895 0
M  V30 7566 H 714.681 2.55241 3.21372 0
M  V30 7567 H 714.212 0.955008 3.81632 0
M  V30 7568 H 716.227 0.392617 4.94644 0
M  V30 7569 N 715.4 -1.26948 0.933913 0
M  V30 7570 C 716.363 -2.24889 0.442457 0
M  V30 7571 C 717.363 -1.54594 -0.442426 0
M  V30 7572 O 718.553 -1.72502 -0.242629 0
M  V30 7573 C 715.685 -3.3896 -0.363173 0
M  V30 7574 H 716.878 -2.69879 1.30787 0
M  V30 7575 H 714.431 -1.38978 0.715187 0
M  V30 7576 H 715.166 -2.99361 -1.24714 0
M  V30 7577 H 714.951 -3.9116 0.271366 0
M  V30 7578 H 716.441 -4.11739 -0.697186 0
M  V30 7579 N 716.879 -0.700114 -1.41195 0
M  V30 7580 C 717.809 -0.0521132 -2.33442 0
M  V30 7581 C 718.79 0.76228 -1.52063 0
M  V30 7582 O 719.975 0.714336 -1.80585 0
M  V30 7583 C 717.105 0.881693 -3.35922 0
M  V30 7584 C 716.059 0.174062 -4.27646 0
M  V30 7585 C 715.385 1.22254 -5.20536 0
M  V30 7586 C 716.685 -0.962396 -5.13357 0
M  V30 7587 H 718.379 -0.822574 -2.87879 0
M  V30 7588 H 715.925 -0.397011 -1.38419 0
M  V30 7589 H 717.878 1.34429 -3.99383 0
M  V30 7590 H 716.602 1.68387 -2.79845 0
M  V30 7591 H 715.261 -0.268551 -3.65615 0
M  V30 7592 H 714.909 2.01736 -4.60773 0
M  V30 7593 H 714.609 0.754038 -5.82742 0
M  V30 7594 H 716.133 1.68555 -5.86874 0
M  V30 7595 H 717.547 -0.579875 -5.7036 0
M  V30 7596 H 715.944 -1.35828 -5.84526 0
M  V30 7597 H 717.014 -1.80003 -4.50252 0
M  V30 7598 N 718.357 1.51182 -0.445186 0
M  V30 7599 C 719.287 2.30821 0.352686 0
M  V30 7600 C 720.268 1.36576 1.01395 0
M  V30 7601 O 721.453 1.65497 1.01609 0
M  V30 7602 C 718.583 3.15593 1.44976 0
M  V30 7603 C 717.537 4.1818 0.911553 0
M  V30 7604 C 716.863 4.91523 2.10497 0
M  V30 7605 C 718.163 5.22266 -0.059418 0
M  V30 7606 H 719.857 2.97771 -0.311936 0
M  V30 7607 H 717.403 1.43201 -0.151461 0
M  V30 7608 H 719.356 3.70091 2.01521 0
M  V30 7609 H 718.08 2.4648 2.14278 0
M  V30 7610 H 716.739 3.64746 0.368264 0
M  V30 7611 H 716.387 4.18906 2.78437 0
M  V30 7612 H 716.087 5.60898 1.7512 0
M  V30 7613 H 717.611 5.48847 2.6758 0
M  V30 7614 H 719.025 5.71789 0.415985 0
M  V30 7615 H 717.422 5.99213 -0.326152 0
M  V30 7616 H 718.492 4.7461 -0.993631 0
M  V30 7617 N 719.835 0.176821 1.56605 0
M  V30 7618 C 721.081 -0.467406 1.9734 0
M  V30 7619 C 721.414 -1.62523 1.06301 0
M  V30 7620 O 720.689 -1.94182 0.11125 0
M  V30 7621 C 720.972 -0.945106 3.47476 0
M  V30 7622 C 720.825 0.213273 4.49294 0
M  V30 7623 C 722.144 -1.8169 4.00845 0
M  V30 7624 H 719.263 -0.168426 0.717497 0
M  V30 7625 H 721.905 0.264065 1.88156 0
M  V30 7626 H 720.055 -1.56841 3.55434 0
M  V30 7627 H 721.727 0.850508 4.53392 0
M  V30 7628 H 719.97 0.867918 4.25029 0
M  V30 7629 H 720.641 -0.163187 5.51759 0
M  V30 7630 H 723.117 -1.29139 3.95553 0
M  V30 7631 H 721.993 -2.12015 5.06301 0
M  V30 7632 H 722.254 -2.76463 3.44994 0
M  V30 7633 N 721.313 -1.57302 -0.09688 0
M  V30 7634 C 722.26 -2.01933 -1.11766 0
M  V30 7635 C 723.23 -0.895329 -1.39904 0
M  V30 7636 O 724.415 -1.16119 -1.51397 0
M  V30 7637 C 721.555 -2.44726 -2.43317 0
M  V30 7638 C 720.668 -3.70639 -2.21925 0
M  V30 7639 C 719.803 -4.02318 -3.46862 0
M  V30 7640 C 718.842 -5.21346 -3.20725 0
M  V30 7641 N 717.979 -5.48787 -4.37924 0
M  V30 7642 H 722.819 -2.88919 -0.730075 0
M  V30 7643 H 720.356 -1.42901 -0.348962 0
M  V30 7644 H 722.314 -2.6758 -3.20088 0
M  V30 7645 H 720.944 -1.60753 -2.79926 0
M  V30 7646 H 719.996 -3.55271 -1.35965 0
M  V30 7647 H 721.308 -4.57557 -1.98603 0
M  V30 7648 H 720.462 -4.25939 -4.32042 0
M  V30 7649 H 719.201 -3.13918 -3.73238 0
M  V30 7650 H 718.206 -4.97547 -2.33938 0
M  V30 7651 H 719.431 -6.11343 -2.95697 0
M  V30 7652 H 717.377 -4.63346 -4.64378 0
M  V30 7653 H 717.294 -6.30073 -4.17785 0
M  V30 7654 H 718.562 -5.76943 -5.24173 0
M  V30 7655 N 722.791 0.367657 -1.53252 0
M  V30 7656 C 723.721 1.45632 -1.8252 0
M  V30 7657 C 724.702 1.55979 -0.678568 0
M  V30 7658 O 725.887 1.70581 -0.928217 0
M  V30 7659 C 723.017 2.82994 -2.01325 0
M  V30 7660 C 721.971 2.87473 -3.17086 0
M  V30 7661 C 721.297 4.2749 -3.21179 0
M  V30 7662 C 722.597 2.55182 -4.55719 0
M  V30 7663 H 724.291 1.21387 -2.73689 0
M  V30 7664 H 721.837 0.58251 -1.31692 0
M  V30 7665 H 723.79 3.59179 -2.20383 0
M  V30 7666 H 722.514 3.08622 -1.06864 0
M  V30 7667 H 721.173 2.13739 -2.97844 0
M  V30 7668 H 720.821 4.5019 -2.24361 0
M  V30 7669 H 720.521 4.31403 -3.98955 0
M  V30 7670 H 722.045 5.0555 -3.42419 0
M  V30 7671 H 723.459 3.21081 -4.74953 0
M  V30 7672 H 721.856 2.70414 -5.3572 0
M  V30 7673 H 722.926 1.5044 -4.60973 0
M  V30 7674 N 724.269 1.44576 0.627338 0
M  V30 7675 C 725.516 1.47558 1.38682 0
M  V30 7676 C 725.844 0.109636 1.94191 0
M  V30 7677 O 725.099 -0.889092 1.74338 0
M  V30 7678 C 725.398 2.48644 2.56731 0
M  V30 7679 C 725.064 3.93873 2.19489 0
M  V30 7680 C 723.726 4.33421 2.09045 0
M  V30 7681 C 726.078 4.85286 1.90124 0
M  V30 7682 C 723.406 5.62303 1.6743 0
M  V30 7683 C 725.758 6.14559 1.50001 0
M  V30 7684 C 724.422 6.53058 1.38101 0
M  V30 7685 H 723.692 0.539955 0.507474 0
M  V30 7686 H 726.339 1.77811 0.711021 0
M  V30 7687 H 724.644 2.11889 3.29561 0
M  V30 7688 H 726.341 2.48197 3.14959 0
M  V30 7689 H 722.931 3.62587 2.28537 0
M  V30 7690 H 727.115 4.55483 1.971 0
M  V30 7691 H 722.371 5.90945 1.56823 0
M  V30 7692 H 726.545 6.84848 1.26319 0
M  V30 7693 H 724.172 7.52826 1.05628 0
M  V30 7694 N 725.747 -0.868086 1.31537 0
M  V30 7695 C 726.695 -1.99688 1.1928 0
M  V30 7696 C 727.689 -1.69101 0.100656 0
M  V30 7697 O 728.895 -1.78073 0.262677 0
M  V30 7698 H 725.27 -0.655032 0.369374 0
M  V30 7699 H 727.241 -2.07157 2.14776 0
M  V30 7700 C 725.99 -3.35338 0.918892 0
M  V30 7701 H 725.313 -3.59396 1.75142 0
M  V30 7702 H 726.753 -4.14909 0.873311 0
M  V30 7703 C 725.212 -3.34769 -0.378366 0
M  V30 7704 O 725.742 -3.76716 -1.39456 0
M  V30 7705 N 723.948 -2.87895 -0.39557 0
M  V30 7706 H 723.495 -2.53954 0.431889 0
M  V30 7707 H 723.453 -2.87897 -1.26344 0
M  V30 7708 N 727.225 -1.14528 -1.08264 0
M  V30 7709 C 728.473 -0.912599 -1.80322 0
M  V30 7710 C 728.794 0.562256 -1.86718 0
M  V30 7711 O 728.064 1.40869 -1.36135 0
M  V30 7712 H 726.644 -0.334645 -0.667849 0
M  V30 7713 H 729.306 -1.44415 -1.30883 0
M  V30 7714 H 728.402 -1.31384 -2.83098 0
M  V30 7715 N 728.703 1.26451 -0.940633 0
M  V30 7716 C 729.943 1.95537 -0.595381 0
M  V30 7717 C 730.307 1.72175 0.849683 0
M  V30 7718 O 731.508 2.3506 1.30384 0
M  V30 7719 C 729.779 3.45151 -0.927669 0
M  V30 7720 S 731.338 4.33295 -0.69288 0
M  V30 7721 H 728.156 0.676331 -0.219311 0
M  V30 7722 H 730.758 1.53411 -1.21183 0
M  V30 7723 H 729.462 3.59654 -1.9768 0
M  V30 7724 H 728.993 3.92247 -0.300921 0
M  V30 7725 H 731.008 4.94217 0.443175 0
M  V30 7726 N 730.181 0.707592 1.40822 0
M  V30 7727 C 731.592 0.317011 1.83989 0
M  V30 7728 C 731.943 -1.14697 1.59182 0
M  V30 7729 O 731.068 -1.8818 1.06852 0
M  V30 7730 C 731.663 0.568593 3.33995 0
M  V30 7731 C 730.222 0.231804 3.75686 0
M  V30 7732 C 729.369 0.844933 2.64114 0
M  V30 7733 H 732.32 0.907349 1.30203 0
M  V30 7734 H 732.341 -0.168798 3.80125 0
M  V30 7735 H 731.853 1.63417 3.52018 0
M  V30 7736 H 729.954 -0.82903 3.6326 0
M  V30 7737 H 730.067 0.695219 4.74029 0
M  V30 7738 H 728.431 0.273588 2.53226 0
M  V30 7739 H 729.214 1.91462 2.84951 0
M  V30 7740 N 731.66 -1.50943 0.453197 0
M  V30 7741 C 732.59 -2.31005 -0.34044 0
M  V30 7742 C 733.571 -1.37112 -1.00669 0
M  V30 7743 O 734.756 -1.66033 -1.0073 0
M  V30 7744 C 731.886 -3.16358 -1.433 0
M  V30 7745 C 730.84 -4.18658 -0.889363 0
M  V30 7746 C 730.166 -4.92633 -2.07887 0
M  V30 7747 C 731.466 -5.22227 0.0871142 0
M  V30 7748 H 733.16 -2.97601 0.327723 0
M  V30 7749 H 730.706 -1.43119 0.159054 0
M  V30 7750 H 732.659 -3.71155 -1.99555 0
M  V30 7751 H 731.383 -2.47613 -2.12968 0
M  V30 7752 H 730.042 -3.64936 -0.348915 0
M  V30 7753 H 729.69 -4.20376 -2.76211 0
M  V30 7754 H 729.39 -5.61819 -1.72143 0
M  V30 7755 H 730.914 -5.50258 -2.64666 0
M  V30 7756 H 732.328 -5.72001 -0.385656 0
M  V30 7757 H 730.725 -5.99032 0.357926 0
M  V30 7758 H 731.795 -4.74077 1.01879 0
M  V30 7759 N 733.138 -0.185124 -1.56509 0
M  V30 7760 C 734.554 0.170865 -1.58683 0
M  V30 7761 C 734.754 1.61799 -1.20098 0
M  V30 7762 O 733.81 2.35181 -0.919038 0
M  V30 7763 C 735.123 -0.122459 -3.00451 0
M  V30 7764 C 736.671 -0.0617699 -3.12939 0
M  V30 7765 C 737.146 -0.328269 -4.56822 0
M  V30 7766 N 738.637 -0.276533 -4.62374 0
M  V30 7767 C 739.372 -0.456722 -5.71578 0
M  V30 7768 N 738.868 -0.69672 -6.89288 0
M  V30 7769 N 740.661 -0.391669 -5.60734 0
M  V30 7770 H 732.812 -1.12956 -1.79874 0
M  V30 7771 H 735.075 -0.45011 -0.834329 0
M  V30 7772 H 734.781 -1.12546 -3.33206 0
M  V30 7773 H 734.655 0.579578 -3.72721 0
M  V30 7774 H 737.042 0.931826 -2.80002 0
M  V30 7775 H 737.123 -0.796732 -2.43076 0
M  V30 7776 H 736.767 -1.31914 -4.9047 0
M  V30 7777 H 736.697 0.427465 -5.24862 0
M  V30 7778 H 739.188 -0.0972458 -3.77775 0
M  V30 7779 H 739.501 -0.823291 -7.68402 0
M  V30 7780 H 737.846 -0.733497 -6.91119 0
M  V30 7781 H 741.037 -0.204663 -4.67652 0
M  V30 7782 H 741.21 -0.535518 -6.45783 0
M  V30 7783 N 734.616 1.57351 0.0885366 0
M  V30 7784 C 735.865 1.85604 0.789556 0
M  V30 7785 C 736.178 0.775352 1.79576 0
M  V30 7786 O 737.384 0.945206 2.54515 0
M  V30 7787 C 735.84 3.29175 1.45506 0
M  V30 7788 C 735.448 4.45331 0.488278 0
M  V30 7789 C 737.192 3.66646 2.13942 0
M  V30 7790 C 735.099 5.79937 1.15874 0
M  V30 7791 H 734.029 0.692346 0.298619 0
M  V30 7792 H 736.68 1.83451 0.0425821 0
M  V30 7793 H 735.062 3.25889 2.24972 0
M  V30 7794 H 736.236 4.59977 -0.275359 0
M  V30 7795 H 734.551 4.16301 -0.0907363 0
M  V30 7796 H 737.148 4.64498 2.6485 0
M  V30 7797 H 737.491 2.956 2.93132 0
M  V30 7798 H 738.024 3.71848 1.41328 0
M  V30 7799 H 734.763 6.54232 0.407508 0
M  V30 7800 H 734.283 5.69123 1.89364 0
M  V30 7801 H 735.962 6.24718 1.68336 0
M  V30 7802 N 736.094 -0.359525 1.53444 0
M  V30 7803 C 737.044 -1.441 1.7669 0
M  V30 7804 C 738.028 -1.48408 0.621599 0
M  V30 7805 O 739.22 -1.53547 0.880468 0
M  V30 7806 C 736.349 -2.81455 1.96566 0
M  V30 7807 C 735.435 -2.81601 3.17115 0
M  V30 7808 N 735.826 -2.51388 4.38905 0
M  V30 7809 C 734.124 -3.12758 3.1796 0
M  V30 7810 C 734.825 -2.59365 5.20677 0
M  V30 7811 N 733.801 -2.94328 4.57025 0
M  V30 7812 H 737.603 -1.19613 2.68458 0
M  V30 7813 H 735.117 -0.567761 1.52152 0
M  V30 7814 H 737.114 -3.59357 2.11348 0
M  V30 7815 H 735.774 -3.06901 1.06029 0
M  V30 7816 H 736.785 -2.24873 4.66533 0
M  V30 7817 H 733.462 -3.43479 2.37336 0
M  V30 7818 H 734.852 -2.39301 6.27841 0
M  V30 7819 N 737.572 -1.44907 -0.619662 0
M  V30 7820 C 738.797 -1.52021 -1.41083 0
M  V30 7821 C 739.222 -0.14976 -1.87503 0
M  V30 7822 O 738.58 0.863303 -1.59426 0
M  V30 7823 C 738.628 -2.49911 -2.59955 0
M  V30 7824 O 737.732 -2.00857 -3.60181 0
M  V30 7825 H 737.073 -0.512912 -0.421684 0
M  V30 7826 H 739.603 -1.90149 -0.755282 0
M  V30 7827 H 739.613 -2.68323 -3.07354 0
M  V30 7828 H 738.288 -3.4945 -2.25516 0
M  V30 7829 H 736.865 -1.92265 -3.19513 0
M  V30 7830 N 739.05 0.861098 -1.31996 0
M  V30 7831 C 740.278 1.6474 -1.25173 0
M  V30 7832 C 740.693 1.87926 0.181425 0
M  V30 7833 O 740.05 1.4437 1.1164 0
M  V30 7834 C 740.101 3.01036 -2.0015 0
M  V30 7835 O 739.822 2.7888 -3.37872 0
M  V30 7836 C 741.323 3.95481 -2.00273 0
M  V30 7837 H 738.543 0.513314 -0.432146 0
M  V30 7838 H 741.087 1.07419 -1.74016 0
M  V30 7839 H 739.242 3.55021 -1.55046 0
M  V30 7840 H 739.656 3.65514 -3.76165 0
M  V30 7841 H 741.13 4.88403 -2.57229 0
M  V30 7842 H 741.607 4.27957 -0.987407 0
M  V30 7843 H 742.213 3.47433 -2.45296 0
M  V30 7844 N 740.528 1.15101 1.07655 0
M  V30 7845 C 741.491 0.847625 2.12951 0
M  V30 7846 C 742.491 -0.151227 1.60087 0
M  V30 7847 O 743.681 0.0780399 1.74025 0
M  V30 7848 C 740.813 0.265 3.39868 0
M  V30 7849 H 742.006 1.7809 2.41296 0
M  V30 7850 H 739.559 0.958072 1.23494 0
M  V30 7851 H 740.294 -0.676625 3.17163 0
M  V30 7852 H 740.079 0.984554 3.79538 0
M  V30 7853 H 741.569 0.0702121 4.17541 0
M  V30 7854 N 742.006 -1.2595 0.947325 0
M  V30 7855 C 742.969 -2.24407 0.466285 0
M  V30 7856 C 743.969 -1.55054 -0.426005 0
M  V30 7857 O 745.159 -1.7275 -0.224319 0
M  V30 7858 C 742.291 -3.39326 -0.327201 0
M  V30 7859 H 743.484 -2.68477 1.33642 0
M  V30 7860 H 741.037 -1.38211 0.729887 0
M  V30 7861 H 741.772 -3.00667 -1.21532 0
M  V30 7862 H 741.557 -3.9085 0.312839 0
M  V30 7863 H 743.047 -4.12455 -0.653477 0
M  V30 7864 N 743.484 -0.715051 -1.40445 0
M  V30 7865 C 744.73 -0.263528 -2.01686 0
M  V30 7866 C 745.085 1.13052 -1.55683 0
M  V30 7867 O 744.378 1.75588 -0.766762 0
M  V30 7868 C 744.572 -0.281791 -3.56287 0
M  V30 7869 C 744.401 -1.67607 -4.17298 0
M  V30 7870 C 743.171 -2.2836 -4.50755 0
M  V30 7871 C 745.369 -2.62621 -4.42193 0
M  V30 7872 N 743.351 -3.6015 -4.97157 0
M  V30 7873 C 744.722 -3.79116 -4.90582 0
M  V30 7874 C 746.777 -2.60639 -4.24231 0
M  V30 7875 C 745.48 -4.93937 -5.22895 0
M  V30 7876 C 747.506 -3.74587 -4.57644 0
M  V30 7877 C 746.868 -4.89815 -5.06222 0
M  V30 7878 H 742.967 -0.142252 -0.768953 0
M  V30 7879 H 745.551 -0.936732 -1.70685 0
M  V30 7880 H 743.722 0.360975 -3.86719 0
M  V30 7881 H 745.454 0.186393 -4.04271 0
M  V30 7882 H 742.209 -1.80463 -4.3787 0
M  V30 7883 H 742.633 -4.27757 -5.24741 0
M  V30 7884 H 747.275 -1.72759 -3.85894 0
M  V30 7885 H 744.993 -5.82462 -5.60146 0
M  V30 7886 H 748.579 -3.74328 -4.45387 0
M  V30 7887 H 747.459 -5.76525 -5.3159 0
M  V30 7888 N 744.962 1.50701 -0.461195 0
M  V30 7889 C 746.19 2.06681 0.0951756 0
M  V30 7890 C 746.605 1.32615 1.34382 0
M  V30 7891 O 745.962 0.392531 1.78229 0
M  V30 7892 C 746.013 3.59354 0.393316 0
M  V30 7893 O 745.734 4.30626 -0.805797 0
M  V30 7894 C 747.235 4.31926 0.997744 0
M  V30 7895 H 744.455 0.670995 -0.00267259 0
M  V30 7896 H 746.999 1.93991 -0.647137 0
M  V30 7897 H 745.154 3.7188 1.08555 0
M  V30 7898 H 745.568 5.21667 -0.544409 0
M  V30 7899 H 747.042 5.39756 1.15619 0
M  V30 7900 H 747.519 3.91772 1.98523 0
M  V30 7901 H 748.125 4.23905 0.344188 0
M  V30 7902 N 746.441 0.193421 1.56409 0
M  V30 7903 C 747.391 -0.74089 2.15627 0
M  V30 7904 C 748.375 -1.17747 1.09656 0
M  V30 7905 O 749.567 -1.13615 1.35723 0
M  V30 7906 C 746.696 -1.96091 2.81786 0
M  V30 7907 C 745.782 -1.54531 3.94944 0
M  V30 7908 N 746.173 -0.840569 4.98767 0
M  V30 7909 C 744.471 -1.83473 4.06514 0
M  V30 7910 C 745.172 -0.632571 5.7825 0
M  V30 7911 N 744.148 -1.18078 5.30621 0
M  V30 7912 H 747.95 -0.193718 2.93261 0
M  V30 7913 H 745.464 -0.00643211 1.62399 0
M  V30 7914 H 747.461 -2.64071 3.22602 0
M  V30 7915 H 746.121 -2.51282 2.05639 0
M  V30 7916 H 747.132 -0.496218 5.15517 0
M  V30 7917 H 743.809 -2.40184 3.41493 0
M  V30 7918 H 745.199 -0.0736433 6.7186 0
M  V30 7919 N 747.919 -1.57396 -0.0801906 0
M  V30 7920 C 749.33 -1.75642 -0.633002 0
M  V30 7921 C 749.681 -0.817708 -1.78348 0
M  V30 7922 O 748.806 0.000233743 -2.164 0
M  V30 7923 C 749.401 -3.18502 -1.15507 0
M  V30 7924 C 747.96 -3.38121 -1.65381 0
M  V30 7925 C 747.107 -2.71386 -0.569661 0
M  V30 7926 H 750.058 -1.58027 0.145949 0
M  V30 7927 H 750.079 -3.22198 -2.02408 0
M  V30 7928 H 749.591 -3.86799 -0.317515 0
M  V30 7929 H 747.692 -2.74926 -2.51488 0
M  V30 7930 H 747.805 -4.46521 -1.73654 0
M  V30 7931 H 746.169 -2.33702 -1.0127 0
M  V30 7932 H 746.952 -3.42332 0.257561 0
M  V30 7933 N 749.397 0.351382 -1.53633 0
M  V30 7934 C 750.622 1.11718 -1.74739 0
M  V30 7935 C 751.047 1.81829 -0.481657 0
M  V30 7936 O 750.405 1.72264 0.565233 0
M  V30 7937 C 750.453 2.11234 -2.92254 0
M  V30 7938 O 749.557 3.186 -2.61855 0
M  V30 7939 H 748.898 0.323482 -0.579875 0
M  V30 7940 H 751.428 0.404167 -2.00568 0
M  V30 7941 H 751.438 2.54591 -3.18822 0
M  V30 7942 H 750.113 1.59599 -3.84058 0
M  V30 7943 H 748.69 2.80115 -2.4615 0
M  V30 7944 N 750.875 1.45233 0.611969 0
M  V30 7945 C 752.103 1.52539 1.39784 0
M  V30 7946 C 752.518 0.156533 1.8815 0
M  V30 7947 O 751.875 -0.84112 1.61961 0
M  V30 7948 C 751.926 2.50614 2.60528 0
M  V30 7949 O 751.647 3.8218 2.14173 0
M  V30 7950 C 753.148 2.67574 3.53439 0
M  V30 7951 H 750.368 0.51674 0.428043 0
M  V30 7952 H 752.912 1.90379 0.746727 0
M  V30 7953 H 751.067 2.15858 3.2169 0
M  V30 7954 H 751.481 4.35305 2.92592 0
M  V30 7955 H 752.955 3.40184 4.34717 0
M  V30 7956 H 753.432 1.73458 4.03496 0
M  V30 7957 H 754.038 3.0331 2.98133 0
M  V30 7958 N 752.353 -0.854086 1.3245 0
M  V30 7959 C 753.3 -1.96271 1.21434 0
M  V30 7960 C 754.27 -1.6582 0.0963851 0
M  V30 7961 O 755.455 -1.88851 0.27203 0
M  V30 7962 C 752.595 -3.31939 0.943952 0
M  V30 7963 C 751.708 -3.74885 2.14675 0
M  V30 7964 C 750.843 -4.99347 1.81179 0
M  V30 7965 C 749.882 -5.34785 2.97777 0
M  V30 7966 N 749.019 -6.50425 2.6437 0
M  V30 7967 H 753.859 -2.05025 2.16261 0
M  V30 7968 H 751.396 -1.00348 1.07558 0
M  V30 7969 H 753.354 -4.10076 0.767675 0
M  V30 7970 H 751.984 -3.22784 0.0324763 0
M  V30 7971 H 751.036 -2.92396 2.43328 0
M  V30 7972 H 752.348 -3.97068 3.01891 0
M  V30 7973 H 751.502 -5.85193 1.60107 0
M  V30 7974 H 750.241 -4.79101 0.911777 0
M  V30 7975 H 749.246 -4.47451 3.1948 0
M  V30 7976 H 750.471 -5.56988 3.88511 0
M  V30 7977 H 748.417 -6.31695 1.7691 0
M  V30 7978 H 748.334 -6.7263 3.45116 0
M  V30 7979 H 749.602 -7.39422 2.46729 0
M  V30 7980 N 753.831 -1.1567 -1.07043 0
M  V30 7981 C 755.108 -0.843948 -1.76456 0
M  V30 7982 C 755.488 0.659806 -2.00524 0
M  V30 7983 O 754.836 1.60518 -1.62623 0
M  V30 7984 C 755.046 -1.65822 -3.0709 0
M  V30 7985 C 756.394 -1.8664 -3.8138 0
M  V30 7986 O 757.418 -1.62624 -3.1691 0
M  V30 7987 O 756.277 -2.26884 -4.97178 0
M  V30 7988 H 753.371 -0.310677 -0.766426 0
M  V30 7989 H 755.917 -1.26266 -1.1338 0
M  V30 7990 H 754.689 -2.67902 -2.85209 0
M  V30 7991 H 754.312 -1.23605 -3.77899 0
M  V30 7992 N 755.309 1.25446 -0.953992 0
M  V30 7993 C 756.241 2.25111 -0.431004 0
M  V30 7994 C 757.254 1.56377 0.452764 0
M  V30 7995 O 758.443 1.76579 0.261144 0
M  V30 7996 C 755.543 3.3655 0.39839 0
M  V30 7997 C 754.716 4.34843 -0.472229 0
M  V30 7998 C 753.775 5.25351 0.29886 0
M  V30 7999 O 752.801 5.68396 -0.302522 0
M  V30 8000 N 754.003 5.5824 1.59211 0
M  V30 8001 H 756.768 2.70619 -1.28785 0
M  V30 8002 H 754.329 1.39346 -0.824281 0
M  V30 8003 H 756.321 3.94059 0.921941 0
M  V30 8004 H 754.891 2.90436 1.15609 0
M  V30 8005 H 754.111 3.76222 -1.17689 0
M  V30 8006 H 755.399 4.97497 -1.06648 0
M  V30 8007 H 754.797 5.25172 2.10264 0
M  V30 8008 H 753.354 6.18336 2.06164 0
M  V30 8009 N 756.787 0.722489 1.40064 0
M  V30 8010 C 757.737 0.0506801 2.27944 0
M  V30 8011 C 758.721 -0.725493 1.43615 0
M  V30 8012 O 759.913 -0.596559 1.66644 0
M  V30 8013 C 757.042 -0.865195 3.32219 0
M  V30 8014 C 756.128 -0.0838393 4.24017 0
M  V30 8015 N 756.519 0.936516 4.97054 0
M  V30 8016 C 754.817 -0.315371 4.44884 0
M  V30 8017 C 755.518 1.4066 5.64437 0
M  V30 8018 N 754.494 0.727485 5.3871 0
M  V30 8019 H 758.296 0.832609 2.8186 0
M  V30 8020 H 755.81 0.555691 1.52597 0
M  V30 8021 H 757.807 -1.36186 3.94029 0
M  V30 8022 H 756.467 -1.64642 2.79862 0
M  V30 8023 H 757.478 1.31755 5.0086 0
M  V30 8024 H 754.155 -1.07238 4.03492 0
M  V30 8025 H 755.545 2.25482 6.32936 0
M  V30 8026 N 758.265 -1.50454 0.469181 0
M  V30 8027 C 759.195 -2.31353 -0.31592 0
M  V30 8028 C 760.176 -1.38172 -0.992094 0
M  V30 8029 O 761.361 -1.67093 -0.989633 0
M  V30 8030 C 758.491 -3.1786 -1.39937 0
M  V30 8031 C 757.445 -4.19578 -0.844909 0
M  V30 8032 C 756.771 -4.9481 -2.0265 0
M  V30 8033 C 758.071 -5.22106 0.142499 0
M  V30 8034 H 759.765 -2.97237 0.359269 0
M  V30 8035 H 757.311 -1.42942 0.174224 0
M  V30 8036 H 759.264 -3.7325 -1.95607 0
M  V30 8037 H 757.988 -2.49858 -2.1033 0
M  V30 8038 H 756.647 -3.65285 -0.310189 0
M  V30 8039 H 756.295 -4.23282 -2.71737 0
M  V30 8040 H 755.995 -5.63613 -1.66174 0
M  V30 8041 H 757.519 -5.53035 -2.58815 0
M  V30 8042 H 758.933 -5.72378 -0.324966 0
M  V30 8043 H 757.33 -5.98618 0.421441 0
M  V30 8044 H 758.4 -4.7297 1.06901 0
M  V30 8045 N 759.743 -0.201713 -1.56304 0
M  V30 8046 C 760.673 0.71155 -2.22394 0
M  V30 8047 C 761.654 1.21625 -1.18917 0
M  V30 8048 O 762.839 1.26388 -1.47444 0
M  V30 8049 C 759.969 1.92837 -2.88845 0
M  V30 8050 C 758.923 1.55831 -3.98623 0
M  V30 8051 C 758.249 2.85228 -4.52271 0
M  V30 8052 C 759.549 0.763249 -5.16693 0
M  V30 8053 H 761.243 0.160573 -2.98969 0
M  V30 8054 H 758.789 0.0757916 -1.438 0
M  V30 8055 H 760.742 2.57253 -3.33764 0
M  V30 8056 H 759.466 2.50398 -2.09686 0
M  V30 8057 H 758.125 0.9377 -3.54405 0
M  V30 8058 H 757.773 3.40893 -3.69866 0
M  V30 8059 H 757.473 2.6121 -5.26349 0
M  V30 8060 H 758.997 3.50622 -4.99897 0
M  V30 8061 H 760.411 1.31066 -5.58117 0
M  V30 8062 H 758.808 0.620935 -5.96879 0
M  V30 8063 H 759.878 -0.234322 -4.84334 0
M  V30 8064 N 761.222 1.57436 0.0718424 0
M  V30 8065 C 762.152 2.06724 1.08571 0
M  V30 8066 C 763.133 0.960731 1.40371 0
M  V30 8067 O 764.318 1.23345 1.49999 0
M  V30 8068 C 761.448 2.51112 2.39916 0
M  V30 8069 C 760.402 3.65639 2.22469 0
M  V30 8070 C 759.728 3.96082 3.59198 0
M  V30 8071 C 761.028 4.95687 1.64596 0
M  V30 8072 H 762.722 2.91679 0.675569 0
M  V30 8073 H 760.268 1.40319 0.32352 0
M  V30 8074 H 762.221 2.84206 3.11135 0
M  V30 8075 H 760.945 1.63186 2.8291 0
M  V30 8076 H 759.604 3.32828 1.53691 0
M  V30 8077 H 759.252 3.05287 3.99761 0
M  V30 8078 H 758.952 4.73199 3.48362 0
M  V30 8079 H 760.476 4.31672 4.31847 0
M  V30 8080 H 761.89 5.27011 2.25681 0
M  V30 8081 H 760.287 5.77126 1.64457 0
M  V30 8082 H 761.357 4.8108 0.60744 0
M  V30 8083 N 762.7 -0.34323 1.53817 0
M  V30 8084 C 763.948 -1.0813 1.70741 0
M  V30 8085 C 764.269 -1.89165 0.473461 0
M  V30 8086 O 763.539 -1.89075 -0.512605 0
M  V30 8087 H 762.119 -0.40219 0.629486 0
M  V30 8088 H 764.781 -0.384426 1.91071 0
M  V30 8089 H 763.877 -1.7585 2.57843 0
M  V30 8090 N 764.178 -1.45556 -0.604258 0
M  V30 8091 C 765.141 -1.54091 -1.69672 0
M  V30 8092 C 766.141 -0.420076 -1.55216 0
M  V30 8093 O 767.331 -0.683671 -1.60224 0
M  V30 8094 C 764.463 -1.44063 -3.08964 0
M  V30 8095 H 765.656 -2.51431 -1.6347 0
M  V30 8096 H 763.209 -1.33046 -0.820273 0
M  V30 8097 H 763.944 -0.479201 -3.2074 0
M  V30 8098 H 763.729 -2.25362 -3.20865 0
M  V30 8099 H 765.219 -1.53075 -3.88533 0
M  V30 8100 N 765.656 0.84705 -1.32902 0
M  V30 8101 C 766.566 1.98845 -1.2449 0
M  V30 8102 C 767.582 1.7329 -0.15702 0
M  V30 8103 O 768.758 1.978 -0.379104 0
M  V30 8104 C 765.823 3.32679 -0.975985 0
M  V30 8105 C 764.884 3.71405 -2.15306 0
M  V30 8106 C 764.117 4.98853 -1.89688 0
M  V30 8107 O 764.34 5.64134 -0.843168 0
M  V30 8108 O 763.274 5.34889 -2.76002 0
M  V30 8109 H 767.1 2.0888 -2.2046 0
M  V30 8110 H 764.685 0.978852 -1.12867 0
M  V30 8111 H 766.567 4.12885 -0.842826 0
M  V30 8112 H 765.242 3.23667 -0.0464954 0
M  V30 8113 H 764.149 2.91743 -2.34172 0
M  V30 8114 H 765.482 3.85073 -3.06561 0
M  V30 8115 N 767.134 1.16236 1.06428 0
M  V30 8116 C 768.044 0.881976 2.1739 0
M  V30 8117 C 769.06 -0.145259 1.73393 0
M  V30 8118 O 770.236 0.0310558 2.01376 0
M  V30 8119 C 767.301 0.385496 3.4455 0
M  V30 8120 C 766.362 1.47779 4.03063 0
M  V30 8121 C 765.595 1.0049 5.24154 0
M  V30 8122 O 765.818 -0.145889 5.70213 0
M  V30 8123 O 764.752 1.79265 5.74585 0
M  V30 8124 H 768.578 1.80983 2.43883 0
M  V30 8125 H 766.163 0.942226 1.15942 0
M  V30 8126 H 768.045 0.115536 4.21242 0
M  V30 8127 H 766.72 -0.514369 3.19587 0
M  V30 8128 H 765.627 1.80147 3.27869 0
M  V30 8129 H 766.96 2.35291 4.32318 0
M  V30 8130 N 768.612 -1.24939 0.960631 0
M  V30 8131 C 769.86 -1.92437 0.617441 0
M  V30 8132 C 770.181 -1.75543 -0.849101 0
M  V30 8133 O 769.451 -1.12269 -1.60538 0
M  V30 8134 H 768.031 -0.712192 0.225371 0
M  V30 8135 H 770.693 -1.5198 1.22017 0
M  V30 8136 H 769.789 -3.00247 0.851933 0
M  V30 8137 N 770.09 -0.729906 -1.39679 0
M  V30 8138 C 771.339 -0.272534 -1.9985 0
M  V30 8139 C 771.652 1.14519 -1.58571 0
M  V30 8140 O 772.858 1.70182 -2.11543 0
M  V30 8141 C 771.314 -0.436322 -3.57245 0
M  V30 8142 C 770.922 -1.86161 -4.0749 0
M  V30 8143 C 772.666 -0.0404679 -4.24481 0
M  V30 8144 C 770.573 -1.97522 -5.5744 0
M  V30 8145 H 769.503 -0.0981428 -0.747585 0
M  V30 8146 H 772.154 -0.903056 -1.59741 0
M  V30 8147 H 770.536 0.263015 -3.95126 0
M  V30 8148 H 771.71 -2.59248 -3.80955 0
M  V30 8149 H 770.025 -2.21021 -3.529 0
M  V30 8150 H 772.622 -0.104437 -5.34598 0
M  V30 8151 H 772.965 1.00357 -4.04023 0
M  V30 8152 H 773.498 -0.690774 -3.91757 0
M  V30 8153 H 770.237 -3.00096 -5.82771 0
M  V30 8154 H 769.757 -1.28864 -5.85794 0
M  V30 8155 H 771.436 -1.754 -6.22771 0
M  V30 8156 N 771.568 1.50203 -0.477153 0
M  V30 8157 C 772.815 2.02358 0.0757385 0
M  V30 8158 C 773.143 1.3587 1.39174 0
M  V30 8159 O 772.398 0.475415 1.89838 0
M  V30 8160 C 772.697 3.56127 0.301325 0
M  V30 8161 C 772.363 4.41126 -0.933725 0
M  V30 8162 C 771.025 4.64075 -1.27233 0
M  V30 8163 C 773.377 4.90737 -1.75576 0
M  V30 8164 C 770.705 5.33878 -2.43292 0
M  V30 8165 C 773.057 5.61816 -2.90768 0
M  V30 8166 C 771.721 5.83016 -3.25036 0
M  V30 8167 H 770.991 0.740482 0.0277147 0
M  V30 8168 H 773.638 1.80754 -0.632467 0
M  V30 8169 H 771.943 3.76279 1.09183 0
M  V30 8170 H 773.64 3.94053 0.743184 0
M  V30 8171 H 770.23 4.23489 -0.659935 0
M  V30 8172 H 774.414 4.72856 -1.50734 0
M  V30 8173 H 769.67 5.48499 -2.70109 0
M  V30 8174 H 773.844 5.99237 -3.54807 0
M  V30 8175 H 771.471 6.36881 -4.15074 0
M  V30 8176 N 773.046 0.209999 1.56195 0
M  V30 8177 C 774.295 -0.425106 1.97169 0
M  V30 8178 C 774.608 -1.61718 1.10031 0
M  V30 8179 O 775.814 -2.32105 1.40853 0
M  V30 8180 C 774.27 -0.80771 3.50719 0
M  V30 8181 C 773.878 0.360902 4.46544 0
M  V30 8182 C 775.622 -1.40906 4.00432 0
M  V30 8183 C 773.529 -0.0434919 5.91384 0
M  V30 8184 H 772.459 -0.162598 0.736259 0
M  V30 8185 H 775.11 0.304382 1.80958 0
M  V30 8186 H 773.492 -1.59429 3.62489 0
M  V30 8187 H 774.666 1.13846 4.46515 0
M  V30 8188 H 772.981 0.874729 4.07109 0
M  V30 8189 H 775.578 -1.72433 5.06133 0
M  V30 8190 H 775.921 -2.32081 3.45607 0
M  V30 8191 H 776.454 -0.686154 3.91838 0
M  V30 8192 H 773.193 0.834448 6.50167 0
M  V30 8193 H 772.713 -0.785598 5.94633 0
M  V30 8194 H 774.392 -0.474176 6.4526 0
M  V30 8195 N 774.524 -1.57472 -0.0634922 0
M  V30 8196 C 775.454 -2.07297 -1.07473 0
M  V30 8197 C 776.435 -0.968162 -1.39859 0
M  V30 8198 O 777.62 -1.24139 -1.49343 0
M  V30 8199 C 774.75 -2.52381 -2.38581 0
M  V30 8200 C 773.704 -3.66813 -2.20526 0
M  V30 8201 C 773.03 -3.97982 -3.57092 0
M  V30 8202 C 774.33 -4.96553 -1.61965 0
M  V30 8203 H 776.024 -2.92033 -0.660092 0
M  V30 8204 H 773.57 -1.40488 -0.316074 0
M  V30 8205 H 775.523 -2.85852 -3.09624 0
M  V30 8206 H 774.247 -1.64684 -2.8204 0
M  V30 8207 H 772.906 -3.33639 -1.51924 0
M  V30 8208 H 772.554 -3.07403 -3.98136 0
M  V30 8209 H 772.254 -4.7504 -3.45848 0
M  V30 8210 H 773.778 -4.33956 -4.29552 0
M  V30 8211 H 775.192 -5.28201 -2.22883 0
M  V30 8212 H 773.589 -5.7799 -1.61394 0
M  V30 8213 H 774.659 -4.81396 -0.581918 0
M  V30 8214 N 776.003 0.335068 -1.53997 0
M  V30 8215 C 776.951 1.43206 -1.83289 0
M  V30 8216 C 777.945 1.54081 -0.703953 0
M  V30 8217 O 779.151 1.56603 -0.887432 0
M  V30 8218 H 775.526 0.477655 -0.580818 0
M  V30 8219 H 777.497 1.15719 -2.75049 0
M  V30 8220 C 776.246 2.79602 -2.06683 0
M  V30 8221 H 775.569 2.72004 -2.93008 0
M  V30 8222 H 777.009 3.55459 -2.31139 0
M  V30 8223 C 775.468 3.25873 -0.854883 0
M  V30 8224 O 775.998 4.01657 -0.0584648 0
M  V30 8225 N 774.204 2.82777 -0.669729 0
M  V30 8226 H 773.751 2.21269 -1.31901 0
M  V30 8227 H 773.709 3.1409 0.13969 0
M  V30 8228 N 777.481 1.45874 0.596531 0
M  V30 8229 C 778.897 1.30524 0.918459 0
M  V30 8230 C 779.097 0.266429 1.99731 0
M  V30 8231 O 778.153 -0.335809 2.50257 0
M  V30 8232 C 779.466 2.68747 1.3489 0
M  V30 8233 C 781.014 2.7673 1.46251 0
M  V30 8234 C 781.489 4.15504 1.92667 0
M  V30 8235 N 782.98 4.17853 1.99883 0
M  V30 8236 C 783.715 5.22109 2.37044 0
M  V30 8237 N 783.211 6.36704 2.73094 0
M  V30 8238 N 785.004 5.09471 2.37479 0
M  V30 8239 H 777.155 2.12081 -0.116368 0
M  V30 8240 H 779.418 0.947941 0.0106033 0
M  V30 8241 H 779.124 3.46006 0.630288 0
M  V30 8242 H 778.998 2.97942 2.31323 0
M  V30 8243 H 781.385 1.99768 2.17202 0
M  V30 8244 H 781.466 2.51236 0.481054 0
M  V30 8245 H 781.11 4.92956 1.223 0
M  V30 8246 H 781.04 4.38396 2.91747 0
M  V30 8247 H 783.531 3.35163 1.74568 0
M  V30 8248 H 783.844 7.12041 3.00362 0
M  V30 8249 H 782.189 6.40087 2.70764 0
M  V30 8250 H 785.38 4.18987 2.08728 0
M  V30 8251 H 785.553 5.90837 2.66112 0
M  V30 8252 N 778.959 -0.83999 1.33349 0
M  V30 8253 C 779.907 -1.97113 1.23488 0
M  V30 8254 C 780.901 -1.68849 0.136503 0
M  V30 8255 O 782.107 -1.77476 0.300389 0
M  V30 8256 H 778.482 -0.647049 0.383185 0
M  V30 8257 H 780.453 -2.02554 2.19122 0
M  V30 8258 C 779.202 -3.33314 0.989815 0
M  V30 8259 H 778.525 -3.556 1.82726 0
M  V30 8260 H 779.965 -4.12963 0.961123 0
M  V30 8261 C 778.424 -3.35496 -0.307272 0
M  V30 8262 O 778.954 -3.79589 -1.31434 0
M  V30 8263 N 777.16 -2.88669 -0.334414 0
M  V30 8264 H 776.707 -2.5298 0.485659 0
M  V30 8265 H 776.665 -2.90512 -1.20209 0
M  V30 8266 N 780.437 -1.16799 -1.0581 0
M  V30 8267 C 781.714 -0.862616 -1.75551 0
M  V30 8268 C 782.094 0.6385 -2.01212 0
M  V30 8269 O 781.442 1.58784 -1.64317 0
M  V30 8270 C 781.652 -1.6907 -3.05314 0
M  V30 8271 C 783 -1.90675 -3.79379 0
M  V30 8272 O 784.024 -1.65976 -3.15167 0
M  V30 8273 O 782.883 -2.32145 -4.94743 0
M  V30 8274 H 779.977 -0.318789 -0.763088 0
M  V30 8275 H 782.523 -1.27461 -1.12034 0
M  V30 8276 H 781.295 -2.70912 -2.82352 0
M  V30 8277 H 780.918 -1.27606 -3.76567 0
M  V30 8278 N 781.915 1.24427 -0.967243 0
M  V30 8279 C 782.847 2.24641 -0.454856 0
M  V30 8280 C 783.86 1.56849 0.436152 0
M  V30 8281 O 785.049 1.76846 0.242401 0
M  V30 8282 C 782.149 3.36954 0.362672 0
M  V30 8283 C 781.322 4.34318 -0.518324 0
M  V30 8284 C 780.381 5.25638 0.243122 0
M  V30 8285 O 779.407 5.68043 -0.362791 0
M  V30 8286 N 780.609 5.59897 1.53282 0
M  V30 8287 H 783.374 2.69238 -1.31648 0
M  V30 8288 H 780.935 1.38464 -0.839015 0
M  V30 8289 H 782.927 3.95014 0.880094 0
M  V30 8290 H 781.497 2.91646 1.12522 0
M  V30 8291 H 780.717 3.74953 -1.21672 0
M  V30 8292 H 782.005 4.96338 -1.11919 0
M  V30 8293 H 781.403 5.27373 2.04682 0
M  V30 8294 H 779.96 6.20488 1.99594 0
M  V30 8295 N 783.393 0.737304 1.3929 0
M  V30 8296 C 784.303 0.100464 2.34385 0
M  V30 8297 C 785.319 -0.719282 1.58437 0
M  V30 8298 O 786.495 -0.647216 1.90717 0
M  V30 8299 C 783.56 -0.794325 3.37478 0
M  V30 8300 C 782.621 0.0379345 4.29283 0
M  V30 8301 C 781.854 -0.814241 5.27452 0
M  V30 8302 O 782.077 -2.05288 5.32177 0
M  V30 8303 O 781.011 -0.241679 6.01415 0
M  V30 8304 H 784.837 0.885407 2.90507 0
M  V30 8305 H 782.422 0.497999 1.40856 0
M  V30 8306 H 784.304 -1.30622 4.00644 0
M  V30 8307 H 782.979 -1.55804 2.83737 0
M  V30 8308 H 781.886 0.595405 3.69331 0
M  V30 8309 H 783.219 0.763926 4.86236 0
M  V30 8310 N 784.871 -1.49948 0.485112 0
M  V30 8311 C 785.834 -2.27351 -0.290546 0
M  V30 8312 C 786.834 -1.32704 -0.908087 0
M  V30 8313 O 788.024 -1.56007 -0.775085 0
M  V30 8314 C 785.156 -3.10135 -1.41524 0
M  V30 8315 H 786.349 -2.97374 0.388454 0
M  V30 8316 H 783.902 -1.54453 0.239586 0
M  V30 8317 H 784.637 -2.44641 -2.12888 0
M  V30 8318 H 784.422 -3.79705 -0.978074 0
M  V30 8319 H 785.912 -3.68638 -1.96204 0
M  V30 8320 N 786.349 -0.21828 -1.56081 0
M  V30 8321 C 787.577 0.419258 -2.02608 0
M  V30 8322 C 787.992 1.53578 -1.09814 0
M  V30 8323 O 787.349 1.82185 -0.107149 0
M  V30 8324 C 787.4 0.953955 -3.48686 0
M  V30 8325 O 787.121 -0.11805 -4.37941 0
M  V30 8326 C 788.622 1.66506 -4.10841 0
M  V30 8327 H 785.842 0.10296 -0.663054 0
M  V30 8328 H 788.386 -0.333776 -2.01758 0
M  V30 8329 H 786.541 1.65727 -3.50162 0
M  V30 8330 H 786.955 0.283359 -5.23734 0
M  V30 8331 H 788.429 1.99123 -5.14834 0
M  V30 8332 H 788.906 2.57705 -3.55647 0
M  V30 8333 H 789.512 1.00703 -4.13206 0
M  V30 8334 N 787.827 1.57504 0.0551401 0
M  V30 8335 C 788.757 2.07864 1.06372 0
M  V30 8336 C 789.738 0.975565 1.39344 0
M  V30 8337 O 790.923 1.24929 1.48682 0
M  V30 8338 C 788.053 2.53643 2.3724 0
M  V30 8339 C 787.007 3.67978 2.18578 0
M  V30 8340 C 786.333 3.9987 3.54976 0
M  V30 8341 C 787.633 4.97405 1.59329 0
M  V30 8342 H 789.327 2.92379 0.644595 0
M  V30 8343 H 786.873 1.40654 0.308619 0
M  V30 8344 H 788.826 2.8749 3.08103 0
M  V30 8345 H 787.55 1.66177 2.81163 0
M  V30 8346 H 786.209 3.3444 1.50152 0
M  V30 8347 H 785.857 3.0951 3.965 0
M  V30 8348 H 785.557 4.76867 3.43324 0
M  V30 8349 H 787.081 4.36228 4.27244 0
M  V30 8350 H 788.495 5.29375 2.20078 0
M  V30 8351 H 786.892 5.78837 1.58327 0
M  V30 8352 H 787.962 4.81697 0.55638 0
M  V30 8353 N 789.305 -0.326896 1.54172 0
M  V30 8354 C 790.215 -1.42525 1.86343 0
M  V30 8355 C 791.231 -1.56764 0.75505 0
M  V30 8356 O 792.407 -1.71924 1.04901 0
M  V30 8357 C 789.472 -2.77286 2.08119 0
M  V30 8358 C 788.533 -2.7225 3.31931 0
M  V30 8359 C 787.766 -4.00584 3.52659 0
M  V30 8360 O 787.989 -4.98686 2.76891 0
M  V30 8361 O 786.923 -4.04045 4.46129 0
M  V30 8362 H 790.749 -1.18249 2.79734 0
M  V30 8363 H 788.334 -0.520614 1.40036 0
M  V30 8364 H 790.216 -3.57065 2.23791 0
M  V30 8365 H 788.891 -3.01459 1.17917 0
M  V30 8366 H 787.798 -1.91033 3.21647 0
M  V30 8367 H 789.131 -2.53032 4.2218 0
M  V30 8368 N 790.784 -1.46188 -0.588786 0
M  V30 8369 C 791.717 -1.508 -1.71274 0
M  V30 8370 C 792.695 -0.362635 -1.58505 0
M  V30 8371 O 793.879 -0.565899 -1.79805 0
M  V30 8372 C 791.006 -1.38082 -3.09275 0
M  V30 8373 C 790.052 -2.56723 -3.40581 0
M  V30 8374 S 790.885 -4.1911 -3.33327 0
M  V30 8375 C 792.041 -4.08891 -4.73877 0
M  V30 8376 H 792.274 -2.45895 -1.67102 0
M  V30 8377 H 789.807 -1.34 -0.767025 0
M  V30 8378 H 791.765 -1.31432 -3.88891 0
M  V30 8379 H 790.426 -0.444259 -3.10942 0
M  V30 8380 H 789.619 -2.43801 -4.41109 0
M  V30 8381 H 789.221 -2.60332 -2.68521 0
M  V30 8382 H 791.513 -3.75196 -5.64123 0
M  V30 8383 H 792.456 -5.09395 -4.91856 0
M  V30 8384 H 792.864 -3.40239 -4.50441 0
M  V30 8385 N 792.262 0.832906 -1.33792 0
M  V30 8386 C 793.192 1.95828 -1.27176 0
M  V30 8387 C 794.173 1.69427 -0.15114 0
M  V30 8388 O 795.358 1.91167 -0.341886 0
M  V30 8389 C 792.488 3.32098 -1.01629 0
M  V30 8390 C 791.442 3.72912 -2.10049 0
M  V30 8391 C 790.768 5.07054 -1.69706 0
M  V30 8392 C 792.068 3.86064 -3.51783 0
M  V30 8393 H 793.762 2.01622 -2.21334 0
M  V30 8394 H 791.308 0.96866 -1.0655 0
M  V30 8395 H 793.261 4.10402 -0.956474 0
M  V30 8396 H 791.985 3.26577 -0.0390956 0
M  V30 8397 H 790.644 2.96876 -2.15082 0
M  V30 8398 H 790.292 4.9801 -0.706737 0
M  V30 8399 H 789.992 5.35333 -2.42264 0
M  V30 8400 H 791.516 5.87827 -1.65202 0
M  V30 8401 H 792.93 4.54665 -3.49218 0
M  V30 8402 H 791.327 4.25787 -4.22878 0
M  V30 8403 H 792.397 2.88344 -3.89854 0
M  V30 8404 N 793.74 1.17359 1.05189 0
M  V30 8405 C 794.987 0.961987 1.78191 0
M  V30 8406 C 795.315 -0.509363 1.87712 0
M  V30 8407 O 794.57 -1.39425 1.37329 0
M  V30 8408 C 794.869 1.54821 3.22126 0
M  V30 8409 C 794.535 3.04378 3.32663 0
M  V30 8410 C 793.197 3.45201 3.35246 0
M  V30 8411 C 795.549 4.00387 3.33677 0
M  V30 8412 C 792.877 4.80629 3.36471 0
M  V30 8413 C 795.229 5.35715 3.36441 0
M  V30 8414 C 793.893 5.76002 3.37311 0
M  V30 8415 H 793.163 0.352016 0.652047 0
M  V30 8416 H 795.81 1.46249 1.23627 0
M  V30 8417 H 794.115 0.969432 3.79617 0
M  V30 8418 H 795.812 1.36004 3.77232 0
M  V30 8419 H 792.402 2.71836 3.31366 0
M  V30 8420 H 796.586 3.69906 3.30882 0
M  V30 8421 H 791.842 5.11155 3.35455 0
M  V30 8422 H 796.016 6.09886 3.36173 0
M  V30 8423 H 793.643 6.80919 3.38013 0
M  V30 8424 N 795.218 -1.23913 0.973828 0
M  V30 8425 C 796.629 -1.73992 0.677021 0
M  V30 8426 C 796.98 -1.78833 -0.807036 0
M  V30 8427 O 796.105 -1.42183 -1.63135 0
M  V30 8428 C 796.7 -3.15985 1.22226 0
M  V30 8429 C 795.259 -3.63547 0.975228 0
M  V30 8430 C 794.406 -2.42001 1.35392 0
M  V30 8431 H 797.357 -1.09529 1.14844 0
M  V30 8432 H 797.378 -3.75875 0.591489 0
M  V30 8433 H 796.89 -3.12429 2.30238 0
M  V30 8434 H 794.991 -3.72493 -0.0891047 0
M  V30 8435 H 795.104 -4.50693 1.62518 0
M  V30 8436 H 793.468 -2.42708 0.772334 0
M  V30 8437 H 794.251 -2.41122 2.44367 0
M  V30 8438 N 796.696 -0.74468 -1.38897 0
M  V30 8439 C 797.921 -0.306119 -2.05128 0
M  V30 8440 C 798.346 1.0541 -1.55789 0
M  V30 8441 O 797.704 1.66993 -0.705909 0
M  V30 8442 C 797.752 -0.328195 -3.59103 0
M  V30 8443 O 796.856 0.680876 -4.06741 0
M  V30 8444 H 796.197 -0.137209 -0.649669 0
M  V30 8445 H 798.727 -1.01331 -1.77745 0
M  V30 8446 H 798.737 -0.175956 -4.0762 0
M  V30 8447 H 797.412 -1.32067 -3.94374 0
M  V30 8448 H 795.989 0.49398 -3.69614 0
M  V30 8449 N 798.174 1.49689 -0.493057 0
M  V30 8450 C 799.59 1.58907 -0.148526 0
M  V30 8451 C 799.79 1.4991 1.34645 0
M  V30 8452 O 798.846 1.36893 2.12171 0
M  V30 8453 C 800.159 2.91996 -0.718265 0
M  V30 8454 C 801.707 3.05443 -0.683658 0
M  V30 8455 C 802.182 4.41138 -1.23132 0
M  V30 8456 N 803.673 4.47608 -1.19167 0
M  V30 8457 C 804.408 5.51038 -1.5857 0
M  V30 8458 N 803.904 6.61612 -2.05528 0
M  V30 8459 N 805.697 5.41706 -1.50036 0
M  V30 8460 H 797.848 1.5378 -1.46511 0
M  V30 8461 H 800.111 0.727996 -0.607228 0
M  V30 8462 H 799.817 3.04123 -1.7664 0
M  V30 8463 H 799.691 3.76798 -0.17419 0
M  V30 8464 H 802.078 2.92949 0.355626 0
M  V30 8465 H 802.159 2.22344 -1.26479 0
M  V30 8466 H 801.803 4.54382 -2.26935 0
M  V30 8467 H 801.733 5.22864 -0.626201 0
M  V30 8468 H 804.224 3.68274 -0.847524 0
M  V30 8469 H 804.537 7.36622 -2.33685 0
M  V30 8470 H 802.882 6.62674 -2.09497 0
M  V30 8471 H 806.073 4.54212 -1.13176 0
M  V30 8472 H 806.246 6.22188 -1.81068 0
M  V30 8473 N 799.652 0.226554 1.55963 0
M  V30 8474 C 800.88 -0.408507 2.02827 0
M  V30 8475 C 801.295 -1.52994 1.10627 0
M  V30 8476 O 800.652 -1.82126 0.116809 0
M  V30 8477 C 800.703 -0.93545 3.49187 0
M  V30 8478 O 800.424 0.141273 4.37872 0
M  V30 8479 C 801.925 -1.64325 4.11719 0
M  V30 8480 H 799.145 -0.099442 0.66359 0
M  V30 8481 H 801.689 0.344471 2.01578 0
M  V30 8482 H 799.844 -1.63868 3.51036 0
M  V30 8483 H 800.258 -0.25558 5.23877 0
M  V30 8484 H 801.732 -1.9639 5.15883 0
M  V30 8485 H 802.209 -2.55815 3.57009 0
M  V30 8486 H 802.815 -0.9851 4.13734 0
M  V30 8487 N 801.13 -1.57531 -0.0467866 0
M  V30 8488 C 802.358 -1.92696 -0.753371 0
M  V30 8489 C 802.773 -0.824792 -1.69831 0
M  V30 8490 O 802.13 0.200155 -1.81399 0
M  V30 8491 C 802.181 -3.27728 -1.52566 0
M  V30 8492 O 801.902 -4.3371 -0.618674 0
M  V30 8493 C 803.403 -3.77066 -2.33101 0
M  V30 8494 H 800.623 -0.636367 -0.212788 0
M  V30 8495 H 803.167 -2.04498 -0.00959361 0
M  V30 8496 H 801.322 -3.17378 -2.22148 0
M  V30 8497 H 801.736 -5.11548 -1.15839 0
M  V30 8498 H 803.21 -4.74109 -2.82709 0
M  V30 8499 H 803.687 -3.07348 -3.13741 0
M  V30 8500 H 804.293 -3.90442 -1.68628 0
M  V30 8501 N 802.608 0.318715 -1.54344 0
M  V30 8502 C 803.854 1.05383 -1.73971 0
M  V30 8503 C 804.209 1.85524 -0.509781 0
M  V30 8504 O 803.502 1.8502 0.49782 0
M  V30 8505 C 803.696 2.00514 -2.95853 0
M  V30 8506 C 803.525 1.29728 -4.30582 0
M  V30 8507 C 802.295 1.03177 -4.94654 0
M  V30 8508 C 804.493 0.710718 -5.09366 0
M  V30 8509 N 802.475 0.29232 -6.13204 0
M  V30 8510 C 803.846 0.103132 -6.19914 0
M  V30 8511 C 805.901 0.614011 -4.94099 0
M  V30 8512 C 804.604 -0.591782 -7.16862 0
M  V30 8513 C 806.63 -0.0672115 -5.91362 0
M  V30 8514 C 805.992 -0.663721 -7.01266 0
M  V30 8515 H 802.091 0.369157 -0.689382 0
M  V30 8516 H 804.675 0.334453 -1.91806 0
M  V30 8517 H 802.846 2.69719 -2.79475 0
M  V30 8518 H 804.578 2.67046 -3.04086 0
M  V30 8519 H 801.333 1.32536 -4.54677 0
M  V30 8520 H 801.757 -0.0634005 -6.7697 0
M  V30 8521 H 806.399 1.06091 -4.09273 0
M  V30 8522 H 804.117 -1.0505 -8.01243 0
M  V30 8523 H 807.703 -0.141742 -5.81627 0
M  V30 8524 H 806.583 -1.18248 -7.75234 0
M  V30 8525 N 804.086 1.46499 0.581025 0
M  V30 8526 C 805.332 1.52121 1.34116 0
M  V30 8527 C 805.665 0.173031 1.93428 0
M  V30 8528 O 804.94 -0.815729 1.76568 0
M  V30 8529 C 805.223 2.62108 2.46924 0
M  V30 8530 C 805.076 4.06462 1.92636 0
M  V30 8531 C 806.395 2.68167 3.48962 0
M  V30 8532 H 803.514 0.5538 0.486287 0
M  V30 8533 H 806.156 1.78443 0.652538 0
M  V30 8534 H 804.306 2.39794 3.05665 0
M  V30 8535 H 805.978 4.40068 1.3834 0
M  V30 8536 H 804.221 4.15862 1.23455 0
M  V30 8537 H 804.892 4.79152 2.74076 0
M  V30 8538 H 807.368 2.8823 3.00104 0
M  V30 8539 H 806.244 3.46942 4.2535 0
M  V30 8540 H 806.505 1.74284 4.06297 0
M  V30 8541 N 805.565 -0.825799 1.34232 0
M  V30 8542 C 806.795 -1.61129 1.29309 0
M  V30 8543 C 807.203 -1.88714 -0.135589 0
M  V30 8544 O 806.546 -1.47703 -1.09222 0
M  V30 8545 C 806.608 -2.97866 2.01287 0
M  V30 8546 C 806.272 -2.9319 3.50555 0
M  V30 8547 C 807.269 -2.67978 4.45515 0
M  V30 8548 C 804.954 -3.12913 3.92926 0
M  V30 8549 C 806.948 -2.62536 5.80822 0
M  V30 8550 C 804.635 -3.07096 5.28333 0
M  V30 8551 C 805.633 -2.8194 6.22092 0
M  V30 8552 O 805.321 -2.7605 7.55018 0
M  V30 8553 H 805.053 -0.507652 0.446391 0
M  V30 8554 H 807.607 -1.03575 1.77374 0
M  V30 8555 H 805.837 -3.57327 1.47832 0
M  V30 8556 H 807.526 -3.58848 1.89691 0
M  V30 8557 H 808.292 -2.52478 4.14101 0
M  V30 8558 H 804.171 -3.3151 3.20347 0
M  V30 8559 H 807.715 -2.42821 6.53975 0
M  V30 8560 H 803.612 -3.22148 5.59367 0
M  V30 8561 H 804.38 -2.91798 7.6472 0
M  V30 8562 N 807.043 -1.17915 -1.04565 0
M  V30 8563 C 808.268 -0.996749 -1.81878 0
M  V30 8564 C 808.693 0.450169 -1.82634 0
M  V30 8565 O 808.051 1.32268 -1.23995 0
M  V30 8566 C 808.099 -1.55005 -3.25585 0
M  V30 8567 O 807.203 -0.76804 -4.05185 0
M  V30 8568 H 806.544 -0.353456 -0.562108 0
M  V30 8569 H 809.074 -1.56557 -1.31723 0
M  V30 8570 H 809.084 -1.57503 -3.76373 0
M  V30 8571 H 807.759 -2.60327 -3.2435 0
M  V30 8572 H 806.336 -0.81498 -3.63885 0
M  V30 8573 N 808.521 1.23394 -0.980386 0
M  V30 8574 C 809.77 1.91116 -0.644785 0
M  V30 8575 C 810.083 1.77333 0.825367 0
M  V30 8576 O 811.289 2.39858 1.27203 0
M  V30 8577 C 809.745 3.42592 -1.10266 0
M  V30 8578 C 809.353 3.65037 -2.59715 0
M  V30 8579 C 811.097 4.1609 -0.8408 0
M  V30 8580 C 809.004 5.10148 -2.9917 0
M  V30 8581 H 807.934 0.715632 -0.23746 0
M  V30 8582 H 810.585 1.39829 -1.18828 0
M  V30 8583 H 808.967 3.92989 -0.487372 0
M  V30 8584 H 810.141 3.25186 -3.26482 0
M  V30 8585 H 808.456 3.04849 -2.83647 0
M  V30 8586 H 811.053 5.23021 -1.11143 0
M  V30 8587 H 811.396 4.15702 0.223085 0
M  V30 8588 H 811.929 3.71681 -1.41767 0
M  V30 8589 H 808.668 5.15668 -4.04682 0
M  V30 8590 H 808.188 5.50949 -2.37097 0
M  V30 8591 H 809.867 5.7848 -2.89775 0
M  V30 8592 N 809.999 0.752036 1.385 0
M  V30 8593 C 810.947 0.112634 2.32327 0
M  V30 8594 C 811.941 -0.707037 1.53939 0
M  V30 8595 O 813.147 -0.606309 1.69481 0
M  V30 8596 H 809.522 0.0176275 0.751793 0
M  V30 8597 H 811.493 0.920074 2.83861 0
M  V30 8598 C 810.242 -0.767458 3.39124 0
M  V30 8599 H 809.565 -0.146122 3.99533 0
M  V30 8600 H 811.005 -1.18216 4.07187 0
M  V30 8601 C 809.464 -1.90938 2.77568 0
M  V30 8602 O 809.994 -3.00342 2.66754 0
M  V30 8603 N 808.2 -1.70396 2.35401 0
M  V30 8604 H 807.747 -0.81413 2.44397 0
M  V30 8605 H 807.705 -2.46972 1.94557 0
M  V30 8606 N 811.477 -1.49425 0.500989 0
M  V30 8607 C 812.425 -2.30771 -0.291149 0
M  V30 8608 C 813.419 -1.3938 -0.962787 0
M  V30 8609 O 814.625 -1.56431 -0.890477 0
M  V30 8610 H 811 -0.743499 -0.11275 0
M  V30 8611 H 812.971 -2.95501 0.414917 0
M  V30 8612 C 811.72 -3.20725 -1.34279 0
M  V30 8613 H 811.043 -3.90975 -0.83538 0
M  V30 8614 H 812.483 -3.80583 -1.86903 0
M  V30 8615 C 810.942 -2.40334 -2.36095 0
M  V30 8616 O 811.472 -2.10749 -3.41976 0
M  V30 8617 N 809.678 -2.02359 -2.08565 0
M  V30 8618 H 809.225 -2.26619 -1.22482 0
M  V30 8619 H 809.183 -1.48878 -2.76916 0
M  V30 8620 N 812.955 -0.234822 -1.55841 0
M  V30 8621 C 814.201 0.393843 -1.98939 0
M  V30 8622 C 814.534 1.58466 -1.1226 0
M  V30 8623 O 813.809 1.93635 -0.183242 0
M  V30 8624 C 814.092 0.815492 -3.50745 0
M  V30 8625 C 813.945 -0.379878 -4.48193 0
M  V30 8626 C 815.264 1.66687 -4.07312 0
M  V30 8627 H 812.383 0.141681 -0.723253 0
M  V30 8628 H 815.025 -0.333716 -1.87046 0
M  V30 8629 H 813.175 1.43541 -3.6101 0
M  V30 8630 H 814.847 -1.0182 -4.49923 0
M  V30 8631 H 813.09 -1.02507 -4.21515 0
M  V30 8632 H 813.761 -0.0417069 -5.51984 0
M  V30 8633 H 816.237 1.14369 -4.00074 0
M  V30 8634 H 815.113 1.93078 -5.13821 0
M  V30 8635 H 815.374 2.63468 -3.55017 0
M  V30 8636 N 814.433 1.57553 0.0384317 0
M  V30 8637 C 815.363 2.0898 1.04161 0
M  V30 8638 C 816.344 0.99029 1.38301 0
M  V30 8639 O 817.529 1.26499 1.47349 0
M  V30 8640 C 814.659 2.56145 2.34536 0
M  V30 8641 C 813.613 3.70275 2.14663 0
M  V30 8642 C 812.939 4.03612 3.50715 0
M  V30 8643 C 814.239 4.99067 1.54045 0
M  V30 8644 H 815.933 2.93046 0.613548 0
M  V30 8645 H 813.479 1.40973 0.293684 0
M  V30 8646 H 815.432 2.90741 3.05037 0
M  V30 8647 H 814.156 1.6915 2.79385 0
M  V30 8648 H 812.815 3.36013 1.46597 0
M  V30 8649 H 812.463 3.13698 3.93195 0
M  V30 8650 H 812.163 4.80482 3.38247 0
M  V30 8651 H 813.687 4.40735 4.22593 0
M  V30 8652 H 815.101 5.3168 2.14451 0
M  V30 8653 H 813.498 5.80484 1.52178 0
M  V30 8654 H 814.568 4.8226 0.505259 0
M  V30 8655 N 815.911 -0.310526 1.54511 0
M  V30 8656 C 816.844 -1.40693 1.79668 0
M  V30 8657 C 817.822 -1.49159 0.64734 0
M  V30 8658 O 819.006 -1.66367 0.886239 0
M  V30 8659 C 816.133 -2.78685 1.92491 0
M  V30 8660 C 815.179 -2.87688 3.14861 0
M  V30 8661 S 816.012 -2.50759 4.7316 0
M  V30 8662 C 817.168 -3.90797 4.88906 0
M  V30 8663 H 817.401 -1.19142 2.72383 0
M  V30 8664 H 814.934 -0.508103 1.458 0
M  V30 8665 H 816.892 -3.58168 2.00563 0
M  V30 8666 H 815.553 -2.9751 1.00731 0
M  V30 8667 H 814.746 -3.8888 3.20607 0
M  V30 8668 H 814.348 -2.16189 3.05186 0
M  V30 8669 H 816.64 -4.85693 4.72344 0
M  V30 8670 H 817.583 -3.90027 5.91003 0
M  V30 8671 H 817.991 -3.80357 4.1712 0
M  V30 8672 N 817.389 -1.46805 -0.573248 0
M  V30 8673 C 818.614 -1.56433 -1.36175 0
M  V30 8674 C 819.039 -0.209336 -1.86932 0
M  V30 8675 O 818.397 0.812146 -1.62092 0
M  V30 8676 C 818.445 -2.58055 -2.51873 0
M  V30 8677 O 817.549 -2.12214 -3.53609 0
M  V30 8678 H 816.89 -0.526068 -0.405153 0
M  V30 8679 H 819.42 -1.92456 -0.694405 0
M  V30 8680 H 819.43 -2.77966 -2.98662 0
M  V30 8681 H 818.105 -3.56448 -2.14284 0
M  V30 8682 H 816.682 -2.02333 -3.13234 0
M  V30 8683 N 818.867 0.818669 -1.34668 0
M  V30 8684 C 819.797 1.94468 -1.29245 0
M  V30 8685 C 820.778 1.69257 -0.169101 0
M  V30 8686 O 821.963 1.90794 -0.362143 0
M  V30 8687 C 819.093 3.31001 -1.05145 0
M  V30 8688 C 818.047 3.70663 -2.13992 0
M  V30 8689 C 817.373 5.05226 -1.75074 0
M  V30 8690 C 818.673 3.82312 -3.55858 0
M  V30 8691 H 820.367 1.99263 -2.2346 0
M  V30 8692 H 817.913 0.957304 -1.07572 0
M  V30 8693 H 819.866 4.09364 -0.999949 0
M  V30 8694 H 818.59 3.26517 -0.0737312 0
M  V30 8695 H 817.249 2.94578 -2.18219 0
M  V30 8696 H 816.897 4.97233 -0.759518 0
M  V30 8697 H 816.597 5.32734 -2.47928 0
M  V30 8698 H 818.121 5.86042 -1.71427 0
M  V30 8699 H 819.535 4.50935 -3.5402 0
M  V30 8700 H 817.932 4.21278 -4.2737 0
M  V30 8701 H 819.002 2.84193 -3.9289 0
M  V30 8702 N 820.346 1.18468 1.03938 0
M  V30 8703 C 821.571 1.00638 1.81347 0
M  V30 8704 C 821.996 -0.440477 1.8287 0
M  V30 8705 O 821.354 -1.31609 1.24695 0
M  V30 8706 C 821.402 1.5673 3.24759 0
M  V30 8707 O 820.506 0.789517 4.04772 0
M  V30 8708 H 819.847 0.356432 0.560225 0
M  V30 8709 H 822.377 1.57253 1.30891 0
M  V30 8710 H 822.387 1.59496 3.75533 0
M  V30 8711 H 821.062 2.62043 3.22965 0
M  V30 8712 H 819.639 0.834267 3.63448 0
M  V30 8713 N 821.824 -1.22873 0.986916 0
M  V30 8714 C 823.072 -1.91084 0.658121 0
M  V30 8715 C 823.393 -1.77304 -0.811675 0
M  V30 8716 O 822.663 -1.15649 -1.58121 0
M  V30 8717 H 821.243 -0.707251 0.240427 0
M  V30 8718 H 823.905 -1.49357 1.25213 0
M  V30 8719 H 823.001 -2.98373 0.915428 0
M  V30 8720 N 823.302 -0.75937 -1.38099 0
M  V30 8721 C 824.249 -0.135508 -2.30402 0
M  V30 8722 C 825.219 0.703356 -1.50473 0
M  V30 8723 O 826.404 0.658287 -1.79084 0
M  V30 8724 C 823.544 0.747228 -3.36913 0
M  V30 8725 C 822.657 -0.106893 -4.31868 0
M  V30 8726 C 821.792 0.779388 -5.25451 0
M  V30 8727 C 820.831 -0.0780179 -6.1205 0
M  V30 8728 N 819.968 0.765545 -6.97914 0
M  V30 8729 H 824.808 -0.9282 -2.83176 0
M  V30 8730 H 822.345 -0.46935 -1.39411 0
M  V30 8731 H 824.303 1.27371 -3.97281 0
M  V30 8732 H 822.933 1.50565 -2.85535 0
M  V30 8733 H 821.985 -0.751063 -3.72912 0
M  V30 8734 H 823.297 -0.768798 -4.9284 0
M  V30 8735 H 822.451 1.37282 -5.90964 0
M  V30 8736 H 821.19 1.47501 -4.6486 0
M  V30 8737 H 820.195 -0.684078 -5.45528 0
M  V30 8738 H 821.42 -0.770786 -6.74712 0
M  V30 8739 H 819.366 1.44601 -6.39864 0
M  V30 8740 H 819.283 0.160666 -7.55829 0
M  V30 8741 H 820.551 1.34377 -7.6783 0
M  V30 8742 N 824.78 1.49157 -0.508906 0
M  V30 8743 C 826.008 2.06879 0.0293734 0
M  V30 8744 C 826.423 1.36823 1.30095 0
M  V30 8745 O 825.78 0.449034 1.7689 0
M  V30 8746 C 825.831 3.60423 0.278791 0
M  V30 8747 O 825.552 4.27844 -0.942389 0
M  V30 8748 C 827.053 4.34881 0.859825 0
M  V30 8749 H 824.273 0.67057 -0.0240184 0
M  V30 8750 H 826.817 1.91834 -0.708526 0
M  V30 8751 H 824.972 3.75145 0.966689 0
M  V30 8752 H 825.386 5.19671 -0.710097 0
M  V30 8753 H 826.86 5.43161 0.983884 0
M  V30 8754 H 827.337 3.9789 1.85958 0
M  V30 8755 H 827.943 4.24785 0.209152 0
M  V30 8756 N 826.258 0.243083 1.55714 0
M  V30 8757 C 827.669 -0.260788 1.8487 0
M  V30 8758 C 828.02 -1.57879 1.16485 0
M  V30 8759 O 827.145 -2.1184 0.441908 0
M  V30 8760 C 827.74 -0.479954 3.35383 0
M  V30 8761 C 826.299 -0.928096 3.64778 0
M  V30 8762 C 825.446 -0.00316416 2.773 0
M  V30 8763 H 828.397 0.465743 1.51712 0
M  V30 8764 H 828.418 -1.32308 3.56756 0
M  V30 8765 H 827.93 0.479468 3.85127 0
M  V30 8766 H 826.031 -1.90012 3.20509 0
M  V30 8767 H 826.144 -0.7876 4.72582 0
M  V30 8768 H 824.508 -0.513849 2.49463 0
M  V30 8769 H 825.291 0.951562 3.29849 0
M  V30 8770 N 827.736 -1.57571 -0.0300757 0
M  V30 8771 C 828.686 -2.02958 -1.03885 0
M  V30 8772 C 829.67 -0.918723 -1.32092 0
M  V30 8773 O 830.862 -1.18262 -1.31694 0
M  V30 8774 C 827.991 -2.51169 -2.34028 0
M  V30 8775 C 827.077 -3.69073 -2.08915 0
M  V30 8776 N 827.468 -4.81831 -1.53858 0
M  V30 8777 C 825.766 -3.76427 -2.39204 0
M  V30 8778 C 826.467 -5.6346 -1.44526 0
M  V30 8779 N 825.443 -5.08545 -1.92048 0
M  V30 8780 H 829.245 -2.8756 -0.607157 0
M  V30 8781 H 826.759 -1.6067 -0.236399 0
M  V30 8782 H 828.756 -2.81944 -3.07104 0
M  V30 8783 H 827.416 -1.67972 -2.77876 0
M  V30 8784 H 828.427 -5.03291 -1.22142 0
M  V30 8785 H 825.104 -3.04029 -2.86134 0
M  V30 8786 H 826.494 -6.64042 -1.02456 0
M  V30 8787 N 829.214 0.302327 -1.54673 0
M  V30 8788 C 830.144 1.37759 -1.88533 0
M  V30 8789 C 831.125 1.52961 -0.744113 0
M  V30 8790 O 832.31 1.6649 -0.999731 0
M  V30 8791 C 829.44 2.74201 -2.13146 0
M  V30 8792 C 828.394 2.73765 -3.28993 0
M  V30 8793 C 827.72 4.13483 -3.39022 0
M  V30 8794 C 829.02 2.35624 -4.66132 0
M  V30 8795 H 830.714 1.0967 -2.78591 0
M  V30 8796 H 828.26 0.52613 -1.34044 0
M  V30 8797 H 830.213 3.49508 -2.35419 0
M  V30 8798 H 828.937 3.03812 -1.19858 0
M  V30 8799 H 827.596 2.00914 -3.06642 0
M  V30 8800 H 827.244 4.40269 -2.43253 0
M  V30 8801 H 826.944 4.14093 -4.16894 0
M  V30 8802 H 828.468 4.90572 -3.63553 0
M  V30 8803 H 829.882 3.00647 -4.88143 0
M  V30 8804 H 828.279 2.47449 -5.46707 0
M  V30 8805 H 829.349 1.30753 -4.66939 0
M  V30 8806 N 830.692 1.47107 0.565454 0
M  V30 8807 C 831.922 1.56681 1.34664 0
M  V30 8808 C 832.33 0.213011 1.87997 0
M  V30 8809 O 831.673 -0.802629 1.65238 0
M  V30 8810 C 831.735 2.52528 2.55871 0
M  V30 8811 C 831.399 3.98403 2.23883 0
M  V30 8812 C 832.396 4.87125 1.81673 0
M  V30 8813 C 830.081 4.43674 2.35496 0
M  V30 8814 C 832.075 6.19135 1.51494 0
M  V30 8815 C 829.762 5.75714 2.0493 0
M  V30 8816 C 830.76 6.63266 1.62996 0
M  V30 8817 O 830.448 7.92853 1.32813 0
M  V30 8818 H 830.18 0.531967 0.417117 0
M  V30 8819 H 832.734 1.93368 0.692669 0
M  V30 8820 H 830.964 2.10893 3.24131 0
M  V30 8821 H 832.653 2.5232 3.17945 0
M  V30 8822 H 833.419 4.534 1.72201 0
M  V30 8823 H 829.298 3.7574 2.67096 0
M  V30 8824 H 832.842 6.87429 1.1869 0
M  V30 8825 H 828.739 6.08983 2.14031 0
M  V30 8826 H 829.507 8.0528 1.46513 0
M  V30 8827 N 832.17 -0.811516 1.35101 0
M  V30 8828 C 833.395 -1.60499 1.31358 0
M  V30 8829 C 833.82 -1.87793 -0.107383 0
M  V30 8830 O 833.178 -1.46161 -1.07268 0
M  V30 8831 C 833.226 -2.91612 2.12119 0
M  V30 8832 O 832.33 -3.84211 1.49853 0
M  V30 8833 H 831.671 -0.487702 0.450603 0
M  V30 8834 H 834.201 -1.00758 1.7807 0
M  V30 8835 H 834.211 -3.4108 2.23894 0
M  V30 8836 H 832.886 -2.71071 3.15426 0
M  V30 8837 H 831.463 -3.42751 1.46889 0
M  V30 8838 N 833.648 -1.19017 -1.03309 0
M  V30 8839 C 834.598 -0.89194 -2.0983 0
M  V30 8840 C 835.582 0.14151 -1.60277 0
M  V30 8841 O 836.774 -0.0635946 -1.76886 0
M  V30 8842 C 833.903 -0.427793 -3.40624 0
M  V30 8843 C 832.989 -1.49374 -3.96923 0
M  V30 8844 N 833.38 -2.71213 -4.26939 0
M  V30 8845 C 831.678 -1.35605 -4.24885 0
M  V30 8846 C 832.379 -3.39849 -4.72099 0
M  V30 8847 N 831.355 -2.67239 -4.73375 0
M  V30 8848 H 835.157 -1.81801 -2.30923 0
M  V30 8849 H 832.671 -1.08171 -1.21131 0
M  V30 8850 H 834.668 -0.195608 -4.16441 0
M  V30 8851 H 833.328 0.491848 -3.20953 0
M  V30 8852 H 834.339 -3.08014 -4.16351 0
M  V30 8853 H 831.016 -0.499537 -4.14501 0
M  V30 8854 H 832.406 -4.44018 -5.04279 0
M  V30 8855 N 835.127 1.22348 -0.993418 0
M  V30 8856 C 836.352 1.95666 -0.687727 0
M  V30 8857 C 836.777 1.72883 0.741161 0
M  V30 8858 O 836.135 1.00837 1.50671 0
M  V30 8859 C 836.183 3.46457 -0.99998 0
M  V30 8860 O 835.287 4.12281 -0.0989386 0
M  V30 8861 H 834.628 0.612102 -0.257346 0
M  V30 8862 H 837.158 1.55428 -1.33054 0
M  V30 8863 H 837.168 3.96976 -0.942035 0
M  V30 8864 H 835.843 3.62365 -2.04118 0
M  V30 8865 H 834.42 3.72295 -0.212413 0
M  V30 8866 N 836.605 0.766683 1.37694 0
M  V30 8867 C 837.854 0.325425 1.99057 0
M  V30 8868 C 838.167 -1.10275 1.61551 0
M  V30 8869 O 839.373 -1.64513 2.1598 0
M  V30 8870 C 837.829 0.530886 3.55963 0
M  V30 8871 C 837.437 1.96899 4.02411 0
M  V30 8872 C 839.181 0.152997 4.24224 0
M  V30 8873 C 837.088 2.12232 5.52007 0
M  V30 8874 H 836.018 0.117929 0.744721 0
M  V30 8875 H 838.669 0.945091 1.5729 0
M  V30 8876 H 837.051 -0.158162 3.95684 0
M  V30 8877 H 838.225 2.69258 3.73948 0
M  V30 8878 H 836.54 2.303 3.46916 0
M  V30 8879 H 839.137 0.24614 5.34133 0
M  V30 8880 H 839.48 -0.896096 4.06541 0
M  V30 8881 H 840.013 0.794398 3.89787 0
M  V30 8882 H 836.752 3.15442 5.7461 0
M  V30 8883 H 836.272 1.4435 5.82171 0
M  V30 8884 H 837.951 1.9185 6.17902 0
M  V30 8885 N 838.083 -1.48885 0.516809 0
M  V30 8886 C 839.013 -2.32241 -0.242157 0
M  V30 8887 C 839.994 -1.41258 -0.947633 0
M  V30 8888 O 841.179 -1.70156 -0.935973 0
M  V30 8889 C 838.309 -3.22151 -1.29754 0
M  V30 8890 C 837.263 -4.22053 -0.710995 0
M  V30 8891 C 836.589 -5.01007 -1.86806 0
M  V30 8892 C 837.889 -5.21388 0.30853 0
M  V30 8893 H 839.583 -2.95943 0.453651 0
M  V30 8894 H 837.129 -1.42316 0.219612 0
M  V30 8895 H 839.082 -3.79284 -1.83634 0
M  V30 8896 H 837.806 -2.56423 -2.02274 0
M  V30 8897 H 836.465 -3.66087 -0.193819 0
M  V30 8898 H 836.113 -4.31713 -2.58133 0
M  V30 8899 H 835.813 -5.68615 -1.48159 0
M  V30 8900 H 837.337 -5.60989 -2.4109 0
M  V30 8901 H 838.751 -5.73122 -0.142703 0
M  V30 8902 H 837.148 -5.96975 0.611673 0
M  V30 8903 H 838.218 -4.69329 1.21894 0
M  V30 8904 N 839.561 -0.251338 -1.55583 0
M  V30 8905 C 840.809 0.371434 -1.98657 0
M  V30 8906 C 841.13 1.58143 -1.14087 0
M  V30 8907 O 840.4 1.94607 -0.224708 0
M  V30 8908 H 838.98 0.140225 -0.733721 0
M  V30 8909 H 841.642 -0.351157 -1.9171 0
M  V30 8910 H 840.738 0.677554 -3.04657 0
M  V30 8911 N 841.039 1.57585 0.0217189 0
M  V30 8912 C 841.969 2.10073 1.01939 0
M  V30 8913 C 842.95 1.0049 1.37243 0
M  V30 8914 O 844.135 1.28055 1.45999 0
M  V30 8915 C 841.265 2.58618 2.31806 0
M  V30 8916 C 840.219 3.72531 2.10724 0
M  V30 8917 C 839.545 4.07309 3.46415 0
M  V30 8918 C 840.845 5.00672 1.48743 0
M  V30 8919 H 842.539 2.9368 0.582432 0
M  V30 8920 H 840.085 1.41277 0.278715 0
M  V30 8921 H 842.038 2.9396 3.01936 0
M  V30 8922 H 840.762 1.72104 2.77575 0
M  V30 8923 H 839.421 3.37549 1.43025 0
M  V30 8924 H 839.069 3.17851 3.89846 0
M  V30 8925 H 838.769 4.84042 3.33132 0
M  V30 8926 H 840.293 4.45192 4.17895 0
M  V30 8927 H 841.707 5.33925 2.088 0
M  V30 8928 H 840.104 5.82065 1.46013 0
M  V30 8929 H 841.174 4.82769 0.45408 0
M  V30 8930 N 842.517 -0.29412 1.54831 0
M  V30 8931 C 843.447 -1.36757 1.89261 0
M  V30 8932 C 844.428 -1.52564 0.752214 0
M  V30 8933 O 845.613 -1.65958 1.00855 0
M  V30 8934 C 842.743 -2.73066 2.14597 0
M  V30 8935 C 841.697 -2.72017 3.3044 0
M  V30 8936 C 841.023 -4.11679 3.4121 0
M  V30 8937 C 842.323 -2.33149 4.67375 0
M  V30 8938 H 844.017 -1.08191 2.79169 0
M  V30 8939 H 841.563 -0.519014 1.34321 0
M  V30 8940 H 843.516 -3.48255 2.37269 0
M  V30 8941 H 842.24 -3.03172 1.21467 0
M  V30 8942 H 840.899 -1.99285 3.07703 0
M  V30 8943 H 840.547 -4.38973 2.45584 0
M  V30 8944 H 840.247 -4.11877 4.19084 0
M  V30 8945 H 841.771 -4.88637 3.6615 0
M  V30 8946 H 843.185 -2.98054 4.89731 0
M  V30 8947 H 841.582 -2.44546 5.48012 0
M  V30 8948 H 842.652 -1.28275 4.67626 0
M  V30 8949 N 843.995 -1.47404 -0.557645 0
M  V30 8950 C 844.905 -1.62491 -1.69216 0
M  V30 8951 C 845.921 -0.507764 -1.66426 0
M  V30 8952 O 847.097 -0.775241 -1.85882 0
M  V30 8953 C 844.162 -1.63511 -3.05721 0
M  V30 8954 C 843.223 -2.86648 -3.1958 0
M  V30 8955 C 842.456 -2.87609 -4.49574 0
M  V30 8956 O 842.679 -1.97799 -5.35006 0
M  V30 8957 O 841.613 -3.79465 -4.67215 0
M  V30 8958 H 845.439 -2.58487 -1.59431 0
M  V30 8959 H 843.024 -1.30485 -0.7276 0
M  V30 8960 H 844.906 -1.66863 -3.86956 0
M  V30 8961 H 843.581 -0.706812 -3.15889 0
M  V30 8962 H 842.488 -2.8884 -2.37744 0
M  V30 8963 H 843.821 -3.7877 -3.14316 0
M  V30 8964 N 845.473 0.80434 -1.35529 0
M  V30 8965 C 846.889 1.10023 -1.15616 0
M  V30 8966 C 847.089 2.01478 0.0298535 0
M  V30 8967 O 846.145 2.42609 0.699778 0
M  V30 8968 C 847.458 1.72905 -2.46017 0
M  V30 8969 C 849.006 1.85315 -2.52245 0
M  V30 8970 C 849.481 2.51612 -3.82695 0
M  V30 8971 N 850.972 2.59095 -3.83958 0
M  V30 8972 C 851.707 3.11167 -4.81625 0
M  V30 8973 N 851.203 3.63659 -5.89681 0
M  V30 8974 N 852.996 3.09741 -4.6906 0
M  V30 8975 H 845.147 0.196428 -2.1149 0
M  V30 8976 H 847.41 0.149735 -0.9361 0
M  V30 8977 H 847.116 1.13171 -3.32994 0
M  V30 8978 H 846.99 2.72579 -2.6073 0
M  V30 8979 H 849.377 2.44191 -1.65695 0
M  V30 8980 H 849.458 0.844886 -2.41444 0
M  V30 8981 H 849.102 1.93385 -4.69643 0
M  V30 8982 H 849.032 3.5298 -3.90785 0
M  V30 8983 H 851.523 2.21908 -3.05884 0
M  V30 8984 H 851.836 4.01699 -6.60195 0
M  V30 8985 H 850.181 3.61852 -5.9337 0
M  V30 8986 H 853.372 2.68011 -3.83781 0
M  V30 8987 H 853.545 3.50016 -5.45338 0
M  V30 8988 N 846.951 1.19563 1.02676 0
M  V30 8989 C 847.898 0.935291 2.11 0
M  V30 8990 C 848.868 -0.130685 1.65585 0
M  V30 8991 O 850.053 0.0119062 1.90796 0
M  V30 8992 C 847.193 0.482384 3.41712 0
M  V30 8993 C 846.306 1.61537 4.00662 0
M  V30 8994 C 845.441 1.11378 5.19392 0
M  V30 8995 C 844.48 2.22052 5.70403 0
M  V30 8996 N 843.617 1.73185 6.80405 0
M  V30 8997 H 848.457 1.86275 2.32606 0
M  V30 8998 H 845.994 0.928656 1.14081 0
M  V30 8999 H 847.952 0.20118 4.16715 0
M  V30 9000 H 846.582 -0.408086 3.2021 0
M  V30 9001 H 845.634 2.01173 3.22852 0
M  V30 9002 H 846.946 2.44912 4.34534 0
M  V30 9003 H 846.1 0.787935 6.01562 0
M  V30 9004 H 844.839 0.249789 4.8706 0
M  V30 9005 H 843.844 2.55465 4.86845 0
M  V30 9006 H 845.069 3.08911 6.04774 0
M  V30 9007 H 843.015 0.890973 6.49921 0
M  V30 9008 H 842.932 2.50148 7.13416 0
M  V30 9009 H 844.2 1.4357 7.66164 0
M  V30 9010 N 848.429 -1.21819 0.999893 0
M  V30 9011 C 849.339 -2.27691 0.565159 0
M  V30 9012 C 850.355 -1.69587 -0.389398 0
M  V30 9013 O 851.531 -1.99786 -0.254499 0
M  V30 9014 C 848.596 -3.46537 -0.106432 0
M  V30 9015 C 847.657 -4.19932 0.891964 0
M  V30 9016 C 846.89 -5.33103 0.252327 0
M  V30 9017 O 847.113 -5.62398 -0.952103 0
M  V30 9018 O 846.047 -5.94184 0.960698 0
M  V30 9019 H 849.873 -2.67059 1.44613 0
M  V30 9020 H 847.458 -1.28119 0.768499 0
M  V30 9021 H 849.34 -4.18631 -0.482301 0
M  V30 9022 H 848.015 -3.09079 -0.961865 0
M  V30 9023 H 846.922 -3.5008 1.3189 0
M  V30 9024 H 848.255 -4.61287 1.71682 0
M  V30 9025 N 849.908 -0.773975 -1.37286 0
M  V30 9026 C 851.136 -0.350758 -2.03905 0
M  V30 9027 C 851.551 1.02779 -1.58373 0
M  V30 9028 O 850.908 1.65646 -0.766009 0
M  V30 9029 C 850.959 -0.387335 -3.59419 0
M  V30 9030 O 850.68 -1.7115 -4.03286 0
M  V30 9031 C 852.181 0.047198 -4.43275 0
M  V30 9032 H 849.401 -0.146663 -0.654775 0
M  V30 9033 H 851.945 -1.04852 -1.75574 0
M  V30 9034 H 850.1 0.261865 -3.86514 0
M  V30 9035 H 850.514 -1.65166 -4.97816 0
M  V30 9036 H 851.988 -0.0295474 -5.51992 0
M  V30 9037 H 852.465 1.09786 -4.25257 0
M  V30 9038 H 853.071 -0.573899 -4.2141 0
M  V30 9039 N 851.386 1.48609 -0.524698 0
M  V30 9040 C 852.802 1.58557 -0.182199 0
M  V30 9041 C 853.002 1.52732 1.31435 0
M  V30 9042 O 852.058 1.41362 2.0922 0
M  V30 9043 C 853.371 2.90406 -0.78004 0
M  V30 9044 C 854.919 3.03924 -0.748293 0
M  V30 9045 C 855.394 4.38427 -1.32462 0
M  V30 9046 N 856.885 4.4498 -1.28635 0
M  V30 9047 C 857.62 5.47551 -1.70223 0
M  V30 9048 N 857.116 6.57103 -2.19515 0
M  V30 9049 N 858.909 5.38402 -1.61493 0
M  V30 9050 H 851.06 1.50638 -1.4974 0
M  V30 9051 H 853.323 0.714952 -0.622533 0
M  V30 9052 H 853.029 3.00308 -1.83052 0
M  V30 9053 H 852.903 3.76343 -0.254075 0
M  V30 9054 H 855.29 2.93638 0.293407 0
M  V30 9055 H 855.371 2.19611 -1.31167 0
M  V30 9056 H 855.015 4.49466 -2.36522 0
M  V30 9057 H 854.945 5.21418 -0.736967 0
M  V30 9058 H 857.436 3.66393 -0.92545 0
M  V30 9059 H 857.749 7.31499 -2.49257 0
M  V30 9060 H 856.094 6.58081 -2.23506 0
M  V30 9061 H 859.285 4.5171 -1.22785 0
M  V30 9062 H 859.458 6.18208 -1.94225 0
M  V30 9063 N 852.864 0.259585 1.55447 0
M  V30 9064 C 853.827 -0.621359 2.20617 0
M  V30 9065 C 854.827 -1.09317 1.17925 0
M  V30 9066 O 856.017 -0.995842 1.42929 0
M  V30 9067 C 853.149 -1.85546 2.85982 0
M  V30 9068 H 854.342 -0.0525833 2.99854 0
M  V30 9069 H 851.895 0.0101055 1.56297 0
M  V30 9070 H 852.63 -2.46515 2.10715 0
M  V30 9071 H 852.415 -1.52523 3.61219 0
M  V30 9072 H 853.905 -2.48227 3.35817 0
M  V30 9073 N 854.342 -1.57594 -0.0133615 0
M  V30 9074 C 855.59 -1.89605 -0.699596 0
M  V30 9075 C 855.911 -0.85926 -1.75048 0
M  V30 9076 O 855.181 0.105112 -1.95618 0
M  V30 9077 H 853.761 -0.699776 -0.261385 0
M  V30 9078 H 856.423 -1.94885 0.0244044 0
M  V30 9079 H 855.519 -2.88962 -1.17928 0
M  V30 9080 N 855.82 0.285905 -1.54985 0
M  V30 9081 C 856.768 1.37302 -1.87752 0
M  V30 9082 C 857.762 1.51763 -0.752616 0
M  V30 9083 O 858.968 1.53701 -0.936805 0
M  V30 9084 H 855.343 0.458935 -0.59572 0
M  V30 9085 H 857.314 1.0691 -2.78591 0
M  V30 9086 C 856.063 2.72885 -2.15474 0
M  V30 9087 H 855.386 2.62545 -3.01513 0
M  V30 9088 H 856.826 3.47925 -2.42331 0
M  V30 9089 C 855.285 3.22989 -0.958124 0
M  V30 9090 O 855.815 4.01268 -0.186219 0
M  V30 9091 N 854.021 2.80503 -0.759354 0
M  V30 9092 H 853.568 2.16961 -1.38874 0
M  V30 9093 H 853.526 3.14375 0.0396937 0
M  V30 9094 N 857.298 1.47698 0.54982 0
M  V30 9095 C 858.709 1.48474 1.13191 0
M  V30 9096 C 859.06 0.243504 1.94683 0
M  V30 9097 O 858.185 -0.651009 2.06375 0
M  V30 9098 C 858.78 2.69022 2.05944 0
M  V30 9099 C 857.339 2.72733 2.5941 0
M  V30 9100 C 856.486 2.41691 1.35944 0
M  V30 9101 H 859.437 1.55101 0.336048 0
M  V30 9102 H 859.458 2.46412 2.89934 0
M  V30 9103 H 858.97 3.59345 1.46605 0
M  V30 9104 H 857.071 1.86568 3.22526 0
M  V30 9105 H 857.184 3.73628 2.99899 0
M  V30 9106 H 855.548 1.92428 1.66864 0
M  V30 9107 H 856.331 3.34231 0.783869 0
M  V30 9108 N 858.776 -0.797141 1.35954 0
M  V30 9109 C 860.025 -1.54983 1.29086 0
M  V30 9110 C 860.338 -1.95167 -0.130003 0
M  V30 9111 O 861.544 -2.69596 -0.32101 0
M  V30 9112 C 860 -2.79738 2.26439 0
M  V30 9113 C 859.608 -2.46753 3.73921 0
M  V30 9114 C 861.352 -3.57733 2.28533 0
M  V30 9115 C 859.259 -3.67858 4.63071 0
M  V30 9116 H 858.189 -0.581766 0.479651 0
M  V30 9117 H 860.84 -0.87541 1.61273 0
M  V30 9118 H 859.222 -3.48939 1.87236 0
M  V30 9119 H 860.396 -1.85499 4.21814 0
M  V30 9120 H 858.711 -1.81985 3.74527 0
M  V30 9121 H 861.308 -4.47699 2.92351 0
M  V30 9122 H 861.651 -3.95754 1.29169 0
M  V30 9123 H 862.184 -2.95504 2.66313 0
M  V30 9124 H 858.923 -3.34939 5.63468 0
M  V30 9125 H 858.443 -4.28305 4.19898 0
M  V30 9126 H 860.122 -4.34977 4.78961 0
M  V30 9127 N 860.254 -1.20106 -1.0204 0
M  V30 9128 C 861.217 -0.948261 -2.08664 0
M  V30 9129 C 862.217 0.0746753 -1.60627 0
M  V30 9130 O 863.407 -0.160981 -1.73455 0
M  V30 9131 C 860.539 -0.426854 -3.38217 0
M  V30 9132 H 861.732 -1.894 -2.32524 0
M  V30 9133 H 859.285 -1.0159 -1.18782 0
M  V30 9134 H 860.02 0.524532 -3.2003 0
M  V30 9135 H 859.805 -1.16451 -3.74408 0
M  V30 9136 H 861.295 -0.269346 -4.1673 0
M  V30 9137 N 861.732 1.21287 -1.00634 0
M  V30 9138 C 862.682 2.21541 -0.53886 0
M  V30 9139 C 863.666 1.55842 0.400256 0
M  V30 9140 O 864.858 1.75566 0.224889 0
M  V30 9141 C 861.987 3.43047 0.131796 0
M  V30 9142 C 861.073 4.1593 -0.828419 0
M  V30 9143 N 861.464 4.65359 -1.98178 0
M  V30 9144 C 859.762 4.41281 -0.647083 0
M  V30 9145 C 860.463 5.21079 -2.58557 0
M  V30 9146 N 859.439 5.10531 -1.86705 0
M  V30 9147 H 863.241 2.57413 -1.41831 0
M  V30 9148 H 860.755 1.37109 -0.870338 0
M  V30 9149 H 862.752 4.14079 0.484178 0
M  V30 9150 H 861.412 3.08683 1.00721 0
M  V30 9151 H 862.423 4.60896 -2.3621 0
M  V30 9152 H 859.1 4.17107 0.181139 0
M  V30 9153 H 860.49 5.6977 -3.56107 0
M  V30 9154 N 863.21 0.781244 1.36873 0
M  V30 9155 C 864.459 0.34652 1.98701 0
M  V30 9156 C 864.772 -1.08555 1.62712 0
M  V30 9157 O 865.978 -1.62213 2.17713 0
M  V30 9158 C 864.434 0.568611 3.5538 0
M  V30 9159 C 864.042 2.01156 4.003 0
M  V30 9160 C 865.786 0.197983 4.24038 0
M  V30 9161 C 863.693 2.18074 5.49725 0
M  V30 9162 H 862.623 0.125821 0.743428 0
M  V30 9163 H 865.274 0.961721 1.56279 0
M  V30 9164 H 863.656 -0.116185 3.9583 0
M  V30 9165 H 864.83 2.73209 3.71071 0
M  V30 9166 H 863.145 2.33967 3.44454 0
M  V30 9167 H 865.742 0.302778 5.33842 0
M  V30 9168 H 866.085 -0.852927 4.07469 0
M  V30 9169 H 866.618 0.835696 3.88923 0
M  V30 9170 H 863.357 3.21519 5.71232 0
M  V30 9171 H 862.877 1.50517 5.80607 0
M  V30 9172 H 864.556 1.98393 6.15832 0
M  V30 9173 N 864.689 -1.48329 0.532571 0
M  V30 9174 C 865.914 -2.074 0.00147755 0
M  V30 9175 C 866.339 -1.38615 -1.27151 0
M  V30 9176 O 865.697 -0.452949 -1.75551 0
M  V30 9177 C 865.745 -3.60029 -0.202866 0
M  V30 9178 O 864.849 -3.92327 -1.27097 0
M  V30 9179 H 864.19 -0.662777 0.0402883 0
M  V30 9180 H 866.72 -1.90701 0.741224 0
M  V30 9181 H 866.73 -4.05783 -0.424722 0
M  V30 9182 H 865.405 -4.09496 0.727033 0
M  V30 9183 H 863.982 -3.58348 -1.03156 0
M  V30 9184 N 866.167 -0.267825 -1.55308 0
M  V30 9185 C 867.578 0.231344 -1.85261 0
M  V30 9186 C 867.929 1.56006 -1.18982 0
M  V30 9187 O 867.054 2.1111 -0.475554 0
M  V30 9188 C 867.649 0.426537 -3.36104 0
M  V30 9189 C 866.208 0.869945 -3.66209 0
M  V30 9190 C 865.355 -0.0409522 -2.7727 0
M  V30 9191 H 868.306 -0.489821 -1.50952 0
M  V30 9192 H 868.327 1.26616 -3.58816 0
M  V30 9193 H 867.839 -0.540678 -3.84315 0
M  V30 9194 H 865.94 1.84889 -3.23492 0
M  V30 9195 H 866.053 0.712316 -4.73775 0
M  V30 9196 H 864.417 0.474097 -2.50249 0
M  V30 9197 H 865.2 -1.00392 -3.28293 0
M  V30 9198 N 867.645 1.57599 0.00500368 0
M  V30 9199 C 868.595 2.04585 1.00643 0
M  V30 9200 C 869.579 0.939622 1.30614 0
M  V30 9201 O 870.771 1.20342 1.29796 0
M  V30 9202 C 867.9 2.5486 2.30002 0
M  V30 9203 C 866.986 3.7235 2.03017 0
M  V30 9204 N 867.377 4.84218 1.46173 0
M  V30 9205 C 865.675 3.80185 2.33185 0
M  V30 9206 C 866.376 5.65688 1.35544 0
M  V30 9207 N 865.352 5.11536 1.83933 0
M  V30 9208 H 869.154 2.8849 0.561332 0
M  V30 9209 H 866.668 1.61026 0.210808 0
M  V30 9210 H 868.665 2.86794 3.0258 0
M  V30 9211 H 867.325 1.72372 2.75169 0
M  V30 9212 H 868.336 5.0517 1.1412 0
M  V30 9213 H 865.013 3.08543 2.81261 0
M  V30 9214 H 866.403 6.65588 0.918791 0
M  V30 9215 N 869.123 -0.277682 1.55134 0
M  V30 9216 C 870.539 -0.624625 1.46869 0
M  V30 9217 C 870.739 -1.89717 0.678958 0
M  V30 9218 O 869.795 -2.51739 0.195939 0
M  V30 9219 C 871.108 -0.755937 2.91043 0
M  V30 9220 C 872.656 -0.850299 3.01229 0
M  V30 9221 C 873.131 -1.01343 4.46647 0
M  V30 9222 N 874.622 -1.07906 4.50456 0
M  V30 9223 C 875.357 -1.224 5.60184 0
M  V30 9224 N 874.853 -1.33642 6.79788 0
M  V30 9225 N 876.646 -1.25473 5.47917 0
M  V30 9226 H 868.797 0.558102 2.04937 0
M  V30 9227 H 871.06 0.188228 0.929125 0
M  V30 9228 H 870.766 0.108593 3.51532 0
M  V30 9229 H 870.64 -1.6377 3.39793 0
M  V30 9230 H 873.027 -1.7053 2.40839 0
M  V30 9231 H 873.108 0.0559681 2.55739 0
M  V30 9232 H 872.752 -0.163102 5.07638 0
M  V30 9233 H 872.682 -1.93427 4.89789 0
M  V30 9234 H 875.173 -1.00477 3.64298 0
M  V30 9235 H 875.486 -1.44522 7.59166 0
M  V30 9236 H 873.831 -1.30655 6.82608 0
M  V30 9237 H 877.022 -1.16317 4.53418 0
M  V30 9238 H 877.195 -1.36424 6.33476 0
M  V30 9239 N 870.601 -1.47988 -0.541979 0
M  V30 9240 C 871.531 -1.64503 -1.65713 0
M  V30 9241 C 872.512 -0.494116 -1.62765 0
M  V30 9242 O 873.697 -0.725256 -1.80149 0
M  V30 9243 C 870.827 -1.67337 -3.04328 0
M  V30 9244 C 869.781 -2.81809 -3.2213 0
M  V30 9245 C 869.107 -2.69724 -4.61685 0
M  V30 9246 C 870.407 -4.23241 -3.06046 0
M  V30 9247 H 872.101 -2.5786 -1.52147 0
M  V30 9248 H 869.647 -1.24094 -0.730529 0
M  V30 9249 H 871.6 -1.77481 -3.82202 0
M  V30 9250 H 870.324 -0.705514 -3.18889 0
M  V30 9251 H 868.983 -2.71201 -2.46669 0
M  V30 9252 H 868.631 -1.70934 -4.73065 0
M  V30 9253 H 868.331 -3.4653 -4.74543 0
M  V30 9254 H 869.855 -2.81818 -5.41674 0
M  V30 9255 H 871.269 -4.34746 -3.73723 0
M  V30 9256 H 869.666 -5.00952 -3.30405 0
M  V30 9257 H 870.736 -4.40543 -2.02609 0
M  V30 9258 N 872.079 0.78992 -1.36375 0
M  V30 9259 C 873.009 1.91683 -1.33341 0
M  V30 9260 C 873.99 1.68861 -0.204965 0
M  V30 9261 O 875.175 1.89982 -0.402531 0
M  V30 9262 C 872.305 3.28696 -1.12143 0
M  V30 9263 C 871.259 3.66041 -2.21806 0
M  V30 9264 C 870.585 5.01399 -1.85751 0
M  V30 9265 C 871.885 3.74677 -3.63888 0
M  V30 9266 H 873.579 1.94478 -2.27637 0
M  V30 9267 H 871.125 0.934271 -1.09578 0
M  V30 9268 H 873.078 4.07151 -1.08656 0
M  V30 9269 H 871.802 3.26287 -0.142974 0
M  V30 9270 H 870.461 2.89883 -2.24418 0
M  V30 9271 H 870.109 4.9551 -0.864817 0
M  V30 9272 H 869.809 5.27355 -2.59173 0
M  V30 9273 H 871.333 5.82274 -1.83819 0
M  V30 9274 H 872.747 4.43324 -3.63506 0
M  V30 9275 H 871.144 4.12118 -4.3621 0
M  V30 9276 H 872.214 2.75795 -3.9883 0
M  V30 9277 N 873.557 1.20646 1.01402 0
M  V30 9278 C 874.52 0.959314 2.08158 0
M  V30 9279 C 875.52 -0.0661558 1.60664 0
M  V30 9280 O 876.71 0.170177 1.73367 0
M  V30 9281 C 873.842 0.444785 3.37986 0
M  V30 9282 H 875.035 1.90631 2.31517 0
M  V30 9283 H 872.588 1.02219 1.18241 0
M  V30 9284 H 873.323 -0.507553 3.20304 0
M  V30 9285 H 873.108 1.18435 3.73785 0
M  V30 9286 H 874.598 0.291443 4.16582 0
M  V30 9287 N 875.035 -1.20752 1.01276 0
M  V30 9288 C 876.451 -1.42084 0.726934 0
M  V30 9289 C 876.651 -1.89138 -0.694907 0
M  V30 9290 O 875.707 -2.05783 -1.4632 0
M  V30 9291 C 877.02 -2.44575 1.74938 0
M  V30 9292 C 878.568 -2.58347 1.76708 0
M  V30 9293 C 879.043 -3.64078 2.77869 0
M  V30 9294 N 880.534 -3.71558 2.76585 0
M  V30 9295 C 881.269 -4.53016 3.51517 0
M  V30 9296 N 880.765 -5.38309 4.36114 0
M  V30 9297 N 882.558 -4.47512 3.40132 0
M  V30 9298 H 874.709 -0.885228 1.93074 0
M  V30 9299 H 876.972 -0.451075 0.833808 0
M  V30 9300 H 876.678 -2.1699 2.76782 0
M  V30 9301 H 876.552 -3.43503 1.55838 0
M  V30 9302 H 878.939 -2.85265 0.755516 0
M  V30 9303 H 879.02 -1.59628 1.99882 0
M  V30 9304 H 878.664 -3.37905 3.79187 0
M  V30 9305 H 878.594 -4.62412 2.51958 0
M  V30 9306 H 881.085 -3.10629 2.15216 0
M  V30 9307 H 881.398 -5.9754 4.90068 0
M  V30 9308 H 879.743 -5.37824 4.40194 0
M  V30 9309 H 882.934 -3.79912 2.73467 0
M  V30 9310 H 883.107 -5.10759 3.98784 0
M  V30 9311 N 876.513 -0.788492 -1.36457 0
M  V30 9312 C 877.46 -0.18435 -2.30063 0
M  V30 9313 C 878.43 0.67128 -1.51931 0
M  V30 9314 O 879.615 0.620152 -1.8044 0
M  V30 9315 C 876.755 0.675596 -3.38422 0
M  V30 9316 C 875.868 -0.198475 -4.31544 0
M  V30 9317 C 875.003 0.667757 -5.26986 0
M  V30 9318 C 874.042 -0.207825 -6.11747 0
M  V30 9319 N 873.179 0.617335 -6.99381 0
M  V30 9320 H 878.019 -0.988056 -2.81143 0
M  V30 9321 H 875.556 -0.498815 -1.38384 0
M  V30 9322 H 877.514 1.18916 -3.99894 0
M  V30 9323 H 876.144 1.44474 -2.88664 0
M  V30 9324 H 875.196 -0.829995 -3.71235 0
M  V30 9325 H 876.508 -0.873163 -4.91098 0
M  V30 9326 H 875.662 1.24716 -5.93743 0
M  V30 9327 H 874.401 1.37607 -4.67884 0
M  V30 9328 H 873.406 -0.799638 -5.43954 0
M  V30 9329 H 874.631 -0.913729 -6.72925 0
M  V30 9330 H 872.577 1.30996 -6.42788 0
M  V30 9331 H 872.494 0.000307255 -7.56 0
M  V30 9332 H 873.762 1.1806 -7.70508 0
M  V30 9333 N 877.991 1.48044 -0.54043 0
M  V30 9334 C 878.939 2.31461 0.229862 0
M  V30 9335 C 879.933 1.41884 0.925495 0
M  V30 9336 O 881.139 1.58736 0.848689 0
M  V30 9337 H 877.514 0.746227 0.0929975 0
M  V30 9338 H 879.485 2.94297 -0.493118 0
M  V30 9339 C 878.234 3.24172 1.25729 0
M  V30 9340 H 877.557 3.93052 0.731426 0
M  V30 9341 H 878.997 3.85404 1.76747 0
M  V30 9342 C 877.456 2.4651 2.2964 0
M  V30 9343 O 877.986 2.19742 3.36268 0
M  V30 9344 N 876.192 2.07817 2.03127 0
M  V30 9345 H 875.739 2.29786 1.1643 0
M  V30 9346 H 875.697 1.56168 2.72872 0
M  V30 9347 N 879.47 0.276058 1.55163 0
M  V30 9348 C 880.403 -0.652386 2.18676 0
M  V30 9349 C 881.381 -1.15151 1.148 0
M  V30 9350 O 882.565 -1.22431 1.43328 0
M  V30 9351 C 879.692 -1.88982 2.81076 0
M  V30 9352 C 878.738 -1.52609 3.98262 0
M  V30 9353 S 879.571 -0.603445 5.32089 0
M  V30 9354 C 880.727 -1.84923 5.97958 0
M  V30 9355 H 880.96 -0.112733 2.97086 0
M  V30 9356 H 878.493 0.0603118 1.54282 0
M  V30 9357 H 880.451 -2.60007 3.17658 0
M  V30 9358 H 879.112 -2.40061 2.02557 0
M  V30 9359 H 878.305 -2.44689 4.40617 0
M  V30 9360 H 877.907 -0.89601 3.63108 0
M  V30 9361 H 880.199 -2.79303 6.17249 0
M  V30 9362 H 881.142 -1.46868 6.92702 0
M  V30 9363 H 881.55 -2.0146 5.27327 0
M  V30 9364 N 880.948 -1.576 0.00335426 0
M  V30 9365 C 882.194 -1.90996 -0.681799 0
M  V30 9366 C 882.527 -0.877643 -1.73237 0
M  V30 9367 O 881.802 0.103183 -1.94226 0
M  V30 9368 C 882.085 -3.34961 -1.32187 0
M  V30 9369 C 881.938 -4.48911 -0.28261 0
M  V30 9370 C 883.257 -3.78408 -2.24711 0
M  V30 9371 H 880.376 -0.694596 -0.246386 0
M  V30 9372 H 883.018 -1.89919 0.055336 0
M  V30 9373 H 881.168 -3.36008 -1.95014 0
M  V30 9374 H 882.84 -4.59999 0.346241 0
M  V30 9375 H 881.083 -4.32 0.394768 0
M  V30 9376 H 881.754 -5.46609 -0.769576 0
M  V30 9377 H 884.23 -3.78934 -1.71897 0
M  V30 9378 H 883.106 -4.79885 -2.66461 0
M  V30 9379 H 883.367 -3.12464 -3.1276 0
M  V30 9380 N 882.426 0.269451 -1.5528 0
M  V30 9381 C 883.651 1.02299 -1.80415 0
M  V30 9382 C 884.076 1.7902 -0.577363 0
M  V30 9383 O 883.434 1.75018 0.473125 0
M  V30 9384 C 883.482 1.95445 -3.0304 0
M  V30 9385 O 882.586 3.04271 -2.78375 0
M  V30 9386 H 881.927 0.292289 -0.596207 0
M  V30 9387 H 884.457 0.297282 -2.02429 0
M  V30 9388 H 884.467 2.37333 -3.31869 0
M  V30 9389 H 883.142 1.39017 -3.91978 0
M  V30 9390 H 881.719 2.66673 -2.60653 0
M  V30 9391 N 883.904 1.48273 0.534124 0
M  V30 9392 C 885.132 1.59734 1.31501 0
M  V30 9393 C 885.547 0.256047 1.87056 0
M  V30 9394 O 884.904 -0.754086 1.66192 0
M  V30 9395 C 884.955 2.64072 2.46877 0
M  V30 9396 O 884.676 3.92995 1.93613 0
M  V30 9397 C 886.177 2.85933 3.38758 0
M  V30 9398 H 883.397 0.538703 0.40005 0
M  V30 9399 H 885.941 1.9407 0.644762 0
M  V30 9400 H 884.096 2.32606 3.09795 0
M  V30 9401 H 884.51 4.50203 2.69106 0
M  V30 9402 H 885.984 3.62749 4.16073 0
M  V30 9403 H 886.461 1.94603 3.93734 0
M  V30 9404 H 887.067 3.18687 2.81636 0
M  V30 9405 N 885.382 -0.782676 1.36792 0
M  V30 9406 C 886.329 -1.89558 1.31667 0
M  V30 9407 C 887.299 -1.65076 0.184147 0
M  V30 9408 O 888.484 -1.87143 0.371753 0
M  V30 9409 C 885.624 -3.26469 1.11858 0
M  V30 9410 C 884.737 -3.62978 2.34245 0
M  V30 9411 C 883.872 -4.89041 2.07394 0
M  V30 9412 C 882.911 -5.18249 3.25706 0
M  V30 9413 N 882.048 -6.35497 2.98476 0
M  V30 9414 H 886.888 -1.93274 2.26824 0
M  V30 9415 H 884.425 -0.945057 1.12726 0
M  V30 9416 H 886.383 -4.05431 0.983968 0
M  V30 9417 H 885.013 -3.22158 0.203531 0
M  V30 9418 H 884.065 -2.79087 2.58485 0
M  V30 9419 H 885.377 -3.80507 3.22514 0
M  V30 9420 H 884.531 -5.75883 1.90901 0
M  V30 9421 H 883.27 -4.73594 1.16446 0
M  V30 9422 H 882.275 -4.29887 3.4275 0
M  V30 9423 H 883.5 -5.35611 4.1749 0
M  V30 9424 H 881.446 -6.21429 2.10146 0
M  V30 9425 H 881.363 -6.5339 3.80286 0
M  V30 9426 H 882.631 -7.25304 2.85577 0
M  V30 9427 N 886.86 -1.21182 -1.00761 0
M  V30 9428 C 888.109 -1.02166 -1.73911 0
M  V30 9429 C 888.422 0.445638 -1.90456 0
M  V30 9430 O 889.628 0.755132 -2.60787 0
M  V30 9431 C 888.084 -1.77936 -3.12837 0
M  V30 9432 C 887.692 -3.28819 -3.04273 0
M  V30 9433 C 889.436 -1.67319 -3.90134 0
M  V30 9434 C 887.343 -3.97089 -4.38262 0
M  V30 9435 H 886.273 -0.378665 -0.652019 0
M  V30 9436 H 888.924 -1.44891 -1.12601 0
M  V30 9437 H 887.306 -1.28003 -3.74742 0
M  V30 9438 H 888.48 -3.86035 -2.51622 0
M  V30 9439 H 886.795 -3.39949 -2.40465 0
M  V30 9440 H 889.392 -2.15659 -4.8928 0
M  V30 9441 H 889.735 -0.630959 -4.11491 0
M  V30 9442 H 890.268 -2.14716 -3.34876 0
M  V30 9443 H 887.007 -5.01503 -4.22107 0
M  V30 9444 H 886.527 -3.44662 -4.90885 0
M  V30 9445 H 888.206 -4.01854 -5.07072 0
M  V30 9446 N 888.338 1.20213 -1.01915 0
M  V30 9447 C 889.27 2.2251 -0.549725 0
M  V30 9448 C 890.283 1.58558 0.369235 0
M  V30 9449 O 891.472 1.77715 0.167176 0
M  V30 9450 C 888.572 3.38189 0.219432 0
M  V30 9451 C 887.745 4.31729 -0.702066 0
M  V30 9452 C 886.804 5.26196 0.0199624 0
M  V30 9453 O 885.83 5.65993 -0.60339 0
M  V30 9454 N 887.032 5.65895 1.29397 0
M  V30 9455 H 889.797 2.63412 -1.42948 0
M  V30 9456 H 887.358 1.3478 -0.896987 0
M  V30 9457 H 889.35 3.98392 0.711763 0
M  V30 9458 H 887.92 2.96156 1.00051 0
M  V30 9459 H 887.14 3.69455 -1.37466 0
M  V30 9460 H 888.428 4.91145 -1.3287 0
M  V30 9461 H 887.826 5.35579 1.8213 0
M  V30 9462 H 886.383 6.28395 1.73098 0
M  V30 9463 N 889.816 0.795718 1.36037 0
M  V30 9464 C 891.093 0.294743 1.93367 0
M  V30 9465 C 891.473 -1.21406 1.72696 0
M  V30 9466 O 890.821 -2.00849 1.08959 0
M  V30 9467 C 891.031 0.694254 3.42025 0
M  V30 9468 C 892.379 0.677566 4.19159 0
M  V30 9469 O 893.403 0.635119 3.50492 0
M  V30 9470 O 892.262 0.726127 5.41655 0
M  V30 9471 H 889.356 0.0745459 0.823633 0
M  V30 9472 H 891.902 0.878685 1.4518 0
M  V30 9473 H 890.674 1.73458 3.50753 0
M  V30 9474 H 890.297 0.0845338 3.9751 0
M  V30 9475 N 891.294 -1.47756 0.548274 0
M  V30 9476 C 892.522 -2.06884 0.0254873 0
M  V30 9477 C 892.937 -1.40225 -1.26422 0
M  V30 9478 O 892.294 -0.495776 -1.75637 0
M  V30 9479 C 892.345 -3.61036 -0.183134 0
M  V30 9480 O 892.066 -4.25195 1.05549 0
M  V30 9481 C 893.567 -4.37008 -0.744222 0
M  V30 9482 H 890.787 -0.669697 0.041789 0
M  V30 9483 H 893.331 -1.89888 0.759138 0
M  V30 9484 H 891.486 -3.77576 -0.866886 0
M  V30 9485 H 891.9 -5.17606 0.847629 0
M  V30 9486 H 893.374 -5.45579 -0.839529 0
M  V30 9487 H 893.851 -4.0268 -1.75344 0
M  V30 9488 H 894.457 -4.25191 -0.0964542 0
M  V30 9489 N 892.772 -0.284283 -1.55015 0
M  V30 9490 C 893.719 0.599194 -2.22886 0
M  V30 9491 C 894.689 1.14264 -1.20553 0
M  V30 9492 O 895.874 1.19025 -1.49123 0
M  V30 9493 C 893.014 1.77317 -2.96062 0
M  V30 9494 C 892.127 1.26271 -4.13134 0
M  V30 9495 C 891.262 2.39922 -4.73931 0
M  V30 9496 C 890.301 1.85925 -5.8318 0
M  V30 9497 N 889.438 2.93084 -6.38002 0
M  V30 9498 H 894.278 0.0137816 -2.97997 0
M  V30 9499 H 891.815 -0.00496503 -1.47099 0
M  V30 9500 H 893.773 2.46339 -3.36709 0
M  V30 9501 H 892.403 2.33047 -2.23358 0
M  V30 9502 H 891.455 0.465296 -3.77544 0
M  V30 9503 H 892.767 0.827284 -4.91892 0
M  V30 9504 H 891.921 3.1692 -5.17346 0
M  V30 9505 H 890.66 2.86784 -3.9447 0
M  V30 9506 H 889.665 1.07409 -5.39206 0
M  V30 9507 H 890.89 1.39987 -6.64515 0
M  V30 9508 H 888.836 3.3931 -5.61431 0
M  V30 9509 H 888.753 2.53986 -7.12058 0
M  V30 9510 H 890.021 3.7003 -6.86075 0
M  V30 9511 N 894.251 1.57596 -0.0117121 0
M  V30 9512 C 895.499 1.90694 0.669342 0
M  V30 9513 C 895.82 0.886999 1.73659 0
M  V30 9514 O 895.09 -0.0739779 1.9576 0
M  V30 9515 H 893.67 0.703846 0.250219 0
M  V30 9516 H 896.332 1.94821 -0.0554057 0
M  V30 9517 H 895.428 2.90802 1.13316 0
M  V30 9518 N 895.729 -0.261212 1.5542 0
M  V30 9519 C 896.969 -0.998748 1.78338 0
M  V30 9520 C 897.333 -1.83064 0.578914 0
M  V30 9521 O 898.534 -2.59884 0.686575 0
M  V30 9522 C 896.805 -1.84828 3.05898 0
M  V30 9523 S 898.364 -2.64686 3.49981 0
M  V30 9524 H 895.182 -0.33619 0.626496 0
M  V30 9525 H 897.784 -0.26799 1.93655 0
M  V30 9526 H 896.488 -1.22658 3.91642 0
M  V30 9527 H 896.019 -2.62203 2.9328 0
M  V30 9528 H 898.034 -3.87299 3.10184 0
M  V30 9529 N 897.207 -1.48554 -0.526253 0
M  V30 9530 C 898.623 -1.34757 -0.855138 0
M  V30 9531 C 898.823 -0.36142 -1.98232 0
M  V30 9532 O 897.879 0.216026 -2.51574 0
M  V30 9533 C 899.192 -2.74877 -1.21915 0
M  V30 9534 C 900.74 -2.83393 -1.32882 0
M  V30 9535 C 901.215 -4.24223 -1.72624 0
M  V30 9536 N 902.706 -4.26913 -1.7972 0
M  V30 9537 C 903.441 -5.32824 -2.11863 0
M  V30 9538 N 902.937 -6.49008 -2.42405 0
M  V30 9539 N 904.73 -5.20221 -2.12901 0
M  V30 9540 H 896.881 -2.11284 0.217422 0
M  V30 9541 H 899.144 -0.947367 0.0346362 0
M  V30 9542 H 898.85 -3.48619 -0.464486 0
M  V30 9543 H 898.724 -3.0864 -2.16844 0
M  V30 9544 H 901.111 -2.09904 -2.07424 0
M  V30 9545 H 901.192 -2.53245 -0.360638 0
M  V30 9546 H 900.836 -4.98229 -0.986411 0
M  V30 9547 H 900.766 -4.51817 -2.70498 0
M  V30 9548 H 903.257 -3.4311 -1.58379 0
M  V30 9549 H 903.57 -7.25561 -2.66048 0
M  V30 9550 H 901.915 -6.52277 -2.39917 0
M  V30 9551 H 905.106 -4.28469 -1.885 0
M  V30 9552 H 905.279 -6.02861 -2.37619 0
M  V30 9553 N 898.685 0.775411 -1.37205 0
M  V30 9554 C 899.648 1.8702 -1.325 0
M  V30 9555 C 900.648 1.5915 -0.229793 0
M  V30 9556 O 901.838 1.673 -0.485423 0
M  V30 9557 C 898.97 3.24085 -1.05745 0
M  V30 9558 H 900.163 1.92604 -2.29878 0
M  V30 9559 H 897.716 0.97476 -1.22181 0
M  V30 9560 H 898.451 3.24178 -0.0888371 0
M  V30 9561 H 898.236 3.45705 -1.85016 0
M  V30 9562 H 899.726 4.0416 -1.05094 0
M  V30 9563 N 900.163 1.21714 1.00117 0
M  V30 9564 C 901.403 1.04818 1.75478 0
M  V30 9565 C 901.767 -0.410653 1.87557 0
M  V30 9566 O 902.968 -0.700241 2.59519 0
M  V30 9567 C 901.239 1.73055 3.12709 0
M  V30 9568 S 902.798 1.71464 4.03913 0
M  V30 9569 H 899.616 0.375534 0.603734 0
M  V30 9570 H 902.218 1.54522 1.19763 0
M  V30 9571 H 900.922 2.78376 3.01554 0
M  V30 9572 H 900.453 1.23546 3.73497 0
M  V30 9573 H 902.468 0.75845 4.90369 0
M  V30 9574 N 901.641 -1.19671 1.02551 0
M  V30 9575 C 902.881 -1.90971 0.728668 0
M  V30 9576 C 903.245 -1.7762 -0.729057 0
M  V30 9577 O 904.446 -2.43484 -1.13882 0
M  V30 9578 C 902.717 -3.3794 1.16323 0
M  V30 9579 S 904.276 -4.27493 0.989722 0
M  V30 9580 H 901.094 -0.659617 0.265381 0
M  V30 9581 H 903.696 -1.44698 1.31463 0
M  V30 9582 H 902.4 -3.45181 2.21986 0
M  V30 9583 H 901.931 -3.89243 0.570417 0
M  V30 9584 H 903.946 -4.96096 -0.101666 0
M  V30 9585 N 903.119 -0.802921 -1.35613 0
M  V30 9586 C 904.365 -0.382141 -1.99167 0
M  V30 9587 C 904.698 1.04704 -1.63556 0
M  V30 9588 O 903.973 1.72578 -0.89706 0
M  V30 9589 C 904.256 -0.561493 -3.55695 0
M  V30 9590 C 904.109 -2.03534 -4.01116 0
M  V30 9591 C 905.428 0.0151135 -4.40097 0
M  V30 9592 H 902.547 -0.140322 -0.723518 0
M  V30 9593 H 905.189 -1.01177 -1.6082 0
M  V30 9594 H 903.339 -0.0255083 -3.88492 0
M  V30 9595 H 905.011 -2.63343 -3.78746 0
M  V30 9596 H 903.254 -2.5331 -3.52159 0
M  V30 9597 H 903.925 -2.11173 -5.1001 0
M  V30 9598 H 906.401 -0.442582 -4.1374 0
M  V30 9599 H 905.277 -0.140316 -5.48721 0
M  V30 9600 H 905.538 1.10848 -4.27978 0
M  V30 9601 N 904.597 1.47463 -0.556102 0
M  V30 9602 C 905.56 2.28478 0.181743 0
M  V30 9603 C 906.56 1.36886 0.843738 0
M  V30 9604 O 907.75 1.59527 0.69977 0
M  V30 9605 C 904.882 3.16534 1.26566 0
M  V30 9606 H 906.075 2.95182 -0.529892 0
M  V30 9607 H 903.628 1.53134 -0.313005 0
M  V30 9608 H 904.363 2.5452 2.00973 0
M  V30 9609 H 904.148 3.83939 0.795798 0
M  V30 9610 H 905.638 3.77579 1.78393 0
M  V30 9611 N 906.075 0.2925 1.54862 0
M  V30 9612 C 906.985 -0.597036 2.26876 0
M  V30 9613 C 908.001 -1.15558 1.30086 0
M  V30 9614 O 909.177 -1.18217 1.63054 0
M  V30 9615 C 906.242 -1.75664 2.98903 0
M  V30 9616 C 905.303 -1.23303 4.11212 0
M  V30 9617 C 904.536 -2.33736 4.79795 0
M  V30 9618 O 904.759 -3.53459 4.47686 0
M  V30 9619 O 903.693 -2.00908 5.67379 0
M  V30 9620 H 907.519 -0.0131242 3.03697 0
M  V30 9621 H 905.104 0.0592642 1.49282 0
M  V30 9622 H 906.986 -2.43241 3.4411 0
M  V30 9623 H 905.661 -2.32731 2.24984 0
M  V30 9624 H 904.568 -0.523222 3.70423 0
M  V30 9625 H 905.901 -0.707887 4.87083 0
M  V30 9626 N 907.553 -1.57587 0.0200696 0
M  V30 9627 C 908.801 -1.91046 -0.65922 0
M  V30 9628 C 909.122 -0.896197 -1.73186 0
M  V30 9629 O 908.392 0.0635952 -1.95797 0
M  V30 9630 H 906.972 -0.705163 -0.246483 0
M  V30 9631 H 909.634 -1.94789 0.0657368 0
M  V30 9632 H 908.73 -2.91399 -1.11773 0
M  V30 9633 N 909.032 0.252966 -1.55557 0
M  V30 9634 C 909.995 1.29645 -1.8901 0
M  V30 9635 C 910.995 1.41378 -0.766096 0
M  V30 9636 O 912.185 1.40183 -1.03414 0
M  V30 9637 C 909.317 2.67504 -2.11316 0
M  V30 9638 H 910.51 1.01202 -2.82309 0
M  V30 9639 H 908.063 0.491977 -1.48355 0
M  V30 9640 H 908.798 3.01095 -1.20466 0
M  V30 9641 H 908.583 2.6037 -2.93172 0
M  V30 9642 H 910.073 3.42861 -2.38403 0
M  V30 9643 N 910.51 1.48831 0.518367 0
M  V30 9644 C 911.735 1.61379 1.30275 0
M  V30 9645 C 912.16 0.278571 1.86026 0
M  V30 9646 O 911.518 -0.751427 1.64995 0
M  V30 9647 C 911.566 2.67225 2.42122 0
M  V30 9648 O 910.67 2.25192 3.45489 0
M  V30 9649 H 910.011 0.540742 0.385349 0
M  V30 9650 H 912.541 1.949 0.622498 0
M  V30 9651 H 912.551 2.88859 2.8814 0
M  V30 9652 H 911.226 3.64155 2.00907 0
M  V30 9653 H 909.803 2.13819 3.05509 0
M  V30 9654 N 911.988 -0.768124 1.37614 0
M  V30 9655 C 913.213 -1.56239 1.36397 0
M  V30 9656 C 913.638 -1.8804 -0.0475839 0
M  V30 9657 O 912.996 -1.495 -1.02564 0
M  V30 9658 C 913.044 -2.84716 2.21289 0
M  V30 9659 O 912.148 -3.79249 1.62001 0
M  V30 9660 H 911.489 -0.473119 0.465891 0
M  V30 9661 H 914.019 -0.950415 1.81186 0
M  V30 9662 H 914.029 -3.33784 2.34632 0
M  V30 9663 H 912.704 -2.60899 3.2389 0
M  V30 9664 H 911.281 -3.37904 1.57719 0
M  V30 9665 N 913.466 -1.22244 -0.994698 0
M  V30 9666 C 914.714 -1.04384 -1.73056 0
M  V30 9667 C 915.035 0.422204 -1.90374 0
M  V30 9668 O 914.305 1.30383 -1.46209 0
M  V30 9669 H 912.885 -0.383263 -0.641185 0
M  V30 9670 H 915.547 -1.53725 -1.1981 0
M  V30 9671 H 914.643 -1.52021 -2.72573 0
M  V30 9672 N 914.944 1.19125 -1.03184 0
M  V30 9673 C 916.192 1.8851 -0.728587 0
M  V30 9674 C 916.513 1.80195 0.74531 0
M  V30 9675 O 915.783 1.21437 1.5372 0
M  V30 9676 H 914.363 0.69784 -0.266511 0
M  V30 9677 H 917.025 1.44607 -1.3067 0
M  V30 9678 H 916.121 2.9477 -1.02554 0
M  V30 9679 N 916.422 0.810101 1.35185 0
M  V30 9680 C 917.833 0.452616 1.81131 0
M  V30 9681 C 918.184 -1.02573 1.67252 0
M  V30 9682 O 917.309 -1.79735 1.20516 0
M  V30 9683 C 917.904 0.814775 3.28857 0
M  V30 9684 C 916.463 0.509839 3.72931 0
M  V30 9685 C 915.61 1.03852 2.57119 0
M  V30 9686 H 918.561 1.00143 1.23114 0
M  V30 9687 H 918.582 0.113635 3.8033 0
M  V30 9688 H 918.094 1.89078 3.38926 0
M  V30 9689 H 916.195 -0.557289 3.68409 0
M  V30 9690 H 916.308 1.04493 4.67566 0
M  V30 9691 H 914.672 0.460671 2.50499 0
M  V30 9692 H 915.455 2.12071 2.69964 0
M  V30 9693 N 917.9 -1.47166 0.563914 0
M  V30 9694 C 919.147 -2.02456 0.042371 0
M  V30 9695 C 919.475 -1.43753 -1.31016 0
M  V30 9696 O 918.73 -0.585287 -1.86743 0
M  V30 9697 C 919.029 -3.57279 -0.0931797 0
M  V30 9698 C 918.695 -4.34932 1.18933 0
M  V30 9699 C 917.357 -4.55867 1.54073 0
M  V30 9700 C 919.709 -4.79665 2.03889 0
M  V30 9701 C 917.037 -5.18785 2.74005 0
M  V30 9702 C 919.389 -5.43907 3.23029 0
M  V30 9703 C 918.053 -5.63074 3.58475 0
M  V30 9704 H 917.323 -0.740838 0.0155047 0
M  V30 9705 H 919.97 -1.76759 0.736776 0
M  V30 9706 H 918.275 -3.82005 -0.870596 0
M  V30 9707 H 919.972 -3.97716 -0.512176 0
M  V30 9708 H 916.562 -4.18921 0.905718 0
M  V30 9709 H 920.746 -4.63264 1.78046 0
M  V30 9710 H 916.002 -5.31818 3.01628 0
M  V30 9711 H 920.176 -5.77531 3.89141 0
M  V30 9712 H 917.803 -6.11598 4.515 0
M  V30 9713 N 919.378 -0.300708 -1.54705 0
M  V30 9714 C 920.308 0.568675 -2.26469 0
M  V30 9715 C 921.289 1.13817 -1.26411 0
M  V30 9716 O 922.474 1.16756 -1.55183 0
M  V30 9717 C 919.604 1.74077 -3.00524 0
M  V30 9718 C 918.558 1.30165 -4.07727 0
M  V30 9719 C 917.884 2.55888 -4.69495 0
M  V30 9720 C 919.184 0.433106 -5.20501 0
M  V30 9721 H 920.878 -0.0298851 -2.99385 0
M  V30 9722 H 918.424 -0.0158135 -1.43991 0
M  V30 9723 H 920.377 2.35506 -3.49449 0
M  V30 9724 H 919.101 2.36556 -2.25186 0
M  V30 9725 H 917.76 0.710414 -3.59651 0
M  V30 9726 H 917.408 3.16681 -3.90797 0
M  V30 9727 H 917.108 2.27207 -5.41895 0
M  V30 9728 H 918.632 3.18121 -5.21183 0
M  V30 9729 H 920.046 0.95307 -5.65322 0
M  V30 9730 H 918.443 0.240085 -5.9962 0
M  V30 9731 H 919.513 -0.541866 -4.81863 0
M  V30 9732 N 920.856 1.57574 -0.0284266 0
M  V30 9733 C 922.096 1.93637 0.65453 0
M  V30 9734 C 922.46 0.905015 1.69332 0
M  V30 9735 O 923.661 1.15181 2.42872 0
M  V30 9736 C 921.932 3.3462 1.25555 0
M  V30 9737 S 923.491 3.92609 1.95968 0
M  V30 9738 H 920.309 0.67755 0.215516 0
M  V30 9739 H 922.911 1.95284 -0.0919257 0
M  V30 9740 H 921.615 4.07499 0.487069 0
M  V30 9741 H 921.146 3.36415 2.03933 0
M  V30 9742 H 923.161 3.75988 3.23802 0
M  V30 9743 N 922.334 -0.244713 1.55689 0
M  V30 9744 C 923.582 -0.970525 1.77272 0
M  V30 9745 C 923.903 -1.85771 0.592804 0
M  V30 9746 O 923.173 -1.91952 -0.391323 0
M  V30 9747 H 921.753 -0.361342 0.653789 0
M  V30 9748 H 924.415 -0.262134 1.93129 0
M  V30 9749 H 923.511 -1.59096 2.68505 0
M  V30 9750 N 923.813 -1.49104 -0.510467 0
M  V30 9751 C 924.776 -1.64569 -1.59529 0
M  V30 9752 C 925.776 -0.517937 -1.5223 0
M  V30 9753 O 926.966 -0.784183 -1.55551 0
M  V30 9754 C 924.098 -1.6342 -2.99177 0
M  V30 9755 H 925.291 -2.61318 -1.4715 0
M  V30 9756 H 922.844 -1.37993 -0.734001 0
M  V30 9757 H 923.579 -0.68221 -3.17043 0
M  V30 9758 H 923.364 -2.45312 -3.05883 0
M  V30 9759 H 924.854 -1.77474 -3.78011 0
M  V30 9760 N 925.291 0.760815 -1.38019 0
M  V30 9761 C 926.221 1.88811 -1.37377 0
M  V30 9762 C 927.202 1.68388 -0.240737 0
M  V30 9763 O 928.387 1.89086 -0.442739 0
M  V30 9764 C 925.517 3.26244 -1.1909 0
M  V30 9765 C 924.471 3.61254 -2.29521 0
M  V30 9766 C 923.797 4.97346 -1.96345 0
M  V30 9767 C 925.097 3.66874 -3.71753 0
M  V30 9768 H 926.791 1.89606 -2.31711 0
M  V30 9769 H 924.337 0.910818 -1.11535 0
M  V30 9770 H 926.29 4.04755 -1.17267 0
M  V30 9771 H 925.014 3.2591 -0.212152 0
M  V30 9772 H 923.673 2.85057 -2.30517 0
M  V30 9773 H 923.321 4.93564 -0.969728 0
M  V30 9774 H 923.021 5.21739 -2.703 0
M  V30 9775 H 924.545 5.78244 -1.96129 0
M  V30 9776 H 925.959 4.35514 -3.72828 0
M  V30 9777 H 924.356 4.02772 -4.44853 0
M  V30 9778 H 925.426 2.67273 -4.0459 0
M  V30 9779 N 926.769 1.22769 0.988202 0
M  V30 9780 C 927.679 1.01844 2.11341 0
M  V30 9781 C 928.695 -0.0346937 1.73965 0
M  V30 9782 O 929.871 0.159061 2.00771 0
M  V30 9783 C 926.936 0.603837 3.41401 0
M  V30 9784 C 925.997 1.73113 3.92849 0
M  V30 9785 C 925.23 1.33621 5.16702 0
M  V30 9786 O 925.453 0.217041 5.69987 0
M  V30 9787 O 924.387 2.15444 5.62021 0
M  V30 9788 H 928.213 1.96127 2.31879 0
M  V30 9789 H 925.798 1.01405 1.09715 0
M  V30 9790 H 927.68 0.383196 4.19654 0
M  V30 9791 H 926.355 -0.310082 3.22211 0
M  V30 9792 H 925.262 2.00634 3.15748 0
M  V30 9793 H 926.595 2.62308 4.1648 0
M  V30 9794 N 928.247 -1.18576 1.03814 0
M  V30 9795 C 929.475 -1.92437 0.759966 0
M  V30 9796 C 929.89 -1.76031 -0.682526 0
M  V30 9797 O 929.247 -1.08829 -1.46501 0
M  V30 9798 C 929.298 -3.43923 1.11351 0
M  V30 9799 O 929.019 -3.5981 2.49937 0
M  V30 9800 C 930.52 -4.34888 0.859472 0
M  V30 9801 H 927.74 -0.610998 0.277349 0
M  V30 9802 H 930.284 -1.50448 1.38512 0
M  V30 9803 H 928.439 -3.83711 0.533362 0
M  V30 9804 H 928.853 -4.53569 2.63393 0
M  V30 9805 H 930.327 -5.39744 1.15672 0
M  V30 9806 H 930.804 -4.38717 -0.205839 0
M  V30 9807 H 931.41 -4.00795 1.42279 0
M  V30 9808 N 929.725 -0.817259 -1.34754 0
M  V30 9809 C 930.95 -0.414423 -2.03217 0
M  V30 9810 C 931.375 0.970037 -1.61158 0
M  V30 9811 O 930.733 1.63016 -0.793436 0
M  V30 9812 C 930.781 -0.518087 -3.56859 0
M  V30 9813 O 929.885 0.464314 -4.09778 0
M  V30 9814 H 929.226 -0.171454 -0.641482 0
M  V30 9815 H 931.756 -1.10611 -1.72123 0
M  V30 9816 H 931.766 -0.391779 -4.06115 0
M  V30 9817 H 930.441 -1.52786 -3.86819 0
M  V30 9818 H 929.018 0.297361 -3.71712 0
M  V30 9819 N 931.203 1.46865 -0.571711 0
M  V30 9820 C 932.449 2.0273 -0.0531858 0
M  V30 9821 C 932.782 1.44353 1.29907 0
M  V30 9822 O 932.057 0.604488 1.84868 0
M  V30 9823 C 932.34 3.60092 0.0243831 0
M  V30 9824 C 932.193 4.28874 -1.35599 0
M  V30 9825 C 933.512 4.33994 0.730563 0
M  V30 9826 H 930.631 0.736706 -0.0208018 0
M  V30 9827 H 933.273 1.75132 -0.736794 0
M  V30 9828 H 931.423 3.83736 0.606565 0
M  V30 9829 H 933.095 4.16527 -1.98249 0
M  V30 9830 H 931.338 3.88664 -1.92674 0
M  V30 9831 H 932.009 5.37561 -1.25429 0
M  V30 9832 H 934.485 4.1543 0.236098 0
M  V30 9833 H 933.361 5.43699 0.753836 0
M  V30 9834 H 933.622 4.04257 1.78967 0
M  V30 9835 N 932.681 0.308908 1.54543 0
M  V30 9836 C 933.927 -0.298478 2.00592 0
M  V30 9837 C 934.26 -1.52929 1.19692 0
M  V30 9838 O 933.535 -1.9254 0.27542 0
M  V30 9839 C 933.818 -0.647218 3.54236 0
M  V30 9840 C 933.671 0.593284 4.4587 0
M  V30 9841 C 934.99 -1.47064 4.14801 0
M  V30 9842 H 932.109 -0.107012 0.72919 0
M  V30 9843 H 934.751 0.422578 1.85241 0
M  V30 9844 H 932.901 -1.26153 3.67447 0
M  V30 9845 H 934.573 1.2317 4.44552 0
M  V30 9846 H 932.816 1.22501 4.16144 0
M  V30 9847 H 933.487 0.305018 5.51157 0
M  V30 9848 H 935.963 -0.951511 4.05075 0
M  V30 9849 H 934.839 -1.68343 5.22448 0
M  V30 9850 H 935.1 -2.4623 3.67183 0
M  V30 9851 N 934.159 -1.57557 0.0367827 0
M  V30 9852 C 935.089 -2.13712 -0.940719 0
M  V30 9853 C 936.07 -1.05515 -1.33419 0
M  V30 9854 O 937.255 -1.33385 -1.41146 0
M  V30 9855 C 934.385 -2.67043 -2.22048 0
M  V30 9856 C 933.339 -3.80096 -1.96752 0
M  V30 9857 C 932.665 -4.19886 -3.31059 0
M  V30 9858 C 933.965 -5.05848 -1.30058 0
M  V30 9859 H 935.659 -2.9564 -0.473033 0
M  V30 9860 H 933.205 -1.42214 -0.226089 0
M  V30 9861 H 935.158 -3.04964 -2.90818 0
M  V30 9862 H 933.882 -1.82287 -2.70996 0
M  V30 9863 H 932.541 -3.42625 -1.30398 0
M  V30 9864 H 932.189 -3.32101 -3.77781 0
M  V30 9865 H 931.889 -4.96073 -3.14937 0
M  V30 9866 H 933.413 -4.60395 -4.01084 0
M  V30 9867 H 934.827 -5.41306 -1.8884 0
M  V30 9868 H 933.224 -5.87084 -1.24309 0
M  V30 9869 H 934.294 -4.84122 -0.274591 0
M  V30 9870 N 935.637 0.236453 -1.55816 0
M  V30 9871 C 936.567 1.29639 -1.94206 0
M  V30 9872 C 937.548 1.49667 -0.808319 0
M  V30 9873 O 938.733 1.621 -1.06945 0
M  V30 9874 C 935.863 2.64914 -2.24584 0
M  V30 9875 C 934.817 2.59565 -3.40308 0
M  V30 9876 C 934.143 3.98732 -3.56254 0
M  V30 9877 C 935.443 2.15642 -4.75706 0
M  V30 9878 H 937.137 0.977552 -2.82992 0
M  V30 9879 H 934.683 0.468804 -1.36155 0
M  V30 9880 H 936.636 3.39209 -2.50031 0
M  V30 9881 H 935.36 2.98455 -1.32636 0
M  V30 9882 H 934.019 1.87728 -3.14887 0
M  V30 9883 H 933.667 4.29556 -2.61707 0
M  V30 9884 H 933.367 3.96039 -4.34082 0
M  V30 9885 H 934.891 4.74711 -3.84033 0
M  V30 9886 H 936.305 2.79673 -5.00456 0
M  V30 9887 H 934.702 2.24039 -5.56711 0
M  V30 9888 H 935.772 1.10831 -4.72064 0
M  V30 9889 N 937.115 1.49373 0.502552 0
M  V30 9890 C 938.047 1.62045 1.62093 0
M  V30 9891 C 939.06 0.503221 1.54827 0
M  V30 9892 O 940.249 0.775208 1.60788 0
M  V30 9893 C 937.349 1.55971 3.00876 0
M  V30 9894 C 936.522 2.832 3.33341 0
M  V30 9895 C 935.581 2.702 4.51529 0
M  V30 9896 O 934.607 3.44132 4.53389 0
M  V30 9897 N 935.809 1.81642 5.5135 0
M  V30 9898 H 938.574 2.58501 1.51649 0
M  V30 9899 H 936.135 1.46442 0.690396 0
M  V30 9900 H 938.127 1.4493 3.77859 0
M  V30 9901 H 936.697 0.673795 3.05252 0
M  V30 9902 H 935.917 3.08604 2.4527 0
M  V30 9903 H 937.205 3.67551 3.51829 0
M  V30 9904 H 936.603 1.20829 5.52645 0
M  V30 9905 H 935.16 1.76524 6.27441 0
M  V30 9906 N 938.594 -0.753485 1.38421 0
M  V30 9907 C 939.84 -1.51391 1.35839 0
M  V30 9908 C 940.195 -1.92331 -0.0513518 0
M  V30 9909 O 939.488 -1.62568 -1.01401 0
M  V30 9910 C 939.682 -2.77836 2.24816 0
M  V30 9911 C 939.511 -2.49257 3.74301 0
M  V30 9912 C 938.281 -2.42471 4.43324 0
M  V30 9913 C 940.479 -2.16027 4.6673 0
M  V30 9914 N 938.461 -2.06168 5.78246 0
M  V30 9915 C 939.832 -1.90016 5.90164 0
M  V30 9916 C 941.887 -2.02337 4.54933 0
M  V30 9917 C 940.59 -1.51696 7.03122 0
M  V30 9918 C 942.616 -1.65419 5.67794 0
M  V30 9919 C 941.978 -1.40281 6.9029 0
M  V30 9920 H 938.077 -0.553561 0.552354 0
M  V30 9921 H 940.661 -0.877409 1.73809 0
M  V30 9922 H 938.832 -3.39295 1.89034 0
M  V30 9923 H 940.564 -3.43889 2.13359 0
M  V30 9924 H 937.319 -2.58946 3.9654 0
M  V30 9925 H 937.743 -1.90662 6.49598 0
M  V30 9926 H 942.385 -2.20447 3.60781 0
M  V30 9927 H 940.103 -1.32325 7.97192 0
M  V30 9928 H 943.689 -1.55459 5.60646 0
M  V30 9929 H 942.569 -1.12139 7.76141 0
M  V30 9930 N 940.072 -1.23292 -0.981677 0
M  V30 9931 C 941.302 -1.0893 -1.7555 0
M  V30 9932 C 941.71 0.362219 -1.857 0
M  V30 9933 O 941.053 1.2624 -1.33451 0
M  V30 9934 C 941.115 -1.6389 -3.19969 0
M  V30 9935 C 940.779 -3.12632 -3.33332 0
M  V30 9936 C 941.776 -4.0994 -3.19758 0
M  V30 9937 C 939.461 -3.52314 -3.58022 0
M  V30 9938 C 941.455 -5.44915 -3.30676 0
M  V30 9939 C 939.142 -4.87434 -3.6858 0
M  V30 9940 C 940.14 -5.83544 -3.54916 0
M  V30 9941 O 939.828 -7.16209 -3.65102 0
M  V30 9942 H 939.56 -0.381901 -0.557788 0
M  V30 9943 H 942.114 -1.63586 -1.24213 0
M  V30 9944 H 940.344 -1.03653 -3.72549 0
M  V30 9945 H 942.033 -1.45023 -3.79108 0
M  V30 9946 H 942.799 -3.80625 -3.00582 0
M  V30 9947 H 938.678 -2.78022 -3.67729 0
M  V30 9948 H 942.222 -6.19913 -3.19928 0
M  V30 9949 H 938.119 -5.16426 -3.87265 0
M  V30 9950 H 938.887 -7.23941 -3.81905 0
M  V30 9951 N 941.55 1.18024 -1.04442 0
M  V30 9952 C 942.482 2.21294 -0.596799 0
M  V30 9953 C 943.495 1.59305 0.33552 0
M  V30 9954 O 944.684 1.7803 0.129443 0
M  V30 9955 C 941.784 3.38578 0.147648 0
M  V30 9956 C 940.957 4.30143 -0.793484 0
M  V30 9957 C 940.016 5.2612 -0.0916561 0
M  V30 9958 O 939.042 5.64586 -0.72331 0
M  V30 9959 N 940.244 5.68512 1.17364 0
M  V30 9960 H 943.009 2.6032 -1.48504 0
M  V30 9961 H 940.57 1.32847 -0.925374 0
M  V30 9962 H 942.562 3.99812 0.627098 0
M  V30 9963 H 941.132 2.98212 0.937466 0
M  V30 9964 H 940.352 3.66456 -1.45272 0
M  V30 9965 H 941.64 4.88216 -1.43258 0
M  V30 9966 H 941.038 5.39322 1.70729 0
M  V30 9967 H 939.595 6.31925 1.5973 0
M  V30 9968 N 943.028 0.824394 1.34319 0
M  V30 9969 C 944.439 0.471802 1.8064 0
M  V30 9970 C 944.79 -1.00793 1.6833 0
M  V30 9971 O 943.915 -1.78447 1.22416 0
M  V30 9972 C 944.51 0.849609 3.27974 0
M  V30 9973 C 943.069 0.549365 3.72369 0
M  V30 9974 C 942.216 1.06573 2.56003 0
M  V30 9975 H 945.167 1.01443 1.22045 0
M  V30 9976 H 945.188 0.153968 3.80188 0
M  V30 9977 H 944.7 1.92663 3.36902 0
M  V30 9978 H 942.801 -0.518182 3.68979 0
M  V30 9979 H 942.914 1.09446 4.66432 0
M  V30 9980 H 941.278 0.487214 2.49997 0
M  V30 9981 H 942.061 2.14923 2.677 0
M  V30 9982 N 944.506 -1.46559 0.579492 0
M  V30 9983 C 945.439 -2.27287 -0.203894 0
M  V30 9984 C 946.417 -1.3543 -0.899865 0
M  V30 9985 O 947.601 -1.64836 -0.914398 0
M  V30 9986 C 944.728 -3.13077 -1.2923 0
M  V30 9987 C 943.774 -4.20675 -0.702505 0
M  V30 9988 S 944.607 -5.3345 0.468136 0
M  V30 9989 C 945.763 -6.22806 -0.621544 0
M  V30 9990 H 945.996 -2.93382 0.481083 0
M  V30 9991 H 943.529 -1.49992 0.366311 0
M  V30 9992 H 945.487 -3.63069 -1.91548 0
M  V30 9993 H 944.148 -2.46302 -1.94921 0
M  V30 9994 H 943.341 -4.80516 -1.52053 0
M  V30 9995 H 942.943 -3.73678 -0.155046 0
M  V30 9996 H 945.235 -6.60503 -1.50803 0
M  V30 9997 H 946.178 -7.08075 -0.059961 0
M  V30 9998 H 946.586 -5.56882 -0.924242 0
M  V30 9999 N 945.984 -0.3171 -1.54377 0
M  V30 10000 C 946.932 0.567371 -2.25574 0
M  V30 10001 C 947.926 1.12387 -1.2675 0
M  V30 10002 O 949.132 1.07266 -1.44548 0
M  V30 10003 H 945.507 0.201605 -0.724472 0
M  V30 10004 H 947.478 -0.0554644 -2.98348 0
M  V30 10005 C 946.227 1.71984 -3.02187 0
M  V30 10006 H 945.55 1.30086 -3.78044 0
M  V30 10007 H 946.99 2.31443 -3.5526 0
M  V30 10008 C 945.449 2.6336 -2.10103 0
M  V30 10009 O 945.979 3.64899 -1.67962 0
M  V30 10010 N 944.185 2.3145 -1.75725 0
M  V30 10011 H 943.732 1.48921 -2.10191 0
M  V30 10012 H 943.69 2.92852 -1.14391 0
M  V30 10013 N 947.462 1.57535 -0.0451378 0
M  V30 10014 C 948.409 2.11176 0.931313 0
M  V30 10015 C 949.379 1.01765 1.31275 0
M  V30 10016 O 950.564 1.29279 1.40327 0
M  V30 10017 C 947.704 2.65639 2.20295 0
M  V30 10018 C 946.817 3.89114 1.87654 0
M  V30 10019 C 945.952 4.31914 3.09232 0
M  V30 10020 C 944.991 5.48105 2.72484 0
M  V30 10021 N 944.128 5.85986 3.86736 0
M  V30 10022 H 948.968 2.94318 0.466986 0
M  V30 10023 H 946.505 1.45462 0.218886 0
M  V30 10024 H 948.463 2.95312 2.94697 0
M  V30 10025 H 947.093 1.85303 2.64316 0
M  V30 10026 H 946.145 3.6607 1.03427 0
M  V30 10027 H 947.457 4.7358 1.56601 0
M  V30 10028 H 946.611 4.63108 3.91939 0
M  V30 10029 H 945.35 3.46247 3.43459 0
M  V30 10030 H 944.355 5.16589 1.88192 0
M  V30 10031 H 945.58 6.35482 2.39455 0
M  V30 10032 H 943.526 5.03273 4.20775 0
M  V30 10033 H 943.443 6.65129 3.5936 0
M  V30 10034 H 944.711 6.21793 4.701 0
M  V30 10035 N 948.94 -0.228186 1.55939 0
M  V30 10036 C 950.187 -0.953552 1.78644 0
M  V30 10037 C 950.515 -1.84596 0.61275 0
M  V30 10038 O 949.77 -1.91502 -0.403175 0
M  V30 10039 C 950.069 -1.82924 3.0704 0
M  V30 10040 C 949.735 -1.09062 4.37511 0
M  V30 10041 C 948.397 -0.886565 4.72962 0
M  V30 10042 C 950.749 -0.568533 5.1809 0
M  V30 10043 C 948.077 -0.148413 5.86512 0
M  V30 10044 C 950.429 0.156243 6.32407 0
M  V30 10045 C 949.093 0.371612 6.66465 0
M  V30 10046 H 948.363 -0.348929 0.653704 0
M  V30 10047 H 951.01 -0.222211 1.90206 0
M  V30 10048 H 949.315 -2.62823 2.90571 0
M  V30 10049 H 951.012 -2.3925 3.21808 0
M  V30 10050 H 947.602 -1.25963 4.09672 0
M  V30 10051 H 951.786 -0.713673 4.91142 0
M  V30 10052 H 947.042 0.0287418 6.11393 0
M  V30 10053 H 951.216 0.568333 6.94077 0
M  V30 10054 H 948.843 0.945522 7.54297 0
M  V30 10055 N 950.418 -1.49637 -0.494624 0
M  V30 10056 C 951.348 -1.69692 -1.60396 0
M  V30 10057 C 952.329 -0.545648 -1.61111 0
M  V30 10058 O 953.514 -0.782202 -1.77751 0
M  V30 10059 C 950.644 -1.76934 -2.9885 0
M  V30 10060 C 949.598 -2.91915 -3.13001 0
M  V30 10061 C 948.924 -2.84276 -4.5287 0
M  V30 10062 C 950.224 -4.32764 -2.92426 0
M  V30 10063 H 951.918 -2.6257 -1.43866 0
M  V30 10064 H 949.464 -1.26355 -0.690679 0
M  V30 10065 H 951.417 -1.8955 -3.76362 0
M  V30 10066 H 950.141 -0.806609 -3.16483 0
M  V30 10067 H 948.8 -2.78911 -2.37916 0
M  V30 10068 H 948.448 -1.85897 -4.67388 0
M  V30 10069 H 948.148 -3.61452 -4.63278 0
M  V30 10070 H 949.672 -2.98909 -5.32434 0
M  V30 10071 H 951.086 -4.46415 -3.59703 0
M  V30 10072 H 949.483 -5.1121 -3.143 0
M  V30 10073 H 950.553 -4.46765 -1.88491 0
M  V30 10074 N 951.896 0.746133 -1.38819 0
M  V30 10075 C 952.826 1.87344 -1.39372 0
M  V30 10076 C 953.807 1.68123 -0.258583 0
M  V30 10077 O 954.992 1.88606 -0.462769 0
M  V30 10078 C 952.122 3.24962 -1.22543 0
M  V30 10079 C 951.076 3.58799 -2.33339 0
M  V30 10080 C 950.402 4.95235 -2.01609 0
M  V30 10081 C 951.702 3.62911 -3.75624 0
M  V30 10082 H 953.396 1.87138 -2.33709 0
M  V30 10083 H 950.942 0.898937 -1.12495 0
M  V30 10084 H 952.895 4.03488 -1.21554 0
M  V30 10085 H 951.619 3.25667 -0.246707 0
M  V30 10086 H 950.278 2.82596 -2.33527 0
M  V30 10087 H 949.926 4.92508 -1.02202 0
M  V30 10088 H 949.626 5.18843 -2.75819 0
M  V30 10089 H 951.15 5.76131 -2.02251 0
M  V30 10090 H 952.564 4.31535 -3.77426 0
M  V30 10091 H 950.961 3.98031 -4.491 0
M  V30 10092 H 952.031 2.62967 -4.07402 0
M  V30 10093 N 953.375 1.23811 0.975125 0
M  V30 10094 C 954.621 1.07495 1.71967 0
M  V30 10095 C 954.954 -0.386451 1.90316 0
M  V30 10096 O 954.229 -1.28591 1.45927 0
M  V30 10097 C 954.512 1.80694 3.11483 0
M  V30 10098 C 954.365 3.3454 3.00671 0
M  V30 10099 C 955.684 1.57367 4.11003 0
M  V30 10100 H 952.803 0.3919 0.624166 0
M  V30 10101 H 955.445 1.52383 1.13487 0
M  V30 10102 H 953.595 1.42538 3.61407 0
M  V30 10103 H 955.267 3.8225 2.5823 0
M  V30 10104 H 953.51 3.63301 2.37054 0
M  V30 10105 H 954.181 3.80951 3.99475 0
M  V30 10106 H 956.657 1.90545 3.69908 0
M  V30 10107 H 955.533 2.11052 5.06703 0
M  V30 10108 H 955.794 0.510221 4.39146 0
M  V30 10109 N 954.853 -1.17469 1.05066 0
M  V30 10110 C 956.269 -1.39699 0.771769 0
M  V30 10111 C 956.469 -1.91253 -0.634382 0
M  V30 10112 O 955.525 -2.10334 -1.39699 0
M  V30 10113 C 956.838 -2.38886 1.82631 0
M  V30 10114 C 958.386 -2.52595 1.84838 0
M  V30 10115 C 958.861 -3.55054 2.89311 0
M  V30 10116 N 960.352 -3.6257 2.88266 0
M  V30 10117 C 961.087 -4.41603 3.65752 0
M  V30 10118 N 960.583 -5.24162 4.53019 0
M  V30 10119 N 962.376 -4.36464 3.54197 0
M  V30 10120 H 954.527 -0.823355 1.95792 0
M  V30 10121 H 956.79 -0.42432 0.847736 0
M  V30 10122 H 956.496 -2.08075 2.83545 0
M  V30 10123 H 956.37 -3.38371 1.66687 0
M  V30 10124 H 958.757 -2.82717 0.845888 0
M  V30 10125 H 958.838 -1.53188 2.04859 0
M  V30 10126 H 958.482 -3.2567 3.89745 0
M  V30 10127 H 958.412 -4.54162 2.66542 0
M  V30 10128 H 960.903 -3.03625 2.24989 0
M  V30 10129 H 961.216 -5.81646 5.0883 0
M  V30 10130 H 959.561 -5.23547 4.57081 0
M  V30 10131 H 962.752 -3.7102 2.85416 0
M  V30 10132 H 962.925 -4.97814 4.14832 0
M  V30 10133 N 956.331 -0.831506 -1.3388 0
M  V30 10134 C 957.263 -0.216908 -2.28171 0
M  V30 10135 C 958.276 0.598141 -1.51414 0
M  V30 10136 O 959.465 0.426416 -1.73332 0
M  V30 10137 C 956.565 0.713831 -3.31297 0
M  V30 10138 C 955.738 -0.0602673 -4.37358 0
M  V30 10139 C 954.797 0.792696 -5.20195 0
M  V30 10140 O 953.823 0.234564 -5.68716 0
M  V30 10141 N 955.025 2.11119 -5.40748 0
M  V30 10142 H 957.79 -1.02704 -2.81553 0
M  V30 10143 H 955.351 -0.689272 -1.46495 0
M  V30 10144 H 957.343 1.28925 -3.83615 0
M  V30 10145 H 955.913 1.42469 -2.78247 0
M  V30 10146 H 955.133 -0.817041 -3.8564 0
M  V30 10147 H 956.421 -0.592822 -5.05335 0
M  V30 10148 H 955.819 2.58828 -5.03016 0
M  V30 10149 H 954.376 2.63527 -5.96151 0
M  V30 10150 N 957.809 1.4625 -0.587256 0
M  V30 10151 C 959.055 2.02662 -0.0746851 0
M  V30 10152 C 959.388 1.45723 1.28368 0
M  V30 10153 O 958.663 0.624062 1.84216 0
M  V30 10154 C 958.946 3.60097 -0.0138109 0
M  V30 10155 C 958.799 4.27412 -1.4014 0
M  V30 10156 C 960.118 4.34744 0.684491 0
M  V30 10157 H 957.237 0.736444 -0.0286144 0
M  V30 10158 H 959.879 1.74341 -0.755328 0
M  V30 10159 H 958.029 3.84357 0.56583 0
M  V30 10160 H 959.701 4.14401 -2.02656 0
M  V30 10161 H 957.944 3.86598 -1.96785 0
M  V30 10162 H 958.615 5.362 -1.31124 0
M  V30 10163 H 961.091 4.15657 0.192023 0
M  V30 10164 H 959.967 5.44468 0.696127 0
M  V30 10165 H 960.228 4.06132 1.74669 0
M  V30 10166 N 959.287 0.325282 1.54207 0
M  V30 10167 C 960.217 -0.532574 2.27345 0
M  V30 10168 C 961.198 -1.11791 1.28206 0
M  V30 10169 O 962.383 -1.14272 1.57021 0
M  V30 10170 C 959.513 -1.69274 3.03255 0
M  V30 10171 C 958.467 -1.23662 4.09746 0
M  V30 10172 C 957.793 -2.48386 4.73506 0
M  V30 10173 C 959.093 -0.350244 5.21124 0
M  V30 10174 H 960.787 0.0775108 2.993 0
M  V30 10175 H 958.333 0.0387193 1.43948 0
M  V30 10176 H 960.286 -2.29917 3.53152 0
M  V30 10177 H 959.01 -2.32944 2.28921 0
M  V30 10178 H 957.669 -0.653106 3.60735 0
M  V30 10179 H 957.317 -3.10424 3.95786 0
M  V30 10180 H 957.017 -2.18558 5.45441 0
M  V30 10181 H 958.541 -3.09789 5.26178 0
M  V30 10182 H 959.955 -0.863011 5.66767 0
M  V30 10183 H 958.352 -0.14466 5.99926 0
M  V30 10184 H 959.422 0.618457 4.8094 0
M  V30 10185 N 960.765 -1.57509 0.0534917 0
M  V30 10186 C 962.012 -1.92782 -0.619772 0
M  V30 10187 C 962.34 -0.932046 -1.70714 0
M  V30 10188 O 961.595 0.0552891 -1.95622 0
M  V30 10189 C 961.894 -3.34734 -1.25251 0
M  V30 10190 C 961.56 -4.49946 -0.293113 0
M  V30 10191 C 960.222 -4.81191 -0.0291223 0
M  V30 10192 C 962.574 -5.19925 0.364271 0
M  V30 10193 C 959.902 -5.79761 0.899649 0
M  V30 10194 C 962.254 -6.19489 1.28125 0
M  V30 10195 C 960.918 -6.49161 1.55389 0
M  V30 10196 H 960.188 -0.705441 -0.226791 0
M  V30 10197 H 962.835 -1.91121 0.120466 0
M  V30 10198 H 961.14 -3.32774 -2.06807 0
M  V30 10199 H 962.837 -3.59308 -1.78042 0
M  V30 10200 H 959.427 -4.25566 -0.509053 0
M  V30 10201 H 963.611 -4.95997 0.173411 0
M  V30 10202 H 958.867 -6.01085 1.11833 0
M  V30 10203 H 963.041 -6.72824 1.79669 0
M  V30 10204 H 960.668 -7.25354 2.2752 0
M  V30 10205 N 962.243 0.219913 -1.56058 0
M  V30 10206 C 963.654 0.786766 -1.69313 0
M  V30 10207 C 964.005 1.84916 -0.655782 0
M  V30 10208 O 963.13 2.1554 0.192772 0
M  V30 10209 C 963.725 1.43387 -3.06962 0
M  V30 10210 C 962.284 1.94809 -3.22066 0
M  V30 10211 C 961.431 0.808863 -2.65241 0
M  V30 10212 H 964.382 -0.00476777 -1.58699 0
M  V30 10213 H 964.403 2.30272 -3.02911 0
M  V30 10214 H 963.915 0.660405 -3.8244 0
M  V30 10215 H 962.016 2.74952 -2.5146 0
M  V30 10216 H 962.129 2.12694 -4.293 0
M  V30 10217 H 960.493 1.21661 -2.23765 0
M  V30 10218 H 961.276 0.0480458 -3.43266 0
M  V30 10219 N 963.721 1.49897 0.486681 0
M  V30 10220 C 964.651 1.7054 1.59494 0
M  V30 10221 C 965.632 0.554184 1.60819 0
M  V30 10222 O 966.817 0.791617 1.77333 0
M  V30 10223 C 963.947 1.78517 2.97908 0
M  V30 10224 C 962.901 2.93571 3.11449 0
M  V30 10225 C 962.227 2.86674 4.51356 0
M  V30 10226 C 963.527 4.34308 2.90127 0
M  V30 10227 H 965.221 2.63329 1.42472 0
M  V30 10228 H 962.767 1.2672 0.683969 0
M  V30 10229 H 964.72 1.91544 3.75352 0
M  V30 10230 H 963.444 0.823381 3.16051 0
M  V30 10231 H 962.103 2.80169 2.36433 0
M  V30 10232 H 961.751 1.88373 4.66395 0
M  V30 10233 H 961.451 3.63903 4.61355 0
M  V30 10234 H 962.975 3.01728 5.30841 0
M  V30 10235 H 964.389 4.48317 3.57331 0
M  V30 10236 H 962.786 5.12869 3.11585 0
M  V30 10237 H 963.856 4.47759 1.86119 0
M  V30 10238 N 965.199 -0.738761 1.39212 0
M  V30 10239 C 966.61 -1.31684 1.32348 0
M  V30 10240 C 966.961 -1.96195 -0.0139041 0
M  V30 10241 O 966.086 -1.96056 -0.916025 0
M  V30 10242 C 966.681 -2.39444 2.39691 0
M  V30 10243 C 965.24 -2.92935 2.36359 0
M  V30 10244 C 964.387 -1.66465 2.21776 0
M  V30 10245 H 967.338 -0.536543 1.49355 0
M  V30 10246 H 967.359 -3.19744 2.06262 0
M  V30 10247 H 966.871 -1.92463 3.37016 0
M  V30 10248 H 964.972 -3.44207 1.42662 0
M  V30 10249 H 965.085 -3.46306 3.31073 0
M  V30 10250 H 963.449 -1.90657 1.68884 0
M  V30 10251 H 964.232 -1.21541 3.21065 0
M  V30 10252 N 966.677 -1.24326 -0.968545 0
M  V30 10253 C 967.905 -1.10947 -1.74638 0
M  V30 10254 C 968.32 0.338064 -1.85749 0
M  V30 10255 O 967.677 1.23331 -1.3452 0
M  V30 10256 C 967.728 -1.74254 -3.1673 0
M  V30 10257 O 967.449 -3.13347 -3.06178 0
M  V30 10258 C 968.95 -1.66473 -4.10855 0
M  V30 10259 H 966.17 -0.38767 -0.547679 0
M  V30 10260 H 968.714 -1.64415 -1.21605 0
M  V30 10261 H 966.869 -1.2479 -3.66751 0
M  V30 10262 H 967.283 -3.44255 -3.95713 0
M  V30 10263 H 968.757 -2.15452 -5.08217 0
M  V30 10264 H 969.234 -0.625785 -4.34719 0
M  V30 10265 H 969.84 -2.15359 -3.66743 0
M  V30 10266 N 968.156 1.1691 -1.05688 0
M  V30 10267 C 969.567 1.68915 -0.795273 0
M  V30 10268 C 969.918 1.83968 0.681925 0
M  V30 10269 O 969.043 1.53083 1.52953 0
M  V30 10270 C 969.638 3.06814 -1.43703 0
M  V30 10271 C 968.197 3.55965 -1.22335 0
M  V30 10272 C 967.344 2.32099 -1.51741 0
M  V30 10273 H 970.295 1.01357 -1.22116 0
M  V30 10274 H 970.316 3.70907 -0.849016 0
M  V30 10275 H 969.828 2.95826 -2.51214 0
M  V30 10276 H 967.929 3.72222 -0.16771 0
M  V30 10277 H 968.042 4.38427 -1.9318 0
M  V30 10278 H 966.406 2.36811 -0.937696 0
M  V30 10279 H 967.189 2.23715 -2.60397 0
M  V30 10280 N 969.634 0.838594 1.33437 0
M  V30 10281 C 970.564 0.286672 2.31734 0
M  V30 10282 C 971.545 -0.605451 1.5896 0
M  V30 10283 O 972.73 -0.529059 1.86854 0
M  V30 10284 C 969.86 -0.539311 3.43087 0
M  V30 10285 C 968.814 0.256997 4.27228 0
M  V30 10286 C 968.14 -0.692718 5.30194 0
M  V30 10287 C 969.44 1.47391 5.01072 0
M  V30 10288 H 971.134 1.10798 2.78144 0
M  V30 10289 H 968.68 0.534235 1.33723 0
M  V30 10290 H 970.633 -0.935724 4.1088 0
M  V30 10291 H 969.357 -1.39383 2.95364 0
M  V30 10292 H 968.016 0.634967 3.61059 0
M  V30 10293 H 967.664 -1.54363 4.78729 0
M  V30 10294 H 967.364 -0.164023 5.87371 0
M  V30 10295 H 968.888 -1.08665 6.00853 0
M  V30 10296 H 970.302 1.15067 5.61634 0
M  V30 10297 H 968.699 1.93937 5.67898 0
M  V30 10298 H 969.769 2.24382 4.29861 0
M  V30 10299 N 971.112 -1.45937 0.595003 0
M  V30 10300 C 972.337 -2.07207 0.0894416 0
M  V30 10301 C 972.762 -1.43884 -1.21157 0
M  V30 10302 O 972.12 -0.526998 -1.73472 0
M  V30 10303 C 972.168 -3.60565 -0.0499828 0
M  V30 10304 O 971.272 -3.97364 -1.10342 0
M  V30 10305 H 970.613 -0.660471 0.0683627 0
M  V30 10306 H 973.143 -1.87386 0.82144 0
M  V30 10307 H 973.153 -4.0722 -0.252234 0
M  V30 10308 H 971.828 -4.06044 0.90006 0
M  V30 10309 H 970.405 -3.62401 -0.878645 0
M  V30 10310 N 972.59 -0.333456 -1.54032 0
M  V30 10311 C 973.836 0.266527 -2.01041 0
M  V30 10312 C 974.169 1.51006 -1.2211 0
M  V30 10313 O 973.444 1.92078 -0.306016 0
M  V30 10314 C 973.727 0.59078 -3.55221 0
M  V30 10315 C 973.58 -0.664143 -4.4487 0
M  V30 10316 C 974.899 1.40447 -4.17088 0
M  V30 10317 H 972.018 0.0953979 -0.7308 0
M  V30 10318 H 974.66 -0.451995 -1.84545 0
M  V30 10319 H 972.81 1.20292 -3.69408 0
M  V30 10320 H 974.482 -1.30227 -4.42537 0
M  V30 10321 H 972.725 -1.29106 -4.14143 0
M  V30 10322 H 973.396 -0.392664 -5.50602 0
M  V30 10323 H 975.872 0.886946 -4.06537 0
M  V30 10324 H 974.748 1.6001 -5.2506 0
M  V30 10325 H 975.009 2.40357 -3.71054 0
M  V30 10326 N 974.068 1.57479 -0.061844 0
M  V30 10327 C 975.315 1.93108 0.60954 0
M  V30 10328 C 975.643 0.941086 1.70217 0
M  V30 10329 O 974.898 -0.044914 1.95648 0
M  V30 10330 C 975.197 3.35394 1.23474 0
M  V30 10331 C 974.863 4.50095 0.269247 0
M  V30 10332 C 973.525 4.812 0.00360316 0
M  V30 10333 C 975.877 5.19725 -0.391839 0
M  V30 10334 C 973.205 5.79276 -0.930383 0
M  V30 10335 C 975.557 6.18801 -1.31408 0
M  V30 10336 C 974.221 6.48328 -1.58829 0
M  V30 10337 H 973.491 0.706634 0.223046 0
M  V30 10338 H 976.138 1.91054 -0.1306 0
M  V30 10339 H 974.443 3.33866 2.05039 0
M  V30 10340 H 976.14 3.60247 1.76134 0
M  V30 10341 H 972.73 4.2583 0.486477 0
M  V30 10342 H 976.914 4.95898 -0.199713 0
M  V30 10343 H 972.17 6.00484 -1.15019 0
M  V30 10344 H 976.344 6.71862 -1.83234 0
M  V30 10345 H 973.971 7.24137 -2.31363 0
M  V30 10346 N 975.546 -0.211634 1.56173 0
M  V30 10347 C 976.509 -1.24588 1.92381 0
M  V30 10348 C 977.509 -1.39297 0.803311 0
M  V30 10349 O 978.699 -1.37392 1.07094 0
M  V30 10350 C 975.831 -2.61807 2.18335 0
M  V30 10351 H 977.024 -0.936814 2.84893 0
M  V30 10352 H 974.577 -0.452471 1.49607 0
M  V30 10353 H 975.312 -2.97795 1.28407 0
M  V30 10354 H 975.097 -2.52506 2.99972 0
M  V30 10355 H 976.587 -3.3642 2.4741 0
M  V30 10356 N 977.024 -1.50153 -0.478725 0
M  V30 10357 C 977.954 -1.71384 -1.58587 0
M  V30 10358 C 978.935 -0.562705 -1.60523 0
M  V30 10359 O 980.12 -0.80101 -1.76911 0
M  V30 10360 C 977.25 -1.80094 -2.96957 0
M  V30 10361 C 976.204 -2.95218 -3.09888 0
M  V30 10362 C 975.53 -2.89063 -4.49829 0
M  V30 10363 C 976.83 -4.35841 -2.8782 0
M  V30 10364 H 978.524 -2.64081 -1.41073 0
M  V30 10365 H 976.07 -1.27081 -0.677239 0
M  V30 10366 H 978.023 -1.93531 -3.74331 0
M  V30 10367 H 976.747 -0.840131 -3.1561 0
M  V30 10368 H 975.406 -2.81419 -2.34944 0
M  V30 10369 H 975.054 -1.90844 -4.6539 0
M  V30 10370 H 974.754 -3.66345 -4.59418 0
M  V30 10371 H 976.278 -3.04539 -5.29234 0
M  V30 10372 H 977.692 -4.50205 -3.54948 0
M  V30 10373 H 976.089 -5.14515 -3.0886 0
M  V30 10374 H 977.159 -4.48739 -1.83742 0
M  V30 10375 N 978.502 0.731368 -1.39602 0
M  V30 10376 C 979.432 1.85855 -1.41351 0
M  V30 10377 C 980.413 1.67839 -0.2764 0
M  V30 10378 O 981.598 1.88104 -0.482747 0
M  V30 10379 C 978.728 3.23644 -1.25983 0
M  V30 10380 C 977.682 3.56304 -2.37132 0
M  V30 10381 C 977.008 4.93069 -2.0685 0
M  V30 10382 C 978.308 3.58906 -3.79452 0
M  V30 10383 H 980.002 1.84648 -2.3568 0
M  V30 10384 H 977.548 0.886955 -1.13442 0
M  V30 10385 H 979.501 4.02176 -1.25826 0
M  V30 10386 H 978.225 3.25387 -0.281234 0
M  V30 10387 H 976.884 2.80104 -2.36511 0
M  V30 10388 H 976.532 4.91396 -1.0742 0
M  V30 10389 H 976.232 5.15888 -2.81306 0
M  V30 10390 H 977.756 5.73953 -2.0835 0
M  V30 10391 H 979.17 4.27508 -3.81982 0
M  V30 10392 H 977.567 3.93246 -4.53297 0
M  V30 10393 H 978.637 2.58631 -4.10168 0
M  V30 10394 N 979.98 1.24838 0.961938 0
M  V30 10395 C 981.208 1.11871 1.74047 0
M  V30 10396 C 981.623 -0.328209 1.85925 0
M  V30 10397 O 980.98 -1.22616 1.35173 0
M  V30 10398 C 981.031 1.75931 3.15801 0
M  V30 10399 O 980.752 3.14967 3.04512 0
M  V30 10400 C 982.253 1.68649 4.09966 0
M  V30 10401 H 979.473 0.390569 0.545616 0
M  V30 10402 H 982.017 1.65058 1.20732 0
M  V30 10403 H 980.172 1.26733 3.66084 0
M  V30 10404 H 980.586 3.46349 3.93882 0
M  V30 10405 H 982.06 2.18144 5.07067 0
M  V30 10406 H 982.537 0.648831 4.34381 0
M  V30 10407 H 983.143 2.17301 3.65596 0
M  V30 10408 N 981.458 -1.16348 1.06306 0
M  V30 10409 C 982.706 -1.86512 0.778311 0
M  V30 10410 C 983.027 -1.82107 -0.697273 0
M  V30 10411 O 982.297 -1.2547 -1.50446 0
M  V30 10412 H 980.877 -0.690529 0.284919 0
M  V30 10413 H 983.539 -1.41092 1.34458 0
M  V30 10414 H 982.635 -2.91947 1.10333 0
M  V30 10415 N 982.937 -0.845659 -1.3299 0
M  V30 10416 C 984.348 -0.50048 -1.79867 0
M  V30 10417 C 984.699 0.981027 -1.69913 0
M  V30 10418 O 983.824 1.76477 -1.25239 0
M  V30 10419 C 984.419 -0.901679 -3.26581 0
M  V30 10420 C 982.978 -0.608536 -3.71448 0
M  V30 10421 C 982.125 -1.10632 -2.54275 0
M  V30 10422 H 985.076 -1.03372 -1.20416 0
M  V30 10423 H 985.097 -0.214433 -3.79895 0
M  V30 10424 H 984.609 -1.97998 -3.33794 0
M  V30 10425 H 982.71 0.459416 -3.69757 0
M  V30 10426 H 982.823 -1.16853 -4.64631 0
M  V30 10427 H 981.187 -0.526925 -2.4919 0
M  V30 10428 H 981.97 -2.19154 -2.64247 0
M  V30 10429 N 984.415 1.45619 -0.602734 0
M  V30 10430 C 985.663 2.01873 -0.095844 0
M  V30 10431 C 985.984 1.47427 1.27633 0
M  V30 10432 O 985.254 0.666652 1.84208 0
M  V30 10433 H 983.834 0.746295 -0.0324408 0
M  V30 10434 H 986.496 1.78478 -0.783037 0
M  V30 10435 H 985.592 3.12072 -0.0419507 0
M  V30 10436 N 985.893 0.34162 1.53853 0
M  V30 10437 C 987.118 -0.259608 2.05769 0
M  V30 10438 C 987.543 -1.43588 1.21507 0
M  V30 10439 O 986.901 -1.79856 0.228364 0
M  V30 10440 C 986.949 -0.654455 3.54611 0
M  V30 10441 O 986.053 -1.75472 3.73207 0
M  V30 10442 H 985.394 -0.0434621 0.662576 0
M  V30 10443 H 987.924 0.495274 1.98515 0
M  V30 10444 H 987.934 -0.932142 3.97209 0
M  V30 10445 H 986.609 0.205779 4.15391 0
M  V30 10446 H 985.186 -1.47444 3.42512 0
M  V30 10447 N 987.371 -1.57444 0.0701946 0
M  V30 10448 C 988.281 -2.16132 -0.912377 0
M  V30 10449 C 989.297 -1.12406 -1.32819 0
M  V30 10450 O 990.473 -1.44665 -1.40121 0
M  V30 10451 C 987.538 -2.71008 -2.16231 0
M  V30 10452 C 986.599 -3.896 -1.80306 0
M  V30 10453 C 985.832 -4.4185 -2.9934 0
M  V30 10454 O 986.055 -3.93106 -4.13309 0
M  V30 10455 O 984.989 -5.33201 -2.7925 0
M  V30 10456 H 988.815 -3.00449 -0.443167 0
M  V30 10457 H 986.4 -1.48617 -0.152786 0
M  V30 10458 H 988.282 -3.06186 -2.8953 0
M  V30 10459 H 986.957 -1.8975 -2.62253 0
M  V30 10460 H 985.864 -3.59277 -1.04264 0
M  V30 10461 H 987.197 -4.72145 -1.39068 0
M  V30 10462 N 988.849 0.203349 -1.56283 0
M  V30 10463 C 989.779 1.2549 -1.96912 0
M  V30 10464 C 990.76 1.47919 -0.839884 0
M  V30 10465 O 991.945 1.59795 -1.10359 0
M  V30 10466 C 989.075 2.6009 -2.30153 0
M  V30 10467 C 988.029 2.52289 -3.45738 0
M  V30 10468 C 987.355 3.91086 -3.64632 0
M  V30 10469 C 988.655 2.05503 -4.80173 0
M  V30 10470 H 990.349 0.917306 -2.85002 0
M  V30 10471 H 987.895 0.439818 -1.37119 0
M  V30 10472 H 989.848 3.33829 -2.5717 0
M  V30 10473 H 988.572 2.95574 -1.38937 0
M  V30 10474 H 987.231 1.81006 -3.18798 0
M  V30 10475 H 986.879 4.23908 -2.7076 0
M  V30 10476 H 986.579 3.86742 -4.42385 0
M  V30 10477 H 988.103 4.66459 -3.94016 0
M  V30 10478 H 989.517 2.68995 -5.06275 0
M  V30 10479 H 987.914 2.1218 -5.61337 0
M  V30 10480 H 988.984 1.00793 -4.74309 0
M  V30 10481 N 990.327 1.50405 0.470755 0
M  V30 10482 C 991.738 1.54266 1.05162 0
M  V30 10483 C 992.089 0.346359 1.93119 0
M  V30 10484 O 991.214 -0.540699 2.09536 0
M  V30 10485 C 991.809 2.7956 1.91394 0
M  V30 10486 C 990.368 2.86101 2.44588 0
M  V30 10487 C 989.515 2.48557 1.22941 0
M  V30 10488 H 992.466 1.56665 0.253359 0
M  V30 10489 H 992.487 2.61434 2.76464 0
M  V30 10490 H 991.999 3.66611 1.27351 0
M  V30 10491 H 990.1 2.03403 3.12183 0
M  V30 10492 H 990.213 3.88999 2.79672 0
M  V30 10493 H 988.577 2.01003 1.56429 0
M  V30 10494 H 989.36 3.37916 0.605598 0
M  V30 10495 N 991.805 -0.723954 1.39988 0
M  V30 10496 C 992.768 -1.81973 1.3935 0
M  V30 10497 C 993.768 -1.58187 0.288702 0
M  V30 10498 O 994.958 -1.65383 0.547181 0
M  V30 10499 C 992.09 -3.19937 1.177 0
M  V30 10500 H 993.283 -1.83939 2.36868 0
M  V30 10501 H 990.836 -0.928742 1.25714 0
M  V30 10502 H 991.571 -3.23625 0.209093 0
M  V30 10503 H 991.356 -3.386 1.97719 0
M  V30 10504 H 992.846 -3.99981 1.20022 0
M  V30 10505 N 993.283 -1.25346 -0.955304 0
M  V30 10506 C 994.529 -1.10218 -1.70235 0
M  V30 10507 C 994.862 0.356124 -1.90907 0
M  V30 10508 O 994.137 1.26253 -1.47954 0
M  V30 10509 C 994.42 -1.85627 -3.08569 0
M  V30 10510 C 994.273 -3.39281 -2.95311 0
M  V30 10511 C 995.592 -1.63886 -4.08448 0
M  V30 10512 H 992.711 -0.401781 -0.617852 0
M  V30 10513 H 995.353 -1.5417 -1.11048 0
M  V30 10514 H 993.503 -1.48269 -3.59094 0
M  V30 10515 H 995.175 -3.8631 -2.52116 0
M  V30 10516 H 993.418 -3.67027 -2.31244 0
M  V30 10517 H 994.089 -3.87258 -3.93364 0
M  V30 10518 H 996.565 -1.96406 -3.6683 0
M  V30 10519 H 995.441 -2.19087 -5.03281 0
M  V30 10520 H 995.702 -0.580021 -4.38279 0
M  V30 10521 N 994.761 1.15782 -1.06922 0
M  V30 10522 C 996.001 1.88135 -0.799043 0
M  V30 10523 C 996.365 1.80203 0.662632 0
M  V30 10524 O 997.566 2.47543 1.04767 0
M  V30 10525 C 995.837 3.3339 -1.28786 0
M  V30 10526 S 997.396 4.23525 -1.1477 0
M  V30 10527 H 994.214 0.649313 -0.289679 0
M  V30 10528 H 996.816 1.3972 -1.36743 0
M  V30 10529 H 995.52 3.36705 -2.34645 0
M  V30 10530 H 995.051 3.86857 -0.714489 0
M  V30 10531 H 997.066 4.96131 -0.0825264 0
M  V30 10532 N 996.239 0.8527 1.3254 0
M  V30 10533 C 997.488 0.45136 1.96585 0
M  V30 10534 C 997.801 -0.997773 1.68237 0
M  V30 10535 O 999.007 -1.50445 2.26006 0
M  V30 10536 C 997.463 0.75619 3.51866 0
M  V30 10537 C 997.071 2.22092 3.89075 0
M  V30 10538 C 998.815 0.422478 4.22392 0
M  V30 10539 C 996.722 2.46908 5.37392 0
M  V30 10540 H 995.652 0.165052 0.735713 0
M  V30 10541 H 998.303 1.04321 1.50962 0
M  V30 10542 H 996.685 0.0937988 3.95889 0
M  V30 10543 H 997.859 2.92494 3.56067 0
M  V30 10544 H 996.174 2.51896 3.31568 0
M  V30 10545 H 998.771 0.58533 5.31487 0
M  V30 10546 H 999.114 -0.635737 4.11417 0
M  V30 10547 H 999.647 1.04068 3.83946 0
M  V30 10548 H 996.386 3.51346 5.53386 0
M  V30 10549 H 995.906 1.81082 5.71812 0
M  V30 10550 H 997.585 2.30758 6.0445 0
M  V30 10551 N 997.718 -1.45297 0.610449 0
M  V30 10552 C 998.966 -2.01819 0.106548 0
M  V30 10553 C 999.287 -1.48102 -1.26849 0
M  V30 10554 O 998.557 -0.676411 -1.83852 0
M  V30 10555 H 997.137 -0.746113 0.0363982 0
M  V30 10556 H 999.799 -1.78061 0.792491 0
M  V30 10557 H 998.895 -3.12045 0.0585 0
M  V30 10558 N 999.196 -0.349774 -1.5367 0
M  V30 10559 C 1000.44 0.245189 -2.01312 0
M  V30 10560 C 1000.77 1.49702 -1.23705 0
M  V30 10561 O 1000.05 1.91742 -0.326371 0
M  V30 10562 C 1000.33 0.553071 -3.55827 0
M  V30 10563 C 1000.19 -0.71129 -4.4414 0
M  V30 10564 C 1001.5 1.36015 -4.18555 0
M  V30 10565 H 998.624 0.0876415 -0.73177 0
M  V30 10566 H 1001.27 -0.471543 -1.84056 0
M  V30 10567 H 999.416 1.16367 -3.70663 0
M  V30 10568 H 1001.09 -1.34913 -4.41131 0
M  V30 10569 H 999.331 -1.33491 -4.1275 0
M  V30 10570 H 1000 -0.45104 -5.50154 0
M  V30 10571 H 1002.48 0.843778 -4.07455 0
M  V30 10572 H 1001.35 1.54432 -5.26728 0
M  V30 10573 H 1001.61 2.36408 -3.73582 0
M  V30 10574 N 1000.67 1.57404 -0.0785433 0
M  V30 10575 C 1001.9 1.98492 0.601292 0
M  V30 10576 C 1002.32 0.956832 1.61945 0
M  V30 10577 O 1001.68 -0.0767502 1.81137 0
M  V30 10578 C 1001.73 3.38596 1.24036 0
M  V30 10579 O 1000.83 3.38461 2.35622 0
M  V30 10580 H 1000.17 0.645882 0.154054 0
M  V30 10581 H 1002.7 2.04012 -0.155056 0
M  V30 10582 H 1002.71 3.75929 1.5856 0
M  V30 10583 H 1001.39 4.12952 0.494341 0
M  V30 10584 H 999.967 3.12906 2.02841 0
M  V30 10585 N 1002.15 -0.195058 1.56388 0
M  V30 10586 C 1003.56 -0.75973 1.70543 0
M  V30 10587 C 1003.91 -1.83849 0.685118 0
M  V30 10588 O 1003.04 -2.15819 -0.158457 0
M  V30 10589 C 1003.63 -1.38485 3.09204 0
M  V30 10590 C 1002.19 -1.89661 3.25124 0
M  V30 10591 C 1001.34 -0.766563 2.66494 0
M  V30 10592 H 1004.29 0.0300148 1.58672 0
M  V30 10593 H 1004.31 -2.25424 3.06536 0
M  V30 10594 H 1003.82 -0.599479 3.83442 0
M  V30 10595 H 1001.92 -2.70917 2.55802 0
M  V30 10596 H 1002.04 -2.05837 4.32629 0
M  V30 10597 H 1000.4 -1.18086 2.25672 0
M  V30 10598 H 1001.18 0.00657102 3.43299 0
M  V30 10599 N 1003.63 -1.50653 -0.462772 0
M  V30 10600 C 1004.88 -1.61737 -1.21184 0
M  V30 10601 C 1005.2 -0.32369 -1.92295 0
M  V30 10602 O 1004.47 0.659269 -1.84473 0
M  V30 10603 H 1003.05 -0.596015 -0.450306 0
M  V30 10604 H 1005.71 -1.87469 -0.533051 0
M  V30 10605 H 1004.81 -2.43262 -1.95525 0
M  V30 10606 N 1005.11 0.71652 -1.4037 0
M  V30 10607 C 1006.52 1.02447 -1.22379 0
M  V30 10608 C 1006.72 2.0126 -0.0983394 0
M  V30 10609 O 1005.78 2.46569 0.544071 0
M  V30 10610 C 1007.09 1.56909 -2.56515 0
M  V30 10611 C 1008.64 1.68898 -2.6352 0
M  V30 10612 C 1009.12 2.26765 -3.97922 0
M  V30 10613 N 1010.61 2.34152 -3.99658 0
M  V30 10614 C 1011.34 2.79907 -5.00439 0
M  V30 10615 N 1010.84 3.25422 -6.11615 0
M  V30 10616 N 1012.63 2.79283 -4.87809 0
M  V30 10617 H 1004.78 0.0615306 -2.12311 0
M  V30 10618 H 1007.05 0.0898994 -0.943728 0
M  V30 10619 H 1006.75 0.917649 -3.39517 0
M  V30 10620 H 1006.63 2.55446 -2.77538 0
M  V30 10621 H 1009.01 2.33159 -1.8089 0
M  V30 10622 H 1009.09 0.689626 -2.46329 0
M  V30 10623 H 1008.74 1.63126 -4.80991 0
M  V30 10624 H 1008.67 3.27413 -4.12442 0
M  V30 10625 H 1011.16 2.02006 -3.19378 0
M  V30 10626 H 1011.47 3.58899 -6.84406 0
M  V30 10627 H 1009.82 3.23383 -6.15181 0
M  V30 10628 H 1013.01 2.43061 -4.00049 0
M  V30 10629 H 1013.18 3.14626 -5.66493 0
M  V30 10630 N 1006.59 1.25851 0.948643 0
M  V30 10631 C 1008 1.09975 1.50872 0
M  V30 10632 C 1008.35 -0.322497 1.93531 0
M  V30 10633 O 1007.47 -1.21316 1.79197 0
M  V30 10634 C 1008.07 1.99021 2.74182 0
M  V30 10635 C 1006.63 1.87313 3.26483 0
M  V30 10636 C 1005.77 1.92815 1.99293 0
M  V30 10637 H 1008.73 1.3905 0.764908 0
M  V30 10638 H 1008.75 1.53372 3.4822 0
M  V30 10639 H 1008.26 3.02527 2.43103 0
M  V30 10640 H 1006.36 0.867136 3.62369 0
M  V30 10641 H 1006.47 2.72446 3.94094 0
M  V30 10642 H 1004.84 1.36774 2.1486 0
M  V30 10643 H 1005.62 2.97936 1.70554 0
M  V30 10644 N 1008.06 -1.15214 1.07534 0
M  V30 10645 C 1009.31 -1.85676 0.79805 0
M  V30 10646 C 1009.63 -1.82837 -0.677919 0
M  V30 10647 O 1008.9 -1.27059 -1.49107 0
M  V30 10648 H 1007.48 -0.687468 0.292227 0
M  V30 10649 H 1010.15 -1.39658 1.35947 0
M  V30 10650 H 1009.24 -2.9076 1.13423 0
M  V30 10651 N 1009.54 -0.859717 -1.32086 0
M  V30 10652 C 1010.49 -0.306042 -2.28762 0
M  V30 10653 C 1011.46 0.589801 -1.55276 0
M  V30 10654 O 1012.64 0.523633 -1.83474 0
M  V30 10655 C 1009.78 0.495256 -3.41528 0
M  V30 10656 C 1008.9 -0.426947 -4.29885 0
M  V30 10657 C 1008.03 0.387474 -5.29785 0
M  V30 10658 C 1007.07 -0.531807 -6.09785 0
M  V30 10659 N 1006.21 0.245741 -7.0167 0
M  V30 10660 H 1011.05 -1.1357 -2.7551 0
M  V30 10661 H 1008.59 -0.571468 -1.35546 0
M  V30 10662 H 1010.54 0.97551 -4.05635 0
M  V30 10663 H 1009.17 1.28969 -2.95917 0
M  V30 10664 H 1008.23 -1.02561 -3.66313 0
M  V30 10665 H 1009.54 -1.13226 -4.85779 0
M  V30 10666 H 1008.69 0.930677 -5.99519 0
M  V30 10667 H 1007.43 1.12612 -4.74521 0
M  V30 10668 H 1006.44 -1.08685 -5.3895 0
M  V30 10669 H 1007.66 -1.26915 -6.67135 0
M  V30 10670 H 1005.61 0.967391 -6.48828 0
M  V30 10671 H 1005.52 -0.400432 -7.54939 0
M  V30 10672 H 1006.79 0.770507 -7.75683 0
M  V30 10673 N 1011.02 1.44971 -0.618145 0
M  V30 10674 C 1012.25 2.07039 -0.122395 0
M  V30 10675 C 1012.67 1.45793 1.18853 0
M  V30 10676 O 1012.03 0.55453 1.72611 0
M  V30 10677 C 1012.08 3.60599 -0.0073864 0
M  V30 10678 O 1011.18 3.99069 1.04007 0
M  V30 10679 H 1010.52 0.6593 -0.0788615 0
M  V30 10680 H 1013.05 1.86055 -0.851147 0
M  V30 10681 H 1013.06 4.07569 0.187417 0
M  V30 10682 H 1011.74 4.04561 -0.964544 0
M  V30 10683 H 1010.31 3.63753 0.820879 0
M  V30 10684 N 1012.5 0.357919 1.53482 0
M  V30 10685 C 1013.74 -0.23451 2.0144 0
M  V30 10686 C 1014.08 -1.49044 1.24497 0
M  V30 10687 O 1013.35 -1.91566 0.336535 0
M  V30 10688 C 1013.64 -0.534193 3.56116 0
M  V30 10689 C 1013.49 0.734834 4.43757 0
M  V30 10690 C 1014.81 -1.33793 4.1927 0
M  V30 10691 H 1011.93 -0.0837595 0.732225 0
M  V30 10692 H 1014.57 0.481297 1.83803 0
M  V30 10693 H 1012.72 -1.144 3.71275 0
M  V30 10694 H 1014.39 1.37251 4.40409 0
M  V30 10695 H 1012.63 1.35678 4.12036 0
M  V30 10696 H 1013.3 0.48021 5.49907 0
M  V30 10697 H 1015.78 -0.822158 4.07897 0
M  V30 10698 H 1014.66 -1.51636 5.27539 0
M  V30 10699 H 1014.92 -2.34423 3.74831 0
M  V30 10700 N 1013.98 -1.5736 0.0868897 0
M  V30 10701 C 1014.91 -2.16596 -0.872252 0
M  V30 10702 C 1015.89 -1.09706 -1.29995 0
M  V30 10703 O 1017.07 -1.37808 -1.36831 0
M  V30 10704 C 1014.2 -2.73972 -2.1344 0
M  V30 10705 C 1013.16 -3.86163 -1.8456 0
M  V30 10706 C 1012.48 -4.30206 -3.17533 0
M  V30 10707 C 1013.78 -5.0973 -1.13899 0
M  V30 10708 H 1015.48 -2.96995 -0.378738 0
M  V30 10709 H 1013.02 -1.42861 -0.18073 0
M  V30 10710 H 1014.98 -3.14062 -2.80968 0
M  V30 10711 H 1013.7 -1.90817 -2.6506 0
M  V30 10712 H 1012.36 -3.466 -1.19432 0
M  V30 10713 H 1012.01 -3.43951 -3.67024 0
M  V30 10714 H 1011.71 -5.05841 -2.98996 0
M  V30 10715 H 1013.23 -4.72922 -3.86234 0
M  V30 10716 H 1014.64 -5.4704 -1.71523 0
M  V30 10717 H 1013.04 -5.90741 -1.05569 0
M  V30 10718 H 1014.11 -4.8475 -0.120432 0
M  V30 10719 N 1015.45 0.186762 -1.56489 0
M  V30 10720 C 1016.7 0.905852 -1.81109 0
M  V30 10721 C 1017.03 1.82906 -0.661477 0
M  V30 10722 O 1016.28 1.92504 0.35226 0
M  V30 10723 C 1016.58 1.74719 -3.11782 0
M  V30 10724 C 1016.25 0.974238 -4.40249 0
M  V30 10725 C 1014.91 0.760856 -4.75147 0
M  V30 10726 C 1017.26 0.430971 -5.19415 0
M  V30 10727 C 1014.59 -0.00714216 -5.867 0
M  V30 10728 C 1016.94 -0.323859 -6.3177 0
M  V30 10729 C 1015.61 -0.548183 -6.65245 0
M  V30 10730 H 1014.88 0.331475 -0.662726 0
M  V30 10731 H 1017.52 0.171703 -1.90729 0
M  V30 10732 H 1015.83 2.55027 -2.97437 0
M  V30 10733 H 1017.53 2.30634 -3.28038 0
M  V30 10734 H 1014.12 1.15057 -4.12868 0
M  V30 10735 H 1018.3 0.583205 -4.92861 0
M  V30 10736 H 1013.56 -0.190832 -6.11102 0
M  V30 10737 H 1017.73 -0.752155 -6.92326 0
M  V30 10738 H 1015.36 -1.14518 -7.51525 0
M  V30 10739 N 1016.93 1.50896 0.454776 0
M  V30 10740 C 1017.88 1.67333 1.54867 0
M  V30 10741 C 1018.87 0.527576 1.52005 0
M  V30 10742 O 1020.06 0.782726 1.58753 0
M  V30 10743 C 1017.19 1.7858 2.93196 0
M  V30 10744 C 1016.27 2.98884 3.0088 0
M  V30 10745 N 1016.66 4.22326 2.78343 0
M  V30 10746 C 1014.96 2.97779 3.32029 0
M  V30 10747 C 1015.66 5.03439 2.91418 0
M  V30 10748 N 1014.64 4.37725 3.22332 0
M  V30 10749 H 1018.44 2.60453 1.36167 0
M  V30 10750 H 1015.96 1.48304 0.661797 0
M  V30 10751 H 1017.95 1.88463 3.7187 0
M  V30 10752 H 1016.61 0.866296 3.1293 0
M  V30 10753 H 1017.62 4.51557 2.53607 0
M  V30 10754 H 1014.3 2.15393 3.57648 0
M  V30 10755 H 1015.69 6.11648 2.78095 0
M  V30 10756 N 1018.41 -0.709066 1.40748 0
M  V30 10757 C 1019.64 -1.49808 1.42707 0
M  V30 10758 C 1020.05 -1.88778 0.0285574 0
M  V30 10759 O 1019.41 -1.55883 -0.949035 0
M  V30 10760 C 1019.46 -2.76926 2.32366 0
M  V30 10761 O 1019.18 -2.39602 3.66773 0
M  V30 10762 C 1020.68 -3.70773 2.42986 0
M  V30 10763 H 1017.9 -0.462106 0.486517 0
M  V30 10764 H 1020.45 -0.874135 1.84876 0
M  V30 10765 H 1018.6 -3.3559 1.93541 0
M  V30 10766 H 1019.02 -3.21443 4.14457 0
M  V30 10767 H 1020.49 -4.56789 3.09916 0
M  V30 10768 H 1020.97 -4.14332 1.45691 0
M  V30 10769 H 1021.57 -3.18019 2.8239 0
M  V30 10770 N 1019.89 -1.26353 -0.941956 0
M  V30 10771 C 1021.14 -1.12017 -1.69056 0
M  V30 10772 C 1021.47 0.335856 -1.91274 0
M  V30 10773 O 1020.74 1.24677 -1.49285 0
M  V30 10774 C 1021.03 -1.88889 -3.06583 0
M  V30 10775 C 1020.88 -3.42394 -2.91696 0
M  V30 10776 C 1022.2 -1.68209 -4.06686 0
M  V30 10777 H 1019.32 -0.408311 -0.613556 0
M  V30 10778 H 1021.96 -1.55339 -1.09407 0
M  V30 10779 H 1020.11 -1.5207 -3.57501 0
M  V30 10780 H 1021.78 -3.88962 -2.48005 0
M  V30 10781 H 1020.02 -3.69459 -2.27338 0
M  V30 10782 H 1020.7 -3.91408 -3.89235 0
M  V30 10783 H 1023.17 -2.00286 -3.64726 0
M  V30 10784 H 1022.05 -2.24412 -5.00929 0
M  V30 10785 H 1022.31 -0.626474 -4.37639 0
M  V30 10786 N 1021.37 1.14642 -1.08144 0
M  V30 10787 C 1022.78 1.37604 -0.808537 0
M  V30 10788 C 1022.98 1.92868 0.583452 0
M  V30 10789 O 1022.04 2.13964 1.34073 0
M  V30 10790 C 1023.35 2.3396 -1.889 0
M  V30 10791 C 1024.9 2.47605 -1.9147 0
M  V30 10792 C 1025.38 3.47258 -2.98623 0
M  V30 10793 N 1026.87 3.548 -2.97777 0
M  V30 10794 C 1027.6 4.31751 -3.77331 0
M  V30 10795 N 1027.1 5.11966 -4.66757 0
M  V30 10796 N 1028.89 4.2692 -3.65645 0
M  V30 10797 H 1021.04 0.771154 -1.97906 0
M  V30 10798 H 1023.3 0.401694 -0.858688 0
M  V30 10799 H 1023.01 2.00484 -2.88962 0
M  V30 10800 H 1022.88 3.33833 -1.756 0
M  V30 10801 H 1025.27 2.80375 -0.920548 0
M  V30 10802 H 1025.35 1.47702 -2.08848 0
M  V30 10803 H 1025 3.15223 -3.98243 0
M  V30 10804 H 1024.93 4.46935 -2.7849 0
M  V30 10805 H 1027.42 2.97553 -2.3296 0
M  V30 10806 H 1027.73 5.67951 -5.24072 0
M  V30 10807 H 1026.08 5.11245 -4.70801 0
M  V30 10808 H 1029.27 3.63322 -2.95152 0
M  V30 10809 H 1029.44 4.8664 -4.27885 0
M  V30 10810 N 1022.85 0.866709 1.31628 0
M  V30 10811 C 1024.09 0.476026 1.96825 0
M  V30 10812 C 1024.42 -0.970994 1.68529 0
M  V30 10813 O 1023.68 -1.69823 0.97255 0
M  V30 10814 C 1023.97 0.676018 3.50948 0
M  V30 10815 C 1023.64 2.09533 3.99258 0
M  V30 10816 C 1022.3 2.48349 4.1216 0
M  V30 10817 C 1024.65 3.02112 4.24709 0
M  V30 10818 C 1021.98 3.78991 4.47864 0
M  V30 10819 C 1024.33 4.32266 4.61875 0
M  V30 10820 C 1023 4.71 4.72985 0
M  V30 10821 H 1022.27 0.17419 0.720235 0
M  V30 10822 H 1024.92 1.09907 1.5682 0
M  V30 10823 H 1023.22 -0.0301867 3.91788 0
M  V30 10824 H 1024.92 0.353604 3.99438 0
M  V30 10825 H 1021.51 1.78396 3.89709 0
M  V30 10826 H 1025.69 2.73351 4.14238 0
M  V30 10827 H 1020.95 4.08769 4.54663 0
M  V30 10828 H 1025.12 5.04055 4.80522 0
M  V30 10829 H 1022.75 5.72273 5.00407 0
M  V30 10830 N 1024.32 -1.44642 0.625825 0
M  V30 10831 C 1025.57 -2.01695 0.127948 0
M  V30 10832 C 1025.89 -1.49439 -1.25271 0
M  V30 10833 O 1025.16 -0.695873 -1.83124 0
M  V30 10834 H 1023.74 -0.745685 0.0443096 0
M  V30 10835 H 1026.4 -1.7721 0.811332 0
M  V30 10836 H 1025.5 -3.11966 0.0915933 0
M  V30 10837 N 1025.8 -0.366053 -1.5329 0
M  V30 10838 C 1026.76 0.467904 -2.24373 0
M  V30 10839 C 1027.76 1.00934 -1.25176 0
M  V30 10840 O 1028.95 0.895015 -1.49449 0
M  V30 10841 C 1026.09 1.65405 -2.98084 0
M  V30 10842 H 1027.28 -0.154105 -2.99504 0
M  V30 10843 H 1024.83 -0.117751 -1.55856 0
M  V30 10844 H 1025.57 2.31413 -2.27197 0
M  V30 10845 H 1025.35 1.27277 -3.70868 0
M  V30 10846 H 1026.84 2.24503 -3.52119 0
M  V30 10847 N 1027.28 1.57312 -0.0952337 0
M  V30 10848 C 1028.21 2.17056 0.860753 0
M  V30 10849 C 1029.19 1.10394 1.29411 0
M  V30 10850 O 1030.38 1.38532 1.36098 0
M  V30 10851 C 1027.51 2.751 2.11984 0
M  V30 10852 C 1026.46 3.87136 1.8251 0
M  V30 10853 C 1025.79 4.31883 3.15247 0
M  V30 10854 C 1027.09 5.10326 1.11194 0
M  V30 10855 H 1028.78 2.97192 0.362983 0
M  V30 10856 H 1026.33 1.42955 0.173151 0
M  V30 10857 H 1028.28 3.15547 2.79299 0
M  V30 10858 H 1027 1.92219 2.64044 0
M  V30 10859 H 1025.66 3.47229 1.17592 0
M  V30 10860 H 1025.31 3.45893 3.65195 0
M  V30 10861 H 1025.01 5.0742 2.96309 0
M  V30 10862 H 1026.53 4.74964 3.83721 0
M  V30 10863 H 1027.95 5.47942 1.6862 0
M  V30 10864 H 1026.34 5.91293 1.02435 0
M  V30 10865 H 1027.41 4.84807 0.0947227 0
M  V30 10866 N 1028.76 -0.17846 1.56586 0
M  V30 10867 C 1029.98 -0.916061 1.86073 0
M  V30 10868 C 1030.41 -1.75349 0.680754 0
M  V30 10869 O 1029.77 -1.77479 -0.37028 0
M  V30 10870 C 1029.81 -1.77445 3.1392 0
M  V30 10871 O 1028.92 -2.87524 2.95641 0
M  V30 10872 H 1028.26 -0.257031 0.612234 0
M  V30 10873 H 1030.79 -0.178755 2.03818 0
M  V30 10874 H 1030.8 -2.1758 3.45142 0
M  V30 10875 H 1029.47 -1.15927 3.99417 0
M  V30 10876 H 1028.05 -2.51023 2.75757 0
M  V30 10877 N 1030.24 -1.51135 -0.446768 0
M  V30 10878 C 1031.48 -1.64989 -1.20656 0
M  V30 10879 C 1031.84 -0.353882 -1.88711 0
M  V30 10880 O 1033.04 -0.368099 -2.66268 0
M  V30 10881 C 1031.31 -2.81371 -2.20375 0
M  V30 10882 S 1032.87 -3.15501 -3.04967 0
M  V30 10883 H 1029.69 -0.581372 -0.409301 0
M  V30 10884 H 1032.29 -1.89008 -0.499613 0
M  V30 10885 H 1030.99 -3.73988 -1.69001 0
M  V30 10886 H 1030.53 -2.59512 -2.95664 0
M  V30 10887 H 1032.54 -2.61205 -4.21884 0
M  V30 10888 N 1031.71 0.701592 -1.41122 0
M  V30 10889 C 1032.96 1.46245 -1.41364 0
M  V30 10890 C 1033.31 1.9239 -0.0200662 0
M  V30 10891 O 1032.61 1.6622 0.952971 0
M  V30 10892 C 1032.8 2.693 -2.34973 0
M  V30 10893 C 1032.63 2.35193 -3.83294 0
M  V30 10894 C 1031.4 2.2585 -4.52018 0
M  V30 10895 C 1033.6 1.98555 -4.74426 0
M  V30 10896 N 1031.58 1.84565 -5.85499 0
M  V30 10897 C 1032.95 1.67981 -5.9681 0
M  V30 10898 C 1035.01 1.85313 -4.62129 0
M  V30 10899 C 1033.71 1.25496 -7.08268 0
M  V30 10900 C 1035.74 1.44232 -5.73543 0
M  V30 10901 C 1035.1 1.14564 -6.95021 0
M  V30 10902 H 1031.2 0.532679 -0.572518 0
M  V30 10903 H 1033.78 0.812296 -1.76946 0
M  V30 10904 H 1031.95 3.32045 -2.01496 0
M  V30 10905 H 1033.68 3.35734 -2.25976 0
M  V30 10906 H 1030.44 2.4405 -4.05878 0
M  V30 10907 H 1030.86 1.66421 -6.56226 0
M  V30 10908 H 1035.5 2.06905 -3.68714 0
M  V30 10909 H 1033.22 1.02647 -8.01554 0
M  V30 10910 H 1036.81 1.34544 -5.66029 0
M  V30 10911 H 1035.69 0.832556 -7.79768 0
M  V30 10912 N 1033.19 1.2685 0.935242 0
M  V30 10913 C 1034.12 1.1143 2.05196 0
M  V30 10914 C 1035.1 0.0178362 1.70091 0
M  V30 10915 O 1036.29 0.190951 1.93259 0
M  V30 10916 C 1033.42 0.752779 3.39044 0
M  V30 10917 C 1032.37 1.80164 3.88233 0
M  V30 10918 C 1031.7 1.29428 5.18799 0
M  V30 10919 C 1033 3.20431 4.12457 0
M  V30 10920 H 1034.69 2.04845 2.18355 0
M  V30 10921 H 1032.24 0.986276 1.04922 0
M  V30 10922 H 1034.19 0.631757 4.16637 0
M  V30 10923 H 1032.91 -0.217075 3.25878 0
M  V30 10924 H 1031.57 1.91144 3.12825 0
M  V30 10925 H 1031.22 0.3141 5.02018 0
M  V30 10926 H 1030.92 1.99546 5.5268 0
M  V30 10927 H 1032.45 1.18605 5.9897 0
M  V30 10928 H 1033.86 3.12495 4.80645 0
M  V30 10929 H 1032.26 3.88193 4.57631 0
M  V30 10930 H 1033.33 3.66046 3.18023 0
M  V30 10931 N 1034.67 -1.14067 1.0875 0
M  V30 10932 C 1035.92 -1.84819 0.817698 0
M  V30 10933 C 1036.24 -1.83545 -0.658488 0
M  V30 10934 O 1035.51 -1.28633 -1.47751 0
M  V30 10935 H 1034.09 -0.68433 0.299502 0
M  V30 10936 H 1036.75 -1.38208 1.37421 0
M  V30 10937 H 1035.85 -2.89541 1.16501 0
M  V30 10938 N 1036.15 -0.873678 -1.31166 0
M  V30 10939 C 1037.06 -0.335726 -2.32185 0
M  V30 10940 C 1038.07 0.556259 -1.64869 0
M  V30 10941 O 1039.25 0.452087 -1.9626 0
M  V30 10942 C 1036.32 0.450822 -3.43756 0
M  V30 10943 C 1035.38 -0.469565 -4.26724 0
M  V30 10944 C 1034.61 0.279538 -5.32967 0
M  V30 10945 O 1034.83 1.50715 -5.50128 0
M  V30 10946 O 1033.77 -0.36452 -6.00795 0
M  V30 10947 H 1037.59 -1.17314 -2.80127 0
M  V30 10948 H 1035.18 -0.637163 -1.35132 0
M  V30 10949 H 1037.06 0.896582 -4.11752 0
M  V30 10950 H 1035.73 1.26472 -2.9797 0
M  V30 10951 H 1034.64 -0.963902 -3.61469 0
M  V30 10952 H 1035.97 -1.24916 -4.76085 0
M  V30 10953 N 1037.63 1.44308 -0.633487 0
M  V30 10954 C 1038.56 2.27887 0.119397 0
M  V30 10955 C 1039.54 1.38676 0.848981 0
M  V30 10956 O 1040.72 1.68116 0.85259 0
M  V30 10957 C 1037.85 3.17658 1.17521 0
M  V30 10958 C 1036.89 4.22992 0.54589 0
M  V30 10959 S 1037.73 5.31345 -0.6658 0
M  V30 10960 C 1038.88 6.24684 0.389965 0
M  V30 10961 H 1039.12 2.91394 -0.589638 0
M  V30 10962 H 1036.65 1.48529 -0.421727 0
M  V30 10963 H 1038.61 3.69929 1.77941 0
M  V30 10964 H 1037.27 2.53367 1.85645 0
M  V30 10965 H 1036.46 4.85828 1.34115 0
M  V30 10966 H 1036.06 3.73996 0.0162506 0
M  V30 10967 H 1038.36 6.65645 1.26185 0
M  V30 10968 H 1039.3 7.07809 -0.202878 0
M  V30 10969 H 1039.71 5.59929 0.716922 0
M  V30 10970 N 1039.1 0.374177 1.53094 0
M  V30 10971 C 1040.33 -0.215903 2.06273 0
M  V30 10972 C 1040.75 -1.40979 1.24526 0
M  V30 10973 O 1040.11 -1.79331 0.266462 0
M  V30 10974 C 1040.16 -0.579089 3.5592 0
M  V30 10975 O 1039.26 -1.67516 3.76845 0
M  V30 10976 H 1038.61 -0.0293981 0.663349 0
M  V30 10977 H 1041.14 0.537271 1.9742 0
M  V30 10978 H 1041.15 -0.847678 3.99097 0
M  V30 10979 H 1039.82 0.293843 4.14861 0
M  V30 10980 H 1038.4 -1.40146 3.45563 0
M  V30 10981 N 1040.58 -1.57259 0.103575 0
M  V30 10982 C 1041.81 -1.99 -0.566275 0
M  V30 10983 C 1042.23 -0.982909 -1.61197 0
M  V30 10984 O 1041.58 0.026345 -1.82481 0
M  V30 10985 C 1041.63 -3.40778 -1.20635 0
M  V30 10986 O 1041.35 -4.37632 -0.202472 0
M  V30 10987 C 1042.86 -3.97567 -1.961 0
M  V30 10988 H 1040.08 -0.653751 -0.151164 0
M  V30 10989 H 1042.62 -2.03658 0.185365 0
M  V30 10990 H 1040.77 -3.37107 -1.90886 0
M  V30 10991 H 1041.19 -5.2026 -0.665535 0
M  V30 10992 H 1042.66 -4.98897 -2.36233 0
M  V30 10993 H 1043.14 -3.35853 -2.83018 0
M  V30 10994 H 1043.75 -4.04737 -1.30645 0
M  V30 10995 N 1042.06 0.170153 -1.56679 0
M  V30 10996 C 1042.97 1.23057 -1.99735 0
M  V30 10997 C 1043.99 1.48374 -0.908912 0
M  V30 10998 O 1045.16 1.60499 -1.21663 0
M  V30 10999 C 1042.23 2.54944 -2.34956 0
M  V30 11000 C 1041.29 2.3748 -3.57634 0
M  V30 11001 C 1040.52 3.63078 -3.91165 0
M  V30 11002 O 1040.74 4.68304 -3.2565 0
M  V30 11003 O 1039.68 3.57119 -4.8451 0
M  V30 11004 H 1043.5 0.895104 -2.9021 0
M  V30 11005 H 1041.09 0.377109 -1.44562 0
M  V30 11006 H 1042.97 3.32742 -2.58574 0
M  V30 11007 H 1041.65 2.88068 -1.47643 0
M  V30 11008 H 1040.55 1.57709 -3.39232 0
M  V30 11009 H 1041.89 2.0928 -4.45491 0
M  V30 11010 N 1043.54 1.5137 0.438746 0
M  V30 11011 C 1044.49 1.68966 1.53083 0
M  V30 11012 C 1045.47 0.543669 1.51437 0
M  V30 11013 O 1046.66 0.799519 1.57914 0
M  V30 11014 C 1043.79 1.8168 2.91286 0
M  V30 11015 C 1042.88 3.02059 2.97693 0
M  V30 11016 N 1043.27 4.25254 2.73848 0
M  V30 11017 C 1041.57 3.01284 3.28852 0
M  V30 11018 C 1042.27 5.06501 2.86062 0
M  V30 11019 N 1041.25 4.41119 3.17671 0
M  V30 11020 H 1045.05 2.61883 1.33397 0
M  V30 11021 H 1042.56 1.48997 0.64603 0
M  V30 11022 H 1044.56 1.92396 3.6985 0
M  V30 11023 H 1043.22 0.899438 3.11994 0
M  V30 11024 H 1044.23 4.54222 2.48803 0
M  V30 11025 H 1040.91 2.19174 3.55344 0
M  V30 11026 H 1042.3 6.14563 2.71592 0
M  V30 11027 N 1045.02 -0.694098 1.41492 0
M  V30 11028 C 1046.43 -1.00487 1.23994 0
M  V30 11029 C 1046.63 -2.01078 0.130346 0
M  V30 11030 O 1045.69 -2.47403 -0.504775 0
M  V30 11031 C 1047 -1.52808 2.58979 0
M  V30 11032 C 1048.55 -1.64684 2.66173 0
M  V30 11033 C 1049.02 -2.20406 4.01479 0
M  V30 11034 N 1050.52 -2.27765 4.03333 0
M  V30 11035 C 1051.25 -2.7191 5.04829 0
M  V30 11036 N 1050.75 -3.1565 6.16714 0
M  V30 11037 N 1052.54 -2.71487 4.9219 0
M  V30 11038 H 1044.69 -0.027746 2.12382 0
M  V30 11039 H 1046.95 -0.0748741 0.945039 0
M  V30 11040 H 1046.66 -0.863519 3.40934 0
M  V30 11041 H 1046.53 -2.50998 2.81566 0
M  V30 11042 H 1048.92 -2.30251 1.84576 0
M  V30 11043 H 1049 -0.65035 2.47395 0
M  V30 11044 H 1048.65 -1.55454 4.83525 0
M  V30 11045 H 1048.58 -3.2081 4.17599 0
M  V30 11046 H 1051.07 -1.96899 3.22551 0
M  V30 11047 H 1051.38 -3.47966 6.90029 0
M  V30 11048 H 1049.72 -3.13555 6.20248 0
M  V30 11049 H 1052.92 -2.36666 4.03865 0
M  V30 11050 H 1053.09 -3.05573 5.71427 0
M  V30 11051 N 1046.49 -1.27344 -0.928501 0
M  V30 11052 C 1047.74 -1.13411 -1.67279 0
M  V30 11053 C 1048.06 0.320698 -1.92345 0
M  V30 11054 O 1047.33 1.2245 -1.52915 0
M  V30 11055 H 1045.91 -0.416712 -0.619968 0
M  V30 11056 H 1048.58 -1.5986 -1.11493 0
M  V30 11057 H 1047.67 -1.66256 -2.64131 0
M  V30 11058 N 1047.97 1.13488 -1.09353 0
M  V30 11059 C 1049.38 1.66299 -0.848609 0
M  V30 11060 C 1049.73 1.86044 0.623051 0
M  V30 11061 O 1048.86 1.57871 1.48005 0
M  V30 11062 C 1049.45 3.02087 -1.53391 0
M  V30 11063 C 1048.01 3.51893 -1.33598 0
M  V30 11064 C 1047.16 2.27154 -1.59048 0
M  V30 11065 H 1050.11 0.974208 -1.25279 0
M  V30 11066 H 1050.13 3.68018 -0.966587 0
M  V30 11067 H 1049.64 2.87684 -2.60498 0
M  V30 11068 H 1047.75 3.715 -0.286045 0
M  V30 11069 H 1047.86 4.32059 -2.0703 0
M  V30 11070 H 1046.22 2.33708 -1.01256 0
M  V30 11071 H 1047.01 2.15317 -2.67383 0
M  V30 11072 N 1049.45 0.880621 1.30701 0
M  V30 11073 C 1050.7 0.497611 1.966 0
M  V30 11074 C 1051.03 -0.949901 1.69383 0
M  V30 11075 O 1050.31 -1.67054 0.996152 0
M  V30 11076 C 1050.59 0.767919 3.51817 0
M  V30 11077 C 1050.44 2.26574 3.88567 0
M  V30 11078 C 1051.76 0.241502 4.39437 0
M  V30 11079 H 1048.88 0.182267 0.714106 0
M  V30 11080 H 1051.52 1.10382 1.54648 0
M  V30 11081 H 1049.67 0.251967 3.87682 0
M  V30 11082 H 1051.34 2.84977 3.62748 0
M  V30 11083 H 1049.59 2.73411 3.36792 0
M  V30 11084 H 1050.26 2.40549 4.9683 0
M  V30 11085 H 1052.73 0.683051 4.10455 0
M  V30 11086 H 1051.61 0.459997 5.46969 0
M  V30 11087 H 1051.87 -0.857068 4.33713 0
M  V30 11088 N 1050.93 -1.4397 0.641131 0
M  V30 11089 C 1051.86 -2.28997 -0.0963315 0
M  V30 11090 C 1052.87 -1.4184 -0.799071 0
M  V30 11091 O 1054.06 -1.65896 -0.658846 0
M  V30 11092 C 1051.16 -3.18465 -1.15903 0
M  V30 11093 C 1050.34 -4.34093 -0.536828 0
M  V30 11094 C 1049.4 -5.04522 -1.4948 0
M  V30 11095 O 1048.42 -5.60202 -1.00807 0
M  V30 11096 N 1049.62 -5.06899 -2.82901 0
M  V30 11097 H 1052.39 -2.9293 0.633422 0
M  V30 11098 H 1049.95 -1.54527 0.48302 0
M  V30 11099 H 1051.94 -3.62445 -1.80044 0
M  V30 11100 H 1050.51 -2.56214 -1.79089 0
M  V30 11101 H 1049.73 -3.9318 0.283414 0
M  V30 11102 H 1051.02 -5.08698 -0.101966 0
M  V30 11103 H 1050.42 -4.63012 -3.25017 0
M  V30 11104 H 1048.97 -5.54637 -3.42376 0
M  V30 11105 N 1052.41 -0.382291 -1.52893 0
M  V30 11106 C 1053.65 0.202433 -2.01787 0
M  V30 11107 C 1053.99 1.47044 -1.26853 0
M  V30 11108 O 1053.26 1.91007 -0.366969 0
M  V30 11109 C 1053.54 0.477471 -3.5692 0
M  V30 11110 C 1053.4 -0.805339 -4.42532 0
M  V30 11111 C 1054.72 1.27106 -4.21346 0
M  V30 11112 H 1051.84 0.0720998 -0.733465 0
M  V30 11113 H 1054.48 -0.510478 -1.83014 0
M  V30 11114 H 1052.63 1.08478 -3.73048 0
M  V30 11115 H 1054.3 -1.4424 -4.3817 0
M  V30 11116 H 1052.54 -1.42216 -4.09826 0
M  V30 11117 H 1053.21 -0.567635 -5.49074 0
M  V30 11118 H 1055.69 0.757161 -4.09153 0
M  V30 11119 H 1054.57 1.43225 -5.29885 0
M  V30 11120 H 1054.83 2.28431 -3.78513 0
M  V30 11121 N 1053.89 1.57202 -0.111913 0
M  V30 11122 C 1055.11 1.99297 0.555713 0
M  V30 11123 C 1055.53 0.991444 1.60673 0
M  V30 11124 O 1054.89 -0.0166672 1.82492 0
M  V30 11125 C 1054.94 3.41413 1.18826 0
M  V30 11126 O 1054.66 4.37733 0.179261 0
M  V30 11127 C 1056.16 3.98602 1.93989 0
M  V30 11128 H 1053.38 0.654543 0.147695 0
M  V30 11129 H 1055.92 2.03557 -0.196163 0
M  V30 11130 H 1054.08 3.38115 1.89096 0
M  V30 11131 H 1054.49 5.20606 0.637935 0
M  V30 11132 H 1055.97 5.00143 2.33584 0
M  V30 11133 H 1056.44 3.37349 2.81233 0
M  V30 11134 H 1057.05 4.05424 1.28497 0
M  V30 11135 N 1055.36 -0.161842 1.56767 0
M  V30 11136 C 1056.3 -1.22499 1.93718 0
M  V30 11137 C 1057.31 -1.39975 0.831314 0
M  V30 11138 O 1058.5 -1.3981 1.10975 0
M  V30 11139 C 1055.6 -2.59222 2.18306 0
M  V30 11140 C 1054.77 -2.6292 3.4956 0
M  V30 11141 C 1053.83 -3.81074 3.62863 0
M  V30 11142 O 1052.86 -3.66633 4.35395 0
M  V30 11143 N 1054.06 -4.97923 2.98418 0
M  V30 11144 H 1056.82 -0.911043 2.85517 0
M  V30 11145 H 1054.38 -0.351533 1.58038 0
M  V30 11146 H 1056.38 -3.36749 2.24461 0
M  V30 11147 H 1054.95 -2.82969 1.32844 0
M  V30 11148 H 1054.17 -1.71418 3.54978 0
M  V30 11149 H 1055.45 -2.62409 4.35911 0
M  V30 11150 H 1054.85 -5.12557 2.39378 0
M  V30 11151 H 1053.41 -5.73277 3.10155 0
M  V30 11152 N 1056.84 -1.516 -0.430713 0
M  V30 11153 C 1058.09 -1.6484 -1.18134 0
M  V30 11154 C 1058.42 -0.366725 -1.90706 0
M  V30 11155 O 1057.7 0.63398 -1.83878 0
M  V30 11156 C 1057.98 -2.85617 -2.19306 0
M  V30 11157 C 1057.83 -4.23778 -1.50773 0
M  V30 11158 C 1059.15 -3.01909 -3.20217 0
M  V30 11159 H 1056.27 -0.599907 -0.428113 0
M  V30 11160 H 1058.91 -1.84102 -0.46973 0
M  V30 11161 H 1057.06 -2.69325 -2.79993 0
M  V30 11162 H 1058.73 -4.51752 -0.93371 0
M  V30 11163 H 1056.98 -4.26171 -0.809966 0
M  V30 11164 H 1057.65 -5.04291 -2.24487 0
M  V30 11165 H 1060.12 -3.16956 -2.69589 0
M  V30 11166 H 1059 -3.87968 -3.88293 0
M  V30 11167 H 1059.26 -2.1427 -3.86705 0
M  V30 11168 N 1058.32 0.686584 -1.41858 0
M  V30 11169 C 1059.23 1.83002 -1.46791 0
M  V30 11170 C 1060.25 1.70284 -0.357675 0
M  V30 11171 O 1061.42 1.92042 -0.606781 0
M  V30 11172 C 1058.49 3.19056 -1.35661 0
M  V30 11173 C 1057.55 3.43817 -2.57077 0
M  V30 11174 C 1056.78 4.7338 -2.46469 0
M  V30 11175 O 1057 5.50483 -1.49413 0
M  V30 11176 O 1055.94 4.99124 -3.36391 0
M  V30 11177 H 1059.76 1.81797 -2.43277 0
M  V30 11178 H 1057.35 0.840812 -1.23494 0
M  V30 11179 H 1059.23 4.00267 -1.31773 0
M  V30 11180 H 1057.91 3.20925 -0.422951 0
M  V30 11181 H 1056.81 2.625 -2.66541 0
M  V30 11182 H 1058.15 3.4677 -3.49302 0
M  V30 11183 N 1059.8 1.27835 0.921735 0
M  V30 11184 C 1060.71 1.12904 2.05645 0
M  V30 11185 C 1061.72 0.0575704 1.73905 0
M  V30 11186 O 1062.9 0.265261 1.99645 0
M  V30 11187 C 1059.96 0.783957 3.3772 0
M  V30 11188 C 1059.03 1.93694 3.8312 0
M  V30 11189 C 1058.26 1.60823 5.08893 0
M  V30 11190 O 1058.48 0.518873 5.68035 0
M  V30 11191 O 1057.42 2.44932 5.49811 0
M  V30 11192 H 1061.24 2.08143 2.21157 0
M  V30 11193 H 1058.83 1.07078 1.04185 0
M  V30 11194 H 1060.71 0.605107 4.17033 0
M  V30 11195 H 1059.38 -0.138849 3.23402 0
M  V30 11196 H 1058.29 2.17089 3.04669 0
M  V30 11197 H 1059.62 2.84016 4.0199 0
M  V30 11198 N 1061.28 -1.12907 1.09954 0
M  V30 11199 C 1062.55 -1.80602 0.751148 0
M  V30 11200 C 1062.93 -1.96826 -0.763077 0
M  V30 11201 O 1062.28 -1.54066 -1.68749 0
M  V30 11202 C 1062.49 -3.15289 1.49646 0
M  V30 11203 C 1063.84 -3.9056 1.66578 0
M  V30 11204 O 1064.86 -3.24929 1.45943 0
M  V30 11205 O 1063.72 -5.08292 2.00752 0
M  V30 11206 H 1060.82 -0.781529 0.270446 0
M  V30 11207 H 1063.36 -1.19786 1.20206 0
M  V30 11208 H 1062.13 -2.9874 2.52725 0
M  V30 11209 H 1061.76 -3.83809 1.03808 0
M  V30 11210 N 1062.75 -0.88754 -1.30232 0
M  V30 11211 C 1063.69 -0.300814 -2.26209 0
M  V30 11212 C 1064.66 0.580088 -1.519 0
M  V30 11213 O 1065.85 0.529611 -1.80907 0
M  V30 11214 C 1062.98 0.572336 -3.33829 0
M  V30 11215 C 1062.02 -0.239589 -4.25827 0
M  V30 11216 S 1062.85 -1.62953 -5.10104 0
M  V30 11217 C 1064.01 -0.762979 -6.21232 0
M  V30 11218 H 1064.24 -1.11435 -2.75626 0
M  V30 11219 H 1061.78 -0.687123 -1.38268 0
M  V30 11220 H 1063.73 1.07036 -3.963 0
M  V30 11221 H 1062.4 1.35999 -2.83131 0
M  V30 11222 H 1061.59 0.426854 -5.02189 0
M  V30 11223 H 1061.19 -0.670325 -3.67944 0
M  V30 11224 H 1063.48 0.0189354 -6.77497 0
M  V30 11225 H 1064.43 -1.49829 -6.92067 0
M  V30 11226 H 1064.83 -0.322747 -5.63577 0
M  V30 11227 N 1064.23 1.43628 -0.648757 0
M  V30 11228 C 1065.48 2.02163 -0.160574 0
M  V30 11229 C 1065.81 1.51037 1.22072 0
M  V30 11230 O 1065.09 0.701633 1.81404 0
M  V30 11231 C 1065.37 3.59715 -0.166528 0
M  V30 11232 C 1065.22 4.21083 -1.58142 0
M  V30 11233 C 1066.54 4.37256 0.499485 0
M  V30 11234 H 1063.66 0.734568 -0.0598238 0
M  V30 11235 H 1066.3 1.70981 -0.828592 0
M  V30 11236 H 1064.45 3.86411 0.402302 0
M  V30 11237 H 1066.12 4.05433 -2.2005 0
M  V30 11238 H 1064.37 3.77904 -2.13005 0
M  V30 11239 H 1065.04 5.30156 -1.53748 0
M  V30 11240 H 1067.51 4.16097 0.0155561 0
M  V30 11241 H 1066.39 5.4693 0.464574 0
M  V30 11242 H 1066.65 4.13175 1.57286 0
M  V30 11243 N 1065.71 0.390394 1.52688 0
M  V30 11244 C 1066.64 -0.48838 2.22913 0
M  V30 11245 C 1067.62 -1.06319 1.23025 0
M  V30 11246 O 1068.81 -1.11462 1.52015 0
M  V30 11247 C 1065.93 -1.67612 2.9432 0
M  V30 11248 C 1064.98 -1.22646 4.08485 0
M  V30 11249 S 1065.81 -0.207092 5.35099 0
M  V30 11250 C 1066.97 -1.40058 6.10028 0
M  V30 11251 H 1067.2 0.107949 2.97104 0
M  V30 11252 H 1064.73 0.174588 1.5341 0
M  V30 11253 H 1066.69 -2.35728 3.36069 0
M  V30 11254 H 1065.35 -2.24375 2.19806 0
M  V30 11255 H 1064.55 -2.11331 4.57554 0
M  V30 11256 H 1064.15 -0.624197 3.68754 0
M  V30 11257 H 1066.44 -2.32747 6.36266 0
M  V30 11258 H 1067.38 -0.950804 7.01687 0
M  V30 11259 H 1067.79 -1.61789 5.40818 0
M  V30 11260 N 1067.19 -1.57141 0.120249 0
M  V30 11261 C 1068.43 -1.95527 -0.538245 0
M  V30 11262 C 1068.77 -1.00373 -1.6625 0
M  V30 11263 O 1068.04 -0.0411734 -1.94456 0
M  V30 11264 C 1068.33 -3.43843 -1.06976 0
M  V30 11265 C 1068.18 -4.49771 0.0511596 0
M  V30 11266 C 1069.5 -3.94035 -1.96022 0
M  V30 11267 H 1066.62 -0.710958 -0.194183 0
M  V30 11268 H 1069.26 -1.88986 0.196061 0
M  V30 11269 H 1067.41 -3.49548 -1.69553 0
M  V30 11270 H 1069.08 -4.56163 0.686503 0
M  V30 11271 H 1067.32 -4.27882 0.714127 0
M  V30 11272 H 1067.99 -5.50812 -0.361995 0
M  V30 11273 H 1070.47 -3.9064 -1.43315 0
M  V30 11274 H 1069.35 -4.98329 -2.3013 0
M  V30 11275 H 1069.61 -3.34803 -2.8872 0
M  V30 11276 N 1068.67 0.153526 -1.5685 0
M  V30 11277 C 1069.6 1.19162 -2.00805 0
M  V30 11278 C 1070.58 1.45172 -0.886518 0
M  V30 11279 O 1071.76 1.56203 -1.15387 0
M  V30 11280 C 1068.89 2.52637 -2.38311 0
M  V30 11281 C 1067.85 2.41161 -3.53589 0
M  V30 11282 C 1067.17 3.79287 -3.76889 0
M  V30 11283 C 1068.47 1.90122 -4.86468 0
M  V30 11284 H 1070.17 0.82617 -2.87776 0
M  V30 11285 H 1067.71 0.395972 -1.38449 0
M  V30 11286 H 1069.67 3.25478 -2.6766 0
M  V30 11287 H 1068.39 2.91005 -1.4827 0
M  V30 11288 H 1067.05 1.70772 -3.24395 0
M  V30 11289 H 1066.7 4.15079 -2.84109 0
M  V30 11290 H 1066.4 3.72472 -4.54465 0
M  V30 11291 H 1067.92 4.53687 -4.08657 0
M  V30 11292 H 1069.33 2.52752 -5.14577 0
M  V30 11293 H 1067.73 1.94214 -5.67804 0
M  V30 11294 H 1068.8 0.856517 -4.77275 0
M  V30 11295 N 1070.14 1.51827 0.422667 0
M  V30 11296 C 1071.08 1.68901 1.53453 0
M  V30 11297 C 1072.06 0.536549 1.53492 0
M  V30 11298 O 1073.24 0.762226 1.72402 0
M  V30 11299 C 1070.37 1.71599 2.92013 0
M  V30 11300 C 1069.41 2.92984 3.0994 0
M  V30 11301 S 1070.25 4.53559 2.84683 0
M  V30 11302 C 1071.4 4.59024 4.25498 0
M  V30 11303 H 1071.63 2.62943 1.38739 0
M  V30 11304 H 1069.17 1.41695 0.613347 0
M  V30 11305 H 1071.13 1.73838 3.71874 0
M  V30 11306 H 1069.79 0.787083 3.04079 0
M  V30 11307 H 1068.98 2.91315 4.1128 0
M  V30 11308 H 1068.58 2.88562 2.37924 0
M  V30 11309 H 1070.87 4.35567 5.18929 0
M  V30 11310 H 1071.82 5.60904 4.32195 0
M  V30 11311 H 1072.22 3.88193 4.09837 0
M  V30 11312 N 1071.62 -0.679052 1.4222 0
M  V30 11313 C 1072.9 -1.43473 1.32947 0
M  V30 11314 C 1073.28 -2.11071 -0.0351689 0
M  V30 11315 O 1072.63 -2.02925 -1.05042 0
M  V30 11316 C 1072.84 -2.44065 2.49466 0
M  V30 11317 C 1074.19 -3.08834 2.91387 0
M  V30 11318 O 1075.21 -2.54392 2.49325 0
M  V30 11319 O 1074.07 -4.07478 3.64175 0
M  V30 11320 H 1071.16 -0.639743 0.524078 0
M  V30 11321 H 1073.71 -0.708134 1.54219 0
M  V30 11322 H 1072.48 -1.92884 3.40457 0
M  V30 11323 H 1072.1 -3.24212 2.30158 0
M  V30 11324 N 1073.1 -1.28322 -0.914942 0
M  V30 11325 C 1074.35 -1.15179 -1.66067 0
M  V30 11326 C 1074.67 0.300279 -1.92674 0
M  V30 11327 O 1073.94 1.20821 -1.54205 0
M  V30 11328 H 1072.52 -0.423264 -0.615513 0
M  V30 11329 H 1075.18 -1.61034 -1.09791 0
M  V30 11330 H 1074.28 -1.69048 -2.62353 0
M  V30 11331 N 1074.58 1.12322 -1.10551 0
M  V30 11332 C 1075.8 1.8822 -0.871093 0
M  V30 11333 C 1076.23 1.7916 0.573005 0
M  V30 11334 O 1075.59 1.14738 1.40374 0
M  V30 11335 C 1075.63 3.35349 -1.32565 0
M  V30 11336 O 1074.74 4.09461 -0.49145 0
M  V30 11337 H 1074.08 0.584787 -0.314516 0
M  V30 11338 H 1076.61 1.42039 -1.47262 0
M  V30 11339 H 1076.62 3.86189 -1.31612 0
M  V30 11340 H 1075.29 3.4126 -2.37728 0
M  V30 11341 H 1073.87 3.68575 -0.566294 0
M  V30 11342 N 1076.06 0.894434 1.2976 0
M  V30 11343 C 1077.3 0.518435 1.96061 0
M  V30 11344 C 1077.64 -0.931882 1.70381 0
M  V30 11345 O 1076.91 -1.65988 1.01381 0
M  V30 11346 C 1077.19 0.80519 3.50982 0
M  V30 11347 C 1077.05 2.30683 3.86142 0
M  V30 11348 C 1078.37 0.288096 4.39156 0
M  V30 11349 H 1075.48 0.18983 0.712133 0
M  V30 11350 H 1078.13 1.12016 1.53468 0
M  V30 11351 H 1076.28 0.293071 3.87393 0
M  V30 11352 H 1077.95 2.88808 3.59705 0
M  V30 11353 H 1076.19 2.76968 3.33873 0
M  V30 11354 H 1076.86 2.45805 4.94251 0
M  V30 11355 H 1079.34 0.726547 4.09708 0
M  V30 11356 H 1078.21 0.517985 5.4645 0
M  V30 11357 H 1078.48 -0.811018 4.34597 0
M  V30 11358 N 1077.53 -1.43282 0.656365 0
M  V30 11359 C 1078.48 -2.30776 -0.0333155 0
M  V30 11360 C 1079.45 -1.44928 -0.811493 0
M  V30 11361 O 1080.64 -1.73792 -0.787465 0
M  V30 11362 C 1077.78 -3.30548 -0.991566 0
M  V30 11363 C 1076.89 -4.31493 -0.209159 0
M  V30 11364 C 1076.02 -5.18346 -1.16149 0
M  V30 11365 C 1075.06 -6.10983 -0.369699 0
M  V30 11366 N 1074.2 -6.90449 -1.27378 0
M  V30 11367 H 1079.04 -2.89204 0.718668 0
M  V30 11368 H 1076.58 -1.4247 0.366161 0
M  V30 11369 H 1078.54 -3.86905 -1.56078 0
M  V30 11370 H 1077.17 -2.73762 -1.71039 0
M  V30 11371 H 1076.22 -3.77405 0.476394 0
M  V30 11372 H 1077.53 -4.97142 0.406394 0
M  V30 11373 H 1076.68 -5.79345 -1.80124 0
M  V30 11374 H 1075.42 -4.52831 -1.81095 0
M  V30 11375 H 1074.43 -5.49069 0.283377 0
M  V30 11376 H 1075.65 -6.78541 0.275399 0
M  V30 11377 H 1073.6 -6.27579 -1.90999 0
M  V30 11378 H 1073.52 -7.52631 -0.71287 0
M  V30 11379 H 1074.78 -7.5595 -1.90158 0
M  V30 11380 N 1079.01 -0.398486 -1.52479 0
M  V30 11381 C 1079.94 0.423498 -2.29627 0
M  V30 11382 C 1080.92 1.05547 -1.33394 0
M  V30 11383 O 1082.11 1.0665 -1.62294 0
M  V30 11384 C 1079.24 1.54612 -3.10986 0
M  V30 11385 C 1078.19 1.03971 -4.15179 0
M  V30 11386 C 1077.52 2.25512 -4.84818 0
M  V30 11387 C 1078.82 0.10121 -5.22202 0
M  V30 11388 H 1080.51 -0.220222 -2.98589 0
M  V30 11389 H 1078.06 -0.107355 -1.43599 0
M  V30 11390 H 1080.01 2.12806 -3.63719 0
M  V30 11391 H 1078.74 2.21756 -2.39774 0
M  V30 11392 H 1077.4 0.480251 -3.63441 0
M  V30 11393 H 1077.04 2.91187 -4.10145 0
M  V30 11394 H 1076.74 1.92285 -5.55248 0
M  V30 11395 H 1078.27 2.84331 -5.40359 0
M  V30 11396 H 1079.68 0.591617 -5.70239 0
M  V30 11397 H 1078.08 -0.141737 -5.99933 0
M  V30 11398 H 1079.15 -0.847216 -4.77441 0
M  V30 11399 N 1080.49 1.57075 -0.12858 0
M  V30 11400 C 1081.74 1.9581 0.527868 0
M  V30 11401 C 1082.07 1.01253 1.65715 0
M  V30 11402 O 1081.35 0.0514853 1.94432 0
M  V30 11403 C 1081.63 3.44406 1.05151 0
M  V30 11404 C 1081.48 4.49737 -0.0750113 0
M  V30 11405 C 1082.8 3.95069 1.9393 0
M  V30 11406 H 1079.92 0.711978 0.19041 0
M  V30 11407 H 1082.56 1.88879 -0.206081 0
M  V30 11408 H 1080.71 3.50443 1.67697 0
M  V30 11409 H 1082.38 4.55793 -0.710685 0
M  V30 11410 H 1080.63 4.27497 -0.736809 0
M  V30 11411 H 1081.3 5.50996 0.332779 0
M  V30 11412 H 1083.77 3.91395 1.41241 0
M  V30 11413 H 1082.65 4.99542 2.27484 0
M  V30 11414 H 1082.91 3.36329 2.86941 0
M  V30 11415 N 1081.97 -0.145205 1.5693 0
M  V30 11416 C 1083.2 -0.872398 1.87608 0
M  V30 11417 C 1083.61 -1.74657 0.716975 0
M  V30 11418 O 1082.97 -1.79792 -0.3132 0
M  V30 11419 C 1083.02 -1.72762 3.17546 0
M  V30 11420 O 1082.74 -0.888681 4.28992 0
M  V30 11421 C 1084.24 -2.56224 3.61751 0
M  V30 11422 H 1081.46 -0.252166 0.621815 0
M  V30 11423 H 1084.01 -0.137456 2.04038 0
M  V30 11424 H 1082.16 -2.41561 3.02865 0
M  V30 11425 H 1082.58 -1.47601 5.03303 0
M  V30 11426 H 1084.05 -3.11804 4.55502 0
M  V30 11427 H 1084.53 -3.32347 2.87127 0
M  V30 11428 H 1085.13 -1.92714 3.79133 0
M  V30 11429 N 1083.45 -1.52049 -0.414609 0
M  V30 11430 C 1084.86 -1.58062 -0.993638 0
M  V30 11431 C 1085.21 -0.417795 -1.917 0
M  V30 11432 O 1084.33 0.462558 -2.11399 0
M  V30 11433 C 1084.93 -2.86471 -1.80886 0
M  V30 11434 C 1083.49 -2.94981 -2.33801 0
M  V30 11435 C 1082.64 -2.52949 -1.13631 0
M  V30 11436 H 1085.59 -1.57497 -0.19504 0
M  V30 11437 H 1085.61 -2.71515 -2.66571 0
M  V30 11438 H 1085.12 -3.71085 -1.13657 0
M  V30 11439 H 1083.22 -2.14849 -3.04419 0
M  V30 11440 H 1083.33 -3.99111 -2.65042 0
M  V30 11441 H 1081.7 -2.0667 -1.48861 0
M  V30 11442 H 1082.48 -3.39931 -0.479765 0
M  V30 11443 N 1084.93 0.6715 -1.42579 0
M  V30 11444 C 1085.84 1.81435 -1.48723 0
M  V30 11445 C 1086.85 1.69895 -0.375716 0
M  V30 11446 O 1088.03 1.91388 -0.627115 0
M  V30 11447 C 1085.09 3.17599 -1.39038 0
M  V30 11448 C 1084.15 3.41071 -2.60709 0
M  V30 11449 C 1083.39 4.7074 -2.51476 0
M  V30 11450 O 1083.61 5.48868 -1.55243 0
M  V30 11451 O 1082.54 4.95528 -3.41666 0
M  V30 11452 H 1086.37 1.79206 -2.45191 0
M  V30 11453 H 1083.95 0.827666 -1.24379 0
M  V30 11454 H 1085.84 3.98847 -1.3601 0
M  V30 11455 H 1084.51 3.20458 -0.456966 0
M  V30 11456 H 1083.42 2.59659 -2.69311 0
M  V30 11457 H 1084.75 3.43045 -3.5296 0
M  V30 11458 N 1086.4 1.28806 0.908124 0
M  V30 11459 C 1087.65 1.16058 1.65454 0
M  V30 11460 C 1087.97 -0.290057 1.92831 0
M  V30 11461 O 1087.24 -1.20001 1.54843 0
M  V30 11462 H 1085.82 0.426522 0.61326 0
M  V30 11463 H 1088.48 1.61614 1.08936 0
M  V30 11464 H 1087.58 1.70437 2.61453 0
M  V30 11465 N 1087.88 -1.11734 1.11145 0
M  V30 11466 C 1089.11 -1.87755 0.881062 0
M  V30 11467 C 1089.53 -1.79461 -0.563496 0
M  V30 11468 O 1088.89 -1.15481 -1.39763 0
M  V30 11469 C 1088.94 -3.34641 1.34342 0
M  V30 11470 O 1088.04 -4.09195 0.513157 0
M  V30 11471 H 1087.38 -0.583111 0.317613 0
M  V30 11472 H 1089.91 -1.41256 1.48013 0
M  V30 11473 H 1089.92 -3.85486 1.33658 0
M  V30 11474 H 1088.6 -3.39994 2.39534 0
M  V30 11475 H 1087.17 -3.68269 0.585833 0
M  V30 11476 N 1089.36 -0.901303 -1.29284 0
M  V30 11477 C 1090.77 -0.576317 -1.77582 0
M  V30 11478 C 1091.12 0.908078 -1.73921 0
M  V30 11479 O 1090.25 1.71006 -1.32611 0
M  V30 11480 C 1090.84 -1.03938 -3.22463 0
M  V30 11481 C 1089.4 -0.765533 -3.68533 0
M  V30 11482 C 1088.55 -1.21318 -2.49354 0
M  V30 11483 H 1091.5 -1.08386 -1.15923 0
M  V30 11484 H 1091.52 -0.375367 -3.78644 0
M  V30 11485 H 1091.03 -2.11977 -3.25096 0
M  V30 11486 H 1089.13 0.302176 -3.71373 0
M  V30 11487 H 1089.25 -1.36454 -4.59257 0
M  V30 11488 H 1087.61 -0.632141 -2.46731 0
M  V30 11489 H 1088.39 -2.30165 -2.54714 0
M  V30 11490 N 1090.84 1.42931 -0.663954 0
M  V30 11491 C 1092.08 2.01982 -0.182007 0
M  V30 11492 C 1092.42 1.52323 1.20463 0
M  V30 11493 O 1091.69 0.720834 1.80649 0
M  V30 11494 C 1091.97 3.59518 -0.204671 0
M  V30 11495 C 1091.83 4.19382 -1.62599 0
M  V30 11496 C 1093.15 4.37762 0.45308 0
M  V30 11497 H 1090.27 0.733892 -0.0676115 0
M  V30 11498 H 1092.91 1.70092 -0.84668 0
M  V30 11499 H 1091.06 3.86816 0.361295 0
M  V30 11500 H 1092.73 4.03076 -2.24337 0
M  V30 11501 H 1090.97 3.75623 -2.17001 0
M  V30 11502 H 1091.64 5.28496 -1.59362 0
M  V30 11503 H 1094.12 4.1609 -0.0285774 0
M  V30 11504 H 1093 5.47392 0.406538 0
M  V30 11505 H 1093.26 4.1482 1.52895 0
M  V30 11506 N 1092.32 0.406567 1.52266 0
M  V30 11507 C 1093.73 0.0573228 1.59497 0
M  V30 11508 C 1093.93 -1.43005 1.41957 0
M  V30 11509 O 1092.99 -2.19659 1.24523 0
M  V30 11510 C 1094.3 0.549947 2.95628 0
M  V30 11511 C 1095.85 0.5077 3.08855 0
M  V30 11512 C 1096.32 0.976792 4.47463 0
M  V30 11513 N 1097.81 0.933508 4.53696 0
M  V30 11514 C 1098.55 1.26769 5.59211 0
M  V30 11515 N 1098.05 1.6732 6.72292 0
M  V30 11516 N 1099.84 1.18782 5.49406 0
M  V30 11517 H 1091.99 1.37468 1.61914 0
M  V30 11518 H 1094.25 0.564562 0.76156 0
M  V30 11519 H 1093.96 1.58943 3.13736 0
M  V30 11520 H 1093.83 -0.0417767 3.77177 0
M  V30 11521 H 1096.22 -0.522728 2.90433 0
M  V30 11522 H 1096.3 1.13545 2.29219 0
M  V30 11523 H 1095.94 2.00554 4.66627 0
M  V30 11524 H 1095.87 0.325885 5.25591 0
M  V30 11525 H 1098.37 0.635333 3.72521 0
M  V30 11526 H 1098.68 1.91137 7.4879 0
M  V30 11527 H 1097.02 1.71221 6.73579 0
M  V30 11528 H 1100.21 0.869906 4.59946 0
M  V30 11529 H 1100.39 1.45157 6.31533 0
M  V30 11530 N 1093.79 -1.57004 0.136909 0
M  V30 11531 C 1095.04 -1.9541 -0.51569 0
M  V30 11532 C 1095.36 -1.02219 -1.66061 0
M  V30 11533 O 1094.63 -0.0818172 -1.95729 0
M  V30 11534 H 1093.21 -0.721504 -0.193497 0
M  V30 11535 H 1095.88 -1.93765 0.210046 0
M  V30 11536 H 1094.97 -2.98887 -0.898494 0
M  V30 11537 N 1095.27 0.136881 -1.57004 0
M  V30 11538 C 1096.2 1.17026 -2.02057 0
M  V30 11539 C 1097.18 1.44223 -0.901866 0
M  V30 11540 O 1098.37 1.54971 -1.17037 0
M  V30 11541 C 1095.5 2.50095 -2.40977 0
M  V30 11542 C 1094.45 2.37398 -3.56127 0
M  V30 11543 C 1093.78 3.75268 -3.80891 0
M  V30 11544 C 1095.08 1.84952 -4.88457 0
M  V30 11545 H 1096.77 0.795601 -2.88636 0
M  V30 11546 H 1094.32 0.381266 -1.38861 0
M  V30 11547 H 1096.27 3.22621 -2.71097 0
M  V30 11548 H 1095 2.89416 -1.51348 0
M  V30 11549 H 1093.65 1.67322 -3.26188 0
M  V30 11550 H 1093.3 4.12043 -2.88496 0
M  V30 11551 H 1093 3.67631 -4.5839 0
M  V30 11552 H 1094.53 4.49327 -4.13446 0
M  V30 11553 H 1095.94 2.4728 -5.17229 0
M  V30 11554 H 1094.34 1.88181 -5.69832 0
M  V30 11555 H 1095.41 0.805848 -4.78157 0
M  V30 11556 N 1096.75 1.52266 0.40654 0
M  V30 11557 C 1098.17 1.41127 0.745348 0
M  V30 11558 C 1098.37 0.517802 1.94733 0
M  V30 11559 O 1097.42 -0.0154286 2.52495 0
M  V30 11560 C 1098.74 2.83696 0.996859 0
M  V30 11561 C 1100.28 2.93056 1.09942 0
M  V30 11562 C 1100.76 4.36599 1.38367 0
M  V30 11563 N 1102.25 4.39845 1.45226 0
M  V30 11564 C 1102.98 5.47975 1.68852 0
M  V30 11565 N 1102.48 6.66219 1.90065 0
M  V30 11566 N 1104.27 5.35494 1.70888 0
M  V30 11567 H 1096.42 2.08888 -0.384632 0
M  V30 11568 H 1098.69 0.941619 -0.109809 0
M  V30 11569 H 1098.39 3.51208 0.185986 0
M  V30 11570 H 1098.27 3.24895 1.91632 0
M  V30 11571 H 1100.65 2.25723 1.90088 0
M  V30 11572 H 1100.74 2.5531 0.158256 0
M  V30 11573 H 1100.38 5.04492 0.587373 0
M  V30 11574 H 1100.31 4.71883 2.33739 0
M  V30 11575 H 1102.8 3.54611 1.30612 0
M  V30 11576 H 1103.11 7.44408 2.0755 0
M  V30 11577 H 1101.46 6.69279 1.87325 0
M  V30 11578 H 1104.65 4.42093 1.53856 0
M  V30 11579 H 1104.82 6.19837 1.88962 0
M  V30 11580 N 1098.23 -0.663929 1.42933 0
M  V30 11581 C 1099.46 -1.45192 1.474 0
M  V30 11582 C 1099.87 -1.88592 0.0886014 0
M  V30 11583 O 1099.23 -1.58824 -0.898962 0
M  V30 11584 C 1099.28 -2.69394 2.41059 0
M  V30 11585 O 1099 -2.27812 3.7421 0
M  V30 11586 C 1100.5 -3.62855 2.54659 0
M  V30 11587 H 1097.72 -0.446394 0.500973 0
M  V30 11588 H 1100.27 -0.814875 1.87563 0
M  V30 11589 H 1098.42 -3.29262 2.0412 0
M  V30 11590 H 1098.83 -3.08095 4.24474 0
M  V30 11591 H 1100.31 -4.46698 3.24291 0
M  V30 11592 H 1100.79 -4.09487 1.58799 0
M  V30 11593 H 1101.39 -3.08874 2.92364 0
M  V30 11594 N 1099.71 -1.29285 -0.901281 0
M  V30 11595 C 1101.12 -1.15499 -1.46686 0
M  V30 11596 C 1101.47 0.250446 -1.94595 0
M  V30 11597 O 1100.59 1.14581 -1.83576 0
M  V30 11598 C 1101.19 -2.0906 -2.66607 0
M  V30 11599 C 1099.75 -1.99301 -3.19306 0
M  V30 11600 C 1098.89 -2.00079 -1.91999 0
M  V30 11601 H 1101.85 -1.41793 -0.712773 0
M  V30 11602 H 1101.87 -1.6619 -3.42288 0
M  V30 11603 H 1101.38 -3.11341 -2.31707 0
M  V30 11604 H 1099.48 -1.00103 -3.58901 0
M  V30 11605 H 1099.59 -2.86885 -3.8371 0
M  V30 11606 H 1097.96 -1.44655 -2.09636 0
M  V30 11607 H 1098.74 -3.04061 -1.59379 0
M  V30 11608 N 1101.18 1.11143 -1.11736 0
M  V30 11609 C 1102.09 2.20851 -0.791331 0
M  V30 11610 C 1103.11 1.72644 0.216833 0
M  V30 11611 O 1104.29 2.01332 0.0522401 0
M  V30 11612 C 1101.35 3.4585 -0.242694 0
M  V30 11613 C 1100.41 4.08829 -1.30986 0
M  V30 11614 C 1099.65 5.27861 -0.787305 0
M  V30 11615 O 1099.87 5.69122 0.381549 0
M  V30 11616 O 1098.8 5.81506 -1.55352 0
M  V30 11617 H 1102.63 2.51158 -1.70744 0
M  V30 11618 H 1100.21 1.19739 -0.893478 0
M  V30 11619 H 1102.1 4.21359 0.0587472 0
M  V30 11620 H 1100.77 3.17187 0.646079 0
M  V30 11621 H 1099.68 3.35037 -1.66436 0
M  V30 11622 H 1101.01 4.41678 -2.17213 0
M  V30 11623 N 1102.66 0.908147 1.28804 0
M  V30 11624 C 1103.91 0.534332 1.94494 0
M  V30 11625 C 1104.22 -0.92552 1.72318 0
M  V30 11626 O 1105.43 -1.40724 2.32183 0
M  V30 11627 C 1103.89 0.904748 3.48342 0
M  V30 11628 C 1103.49 2.38394 3.79305 0
M  V30 11629 C 1105.24 0.601249 4.2022 0
M  V30 11630 C 1103.15 2.69478 5.26437 0
M  V30 11631 H 1102.08 0.196107 0.728051 0
M  V30 11632 H 1104.73 1.1063 1.46401 0
M  V30 11633 H 1103.11 0.261624 3.95135 0
M  V30 11634 H 1104.28 3.07333 3.43341 0
M  V30 11635 H 1102.6 2.65733 3.20586 0
M  V30 11636 H 1105.19 0.810225 5.28526 0
M  V30 11637 H 1105.54 -0.460669 4.13743 0
M  V30 11638 H 1106.07 1.20259 3.79187 0
M  V30 11639 H 1102.81 3.74501 5.37986 0
M  V30 11640 H 1102.33 2.05171 5.63618 0
M  V30 11641 H 1104.01 2.56187 5.94119 0
M  V30 11642 N 1104.14 -1.42577 0.671525 0
M  V30 11643 C 1105.55 -1.84736 0.270084 0
M  V30 11644 C 1105.9 -1.56212 -1.18711 0
M  V30 11645 O 1105.03 -1.02028 -1.90838 0
M  V30 11646 C 1105.62 -3.35334 0.483409 0
M  V30 11647 C 1104.18 -3.76154 0.136119 0
M  V30 11648 C 1103.33 -2.66179 0.777444 0
M  V30 11649 H 1106.28 -1.3247 0.873919 0
M  V30 11650 H 1106.3 -3.79573 -0.265483 0
M  V30 11651 H 1105.81 -3.56063 1.54405 0
M  V30 11652 H 1103.91 -3.61033 -0.921209 0
M  V30 11653 H 1104.03 -4.75645 0.574356 0
M  V30 11654 H 1102.39 -2.53841 0.209055 0
M  V30 11655 H 1103.17 -2.89732 1.84148 0
M  V30 11656 N 1105.62 -0.414636 -1.52048 0
M  V30 11657 C 1106.55 0.452854 -2.23662 0
M  V30 11658 C 1107.53 1.04348 -1.24701 0
M  V30 11659 O 1108.71 1.09029 -1.53769 0
M  V30 11660 C 1105.84 1.62908 -2.96949 0
M  V30 11661 C 1104.89 1.16132 -4.10385 0
M  V30 11662 S 1105.72 0.121936 -5.35361 0
M  V30 11663 C 1106.88 1.30336 -6.12179 0
M  V30 11664 H 1107.11 -0.155202 -2.96895 0
M  V30 11665 H 1104.64 -0.198972 -1.53113 0
M  V30 11666 H 1106.6 2.30351 -3.39777 0
M  V30 11667 H 1105.26 2.20849 -2.23348 0
M  V30 11668 H 1104.45 2.04025 -4.60858 0
M  V30 11669 H 1104.06 0.565452 -3.69701 0
M  V30 11670 H 1106.35 2.22596 -6.39889 0
M  V30 11671 H 1107.29 0.839052 -7.03111 0
M  V30 11672 H 1107.7 1.53165 -5.43324 0
M  V30 11673 N 1107.1 1.56929 -0.145233 0
M  V30 11674 C 1108.32 2.00431 0.513314 0
M  V30 11675 C 1108.74 1.0253 1.58534 0
M  V30 11676 O 1108.1 0.0220459 1.82487 0
M  V30 11677 C 1108.15 3.43856 1.11557 0
M  V30 11678 O 1107.87 4.38015 0.0863707 0
M  V30 11679 C 1109.37 4.02627 1.8549 0
M  V30 11680 H 1106.59 0.657529 0.133778 0
M  V30 11681 H 1109.13 2.03095 -0.239296 0
M  V30 11682 H 1107.29 3.4205 1.81881 0
M  V30 11683 H 1107.7 5.21842 0.527363 0
M  V30 11684 H 1109.18 5.04985 2.22923 0
M  V30 11685 H 1109.65 3.43239 2.74014 0
M  V30 11686 H 1110.26 4.08058 1.19869 0
M  V30 11687 N 1108.58 -0.128553 1.57075 0
M  V30 11688 C 1109.49 -1.17718 2.02927 0
M  V30 11689 C 1110.5 -1.45912 0.947932 0
M  V30 11690 O 1111.68 -1.57217 1.25876 0
M  V30 11691 C 1108.74 -2.48625 2.41633 0
M  V30 11692 C 1107.8 -2.27914 3.63804 0
M  V30 11693 C 1107.04 -3.52579 4.00654 0
M  V30 11694 O 1107.26 -4.59505 3.37952 0
M  V30 11695 O 1106.19 -3.44147 4.93808 0
M  V30 11696 H 1110.02 -0.817846 2.92481 0
M  V30 11697 H 1107.6 -0.338649 1.45511 0
M  V30 11698 H 1109.49 -3.2577 2.67305 0
M  V30 11699 H 1108.16 -2.84052 1.55229 0
M  V30 11700 H 1107.07 -1.4866 3.43294 0
M  V30 11701 H 1108.4 -1.97395 4.50883 0
M  V30 11702 N 1110.05 -1.5248 -0.398459 0
M  V30 11703 C 1111.02 -1.75949 -1.46883 0
M  V30 11704 C 1112.02 -0.629431 -1.47969 0
M  V30 11705 O 1113.21 -0.897407 -1.49306 0
M  V30 11706 C 1110.34 -1.85162 -2.8623 0
M  V30 11707 H 1111.53 -2.71513 -1.2736 0
M  V30 11708 H 1109.08 -1.43058 -0.629619 0
M  V30 11709 H 1109.82 -0.915505 -3.11109 0
M  V30 11710 H 1109.6 -2.67326 -2.86844 0
M  V30 11711 H 1111.09 -2.05025 -3.63805 0
M  V30 11712 N 1111.53 0.65634 -1.43283 0
M  V30 11713 C 1112.78 1.41837 -1.44949 0
M  V30 11714 C 1113.11 1.94065 -0.0723212 0
M  V30 11715 O 1112.39 1.72092 0.906346 0
M  V30 11716 C 1112.67 2.60206 -2.48927 0
M  V30 11717 C 1112.52 2.1349 -3.95907 0
M  V30 11718 C 1113.84 3.62421 -2.49678 0
M  V30 11719 H 1110.96 0.514398 -0.527792 0
M  V30 11720 H 1113.6 0.74435 -1.74813 0
M  V30 11721 H 1111.75 3.17708 -2.23592 0
M  V30 11722 H 1113.42 1.61012 -4.32288 0
M  V30 11723 H 1111.67 1.4489 -4.08888 0
M  V30 11724 H 1112.34 2.98596 -4.64268 0
M  V30 11725 H 1114.81 3.14671 -2.72252 0
M  V30 11726 H 1113.69 4.42798 -3.24378 0
M  V30 11727 H 1113.95 4.14802 -1.52944 0
M  V30 11728 N 1113.01 1.29761 0.894412 0
M  V30 11729 C 1113.92 1.1724 2.03204 0
M  V30 11730 C 1114.94 0.0944452 1.73743 0
M  V30 11731 O 1116.11 0.307549 1.99038 0
M  V30 11732 C 1113.18 0.855416 3.35981 0
M  V30 11733 C 1112.24 2.01777 3.78926 0
M  V30 11734 C 1111.47 1.71581 5.05367 0
M  V30 11735 O 1111.69 0.639245 5.66807 0
M  V30 11736 O 1110.63 2.56539 5.44492 0
M  V30 11737 H 1114.45 2.12787 2.16692 0
M  V30 11738 H 1112.04 1.09264 1.0189 0
M  V30 11739 H 1113.92 0.693429 4.15656 0
M  V30 11740 H 1112.6 -0.0702195 3.23624 0
M  V30 11741 H 1111.5 2.23502 2.99996 0
M  V30 11742 H 1112.84 2.92479 3.95875 0
M  V30 11743 N 1114.49 -1.10549 1.12324 0
M  V30 11744 C 1115.45 -2.15039 0.793156 0
M  V30 11745 C 1116.45 -1.59651 -0.19192 0
M  V30 11746 O 1117.64 -1.74167 0.0337262 0
M  V30 11747 C 1114.77 -3.40433 0.17842 0
M  V30 11748 H 1115.97 -2.4575 1.71892 0
M  V30 11749 H 1113.52 -1.25892 0.926333 0
M  V30 11750 H 1114.25 -3.15338 -0.757122 0
M  V30 11751 H 1114.04 -3.81921 0.887645 0
M  V30 11752 H 1115.53 -4.17584 -0.0360724 0
M  V30 11753 N 1115.97 -0.914965 -1.28321 0
M  V30 11754 C 1117.21 -0.549562 -1.95212 0
M  V30 11755 C 1117.54 0.904658 -1.71842 0
M  V30 11756 O 1116.82 1.64354 -1.04009 0
M  V30 11757 C 1117.1 -0.860927 -3.49657 0
M  V30 11758 C 1116.96 -2.36797 -3.82423 0
M  V30 11759 C 1118.27 -0.357926 -4.38642 0
M  V30 11760 H 1115.39 -0.201136 -0.709023 0
M  V30 11761 H 1118.04 -1.14443 -1.51667 0
M  V30 11762 H 1116.19 -0.354665 -3.86878 0
M  V30 11763 H 1117.86 -2.94494 -3.55065 0
M  V30 11764 H 1116.1 -2.82245 -3.29424 0
M  V30 11765 H 1116.77 -2.53637 -4.90278 0
M  V30 11766 H 1119.25 -0.791636 -4.085 0
M  V30 11767 H 1118.12 -0.604855 -5.45557 0
M  V30 11768 H 1118.38 0.741775 -4.35833 0
M  V30 11769 N 1117.44 1.42219 -0.679077 0
M  V30 11770 C 1118.41 2.29197 -0.0125475 0
M  V30 11771 C 1119.41 1.43544 0.724691 0
M  V30 11772 O 1120.6 1.64884 0.562052 0
M  V30 11773 C 1117.73 3.26122 0.992846 0
M  V30 11774 H 1118.92 2.89629 -0.778154 0
M  V30 11775 H 1116.47 1.4993 -0.44166 0
M  V30 11776 H 1117.21 2.70637 1.78679 0
M  V30 11777 H 1116.99 3.89302 0.467544 0
M  V30 11778 H 1118.48 3.91339 1.45751 0
M  V30 11779 N 1118.92 0.422693 1.51826 0
M  V30 11780 C 1119.85 -0.440987 2.23899 0
M  V30 11781 C 1120.83 -1.03685 1.25252 0
M  V30 11782 O 1122.02 -1.08212 1.54345 0
M  V30 11783 C 1119.14 -1.61331 2.97809 0
M  V30 11784 C 1118.19 -1.13954 4.10995 0
M  V30 11785 S 1119.02 -0.0935426 5.35418 0
M  V30 11786 C 1120.18 -1.27087 6.12862 0
M  V30 11787 H 1120.41 0.170945 2.96808 0
M  V30 11788 H 1117.94 0.20709 1.53005 0
M  V30 11789 H 1119.9 -2.28546 3.40994 0
M  V30 11790 H 1118.56 -2.19662 2.24516 0
M  V30 11791 H 1117.76 -2.01578 4.61933 0
M  V30 11792 H 1117.36 -0.545838 3.69995 0
M  V30 11793 H 1119.65 -2.19199 6.4106 0
M  V30 11794 H 1120.59 -0.801752 7.03546 0
M  V30 11795 H 1121 -1.50281 5.44129 0
M  V30 11796 N 1120.4 -1.5685 0.153553 0
M  V30 11797 C 1121.65 -1.96625 -0.49665 0
M  V30 11798 C 1121.98 -1.03877 -1.64083 0
M  V30 11799 O 1121.25 -0.0824112 -1.94325 0
M  V30 11800 C 1121.54 -3.46035 -0.996585 0
M  V30 11801 C 1121.39 -4.49561 0.146551 0
M  V30 11802 C 1122.71 -3.98104 -1.8762 0
M  V30 11803 H 1119.83 -0.714917 -0.179059 0
M  V30 11804 H 1122.47 -1.88527 0.236104 0
M  V30 11805 H 1120.62 -3.53066 -1.621 0
M  V30 11806 H 1122.29 -4.54604 0.783108 0
M  V30 11807 H 1120.53 -4.26271 0.804727 0
M  V30 11808 H 1121.21 -5.51456 -0.245078 0
M  V30 11809 H 1123.68 -3.93593 -1.34997 0
M  V30 11810 H 1122.56 -5.03098 -2.19508 0
M  V30 11811 H 1122.82 -3.40852 -2.81554 0
M  V30 11812 N 1121.88 0.120221 -1.57141 0
M  V30 11813 C 1123.13 0.826586 -1.84423 0
M  V30 11814 C 1123.45 1.80473 -0.738553 0
M  V30 11815 O 1122.72 1.94454 0.23755 0
M  V30 11816 H 1121.3 0.308246 -0.680436 0
M  V30 11817 H 1123.96 0.107835 -1.94601 0
M  V30 11818 H 1123.05 1.37256 -2.80298 0
M  V30 11819 N 1123.36 1.52689 0.390367 0
M  V30 11820 C 1124.6 1.67335 1.13329 0
M  V30 11821 C 1124.93 0.415068 1.90531 0
M  V30 11822 O 1124.2 -0.570504 1.87409 0
M  V30 11823 H 1122.78 0.616821 0.421356 0
M  V30 11824 H 1125.44 1.89799 0.443 0
M  V30 11825 H 1124.53 2.52314 1.83696 0
M  V30 11826 N 1124.83 -0.648732 1.43629 0
M  V30 11827 C 1125.77 -1.77417 1.45107 0
M  V30 11828 C 1126.78 -1.59067 0.346618 0
M  V30 11829 O 1127.97 -1.67705 0.611322 0
M  V30 11830 C 1125.07 -3.14906 1.25249 0
M  V30 11831 C 1124.24 -3.59874 2.48616 0
M  V30 11832 C 1123.3 -4.76181 2.23916 0
M  V30 11833 O 1122.33 -4.8539 2.97296 0
M  V30 11834 N 1123.53 -5.66691 1.25862 0
M  V30 11835 H 1126.29 -1.76626 2.42123 0
M  V30 11836 H 1123.85 -0.832725 1.38843 0
M  V30 11837 H 1125.85 -3.90408 1.06601 0
M  V30 11838 H 1124.42 -3.10443 0.366623 0
M  V30 11839 H 1123.64 -2.74768 2.82659 0
M  V30 11840 H 1124.92 -3.86665 3.30708 0
M  V30 11841 H 1124.32 -5.61927 0.652227 0
M  V30 11842 H 1122.88 -6.41895 1.13196 0
M  V30 11843 N 1126.31 -1.30234 -0.887518 0
M  V30 11844 C 1127.24 -1.18969 -2.00919 0
M  V30 11845 C 1128.22 -0.080952 -1.69907 0
M  V30 11846 O 1129.41 -0.262546 -1.92417 0
M  V30 11847 C 1126.54 -0.878094 -3.36016 0
M  V30 11848 C 1125.49 -1.94449 -3.81279 0
M  V30 11849 C 1124.82 -1.48594 -5.13638 0
M  V30 11850 C 1126.12 -3.35519 -4.00281 0
M  V30 11851 H 1127.81 -2.12808 -2.10602 0
M  V30 11852 H 1125.36 -1.02454 -1.01189 0
M  V30 11853 H 1127.31 -0.785954 -4.14006 0
M  V30 11854 H 1126.04 0.0959779 -3.26459 0
M  V30 11855 H 1124.69 -2.02622 -3.05516 0
M  V30 11856 H 1124.34 -0.500204 -5.00507 0
M  V30 11857 H 1124.04 -2.19921 -5.44893 0
M  V30 11858 H 1125.57 -1.40754 -5.94156 0
M  V30 11859 H 1126.98 -3.30119 -4.68716 0
M  V30 11860 H 1125.38 -4.0491 -4.42909 0
M  V30 11861 H 1126.45 -3.77597 -3.04218 0
M  V30 11862 N 1127.79 1.09952 -1.12909 0
M  V30 11863 C 1128.72 2.16257 -0.759305 0
M  V30 11864 C 1129.74 1.61355 0.216427 0
M  V30 11865 O 1130.92 1.785 -0.00297224 0
M  V30 11866 C 1128.02 3.38741 -0.103908 0
M  V30 11867 C 1127.2 4.23072 -1.11037 0
M  V30 11868 C 1126.26 5.23991 -0.481667 0
M  V30 11869 O 1125.28 5.57665 -1.14011 0
M  V30 11870 N 1126.48 5.75652 0.748698 0
M  V30 11871 H 1129.25 2.48588 -1.67405 0
M  V30 11872 H 1126.81 1.25617 -1.02137 0
M  V30 11873 H 1128.8 4.03362 0.328799 0
M  V30 11874 H 1127.37 3.04344 0.713677 0
M  V30 11875 H 1126.59 3.5467 -1.72054 0
M  V30 11876 H 1127.88 4.76244 -1.79078 0
M  V30 11877 H 1127.28 5.505 1.30253 0
M  V30 11878 H 1125.84 6.42033 1.12415 0
M  V30 11879 N 1129.27 0.921757 1.27833 0
M  V30 11880 C 1130.23 0.420978 2.25301 0
M  V30 11881 C 1131.23 -0.457158 1.54165 0
M  V30 11882 O 1132.42 -0.259079 1.72263 0
M  V30 11883 C 1129.55 -0.395501 3.38598 0
M  V30 11884 H 1130.75 1.28206 2.71115 0
M  V30 11885 H 1128.3 0.701893 1.39654 0
M  V30 11886 H 1129.03 -1.27565 2.98157 0
M  V30 11887 H 1128.82 0.234029 3.91401 0
M  V30 11888 H 1130.31 -0.736444 4.11055 0
M  V30 11889 N 1130.75 -1.41857 0.686609 0
M  V30 11890 C 1131.99 -2.01368 0.213801 0
M  V30 11891 C 1132.32 -1.5434 -1.18361 0
M  V30 11892 O 1131.58 -0.741447 -1.81111 0
M  V30 11893 C 1131.88 -3.56783 0.209951 0
M  V30 11894 C 1131.54 -4.23288 1.55365 0
M  V30 11895 C 1130.2 -4.41169 1.92154 0
M  V30 11896 C 1132.56 -4.6066 2.43807 0
M  V30 11897 C 1129.88 -4.93697 3.16986 0
M  V30 11898 C 1132.24 -5.14573 3.67963 0
M  V30 11899 C 1130.9 -5.30667 4.04906 0
M  V30 11900 H 1130.17 -0.736858 0.0782352 0
M  V30 11901 H 1132.82 -1.69879 0.88393 0
M  V30 11902 H 1131.12 -3.88009 -0.543712 0
M  V30 11903 H 1132.82 -4.00625 -0.173267 0
M  V30 11904 H 1129.41 -4.09738 1.2575 0
M  V30 11905 H 1133.59 -4.46507 2.16668 0
M  V30 11906 H 1128.85 -5.04342 3.45615 0
M  V30 11907 H 1133.02 -5.42473 4.36687 0
M  V30 11908 H 1130.65 -5.71133 5.01709 0
M  V30 11909 N 1132.22 -0.430739 -1.51599 0
M  V30 11910 C 1133.47 0.130424 -2.02981 0
M  V30 11911 C 1133.83 1.40956 -1.30954 0
M  V30 11912 O 1133.12 1.87081 -0.413696 0
M  V30 11913 C 1133.31 0.410694 -3.55032 0
M  V30 11914 C 1133.14 -0.839732 -4.4179 0
M  V30 11915 C 1131.91 -1.37132 -4.86336 0
M  V30 11916 C 1134.11 -1.72401 -4.84543 0
M  V30 11917 N 1132.09 -2.57497 -5.57287 0
M  V30 11918 C 1133.46 -2.77376 -5.54493 0
M  V30 11919 C 1135.52 -1.73921 -4.66536 0
M  V30 11920 C 1134.22 -3.83808 -6.08345 0
M  V30 11921 C 1136.25 -2.79285 -5.213 0
M  V30 11922 C 1135.61 -3.82979 -5.91191 0
M  V30 11923 H 1131.71 0.00873155 -0.781951 0
M  V30 11924 H 1134.29 -0.589932 -1.85548 0
M  V30 11925 H 1132.46 1.10009 -3.72495 0
M  V30 11926 H 1134.19 0.962635 -3.93085 0
M  V30 11927 H 1130.95 -0.926198 -4.64455 0
M  V30 11928 H 1131.37 -3.18515 -5.97392 0
M  V30 11929 H 1136.02 -0.950851 -4.11969 0
M  V30 11930 H 1133.73 -4.63487 -6.61971 0
M  V30 11931 H 1137.32 -2.81395 -5.09223 0
M  V30 11932 H 1136.2 -4.63169 -6.32807 0
M  V30 11933 N 1133.7 1.56767 -0.161869 0
M  V30 11934 C 1134.65 2.17502 0.772102 0
M  V30 11935 C 1135.62 1.11223 1.23364 0
M  V30 11936 O 1136.8 1.39332 1.30351 0
M  V30 11937 C 1133.94 2.81248 1.99984 0
M  V30 11938 C 1133.06 4.01962 1.58274 0
M  V30 11939 C 1132.19 4.53662 2.76341 0
M  V30 11940 C 1131.23 5.66807 2.31076 0
M  V30 11941 N 1130.37 6.13059 3.42203 0
M  V30 11942 H 1135.21 2.96971 0.247382 0
M  V30 11943 H 1132.75 1.46685 0.110382 0
M  V30 11944 H 1134.7 3.16359 2.7198 0
M  V30 11945 H 1133.33 2.04398 2.49842 0
M  V30 11946 H 1132.39 3.72733 0.759874 0
M  V30 11947 H 1133.7 4.83891 1.2104 0
M  V30 11948 H 1132.85 4.90905 3.56507 0
M  V30 11949 H 1131.59 3.7077 3.16829 0
M  V30 11950 H 1130.6 5.29125 1.49354 0
M  V30 11951 H 1131.82 6.51494 1.91657 0
M  V30 11952 H 1129.77 5.33099 3.82285 0
M  V30 11953 H 1129.68 6.89953 3.09033 0
M  V30 11954 H 1130.95 6.54951 4.22682 0
M  V30 11955 N 1135.18 -0.111886 1.57202 0
M  V30 11956 C 1136.13 -1.14287 1.97288 0
M  V30 11957 C 1137.11 -1.36686 0.848868 0
M  V30 11958 O 1138.31 -1.37659 1.11261 0
M  V30 11959 C 1135.44 -2.46759 2.38673 0
M  V30 11960 C 1134.52 -2.27805 3.57723 0
M  V30 11961 N 1134.91 -1.78679 4.73189 0
M  V30 11962 C 1133.21 -2.58435 3.63494 0
M  V30 11963 C 1133.91 -1.736 5.55192 0
M  V30 11964 N 1132.89 -2.18205 4.97883 0
M  V30 11965 H 1136.69 -0.755711 2.84018 0
M  V30 11966 H 1134.2 -0.31954 1.59225 0
M  V30 11967 H 1136.2 -3.21335 2.65611 0
M  V30 11968 H 1134.86 -2.86227 1.53311 0
M  V30 11969 H 1135.87 -1.48121 4.96267 0
M  V30 11970 H 1132.55 -3.0154 2.88755 0
M  V30 11971 H 1133.94 -1.36812 6.57824 0
M  V30 11972 N 1136.66 -1.52894 -0.382264 0
M  V30 11973 C 1137.91 -1.67933 -1.1244 0
M  V30 11974 C 1138.23 -0.425166 -1.90309 0
M  V30 11975 O 1137.5 0.560557 -1.87709 0
M  V30 11976 H 1136.08 -0.619047 -0.418079 0
M  V30 11977 H 1138.74 -1.90031 -0.432928 0
M  V30 11978 H 1137.84 -2.53285 -1.82355 0
M  V30 11979 N 1138.14 0.641106 -1.43971 0
M  V30 11980 C 1139.38 1.40291 -1.46445 0
M  V30 11981 C 1139.72 1.93978 -0.0929004 0
M  V30 11982 O 1138.99 1.73043 0.888043 0
M  V30 11983 C 1139.27 2.57551 -2.51673 0
M  V30 11984 C 1139.13 2.09279 -3.98149 0
M  V30 11985 C 1140.45 3.59752 -2.53508 0
M  V30 11986 H 1137.57 0.508771 -0.533218 0
M  V30 11987 H 1140.21 0.725767 -1.75592 0
M  V30 11988 H 1138.36 3.15319 -2.2695 0
M  V30 11989 H 1140.03 1.56418 -4.33971 0
M  V30 11990 H 1138.27 1.40545 -4.10402 0
M  V30 11991 H 1138.94 2.93655 -4.67409 0
M  V30 11992 H 1141.42 3.11766 -2.75574 0
M  V30 11993 H 1140.3 4.39332 -3.29057 0
M  V30 11994 H 1140.56 4.13156 -1.57335 0
M  V30 11995 N 1139.62 1.30703 0.880598 0
M  V30 11996 C 1140.55 1.1327 1.99255 0
M  V30 11997 C 1141.56 0.0747186 1.62628 0
M  V30 11998 O 1142.75 0.321169 1.75587 0
M  V30 11999 C 1139.85 0.706179 3.31461 0
M  V30 12000 C 1139.02 1.84687 3.96497 0
M  V30 12001 C 1138.08 1.40817 5.07008 0
M  V30 12002 O 1137.11 2.1161 5.28403 0
M  V30 12003 N 1138.31 0.289619 5.79777 0
M  V30 12004 H 1141.07 2.09043 2.14759 0
M  V30 12005 H 1138.64 1.22896 1.05395 0
M  V30 12006 H 1140.63 0.395617 4.02762 0
M  V30 12007 H 1139.2 -0.159631 3.12192 0
M  V30 12008 H 1138.42 2.32531 3.18312 0
M  V30 12009 H 1139.71 2.61117 4.36687 0
M  V30 12010 H 1139.1 -0.300177 5.64903 0
M  V30 12011 H 1137.66 0.0385346 6.51789 0
M  V30 12012 N 1141.09 -1.09351 1.1349 0
M  V30 12013 C 1142.34 -1.81812 0.898452 0
M  V30 12014 C 1142.67 -1.85525 -0.573959 0
M  V30 12015 O 1141.95 -1.32403 -1.42477 0
M  V30 12016 C 1142.23 -3.27921 1.48794 0
M  V30 12017 C 1142.08 -3.32476 3.02952 0
M  V30 12018 C 1143.4 -4.24625 1.15678 0
M  V30 12019 H 1140.52 -0.660074 0.327829 0
M  V30 12020 H 1143.16 -1.28091 1.40331 0
M  V30 12021 H 1141.31 -3.738 1.05858 0
M  V30 12022 H 1142.99 -2.94994 3.54649 0
M  V30 12023 H 1141.23 -2.72037 3.37903 0
M  V30 12024 H 1141.9 -4.35409 3.39298 0
M  V30 12025 H 1144.38 -3.87036 1.52781 0
M  V30 12026 H 1143.25 -5.25194 1.59571 0
M  V30 12027 H 1143.51 -4.42044 0.0705933 0
M  V30 12028 N 1142.57 -0.928524 -1.27343 0
M  V30 12029 C 1143.82 -0.579726 -1.94963 0
M  V30 12030 C 1144.17 0.869595 -1.71627 0
M  V30 12031 O 1143.47 1.61223 -1.03526 0
M  V30 12032 C 1143.66 -0.84269 -3.47323 0
M  V30 12033 C 1143.49 -2.31602 -3.85474 0
M  V30 12034 C 1142.26 -2.96888 -4.08884 0
M  V30 12035 C 1144.46 -3.2936 -3.95002 0
M  V30 12036 N 1142.44 -4.34365 -4.33821 0
M  V30 12037 C 1143.81 -4.5205 -4.24324 0
M  V30 12038 C 1145.86 -3.24557 -3.7758 0
M  V30 12039 C 1144.57 -5.70539 -4.38038 0
M  V30 12040 C 1146.59 -4.4236 -3.9252 0
M  V30 12041 C 1145.96 -5.63828 -4.22229 0
M  V30 12042 H 1142.05 -0.262279 -0.736705 0
M  V30 12043 H 1144.64 -1.19531 -1.53689 0
M  V30 12044 H 1142.81 -0.256254 -3.87554 0
M  V30 12045 H 1144.54 -0.456438 -4.02118 0
M  V30 12046 H 1141.3 -2.47555 -4.03749 0
M  V30 12047 H 1141.72 -5.05488 -4.50345 0
M  V30 12048 H 1146.36 -2.31713 -3.53651 0
M  V30 12049 H 1144.08 -6.63849 -4.60793 0
M  V30 12050 H 1147.67 -4.40162 -3.80458 0
M  V30 12051 H 1146.55 -6.53463 -4.33539 0
M  V30 12052 N 1144.05 1.41491 -0.694123 0
M  V30 12053 C 1145.01 2.2917 -0.0368562 0
M  V30 12054 C 1146.01 1.44305 0.709426 0
M  V30 12055 O 1147.2 1.6547 0.544533 0
M  V30 12056 C 1144.33 3.27156 0.958201 0
M  V30 12057 H 1145.53 2.88787 -0.808829 0
M  V30 12058 H 1143.08 1.49453 -0.457538 0
M  V30 12059 H 1143.82 2.72516 1.75799 0
M  V30 12060 H 1143.6 3.89776 0.426227 0
M  V30 12061 H 1145.09 3.92863 1.41592 0
M  V30 12062 N 1145.53 0.438773 1.51369 0
M  V30 12063 C 1146.46 -0.362467 2.3067 0
M  V30 12064 C 1147.44 -1.01973 1.36145 0
M  V30 12065 O 1148.62 -1.0231 1.65065 0
M  V30 12066 C 1145.75 -1.46313 3.14976 0
M  V30 12067 C 1144.71 -0.929272 4.1779 0
M  V30 12068 C 1144.03 -2.12579 4.90627 0
M  V30 12069 C 1145.33 0.0372782 5.22287 0
M  V30 12070 H 1147.03 0.29931 2.979 0
M  V30 12071 H 1144.57 0.14539 1.43264 0
M  V30 12072 H 1146.53 -2.03088 3.69233 0
M  V30 12073 H 1145.25 -2.15321 2.45569 0
M  V30 12074 H 1143.91 -0.383722 3.64586 0
M  V30 12075 H 1143.56 -2.8021 4.17722 0
M  V30 12076 H 1143.26 -1.77496 5.60151 0
M  V30 12077 H 1144.78 -2.69905 5.47708 0
M  V30 12078 H 1146.2 -0.44022 5.71607 0
M  V30 12079 H 1144.59 0.300748 5.99346 0
M  V30 12080 H 1145.66 0.973503 4.75027 0
M  V30 12081 N 1147.01 -1.56678 0.170181 0
M  V30 12082 C 1148.25 -1.9646 -0.474125 0
M  V30 12083 C 1148.57 -1.05719 -1.63855 0
M  V30 12084 O 1147.84 -0.123316 -1.95511 0
M  V30 12085 H 1146.42 -0.725446 -0.178149 0
M  V30 12086 H 1149.09 -1.93276 0.251099 0
M  V30 12087 H 1148.18 -3.00726 -0.834894 0
M  V30 12088 N 1148.48 0.103547 -1.57259 0
M  V30 12089 C 1149.71 0.82624 -1.90232 0
M  V30 12090 C 1150.13 1.71902 -0.763641 0
M  V30 12091 O 1149.49 1.79043 0.285181 0
M  V30 12092 C 1149.54 1.62265 -3.22029 0
M  V30 12093 O 1148.64 2.73091 -3.09023 0
M  V30 12094 H 1147.98 0.227528 -0.6238 0
M  V30 12095 H 1150.51 0.081307 -2.04438 0
M  V30 12096 H 1150.52 2.00865 -3.5513 0
M  V30 12097 H 1149.2 0.967383 -4.04493 0
M  V30 12098 H 1147.78 2.3758 -2.8742 0
M  V30 12099 N 1149.96 1.53094 0.37415 0
M  V30 12100 C 1151.24 1.59456 1.13283 0
M  V30 12101 C 1151.62 0.396821 2.07337 0
M  V30 12102 O 1150.97 -0.613659 2.20106 0
M  V30 12103 C 1151.18 2.94069 1.87948 0
M  V30 12104 C 1152.52 3.4834 2.42785 0
M  V30 12105 O 1153.55 2.96042 1.98085 0
M  V30 12106 O 1152.41 4.39747 3.24477 0
M  V30 12107 H 1149.5 0.643731 0.519171 0
M  V30 12108 H 1152.05 1.65434 0.378105 0
M  V30 12109 H 1150.82 3.72685 1.19255 0
M  V30 12110 H 1150.44 2.91544 2.70348 0
M  V30 12111 N 1151.44 -0.633461 1.44309 0
M  V30 12112 C 1152.37 -1.75868 1.4698 0
M  V30 12113 C 1153.38 -1.58691 0.363469 0
M  V30 12114 O 1154.57 -1.67048 0.629075 0
M  V30 12115 C 1151.67 -3.1356 1.28582 0
M  V30 12116 C 1150.85 -3.57217 2.52418 0
M  V30 12117 C 1149.91 -4.73779 2.28954 0
M  V30 12118 O 1148.93 -4.8221 3.02428 0
M  V30 12119 N 1150.13 -5.65324 1.31866 0
M  V30 12120 H 1152.9 -1.74048 2.43983 0
M  V30 12121 H 1150.46 -0.817952 1.39718 0
M  V30 12122 H 1152.45 -3.89255 1.10736 0
M  V30 12123 H 1151.02 -3.10036 0.399529 0
M  V30 12124 H 1150.24 -2.71755 2.85557 0
M  V30 12125 H 1151.53 -3.83136 3.3479 0
M  V30 12126 H 1150.93 -5.61204 0.71179 0
M  V30 12127 H 1149.48 -6.40659 1.19998 0
M  V30 12128 N 1152.92 -1.31168 -0.873655 0
M  V30 12129 C 1153.85 -1.21094 -1.99646 0
M  V30 12130 C 1154.83 -0.0989684 -1.69812 0
M  V30 12131 O 1156.01 -0.282939 -1.92128 0
M  V30 12132 C 1153.14 -0.913684 -3.35066 0
M  V30 12133 C 1152.1 -1.98482 -3.79195 0
M  V30 12134 C 1151.42 -1.54033 -5.12033 0
M  V30 12135 C 1152.72 -3.39745 -3.96699 0
M  V30 12136 H 1154.42 -2.1503 -2.08333 0
M  V30 12137 H 1151.96 -1.03521 -1.00097 0
M  V30 12138 H 1153.92 -0.829821 -4.13149 0
M  V30 12139 H 1152.64 0.0613471 -3.26542 0
M  V30 12140 H 1151.3 -2.05851 -3.03349 0
M  V30 12141 H 1150.95 -0.553261 -4.99948 0
M  V30 12142 H 1150.65 -2.25688 -5.4253 0
M  V30 12143 H 1152.17 -1.47047 -5.92629 0
M  V30 12144 H 1153.59 -3.35071 -4.65188 0
M  V30 12145 H 1151.98 -4.09585 -4.38589 0
M  V30 12146 H 1153.05 -3.80802 -3.00196 0
M  V30 12147 N 1154.4 1.08748 -1.14068 0
M  V30 12148 C 1155.33 2.17591 -0.84714 0
M  V30 12149 C 1156.31 1.68962 0.196415 0
M  V30 12150 O 1157.49 1.94125 0.0538415 0
M  V30 12151 C 1154.62 3.45823 -0.320005 0
M  V30 12152 C 1153.58 4.07824 -1.2986 0
M  V30 12153 C 1152.9 5.30965 -0.630925 0
M  V30 12154 C 1154.2 4.49512 -2.65963 0
M  V30 12155 H 1155.9 2.42404 -1.75729 0
M  V30 12156 H 1153.44 1.16502 -0.846356 0
M  V30 12157 H 1155.4 4.21276 -0.102271 0
M  V30 12158 H 1154.12 3.20553 0.625561 0
M  V30 12159 H 1152.78 3.34398 -1.50245 0
M  V30 12160 H 1152.43 5.01979 0.320337 0
M  V30 12161 H 1152.13 5.73402 -1.28388 0
M  V30 12162 H 1153.65 6.09136 -0.422635 0
M  V30 12163 H 1155.06 5.16159 -2.49506 0
M  V30 12164 H 1153.46 5.02857 -3.27498 0
M  V30 12165 H 1154.53 3.6157 -3.23102 0
M  V30 12166 N 1155.87 0.935264 1.26849 0
M  V30 12167 C 1156.81 0.397539 2.25726 0
M  V30 12168 C 1157.82 -0.475928 1.55688 0
M  V30 12169 O 1159.01 -0.287329 1.76172 0
M  V30 12170 C 1156.11 -0.448308 3.35922 0
M  V30 12171 C 1155.28 0.407624 4.35496 0
M  V30 12172 C 1154.34 -0.376815 5.24849 0
M  V30 12173 O 1153.37 0.218109 5.68782 0
M  V30 12174 N 1154.57 -1.67481 5.55815 0
M  V30 12175 H 1157.33 1.24753 2.72501 0
M  V30 12176 H 1154.89 0.803505 1.40554 0
M  V30 12177 H 1156.89 -0.980338 3.92647 0
M  V30 12178 H 1155.46 -1.19908 2.88688 0
M  V30 12179 H 1154.68 1.12091 3.77928 0
M  V30 12180 H 1155.96 0.992512 4.99026 0
M  V30 12181 H 1155.36 -2.18037 5.21993 0
M  V30 12182 H 1153.92 -2.15321 6.15207 0
M  V30 12183 N 1157.35 -1.41121 0.701616 0
M  V30 12184 C 1158.26 -2.34565 0.0407815 0
M  V30 12185 C 1159.28 -1.56555 -0.75937 0
M  V30 12186 O 1160.45 -1.89008 -0.695542 0
M  V30 12187 C 1157.52 -3.35347 -0.879954 0
M  V30 12188 C 1156.58 -4.29241 -0.0713279 0
M  V30 12189 C 1155.81 -5.25209 -0.948211 0
M  V30 12190 O 1156.04 -5.26781 -2.18766 0
M  V30 12191 O 1154.97 -6.00605 -0.394657 0
M  V30 12192 H 1158.8 -2.92666 0.811188 0
M  V30 12193 H 1156.38 -1.42077 0.461991 0
M  V30 12194 H 1158.26 -3.9719 -1.40776 0
M  V30 12195 H 1156.94 -2.7968 -1.62975 0
M  V30 12196 H 1155.85 -3.70727 0.50122 0
M  V30 12197 H 1157.18 -4.88022 0.639935 0
M  V30 12198 N 1158.83 -0.446794 -1.51134 0
M  V30 12199 C 1159.76 0.350229 -2.30858 0
M  V30 12200 C 1160.74 1.0125 -1.36684 0
M  V30 12201 O 1161.93 1.01433 -1.65605 0
M  V30 12202 C 1159.06 1.4464 -3.15748 0
M  V30 12203 C 1158.01 0.907102 -4.18277 0
M  V30 12204 C 1157.34 2.09974 -4.91747 0
M  V30 12205 C 1158.64 -0.0649758 -5.2226 0
M  V30 12206 H 1160.33 -0.315105 -2.97737 0
M  V30 12207 H 1157.88 -0.152985 -1.43185 0
M  V30 12208 H 1159.83 2.01127 -3.70305 0
M  V30 12209 H 1158.55 2.14016 -2.46708 0
M  V30 12210 H 1157.21 0.364382 -3.64785 0
M  V30 12211 H 1156.86 2.77991 -4.19202 0
M  V30 12212 H 1156.56 1.74523 -5.61084 0
M  V30 12213 H 1158.08 2.66996 -5.49131 0
M  V30 12214 H 1159.5 0.4099 -5.71833 0
M  V30 12215 H 1157.9 -0.332529 -5.99178 0
M  V30 12216 H 1158.97 -0.998681 -4.74504 0
M  V30 12217 N 1160.31 1.56586 -0.178487 0
M  V30 12218 C 1161.72 1.58609 0.17759 0
M  V30 12219 C 1161.92 1.19411 1.62306 0
M  V30 12220 O 1160.98 0.90906 2.35568 0
M  V30 12221 C 1162.29 3.005 -0.109722 0
M  V30 12222 C 1163.84 3.12962 -0.0485036 0
M  V30 12223 C 1164.32 4.56957 -0.308901 0
M  V30 12224 N 1165.81 4.62487 -0.25693 0
M  V30 12225 C 1166.54 5.71767 -0.432488 0
M  V30 12226 N 1166.04 6.89577 -0.667494 0
M  V30 12227 N 1167.83 5.60895 -0.367895 0
M  V30 12228 H 1159.98 1.80351 -1.12193 0
M  V30 12229 H 1162.25 0.83623 -0.446569 0
M  V30 12230 H 1161.95 3.3368 -1.11133 0
M  V30 12231 H 1161.83 3.72472 0.595373 0
M  V30 12232 H 1164.21 2.79604 0.943687 0
M  V30 12233 H 1164.29 2.43411 -0.78642 0
M  V30 12234 H 1163.94 4.91025 -1.29833 0
M  V30 12235 H 1163.87 5.24676 0.449711 0
M  V30 12236 H 1166.36 3.77813 -0.0812308 0
M  V30 12237 H 1166.67 7.68744 -0.79071 0
M  V30 12238 H 1165.02 6.91423 -0.704193 0
M  V30 12239 H 1168.21 4.67735 -0.184837 0
M  V30 12240 H 1168.38 6.46005 -0.508138 0
M  V30 12241 N 1161.79 -0.095206 1.57312 0
M  V30 12242 C 1163.06 -0.830388 1.77099 0
M  V30 12243 C 1163.44 -1.9694 0.760121 0
M  V30 12244 O 1162.79 -2.2752 -0.211403 0
M  V30 12245 C 1163 -1.32507 3.22867 0
M  V30 12246 C 1164.35 -1.7679 3.86045 0
M  V30 12247 O 1165.37 -1.42131 3.26615 0
M  V30 12248 O 1164.23 -2.40876 4.90552 0
M  V30 12249 H 1161.33 -0.396083 0.72598 0
M  V30 12250 H 1163.87 -0.0770965 1.69525 0
M  V30 12251 H 1162.64 -0.508992 3.87975 0
M  V30 12252 H 1162.27 -2.14037 3.35073 0
M  V30 12253 N 1163.26 -1.53291 -0.366026 0
M  V30 12254 C 1164.68 -1.61144 -0.942849 0
M  V30 12255 C 1165.03 -0.478571 -1.90274 0
M  V30 12256 O 1164.15 0.395069 -2.12763 0
M  V30 12257 C 1164.75 -2.92081 -1.71681 0
M  V30 12258 C 1163.31 -3.0227 -2.24298 0
M  V30 12259 C 1162.45 -2.56436 -1.05526 0
M  V30 12260 H 1165.4 -1.58038 -0.144835 0
M  V30 12261 H 1165.42 -2.79858 -2.57798 0
M  V30 12262 H 1164.94 -3.74513 -1.01793 0
M  V30 12263 H 1163.04 -2.24425 -2.97429 0
M  V30 12264 H 1163.15 -4.07341 -2.5221 0
M  V30 12265 H 1161.51 -2.11301 -1.42211 0
M  V30 12266 H 1162.3 -3.41285 -0.371376 0
M  V30 12267 N 1164.74 0.6258 -1.44643 0
M  V30 12268 C 1165.97 1.41233 -1.51198 0
M  V30 12269 C 1166.39 1.88291 -0.138572 0
M  V30 12270 O 1165.74 1.61151 0.856537 0
M  V30 12271 C 1165.79 2.62908 -2.48117 0
M  V30 12272 O 1165.51 2.1781 -3.80119 0
M  V30 12273 C 1167.02 3.55976 -2.6419 0
M  V30 12274 H 1164.24 0.432954 -0.512632 0
M  V30 12275 H 1166.78 0.76486 -1.89658 0
M  V30 12276 H 1164.93 3.23735 -2.12778 0
M  V30 12277 H 1165.35 2.96732 -4.32493 0
M  V30 12278 H 1166.82 4.37943 -3.3602 0
M  V30 12279 H 1167.3 4.05133 -1.696 0
M  V30 12280 H 1167.91 3.01014 -3.00451 0
M  V30 12281 N 1166.22 1.31629 0.866686 0
M  V30 12282 C 1167.15 1.22151 1.99001 0
M  V30 12283 C 1168.13 0.107972 1.69757 0
M  V30 12284 O 1169.32 0.293125 1.91975 0
M  V30 12285 C 1166.45 0.93144 3.34577 0
M  V30 12286 C 1165.4 2.0049 3.78137 0
M  V30 12287 C 1164.73 1.56747 5.11209 0
M  V30 12288 C 1166.03 3.41844 3.94892 0
M  V30 12289 H 1167.72 2.16132 2.0719 0
M  V30 12290 H 1165.27 1.04051 0.995463 0
M  V30 12291 H 1167.22 0.851719 4.12703 0
M  V30 12292 H 1165.94 -0.0440289 3.2657 0
M  V30 12293 H 1164.6 2.07457 3.02253 0
M  V30 12294 H 1164.25 0.579767 4.99648 0
M  V30 12295 H 1163.95 2.28562 5.41326 0
M  V30 12296 H 1165.47 1.50188 5.91841 0
M  V30 12297 H 1166.89 3.37534 4.63405 0
M  V30 12298 H 1165.29 4.11905 4.36411 0
M  V30 12299 H 1166.36 3.82389 2.98172 0
M  V30 12300 N 1167.7 -1.08142 1.14644 0
M  V30 12301 C 1168.93 -1.84318 0.939926 0
M  V30 12302 C 1169.34 -1.81735 -0.511636 0
M  V30 12303 O 1168.7 -1.22297 -1.35461 0
M  V30 12304 C 1168.75 -3.31744 1.43625 0
M  V30 12305 O 1168.47 -3.3435 2.83094 0
M  V30 12306 C 1169.97 -4.24717 1.27007 0
M  V30 12307 H 1167.19 -0.581781 0.334323 0
M  V30 12308 H 1169.74 -1.36561 1.52221 0
M  V30 12309 H 1167.89 -3.7688 0.896664 0
M  V30 12310 H 1168.31 -4.26399 3.05425 0
M  V30 12311 H 1169.78 -5.26262 1.66591 0
M  V30 12312 H 1170.26 -4.38682 0.213257 0
M  V30 12313 H 1170.86 -3.85409 1.79833 0
M  V30 12314 N 1169.18 -0.941978 -1.26351 0
M  V30 12315 C 1170.42 -0.589971 -1.93715 0
M  V30 12316 C 1170.75 0.871085 -1.73903 0
M  V30 12317 O 1170.01 1.63864 -1.06991 0
M  V30 12318 C 1170.31 -0.879481 -3.4641 0
M  V30 12319 C 1169.97 -2.32454 -3.86362 0
M  V30 12320 C 1168.63 -2.71957 -3.9698 0
M  V30 12321 C 1170.99 -3.2636 -4.06373 0
M  V30 12322 C 1168.31 -4.04459 -4.25006 0
M  V30 12323 C 1170.67 -4.58459 -4.35887 0
M  V30 12324 C 1169.33 -4.97775 -4.4472 0
M  V30 12325 H 1168.6 -0.215886 -0.708854 0
M  V30 12326 H 1171.25 -1.18863 -1.50146 0
M  V30 12327 H 1169.55 -0.198289 -3.91298 0
M  V30 12328 H 1171.25 -0.585887 -3.96697 0
M  V30 12329 H 1167.84 -2.00814 -3.78645 0
M  V30 12330 H 1172.02 -2.97037 -3.97596 0
M  V30 12331 H 1167.28 -4.34582 -4.30057 0
M  V30 12332 H 1171.45 -5.31213 -4.50317 0
M  V30 12333 H 1169.08 -6.00475 -4.66191 0
M  V30 12334 N 1170.66 1.40747 -0.709091 0
M  V30 12335 C 1172.07 1.54961 -0.381989 0
M  V30 12336 C 1172.27 1.68181 1.10985 0
M  V30 12337 O 1171.33 1.66776 1.89584 0
M  V30 12338 C 1172.64 2.78156 -1.14236 0
M  V30 12339 C 1174.19 2.91967 -1.12803 0
M  V30 12340 C 1174.66 4.18066 -1.87042 0
M  V30 12341 N 1176.15 4.25052 -1.84078 0
M  V30 12342 C 1176.89 5.21514 -2.38349 0
M  V30 12343 N 1176.39 6.23924 -3.01149 0
M  V30 12344 N 1178.18 5.13548 -2.28528 0
M  V30 12345 H 1170.33 1.30412 -1.6765 0
M  V30 12346 H 1172.59 0.630147 -0.70825 0
M  V30 12347 H 1172.3 2.74643 -2.19691 0
M  V30 12348 H 1172.17 3.70074 -0.729731 0
M  V30 12349 H 1174.56 2.94987 -0.0816956 0
M  V30 12350 H 1174.64 2.01185 -1.57982 0
M  V30 12351 H 1174.28 4.15808 -2.91662 0
M  V30 12352 H 1174.21 5.07845 -1.39287 0
M  V30 12353 H 1176.71 3.51682 -1.38305 0
M  V30 12354 H 1177.02 6.93942 -3.40094 0
M  V30 12355 H 1175.36 6.24387 -3.05231 0
M  V30 12356 H 1178.55 4.3247 -1.79129 0
M  V30 12357 H 1178.73 5.88553 -2.71126 0
M  V30 12358 N 1172.13 0.454803 1.50895 0
M  V30 12359 C 1173.06 -0.337982 2.31041 0
M  V30 12360 C 1174.04 -1.00523 1.37219 0
M  V30 12361 O 1175.23 -1.00553 1.66141 0
M  V30 12362 C 1172.36 -1.42964 3.1651 0
M  V30 12363 C 1171.31 -0.884907 4.18752 0
M  V30 12364 C 1170.64 -2.07363 4.92854 0
M  V30 12365 C 1171.94 0.0926716 5.22218 0
M  V30 12366 H 1173.63 0.33089 2.97566 0
M  V30 12367 H 1171.18 0.160577 1.43102 0
M  V30 12368 H 1173.13 -1.9916 3.71367 0
M  V30 12369 H 1171.86 -2.12705 2.47839 0
M  V30 12370 H 1170.52 -0.345031 3.64973 0
M  V30 12371 H 1170.16 -2.75764 4.2067 0
M  V30 12372 H 1169.86 -1.71545 5.62002 0
M  V30 12373 H 1171.39 -2.6408 5.5054 0
M  V30 12374 H 1172.8 -0.379568 5.72042 0
M  V30 12375 H 1171.2 0.3643 5.98993 0
M  V30 12376 H 1172.27 1.02383 4.73968 0
M  V30 12377 N 1173.61 -1.56489 0.186789 0
M  V30 12378 C 1174.54 -2.21705 -0.732739 0
M  V30 12379 C 1175.52 -1.17751 -1.22755 0
M  V30 12380 O 1176.71 -1.46231 -1.27789 0
M  V30 12381 C 1173.84 -2.86992 -1.95584 0
M  V30 12382 C 1172.79 -3.97118 -1.59628 0
M  V30 12383 C 1172.12 -4.49529 -2.89531 0
M  V30 12384 C 1173.42 -5.15941 -0.812518 0
M  V30 12385 H 1175.11 -2.98802 -0.189094 0
M  V30 12386 H 1172.66 -1.43722 -0.0895099 0
M  V30 12387 H 1174.61 -3.31295 -2.60426 0
M  V30 12388 H 1173.33 -2.07287 -2.52388 0
M  V30 12389 H 1171.99 -3.53494 -0.971475 0
M  V30 12390 H 1171.64 -3.66596 -3.44407 0
M  V30 12391 H 1171.34 -5.23832 -2.66221 0
M  V30 12392 H 1172.87 -4.96528 -3.55376 0
M  V30 12393 H 1174.28 -5.56841 -1.36386 0
M  V30 12394 H 1172.68 -5.96259 -0.677862 0
M  V30 12395 H 1173.75 -4.84535 0.188095 0
M  V30 12396 N 1175.09 0.086862 -1.5736 0
M  V30 12397 C 1176.34 0.787281 -1.86135 0
M  V30 12398 C 1176.66 1.78866 -0.776667 0
M  V30 12399 O 1175.93 1.94915 0.19625 0
M  V30 12400 H 1174.51 0.293744 -0.686821 0
M  V30 12401 H 1177.17 0.0665326 -1.94786 0
M  V30 12402 H 1176.27 1.3128 -2.83147 0
M  V30 12403 N 1176.57 1.53483 0.357892 0
M  V30 12404 C 1177.79 1.74264 1.12458 0
M  V30 12405 C 1178.22 0.473944 1.82031 0
M  V30 12406 O 1177.58 -0.57253 1.72023 0
M  V30 12407 C 1177.62 2.91356 2.12471 0
M  V30 12408 O 1176.73 2.60502 3.19707 0
M  V30 12409 H 1176.07 0.578499 0.325937 0
M  V30 12410 H 1178.6 2.00395 0.412666 0
M  V30 12411 H 1178.61 3.1774 2.5594 0
M  V30 12412 H 1177.28 3.83378 1.61226 0
M  V30 12413 H 1175.86 2.44961 2.81156 0
M  V30 12414 N 1178.05 -0.61812 1.44973 0
M  V30 12415 C 1179.46 -1.19994 1.43033 0
M  V30 12416 C 1179.81 -1.95607 0.152422 0
M  V30 12417 O 1178.93 -2.03114 -0.746571 0
M  V30 12418 C 1179.53 -2.18269 2.59122 0
M  V30 12419 C 1178.09 -2.7185 2.60336 0
M  V30 12420 C 1177.23 -1.4707 2.35086 0
M  V30 12421 H 1180.18 -0.408034 1.53365 0
M  V30 12422 H 1180.21 -3.01113 2.32619 0
M  V30 12423 H 1179.72 -1.63208 3.52115 0
M  V30 12424 H 1177.82 -3.30878 1.7132 0
M  V30 12425 H 1177.93 -3.17001 3.59231 0
M  V30 12426 H 1176.3 -1.75658 1.84435 0
M  V30 12427 H 1177.08 -0.938928 3.30211 0
M  V30 12428 N 1179.52 -1.32087 -0.859693 0
M  V30 12429 C 1180.94 -1.10968 -1.14709 0
M  V30 12430 C 1181.14 0.113139 -2.01182 0
M  V30 12431 O 1180.2 0.799499 -2.39508 0
M  V30 12432 C 1181.51 -2.38657 -1.8293 0
M  V30 12433 C 1183.06 -2.44366 -1.95587 0
M  V30 12434 C 1183.53 -3.71963 -2.67222 0
M  V30 12435 N 1185.02 -3.72916 -2.7475 0
M  V30 12436 C 1185.76 -4.68346 -3.30816 0
M  V30 12437 N 1185.25 -5.74139 -3.87732 0
M  V30 12438 N 1187.05 -4.55851 -3.28872 0
M  V30 12439 H 1179.2 -2.10497 -0.283711 0
M  V30 12440 H 1181.46 -0.929108 -0.188315 0
M  V30 12441 H 1181.17 -3.2803 -1.26844 0
M  V30 12442 H 1181.04 -2.49236 -2.83128 0
M  V30 12443 H 1183.43 -1.55456 -2.50833 0
M  V30 12444 H 1183.51 -2.37744 -0.944001 0
M  V30 12445 H 1183.15 -4.61245 -2.1264 0
M  V30 12446 H 1183.08 -3.75855 -3.68837 0
M  V30 12447 H 1185.57 -2.96447 -2.34367 0
M  V30 12448 H 1185.89 -6.43021 -4.28654 0
M  V30 12449 H 1184.23 -5.779 -3.86078 0
M  V30 12450 H 1187.42 -3.72371 -2.83651 0
M  V30 12451 H 1187.6 -5.30398 -3.72266 0
M  V30 12452 N 1181 1.07532 -1.15215 0
M  V30 12453 C 1181.93 2.1668 -0.870171 0
M  V30 12454 C 1182.91 1.69161 0.178483 0
M  V30 12455 O 1184.1 1.94172 0.0332489 0
M  V30 12456 C 1181.23 3.45464 -0.356666 0
M  V30 12457 C 1180.18 4.06424 -1.34179 0
M  V30 12458 C 1179.51 5.30266 -0.687206 0
M  V30 12459 C 1180.81 4.46666 -2.70715 0
M  V30 12460 H 1182.5 2.40526 -1.7829 0
M  V30 12461 H 1180.05 1.15598 -0.858665 0
M  V30 12462 H 1182 4.21144 -0.146947 0
M  V30 12463 H 1180.72 3.21199 0.591527 0
M  V30 12464 H 1179.38 3.32786 -1.53783 0
M  V30 12465 H 1179.03 5.0229 0.267077 0
M  V30 12466 H 1178.73 5.72009 -1.34462 0
M  V30 12467 H 1180.26 6.08653 -0.487218 0
M  V30 12468 H 1181.67 5.13483 -2.54966 0
M  V30 12469 H 1180.07 4.99355 -3.32813 0
M  V30 12470 H 1181.14 3.58123 -3.26919 0
M  V30 12471 N 1182.48 0.948665 1.2585 0
M  V30 12472 C 1183.39 0.470525 2.29833 0
M  V30 12473 C 1184.41 -0.45919 1.67832 0
M  V30 12474 O 1185.58 -0.336893 1.98562 0
M  V30 12475 C 1182.65 -0.249635 3.458 0
M  V30 12476 C 1181.71 0.717559 4.23261 0
M  V30 12477 C 1180.94 0.0316724 5.33691 0
M  V30 12478 O 1181.16 -1.18384 5.5798 0
M  V30 12479 O 1180.1 0.71418 5.97648 0
M  V30 12480 H 1183.92 1.33447 2.72811 0
M  V30 12481 H 1181.51 0.714864 1.31187 0
M  V30 12482 H 1183.39 -0.654993 4.16279 0
M  V30 12483 H 1182.07 -1.08885 3.04837 0
M  V30 12484 H 1180.97 1.17301 3.55234 0
M  V30 12485 H 1182.31 1.52461 4.67992 0
M  V30 12486 N 1183.96 -1.40369 0.716545 0
M  V30 12487 C 1185.2 -2.02728 0.2609 0
M  V30 12488 C 1185.56 -1.55591 -1.12496 0
M  V30 12489 O 1186.76 -2.1002 -1.67764 0
M  V30 12490 C 1185.03 -3.55789 0.338987 0
M  V30 12491 S 1186.59 -4.38782 -0.0395316 0
M  V30 12492 H 1183.41 -0.703437 0.103431 0
M  V30 12493 H 1186.01 -1.71474 0.938976 0
M  V30 12494 H 1184.72 -3.87587 1.34923 0
M  V30 12495 H 1184.25 -3.91772 -0.357536 0
M  V30 12496 H 1186.26 -4.79902 -1.26129 0
M  V30 12497 N 1185.44 -0.462799 -1.50652 0
M  V30 12498 C 1186.66 0.0952726 -2.07181 0
M  V30 12499 C 1187.09 1.33479 -1.32533 0
M  V30 12500 O 1186.44 1.77473 -0.370564 0
M  V30 12501 C 1186.49 0.370592 -3.58691 0
M  V30 12502 O 1185.6 1.4526 -3.85971 0
M  V30 12503 H 1184.94 -0.00932702 -0.663934 0
M  V30 12504 H 1187.47 -0.651458 -1.93951 0
M  V30 12505 H 1187.48 0.613551 -4.0336 0
M  V30 12506 H 1186.15 -0.535219 -4.12442 0
M  V30 12507 H 1184.73 1.1976 -3.53146 0
M  V30 12508 N 1186.91 1.56388 -0.195085 0
M  V30 12509 C 1188.16 1.97189 0.44281 0
M  V30 12510 C 1188.48 1.08312 1.62153 0
M  V30 12511 O 1187.75 0.154404 1.95291 0
M  V30 12512 H 1186.33 0.728188 0.166585 0
M  V30 12513 H 1189 1.92852 -0.281815 0
M  V30 12514 H 1188.09 3.02016 0.786945 0
M  V30 12515 N 1188.39 -0.0785156 1.57404 0
M  V30 12516 C 1189.62 -0.792042 1.9114 0
M  V30 12517 C 1190.04 -1.71458 0.790408 0
M  V30 12518 O 1189.39 -1.80959 -0.236662 0
M  V30 12519 C 1189.44 -1.59138 3.24588 0
M  V30 12520 O 1189.16 -0.705931 4.32375 0
M  V30 12521 C 1190.67 -2.4065 3.72293 0
M  V30 12522 H 1187.89 -0.225566 0.63195 0
M  V30 12523 H 1190.43 -0.0507929 2.04437 0
M  V30 12524 H 1188.58 -2.28498 3.12838 0
M  V30 12525 H 1189 -1.26121 5.09111 0
M  V30 12526 H 1190.47 -2.92204 4.68317 0
M  V30 12527 H 1190.95 -3.1987 3.00965 0
M  V30 12528 H 1191.56 -1.7646 3.86965 0
M  V30 12529 N 1189.87 -1.5367 -0.349747 0
M  V30 12530 C 1191.12 -1.69835 -1.08807 0
M  V30 12531 C 1191.43 -0.46497 -1.89993 0
M  V30 12532 O 1192.64 -0.507452 -2.66716 0
M  V30 12533 C 1191.09 -3.00294 -1.98372 0
M  V30 12534 C 1190.7 -4.30949 -1.22422 0
M  V30 12535 C 1192.45 -3.25826 -2.72099 0
M  V30 12536 C 1190.35 -5.52486 -2.1098 0
M  V30 12537 H 1189.28 -0.63284 -0.409915 0
M  V30 12538 H 1191.93 -1.80171 -0.347968 0
M  V30 12539 H 1190.32 -2.838 -2.76176 0
M  V30 12540 H 1191.49 -4.58126 -0.495707 0
M  V30 12541 H 1189.81 -4.11983 -0.604896 0
M  V30 12542 H 1192.4 -4.13817 -3.38615 0
M  V30 12543 H 1192.75 -2.42566 -3.3833 0
M  V30 12544 H 1193.28 -3.43067 -2.0137 0
M  V30 12545 H 1190.02 -6.38271 -1.49301 0
M  V30 12546 H 1189.54 -5.29566 -2.81638 0
M  V30 12547 H 1191.22 -5.87889 -2.70176 0
M  V30 12548 N 1191.35 0.610423 -1.45298 0
M  V30 12549 C 1192.57 1.40112 -1.52917 0
M  V30 12550 C 1193 1.87404 -0.161696 0
M  V30 12551 O 1192.36 1.59973 0.853135 0
M  V30 12552 C 1192.4 2.58359 -2.51561 0
M  V30 12553 O 1191.51 3.58895 -2.03146 0
M  V30 12554 H 1190.85 0.41841 -0.515586 0
M  V30 12555 H 1193.38 0.743159 -1.90626 0
M  V30 12556 H 1193.39 3.0564 -2.70275 0
M  V30 12557 H 1192.06 2.23286 -3.50879 0
M  V30 12558 H 1190.64 3.18282 -1.94296 0
M  V30 12559 N 1192.83 1.32541 0.852676 0
M  V30 12560 C 1194.24 1.20863 1.42299 0
M  V30 12561 C 1194.59 -0.178051 1.9539 0
M  V30 12562 O 1193.71 -1.07689 1.87702 0
M  V30 12563 C 1194.31 2.18811 2.58664 0
M  V30 12564 C 1192.87 2.11015 3.11689 0
M  V30 12565 C 1192.01 2.07067 1.84441 0
M  V30 12566 H 1194.97 1.44341 0.659657 0
M  V30 12567 H 1194.99 1.78779 3.35884 0
M  V30 12568 H 1194.5 3.19726 2.19993 0
M  V30 12569 H 1192.6 1.13354 3.54939 0
M  V30 12570 H 1192.71 3.00929 3.72799 0
M  V30 12571 H 1191.08 1.52335 2.04123 0
M  V30 12572 H 1191.86 3.09767 1.47984 0
M  V30 12573 N 1194.3 -1.0692 1.15784 0
M  V30 12574 C 1195.25 -2.12473 0.826994 0
M  V30 12575 C 1196.24 -1.59766 -0.19073 0
M  V30 12576 O 1197.43 -1.76998 0.00917115 0
M  V30 12577 C 1194.56 -3.41779 0.322847 0
M  V30 12578 C 1193.65 -4.01329 1.37098 0
M  V30 12579 N 1194.04 -4.35077 2.57957 0
M  V30 12580 C 1192.33 -4.28854 1.22475 0
M  V30 12581 C 1193.04 -4.82326 3.25171 0
M  V30 12582 N 1192.01 -4.81369 2.52556 0
M  V30 12583 H 1195.81 -2.36404 1.74614 0
M  V30 12584 H 1193.33 -1.244 1.04395 0
M  V30 12585 H 1195.32 -4.16845 0.0674576 0
M  V30 12586 H 1193.98 -3.19289 -0.590311 0
M  V30 12587 H 1195 -4.25626 2.95065 0
M  V30 12588 H 1191.67 -4.15841 0.371839 0
M  V30 12589 H 1193.06 -5.17695 4.28301 0
M  V30 12590 N 1195.78 -0.955326 -1.25345 0
M  V30 12591 C 1197.02 -0.618161 -1.94828 0
M  V30 12592 C 1197.39 0.829532 -1.73155 0
M  V30 12593 O 1198.59 1.27632 -2.36566 0
M  V30 12594 C 1196.86 -0.967887 -3.44045 0
M  V30 12595 S 1198.42 -0.743401 -4.32457 0
M  V30 12596 H 1195.24 -0.227189 -0.673726 0
M  V30 12597 H 1197.84 -1.22965 -1.51986 0
M  V30 12598 H 1196.54 -2.01864 -3.57322 0
M  V30 12599 H 1196.07 -0.346677 -3.9187 0
M  V30 12600 H 1198.09 0.385467 -4.94701 0
M  V30 12601 N 1197.26 1.39987 -0.723979 0
M  V30 12602 C 1198.21 2.32507 -0.0658033 0
M  V30 12603 C 1199.2 1.52484 0.737908 0
M  V30 12604 O 1200.41 1.68225 0.640332 0
M  V30 12605 H 1196.78 0.751996 -0.00247717 0
M  V30 12606 H 1198.76 2.85657 -0.862696 0
M  V30 12607 C 1197.5 3.37509 0.835628 0
M  V30 12608 H 1196.83 3.99157 0.226589 0
M  V30 12609 H 1198.27 4.04722 1.26396 0
M  V30 12610 C 1196.73 2.73665 1.96492 0
M  V30 12611 O 1197.26 2.60649 3.05655 0
M  V30 12612 N 1195.46 2.3192 1.75104 0
M  V30 12613 H 1195.01 2.42707 0.863204 0
M  V30 12614 H 1194.97 1.89542 2.50841 0
M  V30 12615 N 1198.74 0.470782 1.50404 0
M  V30 12616 C 1199.67 -0.313458 2.31386 0
M  V30 12617 C 1200.65 -0.990623 1.38278 0
M  V30 12618 O 1201.84 -0.987854 1.67198 0
M  V30 12619 C 1198.97 -1.39599 3.18009 0
M  V30 12620 C 1197.92 -0.840443 4.19667 0
M  V30 12621 C 1197.25 -2.02124 4.95025 0
M  V30 12622 C 1198.55 0.148055 5.2209 0
M  V30 12623 H 1200.24 0.362432 2.97198 0
M  V30 12624 H 1197.79 0.175745 1.42924 0
M  V30 12625 H 1199.74 -1.9521 3.73458 0
M  V30 12626 H 1198.46 -2.10064 2.50081 0
M  V30 12627 H 1197.12 -0.306302 3.65318 0
M  V30 12628 H 1196.77 -2.71286 4.23571 0
M  V30 12629 H 1196.47 -1.65574 5.6379 0
M  V30 12630 H 1197.99 -2.58226 5.5331 0
M  V30 12631 H 1199.41 -0.318874 5.72413 0
M  V30 12632 H 1197.8 0.427811 5.98573 0
M  V30 12633 H 1198.87 1.07404 4.72855 0
M  V30 12634 N 1200.22 -1.56282 0.203376 0
M  V30 12635 C 1201.15 -2.2247 -0.709183 0
M  V30 12636 C 1202.13 -1.19046 -1.21499 0
M  V30 12637 O 1203.31 -1.47578 -1.26231 0
M  V30 12638 C 1200.44 -2.8905 -1.92529 0
M  V30 12639 C 1199.4 -3.98789 -1.55407 0
M  V30 12640 C 1198.72 -4.52574 -2.84747 0
M  V30 12641 C 1200.02 -5.16774 -0.75775 0
M  V30 12642 H 1201.72 -2.98986 -0.157392 0
M  V30 12643 H 1199.26 -1.43808 -0.0742613 0
M  V30 12644 H 1201.22 -3.34038 -2.56898 0
M  V30 12645 H 1199.94 -2.09952 -2.50175 0
M  V30 12646 H 1198.6 -3.54504 -0.933928 0
M  V30 12647 H 1198.25 -3.70229 -3.40499 0
M  V30 12648 H 1197.95 -5.26627 -2.6065 0
M  V30 12649 H 1199.47 -5.00269 -3.5009 0
M  V30 12650 H 1200.89 -5.58256 -1.30472 0
M  V30 12651 H 1199.28 -5.96945 -0.614583 0
M  V30 12652 H 1200.35 -4.84308 0.239476 0
M  V30 12653 N 1201.7 0.070167 -1.57444 0
M  V30 12654 C 1202.63 1.08351 -2.06839 0
M  V30 12655 C 1203.61 1.40269 -0.962224 0
M  V30 12656 O 1204.79 1.49867 -1.23505 0
M  V30 12657 C 1201.92 2.39649 -2.51368 0
M  V30 12658 C 1200.88 2.22079 -3.65875 0
M  V30 12659 C 1200.2 3.58776 -3.96464 0
M  V30 12660 C 1201.5 1.64069 -4.95862 0
M  V30 12661 H 1203.2 0.672465 -2.9175 0
M  V30 12662 H 1200.74 0.322027 -1.40353 0
M  V30 12663 H 1202.69 3.10833 -2.84537 0
M  V30 12664 H 1201.42 2.82736 -1.63487 0
M  V30 12665 H 1200.08 1.53337 -3.32992 0
M  V30 12666 H 1199.73 3.99436 -3.05712 0
M  V30 12667 H 1199.43 3.47859 -4.7357 0
M  V30 12668 H 1200.95 4.31387 -4.32131 0
M  V30 12669 H 1202.36 2.2512 -5.27251 0
M  V30 12670 H 1200.76 1.63843 -5.773 0
M  V30 12671 H 1201.83 0.60232 -4.81145 0
M  V30 12672 N 1203.17 1.53854 0.341593 0
M  V30 12673 C 1204.58 1.62623 0.917093 0
M  V30 12674 C 1204.94 0.508781 1.89488 0
M  V30 12675 O 1204.06 -0.361171 2.13365 0
M  V30 12676 C 1204.66 2.94775 1.67012 0
M  V30 12677 C 1203.21 3.058 2.19461 0
M  V30 12678 C 1202.36 2.58082 1.01433 0
M  V30 12679 H 1205.31 1.58248 0.119674 0
M  V30 12680 H 1205.33 2.83924 2.53313 0
M  V30 12681 H 1204.85 3.76085 0.958221 0
M  V30 12682 H 1202.95 2.29128 2.93821 0
M  V30 12683 H 1203.06 4.11302 2.45698 0
M  V30 12684 H 1201.42 2.13537 1.38831 0
M  V30 12685 H 1202.21 3.41833 0.317033 0
M  V30 12686 N 1204.65 -0.602709 1.4562 0
M  V30 12687 C 1205.9 -1.35889 1.49595 0
M  V30 12688 C 1206.22 -1.9449 0.141002 0
M  V30 12689 O 1205.49 -1.77438 -0.830209 0
M  V30 12690 H 1204.07 -0.504478 0.550918 0
M  V30 12691 H 1206.73 -0.707376 1.8161 0
M  V30 12692 H 1205.83 -2.17583 2.2375 0
M  V30 12693 N 1206.13 -1.32992 -0.845635 0
M  V30 12694 C 1207.35 -1.27231 -1.6379 0
M  V30 12695 C 1207.78 0.155141 -1.87459 0
M  V30 12696 O 1207.14 1.10953 -1.43384 0
M  V30 12697 C 1207.19 -2.04629 -2.96916 0
M  V30 12698 O 1206.29 -1.40027 -3.879 0
M  V30 12699 H 1205.63 -0.438045 -0.499011 0
M  V30 12700 H 1208.16 -1.75448 -1.05257 0
M  V30 12701 H 1208.17 -2.15141 -3.46667 0
M  V30 12702 H 1206.85 -3.08425 -2.79011 0
M  V30 12703 H 1205.42 -1.38118 -3.46378 0
M  V30 12704 N 1207.61 1.06304 -1.1635 0
M  V30 12705 C 1208.83 1.83338 -0.969639 0
M  V30 12706 C 1209.26 1.81945 0.477231 0
M  V30 12707 O 1208.62 1.22018 1.34094 0
M  V30 12708 C 1208.66 3.2785 -1.50155 0
M  V30 12709 O 1207.77 4.06281 -0.707805 0
M  V30 12710 H 1207.11 0.567293 -0.345072 0
M  V30 12711 H 1209.64 1.34033 -1.54584 0
M  V30 12712 H 1209.65 3.7867 -1.51898 0
M  V30 12713 H 1208.32 3.28179 -2.55483 0
M  V30 12714 H 1206.9 3.65055 -0.760872 0
M  V30 12715 N 1209.09 0.96196 1.24836 0
M  V30 12716 C 1210.03 0.479282 2.27609 0
M  V30 12717 C 1211.03 -0.454224 1.63197 0
M  V30 12718 O 1212.23 -0.330146 1.76946 0
M  V30 12719 H 1208.61 0.13651 0.739506 0
M  V30 12720 H 1210.58 1.35817 2.657 0
M  V30 12721 C 1209.33 -0.220499 3.47 0
M  V30 12722 H 1208.65 0.488694 3.96802 0
M  V30 12723 H 1210.09 -0.522137 4.20773 0
M  V30 12724 C 1208.55 -1.44552 3.04313 0
M  V30 12725 O 1209.08 -2.54287 3.10967 0
M  V30 12726 N 1207.29 -1.3095 2.59423 0
M  V30 12727 H 1206.83 -0.416656 2.54208 0
M  V30 12728 H 1206.79 -2.13029 2.31227 0
M  V30 12729 N 1210.56 -1.39601 0.731392 0
M  V30 12730 C 1211.79 -2.05411 0.286532 0
M  V30 12731 C 1212.21 -1.54777 -1.06892 0
M  V30 12732 O 1211.57 -0.689942 -1.67659 0
M  V30 12733 C 1211.62 -3.594 0.293914 0
M  V30 12734 O 1210.72 -4.06072 -0.719657 0
M  V30 12735 H 1210.06 -0.650949 0.131004 0
M  V30 12736 H 1212.59 -1.78703 0.996305 0
M  V30 12737 H 1212.6 -4.0777 0.137052 0
M  V30 12738 H 1211.28 -3.95617 1.28298 0
M  V30 12739 H 1209.86 -3.69125 -0.529226 0
M  V30 12740 N 1212.04 -0.478751 -1.50152 0
M  V30 12741 C 1213.45 -0.0254907 -1.86683 0
M  V30 12742 C 1213.8 1.38171 -1.39295 0
M  V30 12743 O 1212.93 2.0257 -0.761207 0
M  V30 12744 C 1213.52 -0.0394819 -3.38777 0
M  V30 12745 C 1212.08 0.35834 -3.7469 0
M  V30 12746 C 1211.23 -0.421667 -2.74075 0
M  V30 12747 H 1214.18 -0.692653 -1.42787 0
M  V30 12748 H 1214.2 0.760957 -3.72813 0
M  V30 12749 H 1213.71 -1.06378 -3.73236 0
M  V30 12750 H 1211.82 1.38671 -3.45834 0
M  V30 12751 H 1211.93 0.0543589 -4.79069 0
M  V30 12752 H 1210.29 0.125634 -2.5439 0
M  V30 12753 H 1211.08 -1.44562 -3.11379 0
M  V30 12754 N 1213.52 1.56172 -0.211661 0
M  V30 12755 C 1214.48 2.18602 0.688906 0
M  V30 12756 C 1215.48 1.14508 1.12892 0
M  V30 12757 O 1216.67 1.39799 1.03932 0
M  V30 12758 C 1213.81 2.80141 1.94253 0
M  V30 12759 H 1215 2.9955 0.144765 0
M  V30 12760 H 1212.55 1.56254 0.0379615 0
M  V30 12761 H 1213.29 2.03035 2.52878 0
M  V30 12762 H 1213.07 3.56358 1.63558 0
M  V30 12763 H 1214.56 3.28026 2.58436 0
M  V30 12764 N 1215 -0.0618163 1.57479 0
M  V30 12765 C 1216.22 -0.775513 1.92355 0
M  V30 12766 C 1216.65 -1.69816 0.808949 0
M  V30 12767 O 1216.01 -1.79736 -0.23761 0
M  V30 12768 C 1216.05 -1.5367 3.26218 0
M  V30 12769 O 1215.16 -2.64802 3.16155 0
M  V30 12770 H 1214.5 -0.210909 0.629614 0
M  V30 12771 H 1217.03 -0.0270752 2.04582 0
M  V30 12772 H 1217.04 -1.91379 3.6033 0
M  V30 12773 H 1215.71 -0.859798 4.06916 0
M  V30 12774 H 1214.29 -2.29876 2.93618 0
M  V30 12775 N 1216.48 -1.54033 -0.333429 0
M  V30 12776 C 1217.44 -1.82021 -1.39288 0
M  V30 12777 C 1218.44 -0.691623 -1.45166 0
M  V30 12778 O 1219.63 -0.959925 -1.45365 0
M  V30 12779 C 1216.76 -1.97136 -2.78119 0
M  V30 12780 H 1217.95 -2.76671 -1.1573 0
M  V30 12781 H 1215.51 -1.45599 -0.568376 0
M  V30 12782 H 1216.24 -1.04663 -3.06946 0
M  V30 12783 H 1216.03 -2.79251 -2.75247 0
M  V30 12784 H 1217.52 -2.20271 -3.54782 0
M  V30 12785 N 1217.95 0.594978 -1.45938 0
M  V30 12786 C 1219.18 1.38482 -1.54394 0
M  V30 12787 C 1219.6 1.87222 -0.181563 0
M  V30 12788 O 1218.96 1.60869 0.836119 0
M  V30 12789 C 1219.01 2.55676 -2.54287 0
M  V30 12790 O 1218.11 3.5672 -2.06941 0
M  V30 12791 H 1217.46 0.412918 -0.519995 0
M  V30 12792 H 1219.99 0.722899 -1.91404 0
M  V30 12793 H 1220 3.02756 -2.73501 0
M  V30 12794 H 1218.67 2.19552 -3.53228 0
M  V30 12795 H 1217.25 3.16204 -1.97661 0
M  V30 12796 N 1219.43 1.33438 0.838571 0
M  V30 12797 C 1220.85 1.12779 1.12929 0
M  V30 12798 C 1221.05 -0.0811188 2.01337 0
M  V30 12799 O 1220.1 -0.761294 2.4075 0
M  V30 12800 C 1221.42 2.41537 1.7911 0
M  V30 12801 C 1222.97 2.47447 1.91674 0
M  V30 12802 C 1223.44 3.76167 2.6127 0
M  V30 12803 N 1224.93 3.7724 2.68783 0
M  V30 12804 C 1225.67 4.7355 3.23323 0
M  V30 12805 N 1225.16 5.80235 3.78549 0
M  V30 12806 N 1226.96 4.61025 3.21578 0
M  V30 12807 H 1219.11 2.10921 0.250187 0
M  V30 12808 H 1221.37 0.931986 0.17351 0
M  V30 12809 H 1221.08 3.30006 1.21609 0
M  V30 12810 H 1220.95 2.53709 2.79127 0
M  V30 12811 H 1223.34 1.59427 2.48328 0
M  V30 12812 H 1223.42 2.39216 0.906058 0
M  V30 12813 H 1223.06 4.64569 2.05275 0
M  V30 12814 H 1222.99 3.81675 3.62811 0
M  V30 12815 H 1225.48 3.00138 2.29621 0
M  V30 12816 H 1225.8 6.49759 4.1837 0
M  V30 12817 H 1224.14 5.83969 3.76836 0
M  V30 12818 H 1227.33 3.76836 2.77691 0
M  V30 12819 H 1227.5 5.36253 3.63781 0
M  V30 12820 N 1220.91 -1.05686 1.16912 0
M  V30 12821 C 1222.16 -1.78862 0.955839 0
M  V30 12822 C 1222.49 -1.87257 -0.514645 0
M  V30 12823 O 1221.76 -1.36869 -1.38193 0
M  V30 12824 C 1222.05 -3.23021 1.59152 0
M  V30 12825 C 1221.9 -3.22669 3.13376 0
M  V30 12826 C 1223.22 -4.2073 1.29128 0
M  V30 12827 H 1220.34 -0.64931 0.348663 0
M  V30 12828 H 1222.98 -1.23561 1.44335 0
M  V30 12829 H 1221.13 -3.70243 1.17697 0
M  V30 12830 H 1222.8 -2.83562 3.63855 0
M  V30 12831 H 1221.05 -2.61149 3.46386 0
M  V30 12832 H 1221.72 -4.24394 3.52979 0
M  V30 12833 H 1224.19 -3.8198 1.65017 0
M  V30 12834 H 1223.07 -5.19851 1.76198 0
M  V30 12835 H 1223.33 -4.41595 0.21119 0
M  V30 12836 N 1222.39 -0.968567 -1.24324 0
M  V30 12837 C 1223.35 -0.504307 -2.23583 0
M  V30 12838 C 1224.35 0.399626 -1.55755 0
M  V30 12839 O 1225.54 0.194966 -1.73106 0
M  V30 12840 C 1222.67 0.26956 -3.39833 0
M  V30 12841 H 1223.87 -1.3818 -2.6617 0
M  V30 12842 H 1221.42 -0.753241 -1.36952 0
M  V30 12843 H 1222.15 1.16411 -3.02686 0
M  V30 12844 H 1221.94 -0.379133 -3.90263 0
M  V30 12845 H 1223.43 0.583376 -4.13505 0
M  V30 12846 N 1223.87 1.39211 -0.738786 0
M  V30 12847 C 1225.11 2.0004 -0.28782 0
M  V30 12848 C 1225.44 1.58921 1.13 0
M  V30 12849 O 1224.71 0.839193 1.77015 0
M  V30 12850 H 1223.29 0.739805 -0.103425 0
M  V30 12851 H 1225.95 1.70202 -0.949587 0
M  V30 12852 H 1225.04 3.10251 -0.339208 0
M  V30 12853 N 1225.34 0.486708 1.49896 0
M  V30 12854 C 1226.59 -0.0646197 2.01596 0
M  V30 12855 C 1226.91 -1.39363 1.37249 0
M  V30 12856 O 1228.11 -2.03082 1.80194 0
M  V30 12857 C 1226.57 -0.16565 3.59519 0
M  V30 12858 C 1226.18 1.15586 4.32832 0
M  V30 12859 C 1227.92 -0.668103 4.1921 0
M  V30 12860 C 1225.83 1.01778 5.82576 0
M  V30 12861 H 1224.76 -0.0279241 0.753483 0
M  V30 12862 H 1227.41 0.623969 1.72566 0
M  V30 12863 H 1225.79 -0.918372 3.85204 0
M  V30 12864 H 1226.96 1.92076 4.1886 0
M  V30 12865 H 1225.28 1.59064 3.84822 0
M  V30 12866 H 1227.88 -0.788698 5.28851 0
M  V30 12867 H 1228.22 -1.66339 3.81624 0
M  V30 12868 H 1228.75 0.0276746 3.9779 0
M  V30 12869 H 1225.49 1.9869 6.24662 0
M  V30 12870 H 1225.01 0.293527 5.99081 0
M  V30 12871 H 1226.69 0.690693 6.43303 0
M  V30 12872 N 1226.82 -1.56058 0.219941 0
M  V30 12873 C 1228.05 -2.02652 -0.417101 0
M  V30 12874 C 1228.47 -1.09977 -1.53461 0
M  V30 12875 O 1227.82 -0.109088 -1.82174 0
M  V30 12876 C 1227.87 -3.48787 -0.950244 0
M  V30 12877 O 1227.6 -4.37928 0.12271 0
M  V30 12878 C 1229.1 -4.11018 -1.66069 0
M  V30 12879 H 1226.32 -0.663163 -0.102254 0
M  V30 12880 H 1228.86 -2.01722 0.335923 0
M  V30 12881 H 1227.02 -3.50338 -1.65355 0
M  V30 12882 H 1227.43 -5.23764 -0.277785 0
M  V30 12883 H 1228.9 -5.15046 -1.98575 0
M  V30 12884 H 1229.38 -3.55921 -2.57326 0
M  V30 12885 H 1229.99 -4.13313 -1.00263 0
M  V30 12886 N 1228.3 0.053464 -1.57509 0
M  V30 12887 C 1229.55 0.747622 -1.87763 0
M  V30 12888 C 1229.87 1.77178 -0.814433 0
M  V30 12889 O 1229.14 1.95287 0.154862 0
M  V30 12890 H 1227.72 0.279109 -0.692898 0
M  V30 12891 H 1230.38 0.0252006 -1.94884 0
M  V30 12892 H 1229.48 1.25244 -2.85868 0
M  V30 12893 N 1229.78 1.54207 0.325255 0
M  V30 12894 C 1230.71 1.86467 1.40543 0
M  V30 12895 C 1231.69 0.721324 1.54048 0
M  V30 12896 O 1232.88 0.974905 1.67956 0
M  V30 12897 C 1230.01 2.09052 2.77335 0
M  V30 12898 C 1228.96 3.24893 2.78619 0
M  V30 12899 C 1228.29 3.32846 4.1847 0
M  V30 12900 C 1229.59 4.62582 2.42518 0
M  V30 12901 H 1231.28 2.76932 1.13794 0
M  V30 12902 H 1228.83 1.33248 0.545971 0
M  V30 12903 H 1230.78 2.30204 3.52964 0
M  V30 12904 H 1229.5 1.15335 3.05558 0
M  V30 12905 H 1228.16 3.03625 2.05444 0
M  V30 12906 H 1227.81 2.3669 4.43832 0
M  V30 12907 H 1227.51 4.10701 4.20237 0
M  V30 12908 H 1229.03 3.56231 4.95915 0
M  V30 12909 H 1230.45 4.83627 3.07861 0
M  V30 12910 H 1228.84 5.42974 2.55538 0
M  V30 12911 H 1229.91 4.64946 1.3767 0
M  V30 12912 O 1231.3 -0.47121 1.54473 0
M  V30 12913 H 1231.99 -1.12559 1.5764 0
M  V30 END ATOM
M  V30 BEGIN BOND
M  V30 END BOND
M  V30 END CTAB
M  END
$$$$
