drugbank_target|Q93088 Betaine--homocysteine S-methyltransferase 1 (DB00134; DB02337)
 OpenBabel12092119413D

  0  0  0     0  0            999 V3000
M  V30 BEGIN CTAB
M  V30 COUNTS 6311 6387 0 0 0
M  V30 BEGIN ATOM
M  V30 1 H -0.908 1.98254 -0.117106 0
M  V30 2 N 0 1.576 0 0
M  V30 3 C 0.933 2.03868 1.02534 0
M  V30 4 C 1.911 0.928543 1.3348 0
M  V30 5 O 3.095 1.19667 1.45644 0
M  V30 6 C 0.222 2.43627 2.35294 0
M  V30 7 C -0.732 3.65373 2.2001 0
M  V30 8 S 0.101 5.13292 1.52614 0
M  V30 9 C 1.257 5.56322 2.86805 0
M  V30 10 H 1.49 2.90518 0.631377 0
M  V30 11 H -0.977 1.52953 0.210867 0
M  V30 12 H 0.981 2.67203 3.11629 0
M  V30 13 H -0.358 1.57376 2.7183 0
M  V30 14 H -1.165 3.90944 3.18086 0
M  V30 15 H -1.563 3.418 1.51819 0
M  V30 16 H 0.729 5.58782 3.83104 0
M  V30 17 H 1.672 6.56266 2.65933 0
M  V30 18 H 2.08 4.83886 2.90714 0
M  V30 19 N 1.4781 -0.272755 1.55222 0
M  V30 20 C 2.8891 -0.84378 1.66545 0
M  V30 21 C 3.2401 -1.87035 0.592641 0
M  V30 22 O 2.3651 -2.14761 -0.265818 0
M  V30 23 C 2.9601 -1.53723 3.01918 0
M  V30 24 C 1.5191 -2.05628 3.15268 0
M  V30 25 C 0.6661 -0.898424 2.62343 0
M  V30 26 H 3.6171 -0.0490998 1.58624 0
M  V30 27 H 3.6381 -2.40421 2.94921 0
M  V30 28 H 3.1501 -0.78983 3.79978 0
M  V30 29 H 1.2511 -2.83329 2.41983 0
M  V30 30 H 1.3641 -2.27142 4.21833 0
M  V30 31 H -0.2719 -1.29186 2.19506 0
M  V30 32 H 0.5111 -0.164528 3.42906 0
M  V30 33 N 2.9562 -1.48159 -0.537278 0
M  V30 34 C 4.3672 -1.49429 -1.11928 0
M  V30 35 C 4.7182 -0.26 -1.9447 0
M  V30 36 O 3.8432 0.633489 -2.0692 0
M  V30 37 C 4.4382 -2.70758 -2.03656 0
M  V30 38 C 2.9972 -2.74923 -2.57088 0
M  V30 39 C 2.1442 -2.42835 -1.3389 0
M  V30 40 H 5.0952 -1.55381 -0.322886 0
M  V30 41 H 5.1162 -2.48861 -2.87834 0
M  V30 42 H 4.6282 -3.60575 -1.43553 0
M  V30 43 H 2.7292 -1.89296 -3.20933 0
M  V30 44 H 2.8422 -3.76157 -2.9672 0
M  V30 45 H 1.2062 -1.93836 -1.65226 0
M  V30 46 H 1.9892 -3.34884 -0.755504 0
M  V30 47 N 4.4343 0.785586 -1.36625 0
M  V30 48 C 5.6803 1.54591 -1.31261 0
M  V30 49 C 6.0133 1.93906 0.106823 0
M  V30 50 O 5.2883 1.63007 1.06108 0
M  V30 51 C 5.5713 2.82038 -2.23889 0
M  V30 52 C 5.4243 2.49066 -3.74548 0
M  V30 53 C 6.7433 3.83887 -2.15217 0
M  V30 54 H 3.8623 0.560846 -0.478143 0
M  V30 55 H 6.5043 0.902278 -1.67209 0
M  V30 56 H 4.6543 3.36961 -1.93363 0
M  V30 57 H 6.3263 2.00164 -4.15611 0
M  V30 58 H 4.5693 1.81954 -3.93796 0
M  V30 59 H 5.2403 3.40109 -4.34776 0
M  V30 60 H 7.7163 3.38421 -2.42096 0
M  V30 61 H 6.5923 4.70806 -2.82193 0
M  V30 62 H 6.8533 4.27131 -1.14068 0
M  V30 63 N 5.9124 1.20967 1.01018 0
M  V30 64 C 7.1604 1.02172 1.74371 0
M  V30 65 C 7.4814 -0.446414 1.89821 0
M  V30 66 O 6.7514 -1.32234 1.44537 0
M  V30 67 H 5.3314 0.375066 0.646014 0
M  V30 68 H 7.9934 1.52187 1.21758 0
M  V30 69 H 7.0894 1.48538 2.74487 0
M  V30 70 N 7.3905 -1.2043 1.01659 0
M  V30 71 C 8.6385 -1.89423 0.704522 0
M  V30 72 C 8.9595 -1.79231 -0.768197 0
M  V30 73 O 8.2295 -1.1947 -1.55254 0
M  V30 74 H 6.8095 -0.701178 0.257602 0
M  V30 75 H 9.4715 -1.4626 1.28818 0
M  V30 76 H 8.5675 -2.96052 0.987916 0
M  V30 77 N 8.8686 -0.792821 -1.36206 0
M  V30 78 C 9.8156 -0.191653 -2.30003 0
M  V30 79 C 10.7856 0.666453 -1.52143 0
M  V30 80 O 11.9706 0.61442 -1.80636 0
M  V30 81 C 9.1106 0.664848 -3.38635 0
M  V30 82 C 8.2236 -0.212175 -4.31479 0
M  V30 83 C 7.3586 0.651022 -5.27196 0
M  V30 84 C 6.3976 -0.227247 -6.11678 0
M  V30 85 N 5.5346 0.595127 -6.99573 0
M  V30 86 H 10.3746 -0.996978 -2.80828 0
M  V30 87 H 7.9116 -0.503206 -1.38225 0
M  V30 88 H 9.8696 1.17645 -4.00269 0
M  V30 89 H 8.4996 1.43557 -2.89122 0
M  V30 90 H 7.5516 -0.841777 -3.70969 0
M  V30 91 H 8.8636 -0.888751 -4.90818 0
M  V30 92 H 8.0176 1.2283 -5.94136 0
M  V30 93 H 6.7566 1.36121 -4.68319 0
M  V30 94 H 5.7616 -0.816904 -5.43697 0
M  V30 95 H 6.9866 -0.93509 -6.72631 0
M  V30 96 H 4.9326 1.28955 -6.432 0
M  V30 97 H 4.8496 -0.0236952 -7.55996 0
M  V30 98 H 6.1176 1.15613 -7.70879 0
M  V30 99 N 10.3467 1.47872 -0.545128 0
M  V30 100 C 11.2937 2.29849 0.2093 0
M  V30 101 C 12.2637 1.38313 0.919707 0
M  V30 102 O 13.4487 1.67277 0.917772 0
M  V30 103 C 10.5887 3.22019 1.24088 0
M  V30 104 C 9.7017 4.2864 0.537778 0
M  V30 105 C 8.8367 5.07973 1.5536 0
M  V30 106 C 7.8757 6.06381 0.8348 0
M  V30 107 N 7.0127 6.78717 1.79688 0
M  V30 108 H 11.8527 2.93845 -0.49591 0
M  V30 109 H 9.3897 1.44848 -0.256389 0
M  V30 110 H 11.3477 3.73868 1.85144 0
M  V30 111 H 9.9777 2.59914 1.91428 0
M  V30 112 H 9.0297 3.7994 -0.187046 0
M  V30 113 H 10.3417 4.98793 -0.0258907 0
M  V30 114 H 9.4957 5.63912 2.23803 0
M  V30 115 H 8.2347 4.37693 2.15118 0
M  V30 116 H 7.2397 5.49631 0.136388 0
M  V30 117 H 8.4647 6.78665 0.24313 0
M  V30 118 H 6.4107 6.11177 2.38326 0
M  V30 119 H 6.3277 7.44998 1.28505 0
M  V30 120 H 7.5957 7.39237 2.47282 0
M  V30 121 N 11.8248 0.280983 1.55075 0
M  V30 122 C 12.7878 -0.590896 2.21452 0
M  V30 123 C 13.7878 -1.07682 1.19421 0
M  V30 124 O 14.9778 -0.97605 1.44288 0
M  V30 125 C 12.1098 -1.81587 2.88511 0
M  V30 126 H 13.3028 -0.0112554 2.99898 0
M  V30 127 H 10.8558 0.0316438 1.56268 0
M  V30 128 H 11.5908 -2.43587 2.14093 0
M  V30 129 H 11.3758 -1.4753 3.63287 0
M  V30 130 H 12.8658 -2.43575 3.39206 0
M  V30 131 N 13.3029 -1.57598 0.00835791 0
M  V30 132 C 14.2499 -2.08945 -0.980346 0
M  V30 133 C 15.2199 -0.986738 -1.33614 0
M  V30 134 O 16.4049 -1.25968 -1.43306 0
M  V30 135 C 13.5449 -2.60425 -2.26435 0
M  V30 136 C 12.6579 -3.84628 -1.96685 0
M  V30 137 C 11.7929 -4.24579 -3.19228 0
M  V30 138 C 10.8319 -5.41596 -2.85202 0
M  V30 139 N 9.9689 -5.768 -4.00307 0
M  V30 140 H 14.8089 -2.93148 -0.535551 0
M  V30 141 H 12.3459 -1.44912 -0.252776 0
M  V30 142 H 14.3039 -2.88354 -3.01509 0
M  V30 143 H 12.9339 -1.79083 -2.68568 0
M  V30 144 H 11.9859 -3.63556 -1.11942 0
M  V30 145 H 13.2979 -4.69796 -1.67611 0
M  V30 146 H 12.4519 -4.53834 -4.02641 0
M  V30 147 H 11.1909 -3.38137 -3.51447 0
M  V30 148 H 10.1959 -5.12056 -2.00198 0
M  V30 149 H 11.4209 -6.29721 -2.54222 0
M  V30 150 H 9.3669 -4.93316 -4.32407 0
M  V30 151 H 9.2839 -6.5656 -3.74786 0
M  V30 152 H 10.5519 -6.10652 -4.84484 0
M  V30 153 N 14.781 0.264519 -1.55364 0
M  V30 154 C 15.728 1.32717 -1.88825 0
M  V30 155 C 16.698 1.48675 -0.740605 0
M  V30 156 O 17.883 1.62945 -0.992657 0
M  V30 157 C 15.023 2.68089 -2.17307 0
M  V30 158 C 14.136 2.60284 -3.44785 0
M  V30 159 C 13.271 3.87892 -3.62924 0
M  V30 160 C 12.31 3.74631 -4.84064 0
M  V30 161 N 11.447 4.94092 -4.98816 0
M  V30 162 H 16.287 1.03481 -2.79456 0
M  V30 163 H 13.824 0.499757 -1.3835 0
M  V30 164 H 15.782 3.46864 -2.31821 0
M  V30 165 H 14.412 2.95509 -1.299 0
M  V30 166 H 13.464 1.73173 -3.38697 0
M  V30 167 H 14.776 2.46388 -4.33698 0
M  V30 168 H 13.93 4.75109 -3.77302 0
M  V30 169 H 12.669 4.04664 -2.7221 0
M  V30 170 H 11.674 2.85797 -4.69681 0
M  V30 171 H 12.899 3.5937 -5.76221 0
M  V30 172 H 10.845 5.11259 -4.11036 0
M  V30 173 H 10.762 4.8276 -5.81789 0
M  V30 174 H 12.03 5.82857 -5.17588 0
M  V30 175 N 16.2591 1.48442 0.529413 0
M  V30 176 C 17.5071 1.56179 1.28267 0
M  V30 177 C 17.8281 0.237721 1.93546 0
M  V30 178 O 17.0981 -0.740779 1.81354 0
M  V30 179 H 15.6781 0.575367 0.476405 0
M  V30 180 H 18.3401 1.84909 0.61602 0
M  V30 181 H 17.4361 2.34312 2.06165 0
M  V30 182 N 17.7372 -0.778329 1.37039 0
M  V30 183 C 18.9862 -1.53189 1.3121 0
M  V30 184 C 19.2992 -1.95328 -0.103095 0
M  V30 185 O 20.5052 -2.70012 -0.283826 0
M  V30 186 C 18.9612 -2.76591 2.30272 0
M  V30 187 C 18.5692 -2.41577 3.77286 0
M  V30 188 C 20.3132 -3.5455 2.33441 0
M  V30 189 C 18.2202 -3.61441 4.68096 0
M  V30 190 H 17.1502 -0.5751 0.487622 0
M  V30 191 H 19.8012 -0.853101 1.62464 0
M  V30 192 H 18.1832 -3.46326 1.92027 0
M  V30 193 H 19.3572 -1.79668 4.2433 0
M  V30 194 H 17.6722 -1.76806 3.76999 0
M  V30 195 H 20.2692 -4.43628 2.98493 0
M  V30 196 H 20.6122 -3.93936 1.34611 0
M  V30 197 H 21.1452 -2.91805 2.7036 0
M  V30 198 H 17.8842 -3.27142 5.6803 0
M  V30 199 H 17.4042 -4.22478 4.25761 0
M  V30 200 H 19.0832 -4.28335 4.8491 0
M  V30 201 N 19.2153 -1.21501 -1.00376 0
M  V30 202 C 20.1453 -0.999478 -2.11028 0
M  V30 203 C 21.1263 0.0759671 -1.6993 0
M  V30 204 O 22.3113 -0.0841106 -1.94018 0
M  V30 205 C 19.4413 -0.564709 -3.42678 0
M  V30 206 C 18.3953 -1.58486 -3.97576 0
M  V30 207 C 17.7213 -1.00628 -5.25146 0
M  V30 208 C 19.0213 -2.97204 -4.29496 0
M  V30 209 H 20.7153 -1.92495 -2.29317 0
M  V30 210 H 18.2613 -0.92693 -1.102 0
M  V30 211 H 20.2143 -0.401091 -4.19487 0
M  V30 212 H 18.9383 0.396411 -3.24185 0
M  V30 213 H 17.5973 -1.73606 -3.22888 0
M  V30 214 H 17.2453 -0.0368439 -5.02987 0
M  V30 215 H 16.9453 -1.68771 -5.62841 0
M  V30 216 H 18.4693 -0.854015 -6.04598 0
M  V30 217 H 19.8833 -2.8552 -4.97143 0
M  V30 218 H 18.2803 -3.62372 -4.78338 0
M  V30 219 H 19.3503 -3.47956 -3.3772 0
M  V30 220 N 20.6934 1.19889 -1.02296 0
M  V30 221 C 21.6034 2.26571 -0.608508 0
M  V30 222 C 22.6194 1.70299 0.356964 0
M  V30 223 O 23.7954 2.00235 0.216326 0
M  V30 224 C 20.8604 3.46677 0.0402814 0
M  V30 225 C 19.9214 4.18153 -0.97194 0
M  V30 226 C 19.1544 5.32525 -0.354016 0
M  V30 227 O 19.3774 5.64112 0.844604 0
M  V30 228 O 18.3114 5.92242 -1.07391 0
M  V30 229 H 22.1374 2.64251 -1.49684 0
M  V30 230 H 19.7224 1.26629 -0.792809 0
M  V30 231 H 21.6044 4.19475 0.402324 0
M  V30 232 H 20.2794 3.10858 0.902707 0
M  V30 233 H 19.1864 3.47499 -1.38546 0
M  V30 234 H 20.5194 4.57927 -1.80454 0
M  V30 235 N 22.1715 0.800033 1.35784 0
M  V30 236 C 23.5875 0.482977 1.52117 0
M  V30 237 C 23.7875 -0.996948 1.75109 0
M  V30 238 O 22.8435 -1.78216 1.78872 0
M  V30 239 C 24.1565 1.32264 2.70049 0
M  V30 240 C 25.7045 1.31742 2.83924 0
M  V30 241 C 26.1795 2.14106 4.04874 0
M  V30 242 N 27.6705 2.11607 4.12039 0
M  V30 243 C 28.4055 2.72099 5.04727 0
M  V30 244 N 27.9015 3.41492 6.02789 0
M  V30 245 N 29.6945 2.61776 4.97423 0
M  V30 246 H 21.8455 1.75856 1.19115 0
M  V30 247 H 24.1085 0.748122 0.582252 0
M  V30 248 H 23.8145 2.37261 2.59616 0
M  V30 249 H 23.6885 0.971303 3.6448 0
M  V30 250 H 26.0755 0.275333 2.93813 0
M  V30 251 H 26.1565 1.70859 1.9037 0
M  V30 252 H 25.8005 3.18351 3.95746 0
M  V30 253 H 25.7305 1.72353 4.97596 0
M  V30 254 H 28.2215 1.61112 3.41835 0
M  V30 255 H 28.5345 3.84953 6.70098 0
M  V30 256 H 26.8795 3.45596 6.02983 0
M  V30 257 H 30.0705 2.07157 4.19766 0
M  V30 258 H 30.2435 3.0921 5.69468 0
M  V30 259 N 23.6496 -1.47581 0.552962 0
M  V30 260 C 24.5796 -2.32762 -0.185451 0
M  V30 261 C 25.5606 -1.43527 -0.912905 0
M  V30 262 O 26.7456 -1.72388 -0.894201 0
M  V30 263 C 23.8756 -3.25219 -1.21859 0
M  V30 264 C 22.8296 -4.23661 -0.607864 0
M  V30 265 C 22.1556 -5.05413 -1.74533 0
M  V30 266 C 23.4556 -5.20481 0.435582 0
M  V30 267 H 25.1496 -2.94749 0.525684 0
M  V30 268 H 22.6956 -1.41738 0.254251 0
M  V30 269 H 24.6486 -3.8365 -1.7433 0
M  V30 270 H 23.3726 -2.61279 -1.95961 0
M  V30 271 H 22.0316 -3.66451 -0.104489 0
M  V30 272 H 21.6796 -4.3788 -2.47529 0
M  V30 273 H 21.3796 -5.72059 -1.34249 0
M  V30 274 H 22.9036 -5.66701 -2.27338 0
M  V30 275 H 24.3176 -5.733 -0.00290157 0
M  V30 276 H 22.7146 -5.95305 0.757067 0
M  V30 277 H 23.7846 -4.66217 1.33303 0
M  V30 278 N 25.1277 -0.289203 -1.54924 0
M  V30 279 C 26.0757 0.607966 -2.24514 0
M  V30 280 C 27.0697 1.14655 -1.24702 0
M  V30 281 O 28.2757 1.09856 -1.4259 0
M  V30 282 H 24.6507 0.21464 -0.720718 0
M  V30 283 H 26.6217 -0.00164182 -2.984 0
M  V30 284 C 25.3707 1.77406 -2.99036 0
M  V30 285 H 24.6937 1.36884 -3.75637 0
M  V30 286 H 26.1337 2.37814 -3.51028 0
M  V30 287 C 24.5927 2.67107 -2.05318 0
M  V30 288 O 25.1227 3.6787 -1.61353 0
M  V30 289 N 23.3287 2.34582 -1.71521 0
M  V30 290 H 22.8757 1.52688 -2.07471 0
M  V30 291 H 22.8337 2.94867 -1.0909 0
M  V30 292 N 26.6058 1.57591 -0.0167156 0
M  V30 293 C 27.5688 2.08393 0.954204 0
M  V30 294 C 28.5688 0.996531 1.26198 0
M  V30 295 O 29.7588 1.25858 1.20438 0
M  V30 296 C 26.8908 2.5394 2.27436 0
M  V30 297 H 28.0838 2.95455 0.514451 0
M  V30 298 H 25.6368 1.54582 0.231089 0
M  V30 299 H 26.3718 1.70171 2.76066 0
M  V30 300 H 26.1568 3.33371 2.06412 0
M  V30 301 H 27.6468 2.93512 2.97053 0
M  V30 302 N 28.0839 -0.256276 1.55502 0
M  V30 303 C 29.3319 -0.983672 1.76545 0
M  V30 304 C 29.6529 -1.86206 0.578982 0
M  V30 305 O 28.9229 -1.91656 -0.405577 0
M  V30 306 H 27.5029 -0.366191 0.651086 0
M  V30 307 H 30.1649 -0.276479 1.92929 0
M  V30 308 H 29.2609 -1.61087 2.67315 0
M  V30 309 N 29.562 -1.4872 -0.521534 0
M  V30 310 C 30.472 -1.66569 -1.65203 0
M  V30 311 C 31.488 -0.548197 -1.65139 0
M  V30 312 O 32.664 -0.820339 -1.83936 0
M  V30 313 C 29.729 -1.70917 -3.01642 0
M  V30 314 C 28.79 -2.94356 -3.12495 0
M  V30 315 C 28.023 -2.98487 -4.42426 0
M  V30 316 O 28.246 -2.10786 -5.30024 0
M  V30 317 O 27.18 -3.90746 -4.57822 0
M  V30 318 H 31.006 -2.62298 -1.5308 0
M  V30 319 H 28.591 -1.3222 -0.695565 0
M  V30 320 H 30.473 -1.7625 -3.82771 0
M  V30 321 H 29.148 -0.783633 -3.14071 0
M  V30 322 H 28.055 -2.94552 -2.3063 0
M  V30 323 H 29.388 -3.86322 -3.04986 0
M  V30 324 N 31.0401 0.771051 -1.3745 0
M  V30 325 C 32.2891 1.52491 -1.3202 0
M  V30 326 C 32.6021 1.9538 0.0927347 0
M  V30 327 O 33.8081 2.70159 0.269503 0
M  V30 328 C 32.2641 2.75366 -2.31736 0
M  V30 329 C 31.8721 2.39573 -3.78562 0
M  V30 330 C 33.6161 3.53307 -2.35318 0
M  V30 331 C 31.5231 3.58954 -4.70007 0
M  V30 332 H 30.4531 0.572506 -0.490666 0
M  V30 333 H 33.1041 0.844474 -1.62914 0
M  V30 334 H 31.4861 3.45303 -1.93861 0
M  V30 335 H 32.6601 1.77415 -4.25277 0
M  V30 336 H 30.9751 1.74805 -3.77932 0
M  V30 337 H 33.5721 4.42039 -3.00842 0
M  V30 338 H 33.9151 3.93217 -1.36698 0
M  V30 339 H 34.4481 2.90367 -2.71904 0
M  V30 340 H 31.1871 3.24125 -5.69757 0
M  V30 341 H 30.7071 4.20214 -4.27996 0
M  V30 342 H 32.3861 4.25758 -4.87175 0
M  V30 343 N 32.5182 1.22032 0.997298 0
M  V30 344 C 33.7642 1.04376 1.73878 0
M  V30 345 C 34.0972 -0.420716 1.89588 0
M  V30 346 O 33.3722 -1.31202 1.43583 0
M  V30 347 C 33.6552 1.75047 3.14691 0
M  V30 348 C 33.5082 3.29062 3.06656 0
M  V30 349 C 34.8272 1.49928 4.13775 0
M  V30 350 H 31.9462 0.380578 0.631133 0
M  V30 351 H 34.5882 1.50312 1.16217 0
M  V30 352 H 32.7382 1.35996 3.63919 0
M  V30 353 H 34.4102 3.7753 2.65083 0
M  V30 354 H 32.6532 3.58967 2.43568 0
M  V30 355 H 33.3242 3.73683 4.06282 0
M  V30 356 H 35.8002 1.83842 3.73285 0
M  V30 357 H 34.6762 2.01878 5.10428 0
M  V30 358 H 34.9372 0.430929 4.39995 0
M  V30 359 N 33.9963 -1.19345 1.0293 0
M  V30 360 C 35.2453 -1.88363 0.721256 0
M  V30 361 C 35.5583 -1.80514 -0.753254 0
M  V30 362 O 36.7643 -2.44788 -1.17436 0
M  V30 363 C 35.2203 -3.37872 1.23978 0
M  V30 364 C 34.8283 -3.54278 2.74211 0
M  V30 365 C 36.5723 -4.12365 1.00775 0
M  V30 366 C 34.4793 -4.97682 3.19479 0
M  V30 367 H 33.4093 -0.705484 0.266098 0
M  V30 368 H 36.0603 -1.34928 1.24365 0
M  V30 369 H 34.4423 -3.90707 0.6453 0
M  V30 370 H 35.6163 -3.11769 3.39318 0
M  V30 371 H 33.9313 -2.93174 2.95699 0
M  V30 372 H 36.5283 -5.18119 1.32123 0
M  V30 373 H 36.8713 -4.16263 -0.0554308 0
M  V30 374 H 37.4043 -3.65668 1.56625 0
M  V30 375 H 34.1433 -4.98945 4.25128 0
M  V30 376 H 33.6633 -5.4095 2.591 0
M  V30 377 H 35.3423 -5.66337 3.12845 0
M  V30 378 N 35.4744 -0.807222 -1.35358 0
M  V30 379 C 36.7224 -0.387122 -1.98358 0
M  V30 380 C 37.0434 1.04942 -1.64354 0
M  V30 381 O 36.3134 1.72615 -0.926339 0
M  V30 382 H 34.8934 -0.140154 -0.733734 0
M  V30 383 H 37.5554 -1.0332 -1.6526 0
M  V30 384 H 36.6514 -0.493352 -3.08176 0
M  V30 385 N 36.9525 1.47285 -0.560781 0
M  V30 386 C 38.2295 1.9558 0.0277798 0
M  V30 387 C 38.6095 1.5034 1.48192 0
M  V30 388 O 37.9575 0.743882 2.16052 0
M  V30 389 C 38.1675 3.48789 -0.121418 0
M  V30 390 C 39.5155 4.24594 0.0220912 0
M  V30 391 O 40.5395 3.56166 -0.0491439 0
M  V30 392 O 39.3985 5.46217 0.175958 0
M  V30 393 H 36.4925 0.824663 0.0621342 0
M  V30 394 H 39.0385 1.5767 -0.627556 0
M  V30 395 H 37.8105 3.74533 -1.13316 0
M  V30 396 H 37.4335 3.93473 0.571366 0
M  V30 397 N 38.4306 0.297415 1.54768 0
M  V30 398 C 39.6786 -0.312295 1.99673 0
M  V30 399 C 39.9996 -1.54686 1.18732 0
M  V30 400 O 39.2696 -1.93854 0.282382 0
M  V30 401 H 37.8496 -0.118381 0.73756 0
M  V30 402 H 40.5116 0.407915 1.90583 0
M  V30 403 H 39.6076 -0.586813 3.06534 0
M  V30 404 N 39.9087 -1.5758 0.0250728 0
M  V30 405 C 41.1567 -1.91255 -0.653151 0
M  V30 406 C 41.4777 -0.901691 -1.729 0
M  V30 407 O 40.7477 0.0573785 -1.95816 0
M  V30 408 H 39.3277 -0.705942 -0.244243 0
M  V30 409 H 41.9897 -1.94767 0.0719209 0
M  V30 410 H 41.0857 -2.91752 -1.10847 0
M  V30 411 N 41.3868 0.248026 -1.55636 0
M  V30 412 C 42.6338 0.976224 -1.77415 0
M  V30 413 C 42.9618 1.85361 -0.589193 0
M  V30 414 O 42.2168 1.90973 0.427529 0
M  V30 415 C 42.5158 1.86819 -3.04686 0
M  V30 416 C 42.1818 1.14625 -4.36087 0
M  V30 417 C 40.8438 0.946723 -4.71795 0
M  V30 418 C 43.1958 0.634463 -5.17324 0
M  V30 419 C 40.5238 0.223091 -5.86276 0
M  V30 420 C 42.8758 -0.0756959 -6.32555 0
M  V30 421 C 41.5398 -0.286711 -6.66884 0
M  V30 422 H 40.8098 0.357226 -0.649208 0
M  V30 423 H 43.4568 0.246415 -1.89908 0
M  V30 424 H 41.7618 2.66502 -2.872 0
M  V30 425 H 43.4588 2.43329 -3.18735 0
M  V30 426 H 40.0488 1.3117 -4.08035 0
M  V30 427 H 44.2328 0.77616 -4.90193 0
M  V30 428 H 39.4888 0.0491185 -6.1138 0
M  V30 429 H 43.6628 -0.479899 -6.94745 0
M  V30 430 H 41.2898 -0.849389 -7.5544 0
M  V30 431 N 42.8649 1.48995 0.513639 0
M  V30 432 C 44.1109 1.58076 1.27042 0
M  V30 433 C 44.4439 0.261026 1.92438 0
M  V30 434 O 43.7189 -0.734393 1.80103 0
M  V30 435 C 44.0019 2.73091 2.34719 0
M  V30 436 C 43.8549 4.14821 1.73907 0
M  V30 437 C 45.1739 2.83796 3.36375 0
M  V30 438 H 42.2929 0.575391 0.460536 0
M  V30 439 H 44.9349 1.81232 0.570516 0
M  V30 440 H 43.0849 2.53479 2.94416 0
M  V30 441 H 44.7569 4.45917 1.18135 0
M  V30 442 H 42.9999 4.21058 1.0437 0
M  V30 443 H 43.6709 4.91147 2.51949 0
M  V30 444 H 46.1469 3.01611 2.86653 0
M  V30 445 H 45.0229 3.65971 4.09093 0
M  V30 446 H 45.2839 1.92624 3.9793 0
M  V30 447 N 44.343 -0.763751 1.37857 0
M  V30 448 C 45.59 -1.52257 1.33506 0
M  V30 449 C 45.918 -1.94343 -0.078022 0
M  V30 450 O 45.173 -1.64958 -1.05297 0
M  V30 451 C 45.472 -2.79499 2.22745 0
M  V30 452 C 45.138 -2.56426 3.70886 0
M  V30 453 C 43.8 -2.49842 4.11257 0
M  V30 454 C 46.152 -2.36008 4.64704 0
M  V30 455 C 43.48 -2.20841 5.43549 0
M  V30 456 C 45.832 -2.0853 5.97242 0
M  V30 457 C 44.496 -2.00396 6.36709 0
M  V30 458 H 43.766 -0.557149 0.488534 0
M  V30 459 H 46.413 -0.879073 1.70131 0
M  V30 460 H 44.718 -3.48447 1.79142 0
M  V30 461 H 46.415 -3.37413 2.16688 0
M  V30 462 H 43.005 -2.62416 3.38874 0
M  V30 463 H 47.189 -2.40079 4.34368 0
M  V30 464 H 42.445 -2.13045 5.73081 0
M  V30 465 H 46.619 -1.91732 6.69486 0
M  V30 466 H 44.246 -1.77688 7.39142 0
M  V30 467 N 45.8211 -1.22559 -0.990812 0
M  V30 468 C 46.7841 -0.998863 -2.0629 0
M  V30 469 C 47.7841 0.0354834 -1.60761 0
M  V30 470 O 48.9741 -0.203231 -1.7301 0
M  V30 471 C 46.1061 -0.509203 -3.37076 0
M  V30 472 H 47.2991 -1.95014 -2.27837 0
M  V30 473 H 44.8521 -1.04456 -1.16269 0
M  V30 474 H 45.5871 0.446335 -3.21214 0
M  V30 475 H 45.3721 -1.25547 -3.71457 0
M  V30 476 H 46.8621 -0.370888 -4.1595 0
M  V30 477 N 47.2992 1.18797 -1.03562 0
M  V30 478 C 48.2292 2.24472 -0.643019 0
M  V30 479 C 49.2102 1.66433 0.351283 0
M  V30 480 O 50.3952 1.92803 0.232505 0
M  V30 481 C 47.5252 3.473 4.24935e-05 0
M  V30 482 C 46.4792 4.18055 -0.917257 0
M  V30 483 C 45.8052 5.34519 -0.138941 0
M  V30 484 C 47.1052 4.72109 -2.23407 0
M  V30 485 H 48.7992 2.57566 -1.52643 0
M  V30 486 H 46.3452 1.23806 -0.735394 0
M  V30 487 H 48.2982 4.20426 0.286383 0
M  V30 488 H 47.0222 3.13424 0.918299 0
M  V30 489 H 45.6812 3.46821 -1.1879 0
M  V30 490 H 45.3292 4.96891 0.781562 0
M  V30 491 H 45.0292 5.82794 -0.750005 0
M  V30 492 H 46.5532 6.10438 0.1405 0
M  V30 493 H 47.9672 5.36955 -2.00879 0
M  V30 494 H 46.3642 5.30897 -2.79765 0
M  V30 495 H 47.4342 3.89807 -2.88407 0
M  V30 496 N 48.7773 0.814389 1.34928 0
M  V30 497 C 49.6873 0.231978 2.3345 0
M  V30 498 C 50.7033 -0.629139 1.62228 0
M  V30 499 O 51.8793 -0.539052 1.94052 0
M  V30 500 C 48.9443 -0.603482 3.41407 0
M  V30 501 C 48.0053 0.279037 4.28392 0
M  V30 502 C 47.2383 -0.516643 5.31193 0
M  V30 503 O 47.4613 -1.75068 5.4287 0
M  V30 504 O 46.3953 0.0965652 6.01823 0
M  V30 505 H 50.2213 1.04721 2.85074 0
M  V30 506 H 47.8063 0.576343 1.37836 0
M  V30 507 H 49.6883 -1.07908 4.0735 0
M  V30 508 H 48.3633 -1.39618 2.92042 0
M  V30 509 H 47.2703 0.801948 3.65403 0
M  V30 510 H 48.6033 1.03588 4.81176 0
M  V30 511 N 50.2554 -1.46986 0.568584 0
M  V30 512 C 51.2024 -2.30153 -0.172707 0
M  V30 513 C 52.1724 -1.39759 -0.897586 0
M  V30 514 O 53.3574 -1.68716 -0.891044 0
M  V30 515 C 50.4974 -3.23952 -1.1895 0
M  V30 516 C 49.6104 -4.29441 -0.469517 0
M  V30 517 C 48.7454 -5.1038 -1.47259 0
M  V30 518 C 47.7844 -6.07632 -0.738225 0
M  V30 519 N 46.9214 -6.8149 -1.68868 0
M  V30 520 H 51.7614 -2.93019 0.542596 0
M  V30 521 H 49.2984 -1.44422 0.279401 0
M  V30 522 H 51.2564 -3.76767 -1.79173 0
M  V30 523 H 49.8864 -2.62926 -1.87269 0
M  V30 524 H 48.9384 -3.79594 0.247467 0
M  V30 525 H 50.2504 -4.98689 0.105241 0
M  V30 526 H 49.4044 -5.67402 -2.14803 0
M  V30 527 H 48.1434 -4.4106 -2.08128 0
M  V30 528 H 47.1484 -5.49778 -0.0489293 0
M  V30 529 H 48.3734 -6.78966 -0.135129 0
M  V30 530 H 46.3194 -6.14891 -2.28573 0
M  V30 531 H 46.2364 -7.46948 -1.16636 0
M  V30 532 H 47.5044 -7.43078 -2.3549 0
M  V30 533 N 51.7335 -0.305618 -1.54608 0
M  V30 534 C 53.1495 0.0476228 -1.59529 0
M  V30 535 C 53.3495 1.52025 -1.32252 0
M  V30 536 O 52.4055 2.27368 -1.09818 0
M  V30 537 C 53.7185 -0.354471 -2.98603 0
M  V30 538 C 55.2665 -0.303622 -3.11524 0
M  V30 539 C 55.7415 -0.680608 -4.52915 0
M  V30 540 N 57.2325 -0.63332 -4.5885 0
M  V30 541 C 57.9675 -0.897432 -5.66334 0
M  V30 542 N 57.4635 -1.22775 -6.81834 0
M  V30 543 N 59.2565 -0.824186 -5.56025 0
M  V30 544 H 51.4075 -1.2653 -1.70599 0
M  V30 545 H 53.6705 -0.513291 -0.797017 0
M  V30 546 H 53.3765 -1.3798 -3.23503 0
M  V30 547 H 53.2505 0.289568 -3.76087 0
M  V30 548 H 55.6375 0.712472 -2.8637 0
M  V30 549 H 55.7185 -0.982348 -2.36185 0
M  V30 550 H 55.3625 -1.69453 -4.78799 0
M  V30 551 H 55.2925 0.0202385 -5.26596 0
M  V30 552 H 57.7835 -0.389138 -3.75891 0
M  V30 553 H 58.0965 -1.41513 -7.59733 0
M  V30 554 H 56.4415 -1.26583 -6.83375 0
M  V30 555 H 59.6325 -0.565748 -4.64669 0
M  V30 556 H 59.8055 -1.03338 -6.39707 0
M  V30 557 N 53.2116 1.57565 -0.0334293 0
M  V30 558 C 54.4596 1.91598 0.642999 0
M  V30 559 C 54.7806 0.910847 1.7242 0
M  V30 560 O 54.0506 -0.0469931 1.95844 0
M  V30 561 H 52.6306 0.707228 0.240496 0
M  V30 562 H 55.2926 1.94726 -0.0822488 0
M  V30 563 H 54.3886 2.92336 1.09298 0
M  V30 564 N 54.6897 -0.239769 1.55765 0
M  V30 565 C 55.9197 -0.982743 1.8173 0
M  V30 566 C 56.3277 -1.7917 0.607835 0
M  V30 567 O 55.6707 -1.78525 -0.432973 0
M  V30 568 C 55.7327 -1.96332 3.01155 0
M  V30 569 C 55.3967 -1.34062 4.36894 0
M  V30 570 C 56.3937 -0.739539 5.14613 0
M  V30 571 C 54.0787 -1.35784 4.83599 0
M  V30 572 C 56.0727 -0.163989 6.37189 0
M  V30 573 C 53.7597 -0.778441 6.06122 0
M  V30 574 C 54.7577 -0.182548 6.82756 0
M  V30 575 O 54.4457 0.387887 8.02964 0
M  V30 576 H 54.1777 -0.294481 0.608487 0
M  V30 577 H 56.7317 -0.26572 2.03674 0
M  V30 578 H 54.9617 -2.71884 2.74984 0
M  V30 579 H 56.6507 -2.57032 3.14149 0
M  V30 580 H 57.4167 -0.718687 4.79646 0
M  V30 581 H 53.2957 -1.81105 4.23936 0
M  V30 582 H 56.8397 0.301753 6.96947 0
M  V30 583 H 52.7367 -0.796645 6.40565 0
M  V30 584 H 53.5047 0.28044 8.18019 0
M  V30 585 N 56.1678 -1.49265 -0.50573 0
M  V30 586 C 57.4138 -1.58748 -1.26202 0
M  V30 587 C 57.7468 -0.271227 -1.92297 0
M  V30 588 O 57.0218 0.724831 -1.80489 0
M  V30 589 C 57.3048 -2.74332 -2.33268 0
M  V30 590 C 57.1578 -4.15737 -1.71705 0
M  V30 591 C 58.4768 -2.85576 -3.34865 0
M  V30 592 H 55.5958 -0.577826 -0.457478 0
M  V30 593 H 58.2378 -1.81532 -0.560897 0
M  V30 594 H 56.3878 -2.55036 -2.93068 0
M  V30 595 H 58.0598 -4.46537 -1.15769 0
M  V30 596 H 56.3028 -4.21605 -1.02135 0
M  V30 597 H 56.9738 -4.92477 -2.49341 0
M  V30 598 H 59.4498 -3.03127 -2.8505 0
M  V30 599 H 58.3258 -3.68135 -4.07146 0
M  V30 600 H 58.5868 -1.94732 -3.96903 0
M  V30 601 N 57.6459 0.756429 -1.3826 0
M  V30 602 C 58.5929 1.87011 -1.35261 0
M  V30 603 C 59.5629 1.64695 -0.215616 0
M  V30 604 O 60.7479 1.864 -0.407399 0
M  V30 605 C 57.8879 3.24275 -1.18068 0
M  V30 606 C 57.0009 3.58442 -2.41129 0
M  V30 607 C 56.1359 4.84994 -2.16689 0
M  V30 608 C 55.1749 5.11939 -3.35537 0
M  V30 609 N 54.3119 6.29685 -3.10549 0
M  V30 610 H 59.1519 1.8891 -2.30472 0
M  V30 611 H 56.6889 0.923373 -1.14509 0
M  V30 612 H 58.6469 4.03479 -1.06116 0
M  V30 613 H 57.2769 3.21711 -0.264973 0
M  V30 614 H 56.3289 2.74103 -2.63764 0
M  V30 615 H 57.6409 3.74283 -3.29717 0
M  V30 616 H 56.7949 5.72135 -2.01857 0
M  V30 617 H 55.5339 4.71286 -1.25462 0
M  V30 618 H 54.5389 4.23268 -3.50891 0
M  V30 619 H 55.7639 5.27546 -4.27635 0
M  V30 620 H 53.7099 6.17306 -2.21967 0
M  V30 621 H 53.6269 6.46014 -3.92686 0
M  V30 622 H 54.8949 7.19722 -2.99367 0
M  V30 623 N 59.124 1.23083 0.984299 0
M  V30 624 C 60.087 1.00979 2.05757 0
M  V30 625 C 61.087 -0.0269573 1.60777 0
M  V30 626 O 62.277 0.212403 1.729 0
M  V30 627 C 59.409 0.527072 3.36801 0
M  V30 628 H 60.602 1.9622 2.26799 0
M  V30 629 H 58.155 1.05072 1.15714 0
M  V30 630 H 58.89 -0.429294 3.21446 0
M  V30 631 H 58.675 1.27515 3.70786 0
M  V30 632 H 60.165 0.392942 4.15747 0
M  V30 633 N 60.6021 -1.18246 1.0419 0
M  V30 634 C 61.8501 -1.87886 0.744543 0
M  V30 635 C 62.1711 -1.8082 -0.730006 0
M  V30 636 O 61.4411 -1.22736 -1.52685 0
M  V30 637 H 60.0211 -0.695556 0.272417 0
M  V30 638 H 62.6831 -1.43494 1.31892 0
M  V30 639 H 61.7791 -2.9389 1.05049 0
M  V30 640 N 62.0802 -0.821533 -1.34494 0
M  V30 641 C 63.4912 -0.467956 -1.8074 0
M  V30 642 C 63.8422 1.01151 -1.68116 0
M  V30 643 O 62.9672 1.78707 -1.22036 0
M  V30 644 C 63.5622 -0.842627 -3.28154 0
M  V30 645 C 62.1212 -0.541439 -3.72485 0
M  V30 646 C 61.2682 -1.06028 -2.56229 0
M  V30 647 H 64.2192 -1.01183 -1.22261 0
M  V30 648 H 64.2402 -0.145876 -3.8022 0
M  V30 649 H 63.7522 -1.91945 -3.37311 0
M  V30 650 H 61.8532 0.526034 -3.68868 0
M  V30 651 H 61.9662 -1.08453 -4.66663 0
M  V30 652 H 60.3302 -0.481892 -2.501 0
M  V30 653 H 61.1132 -2.14352 -2.68157 0
M  V30 654 N 63.5583 1.46682 -0.576371 0
M  V30 655 C 64.8043 2.03287 -0.0679305 0
M  V30 656 C 65.1593 1.44063 1.27529 0
M  V30 657 O 64.4523 0.593973 1.82161 0
M  V30 658 C 64.6463 3.57345 0.062886 0
M  V30 659 C 64.4753 4.31509 -1.26611 0
M  V30 660 C 63.2453 4.70664 -1.83856 0
M  V30 661 C 65.4433 4.65444 -2.18783 0
M  V30 662 N 63.4253 5.29552 -3.10561 0
M  V30 663 C 64.7963 5.24835 -3.30072 0
M  V30 664 C 66.8513 4.47375 -2.18542 0
M  V30 665 C 65.5543 5.68063 -4.41244 0
M  V30 666 C 67.5803 4.91614 -3.28739 0
M  V30 667 C 66.9423 5.51071 -4.38748 0
M  V30 668 H 63.0413 0.779083 -0.0674836 0
M  V30 669 H 65.6253 1.78918 -0.767877 0
M  V30 670 H 63.7963 3.8144 0.731988 0
M  V30 671 H 65.5283 4.00592 0.575134 0
M  V30 672 H 62.2833 4.53224 -1.37424 0
M  V30 673 H 62.7073 5.63523 -3.75195 0
M  V30 674 H 67.3493 4.00747 -1.34765 0
M  V30 675 H 65.0673 6.13672 -5.25768 0
M  V30 676 H 68.6533 4.79389 -3.29662 0
M  V30 677 H 67.5333 5.84678 -5.22611 0
M  V30 678 N 65.0364 0.313813 1.54444 0
M  V30 679 C 66.2644 -0.293918 2.04802 0
M  V30 680 C 66.6794 -1.46537 1.19047 0
M  V30 681 O 66.0364 -1.81182 0.218939 0
M  V30 682 C 66.0874 -0.737806 3.53891 0
M  V30 683 O 65.8084 0.387038 4.36387 0
M  V30 684 C 67.3094 -1.40936 4.203 0
M  V30 685 H 64.5294 -0.0620057 0.668129 0
M  V30 686 H 67.0734 0.457169 1.99324 0
M  V30 687 H 65.2284 -1.43889 3.59687 0
M  V30 688 H 65.6424 0.0391274 5.24485 0
M  V30 689 H 67.1164 -1.67099 5.26101 0
M  V30 690 H 67.5934 -2.35355 3.70816 0
M  V30 691 H 68.1994 -0.751117 4.18615 0
M  V30 692 N 66.5145 -1.57545 0.0417849 0
M  V30 693 C 67.9255 -1.80011 -0.495259 0
M  V30 694 C 68.2765 -0.953199 -1.71489 0
M  V30 695 O 67.4015 -0.167138 -2.15754 0
M  V30 696 C 67.9965 -3.26482 -0.905265 0
M  V30 697 C 66.5555 -3.499 -1.38734 0
M  V30 698 C 65.7025 -2.74979 -0.358056 0
M  V30 699 H 68.6535 -1.56425 0.267736 0
M  V30 700 H 68.6745 -3.36887 -1.76882 0
M  V30 701 H 68.1865 -3.88096 -0.017401 0
M  V30 702 H 66.2875 -2.93553 -2.29471 0
M  V30 703 H 66.4005 -4.58615 -1.38598 0
M  V30 704 H 64.7645 -2.40834 -0.828912 0
M  V30 705 H 65.5475 -3.39315 0.521561 0
M  V30 706 N 67.9926 0.231505 -1.5589 0
M  V30 707 C 68.9026 1.308 -1.94752 0
M  V30 708 C 69.9186 1.51826 -0.849989 0
M  V30 709 O 71.0946 1.6515 -1.15271 0
M  V30 710 C 68.1596 2.63968 -2.24771 0
M  V30 711 C 67.2206 2.51331 -3.48039 0
M  V30 712 C 66.4536 3.78148 -3.76616 0
M  V30 713 O 66.6766 4.80722 -3.07022 0
M  V30 714 O 65.6106 3.75857 -4.70123 0
M  V30 715 H 69.4366 1.0083 -2.86474 0
M  V30 716 H 67.0216 0.433547 -1.42971 0
M  V30 717 H 68.9036 3.42633 -2.45318 0
M  V30 718 H 67.5786 2.9364 -1.36225 0
M  V30 719 H 66.4856 1.709 -3.32782 0
M  V30 720 H 67.8186 2.26601 -4.36936 0
M  V30 721 N 69.4707 1.49531 0.497807 0
M  V30 722 C 70.4337 1.65916 1.58128 0
M  V30 723 C 71.4337 0.530825 1.51786 0
M  V30 724 O 72.6237 0.797342 1.54881 0
M  V30 725 C 69.7557 1.65951 2.9778 0
M  V30 726 H 70.9487 2.62556 1.44929 0
M  V30 727 H 68.5017 1.38611 0.722275 0
M  V30 728 H 69.2367 0.709065 3.16453 0
M  V30 729 H 69.0217 2.47897 3.03792 0
M  V30 730 H 70.5117 1.80673 3.76493 0
M  V30 731 N 70.9488 -0.749086 1.3866 0
M  V30 732 C 71.9118 -1.84457 1.36045 0
M  V30 733 C 72.9118 -1.58682 0.260122 0
M  V30 734 O 74.1018 -1.66343 0.517261 0
M  V30 735 C 71.2338 -3.22008 1.11911 0
M  V30 736 H 72.4268 -1.88182 2.33512 0
M  V30 737 H 69.9798 -0.951266 1.24019 0
M  V30 738 H 70.7148 -3.2395 0.150686 0
M  V30 739 H 70.4998 -3.42111 1.91579 0
M  V30 740 H 71.9898 -4.0208 1.12788 0
M  V30 741 N 72.4269 -1.23603 -0.977757 0
M  V30 742 C 73.6729 -1.07129 -1.72195 0
M  V30 743 C 74.0059 0.390501 -1.90233 0
M  V30 744 O 73.2809 1.28902 -1.45653 0
M  V30 745 C 73.5639 -1.80031 -3.11867 0
M  V30 746 C 73.4169 -3.33899 -3.01383 0
M  V30 747 C 74.7359 -1.56492 -4.11337 0
M  V30 748 H 71.8549 -0.390571 -0.624999 0
M  V30 749 H 74.4969 -1.52142 -1.13811 0
M  V30 750 H 72.6469 -1.41768 -3.6171 0
M  V30 751 H 74.3189 -3.81699 -2.59043 0
M  V30 752 H 72.5619 -3.62796 -2.37827 0
M  V30 753 H 73.2329 -3.801 -4.00285 0
M  V30 754 H 75.7089 -1.89757 -3.70313 0
M  V30 755 H 74.5849 -2.09973 -5.07151 0
M  V30 756 H 74.8459 -0.500874 -4.39254 0
M  V30 757 N 73.905 1.17692 -1.04816 0
M  V30 758 C 74.815 2.25229 -0.65643 0
M  V30 759 C 75.831 1.71018 0.320761 0
M  V30 760 O 77.007 2.00649 0.173805 0
M  V30 761 C 74.072 3.46684 -0.0332629 0
M  V30 762 C 73.133 4.15997 -1.06042 0
M  V30 763 C 72.366 5.31654 -0.466893 0
M  V30 764 O 72.589 5.65777 0.724758 0
M  V30 765 O 71.523 5.89831 -1.1993 0
M  V30 766 H 75.349 2.61016 -1.55255 0
M  V30 767 H 72.934 1.24919 -0.81949 0
M  V30 768 H 74.816 4.20234 0.313256 0
M  V30 769 H 73.491 3.12703 0.836566 0
M  V30 770 H 72.398 3.44482 -1.45886 0
M  V30 771 H 73.731 4.53996 -1.90127 0
M  V30 772 N 75.3831 0.828654 1.34056 0
M  V30 773 C 76.3331 0.226828 2.26869 0
M  V30 774 C 77.3171 -0.612243 1.48796 0
M  V30 775 O 78.5091 -0.465884 1.70759 0
M  V30 776 C 75.6381 -0.605654 3.37915 0
M  V30 777 C 74.7241 0.244361 4.23395 0
M  V30 778 N 75.1151 1.31815 4.88322 0
M  V30 779 C 73.4131 0.0296616 4.4599 0
M  V30 780 C 74.1141 1.83895 5.51867 0
M  V30 781 N 73.0901 1.14196 5.3147 0
M  V30 782 H 76.8921 1.04811 2.74576 0
M  V30 783 H 74.4061 0.67205 1.47842 0
M  V30 784 H 76.4031 -1.05302 4.03382 0
M  V30 785 H 75.0631 -1.42504 2.91758 0
M  V30 786 H 76.0741 1.70099 4.8917 0
M  V30 787 H 72.7511 -0.757097 4.10578 0
M  V30 788 H 74.1411 2.7376 6.136 0
M  V30 789 N 76.8612 -1.46375 0.584142 0
M  V30 790 C 78.2722 -1.86031 0.157959 0
M  V30 791 C 78.6232 -1.48753 -1.27933 0
M  V30 792 O 77.7482 -0.903098 -1.96655 0
M  V30 793 C 78.3432 -3.37642 0.279892 0
M  V30 794 C 76.9022 -3.76289 -0.09143 0
M  V30 795 C 76.0492 -2.7039 0.615178 0
M  V30 796 H 79.0002 -1.37509 0.792274 0
M  V30 797 H 79.0212 -3.77275 -0.494364 0
M  V30 798 H 78.5332 -3.64742 1.32607 0
M  V30 799 H 76.6342 -3.54806 -1.13769 0
M  V30 800 H 76.7472 -4.78246 0.285886 0
M  V30 801 H 75.1112 -2.5464 0.0552833 0
M  V30 802 H 75.8942 -3.0033 1.66303 0
M  V30 803 N 78.3393 -0.321999 -1.54275 0
M  V30 804 C 79.2493 0.553631 -2.27974 0
M  V30 805 C 80.2653 1.13054 -1.32268 0
M  V30 806 O 81.4413 1.15084 -1.6528 0
M  V30 807 C 78.5063 1.69927 -3.02201 0
M  V30 808 C 77.5673 1.15433 -4.1349 0
M  V30 809 C 76.8003 2.24537 -4.84168 0
M  V30 810 O 77.0233 3.44852 -4.5435 0
M  V30 811 O 75.9573 1.90044 -5.7111 0
M  V30 812 H 79.7833 -0.0448345 -3.03667 0
M  V30 813 H 77.3683 -0.0877418 -1.49142 0
M  V30 814 H 79.2503 2.3663 -3.48689 0
M  V30 815 H 77.9253 2.28395 -2.29385 0
M  V30 816 H 76.8323 0.452436 -3.71354 0
M  V30 817 H 78.1653 0.614805 -4.88345 0
M  V30 818 N 79.8174 1.5752 -0.0501392 0
M  V30 819 C 80.7804 2.1037 0.909786 0
M  V30 820 C 81.7804 1.02308 1.24056 0
M  V30 821 O 82.9704 1.28385 1.17741 0
M  V30 822 C 80.1024 2.58708 2.21998 0
M  V30 823 H 81.2954 2.96479 0.451665 0
M  V30 824 H 78.8484 1.55038 0.198248 0
M  V30 825 H 79.5834 1.75989 2.72394 0
M  V30 826 H 79.3684 3.37675 1.99295 0
M  V30 827 H 80.8584 2.99747 2.9076 0
M  V30 828 N 81.2955 -0.223234 1.56011 0
M  V30 829 C 82.5415 -0.949279 1.79211 0
M  V30 830 C 82.8745 -1.84054 0.619494 0
M  V30 831 O 82.1495 -1.90726 -0.381317 0
M  V30 832 C 82.4325 -1.78965 3.12479 0
M  V30 833 C 82.2855 -0.924997 4.40186 0
M  V30 834 C 83.6045 -2.76774 3.42175 0
M  V30 835 H 80.7235 -0.343676 0.651963 0
M  V30 836 H 83.3655 -0.218253 1.88742 0
M  V30 837 H 81.5155 -2.41291 3.04485 0
M  V30 838 H 83.1875 -0.318615 4.60198 0
M  V30 839 H 81.4305 -0.230344 4.33188 0
M  V30 840 H 82.1015 -1.54735 5.29869 0
M  V30 841 H 84.5775 -2.24584 3.50287 0
M  V30 842 H 83.4535 -3.32678 4.36597 0
M  V30 843 H 83.7145 -3.54429 2.64258 0
M  V30 844 N 82.7736 -1.49793 -0.48987 0
M  V30 845 C 84.1896 -1.36803 -0.822022 0
M  V30 846 C 84.3896 -0.409652 -1.97292 0
M  V30 847 O 83.4456 0.154614 -2.52026 0
M  V30 848 C 84.7586 -2.77768 -1.15175 0
M  V30 849 C 86.3066 -2.86549 -1.25931 0
M  V30 850 C 86.7816 -4.28306 -1.62228 0
M  V30 851 N 88.2726 -4.31169 -1.69256 0
M  V30 852 C 89.0076 -5.37832 -1.98807 0
M  V30 853 N 88.5036 -6.54726 -2.26507 0
M  V30 854 N 90.2966 -5.25258 -2.00152 0
M  V30 855 H 82.4476 -2.10691 0.268881 0
M  V30 856 H 84.7106 -0.946241 0.057728 0
M  V30 857 H 84.4166 -3.49648 -0.379335 0
M  V30 858 H 84.2906 -3.13836 -2.09253 0
M  V30 859 H 86.6776 -2.14899 -2.02243 0
M  V30 860 H 86.7586 -2.54049 -0.298776 0
M  V30 861 H 86.4026 -5.00486 -0.864622 0
M  V30 862 H 86.3326 -4.58279 -2.594 0
M  V30 863 H 88.8236 -3.4687 -1.49965 0
M  V30 864 H 89.1366 -7.31833 -2.48276 0
M  V30 865 H 87.4816 -6.57933 -2.23939 0
M  V30 866 H 90.6726 -4.32938 -1.77996 0
M  V30 867 H 90.8456 -6.08476 -2.22848 0
M  V30 868 N 84.2517 0.741722 -1.39055 0
M  V30 869 C 85.1837 1.8657 -1.33133 0
M  V30 870 C 86.1967 1.61001 -0.241329 0
M  V30 871 O 87.3857 1.7136 -0.499784 0
M  V30 872 C 84.4857 3.22457 -1.04283 0
M  V30 873 C 83.6587 3.75435 -2.24427 0
M  V30 874 C 82.7177 4.89867 -1.92138 0
M  V30 875 O 81.7437 5.03879 -2.64754 0
M  V30 876 N 82.9457 5.73738 -0.88347 0
M  V30 877 H 85.7107 1.92156 -2.29991 0
M  V30 878 H 83.2717 0.922172 -1.3307 0
M  V30 879 H 85.2637 3.9657 -0.807128 0
M  V30 880 H 83.8337 3.12181 -0.161807 0
M  V30 881 H 83.0537 2.92751 -2.6399 0
M  V30 882 H 84.3417 4.07563 -3.04581 0
M  V30 883 H 83.7397 5.64999 -0.281517 0
M  V30 884 H 82.2967 6.47947 -0.707662 0
M  V30 885 N 85.7298 1.2412 0.971189 0
M  V30 886 C 86.6598 1.05508 2.08304 0
M  V30 887 C 87.6408 -0.0308864 1.70072 0
M  V30 888 O 88.8258 0.135521 1.93727 0
M  V30 889 C 85.9558 0.655365 3.4106 0
M  V30 890 C 84.9098 1.68971 3.93234 0
M  V30 891 C 84.2358 1.14516 5.22293 0
M  V30 892 C 85.5358 3.08487 4.21465 0
M  V30 893 H 87.2298 1.98507 2.24132 0
M  V30 894 H 84.7758 0.955821 1.07704 0
M  V30 895 H 86.7288 0.51217 4.18276 0
M  V30 896 H 85.4528 -0.31032 3.25122 0
M  V30 897 H 84.1118 1.82106 3.18171 0
M  V30 898 H 83.7598 0.170189 5.02712 0
M  V30 899 H 83.4598 1.83635 5.58168 0
M  V30 900 H 84.9838 1.01401 6.02121 0
M  V30 901 H 86.3978 2.98601 4.89398 0
M  V30 902 H 84.7948 3.74926 4.68562 0
M  V30 903 H 85.8648 3.56787 3.28376 0
M  V30 904 N 87.2079 -1.17134 1.05439 0
M  V30 905 C 88.1579 -2.1919 0.627675 0
M  V30 906 C 89.1419 -1.57328 -0.337147 0
M  V30 907 O 90.3339 -1.76329 -0.153976 0
M  V30 908 C 87.4629 -3.43299 0.00651435 0
M  V30 909 C 86.5489 -4.12255 0.995312 0
M  V30 910 N 86.9399 -4.56997 2.16765 0
M  V30 911 C 85.2379 -4.38316 0.824336 0
M  V30 912 C 85.9389 -5.10239 2.7934 0
M  V30 913 N 84.9149 -5.02595 2.07122 0
M  V30 914 H 88.7169 -2.5149 1.52086 0
M  V30 915 H 86.2309 -1.33491 0.924868 0
M  V30 916 H 88.2279 -4.15693 -0.316965 0
M  V30 917 H 86.8879 -3.1249 -0.882033 0
M  V30 918 H 87.8989 -4.51006 2.54587 0
M  V30 919 H 84.5759 -4.17498 -0.0129526 0
M  V30 920 H 85.9659 -5.54961 3.78772 0
M  V30 921 N 88.686 -0.835752 -1.33615 0
M  V30 922 C 90.102 -0.523139 -1.50783 0
M  V30 923 C 90.302 0.950171 -1.77691 0
M  V30 924 O 89.358 1.73411 -1.83534 0
M  V30 925 C 90.671 -1.39378 -2.66448 0
M  V30 926 C 92.219 -1.39223 -2.80332 0
M  V30 927 C 92.694 -2.24765 -3.99055 0
M  V30 928 N 94.185 -2.22458 -4.06284 0
M  V30 929 C 94.92 -2.85386 -4.97336 0
M  V30 930 N 94.416 -3.57354 -5.93523 0
M  V30 931 N 96.209 -2.74872 -4.90308 0
M  V30 932 H 88.36 -1.78952 -1.14411 0
M  V30 933 H 90.623 -0.763297 -0.562212 0
M  V30 934 H 90.329 -2.44061 -2.53234 0
M  V30 935 H 90.203 -1.0676 -3.61776 0
M  V30 936 H 92.59 -0.353136 -2.92979 0
M  V30 937 H 92.671 -1.75846 -1.85773 0
M  V30 938 H 92.315 -3.28732 -3.87167 0
M  V30 939 H 92.245 -1.85485 -4.92852 0
M  V30 940 H 94.736 -1.70119 -3.37443 0
M  V30 941 H 95.049 -4.02584 -6.59656 0
M  V30 942 H 93.394 -3.61461 -5.93608 0
M  V30 943 H 96.585 -2.18213 -4.14126 0
M  V30 944 H 96.758 -3.24199 -5.61069 0
M  V30 945 N 90.1641 1.46063 -0.591896 0
M  V30 946 C 91.0741 2.34192 0.13831 0
M  V30 947 C 92.0901 1.50305 0.876608 0
M  V30 948 O 93.2661 1.8315 0.837728 0
M  V30 949 C 90.3311 3.27656 1.13326 0
M  V30 950 C 89.3921 4.27445 0.39863 0
M  V30 951 C 88.6251 5.16443 1.34618 0
M  V30 952 O 88.8481 5.08553 2.58321 0
M  V30 953 O 87.7821 5.95843 0.851768 0
M  V30 954 H 91.6081 2.98002 -0.58552 0
M  V30 955 H 89.1931 1.45188 -0.352239 0
M  V30 956 H 91.0751 3.85291 1.70671 0
M  V30 957 H 89.7501 2.6643 1.83839 0
M  V30 958 H 88.6571 3.73471 -0.216895 0
M  V30 959 H 89.9901 4.91482 -0.265709 0
M  V30 960 N 91.6422 0.330177 1.54103 0
M  V30 961 C 92.8892 -0.270405 2.00686 0
M  V30 962 C 93.2172 -1.51621 1.21825 0
M  V30 963 O 92.4722 -1.93536 0.29025 0
M  V30 964 C 92.7712 -0.643134 3.51566 0
M  V30 965 C 92.4372 0.504251 4.48072 0
M  V30 966 C 91.0992 0.819163 4.74176 0
M  V30 967 C 93.4512 1.27465 5.05373 0
M  V30 968 C 90.7792 1.90708 5.5484 0
M  V30 969 C 93.1312 2.35271 5.87223 0
M  V30 970 C 91.7952 2.67336 6.11627 0
M  V30 971 H 91.0652 -0.0989482 0.734364 0
M  V30 972 H 93.7122 0.455324 1.86008 0
M  V30 973 H 92.0172 -1.44938 3.64006 0
M  V30 974 H 93.7142 -1.11949 3.85056 0
M  V30 975 H 90.3042 0.248733 4.27878 0
M  V30 976 H 94.4882 1.04462 4.85182 0
M  V30 977 H 89.7442 2.15991 5.71977 0
M  V30 978 H 93.9182 2.95405 6.30641 0
M  V30 979 H 91.5452 3.51763 6.73919 0
M  V30 980 N 93.1203 -1.57491 0.0584922 0
M  V30 981 C 94.0503 -2.14988 -0.911178 0
M  V30 982 C 95.0313 -1.07343 -1.31952 0
M  V30 983 O 96.2163 -1.35318 -1.39294 0
M  V30 984 C 93.3463 -2.70078 -2.18347 0
M  V30 985 C 92.3003 -3.82771 -1.91495 0
M  V30 986 C 91.6263 -4.24408 -3.25241 0
M  V30 987 C 92.9263 -5.07592 -1.23075 0
M  V30 988 H 94.6203 -2.96263 -0.432246 0
M  V30 989 H 92.1663 -1.42512 -0.206469 0
M  V30 990 H 94.1193 -3.08943 -2.86587 0
M  V30 991 H 92.8433 -1.86005 -2.68458 0
M  V30 992 H 91.5023 -3.44389 -1.25664 0
M  V30 993 H 91.1503 -3.37275 -3.73168 0
M  V30 994 H 90.8503 -5.00366 -3.08071 0
M  V30 995 H 92.3743 -4.65879 -3.94701 0
M  V30 996 H 93.7883 -5.43857 -1.81362 0
M  V30 997 H 92.1853 -5.88741 -1.16207 0
M  V30 998 H 93.2553 -4.84454 -0.207847 0
M  V30 999 N 94.5984 0.214957 -1.56127 0
M  V30 1000 C 96.0144 0.564948 -1.49267 0
M  V30 1001 C 96.2144 1.86827 -0.754838 0
M  V30 1002 O 95.2704 2.50745 -0.297198 0
M  V30 1003 C 96.5834 0.638071 -2.93852 0
M  V30 1004 C 98.1314 0.728253 -3.0441 0
M  V30 1005 C 98.6064 0.832663 -4.50367 0
M  V30 1006 N 100.097 0.896712 -4.54437 0
M  V30 1007 C 100.832 0.997324 -5.6466 0
M  V30 1008 N 100.328 1.06147 -6.8462 0
M  V30 1009 N 102.121 1.03297 -5.52527 0
M  V30 1010 H 94.2724 -0.640211 -2.02522 0
M  V30 1011 H 96.5354 -0.225507 -0.920788 0
M  V30 1012 H 96.2414 -0.250126 -3.50809 0
M  V30 1013 H 96.1154 1.49947 -3.46115 0
M  V30 1014 H 98.5024 1.60689 -2.47514 0
M  V30 1015 H 98.5834 -0.158952 -2.55306 0
M  V30 1016 H 98.2274 -0.0415417 -5.07883 0
M  V30 1017 H 98.1574 1.73538 -4.97184 0
M  V30 1018 H 100.648 0.857188 -3.6805 0
M  V30 1019 H 100.961 1.1382 -7.64372 0
M  V30 1020 H 99.3064 1.03049 -6.87318 0
M  V30 1021 H 102.497 0.979558 -4.57736 0
M  V30 1022 H 102.67 1.10793 -6.38458 0
M  V30 1023 N 96.0765 1.50051 0.48192 0
M  V30 1024 C 97.0395 1.67584 1.5636 0
M  V30 1025 C 98.0395 0.546894 1.51214 0
M  V30 1026 O 99.2295 0.813725 1.54026 0
M  V30 1027 C 96.3615 1.691 2.96003 0
M  V30 1028 H 97.5545 2.64078 1.42136 0
M  V30 1029 H 95.1075 1.39369 0.707533 0
M  V30 1030 H 95.8425 0.742589 3.15684 0
M  V30 1031 H 95.6275 2.51105 3.01146 0
M  V30 1032 H 97.1175 1.84656 3.74556 0
M  V30 1033 N 97.5546 -0.734337 1.39446 0
M  V30 1034 C 98.8026 -1.49096 1.36436 0
M  V30 1035 C 99.1236 -1.94961 -0.0388255 0
M  V30 1036 O 98.3936 -1.69033 -0.990191 0
M  V30 1037 H 96.9736 -0.5531 0.502085 0
M  V30 1038 H 99.6356 -0.871725 1.74319 0
M  V30 1039 H 98.7316 -2.37276 2.02747 0
M  V30 1040 N 99.0327 -1.24633 -0.964593 0
M  V30 1041 C 100.258 -1.11596 -1.74818 0
M  V30 1042 C 100.683 0.32723 -1.85232 0
M  V30 1043 O 100.041 1.23695 -1.32549 0
M  V30 1044 C 100.089 -1.76397 -3.1451 0
M  V30 1045 O 99.1927 -1.03685 -3.99153 0
M  V30 1046 H 98.5337 -0.390196 -0.537255 0
M  V30 1047 H 101.064 -1.65002 -1.20977 0
M  V30 1048 H 101.074 -1.8228 -3.65018 0
M  V30 1049 H 99.7487 -2.81401 -3.06246 0
M  V30 1050 H 98.3257 -1.05611 -3.57632 0
M  V30 1051 N 100.511 1.16574 -1.06058 0
M  V30 1052 C 101.459 2.22941 -0.663343 0
M  V30 1053 C 102.453 1.66358 0.319593 0
M  V30 1054 O 103.659 1.7905 0.184713 0
M  V30 1055 H 100.034 0.725907 -0.196376 0
M  V30 1056 H 102.005 2.53736 -1.57037 0
M  V30 1057 C 100.754 3.47642 -0.0632808 0
M  V30 1058 H 100.077 3.91493 -0.810733 0
M  V30 1059 H 101.517 4.2363 0.177177 0
M  V30 1060 C 99.9758 3.1509 1.19248 0
M  V30 1061 O 100.506 3.30673 2.28075 0
M  V30 1062 N 98.7118 2.6924 1.09353 0
M  V30 1063 H 98.2588 2.5676 0.207912 0
M  V30 1064 H 98.2168 2.47833 1.93458 0
M  V30 1065 N 101.989 0.842826 1.3317 0
M  V30 1066 C 103.235 0.441099 1.97945 0
M  V30 1067 C 103.568 -0.998024 1.66593 0
M  V30 1068 O 102.843 -1.69839 0.947898 0
M  V30 1069 C 103.126 0.666841 3.53872 0
M  V30 1070 C 102.979 2.15352 3.94897 0
M  V30 1071 C 104.298 0.115544 4.39948 0
M  V30 1072 H 101.417 0.161739 0.719034 0
M  V30 1073 H 104.059 1.05907 1.57746 0
M  V30 1074 H 102.209 0.140828 3.88245 0
M  V30 1075 H 103.881 2.7447 3.70761 0
M  V30 1076 H 102.124 2.63653 3.44484 0
M  V30 1077 H 102.795 2.26221 5.03516 0
M  V30 1078 H 105.271 0.565213 4.12243 0
M  V30 1079 H 104.147 0.303152 5.48062 0
M  V30 1080 H 104.408 -0.980935 4.3108 0
M  V30 1081 N 103.467 -1.45747 0.599634 0
M  V30 1082 C 104.4 -2.27547 -0.172552 0
M  V30 1083 C 105.378 -1.36657 -0.881116 0
M  V30 1084 O 106.562 -1.66081 -0.891595 0
M  V30 1085 C 103.689 -3.14829 -1.24903 0
M  V30 1086 C 102.735 -4.21603 -0.644465 0
M  V30 1087 S 103.568 -5.32754 0.541606 0
M  V30 1088 C 104.724 -6.23604 -0.535656 0
M  V30 1089 H 104.957 -2.92691 0.521468 0
M  V30 1090 H 102.49 -1.49473 0.386947 0
M  V30 1091 H 104.448 -3.65675 -1.86527 0
M  V30 1092 H 103.109 -2.48965 -1.91508 0
M  V30 1093 H 102.302 -4.82566 -1.45417 0
M  V30 1094 H 101.904 -3.73857 -0.103534 0
M  V30 1095 H 104.196 -6.62519 -1.41686 0
M  V30 1096 H 105.139 -7.0809 0.0376246 0
M  V30 1097 H 105.547 -5.58103 -0.84741 0
M  V30 1098 N 104.945 -0.338344 -1.53925 0
M  V30 1099 C 105.877 0.555117 -2.22376 0
M  V30 1100 C 106.89 1.06812 -1.22862 0
M  V30 1101 O 108.079 0.979163 -1.49247 0
M  V30 1102 C 105.179 1.77609 -2.88631 0
M  V30 1103 C 104.352 1.39927 -4.14414 0
M  V30 1104 C 103.411 2.47936 -4.64127 0
M  V30 1105 O 102.437 2.11461 -5.28463 0
M  V30 1106 N 103.639 3.79107 -4.39612 0
M  V30 1107 H 106.404 -0.0310778 -2.99684 0
M  V30 1108 H 103.965 -0.162226 -1.61085 0
M  V30 1109 H 105.957 2.49287 -3.18807 0
M  V30 1110 H 104.527 2.26978 -2.14941 0
M  V30 1111 H 103.747 0.513481 -3.90841 0
M  V30 1112 H 105.035 1.12341 -4.96243 0
M  V30 1113 H 104.433 4.11531 -3.88148 0
M  V30 1114 H 102.99 4.4697 -4.74406 0
M  V30 1115 N 106.423 1.57458 -0.0668435 0
M  V30 1116 C 107.651 1.97624 0.612565 0
M  V30 1117 C 108.066 0.94502 1.63447 0
M  V30 1118 O 107.423 -0.0689276 1.8237 0
M  V30 1119 C 107.474 3.37869 1.28555 0
M  V30 1120 O 107.195 4.3704 0.304557 0
M  V30 1121 C 108.696 3.92882 2.05325 0
M  V30 1122 H 105.916 0.650045 0.166381 0
M  V30 1123 H 108.46 2.04035 -0.137782 0
M  V30 1124 H 106.615 3.3256 1.98702 0
M  V30 1125 H 107.029 5.18565 0.786779 0
M  V30 1126 H 108.503 4.93247 2.47812 0
M  V30 1127 H 108.98 3.29156 2.9078 0
M  V30 1128 H 109.586 4.01577 1.40056 0
M  V30 1129 N 107.901 -0.206675 1.56239 0
M  V30 1130 C 109.148 -0.928842 1.79941 0
M  V30 1131 C 109.476 -1.83734 0.638131 0
M  V30 1132 O 108.731 -1.92039 -0.376746 0
M  V30 1133 C 109.03 -1.78675 3.09532 0
M  V30 1134 C 108.696 -1.03022 4.38973 0
M  V30 1135 C 107.358 -0.821302 4.74139 0
M  V30 1136 C 109.71 -0.497081 5.18824 0
M  V30 1137 C 107.038 -0.0675719 5.86661 0
M  V30 1138 C 109.39 0.24338 6.32132 0
M  V30 1139 C 108.054 0.463422 6.65889 0
M  V30 1140 H 107.324 -0.339887 0.658451 0
M  V30 1141 H 109.971 -0.195977 1.90495 0
M  V30 1142 H 108.276 -2.58794 2.94165 0
M  V30 1143 H 109.973 -2.34792 3.25075 0
M  V30 1144 H 106.563 -1.20306 4.11369 0
M  V30 1145 H 110.747 -0.645921 4.92079 0
M  V30 1146 H 106.003 0.112995 6.11296 0
M  V30 1147 H 110.177 0.66393 6.93228 0
M  V30 1148 H 107.804 1.04938 7.52922 0
M  V30 1149 N 109.379 -1.50304 -0.473955 0
M  V30 1150 C 110.607 -1.64902 -1.24959 0
M  V30 1151 C 111.022 -0.331198 -1.85872 0
M  V30 1152 O 110.379 0.68652 -1.69095 0
M  V30 1153 C 110.43 -2.73803 -2.36038 0
M  V30 1154 O 110.151 -4.00477 -1.77624 0
M  V30 1155 C 111.652 -2.99349 -3.26964 0
M  V30 1156 H 108.872 -0.554383 -0.378022 0
M  V30 1157 H 111.416 -1.9651 -0.566054 0
M  V30 1158 H 109.571 -2.44898 -3.00173 0
M  V30 1159 H 109.985 -4.60678 -2.5075 0
M  V30 1160 H 111.459 -3.79217 -4.01121 0
M  V30 1161 H 111.936 -2.10307 -3.85574 0
M  V30 1162 H 112.542 -3.29774 -2.68569 0
M  V30 1163 N 110.857 0.726932 -1.39834 0
M  V30 1164 C 112.104 1.48664 -1.37496 0
M  V30 1165 C 112.432 1.94482 0.0264678 0
M  V30 1166 O 111.687 1.67692 1.00886 0
M  V30 1167 C 111.986 2.73495 -2.30077 0
M  V30 1168 C 111.652 2.46502 -3.77555 0
M  V30 1169 C 110.314 2.3885 -4.17737 0
M  V30 1170 C 112.666 2.23604 -4.70798 0
M  V30 1171 C 109.994 2.06352 -5.49214 0
M  V30 1172 C 112.346 1.92622 -6.02561 0
M  V30 1173 C 111.01 1.83444 -6.41798 0
M  V30 1174 H 110.28 0.544001 -0.503135 0
M  V30 1175 H 112.927 0.833657 -1.72402 0
M  V30 1176 H 111.232 3.43575 -1.88317 0
M  V30 1177 H 112.929 3.31549 -2.25558 0
M  V30 1178 H 109.519 2.5334 -3.45712 0
M  V30 1179 H 113.703 2.28479 -4.40581 0
M  V30 1180 H 108.959 1.97776 -5.78528 0
M  V30 1181 H 113.133 1.73914 -6.74334 0
M  V30 1182 H 110.76 1.58029 -7.43593 0
M  V30 1183 N 112.336 1.25143 0.95797 0
M  V30 1184 C 113.566 1.12261 1.73439 0
M  V30 1185 C 113.974 -0.326715 1.86358 0
M  V30 1186 O 113.317 -1.2367 1.35836 0
M  V30 1187 C 113.379 1.69966 3.16784 0
M  V30 1188 C 113.043 3.18936 3.27305 0
M  V30 1189 C 114.04 4.15968 3.11877 0
M  V30 1190 C 111.725 3.59083 3.51234 0
M  V30 1191 C 113.719 5.51126 3.20217 0
M  V30 1192 C 111.406 4.9438 3.5921 0
M  V30 1193 C 112.404 5.90211 3.43716 0
M  V30 1194 O 112.092 7.23046 3.51368 0
M  V30 1195 H 111.824 0.392476 0.550399 0
M  V30 1196 H 114.378 1.65927 1.21068 0
M  V30 1197 H 112.608 1.10744 3.70503 0
M  V30 1198 H 114.297 1.52232 3.76272 0
M  V30 1199 H 115.063 3.86292 2.93264 0
M  V30 1200 H 110.942 2.84989 3.62356 0
M  V30 1201 H 114.486 6.25905 3.0804 0
M  V30 1202 H 110.383 5.23723 3.77339 0
M  V30 1203 H 111.151 7.31097 3.6802 0
M  V30 1204 N 113.814 -1.1601 1.06675 0
M  V30 1205 C 114.777 -2.18724 0.685001 0
M  V30 1206 C 115.777 -1.58496 -0.271246 0
M  V30 1207 O 116.967 -1.74119 -0.0531156 0
M  V30 1208 C 114.099 -3.40899 0.00853648 0
M  V30 1209 H 115.292 -2.54011 1.59431 0
M  V30 1210 H 112.845 -1.30352 0.862441 0
M  V30 1211 H 113.58 -3.11173 -0.913337 0
M  V30 1212 H 113.365 -3.8587 0.696204 0
M  V30 1213 H 114.855 -4.16886 -0.24414 0
M  V30 1214 N 115.292 -0.849877 -1.32721 0
M  V30 1215 C 116.517 -0.463856 -2.02146 0
M  V30 1216 C 116.942 0.930449 -1.63476 0
M  V30 1217 O 116.3 1.61033 -0.832952 0
M  V30 1218 C 116.348 -0.604955 -3.55489 0
M  V30 1219 O 115.452 0.36425 -4.10788 0
M  V30 1220 H 114.793 -0.187046 -0.637111 0
M  V30 1221 H 117.323 -1.14775 -1.69375 0
M  V30 1222 H 117.333 -0.490696 -4.05038 0
M  V30 1223 H 116.008 -1.62174 -3.82978 0
M  V30 1224 H 114.585 0.206628 -3.72327 0
M  V30 1225 N 116.77 1.45427 -0.607355 0
M  V30 1226 C 117.68 2.34325 0.113463 0
M  V30 1227 C 118.696 1.51226 0.860617 0
M  V30 1228 O 119.872 1.84029 0.818255 0
M  V30 1229 C 116.937 3.28839 1.09844 0
M  V30 1230 C 115.998 4.27844 0.353271 0
M  V30 1231 C 115.231 5.17842 1.29133 0
M  V30 1232 O 115.454 5.11264 2.52913 0
M  V30 1233 O 114.388 5.96713 0.788523 0
M  V30 1234 H 118.214 2.97364 -0.617094 0
M  V30 1235 H 115.799 1.44807 -0.367619 0
M  V30 1236 H 117.681 3.8708 1.66575 0
M  V30 1237 H 116.356 2.68365 1.81003 0
M  V30 1238 H 115.263 3.7322 -0.256494 0
M  V30 1239 H 116.596 4.91173 -0.317822 0
M  V30 1240 N 118.248 0.346503 1.53744 0
M  V30 1241 C 119.525 -0.304532 1.93215 0
M  V30 1242 C 119.905 -1.67993 1.27834 0
M  V30 1243 O 119.253 -2.24411 0.430352 0
M  V30 1244 C 119.463 -0.373852 3.46992 0
M  V30 1245 C 120.811 -0.62329 4.2 0
M  V30 1246 O 121.835 -0.455847 3.53271 0
M  V30 1247 O 120.694 -0.947879 5.38217 0
M  V30 1248 H 117.788 -0.178318 0.807547 0
M  V30 1249 H 120.334 0.397895 1.64969 0
M  V30 1250 H 119.106 0.591224 3.86808 0
M  V30 1251 H 118.729 -1.12294 3.81413 0
M  V30 1252 N 119.726 -1.57421 0.075193 0
M  V30 1253 C 120.673 -2.12915 -0.890843 0
M  V30 1254 C 121.643 -1.04252 -1.29309 0
M  V30 1255 O 122.828 -1.31933 -1.37834 0
M  V30 1256 C 119.968 -2.69795 -2.15186 0
M  V30 1257 C 119.081 -3.92624 -1.80194 0
M  V30 1258 C 118.216 -4.37736 -3.00933 0
M  V30 1259 C 117.255 -5.53205 -2.61974 0
M  V30 1260 N 116.392 -5.9326 -3.75483 0
M  V30 1261 H 121.232 -2.95156 -0.410735 0
M  V30 1262 H 118.769 -1.45854 -0.191086 0
M  V30 1263 H 120.727 -3.00883 -2.89008 0
M  V30 1264 H 119.357 -1.90313 -2.60731 0
M  V30 1265 H 118.409 -3.67977 -0.964218 0
M  V30 1266 H 119.721 -4.76482 -1.47534 0
M  V30 1267 H 118.875 -4.70503 -3.8303 0
M  V30 1268 H 117.614 -3.52739 -3.36789 0
M  V30 1269 H 116.619 -5.20086 -1.783 0
M  V30 1270 H 117.844 -6.39936 -2.27284 0
M  V30 1271 H 115.79 -5.11212 -4.11094 0
M  V30 1272 H 115.707 -6.71865 -3.46602 0
M  V30 1273 H 116.975 -6.30651 -4.58148 0
M  V30 1274 N 121.204 0.198386 -1.56346 0
M  V30 1275 C 122.134 1.24865 -1.9731 0
M  V30 1276 C 123.115 1.47651 -0.844576 0
M  V30 1277 O 124.3 1.59444 -1.10866 0
M  V30 1278 C 121.43 2.59358 -2.30977 0
M  V30 1279 C 120.384 2.5119 -3.46537 0
M  V30 1280 C 119.71 3.89926 -3.65871 0
M  V30 1281 C 121.01 2.03977 -4.80823 0
M  V30 1282 H 122.704 0.908252 -2.85291 0
M  V30 1283 H 120.25 0.435462 -1.37258 0
M  V30 1284 H 122.203 3.33011 -2.58228 0
M  V30 1285 H 120.927 2.95132 -1.39874 0
M  V30 1286 H 119.586 1.79993 -3.19371 0
M  V30 1287 H 119.234 4.23046 -2.72105 0
M  V30 1288 H 118.934 3.85336 -4.4361 0
M  V30 1289 H 120.458 4.65205 -3.95495 0
M  V30 1290 H 121.872 2.67386 -5.07127 0
M  V30 1291 H 120.269 2.10397 -5.62008 0
M  V30 1292 H 121.339 0.992861 -4.74626 0
M  V30 1293 N 122.682 1.50554 0.465978 0
M  V30 1294 C 123.592 1.72585 1.58907 0
M  V30 1295 C 124.608 0.60911 1.6299 0
M  V30 1296 O 125.784 0.88804 1.80765 0
M  V30 1297 C 122.849 1.81995 2.95091 0
M  V30 1298 C 121.91 3.05751 3.01355 0
M  V30 1299 C 121.143 3.14702 4.31043 0
M  V30 1300 O 121.366 2.30313 5.21835 0
M  V30 1301 O 120.3 4.07468 4.43005 0
M  V30 1302 H 124.126 2.67799 1.43239 0
M  V30 1303 H 121.711 1.34711 0.646013 0
M  V30 1304 H 123.593 1.90335 3.75966 0
M  V30 1305 H 122.268 0.899659 3.10947 0
M  V30 1306 H 121.175 3.02908 2.19539 0
M  V30 1307 H 122.508 3.97375 2.90437 0
M  V30 1308 N 124.16 -0.719506 1.40217 0
M  V30 1309 C 125.108 -1.85493 1.40339 0
M  V30 1310 C 126.102 -1.66995 0.284415 0
M  V30 1311 O 127.308 -1.74148 0.455252 0
M  V30 1312 H 123.683 -0.610857 0.438586 0
M  V30 1313 H 125.654 -1.82506 2.36081 0
M  V30 1314 C 124.403 -3.23321 1.27901 0
M  V30 1315 H 123.726 -3.38159 2.1328 0
M  V30 1316 H 125.166 -4.02914 1.32045 0
M  V30 1317 C 123.625 -3.36898 -0.0111355 0
M  V30 1318 O 124.155 -3.89674 -0.975538 0
M  V30 1319 N 122.361 -2.90492 -0.0793393 0
M  V30 1320 H 121.908 -2.47731 0.706183 0
M  V30 1321 H 121.866 -2.99955 -0.942038 0
M  V30 1322 N 125.638 -1.25649 -0.95132 0
M  V30 1323 C 127.054 -1.02542 -1.223 0
M  V30 1324 C 127.254 0.255715 -1.99871 0
M  V30 1325 O 126.31 0.967558 -2.33226 0
M  V30 1326 C 127.623 -2.25065 -1.99415 0
M  V30 1327 C 129.171 -2.29861 -2.12446 0
M  V30 1328 C 129.646 -3.52048 -2.92961 0
M  V30 1329 N 131.137 -3.52465 -3.00538 0
M  V30 1330 C 131.872 -4.43672 -3.63239 0
M  V30 1331 N 131.368 -5.45157 -4.27523 0
M  V30 1332 N 133.161 -4.31346 -3.60412 0
M  V30 1333 H 125.312 -2.07951 -0.432471 0
M  V30 1334 H 127.575 -0.91339 -0.253816 0
M  V30 1335 H 127.281 -3.18194 -1.49817 0
M  V30 1336 H 127.155 -2.28502 -3.00111 0
M  V30 1337 H 129.542 -1.37252 -2.61239 0
M  V30 1338 H 129.623 -2.3044 -1.11044 0
M  V30 1339 H 129.267 -4.44981 -2.44856 0
M  V30 1340 H 129.197 -3.48715 -3.94596 0
M  V30 1341 H 131.688 -2.79056 -2.54826 0
M  V30 1342 H 132.001 -6.10958 -4.73234 0
M  V30 1343 H 130.346 -5.49025 -4.26141 0
M  V30 1344 H 133.537 -3.51288 -3.09377 0
M  V30 1345 H 133.71 -5.02624 -4.0899 0
M  V30 1346 N 127.117 1.15442 -1.07289 0
M  V30 1347 C 128.365 1.85845 -0.794096 0
M  V30 1348 C 128.686 1.82692 0.681809 0
M  V30 1349 O 127.956 1.26741 1.49377 0
M  V30 1350 H 126.536 0.688089 -0.290763 0
M  V30 1351 H 129.198 1.39947 -1.3565 0
M  V30 1352 H 128.294 2.91001 -1.12804 0
M  V30 1353 N 128.595 0.856903 1.32268 0
M  V30 1354 C 129.543 0.291987 2.3076 0
M  V30 1355 C 130.537 -0.585857 1.58947 0
M  V30 1356 O 131.743 -0.47341 1.73663 0
M  V30 1357 H 128.118 0.075721 0.748178 0
M  V30 1358 H 130.089 1.13687 2.75895 0
M  V30 1359 C 128.838 -0.502869 3.44044 0
M  V30 1360 H 128.161 0.163328 3.99466 0
M  V30 1361 H 129.601 -0.863691 4.1511 0
M  V30 1362 C 128.06 -1.68898 2.91505 0
M  V30 1363 O 128.59 -2.78811 2.89184 0
M  V30 1364 N 126.796 -1.51679 2.47875 0
M  V30 1365 H 126.343 -0.622666 2.49961 0
M  V30 1366 H 126.301 -2.31184 2.13076 0
M  V30 1367 N 130.073 -1.45103 0.615059 0
M  V30 1368 C 131.303 -2.06254 0.119596 0
M  V30 1369 C 131.711 -1.4591 -1.20445 0
M  V30 1370 O 131.054 -0.570384 -1.7462 0
M  V30 1371 C 131.116 -3.59396 -0.0865591 0
M  V30 1372 C 130.78 -4.42116 1.15683 0
M  V30 1373 C 131.777 -4.7662 2.07676 0
M  V30 1374 C 129.462 -4.82749 1.38775 0
M  V30 1375 C 131.456 -5.50622 3.21082 0
M  V30 1376 C 129.143 -5.56504 2.52481 0
M  V30 1377 C 130.141 -5.90358 3.43463 0
M  V30 1378 O 129.829 -6.62615 4.55189 0
M  V30 1379 H 129.561 -0.672423 0.0694512 0
M  V30 1380 H 132.115 -1.87219 0.844885 0
M  V30 1381 H 130.345 -3.76859 -0.866823 0
M  V30 1382 H 132.034 -4.02365 -0.534555 0
M  V30 1383 H 132.8 -4.4578 1.91063 0
M  V30 1384 H 128.679 -4.55829 0.688545 0
M  V30 1385 H 132.223 -5.76965 3.92119 0
M  V30 1386 H 128.12 -5.86759 2.69043 0
M  V30 1387 H 128.888 -6.81071 4.53966 0
M  V30 1388 N 131.551 -0.354651 -1.53558 0
M  V30 1389 C 132.797 0.238797 -2.01389 0
M  V30 1390 C 133.13 1.49309 -1.2418 0
M  V30 1391 O 132.405 1.91638 -0.332457 0
M  V30 1392 C 132.688 0.541771 -3.56001 0
M  V30 1393 C 132.541 -0.725388 -4.43912 0
M  V30 1394 C 133.86 1.34685 -4.18984 0
M  V30 1395 H 130.979 0.0853177 -0.732045 0
M  V30 1396 H 133.621 -0.477384 -1.83905 0
M  V30 1397 H 131.771 1.15189 -3.71031 0
M  V30 1398 H 133.443 -1.36313 -4.407 0
M  V30 1399 H 131.686 -1.34801 -4.12324 0
M  V30 1400 H 132.357 -0.468505 -5.50008 0
M  V30 1401 H 134.833 0.830837 -4.07721 0
M  V30 1402 H 133.709 1.52759 -5.27215 0
M  V30 1403 H 133.97 2.35221 -3.74331 0
M  V30 1404 N 133.029 1.57378 -0.0835403 0
M  V30 1405 C 133.959 2.1641 0.87686 0
M  V30 1406 C 134.94 1.09429 1.30228 0
M  V30 1407 O 136.125 1.37516 1.37124 0
M  V30 1408 C 133.255 2.73517 2.14022 0
M  V30 1409 C 132.209 3.85769 1.85381 0
M  V30 1410 C 131.535 4.29529 3.18448 0
M  V30 1411 C 132.835 5.09486 1.14984 0
M  V30 1412 H 134.529 2.96914 0.385059 0
M  V30 1413 H 132.075 1.42823 0.18377 0
M  V30 1414 H 134.028 3.13463 2.81636 0
M  V30 1415 H 132.752 1.90252 2.65465 0
M  V30 1416 H 131.411 3.46345 1.20169 0
M  V30 1417 H 131.059 3.43169 3.67755 0
M  V30 1418 H 130.759 5.05204 3.00071 0
M  V30 1419 H 132.283 4.72099 3.8724 0
M  V30 1420 H 133.697 5.46674 1.72687 0
M  V30 1421 H 132.094 5.90515 1.06826 0
M  V30 1422 H 133.164 4.84724 0.130749 0
M  V30 1423 N 134.507 -0.190092 1.56449 0
M  V30 1424 C 135.417 -1.25591 1.98152 0
M  V30 1425 C 136.433 -1.49519 0.889944 0
M  V30 1426 O 137.609 -1.62036 1.19609 0
M  V30 1427 C 134.674 -2.57916 2.3169 0
M  V30 1428 C 133.735 -2.42015 3.5458 0
M  V30 1429 C 132.968 -3.6803 3.8651 0
M  V30 1430 O 133.191 -4.72413 3.1966 0
M  V30 1431 O 132.125 -3.6326 4.79923 0
M  V30 1432 H 135.951 -0.931988 2.89046 0
M  V30 1433 H 133.536 -0.395488 1.4407 0
M  V30 1434 H 135.418 -3.36008 2.54316 0
M  V30 1435 H 134.093 -2.89925 1.43963 0
M  V30 1436 H 133 -1.62017 3.37196 0
M  V30 1437 H 134.333 -2.14937 4.4279 0
M  V30 1438 N 135.985 -1.50799 -0.457987 0
M  V30 1439 C 136.932 -1.70617 -1.5543 0
M  V30 1440 C 137.902 -0.547562 -1.56815 0
M  V30 1441 O 139.087 -0.779647 -1.74144 0
M  V30 1442 C 136.227 -1.81831 -2.93311 0
M  V30 1443 C 135.34 -3.09278 -3.01615 0
M  V30 1444 C 134.475 -3.11209 -4.30491 0
M  V30 1445 C 133.514 -4.33055 -4.32585 0
M  V30 1446 N 132.651 -4.32652 -5.52952 0
M  V30 1447 H 137.491 -2.64207 -1.37836 0
M  V30 1448 H 135.028 -1.30959 -0.669937 0
M  V30 1449 H 136.986 -1.86314 -3.73287 0
M  V30 1450 H 135.616 -0.916685 -3.0951 0
M  V30 1451 H 134.668 -3.14203 -2.1443 0
M  V30 1452 H 135.98 -3.99233 -2.99022 0
M  V30 1453 H 135.134 -3.14494 -5.18824 0
M  V30 1454 H 133.873 -2.19106 -4.35711 0
M  V30 1455 H 132.878 -4.29969 -3.42647 0
M  V30 1456 H 134.103 -5.264 -4.29046 0
M  V30 1457 H 132.049 -3.43409 -5.58933 0
M  V30 1458 H 131.966 -5.16392 -5.52155 0
M  V30 1459 H 133.234 -4.40101 -6.43375 0
M  V30 1460 N 137.463 0.71206 -1.40597 0
M  V30 1461 C 138.712 1.46754 -1.38369 0
M  V30 1462 C 139.025 1.95598 0.0097839 0
M  V30 1463 O 140.231 2.71059 0.154677 0
M  V30 1464 C 138.687 2.65289 -2.43207 0
M  V30 1465 C 138.295 2.23301 -3.88382 0
M  V30 1466 C 140.039 3.43008 -2.50091 0
M  V30 1467 C 137.946 3.38696 -4.84808 0
M  V30 1468 H 136.876 0.55118 -0.514506 0
M  V30 1469 H 139.527 0.774616 -1.66349 0
M  V30 1470 H 137.909 3.36769 -2.08332 0
M  V30 1471 H 139.083 1.59218 -4.32419 0
M  V30 1472 H 137.398 1.58618 -3.85006 0
M  V30 1473 H 139.995 4.28881 -3.1932 0
M  V30 1474 H 140.338 3.87065 -1.53253 0
M  V30 1475 H 140.871 2.78574 -2.83974 0
M  V30 1476 H 137.61 2.99668 -5.82992 0
M  V30 1477 H 137.13 4.01683 -4.45433 0
M  V30 1478 H 138.809 4.04712 -5.04794 0
M  V30 1479 N 138.941 1.26152 0.944643 0
M  V30 1480 C 140.166 1.14363 1.7302 0
M  V30 1481 C 140.591 -0.29772 1.85729 0
M  V30 1482 O 139.949 -1.2157 1.34501 0
M  V30 1483 C 139.997 1.81378 3.11664 0
M  V30 1484 O 139.101 1.10022 3.97453 0
M  V30 1485 H 138.442 0.398694 0.53098 0
M  V30 1486 H 140.972 1.66906 1.18337 0
M  V30 1487 H 140.982 1.88064 3.62072 0
M  V30 1488 H 139.657 2.86237 3.0173 0
M  V30 1489 H 138.234 1.11287 3.55907 0
M  V30 1490 N 140.419 -1.14872 1.07899 0
M  V30 1491 C 141.667 -1.85422 0.803941 0
M  V30 1492 C 141.988 -1.83051 -0.67211 0
M  V30 1493 O 141.258 -1.27532 -1.48703 0
M  V30 1494 H 139.838 -0.686537 0.294408 0
M  V30 1495 H 142.5 -1.39226 1.3639 0
M  V30 1496 H 141.596 -2.90399 1.14346 0
M  V30 1497 N 141.898 -0.863906 -1.31812 0
M  V30 1498 C 142.83 -0.272485 -2.27575 0
M  V30 1499 C 143.843 0.56104 -1.52827 0
M  V30 1500 O 145.032 0.384021 -1.7432 0
M  V30 1501 C 142.132 0.63283 -3.32939 0
M  V30 1502 C 141.305 -0.166902 -4.37081 0
M  V30 1503 C 140.364 0.665608 -5.21973 0
M  V30 1504 O 139.39 0.0958091 -5.69119 0
M  V30 1505 N 140.592 1.9787 -5.45736 0
M  V30 1506 H 143.357 -1.0954 -2.78964 0
M  V30 1507 H 140.918 -0.724791 -1.4477 0
M  V30 1508 H 142.91 1.19532 -3.86645 0
M  V30 1509 H 141.48 1.35642 -2.81638 0
M  V30 1510 H 140.7 -0.910838 -3.83533 0
M  V30 1511 H 141.988 -0.715874 -5.03739 0
M  V30 1512 H 141.386 2.46484 -5.09178 0
M  V30 1513 H 139.943 2.48911 -6.024 0
M  V30 1514 N 143.376 1.44774 -0.622745 0
M  V30 1515 C 144.286 2.34433 0.0886031 0
M  V30 1516 C 145.302 1.52131 0.844529 0
M  V30 1517 O 146.478 1.84886 0.798691 0
M  V30 1518 C 143.543 3.29986 1.0635 0
M  V30 1519 C 142.604 4.28195 0.307873 0
M  V30 1520 C 141.837 5.19183 1.23633 0
M  V30 1521 O 142.06 5.13918 2.47476 0
M  V30 1522 O 140.994 5.97515 0.725189 0
M  V30 1523 H 144.82 2.96693 -0.648599 0
M  V30 1524 H 142.405 1.44408 -0.382957 0
M  V30 1525 H 144.287 3.88825 1.6246 0
M  V30 1526 H 142.962 2.70269 1.78146 0
M  V30 1527 H 141.869 3.72927 -0.296064 0
M  V30 1528 H 143.202 4.90808 -0.3699 0
M  V30 1529 N 144.854 0.36279 1.53368 0
M  V30 1530 C 146.1 -0.228113 2.01513 0
M  V30 1531 C 146.433 -1.48648 1.2497 0
M  V30 1532 O 145.708 -1.91459 0.342616 0
M  V30 1533 C 145.991 -0.522884 3.56284 0
M  V30 1534 C 145.844 0.74892 4.43521 0
M  V30 1535 C 147.163 -1.32461 4.19693 0
M  V30 1536 H 144.282 -0.0814343 0.732487 0
M  V30 1537 H 146.924 0.48713 1.83649 0
M  V30 1538 H 145.074 -1.1322 3.71636 0
M  V30 1539 H 146.746 1.38648 4.39971 0
M  V30 1540 H 144.989 1.36986 4.11603 0
M  V30 1541 H 145.66 0.497667 5.49752 0
M  V30 1542 H 148.136 -0.809203 4.08156 0
M  V30 1543 H 147.012 -1.49961 5.28018 0
M  V30 1544 H 147.273 -2.33232 3.75573 0
M  V30 1545 N 146.332 -1.57332 0.0918853 0
M  V30 1546 C 147.28 -2.15075 -0.885747 0
M  V30 1547 C 148.274 -1.09277 -1.29441 0
M  V30 1548 O 149.48 -1.27627 -1.26931 0
M  V30 1549 H 145.855 -0.687966 -0.303656 0
M  V30 1550 H 147.826 -2.96047 -0.373995 0
M  V30 1551 C 146.575 -2.74325 -2.13638 0
M  V30 1552 H 145.898 -3.55418 -1.8308 0
M  V30 1553 H 147.338 -3.183 -2.80109 0
M  V30 1554 C 145.797 -1.70062 -2.90827 0
M  V30 1555 O 146.327 -1.13763 -3.85254 0
M  V30 1556 N 144.533 -1.40628 -2.54307 0
M  V30 1557 H 144.08 -1.866 -1.7759 0
M  V30 1558 H 144.038 -0.711043 -3.06254 0
M  V30 1559 N 147.81 0.181792 -1.56548 0
M  V30 1560 C 148.72 1.24538 -1.98815 0
M  V30 1561 C 149.736 1.49045 -0.897861 0
M  V30 1562 O 150.912 1.61399 -1.20467 0
M  V30 1563 C 147.977 2.56683 -2.33055 0
M  V30 1564 C 147.038 2.40131 -3.55859 0
M  V30 1565 C 146.271 3.65975 -3.88456 0
M  V30 1566 O 146.494 4.70711 -3.22161 0
M  V30 1567 O 145.428 3.6071 -4.81842 0
M  V30 1568 H 149.254 0.916647 -2.89536 0
M  V30 1569 H 146.839 0.387842 -1.44278 0
M  V30 1570 H 148.721 3.34655 -2.56094 0
M  V30 1571 H 147.396 2.89157 -1.45498 0
M  V30 1572 H 146.303 1.60226 -3.38051 0
M  V30 1573 H 147.636 2.12585 -4.43924 0
M  V30 1574 N 149.288 1.51039 0.449983 0
M  V30 1575 C 150.251 1.70863 1.5277 0
M  V30 1576 C 151.251 0.578846 1.5002 0
M  V30 1577 O 152.441 0.846213 1.52266 0
M  V30 1578 C 149.573 1.75341 2.9235 0
M  V30 1579 H 150.766 2.67034 1.36502 0
M  V30 1580 H 148.319 1.40838 0.677812 0
M  V30 1581 H 149.054 0.809383 3.14037 0
M  V30 1582 H 148.839 2.57436 2.95752 0
M  V30 1583 H 150.329 1.92559 3.70555 0
M  V30 1584 N 150.766 -0.704594 1.40972 0
M  V30 1585 C 151.729 -1.80035 1.41845 0
M  V30 1586 C 152.729 -1.57774 0.310474 0
M  V30 1587 O 153.919 -1.64613 0.56992 0
M  V30 1588 C 151.051 -3.18284 1.22098 0
M  V30 1589 H 152.244 -1.80658 2.3938 0
M  V30 1590 H 149.797 -0.911329 1.26982 0
M  V30 1591 H 150.532 -3.23306 0.253672 0
M  V30 1592 H 150.317 -3.35843 2.02366 0
M  V30 1593 H 151.807 -3.98289 1.25522 0
M  V30 1594 N 152.244 -1.26651 -0.937939 0
M  V30 1595 C 153.484 -1.13611 -1.69917 0
M  V30 1596 C 153.848 0.314687 -1.89404 0
M  V30 1597 O 155.049 0.567285 -2.62746 0
M  V30 1598 C 153.32 -1.88742 -3.03498 0
M  V30 1599 S 154.879 -1.91794 -3.94665 0
M  V30 1600 H 151.697 -0.405767 -0.583844 0
M  V30 1601 H 154.299 -1.60416 -1.11745 0
M  V30 1602 H 153.003 -2.9336 -2.86999 0
M  V30 1603 H 152.534 -1.42391 -3.66727 0
M  V30 1604 H 154.549 -1.00698 -4.85875 0
M  V30 1605 N 153.722 1.14298 -1.08507 0
M  V30 1606 C 154.999 1.81544 -0.728088 0
M  V30 1607 C 155.379 1.95838 0.78808 0
M  V30 1608 O 154.727 1.51904 1.70697 0
M  V30 1609 C 154.937 3.17169 -1.45619 0
M  V30 1610 C 156.285 3.9265 -1.61591 0
M  V30 1611 O 157.309 3.26762 -1.41793 0
M  V30 1612 O 156.168 5.10807 -1.94263 0
M  V30 1613 H 153.262 0.78491 -0.260471 0
M  V30 1614 H 155.808 1.21307 -1.18671 0
M  V30 1615 H 154.58 3.01934 -2.489 0
M  V30 1616 H 154.203 3.851 -0.989124 0
M  V30 1617 N 155.201 0.870884 1.31352 0
M  V30 1618 C 156.45 0.478408 1.95944 0
M  V30 1619 C 156.763 -0.974493 1.69597 0
M  V30 1620 O 157.969 -1.47316 2.28058 0
M  V30 1621 C 156.425 0.804609 3.50791 0
M  V30 1622 C 156.033 2.27433 3.85977 0
M  V30 1623 C 157.777 0.480648 4.2177 0
M  V30 1624 C 155.684 2.5429 5.33939 0
M  V30 1625 H 154.614 0.175175 0.733369 0
M  V30 1626 H 157.265 1.06391 1.4951 0
M  V30 1627 H 155.647 0.148347 3.95722 0
M  V30 1628 H 156.821 2.97373 3.52002 0
M  V30 1629 H 155.136 2.56442 3.28065 0
M  V30 1630 H 157.733 0.658519 5.30629 0
M  V30 1631 H 158.076 -0.578979 4.12254 0
M  V30 1632 H 158.609 1.09349 3.82476 0
M  V30 1633 H 155.348 3.58939 5.48491 0
M  V30 1634 H 154.868 1.88945 5.69263 0
M  V30 1635 H 156.547 2.39066 6.01212 0
M  V30 1636 N 156.679 -1.44442 0.630414 0
M  V30 1637 C 157.642 -2.29107 -0.0652523 0
M  V30 1638 C 158.642 -1.41002 -0.772995 0
M  V30 1639 O 159.832 -1.62881 -0.617692 0
M  V30 1640 C 156.964 -3.22564 -1.10296 0
M  V30 1641 H 158.157 -2.92103 0.679401 0
M  V30 1642 H 155.71 -1.51343 0.390517 0
M  V30 1643 H 156.445 -2.64416 -1.87762 0
M  V30 1644 H 156.23 -3.87491 -0.59941 0
M  V30 1645 H 157.72 -3.86167 -1.5895 0
M  V30 1646 N 158.157 -0.370918 -1.53173 0
M  V30 1647 C 159.573 -0.0200818 -1.59587 0
M  V30 1648 C 159.773 1.46279 -1.38581 0
M  V30 1649 O 158.829 2.22506 -1.19363 0
M  V30 1650 C 160.142 -0.4808 -2.96831 0
M  V30 1651 C 161.69 -0.435477 -3.09956 0
M  V30 1652 C 162.165 -0.872092 -4.4962 0
M  V30 1653 N 163.656 -0.827364 -4.55751 0
M  V30 1654 C 164.391 -1.13683 -5.62018 0
M  V30 1655 N 163.887 -1.51584 -6.76014 0
M  V30 1656 N 165.68 -1.05927 -5.52029 0
M  V30 1657 H 157.831 -1.33652 -1.65079 0
M  V30 1658 H 160.094 -0.546634 -0.774529 0
M  V30 1659 H 159.8 -1.51577 -3.1736 0
M  V30 1660 H 159.674 0.129796 -3.76977 0
M  V30 1661 H 162.061 0.590371 -2.89134 0
M  V30 1662 H 162.142 -1.08164 -2.31806 0
M  V30 1663 H 161.786 -1.89608 -4.71181 0
M  V30 1664 H 161.716 -0.203127 -5.26208 0
M  V30 1665 H 164.207 -0.548216 -3.73902 0
M  V30 1666 H 164.52 -1.73609 -7.53047 0
M  V30 1667 H 162.865 -1.55454 -6.77391 0
M  V30 1668 H 166.056 -0.762321 -4.61851 0
M  V30 1669 H 166.229 -1.30378 -6.34749 0
M  V30 1670 N 159.635 1.57281 -0.100228 0
M  V30 1671 C 160.567 2.11342 0.886972 0
M  V30 1672 C 161.58 1.05182 1.24261 0
M  V30 1673 O 162.769 1.32613 1.19483 0
M  V30 1674 C 159.869 2.5825 2.19454 0
M  V30 1675 C 159.042 3.88302 2.01346 0
M  V30 1676 C 158.101 4.21004 3.15661 0
M  V30 1677 O 157.127 4.9014 2.89398 0
M  V30 1678 N 158.329 3.76818 4.41575 0
M  V30 1679 H 161.094 2.96668 0.425216 0
M  V30 1680 H 158.655 1.61678 0.0847334 0
M  V30 1681 H 160.647 2.7717 2.94888 0
M  V30 1682 H 159.217 1.77907 2.57037 0
M  V30 1683 H 158.437 3.7848 1.10212 0
M  V30 1684 H 159.725 4.73375 1.8653 0
M  V30 1685 H 159.123 3.2102 4.65792 0
M  V30 1686 H 157.68 4.00882 5.13942 0
M  V30 1687 N 161.113 -0.173488 1.56642 0
M  V30 1688 C 162.359 -0.891784 1.8214 0
M  V30 1689 C 162.692 -1.8199 0.677736 0
M  V30 1690 O 161.967 -1.91842 -0.320446 0
M  V30 1691 C 162.25 -1.68933 3.18015 0
M  V30 1692 C 162.103 -0.784487 4.42906 0
M  V30 1693 C 163.422 -2.65748 3.50808 0
M  V30 1694 H 160.541 -0.322761 0.662567 0
M  V30 1695 H 163.183 -0.158095 1.89341 0
M  V30 1696 H 161.333 -2.31482 3.12007 0
M  V30 1697 H 163.005 -0.172046 4.60979 0
M  V30 1698 H 161.248 -0.0924117 4.33702 0
M  V30 1699 H 161.919 -1.37799 5.34524 0
M  V30 1700 H 164.395 -2.13327 3.57255 0
M  V30 1701 H 163.271 -3.18619 4.4696 0
M  V30 1702 H 163.532 -3.45842 2.75401 0
M  V30 1703 N 162.591 -1.51276 -0.441967 0
M  V30 1704 C 163.554 -1.7167 -1.51862 0
M  V30 1705 C 164.554 -0.586793 -1.49711 0
M  V30 1706 O 165.744 -0.854276 -1.51815 0
M  V30 1707 C 162.876 -1.76889 -2.91416 0
M  V30 1708 H 164.069 -2.67754 -1.35084 0
M  V30 1709 H 161.622 -1.41196 -0.670333 0
M  V30 1710 H 162.357 -0.826026 -3.13604 0
M  V30 1711 H 162.142 -2.59001 -2.94382 0
M  V30 1712 H 163.632 -1.94522 -3.69528 0
M  V30 1713 N 164.069 0.697108 -1.41344 0
M  V30 1714 C 165.346 1.45154 -1.31109 0
M  V30 1715 C 165.726 2.11009 0.0620449 0
M  V30 1716 O 165.074 2.01571 1.07618 0
M  V30 1717 C 165.284 2.47223 -2.46337 0
M  V30 1718 C 166.632 3.1252 -2.87431 0
M  V30 1719 O 167.656 2.57547 -2.46065 0
M  V30 1720 O 166.515 4.12083 -3.58957 0
M  V30 1721 H 163.609 0.646365 -0.515889 0
M  V30 1722 H 166.155 0.727716 -1.53305 0
M  V30 1723 H 164.927 1.97204 -3.37974 0
M  V30 1724 H 164.55 3.27116 -2.2601 0
M  V30 1725 N 165.547 1.27147 0.931209 0
M  V30 1726 C 166.457 1.11372 2.06478 0
M  V30 1727 C 167.473 0.044645 1.73943 0
M  V30 1728 O 168.649 0.250417 1.99837 0
M  V30 1729 C 165.714 0.758838 3.38294 0
M  V30 1730 C 164.775 1.90841 3.84549 0
M  V30 1731 C 164.008 1.57036 5.10074 0
M  V30 1732 O 164.231 0.476645 5.68405 0
M  V30 1733 O 163.165 2.40839 5.51616 0
M  V30 1734 H 166.991 2.06493 2.22698 0
M  V30 1735 H 164.576 1.06301 1.04978 0
M  V30 1736 H 166.458 0.574098 4.17471 0
M  V30 1737 H 165.133 -0.162879 3.2329 0
M  V30 1738 H 164.04 2.14819 3.06274 0
M  V30 1739 H 165.373 2.81021 4.04089 0
M  V30 1740 N 167.025 -1.13721 1.09112 0
M  V30 1741 C 168.273 -1.84559 0.823562 0
M  V30 1742 C 168.594 -1.83754 -0.652658 0
M  V30 1743 O 167.864 -1.29102 -1.47342 0
M  V30 1744 H 166.444 -0.683376 0.301673 0
M  V30 1745 H 169.106 -1.37771 1.37859 0
M  V30 1746 H 168.202 -2.8917 1.17419 0
M  V30 1747 N 168.503 -0.877838 -1.30888 0
M  V30 1748 C 169.78 -0.413052 -1.91189 0
M  V30 1749 C 170.16 1.1056 -1.79832 0
M  V30 1750 O 169.508 1.93771 -1.21099 0
M  V30 1751 C 169.718 -0.903191 -3.3711 0
M  V30 1752 C 171.066 -0.93395 -4.14201 0
M  V30 1753 O 172.09 -0.849373 -3.45925 0
M  V30 1754 O 170.949 -1.05772 -5.36167 0
M  V30 1755 H 168.043 -0.125035 -0.817493 0
M  V30 1756 H 170.589 -0.966269 -1.39504 0
M  V30 1757 H 169.361 -1.94692 -3.39427 0
M  V30 1758 H 168.984 -0.328732 -3.96239 0
M  V30 1759 N 169.982 1.44106 -0.638065 0
M  V30 1760 C 170.945 2.29138 0.0531013 0
M  V30 1761 C 171.945 1.41409 0.765506 0
M  V30 1762 O 173.135 1.63206 0.609046 0
M  V30 1763 C 170.267 3.23144 1.08584 0
M  V30 1764 H 171.46 2.91739 -0.694883 0
M  V30 1765 H 169.013 1.51134 -0.398538 0
M  V30 1766 H 169.748 2.65408 1.86357 0
M  V30 1767 H 169.533 3.87804 0.578852 0
M  V30 1768 H 171.023 3.87004 1.56899 0
M  V30 1769 N 171.46 0.379036 1.52974 0
M  V30 1770 C 172.39 -0.452706 2.29069 0
M  V30 1771 C 173.371 -1.07237 1.32039 0
M  V30 1772 O 174.556 -1.08708 1.60923 0
M  V30 1773 C 171.686 -1.5856 3.08992 0
M  V30 1774 C 170.64 -1.0925 4.13822 0
M  V30 1775 C 169.966 -2.31668 4.81907 0
M  V30 1776 C 171.266 -0.167702 5.22031 0
M  V30 1777 H 172.96 0.182181 2.98845 0
M  V30 1778 H 170.506 0.0890592 1.43724 0
M  V30 1779 H 172.459 -2.1742 3.6098 0
M  V30 1780 H 171.183 -2.24792 2.36931 0
M  V30 1781 H 169.842 -0.526494 3.628 0
M  V30 1782 H 169.49 -2.96386 4.06404 0
M  V30 1783 H 169.19 -1.9934 5.52754 0
M  V30 1784 H 170.714 -2.91189 5.36695 0
M  V30 1785 H 172.128 -0.664186 5.6944 0
M  V30 1786 H 170.525 0.0653265 6.00064 0
M  V30 1787 H 171.595 0.786347 4.78482 0
M  V30 1788 N 172.938 -1.57226 0.108567 0
M  V30 1789 C 174.184 -1.95121 -0.552761 0
M  V30 1790 C 174.517 -0.991345 -1.66991 0
M  V30 1791 O 173.792 -0.0267211 -1.94482 0
M  V30 1792 C 174.075 -3.43039 -1.09528 0
M  V30 1793 C 173.928 -4.49797 0.0177332 0
M  V30 1794 C 175.247 -3.92567 -1.98945 0
M  V30 1795 H 172.366 -0.709496 -0.199461 0
M  V30 1796 H 175.008 -1.89126 0.182011 0
M  V30 1797 H 173.158 -3.48279 -1.72146 0
M  V30 1798 H 174.83 -4.56661 0.652584 0
M  V30 1799 H 173.073 -4.284 0.682309 0
M  V30 1800 H 173.744 -5.50528 -0.402919 0
M  V30 1801 H 176.22 -3.89565 -1.46214 0
M  V30 1802 H 175.096 -4.96605 -2.33827 0
M  V30 1803 H 175.357 -3.32648 -2.91201 0
M  V30 1804 N 174.416 0.165178 -1.56732 0
M  V30 1805 C 175.379 1.18822 -1.95995 0
M  V30 1806 C 176.379 1.3685 -0.84431 0
M  V30 1807 O 177.569 1.34152 -1.11126 0
M  V30 1808 C 174.701 2.5521 -2.26011 0
M  V30 1809 H 175.894 0.851825 -2.87548 0
M  V30 1810 H 173.447 0.407857 -1.50885 0
M  V30 1811 H 174.182 2.93852 -1.37191 0
M  V30 1812 H 173.967 2.43489 -3.07336 0
M  V30 1813 H 175.457 3.28927 -2.57288 0
M  V30 1814 N 175.894 1.51508 0.433938 0
M  V30 1815 C 177.142 1.6402 1.18075 0
M  V30 1816 C 177.463 0.360328 1.91642 0
M  V30 1817 O 176.733 -0.623945 1.85698 0
M  V30 1818 H 175.313 0.6045 0.43885 0
M  V30 1819 H 177.975 1.88452 0.497178 0
M  V30 1820 H 177.071 2.46949 1.90847 0
M  V30 1821 N 177.372 -0.689602 1.41712 0
M  V30 1822 C 178.62 -1.4468 1.4111 0
M  V30 1823 C 178.941 -1.94986 0.0232196 0
M  V30 1824 O 178.211 -1.72097 -0.935913 0
M  V30 1825 H 176.791 -0.536847 0.519427 0
M  V30 1826 H 179.453 -0.815825 1.77004 0
M  V30 1827 H 178.549 -2.30706 2.10193 0
M  V30 1828 N 178.85 -1.27639 -0.924453 0
M  V30 1829 C 180.096 -1.14336 -1.67497 0
M  V30 1830 C 180.429 0.309465 -1.91718 0
M  V30 1831 O 179.704 1.22608 -1.50989 0
M  V30 1832 C 179.987 -1.93096 -3.0395 0
M  V30 1833 C 179.84 -3.46381 -2.8695 0
M  V30 1834 C 181.159 -1.73798 -4.0433 0
M  V30 1835 H 178.278 -0.416728 -0.607871 0
M  V30 1836 H 180.92 -1.56832 -1.07256 0
M  V30 1837 H 179.07 -1.56982 -3.55372 0
M  V30 1838 H 180.742 -3.92343 -2.42621 0
M  V30 1839 H 178.985 -3.72557 -2.22225 0
M  V30 1840 H 179.656 -3.96735 -3.83804 0
M  V30 1841 H 182.132 -2.05293 -3.61931 0
M  V30 1842 H 181.008 -2.31294 -4.97789 0
M  V30 1843 H 181.269 -0.686725 -4.36734 0
M  V30 1844 N 180.328 1.1314 -1.09713 0
M  V30 1845 C 181.553 1.88862 -0.857081 0
M  V30 1846 C 181.978 1.78729 0.586304 0
M  V30 1847 O 181.336 1.13692 1.41222 0
M  V30 1848 C 181.384 3.36325 -1.30069 0
M  V30 1849 O 180.488 4.09815 -0.461007 0
M  V30 1850 H 179.829 0.587108 -0.310162 0
M  V30 1851 H 182.359 1.43129 -1.46203 0
M  V30 1852 H 182.369 3.87157 -1.28738 0
M  V30 1853 H 181.044 3.43017 -2.35185 0
M  V30 1854 H 179.621 3.68986 -0.538888 0
M  V30 1855 N 181.806 0.884767 1.30421 0
M  V30 1856 C 182.738 0.308655 2.27112 0
M  V30 1857 C 183.751 -0.536655 1.53701 0
M  V30 1858 O 184.94 -0.35624 1.74909 0
M  V30 1859 C 182.04 -0.579782 3.33904 0
M  V30 1860 C 181.213 0.236417 4.36761 0
M  V30 1861 C 180.272 -0.582482 5.22966 0
M  V30 1862 O 179.298 -0.00525502 5.692 0
M  V30 1863 N 180.5 -1.89163 5.48815 0
M  V30 1864 H 183.265 1.13964 2.77186 0
M  V30 1865 H 180.826 0.747731 1.43599 0
M  V30 1866 H 182.818 -1.13366 3.88497 0
M  V30 1867 H 181.388 -1.31144 2.83761 0
M  V30 1868 H 180.608 0.97174 3.82035 0
M  V30 1869 H 181.896 0.795924 5.02536 0
M  V30 1870 H 181.294 -2.38352 5.13035 0
M  V30 1871 H 179.851 -2.39296 6.06284 0
M  V30 1872 N 183.284 -1.43765 0.645699 0
M  V30 1873 C 184.512 -2.06253 0.163556 0
M  V30 1874 C 184.927 -1.48352 -1.16778 0
M  V30 1875 O 184.284 -0.611932 -1.71935 0
M  V30 1876 C 184.335 -3.61453 0.0583186 0
M  V30 1877 O 184.056 -4.172 1.33702 0
M  V30 1878 C 185.557 -4.41002 -0.450795 0
M  V30 1879 H 182.777 -0.665413 0.0864077 0
M  V30 1880 H 185.321 -1.84396 0.884222 0
M  V30 1881 H 183.476 -3.82522 -0.612865 0
M  V30 1882 H 183.89 -5.10791 1.19131 0
M  V30 1883 H 185.364 -5.49966 -0.473403 0
M  V30 1884 H 185.841 -4.13488 -1.48068 0
M  V30 1885 H 186.447 -4.24886 0.187637 0
M  V30 1886 N 184.763 -0.387143 -1.52771 0
M  V30 1887 C 186.174 0.0873634 -1.86495 0
M  V30 1888 C 186.525 1.46336 -1.30691 0
M  V30 1889 O 185.65 2.068 -0.637409 0
M  V30 1890 C 186.245 0.165305 -3.38396 0
M  V30 1891 C 184.804 0.584101 -3.7184 0
M  V30 1892 C 183.951 -0.255279 -2.76122 0
M  V30 1893 H 186.902 -0.605104 -1.46711 0
M  V30 1894 H 186.923 0.984848 -3.67534 0
M  V30 1895 H 186.435 -0.836301 -3.78982 0
M  V30 1896 H 184.536 1.59315 -3.36823 0
M  V30 1897 H 184.649 0.343749 -4.77865 0
M  V30 1898 H 183.013 0.279126 -2.53166 0
M  V30 1899 H 183.796 -1.25482 -3.19545 0
M  V30 1900 N 186.241 1.57166 -0.116904 0
M  V30 1901 C 187.466 1.999 0.55271 0
M  V30 1902 C 187.891 0.996039 1.59564 0
M  V30 1903 O 187.249 -0.032556 1.81271 0
M  V30 1904 C 187.297 3.4152 1.15742 0
M  V30 1905 O 186.401 3.44106 2.27299 0
M  V30 1906 H 185.742 0.649447 0.138258 0
M  V30 1907 H 188.272 2.03573 -0.204759 0
M  V30 1908 H 188.282 3.79684 1.49346 0
M  V30 1909 H 186.957 4.14034 0.393493 0
M  V30 1910 H 185.534 3.17759 1.9515 0
M  V30 1911 N 187.719 -0.156864 1.56817 0
M  V30 1912 C 188.949 -0.885031 1.86684 0
M  V30 1913 C 189.357 -1.75696 0.701954 0
M  V30 1914 O 188.7 -1.80569 -0.337732 0
M  V30 1915 C 188.762 -1.80092 3.11138 0
M  V30 1916 C 188.426 -1.10714 4.43386 0
M  V30 1917 C 189.423 -0.465714 5.1781 0
M  V30 1918 C 187.108 -1.09959 4.90117 0
M  V30 1919 C 189.102 0.174002 6.37162 0
M  V30 1920 C 186.789 -0.456055 6.09396 0
M  V30 1921 C 187.787 0.179622 6.82764 0
M  V30 1922 O 187.475 0.812975 7.99779 0
M  V30 1923 H 187.207 -0.261813 0.623242 0
M  V30 1924 H 189.761 -0.157383 2.04796 0
M  V30 1925 H 187.991 -2.56926 2.89009 0
M  V30 1926 H 189.68 -2.40018 3.27332 0
M  V30 1927 H 190.446 -0.463427 4.82781 0
M  V30 1928 H 186.325 -1.58378 4.3294 0
M  V30 1929 H 189.869 0.670765 6.94368 0
M  V30 1930 H 185.766 -0.455975 6.43888 0
M  V30 1931 H 186.534 0.71366 8.15383 0
M  V30 1932 N 189.197 -1.51736 -0.425897 0
M  V30 1933 C 190.127 -1.76827 -1.52494 0
M  V30 1934 C 191.108 -0.618524 -1.58456 0
M  V30 1935 O 192.293 -0.862416 -1.74 0
M  V30 1936 C 189.423 -1.90374 -2.90474 0
M  V30 1937 C 188.377 -3.0588 -2.99369 0
M  V30 1938 C 187.703 -3.04625 -4.3944 0
M  V30 1939 C 189.003 -4.45644 -2.72394 0
M  V30 1940 H 190.697 -2.68855 -1.31748 0
M  V30 1941 H 188.243 -1.29372 -0.632362 0
M  V30 1942 H 190.196 -2.0651 -3.6733 0
M  V30 1943 H 188.92 -0.95004 -3.12477 0
M  V30 1944 H 187.579 -2.89467 -2.24954 0
M  V30 1945 H 187.227 -2.0701 -4.58428 0
M  V30 1946 H 186.927 -3.82195 -4.46319 0
M  V30 1947 H 188.451 -3.22869 -5.18255 0
M  V30 1948 H 189.865 -4.62348 -3.38979 0
M  V30 1949 H 188.262 -5.25006 -2.9067 0
M  V30 1950 H 189.332 -4.54893 -1.67929 0
M  V30 1951 N 190.675 0.682077 -1.42076 0
M  V30 1952 C 191.9 1.47558 -1.45744 0
M  V30 1953 C 192.325 1.87977 -0.0680981 0
M  V30 1954 O 191.683 1.55522 0.9318 0
M  V30 1955 C 191.731 2.70575 -2.38373 0
M  V30 1956 O 190.835 3.68573 -1.85007 0
M  V30 1957 H 190.176 0.443585 -0.494093 0
M  V30 1958 H 192.706 0.837238 -1.86686 0
M  V30 1959 H 192.716 3.18729 -2.54707 0
M  V30 1960 H 191.391 2.40495 -3.39315 0
M  V30 1961 H 189.968 3.2757 -1.78192 0
M  V30 1962 N 192.153 1.28127 0.917671 0
M  V30 1963 C 193.393 1.163 1.68088 0
M  V30 1964 C 193.757 -0.284515 1.8988 0
M  V30 1965 O 194.958 -0.525413 2.63615 0
M  V30 1966 C 193.229 1.93546 3.00457 0
M  V30 1967 S 194.788 1.98048 3.91564 0
M  V30 1968 H 191.606 0.415005 0.577315 0
M  V30 1969 H 194.208 1.62173 1.09179 0
M  V30 1970 H 192.912 2.97888 2.82295 0
M  V30 1971 H 192.443 1.48207 3.64415 0
M  V30 1972 H 194.458 1.08415 4.84211 0
M  V30 1973 N 193.631 -1.12557 1.10312 0
M  V30 1974 C 194.578 -2.18247 0.750781 0
M  V30 1975 C 195.548 -1.63853 -0.272293 0
M  V30 1976 O 196.733 -1.90195 -0.151862 0
M  V30 1977 C 193.873 -3.44591 0.187379 0
M  V30 1978 C 192.986 -4.13046 1.2656 0
M  V30 1979 C 192.121 -5.27034 0.663978 0
M  V30 1980 C 191.16 -5.87353 1.72287 0
M  V30 1981 N 190.297 -6.92757 1.1416 0
M  V30 1982 H 195.137 -2.47732 1.65628 0
M  V30 1983 H 192.674 -1.21629 0.827337 0
M  V30 1984 H 194.632 -4.16904 -0.157148 0
M  V30 1985 H 193.262 -3.15527 -0.681355 0
M  V30 1986 H 192.314 -3.38924 1.72727 0
M  V30 1987 H 193.626 -4.53947 2.06721 0
M  V30 1988 H 192.78 -6.06104 0.268824 0
M  V30 1989 H 191.519 -4.87407 -0.169082 0
M  V30 1990 H 190.524 -5.06971 2.12746 0
M  V30 1991 H 191.749 -6.29051 2.55875 0
M  V30 1992 H 189.695 -6.5517 0.329984 0
M  V30 1993 H 189.612 -7.3225 1.88007 0
M  V30 1994 H 190.88 -7.75658 0.772956 0
M  V30 1995 N 195.109 -0.891671 -1.2995 0
M  V30 1996 C 196.334 -0.527932 -2.00568 0
M  V30 1997 C 196.759 0.877969 -1.66353 0
M  V30 1998 O 196.117 1.58301 -0.883762 0
M  V30 1999 C 196.165 -0.717745 -3.53385 0
M  V30 2000 O 195.269 0.233376 -4.11739 0
M  V30 2001 H 194.61 -0.20722 -0.630837 0
M  V30 2002 H 197.14 -1.20105 -1.65638 0
M  V30 2003 H 197.15 -0.619307 -4.03272 0
M  V30 2004 H 195.825 -1.74276 -3.77625 0
M  V30 2005 H 194.402 0.0880706 -3.72796 0
M  V30 2006 N 196.587 1.43421 -0.653314 0
M  V30 2007 C 197.497 2.34568 0.0388565 0
M  V30 2008 C 198.513 1.53888 0.81207 0
M  V30 2009 O 199.689 1.86539 0.759294 0
M  V30 2010 C 196.754 3.32167 0.993269 0
M  V30 2011 C 195.815 4.28751 0.216977 0
M  V30 2012 C 195.048 5.21688 1.12593 0
M  V30 2013 O 195.271 5.19052 2.36519 0
M  V30 2014 O 194.205 5.98919 0.598284 0
M  V30 2015 H 198.031 2.95251 -0.711386 0
M  V30 2016 H 195.616 1.43564 -0.413502 0
M  V30 2017 H 197.498 3.92183 1.54176 0
M  V30 2018 H 196.173 2.73987 1.72374 0
M  V30 2019 H 195.08 3.72215 -0.375101 0
M  V30 2020 H 196.413 4.89913 -0.473924 0
M  V30 2021 N 198.065 0.39524 1.52563 0
M  V30 2022 C 199.293 -0.184943 2.06072 0
M  V30 2023 C 199.708 -1.40021 1.26647 0
M  V30 2024 O 199.065 -1.79767 0.314672 0
M  V30 2025 C 199.116 -0.549179 3.57304 0
M  V30 2026 O 198.837 0.617813 4.33722 0
M  V30 2027 C 200.338 -1.18459 4.2718 0
M  V30 2028 H 197.558 -0.0265025 0.670476 0
M  V30 2029 H 200.102 0.562184 1.96621 0
M  V30 2030 H 198.257 -1.2462 3.66809 0
M  V30 2031 H 198.671 0.317091 5.23541 0
M  V30 2032 H 200.145 -1.38976 5.34219 0
M  V30 2033 H 200.622 -2.15368 3.82771 0
M  V30 2034 H 201.228 -0.528163 4.22008 0
M  V30 2035 N 199.544 -1.57102 0.125237 0
M  V30 2036 C 200.454 -2.19191 -0.8362 0
M  V30 2037 C 201.47 -1.16985 -1.28805 0
M  V30 2038 O 202.646 -1.49479 -1.34974 0
M  V30 2039 C 199.711 -2.78407 -2.06617 0
M  V30 2040 C 198.772 -3.9567 -1.66565 0
M  V30 2041 C 198.005 -4.52052 -2.83698 0
M  V30 2042 O 198.228 -4.07326 -3.99302 0
M  V30 2043 O 197.162 -5.42645 -2.60423 0
M  V30 2044 H 200.988 -3.01816 -0.337776 0
M  V30 2045 H 198.573 -1.4906 -0.100695 0
M  V30 2046 H 200.455 -3.16129 -2.7864 0
M  V30 2047 H 199.13 -1.9881 -2.55453 0
M  V30 2048 H 198.037 -3.62705 -0.916296 0
M  V30 2049 H 199.37 -4.76722 -1.22464 0
M  V30 2050 N 201.022 0.148545 -1.56898 0
M  V30 2051 C 202.268 0.862694 -1.83536 0
M  V30 2052 C 202.601 1.80889 -0.706604 0
M  V30 2053 O 201.876 1.92328 0.289885 0
M  V30 2054 C 202.159 1.63853 -3.20662 0
M  V30 2055 C 202.012 0.713925 -4.44098 0
M  V30 2056 C 203.331 2.60133 -3.54991 0
M  V30 2057 H 200.45 0.312179 -0.667618 0
M  V30 2058 H 203.092 0.127953 -1.89569 0
M  V30 2059 H 201.242 2.26489 -3.1565 0
M  V30 2060 H 202.914 0.098686 -4.61194 0
M  V30 2061 H 201.157 0.0234019 -4.33794 0
M  V30 2062 H 201.828 1.29278 -5.36648 0
M  V30 2063 H 204.304 2.07616 -3.60603 0
M  V30 2064 H 203.18 3.11468 -4.51972 0
M  V30 2065 H 203.441 3.41417 -2.80868 0
M  V30 2066 N 202.5 1.5196 0.417844 0
M  V30 2067 C 203.447 1.74678 1.50852 0
M  V30 2068 C 204.417 0.588947 1.55308 0
M  V30 2069 O 205.602 0.825544 1.72016 0
M  V30 2070 C 202.742 1.89544 2.88387 0
M  V30 2071 C 201.855 3.17166 2.93309 0
M  V30 2072 C 200.99 3.22513 4.22088 0
M  V30 2073 C 200.029 4.44372 4.20951 0
M  V30 2074 N 199.166 4.47161 5.41287 0
M  V30 2075 H 204.006 2.67768 1.30783 0
M  V30 2076 H 201.543 1.32689 0.63498 0
M  V30 2077 H 203.501 1.96146 3.68216 0
M  V30 2078 H 202.131 0.998424 3.06971 0
M  V30 2079 H 201.183 3.19778 2.06024 0
M  V30 2080 H 202.495 4.07021 2.88332 0
M  V30 2081 H 201.649 3.28139 5.10303 0
M  V30 2082 H 200.388 2.30581 4.29748 0
M  V30 2083 H 199.393 4.38902 3.31127 0
M  V30 2084 H 200.618 5.3759 4.14938 0
M  V30 2085 H 198.564 3.58108 5.49632 0
M  V30 2086 H 198.481 5.3085 5.3827 0
M  V30 2087 H 199.749 4.57005 6.3148 0
M  V30 2088 N 203.978 -0.674533 1.42435 0
M  V30 2089 C 204.925 -1.78807 1.45934 0
M  V30 2090 C 205.895 -1.63157 0.311271 0
M  V30 2091 O 207.08 -1.83707 0.515383 0
M  V30 2092 C 204.22 -3.16839 1.36773 0
M  V30 2093 C 203.333 -3.43774 2.61617 0
M  V30 2094 C 202.468 -4.71536 2.44597 0
M  V30 2095 C 201.507 -4.91505 3.64814 0
M  V30 2096 N 200.644 -6.10508 3.46734 0
M  V30 2097 H 205.484 -1.75151 2.41093 0
M  V30 2098 H 203.021 -0.85504 1.19697 0
M  V30 2099 H 204.979 -3.96606 1.29459 0
M  V30 2100 H 203.609 -3.19619 0.452089 0
M  V30 2101 H 202.661 -2.58259 2.79297 0
M  V30 2102 H 203.973 -3.54423 3.50978 0
M  V30 2103 H 203.127 -5.59393 2.3487 0
M  V30 2104 H 201.866 -4.6317 1.52726 0
M  V30 2105 H 200.871 -4.0209 3.74972 0
M  V30 2106 H 202.096 -5.01716 4.57665 0
M  V30 2107 H 200.042 -6.03315 2.5758 0
M  V30 2108 H 199.959 -6.2202 4.29682 0
M  V30 2109 H 201.227 -7.01044 3.40819 0
M  V30 2110 N 205.456 -1.28612 -0.910864 0
M  V30 2111 C 206.702 -1.16106 -1.66274 0
M  V30 2112 C 207.035 0.289113 -1.92036 0
M  V30 2113 O 206.31 1.21 -1.52281 0
M  V30 2114 C 206.593 -1.96309 -3.01885 0
M  V30 2115 C 206.446 -3.49405 -2.8326 0
M  V30 2116 C 207.765 -1.78076 -4.02463 0
M  V30 2117 H 204.884 -0.423152 -0.603417 0
M  V30 2118 H 207.526 -1.57961 -1.05586 0
M  V30 2119 H 205.676 -1.60742 -3.53687 0
M  V30 2120 H 207.348 -3.94894 -2.38446 0
M  V30 2121 H 205.591 -3.74893 -2.18261 0
M  V30 2122 H 206.262 -4.00784 -3.79574 0
M  V30 2123 H 208.738 -2.0912 -3.59733 0
M  V30 2124 H 207.614 -2.36561 -4.95308 0
M  V30 2125 H 207.875 -0.733008 -4.35981 0
M  V30 2126 N 206.934 1.1197 -1.10907 0
M  V30 2127 C 208.181 1.83588 -0.854507 0
M  V30 2128 C 208.509 1.84357 0.6199 0
M  V30 2129 O 207.764 1.28809 1.47332 0
M  V30 2130 C 208.063 3.30749 -1.35425 0
M  V30 2131 C 207.729 3.50146 -2.84093 0
M  V30 2132 C 206.391 3.55148 -3.2469 0
M  V30 2133 C 208.743 3.56857 -3.79872 0
M  V30 2134 C 206.071 3.6441 -4.59806 0
M  V30 2135 C 208.423 3.6765 -5.14797 0
M  V30 2136 C 207.087 3.7091 -5.54961 0
M  V30 2137 H 206.357 0.671795 -0.312686 0
M  V30 2138 H 209.004 1.32091 -1.38652 0
M  V30 2139 H 207.309 3.84703 -0.742361 0
M  V30 2140 H 209.006 3.8464 -1.1337 0
M  V30 2141 H 205.596 3.46919 -2.51685 0
M  V30 2142 H 209.78 3.52258 -3.49611 0
M  V30 2143 H 205.036 3.65208 -4.9034 0
M  V30 2144 H 209.21 3.71786 -5.88853 0
M  V30 2145 H 206.837 3.7784 -6.59652 0
M  V30 2146 N 208.412 0.89855 1.29475 0
M  V30 2147 C 209.342 0.39201 2.30186 0
M  V30 2148 C 210.323 -0.532359 1.61555 0
M  V30 2149 O 211.508 -0.443331 1.89072 0
M  V30 2150 C 208.638 -0.382353 3.45189 0
M  V30 2151 C 207.592 0.451483 4.25612 0
M  V30 2152 C 206.918 -0.450307 5.328 0
M  V30 2153 C 208.218 1.70079 4.93832 0
M  V30 2154 H 209.912 1.23362 2.72804 0
M  V30 2155 H 207.458 0.594638 1.31149 0
M  V30 2156 H 209.411 -0.747451 4.14718 0
M  V30 2157 H 208.135 -1.25774 3.01411 0
M  V30 2158 H 206.794 0.798897 3.57789 0
M  V30 2159 H 206.442 -1.32379 4.85268 0
M  V30 2160 H 206.142 0.103902 5.87508 0
M  V30 2161 H 207.666 -0.811623 6.05182 0
M  V30 2162 H 209.08 1.40549 5.55805 0
M  V30 2163 H 207.477 2.19623 5.58467 0
M  V30 2164 H 208.547 2.43744 4.19186 0
M  V30 2165 N 209.89 -1.43072 0.660911 0
M  V30 2166 C 210.822 -2.29108 -0.0647641 0
M  V30 2167 C 211.835 -1.42928 -0.779448 0
M  V30 2168 O 213.024 -1.66788 -0.635921 0
M  V30 2169 C 210.124 -3.20032 -1.11503 0
M  V30 2170 C 209.297 -4.34792 -0.476955 0
M  V30 2171 C 208.356 -5.06534 -1.42513 0
M  V30 2172 O 207.382 -5.61538 -0.930771 0
M  V30 2173 N 208.584 -5.1075 -2.75889 0
M  V30 2174 H 211.349 -2.92029 0.673731 0
M  V30 2175 H 208.91 -1.53846 0.50427 0
M  V30 2176 H 210.902 -3.64892 -1.75032 0
M  V30 2177 H 209.472 -2.58658 -1.75541 0
M  V30 2178 H 208.692 -3.92752 0.337572 0
M  V30 2179 H 209.98 -5.0879 -0.0318525 0
M  V30 2180 H 209.378 -4.67447 -3.18606 0
M  V30 2181 H 207.935 -5.59302 -3.347 0
M  V30 2182 N 211.368 -0.403325 -1.52352 0
M  V30 2183 C 212.3 0.4603 -2.2453 0
M  V30 2184 C 213.313 1.01505 -1.27282 0
M  V30 2185 O 214.502 0.914982 -1.53266 0
M  V30 2186 C 211.602 1.65208 -2.95905 0
M  V30 2187 C 210.775 1.22224 -4.19976 0
M  V30 2188 C 209.834 2.28028 -4.74226 0
M  V30 2189 O 208.86 1.88857 -5.36956 0
M  V30 2190 N 210.062 3.6012 -4.55295 0
M  V30 2191 H 212.827 -0.158156 -2.99282 0
M  V30 2192 H 210.388 -0.230402 -1.60252 0
M  V30 2193 H 212.38 2.35541 -3.29093 0
M  V30 2194 H 210.95 2.17658 -2.24374 0
M  V30 2195 H 210.17 0.34725 -3.92668 0
M  V30 2196 H 211.458 0.911924 -5.00561 0
M  V30 2197 H 210.856 3.94698 -4.05253 0
M  V30 2198 H 209.413 4.26447 -4.92936 0
M  V30 2199 N 212.846 1.57033 -0.133567 0
M  V30 2200 C 213.776 2.1909 0.807567 0
M  V30 2201 C 214.757 1.13517 1.26681 0
M  V30 2202 O 215.942 1.41809 1.32679 0
M  V30 2203 C 213.072 2.80188 2.05212 0
M  V30 2204 C 212.026 3.91471 1.73015 0
M  V30 2205 C 211.352 4.39443 3.04622 0
M  V30 2206 C 212.652 5.12886 0.987168 0
M  V30 2207 H 214.346 2.97988 0.290403 0
M  V30 2208 H 211.892 1.43335 0.138239 0
M  V30 2209 H 213.845 3.22264 2.71521 0
M  V30 2210 H 212.569 1.98601 2.59278 0
M  V30 2211 H 211.228 3.49993 1.0909 0
M  V30 2212 H 210.876 3.54695 3.56651 0
M  V30 2213 H 210.576 5.14495 2.83847 0
M  V30 2214 H 212.1 4.8418 3.72024 0
M  V30 2215 H 213.514 5.51891 1.55208 0
M  V30 2216 H 211.911 5.93615 0.87985 0
M  V30 2217 H 212.981 4.84894 -0.0235286 0
M  V30 2218 N 214.325 -0.140222 1.56975 0
M  V30 2219 C 215.235 -1.19223 2.02047 0
M  V30 2220 C 216.251 -1.46612 0.937062 0
M  V30 2221 O 217.427 -1.58148 1.24704 0
M  V30 2222 C 214.492 -2.50414 2.39778 0
M  V30 2223 C 213.553 -2.30612 3.621 0
M  V30 2224 C 212.786 -3.55547 3.98023 0
M  V30 2225 O 213.009 -4.62004 3.34528 0
M  V30 2226 O 211.943 -3.47808 4.91237 0
M  V30 2227 H 215.769 -0.839559 2.91865 0
M  V30 2228 H 213.354 -0.349453 1.45256 0
M  V30 2229 H 215.236 -3.27747 2.64877 0
M  V30 2230 H 213.911 -2.85198 1.53114 0
M  V30 2231 H 212.818 -1.51207 3.4218 0
M  V30 2232 H 214.151 -2.00741 4.49404 0
M  V30 2233 N 215.803 -1.52179 -0.40978 0
M  V30 2234 C 217.049 -1.66453 -1.15851 0
M  V30 2235 C 217.382 -0.392972 -1.90182 0
M  V30 2236 O 216.657 0.608579 -1.84734 0
M  V30 2237 C 216.94 -2.88612 -2.15349 0
M  V30 2238 C 216.793 -4.25815 -1.44918 0
M  V30 2239 C 218.112 -3.06294 -3.16026 0
M  V30 2240 H 215.231 -0.60575 -0.419805 0
M  V30 2241 H 217.873 -1.84732 -0.444314 0
M  V30 2242 H 216.023 -2.73158 -2.76255 0
M  V30 2243 H 217.695 -4.52995 -0.871365 0
M  V30 2244 H 215.938 -4.27247 -0.751159 0
M  V30 2245 H 216.609 -5.07337 -2.17516 0
M  V30 2246 H 219.085 -3.20641 -2.65195 0
M  V30 2247 H 217.961 -3.93283 -3.8291 0
M  V30 2248 H 218.222 -2.19579 -3.83715 0
M  V30 2249 N 217.281 0.66697 -1.42791 0
M  V30 2250 C 218.528 1.42699 -1.43678 0
M  V30 2251 C 218.856 1.94419 -0.0560425 0
M  V30 2252 O 218.111 1.7182 0.936831 0
M  V30 2253 C 218.41 2.6349 -2.4147 0
M  V30 2254 C 218.076 2.30267 -3.8767 0
M  V30 2255 C 216.738 2.20918 -4.27491 0
M  V30 2256 C 219.09 2.03435 -4.79858 0
M  V30 2257 C 216.418 1.82873 -5.57471 0
M  V30 2258 C 218.77 1.66892 -6.10188 0
M  V30 2259 C 217.434 1.56058 -6.49001 0
M  V30 2260 H 216.704 0.522171 -0.525755 0
M  V30 2261 H 219.351 0.759785 -1.75783 0
M  V30 2262 H 217.656 3.35279 -2.0272 0
M  V30 2263 H 219.353 3.21684 -2.39417 0
M  V30 2264 H 215.943 2.38449 -3.56146 0
M  V30 2265 H 220.127 2.09586 -4.49875 0
M  V30 2266 H 215.383 1.7306 -5.86396 0
M  V30 2267 H 219.557 1.45157 -6.81104 0
M  V30 2268 H 217.184 1.26348 -7.49627 0
M  V30 2269 N 218.759 1.29093 0.90403 0
M  V30 2270 C 219.692 1.08176 2.00931 0
M  V30 2271 C 220.67 -0.005083 1.62599 0
M  V30 2272 O 221.854 0.144765 1.87943 0
M  V30 2273 C 218.981 0.645897 3.32484 0
M  V30 2274 C 218.027 1.73081 3.89801 0
M  V30 2275 S 218.86 3.32905 4.19446 0
M  V30 2276 C 220.016 2.91176 5.54046 0
M  V30 2277 H 220.249 2.01752 2.18365 0
M  V30 2278 H 217.782 1.13191 1.0501 0
M  V30 2279 H 219.74 0.401131 4.08535 0
M  V30 2280 H 218.401 -0.270188 3.12936 0
M  V30 2281 H 217.594 1.37768 4.84805 0
M  V30 2282 H 217.196 1.92888 3.20422 0
M  V30 2283 H 219.488 2.37952 6.34338 0
M  V30 2284 H 220.431 3.85014 5.94281 0
M  V30 2285 H 220.839 2.296 5.15698 0
M  V30 2286 N 220.237 -1.11381 1.11499 0
M  V30 2287 C 221.184 -2.17439 0.773887 0
M  V30 2288 C 222.154 -1.64132 -0.254899 0
M  V30 2289 O 223.339 -1.90345 -0.13168 0
M  V30 2290 C 220.479 -3.44373 0.223917 0
M  V30 2291 C 219.592 -4.1168 1.30934 0
M  V30 2292 C 218.727 -5.263 0.71984 0
M  V30 2293 C 217.766 -5.85493 1.78507 0
M  V30 2294 N 216.903 -6.91507 1.21502 0
M  V30 2295 H 221.743 -2.45962 1.68246 0
M  V30 2296 H 219.28 -1.20744 0.840191 0
M  V30 2297 H 221.238 -4.17047 -0.112921 0
M  V30 2298 H 219.868 -3.16232 -0.647851 0
M  V30 2299 H 218.92 -3.37073 1.76312 0
M  V30 2300 H 220.232 -4.51729 2.11524 0
M  V30 2301 H 219.386 -6.05785 0.333094 0
M  V30 2302 H 218.125 -4.87559 -0.117377 0
M  V30 2303 H 217.13 -5.04686 2.18111 0
M  V30 2304 H 218.355 -6.26301 2.62533 0
M  V30 2305 H 216.301 -6.54783 0.399455 0
M  V30 2306 H 216.218 -7.30214 1.95763 0
M  V30 2307 H 217.486 -7.74795 0.855181 0
M  V30 2308 N 221.715 -0.905404 -1.28997 0
M  V30 2309 C 222.662 -0.385892 -2.27551 0
M  V30 2310 C 223.632 0.535113 -1.57244 0
M  V30 2311 O 224.817 0.459119 -1.85194 0
M  V30 2312 C 221.957 0.375461 -3.43051 0
M  V30 2313 C 221.07 -0.577092 -4.28128 0
M  V30 2314 C 220.205 0.201879 -5.30816 0
M  V30 2315 C 219.244 -0.744829 -6.07551 0
M  V30 2316 N 218.381 9.42587e-05 -7.021 0
M  V30 2317 H 223.221 -1.23139 -2.71368 0
M  V30 2318 H 220.758 -0.618542 -1.33463 0
M  V30 2319 H 222.716 0.832992 -4.088 0
M  V30 2320 H 221.346 1.18537 -3.00248 0
M  V30 2321 H 220.398 -1.15315 -3.62501 0
M  V30 2322 H 221.71 -1.30152 -4.8152 0
M  V30 2323 H 220.864 0.720351 -6.02408 0
M  V30 2324 H 219.603 0.959413 -4.7817 0
M  V30 2325 H 218.608 -1.27475 -5.34818 0
M  V30 2326 H 219.833 -1.50178 -6.62286 0
M  V30 2327 H 217.779 0.739791 -6.51815 0
M  V30 2328 H 217.696 -0.664321 -7.53076 0
M  V30 2329 H 218.964 0.498644 -7.77903 0
M  V30 2330 N 223.193 1.4272 -0.668489 0
M  V30 2331 C 224.141 2.32586 0.0254857 0
M  V30 2332 C 225.135 1.49471 0.797176 0
M  V30 2333 O 226.341 1.65583 0.705853 0
M  V30 2334 H 222.716 0.751514 0.0270339 0
M  V30 2335 H 224.687 2.88823 -0.749936 0
M  V30 2336 C 223.436 3.3397 0.967427 0
M  V30 2337 H 222.759 3.97961 0.383048 0
M  V30 2338 H 224.199 3.9945 1.42181 0
M  V30 2339 C 222.658 2.65744 2.0708 0
M  V30 2340 O 223.188 2.48454 3.15648 0
M  V30 2341 N 221.394 2.2487 1.8407 0
M  V30 2342 H 220.941 2.39132 0.95778 0
M  V30 2343 H 220.899 1.79552 2.58086 0
M  V30 2344 N 224.671 0.411399 1.52136 0
M  V30 2345 C 225.917 -0.163888 2.02137 0
M  V30 2346 C 226.25 -1.44597 1.29636 0
M  V30 2347 O 225.525 -1.90272 0.403353 0
M  V30 2348 C 225.808 -0.40927 3.57767 0
M  V30 2349 C 225.661 0.889643 4.40914 0
M  V30 2350 C 226.98 -1.19042 4.23694 0
M  V30 2351 H 224.099 -0.0580896 0.734707 0
M  V30 2352 H 226.741 0.54531 1.82007 0
M  V30 2353 H 224.891 -1.0134 3.7505 0
M  V30 2354 H 226.563 1.52575 4.35337 0
M  V30 2355 H 224.806 1.50011 4.07037 0
M  V30 2356 H 225.477 0.672314 5.4789 0
M  V30 2357 H 227.953 -0.678942 4.10524 0
M  V30 2358 H 226.829 -1.33086 5.32522 0
M  V30 2359 H 227.09 -2.21166 3.82803 0
M  V30 2360 N 226.149 -1.5696 0.141893 0
M  V30 2361 C 227.426 -1.87553 -0.555281 0
M  V30 2362 C 227.806 -1.04699 -1.83306 0
M  V30 2363 O 227.154 -0.132346 -2.28116 0
M  V30 2364 C 227.364 -3.39093 -0.825664 0
M  V30 2365 C 228.712 -4.08199 -1.16869 0
M  V30 2366 O 229.736 -3.44242 -0.915185 0
M  V30 2367 O 228.595 -5.21139 -1.6455 0
M  V30 2368 H 225.689 -0.777188 -0.282679 0
M  V30 2369 H 228.235 -1.68763 0.17812 0
M  V30 2370 H 227.007 -3.91221 0.0788633 0
M  V30 2371 H 226.63 -3.63393 -1.61343 0
M  V30 2372 N 227.627 0.131896 -1.57047 0
M  V30 2373 C 228.874 0.841932 -1.84168 0
M  V30 2374 C 229.202 1.8048 -0.725066 0
M  V30 2375 O 228.457 1.93618 0.284692 0
M  V30 2376 C 228.756 1.63703 -3.17704 0
M  V30 2377 C 228.422 0.81961 -4.43388 0
M  V30 2378 C 227.084 0.594148 -4.77518 0
M  V30 2379 C 229.436 0.248977 -5.20605 0
M  V30 2380 C 226.764 -0.212409 -5.86315 0
M  V30 2381 C 229.116 -0.544701 -6.30251 0
M  V30 2382 C 227.78 -0.780599 -6.6292 0
M  V30 2383 H 227.05 0.308085 -0.673917 0
M  V30 2384 H 229.697 0.104867 -1.91213 0
M  V30 2385 H 228.002 2.44464 -3.06177 0
M  V30 2386 H 229.699 2.19015 -3.35907 0
M  V30 2387 H 226.289 1.00542 -4.16641 0
M  V30 2388 H 230.473 0.410408 -4.946 0
M  V30 2389 H 225.729 -0.404524 -6.1006 0
M  V30 2390 H 229.903 -0.993922 -6.89271 0
M  V30 2391 H 227.53 -1.40742 -7.47058 0
M  V30 2392 N 229.106 1.52395 0.401703 0
M  V30 2393 C 230.036 1.79231 1.49661 0
M  V30 2394 C 231.017 0.643654 1.57452 0
M  V30 2395 O 232.202 0.889989 1.72606 0
M  V30 2396 C 229.332 1.94971 2.87409 0
M  V30 2397 C 228.286 3.10604 2.94465 0
M  V30 2398 C 227.612 3.11577 4.34538 0
M  V30 2399 C 228.912 4.49921 2.6527 0
M  V30 2400 H 230.606 2.70917 1.27454 0
M  V30 2401 H 228.152 1.30362 0.6117 0
M  V30 2402 H 230.105 2.12328 3.63999 0
M  V30 2403 H 228.829 0.999632 3.10926 0
M  V30 2404 H 227.488 2.93009 2.20321 0
M  V30 2405 H 227.136 2.14277 4.55076 0
M  V30 2406 H 226.836 3.89247 4.40183 0
M  V30 2407 H 228.36 3.31073 5.13053 0
M  V30 2408 H 229.774 4.67683 3.31581 0
M  V30 2409 H 228.171 5.29564 2.82281 0
M  V30 2410 H 229.241 4.57507 1.60671 0
M  V30 2411 N 230.584 -0.659388 1.43143 0
M  V30 2412 C 231.833 -1.41518 1.43721 0
M  V30 2413 C 232.146 -1.95499 0.0628176 0
M  V30 2414 O 233.352 -2.71446 -0.0539683 0
M  V30 2415 C 231.808 -2.5608 2.52885 0
M  V30 2416 C 231.416 -2.08733 3.96402 0
M  V30 2417 C 233.16 -3.3349 2.62649 0
M  V30 2418 C 231.067 -3.20469 4.97045 0
M  V30 2419 H 229.997 -0.531705 0.534608 0
M  V30 2420 H 232.648 -0.712343 1.69109 0
M  V30 2421 H 231.03 -3.28805 2.20688 0
M  V30 2422 H 232.204 -1.43059 4.3803 0
M  V30 2423 H 230.519 -1.44219 3.90627 0
M  V30 2424 H 233.116 -4.16734 3.35017 0
M  V30 2425 H 233.459 -3.8111 1.67513 0
M  V30 2426 H 233.992 -2.67842 2.94118 0
M  V30 2427 H 230.731 -2.77824 5.93712 0
M  V30 2428 H 230.251 -3.84874 4.60034 0
M  V30 2429 H 231.93 -3.85698 5.19467 0
M  V30 2430 N 232.062 -1.29571 -0.897171 0
M  V30 2431 C 233.025 -1.14913 -1.98312 0
M  V30 2432 C 234.025 -0.0838629 -1.60581 0
M  V30 2433 O 235.215 -0.331006 -1.71026 0
M  V30 2434 C 232.347 -0.757835 -3.3237 0
M  V30 2435 H 233.54 -2.11377 -2.12743 0
M  V30 2436 H 231.093 -1.12793 -1.08201 0
M  V30 2437 H 231.828 0.206837 -3.2364 0
M  V30 2438 H 231.613 -1.52755 -3.61121 0
M  V30 2439 H 233.103 -0.678408 -4.12053 0
M  V30 2440 N 233.54 1.10788 -1.12088 0
M  V30 2441 C 234.45 2.20599 -0.798338 0
M  V30 2442 C 235.466 1.72712 0.21135 0
M  V30 2443 O 236.642 2.01348 0.0458477 0
M  V30 2444 C 233.707 3.45771 -0.253674 0
M  V30 2445 C 232.768 4.08411 -1.32283 0
M  V30 2446 C 232.001 5.27608 -0.80406 0
M  V30 2447 O 232.224 5.69241 0.363478 0
M  V30 2448 O 231.158 5.8101 -1.57198 0
M  V30 2449 H 234.984 2.50614 -1.7154 0
M  V30 2450 H 232.569 1.19454 -0.897275 0
M  V30 2451 H 234.451 4.21376 0.0453691 0
M  V30 2452 H 233.126 3.1739 0.636005 0
M  V30 2453 H 232.033 3.34507 -1.67499 0
M  V30 2454 H 233.366 4.40986 -2.18614 0
M  V30 2455 N 235.018 0.912232 1.28515 0
M  V30 2456 C 236.248 0.559604 1.98877 0
M  V30 2457 C 236.656 -0.863113 1.68366 0
M  V30 2458 O 235.999 -1.58304 0.931969 0
M  V30 2459 C 236.061 0.68703 3.52874 0
M  V30 2460 C 235.725 2.07901 4.06972 0
M  V30 2461 C 236.722 3.05157 4.20922 0
M  V30 2462 C 234.407 2.39178 4.417 0
M  V30 2463 C 236.401 4.31806 4.68852 0
M  V30 2464 C 234.088 3.66068 4.89324 0
M  V30 2465 C 235.086 4.62195 5.02856 0
M  V30 2466 O 234.774 5.86829 5.49442 0
M  V30 2467 H 234.506 0.212191 0.641834 0
M  V30 2468 H 237.06 1.22712 1.64715 0
M  V30 2469 H 235.29 -0.0375486 3.86682 0
M  V30 2470 H 236.979 0.341727 4.04459 0
M  V30 2471 H 237.745 2.82311 3.94367 0
M  V30 2472 H 233.624 1.65109 4.30418 0
M  V30 2473 H 237.168 5.06842 4.79329 0
M  V30 2474 H 233.065 3.88739 5.15318 0
M  V30 2475 H 233.833 5.89597 5.6773 0
M  V30 2476 N 236.496 -1.42363 0.676048 0
M  V30 2477 C 237.743 -2.01522 0.19883 0
M  V30 2478 C 238.071 -1.53456 -1.19505 0
M  V30 2479 O 237.326 -0.727967 -1.81657 0
M  V30 2480 C 237.625 -3.56929 0.183431 0
M  V30 2481 C 237.291 -4.24431 1.52215 0
M  V30 2482 C 235.953 -4.42585 1.8887 0
M  V30 2483 C 238.305 -4.62459 2.40377 0
M  V30 2484 C 235.633 -4.96039 3.13309 0
M  V30 2485 C 237.985 -5.17294 3.64129 0
M  V30 2486 C 236.649 -5.33661 4.00951 0
M  V30 2487 H 235.919 -0.737419 0.0727571 0
M  V30 2488 H 238.566 -1.70531 0.871281 0
M  V30 2489 H 236.871 -3.87594 -0.572532 0
M  V30 2490 H 238.568 -4.00486 -0.203035 0
M  V30 2491 H 235.158 -4.10661 1.22701 0
M  V30 2492 H 239.342 -4.48105 2.13343 0
M  V30 2493 H 234.598 -5.06896 3.41857 0
M  V30 2494 H 238.772 -5.45704 4.32644 0
M  V30 2495 H 236.399 -5.74845 4.9745 0
M  V30 2496 N 237.974 -0.419461 -1.51915 0
M  V30 2497 C 238.884 0.407528 -2.31033 0
M  V30 2498 C 239.9 1.04413 -1.3919 0
M  V30 2499 O 241.076 1.0434 -1.72265 0
M  V30 2500 C 238.141 1.50365 -3.12396 0
M  V30 2501 C 237.202 0.889029 -4.19994 0
M  V30 2502 C 236.435 1.93291 -4.97468 0
M  V30 2503 O 236.658 3.15259 -4.75361 0
M  V30 2504 O 235.592 1.53339 -5.8204 0
M  V30 2505 H 239.418 -0.237865 -3.02767 0
M  V30 2506 H 237.003 -0.182413 -1.48282 0
M  V30 2507 H 238.885 2.13975 -3.63032 0
M  V30 2508 H 237.56 2.13345 -2.43445 0
M  V30 2509 H 236.467 0.215353 -3.7348 0
M  V30 2510 H 237.8 0.302991 -4.91267 0
M  V30 2511 N 239.452 1.56882 -0.150215 0
M  V30 2512 C 240.402 2.13501 0.800071 0
M  V30 2513 C 241.386 1.06368 1.20726 0
M  V30 2514 O 242.578 1.32538 1.17314 0
M  V30 2515 C 239.707 2.76271 2.03787 0
M  V30 2516 C 238.793 3.90533 1.65364 0
M  V30 2517 N 239.184 4.96259 0.977794 0
M  V30 2518 C 237.482 4.013 1.94613 0
M  V30 2519 C 238.183 5.76286 0.791794 0
M  V30 2520 N 237.159 5.27163 1.32666 0
M  V30 2521 H 240.961 2.92615 0.274517 0
M  V30 2522 H 238.475 1.62319 0.0512144 0
M  V30 2523 H 240.472 3.15197 2.72867 0
M  V30 2524 H 239.132 1.98631 2.56857 0
M  V30 2525 H 240.143 5.13953 0.638193 0
M  V30 2526 H 236.82 3.3474 2.4951 0
M  V30 2527 H 238.21 6.71401 0.258894 0
M  V30 2528 N 240.93 -0.123565 1.57115 0
M  V30 2529 C 242.176 -0.833386 1.84885 0
M  V30 2530 C 242.509 -1.79742 0.735292 0
M  V30 2531 O 241.784 -1.92764 -0.25925 0
M  V30 2532 C 242.067 -1.5873 3.23228 0
M  V30 2533 C 241.92 -0.643183 4.45178 0
M  V30 2534 C 243.239 -2.54453 3.59085 0
M  V30 2535 H 240.358 -0.301518 0.6725 0
M  V30 2536 H 243 -0.097778 1.89748 0
M  V30 2537 H 241.15 -2.21438 3.19214 0
M  V30 2538 H 242.822 -0.0253015 4.61293 0
M  V30 2539 H 241.065 0.0456139 4.33776 0
M  V30 2540 H 241.736 -1.20724 5.38637 0
M  V30 2541 H 244.212 -2.01853 3.63861 0
M  V30 2542 H 243.088 -3.04238 4.5687 0
M  V30 2543 H 243.349 -3.36906 2.86264 0
M  V30 2544 N 242.408 -1.52605 -0.393616 0
M  V30 2545 C 243.318 -1.79971 -1.50492 0
M  V30 2546 C 244.334 -0.686181 -1.59899 0
M  V30 2547 O 245.51 -0.973274 -1.76322 0
M  V30 2548 C 242.575 -1.95867 -2.86072 0
M  V30 2549 C 241.636 -3.19781 -2.86424 0
M  V30 2550 C 240.869 -3.34909 -4.15538 0
M  V30 2551 O 241.092 -2.54948 -5.10253 0
M  V30 2552 O 240.026 -4.28141 -4.23059 0
M  V30 2553 H 243.852 -2.74328 -1.30299 0
M  V30 2554 H 241.437 -1.3764 -0.581005 0
M  V30 2555 H 243.319 -2.08056 -3.66457 0
M  V30 2556 H 241.994 -1.04699 -3.063 0
M  V30 2557 H 240.901 -3.13038 -2.04837 0
M  V30 2558 H 242.234 -4.1078 -2.71147 0
M  V30 2559 N 243.887 0.651787 -1.4349 0
M  V30 2560 C 244.797 1.79368 -1.5121 0
M  V30 2561 C 245.813 1.69361 -0.399093 0
M  V30 2562 O 246.989 1.90505 -0.653431 0
M  V30 2563 C 244.054 3.15653 -1.43401 0
M  V30 2564 C 243.115 3.37446 -2.65384 0
M  V30 2565 C 242.348 4.67229 -2.57939 0
M  V30 2566 O 242.571 5.46676 -1.62792 0
M  V30 2567 O 241.505 4.90773 -3.48462 0
M  V30 2568 H 245.331 1.7581 -2.47638 0
M  V30 2569 H 242.916 0.810447 -1.25507 0
M  V30 2570 H 244.798 3.96935 -1.41494 0
M  V30 2571 H 243.473 3.19798 -0.501085 0
M  V30 2572 H 242.38 2.55923 -2.72863 0
M  V30 2573 H 243.713 3.38148 -3.57654 0
M  V30 2574 N 245.365 1.30045 0.890287 0
M  V30 2575 C 246.328 1.15963 1.977 0
M  V30 2576 C 247.328 0.0923777 1.60534 0
M  V30 2577 O 248.518 0.340071 1.70848 0
M  V30 2578 C 245.65 0.775451 3.31963 0
M  V30 2579 H 246.843 2.12502 2.11619 0
M  V30 2580 H 244.396 1.13366 1.07601 0
M  V30 2581 H 245.131 -0.189671 3.23745 0
M  V30 2582 H 244.916 1.54668 3.60306 0
M  V30 2583 H 246.406 0.700251 4.11687 0
M  V30 2584 N 246.843 -1.10192 1.12674 0
M  V30 2585 C 248.089 -1.82475 0.884915 0
M  V30 2586 C 248.422 -1.85093 -0.58773 0
M  V30 2587 O 247.697 -1.3134 -1.43457 0
M  V30 2588 C 247.98 -3.29018 1.46353 0
M  V30 2589 C 247.833 -3.34718 3.00473 0
M  V30 2590 C 249.152 -4.25473 1.12519 0
M  V30 2591 H 246.271 -0.662492 0.322915 0
M  V30 2592 H 248.913 -1.2913 1.39375 0
M  V30 2593 H 247.063 -3.74576 1.03077 0
M  V30 2594 H 248.735 -2.97622 3.52447 0
M  V30 2595 H 246.978 -2.74541 3.35872 0
M  V30 2596 H 247.649 -4.37918 3.36053 0
M  V30 2597 H 250.125 -3.88161 1.499 0
M  V30 2598 H 249.001 -5.26365 1.55663 0
M  V30 2599 H 249.262 -4.42084 0.0377407 0
M  V30 2600 N 248.321 -0.919034 -1.28029 0
M  V30 2601 C 249.567 -0.565221 -1.95389 0
M  V30 2602 C 249.922 0.882325 -1.70976 0
M  V30 2603 O 249.215 1.61988 -1.02325 0
M  V30 2604 C 249.409 -0.816855 -3.4794 0
M  V30 2605 C 249.238 -2.28731 -3.87185 0
M  V30 2606 C 248.008 -2.93841 -4.11079 0
M  V30 2607 C 250.206 -3.26415 -3.97439 0
M  V30 2608 N 248.188 -4.31129 -4.37037 0
M  V30 2609 C 249.559 -4.48884 -4.27672 0
M  V30 2610 C 251.614 -3.21742 -3.79982 0
M  V30 2611 C 250.317 -5.67268 -4.42266 0
M  V30 2612 C 252.343 -4.39431 -3.95796 0
M  V30 2613 C 251.705 -5.60675 -4.26407 0
M  V30 2614 H 247.804 -0.256797 -0.738633 0
M  V30 2615 H 250.388 -1.18386 -1.54573 0
M  V30 2616 H 248.559 -0.227445 -3.87733 0
M  V30 2617 H 250.291 -0.426542 -4.02446 0
M  V30 2618 H 247.046 -2.44547 -4.05578 0
M  V30 2619 H 247.47 -5.02127 -4.5409 0
M  V30 2620 H 252.112 -2.29079 -3.55363 0
M  V30 2621 H 249.83 -6.60406 -4.65714 0
M  V30 2622 H 253.416 -4.37323 -3.83719 0
M  V30 2623 H 252.296 -6.50223 -4.38383 0
M  V30 2624 N 249.799 1.42003 -0.683588 0
M  V30 2625 C 250.762 2.29191 -0.0198243 0
M  V30 2626 C 251.762 1.43773 0.72013 0
M  V30 2627 O 252.952 1.65061 0.556815 0
M  V30 2628 C 250.084 3.26435 0.982487 0
M  V30 2629 H 251.277 2.8938 -0.787345 0
M  V30 2630 H 248.83 1.49789 -0.446418 0
M  V30 2631 H 249.565 2.71203 1.77819 0
M  V30 2632 H 249.35 3.89449 0.455182 0
M  V30 2633 H 250.84 3.918 1.44508 0
M  V30 2634 N 251.277 0.427512 1.51691 0
M  V30 2635 C 252.523 -0.142439 2.02299 0
M  V30 2636 C 252.856 -1.43214 1.31162 0
M  V30 2637 O 252.131 -1.89833 0.423511 0
M  V30 2638 C 252.414 -0.371301 3.58181 0
M  V30 2639 C 252.267 0.936358 4.39946 0
M  V30 2640 C 253.586 -1.14542 4.24933 0
M  V30 2641 H 250.705 -0.0502937 0.735282 0
M  V30 2642 H 253.347 0.564584 1.81418 0
M  V30 2643 H 251.497 -0.973559 3.76104 0
M  V30 2644 H 253.169 1.57184 4.33694 0
M  V30 2645 H 251.412 1.5432 4.05423 0
M  V30 2646 H 252.083 0.730388 5.47147 0
M  V30 2647 H 254.559 -0.635362 4.11221 0
M  V30 2648 H 253.435 -1.27431 5.33903 0
M  V30 2649 H 253.696 -2.17093 3.85127 0
M  V30 2650 N 252.755 -1.56801 0.158532 0
M  V30 2651 C 253.665 -2.20916 -0.789518 0
M  V30 2652 C 254.681 -1.1969 -1.26294 0
M  V30 2653 O 255.857 -1.52308 -1.31773 0
M  V30 2654 C 252.922 -2.82727 -2.00665 0
M  V30 2655 C 251.983 -3.99114 -1.58134 0
M  V30 2656 C 251.216 -4.57968 -2.74045 0
M  V30 2657 O 251.439 -4.15704 -3.90572 0
M  V30 2658 O 250.373 -5.48047 -2.48855 0
M  V30 2659 H 254.199 -3.02464 -0.273681 0
M  V30 2660 H 251.784 -1.4924 -0.0690548 0
M  V30 2661 H 253.666 -3.21968 -2.71872 0
M  V30 2662 H 252.341 -2.04184 -2.51179 0
M  V30 2663 H 251.248 -3.64567 -0.839155 0
M  V30 2664 H 252.581 -4.79212 -1.12325 0
M  V30 2665 N 254.233 0.115231 -1.57178 0
M  V30 2666 C 255.461 0.836437 -1.89239 0
M  V30 2667 C 255.876 1.73256 -0.750175 0
M  V30 2668 O 255.233 1.80357 0.278832 0
M  V30 2669 C 255.284 1.66671 -3.20785 0
M  V30 2670 O 255.005 0.806652 -4.3061 0
M  V30 2671 C 256.506 2.49274 -3.66575 0
M  V30 2672 H 253.726 0.240253 -0.626514 0
M  V30 2673 H 256.27 0.0984932 -2.04263 0
M  V30 2674 H 254.425 2.35737 -3.0742 0
M  V30 2675 H 254.839 1.37969 -5.06028 0
M  V30 2676 H 256.313 3.03055 -4.6137 0
M  V30 2677 H 256.79 3.26807 -2.93417 0
M  V30 2678 H 257.396 1.85443 -3.82741 0
M  V30 2679 N 255.711 1.52812 0.385517 0
M  V30 2680 C 256.641 1.80808 1.47752 0
M  V30 2681 C 257.622 0.660318 1.5676 0
M  V30 2682 O 258.807 0.908246 1.71652 0
M  V30 2683 C 255.937 1.98008 2.85324 0
M  V30 2684 C 254.891 3.13709 2.91154 0
M  V30 2685 C 254.217 3.16169 4.31209 0
M  V30 2686 C 255.517 4.52709 2.60483 0
M  V30 2687 H 257.211 2.72253 1.24573 0
M  V30 2688 H 254.757 1.31003 0.597839 0
M  V30 2689 H 256.71 2.16176 3.61726 0
M  V30 2690 H 255.434 1.03255 3.09848 0
M  V30 2691 H 254.093 2.95329 2.17201 0
M  V30 2692 H 253.741 2.19092 4.52778 0
M  V30 2693 H 253.441 3.93894 4.36029 0
M  V30 2694 H 254.965 3.36496 5.09512 0
M  V30 2695 H 256.379 4.71173 3.26602 0
M  V30 2696 H 254.776 5.32528 2.76648 0
M  V30 2697 H 255.846 4.59186 1.55809 0
M  V30 2698 N 257.189 -0.644168 1.43834 0
M  V30 2699 C 258.438 -1.39985 1.45214 0
M  V30 2700 C 258.751 -1.95421 0.0835494 0
M  V30 2701 O 259.957 -2.71488 -0.0251748 0
M  V30 2702 C 258.413 -2.53384 2.55587 0
M  V30 2703 C 258.021 -2.04517 3.98594 0
M  V30 2704 C 259.765 -3.30685 2.66172 0
M  V30 2705 C 257.672 -3.1518 5.00416 0
M  V30 2706 H 256.602 -0.526005 0.540218 0
M  V30 2707 H 259.253 -0.694367 1.69855 0
M  V30 2708 H 257.635 -3.26446 2.24163 0
M  V30 2709 H 258.809 -1.38405 4.39523 0
M  V30 2710 H 257.124 -1.40068 3.92135 0
M  V30 2711 H 259.721 -4.13158 3.39418 0
M  V30 2712 H 260.064 -3.79312 1.71546 0
M  V30 2713 H 260.597 -2.64708 2.96942 0
M  V30 2714 H 257.336 -2.71511 5.96625 0
M  V30 2715 H 256.856 -3.79974 4.64091 0
M  V30 2716 H 258.535 -3.80166 5.23529 0
M  V30 2717 N 258.668 -1.30515 -0.883378 0
M  V30 2718 C 259.631 -1.1701 -1.97082 0
M  V30 2719 C 260.631 -0.10089 -1.60483 0
M  V30 2720 O 261.821 -0.349127 -1.70666 0
M  V30 2721 C 258.953 -0.793045 -3.31547 0
M  V30 2722 H 260.146 -2.13622 -2.10489 0
M  V30 2723 H 257.699 -1.13935 -1.06998 0
M  V30 2724 H 258.434 0.172499 -3.23841 0
M  V30 2725 H 258.219 -1.56576 -3.5948 0
M  V30 2726 H 259.709 -0.722073 -4.1131 0
M  V30 2727 N 260.146 1.09593 -1.13257 0
M  V30 2728 C 261.371 1.8604 -0.916732 0
M  V30 2729 C 261.796 1.80504 0.529146 0
M  V30 2730 O 261.154 1.18127 1.37534 0
M  V30 2731 C 261.202 3.32017 -1.40703 0
M  V30 2732 O 260.306 4.08141 -0.591153 0
M  V30 2733 H 259.647 0.576943 -0.328683 0
M  V30 2734 H 262.177 1.38405 -1.50682 0
M  V30 2735 H 262.187 3.82865 -1.4099 0
M  V30 2736 H 260.862 3.35361 -2.45979 0
M  V30 2737 H 259.439 3.67084 -0.656005 0
M  V30 2738 N 261.624 0.925811 1.2754 0
M  V30 2739 C 262.872 0.564138 1.94067 0
M  V30 2740 C 263.193 -0.897188 1.73134 0
M  V30 2741 O 262.463 -1.63573 1.07799 0
M  V30 2742 H 261.043 0.205645 0.718136 0
M  V30 2743 H 263.705 1.1778 1.55287 0
M  V30 2744 H 262.801 0.76881 3.02483 0
M  V30 2745 N 263.102 -1.41638 0.69111 0
M  V30 2746 C 264.049 -2.30789 0.0229705 0
M  V30 2747 C 265.019 -1.46863 -0.775911 0
M  V30 2748 O 266.204 -1.75661 -0.74485 0
M  V30 2749 C 263.344 -3.32868 -0.910666 0
M  V30 2750 C 262.457 -4.31875 -0.103874 0
M  V30 2751 C 261.592 -5.21024 -1.03475 0
M  V30 2752 C 260.631 -6.11702 -0.220598 0
M  V30 2753 N 259.768 -6.93349 -1.10504 0
M  V30 2754 H 264.608 -2.87366 0.788978 0
M  V30 2755 H 262.145 -1.41535 0.400794 0
M  V30 2756 H 264.103 -3.90596 -1.46597 0
M  V30 2757 H 262.733 -2.77851 -1.64312 0
M  V30 2758 H 261.785 -3.76131 0.568285 0
M  V30 2759 H 263.097 -4.96003 0.527504 0
M  V30 2760 H 262.251 -5.83565 -1.65943 0
M  V30 2761 H 260.99 -4.57112 -1.69999 0
M  V30 2762 H 259.995 -5.48215 0.417187 0
M  V30 2763 H 261.22 -6.77668 0.440784 0
M  V30 2764 H 259.166 -6.3205 -1.75638 0
M  V30 2765 H 259.083 -7.54146 -0.529125 0
M  V30 2766 H 260.351 -7.60362 -1.71667 0
M  V30 2767 N 264.58 -0.43555 -1.51462 0
M  V30 2768 C 265.991 0.0279871 -1.86679 0
M  V30 2769 C 266.342 1.42104 -1.35281 0
M  V30 2770 O 265.467 2.04667 -0.702878 0
M  V30 2771 C 266.062 0.0575626 -3.38751 0
M  V30 2772 C 264.621 0.465507 -3.7351 0
M  V30 2773 C 263.768 -0.342996 -2.75171 0
M  V30 2774 H 266.719 -0.651473 -1.44712 0
M  V30 2775 H 266.74 0.867421 -3.70481 0
M  V30 2776 H 266.252 -0.956448 -3.7613 0
M  V30 2777 H 264.353 1.48519 -3.41721 0
M  V30 2778 H 264.466 0.191546 -4.78717 0
M  V30 2779 H 262.83 0.198442 -2.53926 0
M  V30 2780 H 263.613 -1.35585 -3.15391 0
M  V30 2781 N 266.058 1.56714 -0.166846 0
M  V30 2782 C 267.304 1.97039 0.479962 0
M  V30 2783 C 267.637 1.05264 1.63197 0
M  V30 2784 O 266.912 0.0988833 1.94248 0
M  V30 2785 C 267.195 3.46867 0.967212 0
M  V30 2786 C 267.048 4.49421 -0.18466 0
M  V30 2787 C 268.367 3.9968 1.84238 0
M  V30 2788 H 265.486 0.71641 0.172992 0
M  V30 2789 H 268.128 1.8832 -0.252079 0
M  V30 2790 H 266.278 3.54428 1.59101 0
M  V30 2791 H 267.95 4.53924 -0.821621 0
M  V30 2792 H 266.193 4.25573 -0.840837 0
M  V30 2793 H 266.864 5.51644 0.198317 0
M  V30 2794 H 269.34 3.94723 1.31655 0
M  V30 2795 H 268.216 5.04941 2.15234 0
M  V30 2796 H 268.477 3.43226 2.78654 0
M  V30 2797 N 267.536 -0.106894 1.57237 0
M  V30 2798 C 268.499 -1.11466 2.0027 0
M  V30 2799 C 269.499 -1.33623 0.894519 0
M  V30 2800 O 270.689 -1.29935 1.16028 0
M  V30 2801 C 267.821 -2.46646 2.35327 0
M  V30 2802 H 269.014 -0.744516 2.90512 0
M  V30 2803 H 266.567 -0.351576 1.52295 0
M  V30 2804 H 267.302 -2.88558 1.48003 0
M  V30 2805 H 267.087 -2.31915 3.16161 0
M  V30 2806 H 268.577 -3.19151 2.69318 0
M  V30 2807 N 269.014 -1.53014 -0.377408 0
M  V30 2808 C 269.977 -1.77957 -1.44444 0
M  V30 2809 C 270.977 -0.649763 -1.47087 0
M  V30 2810 O 272.167 -0.917897 -1.48055 0
M  V30 2811 C 269.299 -1.89089 -2.83651 0
M  V30 2812 H 270.492 -2.73243 -1.23606 0
M  V30 2813 H 268.045 -1.43912 -0.609844 0
M  V30 2814 H 268.78 -0.958293 -3.09818 0
M  V30 2815 H 268.565 -2.71254 -2.83132 0
M  V30 2816 H 270.055 -2.1002 -3.60945 0
M  V30 2817 N 270.492 0.636531 -1.44174 0
M  V30 2818 C 271.72 1.42353 -1.50144 0
M  V30 2819 C 272.135 1.88389 -0.124575 0
M  V30 2820 O 271.492 1.6051 0.868489 0
M  V30 2821 C 271.543 2.64744 -2.46156 0
M  V30 2822 O 271.264 2.20629 -3.7849 0
M  V30 2823 C 272.765 3.57929 -2.61537 0
M  V30 2824 H 269.985 0.436752 -0.5094 0
M  V30 2825 H 272.529 0.778933 -1.89084 0
M  V30 2826 H 270.684 3.25307 -2.10366 0
M  V30 2827 H 271.098 2.99938 -4.30276 0
M  V30 2828 H 272.572 4.40428 -3.32757 0
M  V30 2829 H 273.049 4.06382 -1.66585 0
M  V30 2830 H 273.655 3.03238 -2.98206 0
M  V30 2831 N 271.97 1.30982 0.876444 0
M  V30 2832 C 272.903 1.12414 1.98591 0
M  V30 2833 C 273.881 0.0294078 1.62573 0
M  V30 2834 O 275.065 0.184598 1.87594 0
M  V30 2835 C 272.192 0.716276 3.3104 0
M  V30 2836 C 271.238 1.81311 3.86042 0
M  V30 2837 S 272.071 3.41727 4.1229 0
M  V30 2838 C 273.227 3.02863 5.47745 0
M  V30 2839 H 273.46 2.06338 2.14037 0
M  V30 2840 H 270.993 1.15393 1.02586 0
M  V30 2841 H 272.951 0.487697 4.07593 0
M  V30 2842 H 271.612 -0.203749 3.13438 0
M  V30 2843 H 270.805 1.48021 4.81774 0
M  V30 2844 H 270.407 1.99641 3.16259 0
M  V30 2845 H 272.699 2.51353 6.29148 0
M  V30 2846 H 273.642 3.97533 5.8598 0
M  V30 2847 H 274.05 2.40487 5.10711 0
M  V30 2848 N 273.449 -1.08991 1.13837 0
M  V30 2849 C 274.689 -1.82867 0.913183 0
M  V30 2850 C 275.053 -1.83936 -0.550604 0
M  V30 2851 O 276.254 -2.53515 -0.893515 0
M  V30 2852 C 274.525 -3.24843 1.49036 0
M  V30 2853 S 276.084 -4.15669 1.40588 0
M  V30 2854 H 272.902 -0.630278 0.329046 0
M  V30 2855 H 275.504 -1.31049 1.45073 0
M  V30 2856 H 274.208 -3.21644 2.54899 0
M  V30 2857 H 273.739 -3.81734 0.950947 0
M  V30 2858 H 275.754 -4.94686 0.387353 0
M  V30 2859 N 274.927 -0.932562 -1.27047 0
M  V30 2860 C 276.176 -0.571351 -1.93439 0
M  V30 2861 C 276.489 0.892467 -1.74053 0
M  V30 2862 O 277.695 1.36267 -2.34826 0
M  V30 2863 C 276.151 -0.97106 -3.46552 0
M  V30 2864 C 275.759 -2.4559 -3.74686 0
M  V30 2865 C 277.503 -0.681333 -4.18997 0
M  V30 2866 C 275.41 -2.79475 -5.21198 0
M  V30 2867 H 274.34 -0.209966 -0.724176 0
M  V30 2868 H 276.991 -1.13403 -1.44263 0
M  V30 2869 H 275.373 -0.336983 -3.94564 0
M  V30 2870 H 276.547 -3.13829 -3.37414 0
M  V30 2871 H 274.862 -2.71802 -3.15456 0
M  V30 2872 H 277.459 -0.910939 -5.26883 0
M  V30 2873 H 277.802 0.381628 -4.14547 0
M  V30 2874 H 278.335 -1.27473 -3.76823 0
M  V30 2875 H 275.074 -3.847 -5.30741 0
M  V30 2876 H 274.594 -2.1589 -5.596 0
M  V30 2877 H 276.273 -2.67478 -5.89122 0
M  V30 2878 N 276.405 1.4127 -0.698611 0
M  V30 2879 C 277.653 2.00782 -0.230409 0
M  V30 2880 C 277.974 1.5562 1.17505 0
M  V30 2881 O 277.244 0.78815 1.79346 0
M  V30 2882 H 275.824 0.742464 -0.0821944 0
M  V30 2883 H 278.486 1.72852 -0.90045 0
M  V30 2884 H 277.582 3.11095 -0.25021 0
M  V30 2885 N 277.883 0.443576 1.51229 0
M  V30 2886 C 279.294 -0.0180867 1.86691 0
M  V30 2887 C 279.645 -1.41384 1.36033 0
M  V30 2888 O 278.77 -2.04291 0.713722 0
M  V30 2889 C 279.365 -0.039597 3.38777 0
M  V30 2890 C 277.924 -0.445692 3.73752 0
M  V30 2891 C 277.071 0.357584 2.74985 0
M  V30 2892 H 280.022 0.659138 1.44364 0
M  V30 2893 H 280.043 -0.847761 3.70936 0
M  V30 2894 H 279.555 0.976382 3.75617 0
M  V30 2895 H 277.656 -1.46704 3.42503 0
M  V30 2896 H 277.769 -0.166155 4.78812 0
M  V30 2897 H 276.133 -0.184973 2.54027 0
M  V30 2898 H 276.916 1.37256 3.14668 0
M  V30 2899 N 279.361 -1.56624 0.175154 0
M  V30 2900 C 280.271 -2.21741 -0.766042 0
M  V30 2901 C 281.287 -1.21023 -1.25018 0
M  V30 2902 O 282.463 -1.53697 -1.3015 0
M  V30 2903 C 279.528 -2.84839 -1.97655 0
M  V30 2904 C 278.589 -4.00769 -1.53892 0
M  V30 2905 C 277.822 -4.60849 -2.69173 0
M  V30 2906 O 278.045 -4.19823 -3.86141 0
M  V30 2907 O 276.979 -5.50655 -2.43028 0
M  V30 2908 H 280.805 -3.02738 -0.241585 0
M  V30 2909 H 278.39 -1.49305 -0.053222 0
M  V30 2910 H 280.272 -3.24834 -2.68442 0
M  V30 2911 H 278.947 -2.06836 -2.48999 0
M  V30 2912 H 277.854 -3.65436 -0.80044 0
M  V30 2913 H 279.187 -4.80376 -1.07236 0
M  V30 2914 N 280.839 0.0985539 -1.57292 0
M  V30 2915 C 282.087 0.801092 -1.85545 0
M  V30 2916 C 282.408 1.79438 -0.763353 0
M  V30 2917 O 281.678 1.94763 0.21073 0
M  V30 2918 H 280.258 0.29884 -0.684619 0
M  V30 2919 H 282.92 0.0810064 -1.94732 0
M  V30 2920 H 282.016 1.3338 -2.82163 0
M  V30 2921 N 282.317 1.53212 0.369288 0
M  V30 2922 C 283.594 1.59815 1.12776 0
M  V30 2923 C 283.974 0.403402 2.0721 0
M  V30 2924 O 283.322 -0.606667 2.20299 0
M  V30 2925 C 283.532 2.94664 1.87013 0
M  V30 2926 C 284.88 3.49109 2.41677 0
M  V30 2927 O 285.904 2.96669 1.97144 0
M  V30 2928 O 284.763 4.40775 3.23079 0
M  V30 2929 H 281.857 0.645376 0.517125 0
M  V30 2930 H 284.403 1.65553 0.37285 0
M  V30 2931 H 283.175 3.73061 1.18071 0
M  V30 2932 H 282.798 2.92401 2.69421 0
M  V30 2933 N 283.795 -0.628877 1.44509 0
M  V30 2934 C 284.725 -1.75187 1.54376 0
M  V30 2935 C 285.706 -1.65411 0.396618 0
M  V30 2936 O 286.891 -1.84137 0.617031 0
M  V30 2937 C 284.021 -3.13725 1.48976 0
M  V30 2938 C 282.975 -3.38291 2.62189 0
M  V30 2939 C 282.301 -4.76883 2.41841 0
M  V30 2940 C 283.601 -3.30632 4.04326 0
M  V30 2941 H 285.295 -1.67187 2.48373 0
M  V30 2942 H 282.841 -0.802909 1.19538 0
M  V30 2943 H 284.794 -3.92064 1.54478 0
M  V30 2944 H 283.518 -3.22515 0.514961 0
M  V30 2945 H 282.177 -2.62334 2.56079 0
M  V30 2946 H 281.825 -4.82378 1.42548 0
M  V30 2947 H 281.525 -4.94278 3.17747 0
M  V30 2948 H 283.049 -5.57449 2.49165 0
M  V30 2949 H 284.463 -3.98873 4.11793 0
M  V30 2950 H 282.86 -3.59561 4.80454 0
M  V30 2951 H 283.93 -2.28404 4.27738 0
M  V30 2952 N 285.273 -1.31445 -0.869486 0
M  V30 2953 C 286.223 -1.15731 -1.96444 0
M  V30 2954 C 287.207 -0.0681855 -1.60755 0
M  V30 2955 O 288.399 -0.293154 -1.74555 0
M  V30 2956 C 285.528 -0.867255 -3.32165 0
M  V30 2957 C 284.614 -1.99738 -3.74119 0
M  V30 2958 N 285.005 -3.24447 -3.88031 0
M  V30 2959 C 283.303 -1.89723 -4.03635 0
M  V30 2960 C 284.004 -3.98374 -4.23879 0
M  V30 2961 N 282.98 -3.26547 -4.3459 0
M  V30 2962 H 286.782 -2.10296 -2.05312 0
M  V30 2963 H 284.296 -1.23009 -1.06031 0
M  V30 2964 H 286.293 -0.735668 -4.10358 0
M  V30 2965 H 284.953 0.0701614 -3.24624 0
M  V30 2966 H 285.964 -3.59557 -3.72746 0
M  V30 2967 H 282.641 -1.03449 -4.04481 0
M  V30 2968 H 284.031 -5.05844 -4.42235 0
M  V30 2969 N 286.751 1.08385 -1.14413 0
M  V30 2970 C 287.999 1.80419 -0.910679 0
M  V30 2971 C 288.32 1.86658 0.564243 0
M  V30 2972 O 287.59 1.35985 1.41014 0
M  V30 2973 H 286.17 0.668204 -0.333934 0
M  V30 2974 H 288.832 1.31037 -1.44275 0
M  V30 2975 H 287.928 2.83238 -1.31082 0
M  V30 2976 N 288.23 0.939286 1.26551 0
M  V30 2977 C 289.476 0.586715 1.94128 0
M  V30 2978 C 289.809 -0.8717 1.73537 0
M  V30 2979 O 289.084 -1.62339 1.07127 0
M  V30 2980 C 289.367 0.927497 3.4795 0
M  V30 2981 C 289.22 2.44052 3.77834 0
M  V30 2982 C 290.539 0.441569 4.37879 0
M  V30 2983 H 287.658 0.21463 0.705055 0
M  V30 2984 H 290.3 1.17316 1.49455 0
M  V30 2985 H 288.45 0.428431 3.8613 0
M  V30 2986 H 290.122 3.01216 3.4938 0
M  V30 2987 H 288.365 2.8848 3.23978 0
M  V30 2988 H 289.036 2.62947 4.85348 0
M  V30 2989 H 291.512 0.869448 4.06915 0
M  V30 2990 H 290.388 0.708856 5.44304 0
M  V30 2991 H 290.649 -0.658467 4.37169 0
M  V30 2992 N 289.708 -1.40897 0.706093 0
M  V30 2993 C 291.119 -1.84023 0.315052 0
M  V30 2994 C 291.47 -1.5906 -1.14866 0
M  V30 2995 O 290.595 -1.06651 -1.88293 0
M  V30 2996 C 291.19 -3.34055 0.565038 0
M  V30 2997 C 289.749 -3.7571 0.227806 0
M  V30 2998 C 288.896 -2.64204 0.842122 0
M  V30 2999 H 291.847 -1.303 0.905963 0
M  V30 3000 H 291.868 -3.80107 -0.172843 0
M  V30 3001 H 291.38 -3.52192 1.63042 0
M  V30 3002 H 289.481 -3.63172 -0.832895 0
M  V30 3003 H 289.594 -4.74103 0.690174 0
M  V30 3004 H 287.958 -2.53255 0.270893 0
M  V30 3005 H 288.741 -2.85155 1.91158 0
M  V30 3006 N 291.186 -0.45159 -1.50991 0
M  V30 3007 C 292.597 0.00818571 -1.86698 0
M  V30 3008 C 292.948 1.40661 -1.3678 0
M  V30 3009 O 292.073 2.0391 -0.724546 0
M  V30 3010 C 292.668 0.0216303 -3.38793 0
M  V30 3011 C 291.227 0.425865 -3.73983 0
M  V30 3012 C 290.374 -0.372163 -2.74791 0
M  V30 3013 H 293.325 -0.666785 -1.44013 0
M  V30 3014 H 293.346 0.828078 -3.7138 0
M  V30 3015 H 292.858 -0.996288 -3.75094 0
M  V30 3016 H 290.959 1.44886 -3.43277 0
M  V30 3017 H 291.072 0.140761 -4.78893 0
M  V30 3018 H 289.436 0.171498 -2.54122 0
M  V30 3019 H 290.219 -1.38922 -3.13935 0
M  V30 3020 N 292.664 1.56529 -0.183458 0
M  V30 3021 C 293.912 1.96855 0.457452 0
M  V30 3022 C 294.233 1.07104 1.62953 0
M  V30 3023 O 293.503 0.139887 1.954 0
M  V30 3024 H 292.083 0.72693 0.171992 0
M  V30 3025 H 294.745 1.93056 -0.267476 0
M  V30 3026 H 293.841 3.01423 0.809368 0
M  V30 3027 N 294.142 -0.090211 1.57342 0
M  V30 3028 C 295.052 -1.12735 2.05738 0
M  V30 3029 C 296.068 -1.43557 0.983231 0
M  V30 3030 O 297.244 -1.54101 1.29672 0
M  V30 3031 C 294.309 -2.42659 2.47624 0
M  V30 3032 C 293.37 -2.18975 3.69254 0
M  V30 3033 C 292.603 -3.42704 4.09133 0
M  V30 3034 O 292.826 -4.51127 3.49057 0
M  V30 3035 O 291.76 -3.32003 5.02053 0
M  V30 3036 H 295.586 -0.746279 2.94388 0
M  V30 3037 H 293.171 -0.303064 1.46294 0
M  V30 3038 H 295.053 -3.19155 2.7517 0
M  V30 3039 H 293.728 -2.80182 1.62109 0
M  V30 3040 H 292.635 -1.40244 3.46818 0
M  V30 3041 H 293.968 -1.86342 4.55563 0
M  V30 3042 N 295.62 -1.53406 -0.361157 0
M  V30 3043 C 296.86 -1.71507 -1.11197 0
M  V30 3044 C 297.224 -0.459337 -1.86425 0
M  V30 3045 O 298.425 -0.517102 -2.63779 0
M  V30 3046 C 296.696 -2.93307 -2.0422 0
M  V30 3047 S 298.255 -3.32135 -2.86761 0
M  V30 3048 H 295.073 -0.603448 -0.375995 0
M  V30 3049 H 297.675 -1.91516 -0.392642 0
M  V30 3050 H 296.379 -3.82891 -1.47724 0
M  V30 3051 H 295.91 -2.75712 -2.80618 0
M  V30 3052 H 297.925 -2.84493 -4.06544 0
M  V30 3053 N 297.098 0.621204 -1.44841 0
M  V30 3054 C 298.061 1.71459 -1.521 0
M  V30 3055 C 299.061 1.55696 -0.401933 0
M  V30 3056 O 300.251 1.61011 -0.664925 0
M  V30 3057 C 297.383 3.10624 -1.40447 0
M  V30 3058 H 298.576 1.66394 -2.49506 0
M  V30 3059 H 296.129 0.835745 -1.3208 0
M  V30 3060 H 296.864 3.21277 -0.441737 0
M  V30 3061 H 296.649 3.23473 -2.21602 0
M  V30 3062 H 298.139 3.90293 -1.4853 0
M  V30 3063 N 298.576 1.31904 0.862503 0
M  V30 3064 C 299.822 1.22197 1.61851 0
M  V30 3065 C 300.155 -0.217641 1.92977 0
M  V30 3066 O 299.43 -1.15264 1.56666 0
M  V30 3067 C 299.713 2.07378 2.94391 0
M  V30 3068 C 299.566 3.59678 2.70096 0
M  V30 3069 C 300.885 1.92891 3.95577 0
M  V30 3070 H 298.004 0.445255 0.587296 0
M  V30 3071 H 300.646 1.6177 0.99651 0
M  V30 3072 H 298.796 1.73758 3.47477 0
M  V30 3073 H 300.468 4.03472 2.23625 0
M  V30 3074 H 298.711 3.82735 2.04197 0
M  V30 3075 H 299.382 4.14595 3.64438 0
M  V30 3076 H 301.858 2.22327 3.51724 0
M  V30 3077 H 300.734 2.54781 4.86187 0
M  V30 3078 H 300.995 0.894315 4.3296 0
M  V30 3079 N 300.054 -1.07777 1.14986 0
M  V30 3080 C 301.47 -1.32373 0.891596 0
M  V30 3081 C 301.67 -1.9609 -0.463788 0
M  V30 3082 O 300.726 -2.21801 -1.20667 0
M  V30 3083 C 302.039 -2.21905 2.02925 0
M  V30 3084 C 303.587 -2.35367 2.06329 0
M  V30 3085 C 304.062 -3.28245 3.19405 0
M  V30 3086 N 305.553 -3.35824 3.19024 0
M  V30 3087 C 306.288 -4.07739 4.03158 0
M  V30 3088 N 305.784 -4.82306 4.97346 0
M  V30 3089 N 307.577 -4.03635 3.91197 0
M  V30 3090 H 299.728 -0.648039 2.02273 0
M  V30 3091 H 301.991 -0.348149 0.881757 0
M  V30 3092 H 301.697 -1.82342 3.0074 0
M  V30 3093 H 301.571 -3.22407 1.95789 0
M  V30 3094 H 303.958 -2.74186 1.09116 0
M  V30 3095 H 304.039 -1.34585 2.17533 0
M  V30 3096 H 303.683 -2.90146 4.16867 0
M  V30 3097 H 303.613 -4.28971 3.05437 0
M  V30 3098 H 306.104 -2.8267 2.50811 0
M  V30 3099 H 306.417 -5.34661 5.57994 0
M  V30 3100 H 304.762 -4.81337 5.01338 0
M  V30 3101 H 307.953 -3.44491 3.16928 0
M  V30 3102 H 308.126 -4.59417 4.5699 0
M  V30 3103 N 301.532 -0.945985 -1.26051 0
M  V30 3104 C 302.462 -0.477172 -2.28572 0
M  V30 3105 C 303.443 0.472032 -1.63419 0
M  V30 3106 O 304.628 0.372853 -1.90587 0
M  V30 3107 C 301.758 0.253975 -3.4637 0
M  V30 3108 C 300.712 -0.609135 -4.23643 0
M  V30 3109 C 300.038 0.252252 -5.34105 0
M  V30 3110 C 301.338 -1.8829 -4.8718 0
M  V30 3111 H 303.032 -1.33402 -2.68038 0
M  V30 3112 H 300.578 -0.642904 -1.28852 0
M  V30 3113 H 302.531 0.593016 -4.17207 0
M  V30 3114 H 301.255 1.145 -3.05871 0
M  V30 3115 H 299.914 -0.931138 -3.54578 0
M  V30 3116 H 299.562 1.14278 -4.89846 0
M  V30 3117 H 299.262 -0.32188 -5.86718 0
M  V30 3118 H 300.786 0.586454 -6.07777 0
M  V30 3119 H 302.2 -1.61081 -5.50205 0
M  V30 3120 H 300.597 -2.40199 -5.49931 0
M  V30 3121 H 301.667 -2.59134 -4.09851 0
M  V30 3122 N 303.011 1.40521 -0.713556 0
M  V30 3123 C 304.257 2.01221 -0.252564 0
M  V30 3124 C 304.59 1.56444 1.1506 0
M  V30 3125 O 303.865 0.783597 1.78017 0
M  V30 3126 C 304.148 3.58582 -0.330332 0
M  V30 3127 C 304.001 4.13437 -1.77173 0
M  V30 3128 C 305.32 4.39079 0.299641 0
M  V30 3129 H 302.439 0.731077 -0.0932471 0
M  V30 3130 H 305.081 1.67026 -0.905673 0
M  V30 3131 H 303.231 3.87844 0.225737 0
M  V30 3132 H 304.903 3.9498 -2.38303 0
M  V30 3133 H 303.146 3.67801 -2.3001 0
M  V30 3134 H 303.817 5.22597 -1.77755 0
M  V30 3135 H 306.293 4.15735 -0.174139 0
M  V30 3136 H 305.169 5.4848 0.214771 0
M  V30 3137 H 305.43 4.19915 1.38288 0
M  V30 3138 N 304.489 0.459591 1.5075 0
M  V30 3139 C 305.436 -0.340524 2.28274 0
M  V30 3140 C 306.406 -0.997371 1.32822 0
M  V30 3141 O 307.591 -1.01202 1.61749 0
M  V30 3142 C 304.731 -1.42317 3.14388 0
M  V30 3143 C 303.844 -0.782251 4.24859 0
M  V30 3144 C 302.979 -1.84182 4.98247 0
M  V30 3145 C 302.018 -1.18053 6.00608 0
M  V30 3146 N 301.155 -2.18244 6.67319 0
M  V30 3147 H 305.995 0.326899 2.96202 0
M  V30 3148 H 303.532 0.173057 1.46078 0
M  V30 3149 H 305.49 -2.06241 3.62658 0
M  V30 3150 H 304.12 -2.05992 2.4853 0
M  V30 3151 H 303.172 -0.0307404 3.80388 0
M  V30 3152 H 304.484 -0.259663 4.98124 0
M  V30 3153 H 303.638 -2.55714 5.50177 0
M  V30 3154 H 302.377 -2.39819 4.24662 0
M  V30 3155 H 301.382 -0.450776 5.47949 0
M  V30 3156 H 302.607 -0.631202 6.7616 0
M  V30 3157 H 300.553 -2.72919 5.96533 0
M  V30 3158 H 300.47 -1.70938 7.36421 0
M  V30 3159 H 301.738 -2.89191 7.23871 0
M  V30 3160 N 305.967 -1.56429 0.191757 0
M  V30 3161 C 306.93 -2.17707 -0.716688 0
M  V30 3162 C 307.93 -1.13061 -1.14341 0
M  V30 3163 O 309.12 -1.38464 -1.05704 0
M  V30 3164 C 306.252 -2.77644 -1.97804 0
M  V30 3165 H 307.445 -2.99342 -0.1829 0
M  V30 3166 H 304.998 -1.56193 -0.0578566 0
M  V30 3167 H 305.733 -1.99799 -2.55443 0
M  V30 3168 H 305.518 -3.54246 -1.68083 0
M  V30 3169 H 307.008 -3.24708 -2.62592 0
M  V30 3170 N 307.445 0.0818655 -1.57387 0
M  V30 3171 C 308.693 0.781368 -1.86384 0
M  V30 3172 C 309.014 1.78618 -0.782342 0
M  V30 3173 O 308.284 1.94976 0.190061 0
M  V30 3174 H 306.864 0.291562 -0.687751 0
M  V30 3175 H 309.526 0.060348 -1.94807 0
M  V30 3176 H 308.622 1.3038 -2.83562 0
M  V30 3177 N 308.923 1.53595 0.353017 0
M  V30 3178 C 309.886 1.80232 1.41594 0
M  V30 3179 C 310.886 0.673081 1.46035 0
M  V30 3180 O 312.076 0.941335 1.46576 0
M  V30 3181 C 309.208 1.93578 2.80607 0
M  V30 3182 H 310.401 2.75174 1.19244 0
M  V30 3183 H 307.954 1.44864 0.586872 0
M  V30 3184 H 308.689 1.00746 3.08254 0
M  V30 3185 H 308.474 2.75724 2.78781 0
M  V30 3186 H 309.964 2.15735 3.57558 0
M  V30 3187 N 310.401 -0.613514 1.45168 0
M  V30 3188 C 311.626 -1.40437 1.52618 0
M  V30 3189 C 312.051 -1.87438 0.157707 0
M  V30 3190 O 311.409 -1.59791 -0.856537 0
M  V30 3191 C 311.457 -2.58894 2.51011 0
M  V30 3192 O 310.561 -3.59326 2.02382 0
M  V30 3193 H 309.902 -0.419506 0.514695 0
M  V30 3194 H 312.432 -0.747215 1.90467 0
M  V30 3195 H 312.442 -3.06214 2.69624 0
M  V30 3196 H 311.117 -2.24032 3.50403 0
M  V30 3197 H 309.694 -3.18695 1.93618 0
M  V30 3198 N 311.879 -1.3236 -0.855495 0
M  V30 3199 C 313.128 -1.22226 -1.60448 0
M  V30 3200 C 313.441 0.214733 -1.94418 0
M  V30 3201 O 314.647 0.437917 -2.67945 0
M  V30 3202 C 313.103 -2.14063 -2.89318 0
M  V30 3203 C 312.711 -3.62839 -2.62777 0
M  V30 3204 C 314.455 -2.12764 -3.67331 0
M  V30 3205 C 312.362 -4.4664 -3.87643 0
M  V30 3206 H 311.292 -0.453904 -0.602069 0
M  V30 3207 H 313.943 -1.57314 -0.944698 0
M  V30 3208 H 312.325 -1.71889 -3.5675 0
M  V30 3209 H 313.499 -4.1335 -2.03662 0
M  V30 3210 H 311.814 -3.66261 -1.98096 0
M  V30 3211 H 314.411 -2.72611 -4.59987 0
M  V30 3212 H 314.754 -1.11841 -4.00995 0
M  V30 3213 H 315.287 -2.53214 -3.06802 0
M  V30 3214 H 312.026 -5.48373 -3.5912 0
M  V30 3215 H 311.546 -4.0088 -4.46156 0
M  V30 3216 H 313.225 -4.59597 -4.55389 0
M  V30 3217 N 313.357 1.07166 -1.15556 0
M  V30 3218 C 314.606 1.79181 -0.926132 0
M  V30 3219 C 314.919 1.87768 0.547967 0
M  V30 3220 O 316.125 2.56323 0.895036 0
M  V30 3221 C 314.581 3.22 -1.60761 0
M  V30 3222 C 314.189 3.21607 -3.11886 0
M  V30 3223 C 315.933 3.9861 -1.4598 0
M  V30 3224 C 313.84 4.59092 -3.72812 0
M  V30 3225 H 312.77 0.67154 -0.342856 0
M  V30 3226 H 315.421 1.2027 -1.3859 0
M  V30 3227 H 313.803 3.81115 -1.07553 0
M  V30 3228 H 314.977 2.72127 -3.71865 0
M  V30 3229 H 313.292 2.58495 -3.2645 0
M  V30 3230 H 315.889 5.00225 -1.88888 0
M  V30 3231 H 316.232 4.143 -0.407541 0
M  V30 3232 H 316.765 3.45996 -1.96295 0
M  V30 3233 H 313.504 4.48606 -4.77946 0
M  V30 3234 H 313.024 5.08803 -3.17616 0
M  V30 3235 H 314.703 5.28059 -3.73848 0
M  V30 3236 N 314.835 0.952656 1.25548 0
M  V30 3237 C 316.083 0.605176 1.92826 0
M  V30 3238 C 316.404 -0.860261 1.74999 0
M  V30 3239 O 315.674 -1.6125 1.11244 0
M  V30 3240 H 314.254 0.220832 0.713612 0
M  V30 3241 H 316.916 1.21047 1.52754 0
M  V30 3242 H 316.012 0.832798 3.00784 0
M  V30 3243 N 316.313 -1.40141 0.720998 0
M  V30 3244 C 317.559 -2.01084 0.263231 0
M  V30 3245 C 317.892 -1.57052 -1.14229 0
M  V30 3246 O 317.167 -0.793027 -1.77599 0
M  V30 3247 C 317.45 -3.58401 0.349344 0
M  V30 3248 C 317.303 -4.12491 1.79363 0
M  V30 3249 C 318.622 -4.39231 -0.276351 0
M  V30 3250 H 315.741 -0.730572 0.0971228 0
M  V30 3251 H 318.383 -1.66543 0.914518 0
M  V30 3252 H 316.533 -3.87958 -0.205165 0
M  V30 3253 H 318.205 -3.93711 2.40394 0
M  V30 3254 H 316.448 -3.66576 2.31958 0
M  V30 3255 H 317.119 -5.21646 1.80524 0
M  V30 3256 H 319.595 -4.15637 0.196184 0
M  V30 3257 H 318.471 -5.48586 -0.185681 0
M  V30 3258 H 318.732 -4.20643 -1.36059 0
M  V30 3259 N 317.792 -0.46758 -1.50504 0
M  V30 3260 C 318.74 0.342482 -2.30065 0
M  V30 3261 C 319.734 0.993596 -1.37201 0
M  V30 3262 O 320.94 0.925102 -1.54408 0
M  V30 3263 H 317.315 0.129283 -0.740803 0
M  V30 3264 H 319.286 -0.34899 -2.96352 0
M  V30 3265 C 318.035 1.4139 -3.17654 0
M  V30 3266 H 317.358 0.922264 -3.89017 0
M  V30 3267 H 318.798 1.95335 -3.76325 0
M  V30 3268 C 317.257 2.4139 -2.35016 0
M  V30 3269 O 317.787 3.46586 -2.03079 0
M  V30 3270 N 315.993 2.13021 -1.97662 0
M  V30 3271 H 315.54 1.27499 -2.23834 0
M  V30 3272 H 315.498 2.80164 -1.42673 0
M  V30 3273 N 319.27 1.56325 -0.20005 0
M  V30 3274 C 320.51 1.99619 0.439519 0
M  V30 3275 C 320.874 1.08423 1.58456 0
M  V30 3276 O 322.075 1.40973 2.28867 0
M  V30 3277 C 320.346 3.46314 0.883258 0
M  V30 3278 S 321.905 4.11634 1.51997 0
M  V30 3279 H 318.723 0.697007 0.140363 0
M  V30 3280 H 321.325 1.93118 -0.304282 0
M  V30 3281 H 320.029 4.10381 0.0398967 0
M  V30 3282 H 319.56 3.56643 1.6604 0
M  V30 3283 H 321.575 4.09049 2.8088 0
M  V30 3284 N 320.748 -0.0735177 1.57428 0
M  V30 3285 C 321.698 -1.09442 2.00016 0
M  V30 3286 C 322.682 -1.34575 0.881947 0
M  V30 3287 O 323.874 -1.34905 1.14585 0
M  V30 3288 C 321.003 -2.40865 2.4462 0
M  V30 3289 C 320.089 -2.19014 3.63172 0
M  V30 3290 N 320.48 -1.67087 4.77405 0
M  V30 3291 C 318.778 -2.49494 3.69688 0
M  V30 3292 C 319.479 -1.6001 5.5926 0
M  V30 3293 N 318.455 -2.05999 5.03056 0
M  V30 3294 H 322.257 -0.686227 2.85776 0
M  V30 3295 H 319.771 -0.280617 1.59957 0
M  V30 3296 H 321.768 -3.14763 2.73368 0
M  V30 3297 H 320.428 -2.82403 1.60246 0
M  V30 3298 H 321.439 -1.35975 4.99731 0
M  V30 3299 H 318.116 -2.94409 2.96023 0
M  V30 3300 H 319.506 -1.2073 6.60964 0
M  V30 3301 N 322.226 -1.5378 -0.344866 0
M  V30 3302 C 323.473 -1.70963 -1.08526 0
M  V30 3303 C 323.801 -0.472126 -1.88683 0
M  V30 3304 O 323.056 0.546116 -1.87926 0
M  V30 3305 C 323.355 -2.92407 -2.05506 0
M  V30 3306 C 323.021 -4.28066 -1.41671 0
M  V30 3307 C 321.683 -4.64951 -1.2399 0
M  V30 3308 C 324.035 -5.12344 -0.956726 0
M  V30 3309 C 321.363 -5.83733 -0.589277 0
M  V30 3310 C 323.715 -6.3179 -0.320015 0
M  V30 3311 C 322.379 -6.67372 -0.130881 0
M  V30 3312 H 321.649 -0.625598 -0.397124 0
M  V30 3313 H 324.296 -1.87995 -0.36469 0
M  V30 3314 H 322.601 -2.69973 -2.8394 0
M  V30 3315 H 324.298 -3.02895 -2.62784 0
M  V30 3316 H 320.888 -3.99034 -1.56429 0
M  V30 3317 H 325.072 -4.8438 -1.08118 0
M  V30 3318 H 320.328 -6.09877 -0.431344 0
M  V30 3319 H 324.502 -6.96386 0.0445072 0
M  V30 3320 H 322.129 -7.59273 0.375318 0
M  V30 3321 N 323.704 0.605807 -1.45491 0
M  V30 3322 C 324.981 1.36522 -1.40075 0
M  V30 3323 C 325.361 2.10976 -0.0722744 0
M  V30 3324 O 324.709 2.08007 0.945808 0
M  V30 3325 C 324.919 2.31056 -2.61561 0
M  V30 3326 C 326.267 2.93608 -3.06724 0
M  V30 3327 O 327.291 2.41376 -2.61946 0
M  V30 3328 O 326.15 3.88421 -3.84437 0
M  V30 3329 H 323.244 0.612248 -0.555951 0
M  V30 3330 H 325.79 0.628747 -1.57623 0
M  V30 3331 H 324.562 1.75311 -3.49831 0
M  V30 3332 H 324.185 3.12081 -2.46356 0
M  V30 3333 N 325.182 1.32811 0.848464 0
M  V30 3334 C 326.593 1.21315 1.41914 0
M  V30 3335 C 326.944 -0.171847 1.95446 0
M  V30 3336 O 326.069 -1.07093 1.88043 0
M  V30 3337 C 326.664 2.19631 2.57968 0
M  V30 3338 C 325.223 2.12003 3.11017 0
M  V30 3339 C 324.37 2.07651 1.83783 0
M  V30 3340 H 327.321 1.44549 0.655071 0
M  V30 3341 H 327.342 1.79845 3.35315 0
M  V30 3342 H 326.854 3.20423 2.18976 0
M  V30 3343 H 324.955 1.14481 3.54577 0
M  V30 3344 H 325.068 3.02111 3.71841 0
M  V30 3345 H 323.432 1.52983 2.03638 0
M  V30 3346 H 324.215 3.10235 1.47 0
M  V30 3347 N 326.66 -1.06551 1.16123 0
M  V30 3348 C 327.888 -1.83005 0.965237 0
M  V30 3349 C 328.303 -1.82423 -0.486542 0
M  V30 3350 O 327.66 -1.24152 -1.33763 0
M  V30 3351 C 327.711 -3.29733 1.48183 0
M  V30 3352 O 327.432 -3.30416 2.87674 0
M  V30 3353 C 328.933 -4.22926 1.32848 0
M  V30 3354 H 326.153 -0.577118 0.342309 0
M  V30 3355 H 328.697 -1.3445 1.54089 0
M  V30 3356 H 326.852 -3.75609 0.948517 0
M  V30 3357 H 327.266 -4.22149 3.11272 0
M  V30 3358 H 328.74 -5.23916 1.73827 0
M  V30 3359 H 329.217 -4.38346 0.273692 0
M  V30 3360 H 329.823 -3.82894 1.85127 0
M  V30 3361 N 328.138 -0.959301 -1.25041 0
M  V30 3362 C 329.387 -0.612254 -1.92183 0
M  V30 3363 C 329.7 0.855347 -1.75907 0
M  V30 3364 O 330.906 1.31256 -2.37664 0
M  V30 3365 C 329.362 -1.04435 -3.44414 0
M  V30 3366 C 328.97 -2.53482 -3.69393 0
M  V30 3367 C 330.714 -0.770055 -4.17457 0
M  V30 3368 C 328.621 -2.90468 -5.15153 0
M  V30 3369 H 327.551 -0.225279 -0.719559 0
M  V30 3370 H 330.202 -1.16438 -1.41825 0
M  V30 3371 H 328.584 -0.4206 -3.9376 0
M  V30 3372 H 329.758 -3.20916 -3.30681 0
M  V30 3373 H 328.073 -2.78432 -3.0962 0
M  V30 3374 H 330.67 -1.02249 -5.24832 0
M  V30 3375 H 331.013 0.293611 -4.15263 0
M  V30 3376 H 331.546 -1.35437 -3.74034 0
M  V30 3377 H 328.285 -3.95871 -5.22462 0
M  V30 3378 H 327.805 -2.27711 -5.54894 0
M  V30 3379 H 329.484 -2.79914 -5.83315 0
M  V30 3380 N 329.616 1.39756 -0.72842 0
M  V30 3381 C 330.841 2.05472 -0.282159 0
M  V30 3382 C 331.266 1.54549 1.07221 0
M  V30 3383 O 330.624 0.686372 1.67805 0
M  V30 3384 C 330.672 3.59462 -0.286264 0
M  V30 3385 O 329.776 4.05918 0.728298 0
M  V30 3386 H 329.117 0.651226 -0.129618 0
M  V30 3387 H 331.647 1.78915 -0.992499 0
M  V30 3388 H 331.657 4.07798 -0.128373 0
M  V30 3389 H 330.332 3.95889 -1.27456 0
M  V30 3390 H 328.909 3.69012 0.537081 0
M  V30 3391 N 331.094 0.475555 1.50254 0
M  V30 3392 C 332.024 -0.30611 2.31485 0
M  V30 3393 C 333.005 -0.986228 1.38591 0
M  V30 3394 O 334.19 -0.982541 1.67511 0
M  V30 3395 C 331.32 -1.38588 3.1845 0
M  V30 3396 C 330.274 -0.827115 4.19932 0
M  V30 3397 C 329.6 -2.00551 4.95665 0
M  V30 3398 C 330.9 0.16463 5.2204 0
M  V30 3399 H 332.594 0.371866 2.97082 0
M  V30 3400 H 330.14 0.180282 1.42867 0
M  V30 3401 H 332.093 -1.94023 3.74076 0
M  V30 3402 H 330.817 -2.09269 2.50747 0
M  V30 3403 H 329.476 -0.294702 3.65414 0
M  V30 3404 H 329.124 -2.6994 4.2443 0
M  V30 3405 H 328.824 -1.63784 5.64313 0
M  V30 3406 H 330.348 -2.56468 5.54127 0
M  V30 3407 H 331.762 -0.300699 5.72511 0
M  V30 3408 H 330.159 0.446813 5.98434 0
M  V30 3409 H 331.229 1.08905 4.72512 0
M  V30 3410 N 332.573 -1.56217 0.208337 0
M  V30 3411 C 333.52 -2.19699 -0.707192 0
M  V30 3412 C 334.49 -1.14836 -1.20008 0
M  V30 3413 O 335.675 -1.4314 -1.26157 0
M  V30 3414 C 332.815 -2.87061 -1.91546 0
M  V30 3415 C 331.928 -4.06483 -1.46271 0
M  V30 3416 C 331.063 -4.61665 -2.62752 0
M  V30 3417 C 330.102 -5.73417 -2.14147 0
M  V30 3418 N 329.239 -6.22948 -3.23853 0
M  V30 3419 H 334.079 -2.97575 -0.159111 0
M  V30 3420 H 331.616 -1.46948 -0.0667874 0
M  V30 3421 H 333.574 -3.24294 -2.62468 0
M  V30 3422 H 332.204 -2.11725 -2.43664 0
M  V30 3423 H 331.256 -3.74825 -0.648886 0
M  V30 3424 H 332.568 -4.87271 -1.06622 0
M  V30 3425 H 331.722 -5.01272 -3.41776 0
M  V30 3426 H 330.461 -3.80013 -3.05682 0
M  V30 3427 H 329.466 -5.33326 -1.33581 0
M  V30 3428 H 330.691 -6.56897 -1.72232 0
M  V30 3429 H 328.637 -5.44213 -3.6629 0
M  V30 3430 H 328.554 -6.98823 -2.88414 0
M  V30 3431 H 329.822 -6.6721 -4.03052 0
M  V30 3432 N 334.051 0.0651679 -1.57465 0
M  V30 3433 C 335.279 0.775808 -1.91804 0
M  V30 3434 C 335.694 1.70782 -0.804916 0
M  V30 3435 O 335.051 1.81153 0.221311 0
M  V30 3436 C 335.102 1.56381 -3.25925 0
M  V30 3437 O 334.823 0.669248 -4.32958 0
M  V30 3438 C 336.324 2.37485 -3.7432 0
M  V30 3439 H 333.544 0.2202 -0.63384 0
M  V30 3440 H 336.088 0.0334587 -2.04473 0
M  V30 3441 H 334.243 2.25837 -3.14764 0
M  V30 3442 H 334.657 1.21801 -5.10162 0
M  V30 3443 H 336.131 2.88223 -4.70778 0
M  V30 3444 H 336.608 3.17307 -3.03666 0
M  V30 3445 H 337.214 1.73173 -3.88447 0
M  V30 3446 N 335.529 1.53961 0.336706 0
M  V30 3447 C 336.775 1.7179 1.07777 0
M  V30 3448 C 337.108 0.483263 1.88091 0
M  V30 3449 O 336.383 -0.519747 1.87427 0
M  V30 3450 C 336.666 2.98558 2.01334 0
M  V30 3451 C 336.519 4.32245 1.24437 0
M  V30 3452 C 337.838 3.21023 3.01052 0
M  V30 3453 H 334.957 0.625089 0.390426 0
M  V30 3454 H 337.599 1.86641 0.35567 0
M  V30 3455 H 335.749 2.86028 2.62908 0
M  V30 3456 H 337.421 4.56637 0.654243 0
M  V30 3457 H 335.664 4.30344 0.546458 0
M  V30 3458 H 336.335 5.17137 1.93063 0
M  V30 3459 H 338.811 3.32929 2.49595 0
M  V30 3460 H 337.687 4.11104 3.6371 0
M  V30 3461 H 337.948 2.37637 3.72802 0
M  V30 3462 N 337.007 -0.598083 1.45811 0
M  V30 3463 C 337.954 -1.7082 1.55207 0
M  V30 3464 C 338.924 -1.61278 0.39732 0
M  V30 3465 O 340.109 -1.80717 0.612038 0
M  V30 3466 C 337.249 -3.09144 1.53376 0
M  V30 3467 C 336.362 -3.29423 2.79472 0
M  V30 3468 C 335.497 -4.57907 2.69248 0
M  V30 3469 C 334.536 -4.71476 3.90354 0
M  V30 3470 N 333.673 -5.9127 3.78608 0
M  V30 3471 H 338.513 -1.62125 2.50039 0
M  V30 3472 H 336.05 -0.790389 1.24062 0
M  V30 3473 H 338.008 -3.89186 1.50301 0
M  V30 3474 H 336.638 -3.16773 0.620876 0
M  V30 3475 H 335.69 -2.43091 2.92594 0
M  V30 3476 H 337.002 -3.3532 3.69272 0
M  V30 3477 H 336.156 -5.46157 2.64192 0
M  V30 3478 H 334.895 -4.54423 1.77063 0
M  V30 3479 H 333.9 -3.81648 3.95759 0
M  V30 3480 H 335.125 -4.76751 4.83617 0
M  V30 3481 H 333.071 -5.88813 2.89199 0
M  V30 3482 H 332.988 -5.98369 4.6205 0
M  V30 3483 H 334.256 -6.81992 3.77501 0
M  V30 3484 N 338.485 -1.33259 -0.841409 0
M  V30 3485 C 339.415 -1.25926 -1.96634 0
M  V30 3486 C 340.396 -0.140349 -1.6952 0
M  V30 3487 O 341.581 -0.329707 -1.91381 0
M  V30 3488 C 338.711 -0.99512 -3.32738 0
M  V30 3489 C 337.665 -2.0767 -3.74242 0
M  V30 3490 C 336.991 -1.66474 -5.08125 0
M  V30 3491 C 338.291 -3.49318 -3.88297 0
M  V30 3492 H 339.985 -2.20046 -2.03027 0
M  V30 3493 H 337.531 -1.05931 -0.975425 0
M  V30 3494 H 339.484 -0.930323 -4.11002 0
M  V30 3495 H 338.208 -0.0183004 -3.26595 0
M  V30 3496 H 336.867 -2.13187 -2.98239 0
M  V30 3497 H 336.515 -0.675012 -4.9845 0
M  V30 3498 H 336.215 -2.3885 -5.36865 0
M  V30 3499 H 337.739 -1.61455 -5.88867 0
M  V30 3500 H 339.153 -3.46316 -4.56879 0
M  V30 3501 H 337.55 -4.20158 -4.28471 0
M  V30 3502 H 338.62 -3.8801 -2.9082 0
M  V30 3503 N 339.963 1.05934 -1.16686 0
M  V30 3504 C 340.896 2.1295 -0.820225 0
M  V30 3505 C 341.874 1.61242 0.209722 0
M  V30 3506 O 343.058 1.88271 0.0929688 0
M  V30 3507 C 340.185 3.3797 -0.22223 0
M  V30 3508 C 339.231 4.08488 -1.22637 0
M  V30 3509 S 340.064 4.58015 -2.77457 0
M  V30 3510 C 341.22 5.86292 -2.19117 0
M  V30 3511 H 341.453 2.42025 -1.72659 0
M  V30 3512 H 338.986 1.18423 -0.990722 0
M  V30 3513 H 340.944 4.10335 0.116322 0
M  V30 3514 H 339.605 3.07045 0.66196 0
M  V30 3515 H 338.798 4.98291 -0.756455 0
M  V30 3516 H 338.4 3.42154 -1.51019 0
M  V30 3517 H 340.692 6.59246 -1.56209 0
M  V30 3518 H 341.635 6.38019 -3.07144 0
M  V30 3519 H 342.043 5.40497 -1.62858 0
M  V30 3520 N 341.441 0.965919 1.2453 0
M  V30 3521 C 342.388 0.49402 2.25451 0
M  V30 3522 C 343.358 -0.45948 1.59618 0
M  V30 3523 O 344.543 -0.370238 1.87173 0
M  V30 3524 C 341.683 -0.211359 3.44452 0
M  V30 3525 C 340.796 0.7807 4.24887 0
M  V30 3526 C 339.931 0.0516105 5.31175 0
M  V30 3527 C 338.97 1.03385 6.03306 0
M  V30 3528 N 338.107 0.334887 7.01301 0
M  V30 3529 H 342.947 1.35946 2.65184 0
M  V30 3530 H 340.484 0.681515 1.3036 0
M  V30 3531 H 342.442 -0.637 4.12308 0
M  V30 3532 H 341.072 -1.04077 3.05562 0
M  V30 3533 H 340.124 1.32479 3.56586 0
M  V30 3534 H 341.436 1.52978 4.74762 0
M  V30 3535 H 340.59 -0.432114 6.05159 0
M  V30 3536 H 339.329 -0.730179 4.82203 0
M  V30 3537 H 338.334 1.52847 5.28127 0
M  V30 3538 H 339.559 1.81606 6.54367 0
M  V30 3539 H 337.505 -0.427959 6.54603 0
M  V30 3540 H 337.422 1.02287 7.49048 0
M  V30 3541 H 338.69 -0.126928 7.79397 0
M  V30 3542 N 342.919 -1.39368 0.735821 0
M  V30 3543 C 343.829 -2.34395 0.0979693 0
M  V30 3544 C 344.845 -1.58361 -0.720968 0
M  V30 3545 O 346.021 -1.90648 -0.649245 0
M  V30 3546 C 343.086 -3.37393 -0.797916 0
M  V30 3547 C 342.147 -4.29287 0.0333662 0
M  V30 3548 C 341.38 -5.27365 -0.819854 0
M  V30 3549 O 341.603 -5.31959 -2.05855 0
M  V30 3550 O 340.537 -6.01389 -0.248079 0
M  V30 3551 H 344.363 -2.90601 0.882315 0
M  V30 3552 H 341.948 -1.40909 0.4965 0
M  V30 3553 H 343.83 -4.00505 -1.31048 0
M  V30 3554 H 342.505 -2.83571 -1.56106 0
M  V30 3555 H 341.412 -3.69395 0.591475 0
M  V30 3556 H 342.745 -4.86317 0.758752 0
M  V30 3557 N 344.397 -0.483516 -1.5 0
M  V30 3558 C 345.645 0.067027 -2.01989 0
M  V30 3559 C 345.966 1.3909 -1.36671 0
M  V30 3560 O 345.236 1.88978 -0.516152 0
M  V30 3561 H 343.816 0.0277606 -0.746484 0
M  V30 3562 H 346.478 -0.636773 -1.84204 0
M  V30 3563 H 345.574 0.209484 -3.11396 0
M  V30 3564 N 345.875 1.56104 -0.216619 0
M  V30 3565 C 346.805 2.23063 0.690296 0
M  V30 3566 C 347.786 1.20072 1.20485 0
M  V30 3567 O 348.971 1.48643 1.24976 0
M  V30 3568 C 346.101 2.90672 1.90072 0
M  V30 3569 C 345.055 4.00092 1.5202 0
M  V30 3570 C 344.381 4.54972 2.80899 0
M  V30 3571 C 345.681 5.17398 0.71391 0
M  V30 3572 H 347.375 2.99109 0.132038 0
M  V30 3573 H 344.921 1.43866 0.0620664 0
M  V30 3574 H 346.874 3.36204 2.54057 0
M  V30 3575 H 345.598 2.12066 2.48386 0
M  V30 3576 H 344.257 3.55283 0.903839 0
M  V30 3577 H 343.905 3.73102 3.37348 0
M  V30 3578 H 343.605 5.28817 2.56176 0
M  V30 3579 H 345.129 5.0322 3.45836 0
M  V30 3580 H 346.543 5.59342 1.25735 0
M  V30 3581 H 344.94 5.97444 0.563951 0
M  V30 3582 H 346.01 4.84088 -0.280527 0
M  V30 3583 N 347.353 -0.0568162 1.57498 0
M  V30 3584 C 348.263 -1.08346 2.08083 0
M  V30 3585 C 349.279 -1.41439 1.01346 0
M  V30 3586 O 350.455 -1.51316 1.32912 0
M  V30 3587 C 347.52 -2.37352 2.52715 0
M  V30 3588 C 346.581 -2.11093 3.73816 0
M  V30 3589 C 345.814 -3.33949 4.1631 0
M  V30 3590 O 346.037 -4.43622 3.58547 0
M  V30 3591 O 344.971 -3.21279 5.08983 0
M  V30 3592 H 348.797 -0.683667 2.95905 0
M  V30 3593 H 346.382 -0.271965 1.46904 0
M  V30 3594 H 348.264 -3.13246 2.81877 0
M  V30 3595 H 346.939 -2.76681 1.68016 0
M  V30 3596 H 345.846 -1.32856 3.49714 0
M  V30 3597 H 347.179 -1.76637 4.59413 0
M  V30 3598 N 348.832 -1.54138 -0.328536 0
M  V30 3599 C 349.795 -1.82462 -1.38709 0
M  V30 3600 C 350.795 -0.696229 -1.44946 0
M  V30 3601 O 351.985 -0.964535 -1.4506 0
M  V30 3602 C 349.117 -1.98018 -2.77492 0
M  V30 3603 H 350.31 -2.77037 -1.14851 0
M  V30 3604 H 347.863 -1.45779 -0.563751 0
M  V30 3605 H 348.598 -1.05637 -3.06613 0
M  V30 3606 H 348.383 -2.80124 -2.74359 0
M  V30 3607 H 349.873 -2.21396 -3.54081 0
M  V30 3608 N 350.31 0.590341 -1.46126 0
M  V30 3609 C 351.273 1.68194 -1.55703 0
M  V30 3610 C 352.273 1.54808 -0.434868 0
M  V30 3611 O 353.463 1.59564 -0.698928 0
M  V30 3612 C 350.595 3.07575 -1.47005 0
M  V30 3613 H 351.788 1.61064 -2.52979 0
M  V30 3614 H 349.341 0.807541 -1.33823 0
M  V30 3615 H 350.076 3.20268 -0.509785 0
M  V30 3616 H 349.861 3.187 -2.28414 0
M  V30 3617 H 351.351 3.87055 -1.56776 0
M  V30 3618 N 351.788 1.33704 0.83433 0
M  V30 3619 C 353.204 1.13137 1.12571 0
M  V30 3620 C 353.404 -0.0747261 2.01361 0
M  V30 3621 O 352.46 -0.753647 2.4099 0
M  V30 3622 C 353.773 2.42105 1.78342 0
M  V30 3623 C 355.321 2.48054 1.90888 0
M  V30 3624 C 355.796 3.76995 2.60075 0
M  V30 3625 N 357.287 3.78092 2.67584 0
M  V30 3626 C 358.022 4.74574 3.21818 0
M  V30 3627 N 357.518 5.81434 3.76705 0
M  V30 3628 N 359.311 4.62044 3.20112 0
M  V30 3629 H 351.462 2.11 0.243489 0
M  V30 3630 H 353.725 0.932532 0.17055 0
M  V30 3631 H 353.431 3.30391 1.20561 0
M  V30 3632 H 353.305 2.54594 2.7832 0
M  V30 3633 H 355.692 1.60215 2.47821 0
M  V30 3634 H 355.773 2.39502 0.898459 0
M  V30 3635 H 355.417 4.65219 2.03799 0
M  V30 3636 H 355.347 3.82825 3.61597 0
M  V30 3637 H 357.838 3.00865 2.28667 0
M  V30 3638 H 358.151 6.51084 4.16305 0
M  V30 3639 H 356.496 5.85163 3.7498 0
M  V30 3640 H 359.687 3.77716 2.76493 0
M  V30 3641 H 359.86 5.37406 3.62076 0
M  V30 3642 N 353.266 -1.05314 1.17247 0
M  V30 3643 C 354.196 -2.1498 0.911362 0
M  V30 3644 C 355.177 -1.69471 -0.146169 0
M  V30 3645 O 356.362 -1.942 0.003812 0
M  V30 3646 C 353.492 -3.4472 0.422528 0
M  V30 3647 C 352.446 -4.03789 1.4191 0
M  V30 3648 C 351.772 -5.28858 0.788274 0
M  V30 3649 C 353.072 -4.41418 2.7919 0
M  V30 3650 H 354.766 -2.3708 1.82848 0
M  V30 3651 H 352.312 -1.13938 0.880569 0
M  V30 3652 H 354.265 -4.20787 0.227289 0
M  V30 3653 H 352.989 -3.22269 -0.530123 0
M  V30 3654 H 351.648 -3.2979 1.60106 0
M  V30 3655 H 351.296 -5.02709 -0.171173 0
M  V30 3656 H 350.996 -5.69338 1.45353 0
M  V30 3657 H 352.52 -6.07612 0.603282 0
M  V30 3658 H 353.934 -5.08524 2.64719 0
M  V30 3659 H 352.331 -4.92913 3.42282 0
M  V30 3660 H 353.401 -3.51819 3.33693 0
M  V30 3661 N 354.744 -0.972509 -1.24016 0
M  V30 3662 C 355.691 -0.505969 -2.25186 0
M  V30 3663 C 356.661 0.451009 -1.5986 0
M  V30 3664 O 357.846 0.360307 -1.87367 0
M  V30 3665 C 354.986 0.193089 -3.44559 0
M  V30 3666 C 354.099 -0.803222 -4.24467 0
M  V30 3667 C 353.234 -0.0797793 -5.3114 0
M  V30 3668 C 352.273 -1.06583 -6.02749 0
M  V30 3669 N 351.41 -0.372074 -7.01113 0
M  V30 3670 H 356.25 -1.37351 -2.64459 0
M  V30 3671 H 353.787 -0.688419 -1.29997 0
M  V30 3672 H 355.745 0.615125 -4.1264 0
M  V30 3673 H 354.375 1.02455 -3.06109 0
M  V30 3674 H 353.427 -1.34368 -3.55878 0
M  V30 3675 H 354.739 -1.55494 -4.73944 0
M  V30 3676 H 353.893 0.400015 -6.0538 0
M  V30 3677 H 352.632 0.704597 -4.82583 0
M  V30 3678 H 351.637 -1.55645 -5.27309 0
M  V30 3679 H 352.862 -1.85074 -6.53395 0
M  V30 3680 H 350.808 0.393238 -6.5482 0
M  V30 3681 H 350.725 -1.06258 -7.48495 0
M  V30 3682 H 351.993 0.0855932 -7.79453 0
M  V30 3683 N 356.222 1.38976 -0.743202 0
M  V30 3684 C 357.185 2.28901 -0.117014 0
M  V30 3685 C 358.185 1.46698 0.658503 0
M  V30 3686 O 359.375 1.67274 0.486305 0
M  V30 3687 C 356.507 3.30309 0.84315 0
M  V30 3688 H 357.7 2.8578 -0.909373 0
M  V30 3689 H 355.253 1.47761 -0.509547 0
M  V30 3690 H 355.988 2.785 1.66157 0
M  V30 3691 H 355.773 3.91029 0.289594 0
M  V30 3692 H 357.263 3.97577 1.2776 0
M  V30 3693 N 357.7 0.491464 1.49741 0
M  V30 3694 C 358.65 -0.311086 2.25868 0
M  V30 3695 C 359.634 -0.943857 1.30308 0
M  V30 3696 O 360.826 -0.853035 1.55088 0
M  V30 3697 C 357.955 -1.38059 3.14316 0
M  V30 3698 C 357.041 -0.754541 4.17334 0
M  V30 3699 N 357.432 0.137216 5.05614 0
M  V30 3700 C 355.73 -1.01621 4.34269 0
M  V30 3701 C 356.431 0.494614 5.79593 0
M  V30 3702 N 355.407 -0.135169 5.43432 0
M  V30 3703 H 359.209 0.37555 2.91491 0
M  V30 3704 H 356.723 0.306917 1.59473 0
M  V30 3705 H 358.72 -1.96891 3.67477 0
M  V30 3706 H 357.38 -2.06901 2.50244 0
M  V30 3707 H 358.391 0.50741 5.15408 0
M  V30 3708 H 355.068 -1.69808 3.81407 0
M  V30 3709 H 356.458 1.2236 6.60665 0
M  V30 3710 N 359.178 -1.55987 0.224894 0
M  V30 3711 C 360.108 -2.23426 -0.678457 0
M  V30 3712 C 361.089 -1.20709 -1.19847 0
M  V30 3713 O 362.274 -1.49304 -1.24186 0
M  V30 3714 C 359.404 -2.91676 -1.88527 0
M  V30 3715 C 358.358 -4.00893 -1.49896 0
M  V30 3716 C 357.684 -4.56455 -2.78483 0
M  V30 3717 C 358.984 -5.17769 -0.686461 0
M  V30 3718 H 360.678 -2.99175 -0.116173 0
M  V30 3719 H 358.224 -1.43897 -0.054436 0
M  V30 3720 H 360.177 -3.37547 -2.5227 0
M  V30 3721 H 358.901 -2.1338 -2.47258 0
M  V30 3722 H 357.56 -3.55758 -0.884985 0
M  V30 3723 H 357.208 -3.74886 -3.35365 0
M  V30 3724 H 356.908 -5.30169 -2.53368 0
M  V30 3725 H 358.432 -5.05047 -3.43162 0
M  V30 3726 H 359.846 -5.60001 -1.22767 0
M  V30 3727 H 358.243 -5.97735 -0.532259 0
M  V30 3728 H 359.313 -4.83932 0.306196 0
M  V30 3729 N 360.656 0.0484629 -1.57525 0
M  V30 3730 C 361.589 1.08755 -2.00618 0
M  V30 3731 C 362.567 1.36272 -0.887058 0
M  V30 3732 O 363.751 1.49255 -1.15131 0
M  V30 3733 C 360.878 2.42675 -2.36277 0
M  V30 3734 C 359.924 2.31142 -3.58435 0
M  V30 3735 S 360.757 1.68326 -5.08357 0
M  V30 3736 C 361.913 3.03776 -5.47239 0
M  V30 3737 H 362.146 0.720415 -2.88439 0
M  V30 3738 H 359.679 0.257801 -1.52233 0
M  V30 3739 H 361.637 3.19699 -2.57494 0
M  V30 3740 H 360.298 2.76541 -1.48942 0
M  V30 3741 H 359.491 3.29957 -3.80978 0
M  V30 3742 H 359.093 1.62258 -3.36969 0
M  V30 3743 H 361.385 4.00106 -5.46737 0
M  V30 3744 H 362.328 2.85988 -6.47778 0
M  V30 3745 H 362.736 3.05456 -4.74718 0
M  V30 3746 N 362.134 1.5431 0.320358 0
M  V30 3747 C 363.359 1.76954 1.08175 0
M  V30 3748 C 363.784 0.518193 1.80821 0
M  V30 3749 O 363.142 -0.530411 1.73368 0
M  V30 3750 C 363.19 2.96451 2.05303 0
M  V30 3751 O 362.294 2.68221 3.13259 0
M  V30 3752 H 361.635 0.586275 0.311733 0
M  V30 3753 H 364.165 2.01342 0.363676 0
M  V30 3754 H 364.175 3.23887 2.48116 0
M  V30 3755 H 362.85 3.87196 1.51829 0
M  V30 3756 H 361.427 2.51744 2.75099 0
M  V30 3757 N 363.613 -0.582584 1.46437 0
M  V30 3758 C 364.545 -1.70618 1.53043 0
M  V30 3759 C 365.558 -1.57322 0.418769 0
M  V30 3760 O 366.747 -1.64744 0.687136 0
M  V30 3761 C 363.847 -3.08869 1.39474 0
M  V30 3762 C 363.02 -3.48166 2.64762 0
M  V30 3763 C 362.079 -4.65478 2.4539 0
M  V30 3764 O 361.105 -4.71333 3.19114 0
M  V30 3765 N 362.307 -5.60365 1.51564 0
M  V30 3766 H 365.072 -1.65405 2.49923 0
M  V30 3767 H 362.633 -0.768567 1.42494 0
M  V30 3768 H 364.625 -3.85143 1.24287 0
M  V30 3769 H 363.195 -3.08449 0.507758 0
M  V30 3770 H 362.415 -2.61598 2.9489 0
M  V30 3771 H 363.703 -3.71188 3.4799 0
M  V30 3772 H 363.101 -5.5837 0.907705 0
M  V30 3773 H 361.658 -6.36068 1.4234 0
M  V30 3774 N 365.091 -1.34144 -0.827227 0
M  V30 3775 C 366.502 -1.23557 -1.39966 0
M  V30 3776 C 366.853 0.140731 -1.95695 0
M  V30 3777 O 365.978 1.04087 -1.89723 0
M  V30 3778 C 366.573 -2.23708 -2.54441 0
M  V30 3779 C 365.132 -2.16924 -3.07605 0
M  V30 3780 C 364.279 -2.10549 -1.80456 0
M  V30 3781 H 367.23 -1.45573 -0.631991 0
M  V30 3782 H 367.251 -1.85157 -3.32411 0
M  V30 3783 H 366.763 -3.23866 -2.13851 0
M  V30 3784 H 364.864 -1.20107 -3.52711 0
M  V30 3785 H 364.977 -3.07988 -3.66988 0
M  V30 3786 H 363.341 -1.56203 -2.01178 0
M  V30 3787 H 364.124 -3.12535 -1.42046 0
M  V30 3788 N 366.569 1.04691 -1.17803 0
M  V30 3789 C 367.499 2.14494 -0.92275 0
M  V30 3790 C 368.48 1.69546 0.137179 0
M  V30 3791 O 369.665 1.94195 -0.0141108 0
M  V30 3792 C 366.795 3.44491 -0.440803 0
M  V30 3793 C 365.749 4.03031 -1.4405 0
M  V30 3794 C 365.075 5.28432 -0.81631 0
M  V30 3795 C 366.375 4.39932 -2.81527 0
M  V30 3796 H 368.069 2.36107 -1.84103 0
M  V30 3797 H 365.615 1.1347 -0.886599 0
M  V30 3798 H 367.568 4.2066 -0.249602 0
M  V30 3799 H 366.292 3.22546 0.513025 0
M  V30 3800 H 364.951 3.28937 -1.61853 0
M  V30 3801 H 364.599 5.02792 0.144511 0
M  V30 3802 H 364.299 5.68559 -1.48371 0
M  V30 3803 H 365.823 6.07284 -0.635496 0
M  V30 3804 H 367.237 5.07113 -2.67412 0
M  V30 3805 H 365.634 4.9109 -3.44892 0
M  V30 3806 H 366.704 3.50045 -3.35554 0
M  V30 3807 N 368.047 0.979072 1.23499 0
M  V30 3808 C 369.01 0.523244 2.23147 0
M  V30 3809 C 370.01 -0.386406 1.56088 0
M  V30 3810 O 371.2 -0.180283 1.73265 0
M  V30 3811 C 368.332 -0.240739 3.40049 0
M  V30 3812 H 369.525 1.40432 2.64989 0
M  V30 3813 H 367.078 0.764824 1.36309 0
M  V30 3814 H 367.813 -1.13841 3.03662 0
M  V30 3815 H 367.598 0.412207 3.89927 0
M  V30 3816 H 369.088 -0.548297 4.13985 0
M  V30 3817 N 369.525 -1.3858 0.750561 0
M  V30 3818 C 370.755 -2.04175 0.31564 0
M  V30 3819 C 371.163 -1.56726 -1.05989 0
M  V30 3820 O 370.506 -0.734225 -1.68389 0
M  V30 3821 C 370.568 -3.58585 0.256389 0
M  V30 3822 C 370.232 -4.29077 1.57296 0
M  V30 3823 C 371.229 -4.54656 2.52159 0
M  V30 3824 C 368.914 -4.67324 1.84156 0
M  V30 3825 C 370.908 -5.17512 3.72103 0
M  V30 3826 C 368.595 -5.29905 3.04374 0
M  V30 3827 C 369.593 -5.54933 3.98168 0
M  V30 3828 O 369.281 -6.16212 5.16273 0
M  V30 3829 H 369.013 -0.662742 0.133226 0
M  V30 3830 H 371.567 -1.78313 1.01948 0
M  V30 3831 H 369.797 -3.83406 -0.503677 0
M  V30 3832 H 371.486 -4.05628 -0.148612 0
M  V30 3833 H 372.252 -4.25539 2.32683 0
M  V30 3834 H 368.131 -4.47191 1.11988 0
M  V30 3835 H 371.675 -5.36963 4.45327 0
M  V30 3836 H 367.572 -5.58444 3.23745 0
M  V30 3837 H 368.34 -6.34701 5.16815 0
M  V30 3838 N 371.003 -0.499398 -1.49478 0
M  V30 3839 C 371.953 0.299103 -2.2603 0
M  V30 3840 C 372.937 0.936934 -1.30807 0
M  V30 3841 O 374.129 0.844798 -1.55538 0
M  V30 3842 C 371.258 1.36391 -3.15044 0
M  V30 3843 C 370.344 0.732398 -4.17728 0
M  V30 3844 N 370.735 -0.164028 -5.05534 0
M  V30 3845 C 369.033 0.993162 -4.34801 0
M  V30 3846 C 369.734 -0.525345 -5.79323 0
M  V30 3847 N 368.71 0.106348 -5.43496 0
M  V30 3848 H 372.512 -0.391003 -2.91287 0
M  V30 3849 H 370.026 -0.31537 -1.59308 0
M  V30 3850 H 372.023 1.94939 -3.68516 0
M  V30 3851 H 370.683 2.05571 -2.51338 0
M  V30 3852 H 371.694 -0.534736 -5.15132 0
M  V30 3853 H 368.371 1.67783 -3.82302 0
M  V30 3854 H 369.761 -1.25862 -6.60006 0
M  V30 3855 N 372.481 1.55866 -0.233164 0
M  V30 3856 C 373.709 2.02998 0.399905 0
M  V30 3857 C 374.124 1.11274 1.52524 0
M  V30 3858 O 373.481 0.124528 1.82075 0
M  V30 3859 C 373.532 3.4958 0.920639 0
M  V30 3860 O 373.253 4.37808 -0.159834 0
M  V30 3861 C 374.754 4.12411 1.62578 0
M  V30 3862 H 371.974 0.664006 0.0966281 0
M  V30 3863 H 374.518 2.0143 -0.353013 0
M  V30 3864 H 372.673 3.51727 1.62379 0
M  V30 3865 H 373.087 5.23981 0.23337 0
M  V30 3866 H 374.561 5.16711 1.94201 0
M  V30 3867 H 375.038 3.5809 2.54299 0
M  V30 3868 H 375.644 4.14148 0.967553 0
M  V30 3869 N 373.959 -0.0401083 1.57549 0
M  V30 3870 C 375.37 -0.588097 1.77196 0
M  V30 3871 C 375.721 -1.76209 0.862832 0
M  V30 3872 O 374.846 -2.16331 0.0548389 0
M  V30 3873 C 375.441 -1.07363 3.21339 0
M  V30 3874 C 374 -1.56723 3.42221 0
M  V30 3875 C 373.147 -0.50041 2.72747 0
M  V30 3876 H 376.098 0.186119 1.57605 0
M  V30 3877 H 376.119 -1.94143 3.27244 0
M  V30 3878 H 375.631 -0.218975 3.87482 0
M  V30 3879 H 373.732 -2.4441 2.81237 0
M  V30 3880 H 373.845 -1.62234 4.50796 0
M  V30 3881 H 372.209 -0.952894 2.36203 0
M  V30 3882 H 372.992 0.344599 3.41566 0
M  V30 3883 N 375.437 -1.54477 -0.31217 0
M  V30 3884 C 376.714 -1.63891 -1.06767 0
M  V30 3885 C 377.094 -0.480028 -2.0557 0
M  V30 3886 O 376.442 0.524487 -2.22399 0
M  V30 3887 C 376.652 -3.01402 -1.75948 0
M  V30 3888 C 378 -3.57838 -2.28554 0
M  V30 3889 O 379.024 -3.03782 -1.85998 0
M  V30 3890 O 377.883 -4.52462 -3.06497 0
M  V30 3891 H 374.977 -0.664125 -0.492816 0
M  V30 3892 H 377.523 -1.66823 -0.311149 0
M  V30 3893 H 376.295 -3.77187 -1.04144 0
M  V30 3894 H 375.918 -3.02199 -2.58383 0
M  V30 3895 N 376.915 0.57481 -1.46744 0
M  V30 3896 C 378.155 1.34369 -1.54027 0
M  V30 3897 C 378.519 1.91051 -0.190642 0
M  V30 3898 O 379.72 2.68444 -0.138255 0
M  V30 3899 C 377.991 2.43706 -2.61423 0
M  V30 3900 S 379.55 3.30915 -2.88167 0
M  V30 3901 H 376.368 0.45768 -0.544105 0
M  V30 3902 H 378.97 0.659959 -1.84024 0
M  V30 3903 H 377.674 2.0047 -3.58106 0
M  V30 3904 H 377.205 3.16842 -2.33184 0
M  V30 3905 H 379.22 4.42742 -2.24039 0
M  V30 3906 N 378.394 1.34581 0.820102 0
M  V30 3907 C 379.342 1.26401 1.95258 0
M  V30 3908 C 380.336 0.161553 1.68628 0
M  V30 3909 O 381.542 0.326703 1.7701 0
M  V30 3910 H 377.917 0.392749 0.64129 0
M  V30 3911 H 379.888 2.22105 1.99279 0
M  V30 3912 C 378.637 1.03919 3.31807 0
M  V30 3913 H 377.96 1.87984 3.52848 0
M  V30 3914 H 379.4 1.02232 4.11491 0
M  V30 3915 C 377.859 -0.257433 3.35915 0
M  V30 3916 O 378.389 -1.25784 3.81499 0
M  V30 3917 N 376.595 -0.291524 2.89134 0
M  V30 3918 H 376.142 0.523161 2.52232 0
M  V30 3919 H 376.1 -1.15883 2.92264 0
M  V30 3920 N 379.872 -1.04064 1.18357 0
M  V30 3921 C 380.819 -2.12077 0.910603 0
M  V30 3922 C 381.789 -1.65421 -0.15 0
M  V30 3923 O 382.974 -1.90797 -0.0103614 0
M  V30 3924 C 380.114 -3.42252 0.442472 0
M  V30 3925 C 379.227 -4.0252 1.5685 0
M  V30 3926 C 378.362 -5.20657 1.05309 0
M  V30 3927 C 377.401 -5.72955 2.1538 0
M  V30 3928 N 376.538 -6.8238 1.65233 0
M  V30 3929 H 381.378 -2.34764 1.83548 0
M  V30 3930 H 378.915 -1.15157 0.915279 0
M  V30 3931 H 380.873 -4.16921 0.152534 0
M  V30 3932 H 379.503 -3.19712 -0.445428 0
M  V30 3933 H 378.555 -3.25178 1.97391 0
M  V30 3934 H 379.867 -4.37362 2.39824 0
M  V30 3935 H 379.021 -6.0244 0.717677 0
M  V30 3936 H 377.76 -4.87318 0.19293 0
M  V30 3937 H 376.765 -4.89793 2.49766 0
M  V30 3938 H 377.99 -6.08337 3.01832 0
M  V30 3939 H 375.936 -6.50917 0.815064 0
M  V30 3940 H 375.853 -7.16286 2.41805 0
M  V30 3941 H 377.121 -7.67788 1.34619 0
M  V30 3942 N 381.35 -0.985608 -1.22978 0
M  V30 3943 C 382.282 -0.488154 -2.23941 0
M  V30 3944 C 383.295 0.41282 -1.57479 0
M  V30 3945 O 384.484 0.216121 -1.77187 0
M  V30 3946 C 381.584 0.312611 -3.37455 0
M  V30 3947 C 380.757 -0.582741 -4.33501 0
M  V30 3948 C 379.816 0.165064 -5.25941 0
M  V30 3949 O 378.842 -0.447077 -5.67442 0
M  V30 3950 N 380.044 1.44953 -5.62111 0
M  V30 3951 H 382.809 -1.3563 -2.67254 0
M  V30 3952 H 380.37 -0.859477 -1.37203 0
M  V30 3953 H 382.362 0.821357 -3.96277 0
M  V30 3954 H 380.932 1.0818 -2.93285 0
M  V30 3955 H 380.152 -1.27225 -3.73105 0
M  V30 3956 H 381.44 -1.19275 -4.94622 0
M  V30 3957 H 380.838 1.9683 -5.30353 0
M  V30 3958 H 379.395 1.90361 -6.23383 0
M  V30 3959 N 382.828 1.3818 -0.7579 0
M  V30 3960 C 384.076 1.99624 -0.315361 0
M  V30 3961 C 384.397 1.60464 1.10799 0
M  V30 3962 O 383.667 0.863507 1.75842 0
M  V30 3963 H 382.247 0.73831 -0.113611 0
M  V30 3964 H 384.909 1.68878 -0.972952 0
M  V30 3965 H 384.005 3.09754 -0.381931 0
M  V30 3966 N 384.306 0.507319 1.49211 0
M  V30 3967 C 385.553 -0.0349529 2.0247 0
M  V30 3968 C 385.881 -1.36409 1.38647 0
M  V30 3969 O 385.136 -1.88841 0.513566 0
M  V30 3970 C 385.435 -0.229513 3.56662 0
M  V30 3971 C 385.101 1.02241 4.39156 0
M  V30 3972 C 383.763 1.36557 4.61417 0
M  V30 3973 C 386.115 1.85428 4.871 0
M  V30 3974 C 383.443 2.53999 5.28868 0
M  V30 3975 C 385.795 3.02028 5.55843 0
M  V30 3976 C 384.459 3.36717 5.76349 0
M  V30 3977 H 383.729 -0.0127902 0.74089 0
M  V30 3978 H 386.376 0.668756 1.79443 0
M  V30 3979 H 384.681 -1.0158 3.78403 0
M  V30 3980 H 386.378 -0.663641 3.9547 0
M  V30 3981 H 382.968 0.745124 4.22073 0
M  V30 3982 H 387.152 1.6023 4.69723 0
M  V30 3983 H 382.408 2.81105 5.42946 0
M  V30 3984 H 386.582 3.66808 5.91967 0
M  V30 3985 H 384.209 4.27821 6.28389 0
M  V30 3986 N 385.784 -1.5574 0.241426 0
M  V30 3987 C 387.033 -1.97986 -0.385295 0
M  V30 3988 C 387.346 -1.13267 -1.59468 0
M  V30 3989 O 388.552 -1.45501 -2.2922 0
M  V30 3990 C 387.008 -3.52275 -0.736884 0
M  V30 3991 C 386.616 -4.45726 0.450796 0
M  V30 3992 C 388.36 -4.03189 -1.3281 0
M  V30 3993 C 386.267 -5.91352 0.0756662 0
M  V30 3994 H 385.197 -0.739386 -0.147731 0
M  V30 3995 H 387.848 -1.80308 0.340779 0
M  V30 3996 H 386.23 -3.65628 -1.52094 0
M  V30 3997 H 387.404 -4.44131 1.22819 0
M  V30 3998 H 385.719 -4.05264 0.956573 0
M  V30 3999 H 388.316 -5.09505 -1.62201 0
M  V30 4000 H 388.659 -3.50212 -2.25071 0
M  V30 4001 H 389.192 -3.93141 -0.607069 0
M  V30 4002 H 385.931 -6.48354 0.965272 0
M  V30 4003 H 385.451 -5.96095 -0.665635 0
M  V30 4004 H 387.13 -6.46084 -0.344075 0
M  V30 4005 N 387.262 0.0317525 -1.57568 0
M  V30 4006 C 388.539 0.758366 -1.803 0
M  V30 4007 C 388.919 1.93718 -0.838845 0
M  V30 4008 O 388.267 2.28187 0.119571 0
M  V30 4009 C 388.477 1.19392 -3.27943 0
M  V30 4010 C 389.825 1.61094 -3.92854 0
M  V30 4011 O 390.849 1.28857 -3.32076 0
M  V30 4012 O 389.708 2.20918 -4.99858 0
M  V30 4013 H 386.802 0.366514 -0.741348 0
M  V30 4014 H 389.348 0.00873765 -1.69698 0
M  V30 4015 H 388.12 0.352275 -3.89711 0
M  V30 4016 H 387.743 2.00365 -3.43424 0
M  V30 4017 N 388.74 1.54641 0.303973 0
M  V30 4018 C 389.67 1.88386 1.3796 0
M  V30 4019 C 390.651 0.742485 1.5304 0
M  V30 4020 O 391.836 0.997959 1.66597 0
M  V30 4021 C 388.966 2.12854 2.74427 0
M  V30 4022 C 387.92 3.28702 2.74115 0
M  V30 4023 C 387.246 3.38582 4.13844 0
M  V30 4024 C 388.546 4.65881 2.3612 0
M  V30 4025 H 390.24 2.78474 1.09966 0
M  V30 4026 H 387.786 1.33988 0.527556 0
M  V30 4027 H 389.739 2.35047 3.49758 0
M  V30 4028 H 388.463 1.19535 3.03939 0
M  V30 4029 H 387.122 3.06428 2.0124 0
M  V30 4030 H 386.77 2.42784 4.40528 0
M  V30 4031 H 386.47 4.16453 4.14537 0
M  V30 4032 H 387.994 3.63031 4.90959 0
M  V30 4033 H 389.408 4.87823 3.01167 0
M  V30 4034 H 387.805 5.46444 2.48031 0
M  V30 4035 H 388.875 4.66799 1.3125 0
M  V30 4036 N 390.218 -0.567019 1.47046 0
M  V30 4037 C 391.629 -1.14916 1.47143 0
M  V30 4038 C 391.98 -1.94954 0.220767 0
M  V30 4039 O 391.105 -2.05602 -0.67505 0
M  V30 4040 C 391.7 -2.09069 2.666 0
M  V30 4041 C 390.259 -2.62575 2.69687 0
M  V30 4042 C 389.406 -1.38755 2.40088 0
M  V30 4043 H 392.357 -0.354126 1.54699 0
M  V30 4044 H 392.378 -2.92789 2.43011 0
M  V30 4045 H 391.89 -1.50789 3.57609 0
M  V30 4046 H 389.991 -3.24681 1.82792 0
M  V30 4047 H 390.104 -3.04239 3.70102 0
M  V30 4048 H 388.468 -1.69098 1.90468 0
M  V30 4049 H 389.251 -0.822822 3.33293 0
M  V30 4050 N 391.696 -1.35014 -0.812953 0
M  V30 4051 C 392.606 -1.2951 -1.95613 0
M  V30 4052 C 393.622 -0.20107 -1.72834 0
M  V30 4053 O 394.798 -0.42932 -1.96771 0
M  V30 4054 C 391.863 -1.06033 -3.30088 0
M  V30 4055 C 390.924 -2.24688 -3.65805 0
M  V30 4056 C 390.157 -2.02322 -4.93864 0
M  V30 4057 O 390.38 -0.986464 -5.61805 0
M  V30 4058 O 389.314 -2.89525 -5.27692 0
M  V30 4059 H 393.14 -2.25705 -2.03202 0
M  V30 4060 H 390.725 -1.15321 -0.949811 0
M  V30 4061 H 392.607 -0.94763 -4.10607 0
M  V30 4062 H 391.282 -0.128852 -3.23443 0
M  V30 4063 H 390.189 -2.41521 -2.85689 0
M  V30 4064 H 391.522 -3.16261 -3.77147 0
M  V30 4065 N 393.175 1.03435 -1.18907 0
M  V30 4066 C 394.422 1.76743 -0.988334 0
M  V30 4067 C 394.75 1.88447 0.481441 0
M  V30 4068 O 394.005 1.39383 1.37371 0
M  V30 4069 C 394.304 3.19792 -1.59586 0
M  V30 4070 C 393.97 3.28108 -3.09283 0
M  V30 4071 C 392.632 3.30084 -3.5014 0
M  V30 4072 C 394.984 3.27696 -4.05296 0
M  V30 4073 C 392.312 3.29299 -4.85571 0
M  V30 4074 C 394.664 3.28451 -5.4065 0
M  V30 4075 C 393.328 3.28723 -5.80946 0
M  V30 4076 H 392.598 0.64675 -0.361657 0
M  V30 4077 H 395.245 1.21442 -1.48068 0
M  V30 4078 H 393.55 3.78136 -1.02568 0
M  V30 4079 H 395.247 3.75171 -1.41589 0
M  V30 4080 H 391.837 3.27294 -2.76725 0
M  V30 4081 H 396.021 3.25354 -3.74778 0
M  V30 4082 H 391.277 3.2783 -5.16079 0
M  V30 4083 H 395.451 3.27082 -6.14809 0
M  V30 4084 H 393.078 3.27868 -6.85862 0
M  V30 4085 N 394.653 0.992116 1.22453 0
M  V30 4086 C 396.064 0.702776 1.72968 0
M  V30 4087 C 396.415 -0.780399 1.80012 0
M  V30 4088 O 395.54 -1.61007 1.44589 0
M  V30 4089 C 396.135 1.26903 3.14135 0
M  V30 4090 C 394.694 1.02909 3.62059 0
M  V30 4091 C 393.841 1.38969 2.39964 0
M  V30 4092 H 396.792 1.16457 1.07812 0
M  V30 4093 H 396.813 0.647223 3.74955 0
M  V30 4094 H 396.325 2.34851 3.08977 0
M  V30 4095 H 394.426 -0.0337979 3.72585 0
M  V30 4096 H 394.539 1.69191 4.48231 0
M  V30 4097 H 392.903 0.808279 2.41535 0
M  V30 4098 H 393.686 2.4792 2.37467 0
M  V30 4099 N 396.131 -1.37776 0.765217 0
M  V30 4100 C 397.378 -1.99849 0.326588 0
M  V30 4101 C 397.706 -1.60746 -1.09504 0
M  V30 4102 O 396.961 -0.84202 -1.76659 0
M  V30 4103 C 397.26 -3.5504 0.410053 0
M  V30 4104 C 396.926 -4.13891 1.78899 0
M  V30 4105 C 395.588 -4.29678 2.16635 0
M  V30 4106 C 397.94 -4.46236 2.69301 0
M  V30 4107 C 395.268 -4.7511 3.44221 0
M  V30 4108 C 397.62 -4.93089 3.9629 0
M  V30 4109 C 396.284 -5.07082 4.34078 0
M  V30 4110 H 395.554 -0.7313 0.119507 0
M  V30 4111 H 398.201 -1.64645 0.977968 0
M  V30 4112 H 396.506 -3.90451 -0.324878 0
M  V30 4113 H 398.203 -4.00966 0.0520699 0
M  V30 4114 H 394.793 -4.02026 1.48569 0
M  V30 4115 H 398.977 -4.3363 2.41409 0
M  V30 4116 H 394.233 -4.84129 3.73402 0
M  V30 4117 H 398.407 -5.17084 4.66472 0
M  V30 4118 H 396.034 -5.42046 5.33001 0
M  V30 4119 N 397.609 -0.515225 -1.4894 0
M  V30 4120 C 398.857 0.0241671 -2.02086 0
M  V30 4121 C 399.178 1.3616 -1.3959 0
M  V30 4122 O 398.448 1.87841 -0.556121 0
M  V30 4123 H 397.028 0.0119203 -0.746905 0
M  V30 4124 H 399.69 -0.675702 -1.82812 0
M  V30 4125 H 398.786 0.143385 -3.1177 0
M  V30 4126 N 399.087 1.5561 -0.249682 0
M  V30 4127 C 400.017 2.24477 0.642826 0
M  V30 4128 C 400.998 1.22601 1.17911 0
M  V30 4129 O 402.183 1.5126 1.21795 0
M  V30 4130 C 399.313 2.94638 1.83863 0
M  V30 4131 C 398.267 4.03227 1.435 0
M  V30 4132 C 397.593 4.60828 2.71186 0
M  V30 4133 C 398.893 5.18796 0.604002 0
M  V30 4134 H 400.587 2.99321 0.0685625 0
M  V30 4135 H 398.133 1.43965 0.0315363 0
M  V30 4136 H 400.086 3.41517 2.46868 0
M  V30 4137 H 398.81 2.17287 2.43832 0
M  V30 4138 H 397.469 3.57121 0.828275 0
M  V30 4139 H 397.117 3.80174 3.29358 0
M  V30 4140 H 396.817 5.34132 2.44901 0
M  V30 4141 H 398.341 5.10442 3.35084 0
M  V30 4142 H 399.755 5.61883 1.13842 0
M  V30 4143 H 398.152 5.98506 0.437097 0
M  V30 4144 H 399.222 4.83384 -0.383147 0
M  V30 4145 N 400.565 -0.0233959 1.57583 0
M  V30 4146 C 401.475 -1.03907 2.10334 0
M  V30 4147 C 402.491 -1.39257 1.04323 0
M  V30 4148 O 403.667 -1.48462 1.36091 0
M  V30 4149 C 400.732 -2.31938 2.57693 0
M  V30 4150 C 399.793 -2.03117 3.78209 0
M  V30 4151 C 399.026 -3.25043 4.233 0
M  V30 4152 O 399.249 -4.35916 3.67876 0
M  V30 4153 O 398.183 -3.10411 5.15683 0
M  V30 4154 H 402.009 -0.620748 2.97288 0
M  V30 4155 H 399.594 -0.240743 1.47448 0
M  V30 4156 H 401.476 -3.07196 2.88458 0
M  V30 4157 H 400.151 -2.73055 1.73847 0
M  V30 4158 H 399.058 -1.25408 3.52454 0
M  V30 4159 H 400.391 -1.66852 4.63056 0
M  V30 4160 N 402.043 -1.548 -0.295768 0
M  V30 4161 C 403.454 -1.65274 -0.868411 0
M  V30 4162 C 403.805 -0.56481 -1.87894 0
M  V30 4163 O 402.93 0.29767 -2.14343 0
M  V30 4164 C 403.525 -2.99603 -1.58188 0
M  V30 4165 C 402.084 -3.12181 -2.10286 0
M  V30 4166 C 401.231 -2.6098 -0.93727 0
M  V30 4167 H 404.182 -1.58534 -0.0726422 0
M  V30 4168 H 404.203 -2.91319 -2.44772 0
M  V30 4169 H 403.715 -3.78764 -0.846151 0
M  V30 4170 H 401.816 -2.3775 -2.8689 0
M  V30 4171 H 401.929 -4.18415 -2.33379 0
M  V30 4172 H 400.293 -2.17564 -1.32431 0
M  V30 4173 H 401.076 -3.42623 -0.215414 0
M  V30 4174 N 403.521 0.559213 -1.47345 0
M  V30 4175 C 404.937 0.884943 -1.32819 0
M  V30 4176 C 405.137 1.98988 -0.317173 0
M  V30 4177 O 404.193 2.51031 0.272011 0
M  V30 4178 C 405.506 1.28007 -2.72093 0
M  V30 4179 C 407.054 1.39161 -2.80363 0
M  V30 4180 C 407.529 1.82031 -4.20272 0
M  V30 4181 N 409.02 1.89185 -4.22804 0
M  V30 4182 C 409.755 2.2368 -5.27973 0
M  V30 4183 N 409.251 2.56802 -6.43447 0
M  V30 4184 N 411.044 2.24436 -5.15349 0
M  V30 4185 H 403.195 -0.170304 -2.11716 0
M  V30 4186 H 405.458 -0.0135247 -0.947904 0
M  V30 4187 H 405.164 0.542027 -3.47498 0
M  V30 4188 H 405.038 2.23665 -3.03733 0
M  V30 4189 H 407.425 2.12048 -2.05231 0
M  V30 4190 H 407.506 0.41696 -2.52379 0
M  V30 4191 H 407.15 1.09715 -4.95908 0
M  V30 4192 H 407.08 2.80495 -4.45679 0
M  V30 4193 H 409.571 1.65982 -3.39497 0
M  V30 4194 H 409.884 2.82144 -7.19454 0
M  V30 4195 H 408.229 2.54387 -6.46771 0
M  V30 4196 H 411.42 1.97998 -4.24163 0
M  V30 4197 H 411.593 2.50989 -5.97418 0
M  V30 4198 N 404.999 1.35443 0.805782 0
M  V30 4199 C 406.245 1.28952 1.56522 0
M  V30 4200 C 406.578 -0.135597 1.93726 0
M  V30 4201 O 405.853 -1.08516 1.61414 0
M  V30 4202 C 406.136 2.19678 2.85331 0
M  V30 4203 C 405.989 3.7081 2.54598 0
M  V30 4204 C 407.308 2.09495 3.8704 0
M  V30 4205 H 404.427 0.469764 0.567883 0
M  V30 4206 H 407.069 1.65851 0.927001 0
M  V30 4207 H 405.219 1.8834 3.39795 0
M  V30 4208 H 406.891 4.12593 2.06312 0
M  V30 4209 H 405.134 3.91051 1.8778 0
M  V30 4210 H 405.805 4.29679 3.46525 0
M  V30 4211 H 408.281 2.37045 3.41978 0
M  V30 4212 H 407.157 2.75173 4.74943 0
M  V30 4213 H 407.418 1.07714 4.28777 0
M  V30 4214 N 406.477 -1.02803 1.19454 0
M  V30 4215 C 407.44 -2.09264 0.934955 0
M  V30 4216 C 408.44 -1.60576 -0.0849015 0
M  V30 4217 O 409.63 -1.73554 0.149933 0
M  V30 4218 C 406.762 -3.38482 0.40531 0
M  V30 4219 H 407.955 -2.33726 1.87916 0
M  V30 4220 H 405.508 -1.19426 1.00832 0
M  V30 4221 H 406.243 -3.19689 -0.544899 0
M  V30 4222 H 406.028 -3.75142 1.14065 0
M  V30 4223 H 407.518 -4.16894 0.242806 0
M  V30 4224 N 407.956 -0.998596 -1.21925 0
M  V30 4225 C 409.184 -0.696286 -1.94832 0
M  V30 4226 C 409.599 0.740032 -1.73692 0
M  V30 4227 O 408.956 1.5 -1.03953 0
M  V30 4228 C 409.007 -0.999833 -3.47398 0
M  V30 4229 O 408.728 -2.37972 -3.67833 0
M  V30 4230 C 410.229 -0.716025 -4.37479 0
M  V30 4231 H 407.449 -0.257111 -0.619786 0
M  V30 4232 H 409.993 -1.33491 -1.54921 0
M  V30 4233 H 408.148 -0.406918 -3.85257 0
M  V30 4234 H 408.562 -2.48338 -4.61983 0
M  V30 4235 H 410.036 -0.978642 -5.43256 0
M  V30 4236 H 410.513 0.349968 -4.37803 0
M  V30 4237 H 411.119 -1.29025 -4.05256 0
M  V30 4238 N 409.434 1.37368 -0.772513 0
M  V30 4239 C 410.85 1.53059 -0.452231 0
M  V30 4240 C 411.05 1.73065 1.03203 0
M  V30 4241 O 410.106 1.75245 1.81784 0
M  V30 4242 C 411.419 2.72659 -1.26797 0
M  V30 4243 C 412.967 2.86521 -1.25995 0
M  V30 4244 C 413.442 4.09105 -2.05905 0
M  V30 4245 N 414.933 4.16219 -2.03263 0
M  V30 4246 C 415.668 5.10107 -2.61875 0
M  V30 4247 N 415.164 6.09547 -3.29278 0
M  V30 4248 N 416.957 5.02596 -2.51701 0
M  V30 4249 H 409.108 1.22634 -1.7342 0
M  V30 4250 H 411.371 0.597206 -0.736239 0
M  V30 4251 H 411.077 2.64343 -2.31982 0
M  V30 4252 H 410.951 3.66363 -0.897672 0
M  V30 4253 H 413.338 2.94308 -0.216081 0
M  V30 4254 H 413.419 1.93774 -1.66989 0
M  V30 4255 H 413.063 4.0208 -3.10313 0
M  V30 4256 H 412.993 5.00968 -1.62292 0
M  V30 4257 H 415.484 3.45012 -1.54192 0
M  V30 4258 H 415.797 6.77718 -3.71374 0
M  V30 4259 H 414.142 6.09824 -3.33377 0
M  V30 4260 H 417.333 4.23855 -1.98657 0
M  V30 4261 H 417.506 5.75582 -2.97673 0
M  V30 4262 N 410.912 0.523116 1.48665 0
M  V30 4263 C 412.158 -0.00540031 2.03399 0
M  V30 4264 C 412.513 -1.3264 1.39372 0
M  V30 4265 O 411.806 -1.84184 0.527916 0
M  V30 4266 C 412 -0.191671 3.56886 0
M  V30 4267 C 411.829 1.10972 4.35793 0
M  V30 4268 C 410.599 1.66769 4.76987 0
M  V30 4269 C 412.797 2.01861 4.73029 0
M  V30 4270 N 410.779 2.91268 5.40404 0
M  V30 4271 C 412.15 3.10937 5.36394 0
M  V30 4272 C 414.205 2.02271 4.54962 0
M  V30 4273 C 412.908 4.20478 5.83601 0
M  V30 4274 C 414.934 3.10802 5.03146 0
M  V30 4275 C 414.296 4.18597 5.6653 0
M  V30 4276 H 410.395 0.0393531 0.781009 0
M  V30 4277 H 412.979 0.702876 1.8157 0
M  V30 4278 H 411.15 -0.869025 3.78553 0
M  V30 4279 H 412.882 -0.719177 3.98259 0
M  V30 4280 H 409.637 1.20996 4.57883 0
M  V30 4281 H 410.061 3.54635 5.76683 0
M  V30 4282 H 414.703 1.2023 4.05345 0
M  V30 4283 H 412.421 5.03303 6.32228 0
M  V30 4284 H 416.007 3.12166 4.90962 0
M  V30 4285 H 414.887 5.01193 6.03138 0
M  V30 4286 N 412.39 -1.55475 0.257931 0
M  V30 4287 C 413.667 -1.91155 -0.414629 0
M  V30 4288 C 414.047 -1.18008 -1.75035 0
M  V30 4289 O 413.395 -0.301193 -2.26506 0
M  V30 4290 C 413.605 -3.44283 -0.571859 0
M  V30 4291 C 414.953 -4.15744 -0.862678 0
M  V30 4292 O 415.977 -3.50083 -0.657314 0
M  V30 4293 O 414.836 -5.31909 -1.2544 0
M  V30 4294 H 411.93 -0.796016 -0.22425 0
M  V30 4295 H 414.476 -1.66976 0.302814 0
M  V30 4296 H 413.248 -3.89558 0.368844 0
M  V30 4297 H 412.871 -3.7436 -1.33943 0
M  V30 4298 N 413.868 0.0150385 -1.57593 0
M  V30 4299 C 415.117 0.702115 -1.89085 0
M  V30 4300 C 415.43 1.75764 -0.858277 0
M  V30 4301 O 416.636 2.49829 -1.0629 0
M  V30 4302 C 415.092 1.29992 -3.35604 0
M  V30 4303 C 414.7 0.280007 -4.47124 0
M  V30 4304 C 416.444 1.96606 -3.76227 0
M  V30 4305 C 414.351 0.886949 -5.84711 0
M  V30 4306 H 413.281 0.265997 -0.705522 0
M  V30 4307 H 415.932 -0.0430408 -1.8345 0
M  V30 4308 H 414.314 2.09525 -3.36029 0
M  V30 4309 H 415.488 -0.489631 -4.58191 0
M  V30 4310 H 413.803 -0.284835 -4.15425 0
M  V30 4311 H 416.4 2.42893 -4.76347 0
M  V30 4312 H 416.743 2.79024 -3.08952 0
M  V30 4313 H 417.276 1.23828 -3.78036 0
M  V30 4314 H 414.015 0.101876 -6.55421 0
M  V30 4315 H 413.535 1.6261 -5.77337 0
M  V30 4316 H 415.214 1.39011 -6.3189 0
M  V30 4317 N 415.346 1.54954 0.287554 0
M  V30 4318 C 416.278 1.83224 1.37701 0
M  V30 4319 C 417.291 0.715898 1.46215 0
M  V30 4320 O 418.48 0.993565 1.48292 0
M  V30 4321 C 415.58 1.96723 2.75959 0
M  V30 4322 C 414.753 3.27253 2.90215 0
M  V30 4323 C 413.812 3.30998 4.09056 0
M  V30 4324 O 412.838 4.04457 4.00503 0
M  V30 4325 N 414.04 2.57353 5.20336 0
M  V30 4326 H 416.805 2.77254 1.138 0
M  V30 4327 H 414.366 1.54694 0.477652 0
M  V30 4328 H 416.358 1.96615 3.5373 0
M  V30 4329 H 414.928 1.09626 2.92747 0
M  V30 4330 H 414.148 3.40022 1.99447 0
M  V30 4331 H 415.436 4.13365 2.96659 0
M  V30 4332 H 414.834 1.97327 5.30169 0
M  V30 4333 H 413.391 2.62984 5.96391 0
M  V30 4334 N 416.824 -0.551391 1.4764 0
M  V30 4335 C 417.771 -1.65796 1.60563 0
M  V30 4336 C 418.741 -1.59932 0.448428 0
M  V30 4337 O 419.926 -1.78679 0.669222 0
M  V30 4338 C 417.066 -3.04108 1.63133 0
M  V30 4339 C 416.179 -3.20365 2.89811 0
M  V30 4340 C 415.314 -4.49109 2.8368 0
M  V30 4341 C 414.353 -4.58819 4.05156 0
M  V30 4342 N 413.49 -5.78926 3.97227 0
M  V30 4343 H 418.33 -1.54088 2.5507 0
M  V30 4344 H 415.867 -0.75052 1.26513 0
M  V30 4345 H 417.825 -3.84207 1.62606 0
M  V30 4346 H 416.455 -3.14637 0.721341 0
M  V30 4347 H 415.507 -2.33659 3.00179 0
M  V30 4348 H 416.819 -3.23402 3.79753 0
M  V30 4349 H 415.973 -5.37475 2.81434 0
M  V30 4350 H 414.712 -4.4856 1.91431 0
M  V30 4351 H 413.717 -3.68864 4.077 0
M  V30 4352 H 414.942 -4.61124 4.98539 0
M  V30 4353 H 412.888 -5.79314 3.07785 0
M  V30 4354 H 412.805 -5.83367 4.80853 0
M  V30 4355 H 414.073 -6.69637 3.99007 0
M  V30 4356 N 418.302 -1.35869 -0.798587 0
M  V30 4357 C 419.532 -1.32529 -1.58491 0
M  V30 4358 C 419.94 0.0975405 -1.88948 0
M  V30 4359 O 419.283 1.06224 -1.49874 0
M  V30 4360 C 419.345 -2.07247 -2.9375 0
M  V30 4361 C 419.009 -3.56391 -2.86068 0
M  V30 4362 C 420.006 -4.50824 -2.58947 0
M  V30 4363 C 417.691 -3.9915 -3.04933 0
M  V30 4364 C 419.685 -5.85993 -2.5078 0
M  V30 4365 C 417.372 -5.34413 -2.96389 0
M  V30 4366 C 418.37 -6.27646 -2.69349 0
M  V30 4367 O 418.058 -7.60426 -2.60782 0
M  V30 4368 H 417.79 -0.456529 -0.498556 0
M  V30 4369 H 420.344 -1.79425 -0.999799 0
M  V30 4370 H 418.574 -1.55001 -3.54276 0
M  V30 4371 H 420.263 -1.96883 -3.54954 0
M  V30 4372 H 421.029 -4.19104 -2.44084 0
M  V30 4373 H 416.908 -3.26961 -3.24989 0
M  V30 4374 H 420.452 -6.58735 -2.29595 0
M  V30 4375 H 416.349 -5.65743 -3.10813 0
M  V30 4376 H 417.117 -7.70444 -2.76331 0
M  V30 4377 N 419.78 1.02168 -1.19998 0
M  V30 4378 C 420.743 2.08765 -0.94604 0
M  V30 4379 C 421.743 1.60618 0.0763846 0
M  V30 4380 O 422.933 1.73472 -0.159135 0
M  V30 4381 C 420.065 3.38262 -0.423255 0
M  V30 4382 H 421.258 2.32726 -1.89153 0
M  V30 4383 H 418.811 1.1889 -1.01464 0
M  V30 4384 H 419.546 3.19974 0.527938 0
M  V30 4385 H 419.331 3.74532 -1.16053 0
M  V30 4386 H 420.821 4.16759 -0.264911 0
M  V30 4387 N 421.258 1.00505 1.21394 0
M  V30 4388 C 422.674 0.717873 1.42544 0
M  V30 4389 C 422.874 -0.706936 1.88692 0
M  V30 4390 O 421.93 -1.47627 2.04847 0
M  V30 4391 C 423.243 1.73377 2.45684 0
M  V30 4392 C 424.791 1.75059 2.59467 0
M  V30 4393 C 425.266 2.75545 3.6584 0
M  V30 4394 N 426.757 2.74213 3.73311 0
M  V30 4395 C 427.492 3.48626 4.55245 0
M  V30 4396 N 426.988 4.32678 5.41075 0
M  V30 4397 N 428.781 3.37276 4.49668 0
M  V30 4398 H 420.932 1.92506 0.897503 0
M  V30 4399 H 423.195 0.830919 0.456375 0
M  V30 4400 H 422.901 2.75395 2.18748 0
M  V30 4401 H 422.775 1.53647 3.44489 0
M  V30 4402 H 425.162 0.737337 2.8574 0
M  V30 4403 H 425.243 1.98861 1.60897 0
M  V30 4404 H 424.887 3.77028 3.40313 0
M  V30 4405 H 424.817 2.49009 4.64007 0
M  V30 4406 H 427.308 2.13234 3.11993 0
M  V30 4407 H 427.621 4.86253 6.00648 0
M  V30 4408 H 425.966 4.3676 5.40616 0
M  V30 4409 H 429.157 2.71043 3.81646 0
M  V30 4410 H 429.33 3.95524 5.13288 0
M  V30 4411 N 422.737 -1.36956 0.779787 0
M  V30 4412 C 423.647 -2.33965 0.172491 0
M  V30 4413 C 424.663 -1.60574 -0.670222 0
M  V30 4414 O 425.839 -1.92617 -0.588263 0
M  V30 4415 C 422.904 -3.39761 -0.690173 0
M  V30 4416 C 421.965 -4.28964 0.169924 0
M  V30 4417 C 421.198 -5.29707 -0.651662 0
M  V30 4418 O 421.421 -5.38238 -1.88827 0
M  V30 4419 O 420.355 -6.01873 -0.0566264 0
M  V30 4420 H 424.181 -2.87647 0.974321 0
M  V30 4421 H 421.766 -1.39258 0.541078 0
M  V30 4422 H 423.648 -4.04471 -1.1824 0
M  V30 4423 H 422.323 -2.88394 -1.47006 0
M  V30 4424 H 421.23 -3.67326 0.708696 0
M  V30 4425 H 422.563 -4.83656 0.913085 0
M  V30 4426 N 424.215 -0.530993 -1.48385 0
M  V30 4427 C 425.178 0.220497 -2.28137 0
M  V30 4428 C 426.178 0.866851 -1.35434 0
M  V30 4429 O 427.368 0.726746 -1.58316 0
M  V30 4430 C 424.5 1.31921 -3.1434 0
M  V30 4431 H 425.693 -0.479714 -2.96038 0
M  V30 4432 H 423.246 -0.286968 -1.53643 0
M  V30 4433 H 423.981 2.05264 -2.51072 0
M  V30 4434 H 423.766 0.86085 -3.82533 0
M  V30 4435 H 425.256 1.84776 -3.74497 0
M  V30 4436 N 425.693 1.55336 -0.266172 0
M  V30 4437 C 426.923 2.03506 0.356239 0
M  V30 4438 C 427.331 1.14426 1.50676 0
M  V30 4439 O 426.674 0.155043 1.83045 0
M  V30 4440 C 426.736 3.47848 0.90785 0
M  V30 4441 C 426.4 4.56861 -0.112888 0
M  V30 4442 C 427.397 5.11528 -0.929264 0
M  V30 4443 C 425.082 5.01704 -0.244546 0
M  V30 4444 C 427.076 6.09549 -1.86357 0
M  V30 4445 C 424.763 5.99553 -1.18234 0
M  V30 4446 C 425.761 6.53356 -1.99036 0
M  V30 4447 O 425.449 7.49293 -2.91231 0
M  V30 4448 H 425.181 0.670444 0.08649 0
M  V30 4449 H 427.735 2.01598 -0.39337 0
M  V30 4450 H 425.965 3.46967 1.70737 0
M  V30 4451 H 427.654 3.79407 1.44239 0
M  V30 4452 H 428.42 4.77701 -0.838237 0
M  V30 4453 H 424.299 4.59477 0.374359 0
M  V30 4454 H 427.843 6.51469 -2.49467 0
M  V30 4455 H 423.74 6.32799 -1.27421 0
M  V30 4456 H 424.508 7.66978 -2.8581 0
M  V30 4457 N 427.171 -0.0066808 1.57599 0
M  V30 4458 C 428.119 -1.01851 2.09115 0
M  V30 4459 C 429.113 -1.36021 1.00969 0
M  V30 4460 O 430.319 -1.34663 1.19439 0
M  V30 4461 H 426.694 -0.346083 0.667631 0
M  V30 4462 H 428.665 -0.558394 2.93129 0
M  V30 4463 C 427.414 -2.30374 2.60429 0
M  V30 4464 H 426.737 -2.04947 3.43273 0
M  V30 4465 H 428.177 -2.99466 3.00161 0
M  V30 4466 C 426.636 -3.00893 1.51542 0
M  V30 4467 O 427.166 -3.91614 0.894484 0
M  V30 4468 N 425.372 -2.62603 1.2445 0
M  V30 4469 H 424.919 -1.88911 1.75129 0
M  V30 4470 H 424.877 -3.10101 0.518137 0
M  V30 4471 N 428.649 -1.55105 -0.279332 0
M  V30 4472 C 429.579 -1.90557 -1.34945 0
M  V30 4473 C 430.56 -0.766738 -1.51839 0
M  V30 4474 O 431.745 -1.02434 -1.64988 0
M  V30 4475 C 428.875 -2.17193 -2.71006 0
M  V30 4476 C 427.829 -3.33021 -2.68851 0
M  V30 4477 C 427.155 -3.45123 -4.08405 0
M  V30 4478 C 428.455 -4.69578 -2.28678 0
M  V30 4479 H 430.149 -2.80188 -1.05522 0
M  V30 4480 H 427.695 -1.34811 -0.506173 0
M  V30 4481 H 429.648 -2.40581 -3.45975 0
M  V30 4482 H 428.372 -1.24355 -3.01999 0
M  V30 4483 H 427.031 -3.0959 -1.9634 0
M  V30 4484 H 426.679 -2.49762 -4.3661 0
M  V30 4485 H 426.379 -4.22995 -4.07859 0
M  V30 4486 H 427.903 -3.70796 -4.85121 0
M  V30 4487 H 429.317 -4.92553 -2.93368 0
M  V30 4488 H 427.714 -5.5032 -2.39306 0
M  V30 4489 H 428.784 -4.68828 -1.23807 0
M  V30 4490 N 430.127 0.543554 -1.4793 0
M  V30 4491 C 431.375 1.29752 -1.54948 0
M  V30 4492 C 431.696 1.93764 -0.219242 0
M  V30 4493 O 430.966 1.80639 0.75805 0
M  V30 4494 H 429.546 0.481874 -0.570795 0
M  V30 4495 H 432.208 0.633636 -1.84312 0
M  V30 4496 H 431.304 2.08392 -2.32334 0
M  V30 4497 N 431.605 1.3629 0.791371 0
M  V30 4498 C 432.851 1.30605 1.55146 0
M  V30 4499 C 433.184 -0.115042 1.93859 0
M  V30 4500 O 432.459 -1.06798 1.62556 0
M  V30 4501 C 432.742 2.22692 2.82985 0
M  V30 4502 C 432.595 3.73489 2.50651 0
M  V30 4503 C 433.914 2.13588 3.84796 0
M  V30 4504 H 431.033 0.475761 0.562868 0
M  V30 4505 H 433.675 1.66825 0.909358 0
M  V30 4506 H 431.825 1.91933 3.37778 0
M  V30 4507 H 433.497 4.14758 2.01924 0
M  V30 4508 H 431.74 3.93021 1.83622 0
M  V30 4509 H 432.411 4.3333 3.41949 0
M  V30 4510 H 434.887 2.40659 3.39445 0
M  V30 4511 H 433.763 2.80195 4.71998 0
M  V30 4512 H 434.024 1.12256 4.27611 0
M  V30 4513 N 433.083 -1.0153 1.20538 0
M  V30 4514 C 434.499 -1.27461 0.96051 0
M  V30 4515 C 434.699 -1.98273 -0.359193 0
M  V30 4516 O 433.755 -2.27886 -1.0874 0
M  V30 4517 C 435.068 -2.10837 2.14402 0
M  V30 4518 C 436.616 -2.24099 2.18515 0
M  V30 4519 C 437.091 -3.10852 3.36355 0
M  V30 4520 N 438.582 -3.18441 3.36377 0
M  V30 4521 C 439.317 -3.85795 4.24205 0
M  V30 4522 N 438.813 -4.55264 5.22213 0
M  V30 4523 N 440.606 -3.82331 4.12043 0
M  V30 4524 H 432.757 -0.539907 2.05423 0
M  V30 4525 H 435.02 -0.30092 0.898972 0
M  V30 4526 H 434.726 -1.66144 3.09983 0
M  V30 4527 H 434.6 -3.11576 2.12604 0
M  V30 4528 H 436.987 -2.68016 1.23497 0
M  V30 4529 H 437.068 -1.22865 2.24361 0
M  V30 4530 H 436.712 -2.6764 4.31661 0
M  V30 4531 H 436.642 -4.12177 3.27746 0
M  V30 4532 H 439.133 -2.68978 2.65442 0
M  V30 4533 H 439.446 -5.04331 5.85551 0
M  V30 4534 H 437.791 -4.54085 5.26148 0
M  V30 4535 H 440.982 -3.27207 3.34743 0
M  V30 4536 H 441.155 -4.34547 4.807 0
M  V30 4537 N 434.561 -1.01147 -1.20859 0
M  V30 4538 C 435.791 -0.715872 -1.93801 0
M  V30 4539 C 436.199 0.726592 -1.74692 0
M  V30 4540 O 435.542 1.50397 -1.05482 0
M  V30 4541 C 435.604 -0.965269 -3.46299 0
M  V30 4542 C 435.268 -2.39584 -3.89164 0
M  V30 4543 C 436.265 -3.3764 -3.95342 0
M  V30 4544 C 433.95 -2.73522 -4.21297 0
M  V30 4545 C 435.944 -4.67698 -4.33056 0
M  V30 4546 C 433.631 -4.03794 -4.58687 0
M  V30 4547 C 434.629 -5.00693 -4.64538 0
M  V30 4548 O 434.317 -6.28635 -5.01072 0
M  V30 4549 H 434.049 -0.262524 -0.622942 0
M  V30 4550 H 436.603 -1.35413 -1.54443 0
M  V30 4551 H 434.833 -0.269847 -3.85757 0
M  V30 4552 H 436.522 -0.662051 -4.00464 0
M  V30 4553 H 437.288 -3.12757 -3.70686 0
M  V30 4554 H 433.167 -1.9879 -4.15937 0
M  V30 4555 H 436.711 -5.4333 -4.37537 0
M  V30 4556 H 432.608 -4.28459 -4.82797 0
M  V30 4557 H 433.376 -6.32847 -5.19083 0
M  V30 4558 N 436.039 1.36541 -0.78704 0
M  V30 4559 C 437.288 1.98552 -0.35494 0
M  V30 4560 C 437.601 1.63171 1.07864 0
M  V30 4561 O 438.807 2.18399 1.61289 0
M  V30 4562 C 437.263 3.55136 -0.583671 0
M  V30 4563 C 436.871 3.99444 -2.02851 0
M  V30 4564 C 438.615 4.2395 -0.215957 0
M  V30 4565 C 436.522 5.48796 -2.20403 0
M  V30 4566 H 435.452 0.742888 -0.128972 0
M  V30 4567 H 438.103 1.5587 -0.968337 0
M  V30 4568 H 436.485 3.95875 0.0994046 0
M  V30 4569 H 437.659 3.6991 -2.74779 0
M  V30 4570 H 435.974 3.43459 -2.35425 0
M  V30 4571 H 438.571 5.33709 -0.325405 0
M  V30 4572 H 438.914 4.07827 0.835646 0
M  V30 4573 H 439.447 3.88565 -0.852175 0
M  V30 4574 H 436.186 5.69864 -3.23937 0
M  V30 4575 H 435.706 5.79964 -1.52977 0
M  V30 4576 H 437.385 6.14986 -2.01002 0
M  V30 4577 N 437.518 0.538854 1.48102 0
M  V30 4578 C 438.766 0.00798599 2.02098 0
M  V30 4579 C 439.087 -1.33922 1.41739 0
M  V30 4580 O 438.357 -1.86932 0.585934 0
M  V30 4581 H 436.937 -3.62179e-05 0.747 0
M  V30 4582 H 439.599 0.7047 1.81714 0
M  V30 4583 H 438.695 -0.0937672 3.11959 0
M  V30 4584 N 438.996 -1.55193 0.274407 0
M  V30 4585 C 440.244 -1.99187 -0.341902 0
M  V30 4586 C 440.565 -1.16422 -1.56431 0
M  V30 4587 O 439.835 -0.253573 -1.94252 0
M  V30 4588 H 438.415 -0.735721 -0.129317 0
M  V30 4589 H 441.077 -1.91168 0.379578 0
M  V30 4590 H 440.173 -3.05629 -0.632253 0
M  V30 4591 N 440.474 -0.00167713 -1.576 0
M  V30 4592 C 441.714 0.687302 -1.92498 0
M  V30 4593 C 442.078 1.70844 -0.876144 0
M  V30 4594 O 443.279 2.44792 -1.11043 0
M  V30 4595 C 441.55 1.31217 -3.32441 0
M  V30 4596 S 443.109 2.02604 -3.89226 0
M  V30 4597 H 439.927 0.226985 -0.673794 0
M  V30 4598 H 442.529 -0.0587666 -1.95412 0
M  V30 4599 H 441.233 0.556164 -4.06614 0
M  V30 4600 H 440.764 2.09613 -3.32905 0
M  V30 4601 H 442.779 3.30137 -3.70438 0
M  V30 4602 N 441.952 1.55251 0.271103 0
M  V30 4603 C 443.192 1.77698 1.01008 0
M  V30 4604 C 443.556 0.567246 1.83429 0
M  V30 4605 O 444.757 0.670013 2.60316 0
M  V30 4606 C 443.028 3.04715 1.86772 0
M  V30 4607 S 444.587 3.48289 2.66909 0
M  V30 4608 H 441.405 0.624343 0.340172 0
M  V30 4609 H 444.007 1.9348 0.280315 0
M  V30 4610 H 442.711 3.90853 1.25149 0
M  V30 4611 H 442.242 2.91604 2.64066 0
M  V30 4612 H 444.257 3.07712 3.89266 0
M  V30 4613 N 443.43 -0.535701 1.48216 0
M  V30 4614 C 444.678 -1.28928 1.55634 0
M  V30 4615 C 444.999 -1.93645 0.229514 0
M  V30 4616 O 444.269 -1.81038 -0.74846 0
M  V30 4617 H 442.849 -0.47884 0.573342 0
M  V30 4618 H 445.511 -0.623853 1.84646 0
M  V30 4619 H 444.607 -2.07157 2.33436 0
M  V30 4620 N 444.908 -1.36708 -0.784132 0
M  V30 4621 C 446.155 -1.31231 -1.54222 0
M  V30 4622 C 446.483 0.106864 -1.94206 0
M  V30 4623 O 445.738 1.07734 -1.63376 0
M  V30 4624 C 446.037 -2.18571 -2.82774 0
M  V30 4625 C 445.703 -3.67039 -2.61903 0
M  V30 4626 C 444.365 -4.07503 -2.55919 0
M  V30 4627 C 446.717 -4.61149 -2.4288 0
M  V30 4628 C 444.045 -5.40211 -2.28886 0
M  V30 4629 C 446.397 -5.94081 -2.17373 0
M  V30 4630 C 445.061 -6.33664 -2.09825 0
M  V30 4631 H 444.331 -0.48021 -0.56434 0
M  V30 4632 H 446.978 -1.68807 -0.904233 0
M  V30 4633 H 445.283 -1.73949 -3.51068 0
M  V30 4634 H 446.98 -2.11655 -3.40592 0
M  V30 4635 H 443.57 -3.34941 -2.67418 0
M  V30 4636 H 447.754 -4.30756 -2.46501 0
M  V30 4637 H 443.01 -5.69855 -2.21529 0
M  V30 4638 H 447.184 -6.66566 -2.01649 0
M  V30 4639 H 444.811 -7.36423 -1.88641 0
M  V30 4640 N 446.386 1.0089 -1.21074 0
M  V30 4641 C 447.296 2.13039 -0.982425 0
M  V30 4642 C 448.312 1.73881 0.0642161 0
M  V30 4643 O 449.488 2.01012 -0.12496 0
M  V30 4644 C 446.553 3.42377 -0.545803 0
M  V30 4645 C 445.614 3.95731 -1.6642 0
M  V30 4646 C 444.847 5.18896 -1.24832 0
M  V30 4647 O 445.07 5.70273 -0.120265 0
M  V30 4648 O 444.004 5.65597 -2.05873 0
M  V30 4649 H 447.83 2.35175 -1.92163 0
M  V30 4650 H 445.415 1.1142 -0.995285 0
M  V30 4651 H 447.297 4.20244 -0.311912 0
M  V30 4652 H 445.972 3.21639 0.364727 0
M  V30 4653 H 444.879 3.19108 -1.95246 0
M  V30 4654 H 446.212 4.20872 -2.55201 0
M  V30 4655 N 447.864 1.01787 1.20321 0
M  V30 4656 C 449.275 0.739307 1.71438 0
M  V30 4657 C 449.626 -0.742041 1.81627 0
M  V30 4658 O 448.751 -1.57903 1.47971 0
M  V30 4659 C 449.346 1.33538 3.11373 0
M  V30 4660 C 447.905 1.10566 3.59795 0
M  V30 4661 C 447.052 1.44028 2.36962 0
M  V30 4662 H 450.003 1.18718 1.05317 0
M  V30 4663 H 450.024 0.726611 3.73498 0
M  V30 4664 H 449.536 2.41352 3.03926 0
M  V30 4665 H 447.637 0.0452405 3.72573 0
M  V30 4666 H 447.75 1.78661 4.44542 0
M  V30 4667 H 446.114 0.85933 2.39766 0
M  V30 4668 H 446.897 2.52901 2.32155 0
M  V30 4669 N 449.342 -1.36122 0.79427 0
M  V30 4670 C 450.572 -2.03067 0.380437 0
M  V30 4671 C 450.98 -1.60018 -1.00949 0
M  V30 4672 O 450.323 -0.787425 -1.65968 0
M  V30 4673 C 450.385 -3.57587 0.37034 0
M  V30 4674 C 450.049 -4.23855 1.70867 0
M  V30 4675 C 451.046 -4.46404 2.66496 0
M  V30 4676 C 448.731 -4.61229 1.9893 0
M  V30 4677 C 450.725 -5.05412 3.88378 0
M  V30 4678 C 448.412 -5.19953 3.21079 0
M  V30 4679 C 449.41 -5.41985 4.15621 0
M  V30 4680 O 449.098 -5.99475 5.35616 0
M  V30 4681 H 448.83 -0.658168 0.154243 0
M  V30 4682 H 451.384 -1.7498 1.0757 0
M  V30 4683 H 449.614 -3.84814 -0.381444 0
M  V30 4684 H 451.303 -4.05895 -0.0194894 0
M  V30 4685 H 452.069 -4.17921 2.46103 0
M  V30 4686 H 447.948 -4.43402 1.26158 0
M  V30 4687 H 451.492 -5.22524 4.62185 0
M  V30 4688 H 447.389 -5.47862 3.41347 0
M  V30 4689 H 448.157 -6.17937 5.36745 0
M  V30 4690 N 450.82 -0.546701 -1.47814 0
M  V30 4691 C 451.77 0.227042 -2.26867 0
M  V30 4692 C 452.754 0.894844 -1.33721 0
M  V30 4693 O 453.946 0.794887 -1.58147 0
M  V30 4694 C 451.075 1.26299 -3.19223 0
M  V30 4695 C 450.161 0.59913 -4.19847 0
M  V30 4696 N 450.552 -0.324777 -5.04756 0
M  V30 4697 C 448.85 0.854331 -4.37741 0
M  V30 4698 C 449.551 -0.709386 -5.77358 0
M  V30 4699 N 448.527 -0.0666153 -5.43559 0
M  V30 4700 H 452.329 -0.483476 -2.89896 0
M  V30 4701 H 449.843 -0.365893 -1.58224 0
M  V30 4702 H 451.84 1.83116 -3.74532 0
M  V30 4703 H 450.5 1.97471 -2.57751 0
M  V30 4704 H 451.511 -0.698351 -5.1317 0
M  V30 4705 H 448.188 1.55536 -3.87447 0
M  V30 4706 H 449.578 -1.46796 -6.55668 0
M  V30 4707 N 452.299 1.55045 -0.282633 0
M  V30 4708 C 453.548 1.98938 0.332667 0
M  V30 4709 C 453.861 1.17455 1.56409 0
M  V30 4710 O 455.067 1.51527 2.25282 0
M  V30 4711 C 453.523 3.54105 0.643226 0
M  V30 4712 C 453.131 4.44374 -0.568814 0
M  V30 4713 C 454.875 4.06569 1.22074 0
M  V30 4714 C 452.782 5.90943 -0.232426 0
M  V30 4715 H 451.712 0.743043 0.128075 0
M  V30 4716 H 454.363 1.79341 -0.388464 0
M  V30 4717 H 452.745 3.69532 1.42346 0
M  V30 4718 H 453.919 4.40718 -1.34551 0
M  V30 4719 H 452.234 4.02585 -1.06369 0
M  V30 4720 H 454.831 5.13626 1.48635 0
M  V30 4721 H 455.174 3.56057 2.15707 0
M  V30 4722 H 455.707 3.94612 0.502621 0
M  V30 4723 H 452.446 6.45567 -1.13683 0
M  V30 4724 H 451.966 5.9765 0.507357 0
M  V30 4725 H 453.645 6.4677 0.172657 0
M  V30 4726 N 453.777 0.010035 1.57597 0
M  V30 4727 C 455.193 -0.346164 1.55801 0
M  V30 4728 C 455.393 -1.74144 1.01371 0
M  V30 4729 O 454.449 -2.43938 0.651968 0
M  V30 4730 C 455.762 -0.212216 2.9995 0
M  V30 4731 C 457.31 -0.286409 3.11687 0
M  V30 4732 C 457.785 -0.18147 4.5764 0
M  V30 4733 N 459.276 -0.239056 4.62583 0
M  V30 4734 C 460.011 -0.181351 5.73113 0
M  V30 4735 N 459.507 -0.073661 6.92761 0
M  V30 4736 N 461.3 -0.233949 5.61613 0
M  V30 4737 H 453.451 0.922657 1.91313 0
M  V30 4738 H 455.714 0.354595 0.879185 0
M  V30 4739 H 455.42 0.748169 3.4365 0
M  V30 4740 H 455.294 -0.990224 3.6397 0
M  V30 4741 H 457.681 -1.23724 2.67911 0
M  V30 4742 H 457.762 0.521645 2.50425 0
M  V30 4743 H 457.406 0.765863 5.02093 0
M  V30 4744 H 457.336 -1.00814 5.1686 0
M  V30 4745 H 459.827 -0.32321 3.76515 0
M  V30 4746 H 460.14 -0.0358003 7.72792 0
M  V30 4747 H 458.485 -0.0391461 6.94989 0
M  V30 4748 H 461.676 -0.316347 4.6703 0
M  V30 4749 H 461.849 -0.185514 6.47734 0
M  V30 4750 N 455.255 -1.55392 -0.262866 0
M  V30 4751 C 456.218 -1.88181 -1.30846 0
M  V30 4752 C 457.218 -0.757079 -1.41862 0
M  V30 4753 O 458.408 -1.02519 -1.40838 0
M  V30 4754 C 455.54 -2.09609 -2.68844 0
M  V30 4755 H 456.733 -2.81659 -1.02997 0
M  V30 4756 H 454.286 -1.48039 -0.501414 0
M  V30 4757 H 455.021 -1.18547 -3.01856 0
M  V30 4758 H 454.806 -2.91508 -2.62231 0
M  V30 4759 H 456.296 -2.36215 -3.44372 0
M  V30 4760 N 456.733 0.527833 -1.48498 0
M  V30 4761 C 457.982 1.28003 -1.55878 0
M  V30 4762 C 458.295 1.9414 -0.238577 0
M  V30 4763 O 459.501 2.7083 -0.190643 0
M  V30 4764 C 457.957 2.32272 -2.74914 0
M  V30 4765 C 457.565 1.72196 -4.13585 0
M  V30 4766 C 459.309 3.08488 -2.91608 0
M  V30 4767 C 457.216 2.74417 -5.23879 0
M  V30 4768 H 456.146 0.481413 -0.580308 0
M  V30 4769 H 458.797 0.557195 -1.74836 0
M  V30 4770 H 457.179 3.07601 -2.49395 0
M  V30 4771 H 458.353 1.03041 -4.49132 0
M  V30 4772 H 456.668 1.08464 -4.02025 0
M  V30 4773 H 459.265 3.84879 -3.71177 0
M  V30 4774 H 459.608 3.64481 -2.01145 0
M  V30 4775 H 460.141 2.40274 -3.17038 0
M  V30 4776 H 456.88 2.23242 -6.16314 0
M  V30 4777 H 456.4 3.41893 -4.92818 0
M  V30 4778 H 458.079 3.37362 -5.52083 0
M  V30 4779 N 458.211 1.37122 0.776871 0
M  V30 4780 C 459.174 1.32301 1.8716 0
M  V30 4781 C 460.174 0.228099 1.59174 0
M  V30 4782 O 461.364 0.483642 1.67352 0
M  V30 4783 C 458.496 1.054 3.24197 0
M  V30 4784 H 459.689 2.29673 1.92848 0
M  V30 4785 H 457.242 1.22077 0.97606 0
M  V30 4786 H 457.977 0.0853872 3.24188 0
M  V30 4787 H 457.762 1.84648 3.45901 0
M  V30 4788 H 459.252 1.04664 4.04271 0
M  V30 4789 N 459.689 -1.00246 1.21608 0
M  V30 4790 C 460.599 -2.12515 0.993709 0
M  V30 4791 C 461.615 -1.73913 -0.0549939 0
M  V30 4792 O 462.791 -2.00943 0.135619 0
M  V30 4793 C 459.856 -3.42083 0.563953 0
M  V30 4794 C 458.917 -3.94843 1.68516 0
M  V30 4795 C 458.15 -5.18226 1.27582 0
M  V30 4796 O 458.373 -5.70201 0.150506 0
M  V30 4797 O 457.307 -5.64497 2.0887 0
M  V30 4798 H 461.133 -2.34152 1.93407 0
M  V30 4799 H 458.718 -1.10891 1.00118 0
M  V30 4800 H 460.6 -4.20073 0.334194 0
M  V30 4801 H 459.275 -3.21828 -0.347665 0
M  V30 4802 H 458.182 -3.18068 1.96935 0
M  V30 4803 H 459.515 -4.19512 2.5743 0
M  V30 4804 N 461.167 -1.02423 -1.1978 0
M  V30 4805 C 462.077 -0.610919 -2.26506 0
M  V30 4806 C 463.093 0.355152 -1.70337 0
M  V30 4807 O 464.269 0.214195 -2.00258 0
M  V30 4808 C 461.334 0.0365921 -3.46681 0
M  V30 4809 C 460.395 -0.976389 -4.18049 0
M  V30 4810 C 459.628 -0.359683 -5.32487 0
M  V30 4811 O 459.851 0.838601 -5.64202 0
M  V30 4812 O 458.785 -1.08022 -5.92127 0
M  V30 4813 H 462.611 -1.49965 -2.64091 0
M  V30 4814 H 460.196 -0.794156 -1.26545 0
M  V30 4815 H 462.078 0.39786 -4.19518 0
M  V30 4816 H 460.753 0.899398 -3.10954 0
M  V30 4817 H 459.66 -1.38916 -3.47352 0
M  V30 4818 H 460.993 -1.80941 -4.57735 0
M  V30 4819 N 462.645 1.35699 -0.801477 0
M  V30 4820 C 463.575 2.32436 -0.222658 0
M  V30 4821 C 464.556 1.5723 0.649057 0
M  V30 4822 O 465.741 1.85324 0.580387 0
M  V30 4823 C 462.871 3.41469 0.633719 0
M  V30 4824 C 461.825 4.27774 -0.139083 0
M  V30 4825 C 461.151 5.28082 0.838666 0
M  V30 4826 C 462.451 5.04946 -1.33517 0
M  V30 4827 H 464.145 2.81094 -1.03086 0
M  V30 4828 H 461.691 1.35146 -0.497155 0
M  V30 4829 H 463.644 4.08143 1.04868 0
M  V30 4830 H 462.368 2.91408 1.47475 0
M  V30 4831 H 461.027 3.62673 -0.535156 0
M  V30 4832 H 460.675 4.7429 1.67506 0
M  V30 4833 H 460.375 5.86695 0.32594 0
M  V30 4834 H 461.899 5.97628 1.25194 0
M  V30 4835 H 463.313 5.64593 -0.995349 0
M  V30 4836 H 461.71 5.7303 -1.78202 0
M  V30 4837 H 462.78 4.35886 -2.12442 0
M  V30 4838 N 464.123 0.554532 1.47522 0
M  V30 4839 C 465.086 -0.184174 2.28459 0
M  V30 4840 C 466.086 -0.845195 1.36796 0
M  V30 4841 O 467.276 -0.701467 1.59452 0
M  V30 4842 C 464.408 -1.26903 3.16399 0
M  V30 4843 H 465.601 0.526751 2.95238 0
M  V30 4844 H 463.154 0.311375 1.53167 0
M  V30 4845 H 463.889 -2.01244 2.54306 0
M  V30 4846 H 463.674 -0.799883 3.83854 0
M  V30 4847 H 465.164 -1.78794 3.77389 0
M  V30 4848 N 465.601 -1.54893 0.290851 0
M  V30 4849 C 467.012 -1.85584 -0.203816 0
M  V30 4850 C 467.363 -1.21285 -1.54222 0
M  V30 4851 O 466.488 -0.506841 -2.10381 0
M  V30 4852 C 467.083 -3.367 -0.376595 0
M  V30 4853 C 465.642 -3.6746 -0.815485 0
M  V30 4854 C 464.789 -2.77178 0.0821087 0
M  V30 4855 H 467.74 -1.50208 0.512175 0
M  V30 4856 H 467.761 -3.60656 -1.21275 0
M  V30 4857 H 467.273 -3.8347 0.59767 0
M  V30 4858 H 465.374 -3.26201 -1.80066 0
M  V30 4859 H 465.487 -4.7478 -0.641905 0
M  V30 4860 H 463.851 -2.50925 -0.436895 0
M  V30 4861 H 464.634 -3.26767 1.05254 0
M  V30 4862 N 467.08 -0.0183926 -1.57589 0
M  V30 4863 C 467.99 0.982943 -2.13015 0
M  V30 4864 C 469.006 1.36443 -1.07979 0
M  V30 4865 O 470.182 1.44802 -1.3998 0
M  V30 4866 C 467.247 2.25024 -2.63752 0
M  V30 4867 C 466.308 1.93018 -3.83461 0
M  V30 4868 C 465.541 3.13706 -4.31769 0
M  V30 4869 O 465.764 4.2601 -3.79305 0
M  V30 4870 O 464.698 2.96629 -5.23732 0
M  V30 4871 H 468.524 0.541709 -2.9883 0
M  V30 4872 H 466.109 0.201565 -1.48034 0
M  V30 4873 H 467.991 2.99441 -2.96502 0
M  V30 4874 H 466.666 2.68349 -1.81026 0
M  V30 4875 H 465.573 1.16019 -3.55655 0
M  V30 4876 H 466.906 1.54516 -4.67317 0
M  V30 4877 N 468.558 1.5553 0.254621 0
M  V30 4878 C 469.974 1.4778 0.602753 0
M  V30 4879 C 470.174 0.707047 1.88688 0
M  V30 4880 O 469.23 0.233288 2.5142 0
M  V30 4881 C 470.543 2.92133 0.712648 0
M  V30 4882 C 472.091 3.02458 0.805488 0
M  V30 4883 C 472.566 4.48102 0.947009 0
M  V30 4884 N 474.057 4.52008 1.01207 0
M  V30 4885 C 474.792 5.61939 1.1407 0
M  V30 4886 N 474.288 6.81697 1.23536 0
M  V30 4887 N 476.081 5.49719 1.17325 0
M  V30 4888 H 468.232 2.04085 -0.588463 0
M  V30 4889 H 470.495 0.926229 -0.202001 0
M  V30 4890 H 470.201 3.51332 -0.160766 0
M  V30 4891 H 470.075 3.42187 1.58707 0
M  V30 4892 H 472.462 2.43344 1.66936 0
M  V30 4893 H 472.543 2.55627 -0.0939266 0
M  V30 4894 H 472.187 5.07824 0.087725 0
M  V30 4895 H 472.117 4.92607 1.86135 0
M  V30 4896 H 474.608 3.65749 0.950577 0
M  V30 4897 H 474.921 7.61228 1.33236 0
M  V30 4898 H 473.266 6.84473 1.20508 0
M  V30 4899 H 476.457 4.55095 1.09573 0
M  V30 4900 H 476.63 6.35432 1.27005 0
M  V30 4901 N 470.036 -0.519951 1.48776 0
M  V30 4902 C 471.284 -1.2727 1.56993 0
M  V30 4903 C 471.605 -1.9339 0.25004 0
M  V30 4904 O 470.875 -1.81822 -0.729216 0
M  V30 4905 H 469.455 -0.472732 0.578389 0
M  V30 4906 H 472.117 -0.604234 1.85297 0
M  V30 4907 H 471.213 -2.04669 2.3562 0
M  V30 4908 N 471.514 -1.37532 -0.769588 0
M  V30 4909 C 472.761 -1.3286 -1.52822 0
M  V30 4910 C 473.089 0.0862597 -1.94309 0
M  V30 4911 O 472.344 1.05995 -1.6451 0
M  V30 4912 C 472.643 -2.21558 -2.8044 0
M  V30 4913 C 472.309 -3.69796 -2.57996 0
M  V30 4914 C 470.971 -4.10194 -2.51583 0
M  V30 4915 C 473.323 -4.63699 -2.37976 0
M  V30 4916 C 470.651 -5.42608 -2.23144 0
M  V30 4917 C 473.003 -5.96353 -2.1106 0
M  V30 4918 C 471.667 -6.35853 -2.03093 0
M  V30 4919 H 470.937 -0.486168 -0.559215 0
M  V30 4920 H 473.584 -1.69757 -0.886277 0
M  V30 4921 H 471.889 -1.77663 -3.49204 0
M  V30 4922 H 473.586 -2.15256 -3.38328 0
M  V30 4923 H 470.176 -3.37759 -2.63851 0
M  V30 4924 H 474.36 -4.33346 -2.41919 0
M  V30 4925 H 469.616 -5.72173 -2.15472 0
M  V30 4926 H 473.79 -6.68667 -1.94568 0
M  V30 4927 H 471.417 -7.38382 -1.8082 0
M  V30 4928 N 472.992 0.995999 -1.22138 0
M  V30 4929 C 473.922 2.10387 -1.01289 0
M  V30 4930 C 474.903 1.69975 0.0651454 0
M  V30 4931 O 476.088 1.9396 -0.0964628 0
M  V30 4932 C 473.218 3.42312 -0.586517 0
M  V30 4933 C 472.172 3.96558 -1.61014 0
M  V30 4934 C 471.498 5.24494 -1.0397 0
M  V30 4935 C 472.798 4.27595 -2.99933 0
M  V30 4936 H 474.492 2.28086 -1.93951 0
M  V30 4937 H 472.038 1.09607 -0.933928 0
M  V30 4938 H 473.991 4.19223 -0.427793 0
M  V30 4939 H 472.715 3.24431 0.375761 0
M  V30 4940 H 471.374 3.21776 -1.75658 0
M  V30 4941 H 471.022 5.02953 -0.0688703 0
M  V30 4942 H 470.722 5.61755 -1.72352 0
M  V30 4943 H 472.246 6.04042 -0.892494 0
M  V30 4944 H 473.66 4.95315 -2.8868 0
M  V30 4945 H 472.057 4.76021 -3.6541 0
M  V30 4946 H 473.127 3.35498 -3.50099 0
M  V30 4947 N 474.47 1.03057 1.19235 0
M  V30 4948 C 475.881 0.757449 1.70645 0
M  V30 4949 C 476.232 -0.722735 1.82403 0
M  V30 4950 O 475.357 -1.56325 1.49638 0
M  V30 4951 C 475.952 1.36833 3.09939 0
M  V30 4952 C 474.511 1.14375 3.58602 0
M  V30 4953 C 473.658 1.46533 2.35422 0
M  V30 4954 H 476.609 1.19828 1.04052 0
M  V30 4955 H 476.63 0.766184 3.72706 0
M  V30 4956 H 476.142 2.44562 3.01349 0
M  V30 4957 H 474.243 0.0847542 3.72504 0
M  V30 4958 H 474.356 1.83366 4.42622 0
M  V30 4959 H 472.72 0.884712 2.38841 0
M  V30 4960 H 473.503 2.55349 2.2946 0
M  V30 4961 N 475.948 -1.35272 0.808662 0
M  V30 4962 C 477.359 -1.81179 0.450688 0
M  V30 4963 C 477.71 -1.67143 -1.02751 0
M  V30 4964 O 476.835 -1.20325 -1.79864 0
M  V30 4965 C 477.43 -3.28943 0.811275 0
M  V30 4966 C 475.989 -3.72985 0.505871 0
M  V30 4967 C 475.136 -2.57229 1.03578 0
M  V30 4968 H 478.087 -1.2322 1.00012 0
M  V30 4969 H 478.108 -3.80342 0.109588 0
M  V30 4970 H 477.62 -3.39127 1.88718 0
M  V30 4971 H 475.721 -3.68349 -0.561209 0
M  V30 4972 H 475.834 -4.67677 1.03995 0
M  V30 4973 H 474.198 -2.50548 0.458005 0
M  V30 4974 H 474.981 -2.7019 2.11784 0
M  V30 4975 N 477.426 -0.562348 -1.47226 0
M  V30 4976 C 478.389 0.172056 -2.28553 0
M  V30 4977 C 479.389 0.837928 -1.37242 0
M  V30 4978 O 480.579 0.693001 -1.59822 0
M  V30 4979 C 477.711 1.25223 -3.17068 0
M  V30 4980 H 478.904 -0.542401 -2.94954 0
M  V30 4981 H 476.457 -0.319493 -1.53 0
M  V30 4982 H 477.192 1.99892 -2.55369 0
M  V30 4983 H 476.977 0.779515 -3.84273 0
M  V30 4984 H 478.467 1.76791 -3.78332 0
M  V30 4985 N 478.904 1.54736 -0.299062 0
M  V30 4986 C 480.129 2.04975 0.316254 0
M  V30 4987 C 480.554 1.17501 1.46885 0
M  V30 4988 O 479.912 0.178678 1.80417 0
M  V30 4989 C 479.96 3.52672 0.751997 0
M  V30 4990 O 479.064 3.68226 1.85697 0
M  V30 4991 H 478.405 0.661126 0.0617175 0
M  V30 4992 H 480.935 1.99805 -0.440341 0
M  V30 4993 H 480.945 3.94488 1.04133 0
M  V30 4994 H 479.62 4.158 -0.0911482 0
M  V30 4995 H 478.197 3.38316 1.56834 0
M  V30 4996 N 480.382 0.0267497 1.57577 0
M  V30 4997 C 481.292 -0.971633 2.13533 0
M  V30 4998 C 482.308 -1.35868 1.08701 0
M  V30 4999 O 483.484 -1.44058 1.40746 0
M  V30 5000 C 480.549 -2.23622 2.64941 0
M  V30 5001 C 479.61 -1.90982 3.8448 0
M  V30 5002 C 478.843 -3.11411 4.33427 0
M  V30 5003 O 479.066 -4.23992 3.81558 0
M  V30 5004 O 478 -2.93848 5.25297 0
M  V30 5005 H 481.826 -0.525853 2.99113 0
M  V30 5006 H 479.411 -0.193712 1.48139 0
M  V30 5007 H 481.293 -2.97864 2.98086 0
M  V30 5008 H 479.968 -2.67386 1.82446 0
M  V30 5009 H 478.875 -1.14132 3.56265 0
M  V30 5010 H 480.208 -1.52036 4.6813 0
M  V30 5011 N 481.861 -1.55662 -0.24637 0
M  V30 5012 C 482.808 -1.90361 -1.30504 0
M  V30 5013 C 483.778 -0.757905 -1.47801 0
M  V30 5014 O 484.963 -1.01161 -1.61775 0
M  V30 5015 C 482.103 -2.2042 -2.65535 0
M  V30 5016 C 481.216 -3.47799 -2.56242 0
M  V30 5017 C 480.351 -3.67426 -3.8363 0
M  V30 5018 C 479.39 -4.88403 -3.68956 0
M  V30 5019 N 478.527 -5.04548 -4.88237 0
M  V30 5020 H 483.367 -2.80645 -1.00213 0
M  V30 5021 H 480.904 -1.38924 -0.483577 0
M  V30 5022 H 482.862 -2.35853 -3.44135 0
M  V30 5023 H 481.492 -1.3334 -2.93973 0
M  V30 5024 H 480.544 -3.40694 -1.69208 0
M  V30 5025 H 481.856 -4.36544 -2.4131 0
M  V30 5026 H 481.01 -3.82821 -4.70673 0
M  V30 5027 H 479.749 -2.76914 -4.01459 0
M  V30 5028 H 478.754 -4.72984 -2.80296 0
M  V30 5029 H 479.979 -5.80375 -3.52621 0
M  V30 5030 H 477.925 -4.16974 -5.06427 0
M  V30 5031 H 477.842 -5.87384 -4.75937 0
M  V30 5032 H 479.11 -5.24355 -5.76777 0
M  V30 5033 N 483.339 0.512053 -1.4905 0
M  V30 5034 C 484.289 1.61142 -1.61298 0
M  V30 5035 C 485.273 1.53908 -0.46916 0
M  V30 5036 O 486.465 1.61625 -0.721547 0
M  V30 5037 C 483.594 2.998 -1.67256 0
M  V30 5038 C 482.68 3.12072 -2.87179 0
M  V30 5039 N 483.071 2.94263 -4.11391 0
M  V30 5040 C 481.369 3.43156 -2.84886 0
M  V30 5041 C 482.07 3.10426 -4.91946 0
M  V30 5042 N 481.046 3.38808 -4.251 0
M  V30 5043 H 484.848 1.46011 -2.55065 0
M  V30 5044 H 482.362 0.717934 -1.45669 0
M  V30 5045 H 484.359 3.78794 -1.74128 0
M  V30 5046 H 483.019 3.1601 -0.746195 0
M  V30 5047 H 484.03 2.70661 -4.41546 0
M  V30 5048 H 480.707 3.65611 -2.01581 0
M  V30 5049 H 482.097 3.01243 -6.00585 0
M  V30 5050 N 484.817 1.37938 0.762283 0
M  V30 5051 C 486.065 1.33404 1.51815 0
M  V30 5052 C 486.386 -0.0780975 1.94844 0
M  V30 5053 O 485.656 -1.02405 1.67003 0
M  V30 5054 H 484.236 0.490839 0.563104 0
M  V30 5055 H 486.898 1.72527 0.906669 0
M  V30 5056 H 485.994 1.97926 2.41313 0
M  V30 5057 N 486.295 -0.989507 1.22664 0
M  V30 5058 C 487.52 -1.77031 1.08051 0
M  V30 5059 C 487.945 -1.84535 -0.364483 0
M  V30 5060 O 487.303 -1.3003 -1.2634 0
M  V30 5061 C 487.351 -3.18 1.70024 0
M  V30 5062 O 486.455 -4.01161 0.956216 0
M  V30 5063 H 485.796 -0.545008 0.379292 0
M  V30 5064 H 488.326 -1.24277 1.62531 0
M  V30 5065 H 488.336 -3.68616 1.74888 0
M  V30 5066 H 487.011 -3.11853 2.75174 0
M  V30 5067 H 485.588 -3.59687 0.98384 0
M  V30 5068 N 487.773 -1.03688 -1.18687 0
M  V30 5069 C 489.019 -0.74888 -1.89112 0
M  V30 5070 C 489.374 0.715345 -1.78607 0
M  V30 5071 O 488.667 1.51498 -1.17299 0
M  V30 5072 C 488.861 -1.14477 -3.3857 0
M  V30 5073 C 488.69 -2.64594 -3.63621 0
M  V30 5074 C 487.46 -3.31685 -3.812 0
M  V30 5075 C 489.658 -3.62811 -3.64517 0
M  V30 5076 N 487.64 -4.70822 -3.93955 0
M  V30 5077 C 489.011 -4.87603 -3.8294 0
M  V30 5078 C 491.066 -3.56495 -3.47585 0
M  V30 5079 C 489.769 -6.0684 -3.86184 0
M  V30 5080 C 491.795 -4.75155 -3.52111 0
M  V30 5081 C 491.157 -5.98765 -3.71026 0
M  V30 5082 H 487.256 -0.32603 -0.710794 0
M  V30 5083 H 489.84 -1.3258 -1.42586 0
M  V30 5084 H 488.011 -0.595974 -3.838 0
M  V30 5085 H 489.743 -0.808187 -3.96548 0
M  V30 5086 H 486.498 -2.82091 -3.80423 0
M  V30 5087 H 486.922 -5.43122 -4.04163 0
M  V30 5088 H 491.564 -2.61907 -3.31911 0
M  V30 5089 H 489.282 -7.01788 -4.00648 0
M  V30 5090 H 492.868 -4.71905 -3.40289 0
M  V30 5091 H 491.748 -6.89047 -3.74412 0
M  V30 5092 N 489.251 1.34841 -0.815825 0
M  V30 5093 C 490.499 1.98107 -0.399744 0
M  V30 5094 C 490.82 1.65019 1.03894 0
M  V30 5095 O 490.09 0.937311 1.72021 0
M  V30 5096 H 488.67 0.732827 -0.144823 0
M  V30 5097 H 491.332 1.64599 -1.0437 0
M  V30 5098 H 490.428 3.07856 -0.512965 0
M  V30 5099 N 490.729 0.570148 1.46925 0
M  V30 5100 C 491.954 0.0542592 2.07329 0
M  V30 5101 C 492.379 -1.23582 1.41806 0
M  V30 5102 O 491.737 -1.74341 0.497479 0
M  V30 5103 C 491.785 -0.111175 3.60429 0
M  V30 5104 O 490.889 -1.17071 3.95434 0
M  V30 5105 H 490.23 0.0571425 0.661537 0
M  V30 5106 H 492.76 0.789516 1.88753 0
M  V30 5107 H 492.77 -0.321315 4.06733 0
M  V30 5108 H 491.445 0.831012 4.07513 0
M  V30 5109 H 490.022 -0.940029 3.60857 0
M  V30 5110 N 492.207 -1.54576 0.307264 0
M  V30 5111 C 493.455 -1.99867 -0.299574 0
M  V30 5112 C 493.776 -1.19714 -1.53927 0
M  V30 5113 O 493.046 -0.29472 -1.9367 0
M  V30 5114 H 491.626 -0.738299 -0.113683 0
M  V30 5115 H 494.288 -1.9032 0.420042 0
M  V30 5116 H 493.384 -3.06901 -0.567283 0
M  V30 5117 N 493.685 -0.035106 -1.57561 0
M  V30 5118 C 494.615 0.942993 -2.13612 0
M  V30 5119 C 495.596 1.33531 -1.05373 0
M  V30 5120 O 496.781 1.41287 -1.33235 0
M  V30 5121 C 493.911 2.22332 -2.66807 0
M  V30 5122 C 492.865 1.97156 -3.79886 0
M  V30 5123 C 492.191 3.31506 -4.19533 0
M  V30 5124 C 493.491 1.30596 -5.05709 0
M  V30 5125 H 495.185 0.476179 -2.95589 0
M  V30 5126 H 492.731 0.227602 -1.4219 0
M  V30 5127 H 494.684 2.91142 -3.04654 0
M  V30 5128 H 493.408 2.7119 -1.81999 0
M  V30 5129 H 492.067 1.30763 -3.42486 0
M  V30 5130 H 491.715 3.78134 -3.31698 0
M  V30 5131 H 491.415 3.15465 -4.95738 0
M  V30 5132 H 492.939 4.01574 -4.59968 0
M  V30 5133 H 494.353 1.89416 -5.41105 0
M  V30 5134 H 492.75 1.24934 -5.86951 0
M  V30 5135 H 493.82 0.279742 -4.84092 0
M  V30 5136 N 495.163 1.55791 0.238111 0
M  V30 5137 C 496.44 1.68798 0.98826 0
M  V30 5138 C 496.82 0.577562 2.03045 0
M  V30 5139 O 496.168 -0.41778 2.24648 0
M  V30 5140 C 496.378 3.09454 1.61367 0
M  V30 5141 C 497.726 3.68335 2.11221 0
M  V30 5142 O 498.75 3.1231 1.71292 0
M  V30 5143 O 497.609 4.6657 2.84561 0
M  V30 5144 H 494.703 0.686881 0.460568 0
M  V30 5145 H 497.249 1.68118 0.231202 0
M  V30 5146 H 496.021 3.81726 0.860295 0
M  V30 5147 H 495.644 3.14182 2.4367 0
M  V30 5148 N 496.642 -0.504142 1.49319 0
M  V30 5149 C 497.575 -1.62361 1.60356 0
M  V30 5150 C 498.553 -1.56169 0.45277 0
M  V30 5151 O 499.737 -1.76271 0.667892 0
M  V30 5152 C 496.864 -3.00864 1.55559 0
M  V30 5153 C 495.91 -3.25328 2.75797 0
M  V30 5154 S 496.743 -3.08791 4.37503 0
M  V30 5155 C 497.899 -4.49695 4.35345 0
M  V30 5156 H 498.132 -1.52753 2.55056 0
M  V30 5157 H 495.665 -0.689065 1.38171 0
M  V30 5158 H 497.623 -3.8073 1.53477 0
M  V30 5159 H 496.284 -3.0789 0.621515 0
M  V30 5160 H 495.477 -4.2643 2.68651 0
M  V30 5161 H 495.079 -2.53179 2.75275 0
M  V30 5162 H 497.371 -5.41721 4.06871 0
M  V30 5163 H 498.314 -4.61891 5.36714 0
M  V30 5164 H 498.722 -4.30227 3.65465 0
M  V30 5165 N 498.12 -1.38341 -0.754957 0
M  V30 5166 C 499.07 -1.31964 -1.85929 0
M  V30 5167 C 500.054 -0.204181 -1.59599 0
M  V30 5168 O 501.246 -0.440036 -1.71443 0
M  V30 5169 C 498.375 -1.14565 -3.2362 0
M  V30 5170 C 497.461 -2.30727 -3.55846 0
M  V30 5171 N 497.852 -3.56165 -3.59138 0
M  V30 5172 C 496.15 -2.23249 -3.86104 0
M  V30 5173 C 496.851 -4.32865 -3.88591 0
M  V30 5174 N 495.827 -3.62203 -4.05351 0
M  V30 5175 H 499.629 -2.2694 -1.8675 0
M  V30 5176 H 497.143 -1.31553 -0.952243 0
M  V30 5177 H 499.14 -1.0808 -4.02647 0
M  V30 5178 H 497.8 -0.205212 -3.24051 0
M  V30 5179 H 498.811 -3.89854 -3.40932 0
M  V30 5180 H 495.488 -1.37357 -3.94258 0
M  V30 5181 H 496.878 -5.41504 -3.97773 0
M  V30 5182 N 499.598 0.982988 -1.23187 0
M  V30 5183 C 500.826 1.75921 -1.08901 0
M  V30 5184 C 501.241 1.85341 0.359719 0
M  V30 5185 O 500.598 1.33072 1.24892 0
M  V30 5186 C 500.649 3.18742 -1.70545 0
M  V30 5187 O 500.37 3.09814 -3.09753 0
M  V30 5188 C 501.871 4.1277 -1.61667 0
M  V30 5189 H 499.091 0.552166 -0.381252 0
M  V30 5190 H 501.635 1.23516 -1.62985 0
M  V30 5191 H 499.79 3.68182 -1.20501 0
M  V30 5192 H 500.204 3.99703 -3.39614 0
M  V30 5193 H 501.678 5.10697 -2.09506 0
M  V30 5194 H 502.155 4.3542 -0.575009 0
M  V30 5195 H 502.761 3.69232 -2.11064 0
M  V30 5196 N 501.076 1.04316 1.18135 0
M  V30 5197 C 502.023 0.636398 2.21853 0
M  V30 5198 C 502.993 -0.357039 1.62217 0
M  V30 5199 O 504.178 -0.250453 1.89149 0
M  V30 5200 C 501.318 0.00812779 3.45099 0
M  V30 5201 C 500.431 1.04933 4.19062 0
M  V30 5202 C 499.566 0.389313 5.29771 0
M  V30 5203 C 498.605 1.41544 5.9551 0
M  V30 5204 N 497.742 0.78021 6.97751 0
M  V30 5205 H 502.582 1.52536 2.56002 0
M  V30 5206 H 500.119 0.76304 1.25762 0
M  V30 5207 H 502.077 -0.373497 4.15525 0
M  V30 5208 H 500.707 -0.844336 3.11562 0
M  V30 5209 H 499.759 1.54888 3.47439 0
M  V30 5210 H 501.071 1.82862 4.64072 0
M  V30 5211 H 500.225 -0.0463805 6.06682 0
M  V30 5212 H 498.964 -0.422038 4.8587 0
M  V30 5213 H 497.969 1.86124 5.17337 0
M  V30 5214 H 499.194 2.22854 6.41493 0
M  V30 5215 H 497.14 -0.0107899 6.55999 0
M  V30 5216 H 497.057 1.49716 7.41027 0
M  V30 5217 H 498.325 0.368996 7.78626 0
M  V30 5218 N 502.554 -1.34406 0.822964 0
M  V30 5219 C 503.965 -1.8069 0.469879 0
M  V30 5220 C 504.316 -1.68223 -1.00972 0
M  V30 5221 O 503.441 -1.22226 -1.78577 0
M  V30 5222 C 504.036 -3.28064 0.846118 0
M  V30 5223 C 502.595 -3.72428 0.545402 0
M  V30 5224 C 501.742 -2.56116 1.06301 0
M  V30 5225 H 504.693 -1.22153 1.01313 0
M  V30 5226 H 504.714 -3.80205 0.149922 0
M  V30 5227 H 504.226 -3.37107 1.92304 0
M  V30 5228 H 502.327 -3.68924 -0.522109 0
M  V30 5229 H 502.44 -4.66548 1.0895 0
M  V30 5230 H 500.804 -2.50048 0.484554 0
M  V30 5231 H 501.587 -2.67928 2.14638 0
M  V30 5232 N 504.032 -0.577932 -1.46621 0
M  V30 5233 C 505.278 -0.0700937 -2.03279 0
M  V30 5234 C 505.633 1.27376 -1.44198 0
M  V30 5235 O 504.926 1.82097 -0.595911 0
M  V30 5236 C 505.12 0.0590832 -3.57351 0
M  V30 5237 C 504.949 -1.2707 -4.31374 0
M  V30 5238 C 503.719 -1.84357 -4.70469 0
M  V30 5239 C 505.917 -2.19278 -4.65211 0
M  V30 5240 N 503.899 -3.11124 -5.29221 0
M  V30 5241 C 505.27 -3.30631 -5.24484 0
M  V30 5242 C 507.325 -2.19018 -4.47142 0
M  V30 5243 C 506.028 -4.41849 -5.67593 0
M  V30 5244 C 508.054 -3.29262 -4.91264 0
M  V30 5245 C 507.416 -4.39335 -5.50604 0
M  V30 5246 H 503.515 -0.0683127 -0.779011 0
M  V30 5247 H 506.099 -0.76978 -1.78836 0
M  V30 5248 H 504.27 0.727929 -3.81518 0
M  V30 5249 H 506.002 0.57087 -4.00653 0
M  V30 5250 H 502.757 -1.37906 -4.53077 0
M  V30 5251 H 503.181 -3.75794 -5.63123 0
M  V30 5252 H 507.823 -1.35191 -4.00604 0
M  V30 5253 H 505.541 -5.26421 -6.13112 0
M  V30 5254 H 509.127 -3.30172 -4.79038 0
M  V30 5255 H 508.007 -5.23233 -5.84121 0
M  V30 5256 N 505.51 1.54411 -0.315457 0
M  V30 5257 C 506.756 2.00716 0.289972 0
M  V30 5258 C 507.089 1.2034 1.5242 0
M  V30 5259 O 506.364 0.283579 1.92422 0
M  V30 5260 C 506.647 3.54507 0.632196 0
M  V30 5261 C 506.5 4.45615 -0.61218 0
M  V30 5262 C 507.819 4.15421 1.45305 0
M  V30 5263 H 504.938 0.729637 0.10392 0
M  V30 5264 H 507.58 1.8506 -0.430427 0
M  V30 5265 H 505.73 3.67979 1.24595 0
M  V30 5266 H 507.402 4.44026 -1.25053 0
M  V30 5267 H 505.645 4.15621 -1.24264 0
M  V30 5268 H 506.316 5.51022 -0.328379 0
M  V30 5269 H 508.792 4.05474 0.934331 0
M  V30 5270 H 507.668 5.23157 1.66127 0
M  V30 5271 H 507.929 3.68223 2.44671 0
M  V30 5272 N 506.988 0.0434614 1.5754 0
M  V30 5273 C 508.404 -0.313039 1.565 0
M  V30 5274 C 508.604 -1.71954 1.05043 0
M  V30 5275 O 507.66 -2.425 0.703564 0
M  V30 5276 C 508.973 -0.148544 3.00333 0
M  V30 5277 C 510.521 -0.220231 3.12224 0
M  V30 5278 C 510.996 -0.0843565 4.57922 0
M  V30 5279 N 512.487 -0.140881 4.62986 0
M  V30 5280 C 513.222 -0.0597443 5.73369 0
M  V30 5281 N 512.718 0.0733004 6.92761 0
M  V30 5282 N 514.511 -0.11477 5.61983 0
M  V30 5283 H 506.662 0.96303 1.89313 0
M  V30 5284 H 508.925 0.373164 0.871466 0
M  V30 5285 H 508.631 0.820894 3.41986 0
M  V30 5286 H 508.505 -0.912798 3.65989 0
M  V30 5287 H 510.892 -1.18014 2.70475 0
M  V30 5288 H 510.973 0.574646 2.49262 0
M  V30 5289 H 510.617 0.872192 5.00355 0
M  V30 5290 H 510.547 -0.898281 5.18882 0
M  V30 5291 H 513.038 -0.243273 3.77116 0
M  V30 5292 H 513.351 0.128128 7.72694 0
M  V30 5293 H 511.696 0.10828 6.94916 0
M  V30 5294 H 514.887 -0.217212 4.67596 0
M  V30 5295 H 515.06 -0.0480779 6.47982 0
M  V30 5296 N 508.466 -1.55915 -0.229846 0
M  V30 5297 C 509.429 -1.90914 -1.26824 0
M  V30 5298 C 510.429 -0.786999 -1.40225 0
M  V30 5299 O 511.619 -1.05484 -1.38632 0
M  V30 5300 C 508.751 -2.15264 -2.64337 0
M  V30 5301 H 509.944 -2.8378 -0.969998 0
M  V30 5302 H 507.497 -1.49069 -0.4699 0
M  V30 5303 H 508.232 -1.24923 -2.99274 0
M  V30 5304 H 508.017 -2.97005 -2.55989 0
M  V30 5305 H 509.507 -2.43467 -3.39284 0
M  V30 5306 N 509.944 0.496216 -1.49584 0
M  V30 5307 C 511.36 0.827814 -1.36453 0
M  V30 5308 C 511.56 1.97464 -0.401285 0
M  V30 5309 O 510.616 2.51958 0.165296 0
M  V30 5310 C 511.929 1.16352 -2.77277 0
M  V30 5311 C 513.477 1.27145 -2.86013 0
M  V30 5312 C 513.952 1.64042 -4.27615 0
M  V30 5313 N 515.443 1.71082 -4.30448 0
M  V30 5314 C 516.178 2.01085 -5.36984 0
M  V30 5315 N 515.674 2.2928 -6.5376 0
M  V30 5316 N 517.467 2.02376 -5.24405 0
M  V30 5317 H 509.618 -0.259947 -2.10803 0
M  V30 5318 H 511.881 -0.0537163 -0.946477 0
M  V30 5319 H 511.587 0.394153 -3.49484 0
M  V30 5320 H 511.461 2.10582 -3.12946 0
M  V30 5321 H 513.848 2.03152 -2.1404 0
M  V30 5322 H 513.929 0.309542 -2.5392 0
M  V30 5323 H 513.573 0.88583 -5.00115 0
M  V30 5324 H 513.503 2.6134 -4.57175 0
M  V30 5325 H 515.994 1.51434 -3.46232 0
M  V30 5326 H 516.307 2.51376 -7.30774 0
M  V30 5327 H 514.652 2.26726 -6.56978 0
M  V30 5328 H 517.843 1.79829 -4.32179 0
M  V30 5329 H 518.016 2.25425 -6.07526 0
M  V30 5330 N 511.423 1.38739 0.74761 0
M  V30 5331 C 512.386 1.36241 1.84312 0
M  V30 5332 C 513.386 0.261811 1.58654 0
M  V30 5333 O 514.576 0.519031 1.66288 0
M  V30 5334 C 511.708 1.12253 3.21888 0
M  V30 5335 H 512.901 2.33712 1.87933 0
M  V30 5336 H 510.454 1.2412 0.949946 0
M  V30 5337 H 511.189 0.154133 3.23934 0
M  V30 5338 H 510.974 1.91943 3.41907 0
M  V30 5339 H 512.464 1.13215 4.0196 0
M  V30 5340 N 512.901 -0.976442 1.23707 0
M  V30 5341 C 514.317 -1.24341 1.00058 0
M  V30 5342 C 514.517 -1.99315 -0.295932 0
M  V30 5343 O 513.573 -2.3123 -1.01435 0
M  V30 5344 C 514.886 -2.03909 2.21001 0
M  V30 5345 C 516.434 -2.17034 2.25534 0
M  V30 5346 C 516.909 -2.99994 3.46075 0
M  V30 5347 N 518.4 -3.07578 3.46338 0
M  V30 5348 C 519.135 -3.72104 4.36264 0
M  V30 5349 N 518.631 -4.3842 5.36432 0
M  V30 5350 N 520.424 -3.69029 4.23998 0
M  V30 5351 H 512.575 -0.47428 2.07037 0
M  V30 5352 H 514.838 -0.272167 0.908091 0
M  V30 5353 H 514.544 -1.56198 3.15111 0
M  V30 5354 H 514.418 -3.04654 2.22409 0
M  V30 5355 H 516.805 -2.63951 1.31961 0
M  V30 5356 H 516.886 -1.15664 2.28156 0
M  V30 5357 H 516.53 -2.53772 4.39957 0
M  V30 5358 H 516.46 -4.01541 3.40694 0
M  V30 5359 H 518.951 -2.60397 2.73865 0
M  V30 5360 H 519.264 -4.85447 6.013 0
M  V30 5361 H 517.609 -4.37116 5.40328 0
M  V30 5362 H 520.8 -3.16392 3.44984 0
M  V30 5363 H 520.973 -4.19034 4.94282 0
M  V30 5364 N 514.379 -1.04941 -1.1758 0
M  V30 5365 C 515.326 -0.648155 -2.21512 0
M  V30 5366 C 516.296 0.348431 -1.62404 0
M  V30 5367 O 517.481 0.240419 -1.89279 0
M  V30 5368 C 514.621 -0.0264291 -3.4509 0
M  V30 5369 C 513.734 -1.07154 -4.185 0
M  V30 5370 C 512.869 -0.417403 -5.29558 0
M  V30 5371 C 511.908 -1.447 -5.94751 0
M  V30 5372 N 511.045 -0.817203 -6.97328 0
M  V30 5373 H 515.885 -1.53891 -2.55189 0
M  V30 5374 H 513.422 -0.769699 -1.25356 0
M  V30 5375 H 515.38 0.351456 -4.15717 0
M  V30 5376 H 514.01 0.827802 -3.12005 0
M  V30 5377 H 513.062 -1.56728 -3.46613 0
M  V30 5378 H 514.374 -1.8532 -4.63096 0
M  V30 5379 H 513.528 0.0142061 -6.06698 0
M  V30 5380 H 512.267 0.396265 -4.86087 0
M  V30 5381 H 511.272 -1.88865 -5.16343 0
M  V30 5382 H 512.497 -2.26252 -6.40302 0
M  V30 5383 H 510.443 -0.0239995 -6.55996 0
M  V30 5384 H 510.36 -1.53644 -7.40223 0
M  V30 5385 H 511.628 -0.410283 -7.7842 0
M  V30 5386 N 515.857 1.33968 -0.830081 0
M  V30 5387 C 516.767 2.33164 -0.259207 0
M  V30 5388 C 517.783 1.62951 0.610164 0
M  V30 5389 O 518.959 1.94668 0.516369 0
M  V30 5390 C 516.024 3.42088 0.563598 0
M  V30 5391 C 515.085 4.28037 -0.329014 0
M  V30 5392 C 514.318 5.3176 0.454616 0
M  V30 5393 O 514.541 5.44876 1.6872 0
M  V30 5394 O 513.475 6.01669 -0.166794 0
M  V30 5395 H 517.301 2.83832 -1.08041 0
M  V30 5396 H 514.886 1.37154 -0.59239 0
M  V30 5397 H 516.768 4.08581 1.03147 0
M  V30 5398 H 515.443 2.93651 1.36201 0
M  V30 5399 H 514.35 3.64443 -0.844538 0
M  V30 5400 H 515.683 4.79934 -1.09196 0
M  V30 5401 N 517.335 0.585699 1.46312 0
M  V30 5402 C 518.565 0.0780166 2.06453 0
M  V30 5403 C 518.973 -1.2336 1.43454 0
M  V30 5404 O 518.316 -1.75734 0.535086 0
M  V30 5405 C 518.378 -0.158951 3.59148 0
M  V30 5406 C 518.042 1.06752 4.44357 0
M  V30 5407 C 519.039 1.98031 4.80708 0
M  V30 5408 C 516.724 1.2902 4.85447 0
M  V30 5409 C 518.718 3.09924 5.5698 0
M  V30 5410 C 516.405 2.41218 5.61478 0
M  V30 5411 C 517.403 3.31499 5.97158 0
M  V30 5412 O 517.091 4.41747 6.71651 0
M  V30 5413 H 516.823 0.0558894 0.673686 0
M  V30 5414 H 519.377 0.806994 1.88883 0
M  V30 5415 H 517.607 -0.942575 3.75037 0
M  V30 5416 H 519.296 -0.615513 4.01206 0
M  V30 5417 H 520.062 1.82043 4.49539 0
M  V30 5418 H 515.941 0.596567 4.57124 0
M  V30 5419 H 519.485 3.80415 5.84748 0
M  V30 5420 H 515.382 2.57167 5.9206 0
M  V30 5421 H 516.15 4.40152 6.90079 0
M  V30 5422 N 518.813 -1.54241 0.323641 0
M  V30 5423 C 520.059 -2.01572 -0.272089 0
M  V30 5424 C 520.414 -1.20774 -1.49771 0
M  V30 5425 O 519.707 -0.281821 -1.89516 0
M  V30 5426 C 519.901 -3.5129 -0.658031 0
M  V30 5427 C 519.73 -4.46582 0.528645 0
M  V30 5428 C 518.5 -4.94737 1.02777 0
M  V30 5429 C 520.698 -4.95416 1.38086 0
M  V30 5430 N 518.68 -5.73933 2.17885 0
M  V30 5431 C 520.051 -5.72537 2.3791 0
M  V30 5432 C 522.106 -4.77559 1.40861 0
M  V30 5433 C 520.809 -6.33702 3.40314 0
M  V30 5434 C 522.835 -5.39559 2.42136 0
M  V30 5435 C 522.197 -6.16532 3.40688 0
M  V30 5436 H 518.296 -0.779425 -0.0634072 0
M  V30 5437 H 520.88 -1.8922 0.458697 0
M  V30 5438 H 519.051 -3.63888 -1.35795 0
M  V30 5439 H 520.783 -3.85388 -1.23524 0
M  V30 5440 H 517.538 -4.69796 0.599046 0
M  V30 5441 H 517.962 -6.18209 2.75947 0
M  V30 5442 H 522.604 -4.17611 0.660352 0
M  V30 5443 H 520.322 -6.9277 4.16047 0
M  V30 5444 H 523.908 -5.27659 2.45086 0
M  V30 5445 H 522.788 -6.63655 4.1777 0
M  V30 5446 N 520.291 -0.0518155 -1.57515 0
M  V30 5447 C 521.201 0.937539 -2.15052 0
M  V30 5448 C 522.217 1.34121 -1.10849 0
M  V30 5449 O 523.393 1.418 -1.4302 0
M  V30 5450 C 520.458 2.19379 -2.68466 0
M  V30 5451 C 519.519 1.84841 -3.87469 0
M  V30 5452 C 518.752 3.04477 -4.38326 0
M  V30 5453 O 518.975 4.17868 -3.88256 0
M  V30 5454 O 517.909 2.85453 -5.29906 0
M  V30 5455 H 521.735 0.478201 -2.99912 0
M  V30 5456 H 519.32 0.17012 -1.48428 0
M  V30 5457 H 521.202 2.93084 -3.02787 0
M  V30 5458 H 519.877 2.64449 -1.86677 0
M  V30 5459 H 518.784 1.08449 -3.58036 0
M  V30 5460 H 520.117 1.44569 -4.7049 0
M  V30 5461 N 521.769 1.56035 0.221574 0
M  V30 5462 C 522.717 1.93269 1.29421 0
M  V30 5463 C 523.711 0.814727 1.48521 0
M  V30 5464 O 524.917 0.999559 1.49696 0
M  V30 5465 H 521.292 0.614188 0.43391 0
M  V30 5466 H 523.263 2.82773 0.952987 0
M  V30 5467 C 522.012 2.26573 2.63742 0
M  V30 5468 H 521.335 3.12112 2.49853 0
M  V30 5469 H 522.775 2.5651 3.37607 0
M  V30 5470 C 521.234 1.09086 3.1875 0
M  V30 5471 O 521.764 0.351985 4.00155 0
M  V30 5472 N 519.97 0.874693 2.77124 0
M  V30 5473 H 519.517 1.47726 2.11033 0
M  V30 5474 H 519.475 0.0903349 3.1427 0
M  V30 5475 N 523.247 -0.488276 1.49845 0
M  V30 5476 C 524.177 -1.59675 1.70371 0
M  V30 5477 C 525.158 -1.60878 0.552473 0
M  V30 5478 O 526.343 -1.77417 0.78973 0
M  V30 5479 C 523.473 -2.98098 1.782 0
M  V30 5480 C 522.427 -3.11761 2.93239 0
M  V30 5481 C 521.753 -4.51661 2.86193 0
M  V30 5482 C 523.053 -2.90589 4.33999 0
M  V30 5483 H 524.747 -1.42752 2.63177 0
M  V30 5484 H 522.293 -0.685317 1.26647 0
M  V30 5485 H 524.246 -3.75555 1.91144 0
M  V30 5486 H 522.97 -3.16138 0.820018 0
M  V30 5487 H 521.629 -2.36732 2.79917 0
M  V30 5488 H 521.277 -4.66595 1.87877 0
M  V30 5489 H 520.977 -4.61742 3.63412 0
M  V30 5490 H 522.501 -5.31162 3.01163 0
M  V30 5491 H 523.915 -3.57807 4.47936 0
M  V30 5492 H 522.312 -3.1213 5.12538 0
M  V30 5493 H 523.382 -1.86595 4.4756 0
M  V30 5494 N 524.725 -1.39134 -0.740242 0
M  V30 5495 C 526.141 -1.20623 -1.0451 0
M  V30 5496 C 526.341 -0.0641651 -2.01398 0
M  V30 5497 O 525.397 0.585843 -2.4561 0
M  V30 5498 C 526.71 -2.53815 -1.6124 0
M  V30 5499 C 528.258 -2.60615 -1.73346 0
M  V30 5500 C 528.733 -3.94015 -2.33486 0
M  V30 5501 N 530.224 -3.95627 -2.40902 0
M  V30 5502 C 530.959 -4.95616 -2.88361 0
M  V30 5503 N 530.455 -6.06003 -3.35756 0
M  V30 5504 N 532.248 -4.82998 -2.87523 0
M  V30 5505 H 524.399 -2.12176 -0.0975576 0
M  V30 5506 H 526.662 -0.942066 -0.105904 0
M  V30 5507 H 526.368 -3.37911 -0.975144 0
M  V30 5508 H 526.242 -2.73162 -2.6012 0
M  V30 5509 H 528.629 -1.76906 -2.36195 0
M  V30 5510 H 528.71 -2.45123 -0.731336 0
M  V30 5511 H 528.354 -4.78153 -1.71267 0
M  V30 5512 H 528.284 -4.06825 -3.34366 0
M  V30 5513 H 530.775 -3.15903 -2.07398 0
M  V30 5514 H 531.088 -6.78215 -3.70464 0
M  V30 5515 H 529.433 -6.09604 -3.33778 0
M  V30 5516 H 532.624 -3.95866 -2.49816 0
M  V30 5517 H 532.797 -5.61072 -3.24196 0
M  V30 5518 N 526.204 0.969867 -1.24223 0
M  V30 5519 C 527.453 1.70687 -1.07466 0
M  V30 5520 C 527.766 1.91736 0.386861 0
M  V30 5521 O 528.972 2.62986 0.674581 0
M  V30 5522 C 527.428 3.07217 -1.87472 0
M  V30 5523 C 527.036 2.94018 -3.3802 0
M  V30 5524 C 528.78 3.84804 -1.79237 0
M  V30 5525 C 526.687 4.25844 -4.10379 0
M  V30 5526 H 525.617 0.640067 -0.398536 0
M  V30 5527 H 528.268 1.08092 -1.48285 0
M  V30 5528 H 526.65 3.70628 -1.39466 0
M  V30 5529 H 527.824 2.39632 -3.9359 0
M  V30 5530 H 526.139 2.29898 -3.47183 0
M  V30 5531 H 528.736 4.82417 -2.30603 0
M  V30 5532 H 529.079 4.09356 -0.757197 0
M  V30 5533 H 529.612 3.28115 -2.24912 0
M  V30 5534 H 526.351 4.06486 -5.14246 0
M  V30 5535 H 525.871 4.80054 -3.59594 0
M  V30 5536 H 527.55 4.94475 -4.17257 0
M  V30 5537 N 527.682 1.05563 1.17022 0
M  V30 5538 C 528.645 0.664098 2.19368 0
M  V30 5539 C 529.645 -0.286358 1.5823 0
M  V30 5540 O 530.835 -0.069728 1.7406 0
M  V30 5541 C 527.967 -0.0239932 3.40892 0
M  V30 5542 H 529.16 1.57 2.55521 0
M  V30 5543 H 526.713 0.849964 1.31169 0
M  V30 5544 H 527.448 -0.942988 3.10287 0
M  V30 5545 H 527.233 0.659351 3.86516 0
M  V30 5546 H 528.723 -0.283909 4.16634 0
M  V30 5547 N 529.16 -1.33526 0.837174 0
M  V30 5548 C 530.385 -2.0258 0.444545 0
M  V30 5549 C 530.81 -1.6258 -0.946006 0
M  V30 5550 O 530.168 -0.817548 -1.6182 0
M  V30 5551 C 530.216 -3.5605 0.571006 0
M  V30 5552 O 529.32 -4.10422 -0.403431 0
M  V30 5553 H 528.661 -0.638866 0.180958 0
M  V30 5554 H 531.191 -1.70462 1.13154 0
M  V30 5555 H 531.201 -4.05488 0.452024 0
M  V30 5556 H 529.876 -3.84509 1.58512 0
M  V30 5557 H 528.453 -3.72113 -0.242147 0
M  V30 5558 N 530.638 -0.59345 -1.46 0
M  V30 5559 C 531.886 -0.082988 -2.0193 0
M  V30 5560 C 532.207 1.28569 -1.46612 0
M  V30 5561 O 531.477 1.84629 -0.654909 0
M  V30 5562 H 530.057 -0.0276882 -0.746487 0
M  V30 5563 H 532.719 -0.771657 -1.78973 0
M  V30 5564 H 531.815 -0.022079 -3.12092 0
M  V30 5565 N 532.116 1.54067 -0.331816 0
M  V30 5566 C 533.532 1.59587 0.0205388 0
M  V30 5567 C 533.732 1.34813 1.49759 0
M  V30 5568 O 532.788 1.13661 2.25471 0
M  V30 5569 C 534.101 2.97959 -0.405103 0
M  V30 5570 C 535.649 3.10964 -0.356454 0
M  V30 5571 C 536.124 4.51694 -0.757384 0
M  V30 5572 N 537.615 4.57709 -0.71111 0
M  V30 5573 C 538.35 5.64729 -0.993427 0
M  V30 5574 N 537.846 6.79652 -1.3433 0
M  V30 5575 N 539.639 5.54546 -0.918442 0
M  V30 5576 H 531.79 1.68426 -1.29407 0
M  V30 5577 H 534.053 0.78819 -0.526745 0
M  V30 5578 H 533.759 3.21115 -1.43451 0
M  V30 5579 H 533.633 3.76524 0.225692 0
M  V30 5580 H 536.02 2.87538 0.663763 0
M  V30 5581 H 536.101 2.34484 -1.02229 0
M  V30 5582 H 535.745 4.75853 -1.77555 0
M  V30 5583 H 535.675 5.26555 -0.0691444 0
M  V30 5584 H 538.166 3.75176 -0.452883 0
M  V30 5585 H 538.479 7.57221 -1.54388 0
M  V30 5586 H 536.824 6.81128 -1.38164 0
M  V30 5587 H 540.015 4.63641 -0.644536 0
M  V30 5588 H 540.188 6.37861 -1.14181 0
M  V30 5589 N 533.594 0.0601682 1.57485 0
M  V30 5590 C 535.005 -0.474217 1.80577 0
M  V30 5591 C 535.356 -1.70365 0.973147 0
M  V30 5592 O 534.481 -2.15544 0.192306 0
M  V30 5593 C 535.076 -0.867102 3.27516 0
M  V30 5594 C 533.635 -1.34642 3.51495 0
M  V30 5595 C 532.782 -0.32594 2.75378 0
M  V30 5596 H 535.733 0.285973 1.56102 0
M  V30 5597 H 535.754 -1.72938 3.38929 0
M  V30 5598 H 535.266 0.0278927 3.8809 0
M  V30 5599 H 533.367 -2.2603 2.96212 0
M  V30 5600 H 533.48 -1.33237 4.60201 0
M  V30 5601 H 531.844 -0.800749 2.41785 0
M  V30 5602 H 532.627 0.561125 3.38683 0
M  V30 5603 N 535.072 -1.5615 -0.213296 0
M  V30 5604 C 536.302 -1.83372 -0.951757 0
M  V30 5605 C 536.71 -0.638158 -1.78113 0
M  V30 5606 O 536.053 0.402609 -1.79234 0
M  V30 5607 C 536.115 -3.04444 -1.91192 0
M  V30 5608 C 535.779 -4.39107 -1.26627 0
M  V30 5609 C 536.776 -5.15794 -0.652087 0
M  V30 5610 C 534.461 -4.85834 -1.27556 0
M  V30 5611 C 536.455 -6.37376 -0.055814 0
M  V30 5612 C 534.142 -6.07356 -0.675451 0
M  V30 5613 C 535.14 -6.82967 -0.0666367 0
M  V30 5614 O 534.828 -8.0219 0.524119 0
M  V30 5615 H 534.56 -0.613398 -0.284111 0
M  V30 5616 H 537.114 -2.04096 -0.231112 0
M  V30 5617 H 535.344 -2.79559 -2.67178 0
M  V30 5618 H 537.033 -3.18466 -2.51662 0
M  V30 5619 H 537.799 -4.80796 -0.637172 0
M  V30 5620 H 533.678 -4.26949 -1.73883 0
M  V30 5621 H 537.222 -6.96334 0.420004 0
M  V30 5622 H 533.119 -6.41825 -0.687806 0
M  V30 5623 H 533.887 -8.17426 0.419243 0
M  V30 5624 N 536.55 0.480323 -1.50102 0
M  V30 5625 C 537.498 1.60024 -1.68805 0
M  V30 5626 C 538.492 1.60089 -0.553888 0
M  V30 5627 O 539.698 1.64349 -0.734127 0
M  V30 5628 H 536.073 0.530841 -0.532646 0
M  V30 5629 H 538.044 1.41408 -2.62767 0
M  V30 5630 C 536.793 2.98029 -1.79092 0
M  V30 5631 H 536.116 2.98694 -2.65748 0
M  V30 5632 H 537.556 3.75871 -1.96206 0
M  V30 5633 C 536.015 3.32538 -0.540388 0
M  V30 5634 O 536.545 4.00386 0.324637 0
M  V30 5635 N 534.751 2.87873 -0.397154 0
M  V30 5636 H 534.298 2.32834 -1.1021 0
M  V30 5637 H 534.256 3.11328 0.438425 0
M  V30 5638 N 538.028 1.39524 0.732853 0
M  V30 5639 C 539.439 1.32905 1.31122 0
M  V30 5640 C 539.79 -0.00558708 1.96199 0
M  V30 5641 O 538.915 -0.907706 1.96443 0
M  V30 5642 C 539.51 2.40704 2.38426 0
M  V30 5643 C 538.069 2.37599 2.91931 0
M  V30 5644 C 537.216 2.2248 1.65523 0
M  V30 5645 H 540.167 1.49581 0.530207 0
M  V30 5646 H 540.188 2.07616 3.18867 0
M  V30 5647 H 539.7 3.37829 1.91033 0
M  V30 5648 H 537.801 1.44119 3.43599 0
M  V30 5649 H 537.914 3.32538 3.44899 0
M  V30 5650 H 536.278 1.69691 1.8994 0
M  V30 5651 H 537.061 3.21577 1.20178 0
M  V30 5652 N 539.506 -0.963266 1.24736 0
M  V30 5653 C 540.731 -1.74699 1.11781 0
M  V30 5654 C 541.156 -1.85267 -0.325258 0
M  V30 5655 O 540.514 -1.32681 -1.23553 0
M  V30 5656 C 540.562 -3.14322 1.76731 0
M  V30 5657 O 539.666 -3.99043 1.04109 0
M  V30 5658 H 539.007 -0.53684 0.390767 0
M  V30 5659 H 541.537 -1.20801 1.65131 0
M  V30 5660 H 541.547 -3.64824 1.82668 0
M  V30 5661 H 540.222 -3.05946 2.81726 0
M  V30 5662 H 538.799 -3.5752 1.05991 0
M  V30 5663 N 540.985 -1.06182 -1.16461 0
M  V30 5664 C 541.918 -0.615859 -2.19733 0
M  V30 5665 C 542.896 0.360766 -1.58547 0
M  V30 5666 O 544.08 0.270009 -1.86556 0
M  V30 5667 C 541.207 0.097312 -3.3856 0
M  V30 5668 C 540.253 -0.835889 -4.18229 0
M  V30 5669 S 541.086 -2.33052 -4.82128 0
M  V30 5670 C 542.242 -1.62881 -6.04335 0
M  V30 5671 H 542.475 -1.49079 -2.57221 0
M  V30 5672 H 540.008 -0.874692 -1.27234 0
M  V30 5673 H 541.966 0.502563 -4.07412 0
M  V30 5674 H 540.627 0.948418 -2.99439 0
M  V30 5675 H 539.82 -0.283426 -5.03202 0
M  V30 5676 H 539.422 -1.18097 -3.54865 0
M  V30 5677 H 541.714 -0.933764 -6.71034 0
M  V30 5678 H 542.657 -2.45641 -6.64128 0
M  V30 5679 H 543.065 -1.11189 -5.53441 0
M  V30 5680 N 542.463 1.3308 -0.844243 0
M  V30 5681 C 543.688 2.02341 -0.455282 0
M  V30 5682 C 544.113 1.6308 0.93737 0
M  V30 5683 O 543.471 0.826118 1.61385 0
M  V30 5684 C 543.519 3.55743 -0.58988 0
M  V30 5685 O 542.623 4.1063 0.38166 0
M  V30 5686 H 541.964 0.637898 -0.184343 0
M  V30 5687 H 544.494 1.6986 -1.14056 0
M  V30 5688 H 544.504 4.05243 -0.473522 0
M  V30 5689 H 543.179 3.83662 -1.60549 0
M  V30 5690 H 541.756 3.72236 0.22241 0
M  V30 5691 N 543.941 0.601185 1.45683 0
M  V30 5692 C 544.888 -0.121396 2.30481 0
M  V30 5693 C 545.858 -0.866232 1.41724 0
M  V30 5694 O 547.043 -0.85324 1.70659 0
M  V30 5695 C 544.183 -1.11704 3.26521 0
M  V30 5696 C 543.296 -0.373741 4.3038 0
M  V30 5697 C 542.431 -1.35854 5.13534 0
M  V30 5698 C 541.47 -0.602689 6.09126 0
M  V30 5699 N 540.607 -1.53645 6.85082 0
M  V30 5700 H 545.447 0.607732 2.91737 0
M  V30 5701 H 542.984 0.311502 1.43764 0
M  V30 5702 H 544.942 -1.70735 3.80664 0
M  V30 5703 H 543.572 -1.81366 2.67032 0
M  V30 5704 H 542.624 0.331962 3.78949 0
M  V30 5705 H 543.936 0.2163 4.98331 0
M  V30 5706 H 543.09 -2.02111 5.72046 0
M  V30 5707 H 541.829 -1.98251 4.45587 0
M  V30 5708 H 540.834 0.0735482 5.49751 0
M  V30 5709 H 542.059 0.0161467 6.79098 0
M  V30 5710 H 540.005 -2.14819 6.1983 0
M  V30 5711 H 539.922 -0.999688 7.49361 0
M  V30 5712 H 541.19 -2.1888 7.48139 0
M  V30 5713 N 545.419 -1.53889 0.339982 0
M  V30 5714 C 546.83 -1.86139 -0.144671 0
M  V30 5715 C 547.181 -1.2613 -1.50285 0
M  V30 5716 O 546.306 -0.573515 -2.08662 0
M  V30 5717 C 546.901 -3.37728 -0.269285 0
M  V30 5718 C 545.46 -3.69868 -0.698168 0
M  V30 5719 C 544.607 -2.76777 0.170249 0
M  V30 5720 H 547.558 -1.48503 0.559704 0
M  V30 5721 H 547.579 -3.64331 -1.0974 0
M  V30 5722 H 547.091 -3.81375 0.719366 0
M  V30 5723 H 545.192 -3.31764 -1.69597 0
M  V30 5724 H 545.305 -4.76582 -0.490533 0
M  V30 5725 H 543.669 -2.52188 -0.356844 0
M  V30 5726 H 544.452 -3.23253 1.15597 0
M  V30 5727 N 546.897 -0.0685191 -1.57451 0
M  V30 5728 C 548.174 0.642167 -1.84758 0
M  V30 5729 C 548.554 1.87991 -0.960344 0
M  V30 5730 O 547.902 2.28485 -0.0257894 0
M  V30 5731 C 548.112 0.982946 -3.34872 0
M  V30 5732 C 549.46 1.35784 -4.02303 0
M  V30 5733 O 550.484 1.07477 -3.39598 0
M  V30 5734 O 549.343 1.88681 -5.12895 0
M  V30 5735 H 546.437 0.318625 -0.763156 0
M  V30 5736 H 548.983 -0.0992015 -1.6941 0
M  V30 5737 H 547.755 0.10372 -3.91163 0
M  V30 5738 H 547.378 1.78119 -3.55471 0
M  V30 5739 N 548.375 1.56261 0.205012 0
M  V30 5740 C 549.623 1.79684 0.925096 0
M  V30 5741 C 549.944 0.63989 1.84202 0
M  V30 5742 O 549.214 -0.342345 1.92885 0
M  V30 5743 H 547.794 0.662774 0.344587 0
M  V30 5744 H 550.456 1.93734 0.212899 0
M  V30 5745 H 549.552 2.72467 1.52211 0
M  V30 5746 N 549.853 -0.472356 1.50355 0
M  V30 5747 C 551.099 -1.22348 1.62488 0
M  V30 5748 C 551.454 -1.89711 0.320574 0
M  V30 5749 O 550.747 -1.79074 -0.68141 0
M  V30 5750 C 550.941 -2.29257 2.74182 0
M  V30 5751 C 550.77 -1.72383 4.15348 0
M  V30 5752 C 549.54 -1.52411 4.81766 0
M  V30 5753 C 551.738 -1.21949 4.99633 0
M  V30 5754 N 549.72 -0.907669 6.07153 0
M  V30 5755 C 551.091 -0.726191 6.15732 0
M  V30 5756 C 553.146 -1.10792 4.85417 0
M  V30 5757 C 551.849 -0.132322 7.19178 0
M  V30 5758 C 553.875 -0.52799 5.89038 0
M  V30 5759 C 553.237 -0.0450604 7.04386 0
M  V30 5760 H 549.336 -0.436631 0.648751 0
M  V30 5761 H 551.92 -0.525698 1.87469 0
M  V30 5762 H 550.091 -2.96464 2.50926 0
M  V30 5763 H 551.823 -2.9628 2.75681 0
M  V30 5764 H 548.578 -1.776 4.39039 0
M  V30 5765 H 549.002 -0.617897 6.74174 0
M  V30 5766 H 553.644 -1.46722 3.96525 0
M  V30 5767 H 551.362 0.239187 8.07746 0
M  V30 5768 H 554.948 -0.444046 5.80103 0
M  V30 5769 H 553.828 0.396659 7.83196 0
M  V30 5770 N 551.331 -1.39911 -0.725443 0
M  V30 5771 C 552.579 -1.37382 -1.48224 0
M  V30 5772 C 552.9 0.0264107 -1.94982 0
M  V30 5773 O 552.17 0.979408 -1.6966 0
M  V30 5774 H 550.75 -0.505596 -0.549892 0
M  V30 5775 H 553.412 -1.7487 -0.860608 0
M  V30 5776 H 552.508 -2.04254 -2.3598 0
M  V30 5777 N 552.809 0.956637 -1.25245 0
M  V30 5778 C 554.055 1.70352 -1.10036 0
M  V30 5779 C 554.388 1.90869 0.358156 0
M  V30 5780 O 553.663 1.47819 1.26411 0
M  V30 5781 C 553.946 3.08766 -1.85298 0
M  V30 5782 C 553.799 2.95672 -3.38966 0
M  V30 5783 C 555.118 4.08622 -1.63451 0
M  V30 5784 H 552.237 0.618279 -0.401123 0
M  V30 5785 H 554.879 1.11212 -1.54051 0
M  V30 5786 H 553.029 3.59252 -1.47887 0
M  V30 5787 H 554.701 2.52527 -3.86041 0
M  V30 5788 H 552.944 2.31634 -3.6678 0
M  V30 5789 H 553.615 3.93776 -3.86839 0
M  V30 5790 H 556.091 3.67038 -1.96015 0
M  V30 5791 H 554.967 5.03514 -2.18551 0
M  V30 5792 H 555.228 4.3834 -0.575357 0
M  V30 5793 N 554.287 1.06798 1.15896 0
M  V30 5794 C 555.515 0.808694 1.90441 0
M  V30 5795 C 555.93 -0.637506 1.77711 0
M  V30 5796 O 555.287 -1.43684 1.12522 0
M  V30 5797 C 555.338 1.20068 3.40978 0
M  V30 5798 O 555.059 2.59013 3.53333 0
M  V30 5799 C 556.56 0.96987 4.3256 0
M  V30 5800 H 553.78 0.292809 0.603742 0
M  V30 5801 H 556.324 1.42296 1.46874 0
M  V30 5802 H 554.479 0.630842 3.82229 0
M  V30 5803 H 554.893 2.7485 4.46719 0
M  V30 5804 H 556.367 1.29371 5.36626 0
M  V30 5805 H 556.844 -0.0941209 4.39099 0
M  V30 5806 H 557.45 1.52433 3.97044 0
M  V30 5807 N 555.766 -1.3263 0.851289 0
M  V30 5808 C 556.713 -2.28952 0.291469 0
M  V30 5809 C 557.683 -1.54897 -0.599676 0
M  V30 5810 O 558.868 -1.83137 -0.535305 0
M  V30 5811 C 556.008 -3.41206 -0.516992 0
M  V30 5812 C 555.121 -4.30148 0.399566 0
M  V30 5813 C 554.256 -5.29527 -0.4212 0
M  V30 5814 C 553.295 -6.10112 0.492969 0
M  V30 5815 N 552.432 -7.01499 -0.290414 0
M  V30 5816 H 557.272 -2.76228 1.11813 0
M  V30 5817 H 554.809 -1.35907 0.562826 0
M  V30 5818 H 556.767 -4.05005 -1.00132 0
M  V30 5819 H 555.397 -2.9509 -1.30851 0
M  V30 5820 H 554.449 -3.66959 1.00227 0
M  V30 5821 H 555.761 -4.8649 1.1013 0
M  V30 5822 H 554.915 -5.98914 -0.968832 0
M  V30 5823 H 553.654 -4.73794 -1.15632 0
M  V30 5824 H 552.659 -5.39632 1.05251 0
M  V30 5825 H 553.884 -6.6793 1.22664 0
M  V30 5826 H 551.83 -6.48199 -1.00868 0
M  V30 5827 H 551.747 -7.55178 0.352354 0
M  V30 5828 H 553.015 -7.75176 -0.819882 0
M  V30 5829 N 557.244 -0.608902 -1.45362 0
M  V30 5830 C 558.492 -0.104401 -2.0183 0
M  V30 5831 C 558.813 1.27007 -1.47967 0
M  V30 5832 O 558.083 1.83924 -0.674455 0
M  V30 5833 H 556.663 -0.0356042 -0.746151 0
M  V30 5834 H 559.325 -0.790596 -1.78145 0
M  V30 5835 H 558.421 -0.0551793 -3.12051 0
M  V30 5836 N 558.722 1.53707 -0.348139 0
M  V30 5837 C 559.95 2.05406 0.248224 0
M  V30 5838 C 560.365 1.22282 1.43849 0
M  V30 5839 O 559.722 0.259244 1.80649 0
M  V30 5840 C 559.773 3.55446 0.658793 0
M  V30 5841 O 559.494 4.35417 -0.484149 0
M  V30 5842 C 560.995 4.23335 1.31539 0
M  V30 5843 H 558.215 0.669344 0.0471075 0
M  V30 5844 H 560.759 1.98257 -0.501456 0
M  V30 5845 H 558.914 3.62803 1.35841 0
M  V30 5846 H 559.328 5.24268 -0.155949 0
M  V30 5847 H 560.802 5.29692 1.55338 0
M  V30 5848 H 561.279 3.75967 2.27036 0
M  V30 5849 H 561.885 4.20184 0.657683 0
M  V30 5850 N 560.2 0.0768682 1.57412 0
M  V30 5851 C 561.163 -0.873949 2.11884 0
M  V30 5852 C 562.163 -1.22301 1.04398 0
M  V30 5853 O 563.353 -1.15545 1.30365 0
M  V30 5854 C 560.485 -2.17575 2.62438 0
M  V30 5855 H 561.678 -0.401278 2.97203 0
M  V30 5856 H 559.231 -0.171904 1.55352 0
M  V30 5857 H 559.966 -2.69368 1.80587 0
M  V30 5858 H 559.751 -1.93534 3.41009 0
M  V30 5859 H 561.241 -2.85631 3.04639 0
M  V30 5860 N 561.678 -1.56367 -0.196722 0
M  V30 5861 C 562.588 -1.97617 -1.2643 0
M  V30 5862 C 563.604 -0.883598 -1.49895 0
M  V30 5863 O 564.78 -1.18921 -1.62541 0
M  V30 5864 C 561.845 -2.30595 -2.58895 0
M  V30 5865 C 560.906 -3.53551 -2.43516 0
M  V30 5866 C 560.139 -3.84946 -3.69665 0
M  V30 5867 O 560.362 -3.17655 -4.73763 0
M  V30 5868 O 559.296 -4.78379 -3.65291 0
M  V30 5869 H 563.122 -2.88648 -0.944233 0
M  V30 5870 H 560.707 -1.43901 -0.401592 0
M  V30 5871 H 562.589 -2.52889 -3.37083 0
M  V30 5872 H 561.264 -1.42732 -2.90533 0
M  V30 5873 H 560.171 -3.36507 -1.63445 0
M  V30 5874 H 561.504 -4.41875 -2.16812 0
M  V30 5875 N 563.156 0.464375 -1.50603 0
M  V30 5876 C 564.086 1.56944 -1.72889 0
M  V30 5877 C 565.067 1.59979 -0.577997 0
M  V30 5878 O 566.252 1.76138 -0.817855 0
M  V30 5879 C 563.382 2.95225 -1.8292 0
M  V30 5880 C 562.336 3.07056 -2.98162 0
M  V30 5881 C 561.662 4.47051 -2.93343 0
M  V30 5882 C 562.962 2.83648 -4.38567 0
M  V30 5883 H 564.656 1.38547 -2.65415 0
M  V30 5884 H 562.202 0.665082 -1.27721 0
M  V30 5885 H 564.155 3.72467 -1.97095 0
M  V30 5886 H 562.879 3.14793 -0.870209 0
M  V30 5887 H 561.538 2.32248 -2.83648 0
M  V30 5888 H 561.186 4.63547 -1.95276 0
M  V30 5889 H 560.886 4.55902 -3.70712 0
M  V30 5890 H 562.41 5.26304 -3.09575 0
M  V30 5891 H 563.824 3.50636 -4.53572 0
M  V30 5892 H 562.221 3.03937 -5.17438 0
M  V30 5893 H 563.291 1.79451 -4.50472 0
M  V30 5894 N 564.634 1.40294 0.718013 0
M  V30 5895 C 565.567 1.34767 1.84155 0
M  V30 5896 C 566.545 0.218455 1.61126 0
M  V30 5897 O 567.729 0.401716 1.8417 0
M  V30 5898 C 564.856 1.09676 3.20451 0
M  V30 5899 C 563.902 2.25016 3.62312 0
M  V30 5900 S 564.735 3.87397 3.69707 0
M  V30 5901 C 565.891 3.64565 5.08766 0
M  V30 5902 H 566.124 2.29851 1.88562 0
M  V30 5903 H 563.657 1.2655 0.884555 0
M  V30 5904 H 565.615 0.95885 3.99144 0
M  V30 5905 H 564.276 0.162502 3.13679 0
M  V30 5906 H 563.469 2.03097 4.61268 0
M  V30 5907 H 563.071 2.35098 2.90869 0
M  V30 5908 H 565.363 3.22882 5.95612 0
M  V30 5909 H 566.306 4.63043 5.35721 0
M  V30 5910 H 566.714 2.98303 4.79245 0
M  V30 5911 N 566.112 -0.949982 1.2575 0
M  V30 5912 C 567.044 -2.05088 1.02331 0
M  V30 5913 C 568.057 -1.62795 -0.0133247 0
M  V30 5914 O 569.246 -1.77067 0.225759 0
M  V30 5915 C 566.346 -3.34794 0.525924 0
M  V30 5916 C 565.519 -4.05903 1.62978 0
M  V30 5917 C 564.578 -5.1388 1.13196 0
M  V30 5918 O 563.604 -5.39072 1.82729 0
M  V30 5919 N 564.806 -5.80495 -0.0242926 0
M  V30 5920 H 567.571 -2.25747 1.97125 0
M  V30 5921 H 565.132 -1.11886 1.17018 0
M  V30 5922 H 567.124 -4.04312 0.177263 0
M  V30 5923 H 565.694 -3.10872 -0.328202 0
M  V30 5924 H 564.914 -3.3042 2.1498 0
M  V30 5925 H 566.202 -4.50166 2.37124 0
M  V30 5926 H 565.6 -5.62454 -0.605184 0
M  V30 5927 H 564.157 -6.51043 -0.313947 0
M  V30 5928 N 567.59 -1.07411 -1.15328 0
M  V30 5929 C 568.522 -0.652924 -2.19703 0
M  V30 5930 C 569.535 0.294869 -1.60107 0
M  V30 5931 O 570.724 0.0840932 -1.78302 0
M  V30 5932 C 567.824 0.061434 -3.38844 0
M  V30 5933 C 566.997 -0.902696 -4.27984 0
M  V30 5934 C 566.056 -0.225521 -5.25717 0
M  V30 5935 O 565.082 -0.86676 -5.62562 0
M  V30 5936 N 566.284 1.02858 -5.71315 0
M  V30 5937 H 569.049 -1.55081 -2.56457 0
M  V30 5938 H 566.61 -0.958883 -1.30449 0
M  V30 5939 H 568.602 0.525145 -4.01278 0
M  V30 5940 H 567.172 0.861269 -3.00501 0
M  V30 5941 H 566.392 -1.54551 -3.6264 0
M  V30 5942 H 567.68 -1.55636 -4.84412 0
M  V30 5943 H 567.078 1.56948 -5.43492 0
M  V30 5944 H 565.635 1.43596 -6.35786 0
M  V30 5945 N 569.068 1.32177 -0.85831 0
M  V30 5946 C 570.015 2.28794 -0.303607 0
M  V30 5947 C 570.985 1.55213 0.591453 0
M  V30 5948 O 572.17 1.83418 0.525585 0
M  V30 5949 C 569.31 3.41475 0.49889 0
M  V30 5950 C 568.423 4.2993 -0.422373 0
M  V30 5951 C 567.558 5.29743 0.393111 0
M  V30 5952 C 566.597 6.09842 -0.525317 0
M  V30 5953 N 565.734 7.01643 0.253208 0
M  V30 5954 H 570.574 2.75631 -1.13276 0
M  V30 5955 H 568.111 1.35606 -0.570026 0
M  V30 5956 H 570.069 4.05531 0.979826 0
M  V30 5957 H 568.699 2.95779 1.29284 0
M  V30 5958 H 567.751 3.66422 -1.02171 0
M  V30 5959 H 569.063 4.85899 -1.12709 0
M  V30 5960 H 568.217 5.9942 0.937056 0
M  V30 5961 H 566.956 4.744 1.13117 0
M  V30 5962 H 565.961 5.39066 -1.08112 0
M  V30 5963 H 567.186 6.6727 -1.26205 0
M  V30 5964 H 565.132 6.48725 0.974295 0
M  V30 5965 H 565.049 7.54981 -0.392398 0
M  V30 5966 H 566.317 7.756 0.778761 0
M  V30 5967 N 570.547 0.616602 1.45037 0
M  V30 5968 C 571.457 -0.0985401 2.34393 0
M  V30 5969 C 572.473 -0.850971 1.51771 0
M  V30 5970 O 573.649 -0.806521 1.84546 0
M  V30 5971 C 570.714 -1.07748 3.29532 0
M  V30 5972 C 569.775 -0.326022 4.2806 0
M  V30 5973 C 569.008 -1.25833 5.18654 0
M  V30 5974 O 569.231 -2.49652 5.12864 0
M  V30 5975 O 568.165 -0.750512 5.97203 0
M  V30 5976 H 571.991 0.636016 2.96966 0
M  V30 5977 H 569.576 0.376832 1.44569 0
M  V30 5978 H 571.458 -1.64107 3.88133 0
M  V30 5979 H 570.133 -1.79291 2.69512 0
M  V30 5980 H 569.04 0.280253 3.73049 0
M  V30 5981 H 570.373 0.349091 4.9096 0
M  V30 5982 N 572.025 -1.5352 0.356285 0
M  V30 5983 C 572.988 -2.24071 -0.482182 0
M  V30 5984 C 573.988 -1.24531 -1.01729 0
M  V30 5985 O 575.178 -1.48876 -0.904513 0
M  V30 5986 C 572.31 -2.97025 -1.67299 0
M  V30 5987 H 573.503 -2.99596 0.135031 0
M  V30 5988 H 571.056 -1.55928 0.107825 0
M  V30 5989 H 571.791 -2.25719 -2.32855 0
M  V30 5990 H 571.576 -3.7005 -1.29636 0
M  V30 5991 H 573.066 -3.50683 -2.26741 0
M  V30 5992 N 573.503 -0.0852151 -1.57369 0
M  V30 5993 C 574.731 0.58946 -1.98325 0
M  V30 5994 C 575.146 1.62333 -0.96403 0
M  V30 5995 O 574.503 1.82438 0.0476395 0
M  V30 5996 C 574.554 1.24604 -3.39347 0
M  V30 5997 O 574.275 0.253532 -4.37366 0
M  V30 5998 C 575.776 2.00726 -3.95252 0
M  V30 5999 H 572.996 0.158783 -0.651942 0
M  V30 6000 H 575.54 -0.161584 -2.03861 0
M  V30 6001 H 573.695 1.94808 -3.34856 0
M  V30 6002 H 574.109 0.726207 -5.19448 0
M  V30 6003 H 575.583 2.42039 -4.96106 0
M  V30 6004 H 576.06 2.86919 -3.32527 0
M  V30 6005 H 576.666 1.3536 -4.03185 0
M  V30 6006 N 574.981 1.5647 0.188427 0
M  V30 6007 C 576.209 1.85131 0.923803 0
M  V30 6008 C 576.624 0.668537 1.76567 0
M  V30 6009 O 575.981 -0.362662 1.7886 0
M  V30 6010 C 576.032 3.12661 1.81453 0
M  V30 6011 O 575.753 4.26378 1.00665 0
M  V30 6012 C 577.254 3.54548 2.66103 0
M  V30 6013 H 574.474 0.614624 0.269218 0
M  V30 6014 H 577.018 2.03581 0.193671 0
M  V30 6015 H 575.173 2.96088 2.49821 0
M  V30 6016 H 575.587 4.99041 1.61425 0
M  V30 6017 H 577.061 4.4673 3.24247 0
M  V30 6018 H 577.538 2.77853 3.40139 0
M  V30 6019 H 578.144 3.73674 2.03096 0
M  V30 6020 N 576.459 -0.456382 1.50847 0
M  V30 6021 C 577.369 -1.57805 1.73594 0
M  V30 6022 C 578.385 -1.62599 0.619476 0
M  V30 6023 O 579.561 -1.80195 0.899532 0
M  V30 6024 C 576.626 -2.93926 1.8387 0
M  V30 6025 C 575.687 -2.99402 3.07663 0
M  V30 6026 C 574.92 -4.29031 3.1744 0
M  V30 6027 O 575.143 -5.20358 2.33631 0
M  V30 6028 O 574.077 -4.40401 4.10281 0
M  V30 6029 H 577.903 -1.41531 2.68705 0
M  V30 6030 H 575.488 -0.637422 1.3512 0
M  V30 6031 H 577.37 -3.74747 1.92725 0
M  V30 6032 H 576.045 -3.10368 0.91944 0
M  V30 6033 H 574.952 -2.17606 3.043 0
M  V30 6034 H 576.285 -2.87901 3.99216 0
M  V30 6035 N 577.937 -1.40673 -0.710563 0
M  V30 6036 C 578.869 -1.37256 -1.83558 0
M  V30 6037 C 579.882 -0.277133 -1.60424 0
M  V30 6038 O 581.071 -0.537831 -1.70205 0
M  V30 6039 C 578.171 -1.1144 -3.20054 0
M  V30 6040 C 577.344 -2.32734 -3.70342 0
M  V30 6041 C 576.403 -2.03002 -4.85465 0
M  V30 6042 O 575.429 -2.75912 -4.97857 0
M  V30 6043 N 576.631 -1.01105 -5.71627 0
M  V30 6044 H 579.396 -2.34215 -1.86985 0
M  V30 6045 H 576.957 -1.35091 -0.892301 0
M  V30 6046 H 578.949 -0.895265 -3.94673 0
M  V30 6047 H 577.519 -0.231307 -3.11743 0
M  V30 6048 H 576.739 -2.70446 -2.86798 0
M  V30 6049 H 578.027 -3.13584 -4.00678 0
M  V30 6050 H 577.425 -0.407303 -5.64232 0
M  V30 6051 H 575.982 -0.85182 -6.4621 0
M  V30 6052 N 579.415 0.9433 -1.26252 0
M  V30 6053 C 580.347 2.04542 -1.03417 0
M  V30 6054 C 581.36 1.62799 0.0046911 0
M  V30 6055 O 582.549 1.76944 -0.235146 0
M  V30 6056 C 579.649 3.34511 -0.543671 0
M  V30 6057 C 578.822 4.05033 -1.65128 0
M  V30 6058 C 577.881 5.13273 -1.1592 0
M  V30 6059 O 576.907 5.38095 -1.85586 0
M  V30 6060 N 578.109 5.805 -0.00649279 0
M  V30 6061 H 580.874 2.24699 -1.98319 0
M  V30 6062 H 578.435 1.11264 -1.1761 0
M  V30 6063 H 580.427 4.04212 -0.198703 0
M  V30 6064 H 578.997 3.11042 0.311711 0
M  V30 6065 H 578.217 3.29275 -2.16729 0
M  V30 6066 H 579.505 4.48903 -2.39508 0
M  V30 6067 H 578.903 5.62767 0.575347 0
M  V30 6068 H 577.46 6.51201 0.279416 0
M  V30 6069 N 580.893 1.08022 1.14757 0
M  V30 6070 C 581.823 0.728248 2.21853 0
M  V30 6071 C 582.804 -0.287486 1.67653 0
M  V30 6072 O 583.989 -0.158727 1.9355 0
M  V30 6073 C 581.119 0.132549 3.47047 0
M  V30 6074 C 580.073 1.07619 4.14249 0
M  V30 6075 C 579.399 0.342907 5.33599 0
M  V30 6076 C 580.699 2.41268 4.63235 0
M  V30 6077 H 582.393 1.62365 2.51551 0
M  V30 6078 H 579.939 0.782125 1.20908 0
M  V30 6079 H 581.892 -0.125665 4.21213 0
M  V30 6080 H 580.616 -0.797971 3.16702 0
M  V30 6081 H 579.275 1.31944 3.42033 0
M  V30 6082 H 578.923 -0.59129 4.99513 0
M  V30 6083 H 578.623 0.971955 5.79506 0
M  V30 6084 H 580.147 0.0926538 6.1053 0
M  V30 6085 H 581.561 2.21232 5.28894 0
M  V30 6086 H 579.958 2.9983 5.19829 0
M  V30 6087 H 581.028 3.03079 3.78512 0
M  V30 6088 N 582.371 -1.3172 0.865308 0
M  V30 6089 C 583.318 -2.2863 0.315736 0
M  V30 6090 C 584.288 -1.55524 -0.583213 0
M  V30 6091 O 585.473 -1.83694 -0.51585 0
M  V30 6092 C 582.613 -3.41735 -0.480773 0
M  V30 6093 C 581.726 -4.297 0.445167 0
M  V30 6094 C 580.861 -5.29944 -0.365012 0
M  V30 6095 C 579.9 -6.09554 0.557651 0
M  V30 6096 N 579.037 -7.01768 -0.215994 0
M  V30 6097 H 583.877 -2.75026 1.14736 0
M  V30 6098 H 581.414 -1.35302 0.577209 0
M  V30 6099 H 583.372 -4.06045 -0.958306 0
M  V30 6100 H 582.002 -2.96461 -1.27714 0
M  V30 6101 H 581.054 -3.65875 1.04113 0
M  V30 6102 H 582.366 -4.85295 1.15284 0
M  V30 6103 H 581.52 -5.99908 -0.905255 0
M  V30 6104 H 580.259 -4.74994 -1.106 0
M  V30 6105 H 579.264 -5.38485 1.10969 0
M  V30 6106 H 580.489 -6.66591 1.29742 0
M  V30 6107 H 578.435 -6.49232 -0.939878 0
M  V30 6108 H 578.352 -7.54762 0.432431 0
M  V30 6109 H 579.62 -7.76002 -0.737618 0
M  V30 6110 N 583.85 -0.624285 -1.44708 0
M  V30 6111 C 584.76 0.0861083 -2.34442 0
M  V30 6112 C 585.776 0.84291 -1.5222 0
M  V30 6113 O 586.952 0.796723 -1.84971 0
M  V30 6114 C 584.017 1.05999 -3.30099 0
M  V30 6115 C 583.077 0.303316 -4.28227 0
M  V30 6116 C 582.311 1.23081 -5.19314 0
M  V30 6117 O 582.534 2.46929 -5.14181 0
M  V30 6118 O 581.468 0.71883 -5.97592 0
M  V30 6119 H 585.293 -0.651756 -2.96624 0
M  V30 6120 H 582.879 -0.384493 -1.44368 0
M  V30 6121 H 584.76 1.62046 -3.88997 0
M  V30 6122 H 583.436 1.77859 -2.70459 0
M  V30 6123 H 582.343 -0.300033 -3.72895 0
M  V30 6124 H 583.676 -0.375123 -4.90768 0
M  V30 6125 N 585.328 1.53329 -0.364422 0
M  V30 6126 C 586.258 2.28627 0.474543 0
M  V30 6127 C 587.239 1.31009 1.08492 0
M  V30 6128 O 588.424 1.59878 1.10239 0
M  V30 6129 C 585.554 3.07465 1.61501 0
M  V30 6130 C 584.508 4.1276 1.13194 0
M  V30 6131 C 583.834 4.79674 2.36255 0
M  V30 6132 C 585.134 5.21847 0.217507 0
M  V30 6133 H 586.828 2.99005 -0.153656 0
M  V30 6134 H 584.374 1.43803 -0.0753406 0
M  V30 6135 H 586.327 3.58889 2.20855 0
M  V30 6136 H 585.051 2.34775 2.27042 0
M  V30 6137 H 583.71 3.62281 0.56109 0
M  V30 6138 H 583.358 4.03557 3.00251 0
M  V30 6139 H 583.058 5.50827 2.04606 0
M  V30 6140 H 584.582 5.33892 2.96297 0
M  V30 6141 H 585.996 5.6878 0.718493 0
M  V30 6142 H 584.393 6.00099 -0.00806408 0
M  V30 6143 H 585.463 4.7921 -0.740653 0
M  V30 6144 N 586.806 0.0935595 1.57322 0
M  V30 6145 C 588.053 -0.570509 1.94297 0
M  V30 6146 C 588.381 -1.68286 0.97519 0
M  V30 6147 O 587.636 -1.95699 -0.00548655 0
M  V30 6148 C 587.935 -1.16692 3.37813 0
M  V30 6149 C 587.601 -0.178509 4.50547 0
M  V30 6150 C 586.263 0.0933475 4.81109 0
M  V30 6151 C 588.615 0.496472 5.1883 0
M  V30 6152 C 585.943 1.0469 5.77284 0
M  V30 6153 C 588.295 1.43849 6.16028 0
M  V30 6154 C 586.959 1.71859 6.44997 0
M  V30 6155 H 586.229 -0.208764 0.710984 0
M  V30 6156 H 588.876 0.169066 1.90752 0
M  V30 6157 H 587.181 -1.98271 3.37929 0
M  V30 6158 H 588.878 -1.6884 3.63722 0
M  V30 6159 H 585.468 -0.400584 4.26724 0
M  V30 6160 H 589.652 0.299584 4.95395 0
M  V30 6161 H 584.908 1.27094 5.98044 0
M  V30 6162 H 589.082 1.96734 6.68034 0
M  V30 6163 H 586.709 2.45906 7.19329 0
M  V30 6164 N 588.284 -1.56567 -0.180126 0
M  V30 6165 C 589.194 -1.98947 -1.24327 0
M  V30 6166 C 590.21 -0.899446 -1.4895 0
M  V30 6167 O 591.386 -1.20639 -1.61271 0
M  V30 6168 C 588.451 -2.33328 -2.56435 0
M  V30 6169 C 587.512 -3.56114 -2.39752 0
M  V30 6170 C 586.745 -3.88845 -3.65561 0
M  V30 6171 O 586.968 -3.22662 -4.70368 0
M  V30 6172 O 585.902 -4.82226 -3.60197 0
M  V30 6173 H 589.728 -2.89634 -0.913565 0
M  V30 6174 H 587.313 -1.44319 -0.386306 0
M  V30 6175 H 589.195 -2.5645 -3.34382 0
M  V30 6176 H 587.87 -1.45806 -2.89002 0
M  V30 6177 H 586.777 -3.38221 -1.59866 0
M  V30 6178 H 588.11 -4.4415 -2.12113 0
M  V30 6179 N 589.762 0.448376 -1.51087 0
M  V30 6180 C 590.709 1.54341 -1.71603 0
M  V30 6181 C 591.679 1.56463 -0.557536 0
M  V30 6182 O 592.864 1.73644 -0.79072 0
M  V30 6183 C 590.004 2.92148 -1.83695 0
M  V30 6184 C 589.117 2.99639 -3.11192 0
M  V30 6185 C 588.252 4.285 -3.13944 0
M  V30 6186 C 587.291 4.29819 -4.35801 0
M  V30 6187 N 586.428 5.50186 -4.36164 0
M  V30 6188 H 591.268 1.36151 -2.65079 0
M  V30 6189 H 588.805 0.661585 -1.31383 0
M  V30 6190 H 590.763 3.72093 -1.88687 0
M  V30 6191 H 589.393 3.0892 -0.936374 0
M  V30 6192 H 588.445 2.12425 -3.15562 0
M  V30 6193 H 589.757 2.96474 -4.01129 0
M  V30 6194 H 588.911 5.16811 -3.17791 0
M  V30 6195 H 587.65 4.34307 -2.21876 0
M  V30 6196 H 586.655 3.39902 -4.32142 0
M  V30 6197 H 587.88 4.25685 -5.29121 0
M  V30 6198 H 585.826 5.56735 -3.46961 0
M  V30 6199 H 585.743 5.48856 -5.19897 0
M  V30 6200 H 587.011 6.40559 -4.44189 0
M  V30 6201 N 591.24 1.41047 0.703093 0
M  V30 6202 C 592.172 1.38228 1.82827 0
M  V30 6203 C 593.185 0.285637 1.60275 0
M  V30 6204 O 594.374 0.54685 1.69917 0
M  V30 6205 C 591.474 1.13136 3.19458 0
M  V30 6206 C 590.647 2.34695 3.69103 0
M  V30 6207 C 589.706 2.05574 4.84382 0
M  V30 6208 O 588.732 2.78549 4.96386 0
M  V30 6209 N 589.934 1.04135 5.71083 0
M  V30 6210 H 592.699 2.35203 1.85741 0
M  V30 6211 H 590.26 1.35562 0.885125 0
M  V30 6212 H 592.252 0.916183 3.94193 0
M  V30 6213 H 590.822 0.247836 3.11616 0
M  V30 6214 H 590.042 2.71963 2.85359 0
M  V30 6215 H 591.33 3.15705 3.99009 0
M  V30 6216 H 590.728 0.43722 5.64008 0
M  V30 6217 H 589.285 0.886078 6.45749 0
M  V30 6218 N 592.718 -0.936591 1.26751 0
M  V30 6219 C 593.665 -2.03597 1.08706 0
M  V30 6220 C 594.635 -1.66097 -0.00926542 0
M  V30 6221 O 595.82 -1.90199 0.151377 0
M  V30 6222 C 592.96 -3.3727 0.73094 0
M  V30 6223 C 592.073 -3.87778 1.90399 0
M  V30 6224 C 591.208 -5.09859 1.49056 0
M  V30 6225 C 590.247 -5.5264 2.63164 0
M  V30 6226 N 589.384 -6.65921 2.22471 0
M  V30 6227 H 594.224 -2.18364 2.02784 0
M  V30 6228 H 591.761 -1.06985 1.00958 0
M  V30 6229 H 593.719 -4.14128 0.505328 0
M  V30 6230 H 592.349 -3.22337 -0.172868 0
M  V30 6231 H 591.401 -3.07279 2.2424 0
M  V30 6232 H 592.713 -4.15464 2.76028 0
M  V30 6233 H 591.867 -5.9419 1.22567 0
M  V30 6234 H 590.606 -4.8393 0.60524 0
M  V30 6235 H 589.611 -4.66863 2.90377 0
M  V30 6236 H 590.836 -5.80568 3.52303 0
M  V30 6237 H 588.782 -6.41667 1.36379 0
M  V30 6238 H 588.699 -6.93216 3.01641 0
M  V30 6239 H 589.967 -7.53616 1.99205 0
M  V30 6240 N 594.196 -1.08629 -1.14182 0
M  V30 6241 C 595.443 -0.817345 -1.85272 0
M  V30 6242 C 595.771 0.656917 -1.83071 0
M  V30 6243 O 595.026 1.49897 -1.25815 0
M  V30 6244 C 595.325 -1.28734 -3.3341 0
M  V30 6245 C 594.991 -2.76981 -3.55798 0
M  V30 6246 C 593.653 -3.17469 -3.61617 0
M  V30 6247 C 596.005 -3.72605 -3.64438 0
M  V30 6248 C 593.333 -4.52371 -3.736 0
M  V30 6249 C 595.685 -5.07286 -3.77947 0
M  V30 6250 C 594.349 -5.47376 -3.82016 0
M  V30 6251 H 593.619 -0.299088 -0.677958 0
M  V30 6252 H 596.266 -1.35962 -1.34857 0
M  V30 6253 H 594.571 -0.664702 -3.8612 0
M  V30 6254 H 596.268 -1.05598 -3.86846 0
M  V30 6255 H 592.858 -2.44644 -3.51919 0
M  V30 6256 H 597.042 -3.42443 -3.5923 0
M  V30 6257 H 592.298 -4.82882 -3.75013 0
M  V30 6258 H 596.472 -5.81243 -3.83575 0
M  V30 6259 H 594.099 -6.51906 -3.91054 0
M  V30 6260 N 595.674 1.31259 -0.872281 0
M  V30 6261 C 596.621 2.28459 -0.327857 0
M  V30 6262 C 597.591 1.55831 0.574957 0
M  V30 6263 O 598.776 1.83965 0.506101 0
M  V30 6264 C 595.916 3.41985 0.462644 0
M  V30 6265 C 595.029 4.29458 -0.467949 0
M  V30 6266 C 594.164 5.30131 0.336903 0
M  V30 6267 C 593.203 6.0925 -0.58997 0
M  V30 6268 N 592.34 7.01872 0.178775 0
M  V30 6269 H 597.18 2.74414 -1.16193 0
M  V30 6270 H 594.717 1.34994 -0.584376 0
M  V30 6271 H 596.675 4.06547 0.936759 0
M  V30 6272 H 595.305 2.97134 1.2614 0
M  V30 6273 H 594.357 3.65318 -1.06052 0
M  V30 6274 H 595.669 4.84677 -1.17856 0
M  V30 6275 H 594.823 6.0038 0.873427 0
M  V30 6276 H 593.562 4.75573 1.08079 0
M  V30 6277 H 592.567 5.37889 -1.13823 0
M  V30 6278 H 593.792 6.65894 -1.33275 0
M  V30 6279 H 591.738 6.49721 0.905435 0
M  V30 6280 H 591.655 7.54522 -0.472452 0
M  V30 6281 H 592.923 7.76382 0.696454 0
M  V30 6282 N 597.152 0.631951 1.44375 0
M  V30 6283 C 598.377 0.142146 2.06912 0
M  V30 6284 C 598.802 -1.17456 1.4692 0
M  V30 6285 O 598.16 -1.72074 0.570975 0
M  V30 6286 C 598.208 0.0417952 3.60576 0
M  V30 6287 O 597.312 -1.00194 4.00044 0
M  V30 6288 H 596.653 0.0851491 0.658518 0
M  V30 6289 H 599.183 0.868863 1.85235 0
M  V30 6290 H 599.193 -0.148517 4.0773 0
M  V30 6291 H 597.868 1.0031 4.03622 0
M  V30 6292 H 596.445 -0.786131 3.64519 0
M  V30 6293 N 598.631 -1.53133 0.372548 0
M  V30 6294 C 599.563 -2.23557 -0.505444 0
M  V30 6295 C 600.576 -1.25211 -1.04049 0
M  V30 6296 O 601.765 -1.51391 -0.945675 0
M  V30 6297 C 598.865 -2.92516 -1.71136 0
M  V30 6298 C 598.038 -4.17428 -1.30661 0
M  V30 6299 C 597.097 -4.69535 -2.37536 0
M  V30 6300 O 596.123 -5.33042 -1.99637 0
M  V30 6301 N 597.325 -4.47947 -3.6922 0
M  V30 6302 H 600.09 -2.9954 0.0978259 0
M  V30 6303 H 597.651 -1.60684 0.198068 0
M  V30 6304 H 599.643 -3.24281 -2.42124 0
M  V30 6305 H 598.213 -2.19944 -2.22134 0
M  V30 6306 H 597.433 -3.91888 -0.426292 0
M  V30 6307 H 598.721 -4.98622 -1.01259 0
M  V30 6308 H 598.119 -3.97219 -4.02783 0
M  V30 6309 H 596.676 -4.84245 -4.36292 0
M  V30 6310 O 600.148 -0.242051 -1.59676 0
M  V30 6311 H 600.839 0.334494 -1.9079 0
M  V30 END ATOM
M  V30 BEGIN BOND
M  V30 END BOND
M  V30 END CTAB
M  END
$$$$
