drugbank_target|Q93086 P2X purinoceptor 5 (DB01069)
 OpenBabel12092121213D

  0  0  0     0  0            999 V3000
M  V30 BEGIN CTAB
M  V30 COUNTS 6595 6666 0 0 0
M  V30 BEGIN ATOM
M  V30 1 H -0.908 1.98254 -0.117106 0
M  V30 2 N 0 1.576 0 0
M  V30 3 C 0.933 2.03868 1.02534 0
M  V30 4 C 1.911 0.928543 1.3348 0
M  V30 5 O 3.095 1.19667 1.45644 0
M  V30 6 C 0.222 2.43627 2.35294 0
M  V30 7 C -0.732 3.65373 2.2001 0
M  V30 8 S 0.101 5.13292 1.52614 0
M  V30 9 C 1.257 5.56322 2.86805 0
M  V30 10 H 1.49 2.90518 0.631377 0
M  V30 11 H -0.977 1.52953 0.210867 0
M  V30 12 H 0.981 2.67203 3.11629 0
M  V30 13 H -0.358 1.57376 2.7183 0
M  V30 14 H -1.165 3.90944 3.18086 0
M  V30 15 H -1.563 3.418 1.51819 0
M  V30 16 H 0.729 5.58782 3.83104 0
M  V30 17 H 1.672 6.56266 2.65933 0
M  V30 18 H 2.08 4.83886 2.90714 0
M  V30 19 N 1.4781 -0.272755 1.55222 0
M  V30 20 C 2.7261 -1.00234 1.75492 0
M  V30 21 C 3.0471 -1.8681 0.5592 0
M  V30 22 O 2.3171 -1.91215 -0.425882 0
M  V30 23 H 0.8971 -0.373076 0.647166 0
M  V30 24 H 3.5591 -0.296926 1.92625 0
M  V30 25 H 2.6551 -1.63913 2.65592 0
M  V30 26 N 2.9562 -1.48159 -0.537278 0
M  V30 27 C 3.8882 -1.58218 -1.65831 0
M  V30 28 C 4.9012 -0.466948 -1.5596 0
M  V30 29 O 6.0902 -0.73747 -1.62553 0
M  V30 30 C 3.1902 -1.48906 -3.04434 0
M  V30 31 C 2.3632 -2.75343 -3.3986 0
M  V30 32 C 1.4222 -2.59588 -4.57712 0
M  V30 33 O 0.4482 -3.33457 -4.61297 0
M  V30 34 N 1.6502 -1.68724 -5.55439 0
M  V30 35 H 4.4152 -2.54891 -1.57641 0
M  V30 36 H 1.9762 -1.4479 -0.724386 0
M  V30 37 H 3.9682 -1.36072 -3.81139 0
M  V30 38 H 2.5382 -0.602368 -3.06741 0
M  V30 39 H 1.7582 -3.02795 -2.52406 0
M  V30 40 H 3.0462 -3.5924 -3.60311 0
M  V30 41 H 2.4442 -1.07898 -5.55315 0
M  V30 42 H 1.0012 -1.61832 -6.3139 0
M  V30 43 N 4.4343 0.785586 -1.36625 0
M  V30 44 C 5.3973 1.87999 -1.31107 0
M  V30 45 C 6.3973 1.59316 -0.217959 0
M  V30 46 O 7.5873 1.67656 -0.472977 0
M  V30 47 C 4.7193 3.24861 -1.03334 0
M  V30 48 H 5.9123 1.94307 -2.2844 0
M  V30 49 H 3.4653 0.983813 -1.21453 0
M  V30 50 H 4.2003 3.24235 -0.0647432 0
M  V30 51 H 3.9853 3.4707 -1.82441 0
M  V30 52 H 5.4753 4.04929 -1.02088 0
M  V30 53 N 5.9124 1.20967 1.01018 0
M  V30 54 C 7.1604 1.02172 1.74371 0
M  V30 55 C 7.4814 -0.446414 1.89821 0
M  V30 56 O 6.7514 -1.32234 1.44537 0
M  V30 57 H 5.3314 0.375066 0.646014 0
M  V30 58 H 7.9934 1.52187 1.21758 0
M  V30 59 H 7.0894 1.48538 2.74487 0
M  V30 60 N 7.3905 -1.2043 1.01659 0
M  V30 61 C 8.6305 -1.91507 0.714456 0
M  V30 62 C 8.9945 -1.77073 -0.742237 0
M  V30 63 O 10.1955 -2.42631 -1.15688 0
M  V30 64 C 8.4665 -3.38795 1.13809 0
M  V30 65 S 10.0255 -4.28216 0.957925 0
M  V30 66 H 6.8435 -0.661571 0.260471 0
M  V30 67 H 9.4455 -1.45671 1.30384 0
M  V30 68 H 8.1495 -3.46822 2.19415 0
M  V30 69 H 7.6805 -3.89656 0.541474 0
M  V30 70 H 9.6955 -4.96007 -0.138531 0
M  V30 71 N 8.8686 -0.792821 -1.36206 0
M  V30 72 C 9.8156 -0.191653 -2.30003 0
M  V30 73 C 10.7856 0.666453 -1.52143 0
M  V30 74 O 11.9706 0.61442 -1.80636 0
M  V30 75 C 9.1106 0.664848 -3.38635 0
M  V30 76 C 8.2236 -0.212175 -4.31479 0
M  V30 77 C 7.3586 0.651022 -5.27196 0
M  V30 78 C 6.3976 -0.227247 -6.11678 0
M  V30 79 N 5.5346 0.595127 -6.99573 0
M  V30 80 H 10.3746 -0.996978 -2.80828 0
M  V30 81 H 7.9116 -0.503206 -1.38225 0
M  V30 82 H 9.8696 1.17645 -4.00269 0
M  V30 83 H 8.4996 1.43557 -2.89122 0
M  V30 84 H 7.5516 -0.841777 -3.70969 0
M  V30 85 H 8.8636 -0.888751 -4.90818 0
M  V30 86 H 8.0176 1.2283 -5.94136 0
M  V30 87 H 6.7566 1.36121 -4.68319 0
M  V30 88 H 5.7616 -0.816904 -5.43697 0
M  V30 89 H 6.9866 -0.93509 -6.72631 0
M  V30 90 H 4.9326 1.28955 -6.432 0
M  V30 91 H 4.8496 -0.0236952 -7.55996 0
M  V30 92 H 6.1176 1.15613 -7.70879 0
M  V30 93 N 10.3467 1.47872 -0.545128 0
M  V30 94 C 11.5947 2.02093 -0.016553 0
M  V30 95 C 11.9157 1.42305 1.3332 0
M  V30 96 O 11.1857 0.593853 1.86682 0
M  V30 97 H 9.7657 0.746993 -0.00313038 0
M  V30 98 H 12.4277 1.81414 -0.712397 0
M  V30 99 H 11.5237 3.11996 0.0805422 0
M  V30 100 N 11.8248 0.280983 1.55075 0
M  V30 101 C 12.7548 -0.597469 2.25727 0
M  V30 102 C 13.7358 -1.15417 1.24952 0
M  V30 103 O 14.9208 -1.18722 1.53684 0
M  V30 104 C 12.0508 -1.7789 2.98283 0
M  V30 105 C 11.0048 -1.35347 4.06036 0
M  V30 106 C 10.3308 -2.61846 4.66198 0
M  V30 107 C 11.6308 -0.499354 5.19907 0
M  V30 108 H 13.3248 -0.00824265 2.99399 0
M  V30 109 H 10.8708 -0.0025244 1.44 0
M  V30 110 H 12.8238 -2.39937 3.46422 0
M  V30 111 H 11.5478 -2.39405 2.22155 0
M  V30 112 H 10.2068 -0.756156 3.58717 0
M  V30 113 H 9.8548 -3.21632 3.86732 0
M  V30 114 H 9.5548 -2.3409 5.38958 0
M  V30 115 H 11.0788 -3.24732 5.1709 0
M  V30 116 H 12.4928 -1.02498 5.64063 0
M  V30 117 H 10.8898 -0.316424 5.99265 0
M  V30 118 H 11.9598 0.480459 4.82514 0
M  V30 119 N 13.3029 -1.57598 0.00835791 0
M  V30 120 C 14.5429 -1.92788 -0.679136 0
M  V30 121 C 14.9069 -0.883378 -1.70471 0
M  V30 122 O 16.1079 -1.12079 -2.44319 0
M  V30 123 C 14.3789 -3.32994 -1.29807 0
M  V30 124 S 15.9379 -3.90082 -2.00952 0
M  V30 125 H 12.7559 -0.67475 -0.224127 0
M  V30 126 H 15.3579 -1.95385 0.0670497 0
M  V30 127 H 14.0619 -4.06846 -0.538922 0
M  V30 128 H 13.5929 -3.33791 -2.082 0
M  V30 129 H 15.6079 -3.71834 -3.28563 0
M  V30 130 N 14.781 0.264519 -1.55364 0
M  V30 131 C 15.711 1.33121 -1.91836 0
M  V30 132 C 16.692 1.51101 -0.781192 0
M  V30 133 O 17.877 1.64003 -1.04003 0
M  V30 134 C 15.007 2.68921 -2.19769 0
M  V30 135 C 13.961 2.65661 -3.35571 0
M  V30 136 C 13.287 4.05093 -3.49004 0
M  V30 137 C 14.587 2.24187 -4.71739 0
M  V30 138 H 16.281 1.02844 -2.81182 0
M  V30 139 H 13.827 0.493286 -1.35287 0
M  V30 140 H 15.78 3.43663 -2.43872 0
M  V30 141 H 14.504 3.00799 -1.27231 0
M  V30 142 H 13.163 1.93377 -3.1145 0
M  V30 143 H 12.811 4.34206 -2.53917 0
M  V30 144 H 12.511 4.03804 -4.26868 0
M  V30 145 H 14.035 4.81561 -3.75408 0
M  V30 146 H 15.449 2.88654 -4.9533 0
M  V30 147 H 13.846 2.34044 -5.52579 0
M  V30 148 H 14.916 1.19327 -4.69988 0
M  V30 149 N 16.2591 1.48442 0.529413 0
M  V30 150 C 17.4841 1.60406 1.31471 0
M  V30 151 C 17.9091 0.264738 1.86228 0
M  V30 152 O 17.2671 -0.763668 1.64432 0
M  V30 153 C 17.3151 2.65419 2.44101 0
M  V30 154 O 16.4191 2.22618 3.47153 0
M  V30 155 H 15.7601 0.537863 0.389357 0
M  V30 156 H 18.2901 1.94432 0.636965 0
M  V30 157 H 18.3001 2.86709 2.90279 0
M  V30 158 H 16.9751 3.62652 2.03608 0
M  V30 159 H 15.5521 2.11543 3.0709 0
M  V30 160 N 17.7372 -0.778329 1.37039 0
M  V30 161 C 18.6672 -1.90546 1.34962 0
M  V30 162 C 19.6482 -1.68681 0.219274 0
M  V30 163 O 20.8332 -1.89634 0.418624 0
M  V30 164 C 17.9632 -3.27734 1.14925 0
M  V30 165 C 16.9172 -3.64147 2.24902 0
M  V30 166 C 16.2432 -4.99806 1.89996 0
M  V30 167 C 17.5432 -3.71579 3.67051 0
M  V30 168 H 19.2372 -1.92541 2.29277 0
M  V30 169 H 16.7832 -0.924948 1.10366 0
M  V30 170 H 18.7362 -4.06215 1.12104 0
M  V30 171 H 17.4602 -3.26154 0.170631 0
M  V30 172 H 16.1192 -2.8797 2.26868 0
M  V30 173 H 15.7672 -4.94759 0.906796 0
M  V30 174 H 15.4672 -5.25139 2.63634 0
M  V30 175 H 16.9912 -5.80694 1.88749 0
M  V30 176 H 18.4052 -4.40227 3.67251 0
M  V30 177 H 16.8022 -4.08405 4.39688 0
M  V30 178 H 17.8722 -2.72404 4.01154 0
M  V30 179 N 19.2153 -1.21501 -1.00376 0
M  V30 180 C 20.4623 -1.03299 -1.74171 0
M  V30 181 C 20.7903 0.433326 -1.89612 0
M  V30 182 O 20.0453 1.33779 -1.42834 0
M  V30 183 C 20.3443 -1.67673 -3.15627 0
M  V30 184 C 20.0103 -3.17533 -3.2013 0
M  V30 185 C 18.6723 -3.58427 -3.21067 0
M  V30 186 C 21.0243 -4.13504 -3.17275 0
M  V30 187 C 18.3523 -4.93794 -3.16835 0
M  V30 188 C 20.7043 -5.48834 -3.14585 0
M  V30 189 C 19.3683 -5.89123 -3.13831 0
M  V30 190 H 18.6383 -0.377999 -0.637336 0
M  V30 191 H 21.2853 -1.51111 -1.17634 0
M  V30 192 H 19.5903 -1.12158 -3.75404 0
M  V30 193 H 21.2873 -1.51091 -3.71446 0
M  V30 194 H 17.8773 -2.84965 -3.20145 0
M  V30 195 H 22.0613 -3.82936 -3.15711 0
M  V30 196 H 17.3173 -5.24255 -3.1459 0
M  V30 197 H 21.4913 -6.22934 -3.1133 0
M  V30 198 H 19.1183 -6.93984 -3.10307 0
M  V30 199 N 20.6934 1.19889 -1.02296 0
M  V30 200 C 21.9704 1.85148 -0.630832 0
M  V30 201 C 22.3504 1.91385 0.890782 0
M  V30 202 O 21.6984 1.42642 1.78509 0
M  V30 203 C 21.9084 3.24442 -1.28602 0
M  V30 204 C 23.2564 4.00663 -1.4055 0
M  V30 205 O 24.2804 3.33818 -1.24273 0
M  V30 206 O 23.1394 5.20387 -1.66913 0
M  V30 207 H 20.2334 0.797613 -0.218499 0
M  V30 208 H 22.7794 1.27427 -1.12074 0
M  V30 209 H 21.5514 3.14704 -2.32545 0
M  V30 210 H 21.1744 3.89802 -0.7836 0
M  V30 211 N 22.1715 0.800033 1.35784 0
M  V30 212 C 23.4015 0.389041 2.02904 0
M  V30 213 C 23.8095 -1.0027 1.60445 0
M  V30 214 O 23.1525 -1.65633 0.794453 0
M  V30 215 C 23.2145 0.385495 3.57427 0
M  V30 216 C 22.8785 1.72662 4.23127 0
M  V30 217 C 23.8755 2.68385 4.4527 0
M  V30 218 C 21.5605 2.00883 4.60381 0
M  V30 219 C 23.5545 3.90517 5.03761 0
M  V30 220 C 21.2415 3.2328 5.18588 0
M  V30 221 C 22.2395 4.17915 5.40218 0
M  V30 222 O 21.9275 5.38153 5.97199 0
M  V30 223 H 21.6595 0.157032 0.657508 0
M  V30 224 H 24.2135 1.08311 1.74522 0
M  V30 225 H 22.4435 -0.365128 3.84972 0
M  V30 226 H 24.1325 -0.00228296 4.059 0
M  V30 227 H 24.8985 2.47872 4.16874 0
M  V30 228 H 20.7775 1.28037 4.42863 0
M  V30 229 H 24.3215 4.64395 5.2056 0
M  V30 230 H 20.2185 3.43667 5.4641 0
M  V30 231 H 20.9865 5.3936 6.15656 0
M  V30 232 N 23.6496 -1.47581 0.552962 0
M  V30 233 C 24.5966 -2.29957 -0.197108 0
M  V30 234 C 25.5666 -1.38799 -0.912359 0
M  V30 235 O 26.7516 -1.67761 -0.908888 0
M  V30 236 C 23.8916 -3.22672 -1.22379 0
M  V30 237 C 23.0046 -4.28919 -0.515038 0
M  V30 238 C 22.1396 -5.0879 -1.52664 0
M  V30 239 C 21.1786 -6.06815 -0.802631 0
M  V30 240 N 20.3156 -6.7966 -1.76086 0
M  V30 241 H 25.1556 -2.93578 0.511486 0
M  V30 242 H 22.6926 -1.4471 0.264067 0
M  V30 243 H 24.6506 -3.74845 -1.83159 0
M  V30 244 H 23.2806 -2.60925 -1.90047 0
M  V30 245 H 22.3326 -3.79835 0.207192 0
M  V30 246 H 23.6446 -4.98773 0.0523425 0
M  V30 247 H 22.7986 -5.65091 -2.20809 0
M  V30 248 H 21.5376 -4.38828 -2.12794 0
M  V30 249 H 20.5426 -5.49695 -0.107238 0
M  V30 250 H 21.7676 -6.78784 -0.207135 0
M  V30 251 H 19.7136 -6.12432 -2.35081 0
M  V30 252 H 19.6306 -7.45669 -1.24552 0
M  V30 253 H 20.8986 -7.40538 -2.43359 0
M  V30 254 N 25.1277 -0.289203 -1.54924 0
M  V30 255 C 26.3557 0.326463 -2.04308 0
M  V30 256 C 26.7707 1.48413 -1.16701 0
M  V30 257 O 26.1277 1.81507 -0.190087 0
M  V30 258 C 26.1787 0.794014 -3.52672 0
M  V30 259 O 25.8997 -0.317564 -4.36948 0
M  V30 260 C 27.4007 1.47605 -4.18004 0
M  V30 261 H 24.6207 0.0726272 -0.667058 0
M  V30 262 H 27.1647 -0.425401 -2.00026 0
M  V30 263 H 25.3197 1.49593 -3.57352 0
M  V30 264 H 25.7337 0.0443186 -5.24481 0
M  V30 265 H 27.2077 1.75447 -5.23376 0
M  V30 266 H 27.6847 2.41224 -3.67025 0
M  V30 267 H 28.2907 0.81762 -4.17367 0
M  V30 268 N 26.6058 1.57591 -0.0167156 0
M  V30 269 C 27.5158 2.1291 0.98521 0
M  V30 270 C 28.5318 1.07834 1.36557 0
M  V30 271 O 29.7078 1.39826 1.44951 0
M  V30 272 C 26.7728 2.63512 2.25305 0
M  V30 273 C 25.8338 3.83256 1.93426 0
M  V30 274 C 25.0668 4.31435 3.14165 0
M  V30 275 O 25.2898 3.78851 4.26413 0
M  V30 276 O 24.2238 5.23416 2.97186 0
M  V30 277 H 28.0498 2.98772 0.544888 0
M  V30 278 H 25.6348 1.48012 0.203141 0
M  V30 279 H 27.5168 2.96183 2.99756 0
M  V30 280 H 26.1918 1.8074 2.68542 0
M  V30 281 H 25.0988 3.55531 1.16398 0
M  V30 282 H 26.4318 4.67153 1.55013 0
M  V30 283 N 28.0839 -0.256276 1.55502 0
M  V30 284 C 29.0309 -1.31714 1.89526 0
M  V30 285 C 30.0009 -1.4828 0.748479 0
M  V30 286 O 31.1859 -1.62416 1.00128 0
M  V30 287 C 28.3259 -2.66933 2.18725 0
M  V30 288 C 27.4389 -2.58452 3.4616 0
M  V30 289 C 26.5739 -3.85961 3.64976 0
M  V30 290 C 25.6129 -3.72059 4.86044 0
M  V30 291 N 24.7499 -4.9144 5.01429 0
M  V30 292 H 29.5899 -1.01998 2.80001 0
M  V30 293 H 27.1269 -0.492413 1.38613 0
M  V30 294 H 29.0849 -3.4563 2.33657 0
M  V30 295 H 27.7149 -2.94816 1.31466 0
M  V30 296 H 26.7669 -1.71374 3.3961 0
M  V30 297 H 28.0789 -2.44085 4.34999 0
M  V30 298 H 27.2329 -4.73101 3.79816 0
M  V30 299 H 25.9719 -4.03215 2.74353 0
M  V30 300 H 24.9769 -2.83302 4.7119 0
M  V30 301 H 26.2019 -3.56309 5.78118 0
M  V30 302 H 24.1479 -5.09072 4.13741 0
M  V30 303 H 24.0649 -4.79668 5.84341 0
M  V30 304 H 25.3329 -5.80104 5.20672 0
M  V30 305 N 29.562 -1.4872 -0.521534 0
M  V30 306 C 30.792 -1.6061 -1.29954 0
M  V30 307 C 31.2 -0.268728 -1.87282 0
M  V30 308 O 30.543 0.753221 -1.67548 0
M  V30 309 C 30.605 -2.60013 -2.48261 0
M  V30 310 C 30.269 -4.04874 -2.11957 0
M  V30 311 C 31.266 -4.92304 -1.67132 0
M  V30 312 C 28.951 -4.5047 -2.22221 0
M  V30 313 C 30.945 -6.2336 -1.33047 0
M  V30 314 C 28.632 -5.81544 -1.87748 0
M  V30 315 C 29.63 -6.67812 -1.43234 0
M  V30 316 O 29.318 -7.96446 -1.09217 0
M  V30 317 H 29.05 -0.544116 -0.401141 0
M  V30 318 H 31.604 -1.95339 -0.634958 0
M  V30 319 H 29.834 -2.20422 -3.17728 0
M  V30 320 H 31.523 -2.61648 -3.10315 0
M  V30 321 H 32.289 -4.58312 -1.58665 0
M  V30 322 H 28.168 -3.83504 -2.55823 0
M  V30 323 H 31.712 -6.90649 -0.982299 0
M  V30 324 H 27.609 -6.15069 -1.95858 0
M  V30 325 H 28.377 -8.09275 -1.22542 0
M  V30 326 N 31.0401 0.771051 -1.3745 0
M  V30 327 C 32.2861 1.5319 -1.32894 0
M  V30 328 C 32.6191 1.94008 0.0862511 0
M  V30 329 O 31.8941 1.64124 1.04373 0
M  V30 330 C 32.1771 2.79648 -2.26868 0
M  V30 331 C 32.0301 2.45079 -3.77169 0
M  V30 332 C 33.3491 3.81583 -2.19277 0
M  V30 333 H 30.4681 0.555744 -0.484064 0
M  V30 334 H 33.1101 0.884492 -1.68157 0
M  V30 335 H 31.2601 3.34891 -1.96926 0
M  V30 336 H 32.9321 1.95745 -4.1771 0
M  V30 337 H 31.1751 1.77767 -3.95704 0
M  V30 338 H 31.8461 3.35478 -4.38359 0
M  V30 339 H 34.3221 3.35835 -2.45671 0
M  V30 340 H 33.1981 4.67787 -2.87171 0
M  V30 341 H 33.4591 4.25897 -1.18592 0
M  V30 342 N 32.5182 1.22032 0.997298 0
M  V30 343 C 33.7672 1.03637 1.73038 0
M  V30 344 C 34.0802 -0.429475 1.90827 0
M  V30 345 O 35.2862 -0.732995 2.61418 0
M  V30 346 C 33.7422 1.80582 3.11317 0
M  V30 347 C 33.3502 3.31387 3.01474 0
M  V30 348 C 35.0942 1.70621 3.88701 0
M  V30 349 C 33.0012 4.00791 4.3488 0
M  V30 350 H 31.9312 0.384179 0.648785 0
M  V30 351 H 34.5822 1.4584 1.11368 0
M  V30 352 H 32.9642 1.31175 3.73643 0
M  V30 353 H 34.1382 3.88155 2.4834 0
M  V30 354 H 32.4532 3.41976 2.37575 0
M  V30 355 H 35.0502 2.19799 4.87434 0
M  V30 356 H 35.3932 0.665823 4.10941 0
M  V30 357 H 35.9262 2.17547 3.33044 0
M  V30 358 H 32.6652 5.05064 4.1784 0
M  V30 359 H 32.1852 3.48811 4.87945 0
M  V30 360 H 33.8642 4.06139 5.03647 0
M  V30 361 N 33.9963 -1.19345 1.0293 0
M  V30 362 C 34.9593 -2.20793 0.615069 0
M  V30 363 C 35.9593 -1.57553 -0.321533 0
M  V30 364 O 37.1493 -1.73862 -0.108483 0
M  V30 365 C 34.2813 -3.40754 -0.0999222 0
M  V30 366 H 35.4743 -2.58955 1.51269 0
M  V30 367 H 33.0273 -1.3303 0.820534 0
M  V30 368 H 33.7623 -3.0811 -1.01187 0
M  V30 369 H 33.5473 -3.87889 0.57309 0
M  V30 370 H 35.0373 -4.15898 -0.376645 0
M  V30 371 N 35.4744 -0.807222 -1.35358 0
M  V30 372 C 36.4214 -0.216037 -2.29787 0
M  V30 373 C 37.3914 0.650278 -1.52842 0
M  V30 374 O 38.5764 0.595227 -1.81278 0
M  V30 375 C 35.7164 0.628893 -3.39321 0
M  V30 376 C 34.8294 -0.257927 -4.31229 0
M  V30 377 C 33.9644 0.595069 -5.27856 0
M  V30 378 C 33.0034 -0.292111 -6.11403 0
M  V30 379 N 32.1404 0.520895 -7.00165 0
M  V30 380 H 36.9804 -1.02671 -2.79755 0
M  V30 381 H 34.5174 -0.517839 -1.37684 0
M  V30 382 H 36.4754 1.13393 -4.01494 0
M  V30 383 H 35.1054 1.40482 -2.90628 0
M  V30 384 H 34.1574 -0.881076 -3.70056 0
M  V30 385 H 35.4694 -0.940759 -4.89848 0
M  V30 386 H 34.6234 1.16522 -5.95405 0
M  V30 387 H 33.3624 1.31146 -4.69736 0
M  V30 388 H 32.3674 -0.874525 -5.428 0
M  V30 389 H 33.5924 -1.00638 -6.71602 0
M  V30 390 H 31.5384 1.22125 -6.44532 0
M  V30 391 H 31.4554 -0.103877 -7.55929 0
M  V30 392 H 32.7234 1.0743 -7.72062 0
M  V30 393 N 36.9525 1.47285 -0.560781 0
M  V30 394 C 37.9005 2.31756 0.197942 0
M  V30 395 C 38.8945 1.43146 0.905854 0
M  V30 396 O 40.1005 1.59891 0.826733 0
M  V30 397 H 36.4755 0.747438 0.0827049 0
M  V30 398 H 38.4465 2.9359 -0.533629 0
M  V30 399 C 37.1955 3.25874 1.21249 0
M  V30 400 H 36.5185 3.94023 0.67719 0
M  V30 401 H 37.9585 3.87803 1.71419 0
M  V30 402 C 36.4175 2.49651 2.26221 0
M  V30 403 O 36.9475 2.24355 3.33208 0
M  V30 404 N 35.1535 2.10597 2.00243 0
M  V30 405 H 34.7005 2.31369 1.13252 0
M  V30 406 H 34.6585 1.59913 2.70694 0
M  V30 407 N 38.4306 0.297415 1.54768 0
M  V30 408 C 39.3776 -0.580276 2.23386 0
M  V30 409 C 40.3476 -1.13238 1.21517 0
M  V30 410 O 41.5326 -1.17757 1.50126 0
M  V30 411 C 38.6726 -1.74801 2.97555 0
M  V30 412 C 37.7856 -1.22764 4.1419 0
M  V30 413 C 36.9206 -2.35895 4.75949 0
M  V30 414 C 35.9596 -1.80974 5.84735 0
M  V30 415 N 35.0966 -2.87664 6.40464 0
M  V30 416 H 39.9366 0.0114833 2.97998 0
M  V30 417 H 37.4736 0.0174361 1.4709 0
M  V30 418 H 39.4316 -2.43475 3.38786 0
M  V30 419 H 38.0616 -2.31145 2.25326 0
M  V30 420 H 37.1136 -0.433271 3.77924 0
M  V30 421 H 38.4256 -0.785551 4.92575 0
M  V30 422 H 37.5796 -3.12523 5.20014 0
M  V30 423 H 36.3186 -2.83429 3.96887 0
M  V30 424 H 35.3236 -1.02834 5.40097 0
M  V30 425 H 36.5486 -1.34348 6.65678 0
M  V30 426 H 34.4946 -3.34538 5.64287 0
M  V30 427 H 34.4116 -2.4794 7.14186 0
M  V30 428 H 35.6796 -3.642 6.89187 0
M  V30 429 N 39.9087 -1.5758 0.0250728 0
M  V30 430 C 40.8557 -2.09973 -0.958129 0
M  V30 431 C 41.8257 -1.00085 -1.3256 0
M  V30 432 O 43.0107 -1.27481 -1.41962 0
M  V30 433 C 40.1507 -2.62812 -2.2366 0
M  V30 434 C 39.2637 -3.86693 -1.92594 0
M  V30 435 C 38.3987 -4.27941 -3.14707 0
M  V30 436 C 37.4377 -5.44591 -2.79442 0
M  V30 437 N 36.5747 -5.81014 -3.94167 0
M  V30 438 H 41.4147 -2.937 -0.504428 0
M  V30 439 H 38.9517 -1.45172 -0.237392 0
M  V30 440 H 40.9097 -2.91536 -2.98434 0
M  V30 441 H 39.5397 -1.81922 -2.66654 0
M  V30 442 H 38.5917 -3.64723 -1.0808 0
M  V30 443 H 39.9037 -4.71547 -1.62619 0
M  V30 444 H 39.0577 -4.58079 -3.97804 0
M  V30 445 H 37.7967 -3.41845 -3.4784 0
M  V30 446 H 36.8017 -5.1415 -1.94755 0
M  V30 447 H 38.0267 -6.32382 -2.47528 0
M  V30 448 H 35.9727 -4.97874 -4.2715 0
M  V30 449 H 35.8897 -6.60498 -3.67801 0
M  V30 450 H 37.1577 -6.15756 -4.7798 0
M  V30 451 N 41.3868 0.248026 -1.55636 0
M  V30 452 C 42.6328 0.97767 -1.77678 0
M  V30 453 C 42.9658 1.85016 -0.590135 0
M  V30 454 O 42.2408 1.90095 0.411611 0
M  V30 455 C 42.5238 1.83914 -3.09593 0
M  V30 456 C 42.3768 0.99491 -4.38659 0
M  V30 457 C 43.6958 2.82183 -3.37729 0
M  V30 458 H 40.8148 0.354005 -0.646413 0
M  V30 459 H 43.4568 0.248253 -1.88371 0
M  V30 460 H 41.6068 2.46104 -3.00608 0
M  V30 461 H 43.2788 0.391789 -4.59633 0
M  V30 462 H 41.5218 0.299231 -4.32767 0
M  V30 463 H 42.1928 1.63145 -5.2734 0
M  V30 464 H 44.6688 2.30129 -3.4667 0
M  V30 465 H 43.5448 3.39582 -4.31249 0
M  V30 466 H 43.8058 3.58588 -2.58586 0
M  V30 467 N 42.8649 1.48995 0.513639 0
M  V30 468 C 44.1129 1.57531 1.26604 0
M  V30 469 C 44.4339 0.258236 1.93283 0
M  V30 470 O 43.7039 -0.721502 1.8213 0
M  V30 471 H 42.2839 0.580387 0.470276 0
M  V30 472 H 44.9459 1.85552 0.596373 0
M  V30 473 H 44.0419 2.36486 2.03669 0
M  V30 474 N 44.343 -0.763751 1.37857 0
M  V30 475 C 45.273 -1.89103 1.36975 0
M  V30 476 C 46.254 -1.68439 0.237152 0
M  V30 477 O 47.439 -1.8918 0.438713 0
M  V30 478 C 44.569 -3.26496 1.18395 0
M  V30 479 C 43.523 -3.61741 2.28751 0
M  V30 480 C 42.849 -4.97762 1.95286 0
M  V30 481 C 44.149 -3.67665 3.70972 0
M  V30 482 H 45.843 -1.90099 2.31307 0
M  V30 483 H 43.389 -0.91319 1.11341 0
M  V30 484 H 45.342 -4.05003 1.16406 0
M  V30 485 H 44.066 -3.25955 0.205215 0
M  V30 486 H 42.725 -2.85547 2.29909 0
M  V30 487 H 42.373 -4.93769 0.959221 0
M  V30 488 H 42.073 -5.22313 2.69189 0
M  V30 489 H 43.597 -5.7866 1.94898 0
M  V30 490 H 45.011 -4.36307 3.719 0
M  V30 491 H 43.408 -4.03718 4.43995 0
M  V30 492 H 44.478 -2.68134 4.0402 0
M  V30 493 N 45.8211 -1.22559 -0.990812 0
M  V30 494 C 46.7511 -1.0218 -2.09956 0
M  V30 495 C 47.7321 0.0579394 -1.70001 0
M  V30 496 O 48.9171 -0.104684 -1.93918 0
M  V30 497 C 46.0471 -0.601023 -3.4206 0
M  V30 498 C 45.0011 -1.62694 -3.95872 0
M  V30 499 C 44.3271 -1.06193 -5.24049 0
M  V30 500 C 45.6271 -3.01743 -4.2632 0
M  V30 501 H 47.3211 -1.94916 -2.27262 0
M  V30 502 H 44.8671 -0.938566 -1.09211 0
M  V30 503 H 46.8201 -0.445561 -4.19038 0
M  V30 504 H 45.5441 0.362005 -3.24588 0
M  V30 505 H 44.2031 -1.77021 -3.21028 0
M  V30 506 H 43.8511 -0.0901903 -5.02919 0
M  V30 507 H 43.5511 -1.74732 -5.61019 0
M  V30 508 H 45.0751 -0.918092 -6.03658 0
M  V30 509 H 46.4891 -2.90777 -4.94087 0
M  V30 510 H 44.8861 -3.67425 -4.74467 0
M  V30 511 H 45.9561 -3.51518 -3.34011 0
M  V30 512 N 47.2992 1.18797 -1.03562 0
M  V30 513 C 48.5292 1.92319 -0.754773 0
M  V30 514 C 48.9372 1.7612 0.691248 0
M  V30 515 O 48.2802 1.08491 1.48241 0
M  V30 516 C 48.3422 3.44284 -1.03484 0
M  V30 517 C 48.0062 3.84258 -2.47376 0
M  V30 518 C 49.0032 3.88459 -3.45537 0
M  V30 519 C 46.6882 4.15701 -2.81954 0
M  V30 520 C 48.6822 4.23545 -4.76328 0
M  V30 521 C 46.3692 4.50458 -4.12954 0
M  V30 522 C 47.3672 4.54356 -5.09951 0
M  V30 523 O 47.0552 4.88305 -6.38603 0
M  V30 524 H 46.7872 0.617527 -0.275021 0
M  V30 525 H 49.3412 1.51683 -1.38497 0
M  V30 526 H 47.5712 3.85135 -0.347513 0
M  V30 527 H 49.2602 3.99049 -0.7426 0
M  V30 528 H 50.0262 3.6431 -3.20162 0
M  V30 529 H 45.9052 4.11847 -2.0713 0
M  V30 530 H 49.4492 4.26502 -5.52035 0
M  V30 531 H 45.3462 4.74067 -4.38099 0
M  V30 532 H 46.1142 5.06227 -6.43177 0
M  V30 533 N 48.7773 0.814389 1.34928 0
M  V30 534 C 50.1933 0.499084 1.51596 0
M  V30 535 C 50.3933 -0.978319 1.76157 0
M  V30 536 O 49.4493 -1.76309 1.80752 0
M  V30 537 C 50.7623 1.35121 2.68631 0
M  V30 538 C 52.3103 1.34746 2.82511 0
M  V30 539 C 52.7853 2.18388 4.0258 0
M  V30 540 N 54.2763 2.15966 4.09772 0
M  V30 541 C 55.0113 2.77437 5.01813 0
M  V30 542 N 54.5073 3.47866 5.99134 0
M  V30 543 N 56.3003 2.67037 4.94619 0
M  V30 544 H 48.4513 1.7711 1.17243 0
M  V30 545 H 50.7143 0.754256 0.574284 0
M  V30 546 H 50.4203 2.40001 2.57085 0
M  V30 547 H 50.2943 1.00991 3.63429 0
M  V30 548 H 52.6813 0.30648 2.93504 0
M  V30 549 H 52.7623 1.72869 1.88547 0
M  V30 550 H 52.4063 3.2253 3.92347 0
M  V30 551 H 52.3363 1.77621 4.9574 0
M  V30 552 H 54.8273 1.64729 3.40107 0
M  V30 553 H 55.1403 3.92038 6.65977 0
M  V30 554 H 53.4853 3.51972 5.99284 0
M  V30 555 H 56.6763 2.11597 4.17546 0
M  V30 556 H 56.8493 3.15232 5.66156 0
M  V30 557 N 50.2554 -1.46986 0.568584 0
M  V30 558 C 51.1854 -2.32946 -0.160753 0
M  V30 559 C 52.1664 -1.44487 -0.897631 0
M  V30 560 O 53.3514 -1.73327 -0.875867 0
M  V30 561 C 50.4814 -3.26494 -1.18403 0
M  V30 562 C 49.4354 -4.24282 -0.562895 0
M  V30 563 C 48.7614 -5.07236 -1.69163 0
M  V30 564 C 50.0614 -5.19989 0.490761 0
M  V30 565 H 51.7554 -2.94175 0.556916 0
M  V30 566 H 49.3014 -1.4146 0.26927 0
M  V30 567 H 51.2544 -3.85477 -1.70251 0
M  V30 568 H 49.9784 -2.63343 -1.93179 0
M  V30 569 H 48.6374 -3.66541 -0.0656164 0
M  V30 570 H 48.2854 -4.4048 -2.42871 0
M  V30 571 H 47.9854 -5.7345 -1.28174 0
M  V30 572 H 49.5094 -5.6908 -2.21314 0
M  V30 573 H 50.9234 -5.73271 0.0579047 0
M  V30 574 H 49.3204 -5.94469 0.820165 0
M  V30 575 H 50.3904 -4.64777 1.3824 0
M  V30 576 N 51.7335 -0.305618 -1.54608 0
M  V30 577 C 52.6635 0.561482 -2.26649 0
M  V30 578 C 53.6445 1.13415 -1.26772 0
M  V30 579 O 54.8295 1.16262 -1.55553 0
M  V30 580 C 51.9595 1.73122 -3.01075 0
M  V30 581 C 50.9135 1.2887 -4.08138 0
M  V30 582 C 50.2395 2.54396 -4.70305 0
M  V30 583 C 51.5395 0.416578 -5.20636 0
M  V30 584 H 53.2335 -0.0393902 -2.99374 0
M  V30 585 H 50.7795 -0.020385 -1.43986 0
M  V30 586 H 52.7325 2.34396 -3.50195 0
M  V30 587 H 51.4565 2.3584 -2.25936 0
M  V30 588 H 50.1155 0.698991 -3.59875 0
M  V30 589 H 49.7635 3.15439 -3.918 0
M  V30 590 H 49.4635 2.25486 -5.42614 0
M  V30 591 H 50.9875 3.16464 -5.2219 0
M  V30 592 H 52.4015 0.935116 -5.65622 0
M  V30 593 H 50.7985 0.221046 -5.99693 0
M  V30 594 H 51.8685 -0.557162 -4.81688 0
M  V30 595 N 53.2116 1.57565 -0.0334293 0
M  V30 596 C 54.1436 2.0739 0.975811 0
M  V30 597 C 55.1566 0.998166 1.2861 0
M  V30 598 O 56.3456 1.27426 1.25 0
M  V30 599 C 53.4456 2.4871 2.30209 0
M  V30 600 C 52.6186 3.79413 2.17634 0
M  V30 601 C 51.6776 4.07237 3.33233 0
M  V30 602 O 50.7036 4.77425 3.09927 0
M  V30 603 N 51.9056 3.5775 4.5716 0
M  V30 604 H 54.6706 2.94598 0.55066 0
M  V30 605 H 52.2316 1.61173 0.15323 0
M  V30 606 H 54.2236 2.64413 3.06378 0
M  V30 607 H 52.7936 1.66845 2.64351 0
M  V30 608 H 52.0136 3.73465 1.26165 0
M  V30 609 H 53.3016 4.65038 2.0644 0
M  V30 610 H 52.6996 3.00976 4.78989 0
M  V30 611 H 51.2566 3.78724 5.30482 0
M  V30 612 N 54.6897 -0.239769 1.55765 0
M  V30 613 C 55.6527 -1.28038 1.90103 0
M  V30 614 C 56.6527 -1.40723 0.778055 0
M  V30 615 O 57.8427 -1.39301 1.04599 0
M  V30 616 C 54.9747 -2.65702 2.13577 0
M  V30 617 H 56.1677 -0.988048 2.83157 0
M  V30 618 H 53.7207 -0.479382 1.48767 0
M  V30 619 H 54.4557 -3.00063 1.23015 0
M  V30 620 H 54.2407 -2.57875 2.95369 0
M  V30 621 H 55.7307 -3.40828 2.41301 0
M  V30 622 N 56.1678 -1.49265 -0.50573 0
M  V30 623 C 57.3928 -1.62478 -1.28902 0
M  V30 624 C 57.8178 -0.294332 -1.85783 0
M  V30 625 O 57.1758 0.737412 -1.65626 0
M  V30 626 C 57.2238 -2.69268 -2.39848 0
M  V30 627 O 56.3278 -2.28113 -3.43567 0
M  V30 628 H 55.6688 -0.54399 -0.380751 0
M  V30 629 H 58.1988 -1.95421 -0.605952 0
M  V30 630 H 58.2088 -2.91291 -2.85681 0
M  V30 631 H 56.8838 -3.65846 -1.97812 0
M  V30 632 H 55.4608 -2.16401 -3.03685 0
M  V30 633 N 57.6459 0.756429 -1.3826 0
M  V30 634 C 58.8949 1.51082 -1.3363 0
M  V30 635 C 59.2079 1.95467 0.0720068 0
M  V30 636 O 60.4139 2.7043 0.240834 0
M  V30 637 C 58.8699 2.72893 -2.34644 0
M  V30 638 C 58.4779 2.35544 -3.81081 0
M  V30 639 C 60.2219 3.50791 -2.39052 0
M  V30 640 C 58.1289 3.53948 -4.73787 0
M  V30 641 H 57.0589 0.56727 -0.49671 0
M  V30 642 H 59.7099 0.827147 -1.638 0
M  V30 643 H 58.0919 3.43227 -1.97513 0
M  V30 644 H 59.2659 1.72894 -4.27135 0
M  V30 645 H 57.5809 1.70786 -3.79764 0
M  V30 646 H 60.1779 4.38823 -3.05513 0
M  V30 647 H 60.5209 3.91745 -1.40861 0
M  V30 648 H 61.0539 2.87467 -2.74968 0
M  V30 649 H 57.7929 3.18064 -5.73163 0
M  V30 650 H 57.3129 4.15651 -4.32428 0
M  V30 651 H 58.9919 4.20566 -4.91663 0
M  V30 652 N 59.124 1.23083 0.984299 0
M  V30 653 C 60.054 1.03292 2.09411 0
M  V30 654 C 61.035 -0.048923 1.7003 0
M  V30 655 O 62.22 0.114967 1.93859 0
M  V30 656 C 59.35 0.619155 3.41736 0
M  V30 657 C 58.304 1.64791 3.95004 0
M  V30 658 C 57.63 1.0897 5.23478 0
M  V30 659 C 58.93 3.03999 4.24714 0
M  V30 660 H 60.624 1.96119 2.26225 0
M  V30 661 H 58.17 0.944344 1.08711 0
M  V30 662 H 60.123 0.467777 4.18796 0
M  V30 663 H 58.847 -0.344786 3.24775 0
M  V30 664 H 57.506 1.78721 3.20085 0
M  V30 665 H 57.154 0.11686 5.02864 0
M  V30 666 H 56.854 1.77704 5.60085 0
M  V30 667 H 58.378 0.950093 6.03163 0
M  V30 668 H 59.792 2.93393 4.92538 0
M  V30 669 H 58.189 3.69936 4.72512 0
M  V30 670 H 59.259 3.53285 3.32142 0
M  V30 671 N 60.6021 -1.18246 1.0419 0
M  V30 672 C 61.5651 -2.20128 0.638452 0
M  V30 673 C 62.5651 -1.57885 -0.304805 0
M  V30 674 O 63.7551 -1.73967 -0.0900369 0
M  V30 675 C 60.8871 -3.4084 -0.0637751 0
M  V30 676 H 62.0801 -2.57336 1.54007 0
M  V30 677 H 59.6331 -1.32152 0.834598 0
M  V30 678 H 60.3681 -3.09166 -0.979136 0
M  V30 679 H 60.1531 -3.8726 0.614198 0
M  V30 680 H 61.6431 -4.16274 -0.332512 0
M  V30 681 N 62.0802 -0.821533 -1.34494 0
M  V30 682 C 63.3102 -0.421272 -2.02259 0
M  V30 683 C 63.7182 0.977047 -1.6202 0
M  V30 684 O 63.0612 1.64348 -0.820703 0
M  V30 685 C 63.1232 -0.44231 -3.56769 0
M  V30 686 C 62.7872 -1.79372 -4.20327 0
M  V30 687 C 63.7842 -2.75435 -4.40944 0
M  V30 688 C 61.4692 -2.08182 -4.57127 0
M  V30 689 C 63.4632 -3.98482 -4.97484 0
M  V30 690 C 61.1502 -3.31489 -5.13379 0
M  V30 691 C 62.1482 -4.26457 -5.33501 0
M  V30 692 O 61.8362 -5.47585 -5.88562 0
M  V30 693 H 61.5682 -0.167473 -0.654927 0
M  V30 694 H 64.1222 -1.11073 -1.72777 0
M  V30 695 H 62.3522 0.303836 -3.85505 0
M  V30 696 H 64.0412 -0.0622925 -4.05852 0
M  V30 697 H 64.8072 -2.54473 -4.12878 0
M  V30 698 H 60.6862 -1.35066 -4.4077 0
M  V30 699 H 64.2302 -4.72618 -5.13106 0
M  V30 700 H 60.1272 -3.52316 -5.40873 0
M  V30 701 H 60.8952 -5.49086 -6.06998 0
M  V30 702 N 63.5583 1.46682 -0.576371 0
M  V30 703 C 64.4883 2.33028 0.148397 0
M  V30 704 C 65.4693 1.44961 0.889956 0
M  V30 705 O 66.6543 1.73789 0.866662 0
M  V30 706 C 63.7843 3.27117 1.1667 0
M  V30 707 C 62.7383 4.24575 0.540386 0
M  V30 708 C 62.0643 5.08126 1.6647 0
M  V30 709 C 63.3643 5.19722 -0.518331 0
M  V30 710 H 65.0583 2.93875 -0.572509 0
M  V30 711 H 62.6043 1.41315 -0.276768 0
M  V30 712 H 64.5573 3.86374 1.68204 0
M  V30 713 H 63.2813 2.64364 1.9178 0
M  V30 714 H 61.9403 3.66571 0.0461769 0
M  V30 715 H 61.5883 4.41762 2.40531 0
M  V30 716 H 61.2883 5.74122 1.25131 0
M  V30 717 H 62.8123 5.70246 2.18293 0
M  V30 718 H 64.2263 5.73232 -0.0883058 0
M  V30 719 H 62.6233 5.94026 -0.851679 0
M  V30 720 H 63.6933 4.64037 -1.40703 0
M  V30 721 N 65.0364 0.313813 1.54444 0
M  V30 722 C 66.2824 -0.292108 2.00685 0
M  V30 723 C 66.6154 -1.52548 1.20177 0
M  V30 724 O 65.8904 -1.92452 0.281531 0
M  V30 725 C 66.1734 -0.635968 3.5444 0
M  V30 726 C 66.0264 0.607437 4.4568 0
M  V30 727 C 67.3454 -1.45747 4.15266 0
M  V30 728 H 64.4644 -0.104697 0.729526 0
M  V30 729 H 67.1064 0.428457 1.85106 0
M  V30 730 H 65.2564 -1.24986 3.67846 0
M  V30 731 H 66.9284 1.24581 4.44159 0
M  V30 732 H 65.1714 1.23822 4.15753 0
M  V30 733 H 65.8424 0.322515 5.51057 0
M  V30 734 H 68.3184 -0.938645 4.05375 0
M  V30 735 H 67.1944 -1.66683 5.2298 0
M  V30 736 H 67.4554 -2.45063 3.67963 0
M  V30 737 N 66.5145 -1.57545 0.0417849 0
M  V30 738 C 67.7605 -1.92601 -0.635021 0
M  V30 739 C 68.0935 -0.919627 -1.71045 0
M  V30 740 O 67.3685 0.0557892 -1.9442 0
M  V30 741 C 67.6515 -3.38085 -1.23979 0
M  V30 742 C 67.5045 -4.49467 -0.173057 0
M  V30 743 C 68.8235 -3.83776 -2.15416 0
M  V30 744 H 65.9425 -0.700397 -0.229374 0
M  V30 745 H 68.5845 -1.89728 0.101633 0
M  V30 746 H 66.7345 -3.40664 -1.86762 0
M  V30 747 H 68.4065 -4.59018 0.458312 0
M  V30 748 H 66.6495 -4.30909 0.499996 0
M  V30 749 H 67.3205 -5.48323 -0.636054 0
M  V30 750 H 69.7965 -3.83013 -1.62605 0
M  V30 751 H 68.6725 -4.8624 -2.54679 0
M  V30 752 H 68.9335 -3.19998 -3.05047 0
M  V30 753 N 67.9926 0.231505 -1.5589 0
M  V30 754 C 69.2386 0.954429 -1.79617 0
M  V30 755 C 69.5936 1.82367 -0.613199 0
M  V30 756 O 68.8866 1.87524 0.393094 0
M  V30 757 C 69.0806 1.83577 -3.0665 0
M  V30 758 C 68.9096 1.05334 -4.3719 0
M  V30 759 C 67.6796 0.75225 -4.99669 0
M  V30 760 C 69.8776 0.423444 -5.12554 0
M  V30 761 N 67.8596 -0.052627 -6.13877 0
M  V30 762 C 69.2306 -0.245287 -6.19515 0
M  V30 763 C 71.2856 0.335466 -4.96769 0
M  V30 764 C 69.9886 -0.993566 -7.12405 0
M  V30 765 C 72.0146 -0.399321 -5.9005 0
M  V30 766 C 71.3766 -1.05663 -6.9643 0
M  V30 767 H 67.4756 0.329846 -0.709031 0
M  V30 768 H 70.0596 0.226172 -1.93382 0
M  V30 769 H 68.2306 2.53592 -2.94186 0
M  V30 770 H 69.9626 2.49541 -3.18608 0
M  V30 771 H 66.7176 1.06783 -4.61405 0
M  V30 772 H 67.1416 -0.443609 -6.75545 0
M  V30 773 H 71.7836 0.829311 -4.14587 0
M  V30 774 H 69.5016 -1.49896 -7.94076 0
M  V30 775 H 73.0876 -0.468265 -5.79913 0
M  V30 776 H 71.9676 -1.61612 -7.67366 0
M  V30 777 N 69.4707 1.49531 0.497807 0
M  V30 778 C 70.7167 1.59415 1.25358 0
M  V30 779 C 71.0497 0.281422 1.9215 0
M  V30 780 O 70.3247 -0.715249 1.80871 0
M  V30 781 C 70.6077 2.75566 2.3181 0
M  V30 782 C 70.4607 4.16642 1.69498 0
M  V30 783 C 71.7797 2.87347 3.33346 0
M  V30 784 H 68.8987 0.580244 0.454408 0
M  V30 785 H 71.5407 1.81827 0.551262 0
M  V30 786 H 69.6907 2.56587 2.91711 0
M  V30 787 H 71.3627 4.47145 1.13399 0
M  V30 788 H 69.6057 4.22141 0.998978 0
M  V30 789 H 70.2767 4.93792 2.46725 0
M  V30 790 H 72.7527 3.04634 2.83438 0
M  V30 791 H 71.6287 3.70289 4.05188 0
M  V30 792 H 71.8897 1.96834 3.95865 0
M  V30 793 N 70.9488 -0.749086 1.3866 0
M  V30 794 C 72.1958 -1.50833 1.35114 0
M  V30 795 C 72.5238 -1.94415 -0.0574049 0
M  V30 796 O 71.7788 -1.66065 -1.03541 0
M  V30 797 C 72.0778 -2.7712 2.25697 0
M  V30 798 C 71.7438 -2.52477 3.73585 0
M  V30 799 C 70.4058 -2.45466 4.13884 0
M  V30 800 C 72.7578 -2.31066 4.67181 0
M  V30 801 C 70.0858 -2.15064 5.45861 0
M  V30 802 C 72.4378 -2.02183 5.9942 0
M  V30 803 C 71.1018 -1.93631 6.38798 0
M  V30 804 H 70.3718 -0.551936 0.494416 0
M  V30 805 H 73.0188 -0.860979 1.71054 0
M  V30 806 H 71.3238 -3.46528 1.82827 0
M  V30 807 H 73.0208 -3.35096 2.20254 0
M  V30 808 H 69.6108 -2.58807 3.41638 0
M  V30 809 H 73.7948 -2.35459 4.3689 0
M  V30 810 H 69.0508 -2.06954 5.75308 0
M  V30 811 H 73.2248 -1.8462 6.71482 0
M  V30 812 H 70.8518 -1.69839 7.40985 0
M  V30 813 N 72.4269 -1.23603 -0.977757 0
M  V30 814 C 73.3569 -1.04401 -2.0886 0
M  V30 815 C 74.3379 0.0399052 -1.70053 0
M  V30 816 O 75.5229 -0.125246 -1.93796 0
M  V30 817 C 72.6529 -0.637269 -3.41403 0
M  V30 818 C 71.6069 -1.66883 -3.94124 0
M  V30 819 C 70.9329 -1.11745 -5.22893 0
M  V30 820 C 72.2329 -3.06247 -4.23096 0
M  V30 821 H 73.9269 -1.97316 -2.25182 0
M  V30 822 H 71.4729 -0.950096 -1.08209 0
M  V30 823 H 73.4259 -0.48998 -4.18542 0
M  V30 824 H 72.1499 0.327557 -3.24953 0
M  V30 825 H 70.8089 -1.80416 -3.19133 0
M  V30 826 H 70.4569 -0.143527 -5.02795 0
M  V30 827 H 70.1569 -1.80672 -5.59134 0
M  V30 828 H 71.6809 -0.982067 -6.02651 0
M  V30 829 H 73.0949 -2.96001 -4.90975 0
M  V30 830 H 71.4919 -3.72436 -4.70544 0
M  V30 831 H 72.5619 -3.55041 -3.30263 0
M  V30 832 N 73.905 1.17692 -1.04816 0
M  V30 833 C 75.154 1.87192 -0.751132 0
M  V30 834 C 75.467 1.8169 0.724441 0
M  V30 835 O 76.673 2.46625 1.13527 0
M  V30 836 C 75.129 3.35857 -1.29338 0
M  V30 837 C 74.737 3.4987 -2.79812 0
M  V30 838 C 76.481 4.10709 -1.07322 0
M  V30 839 C 74.388 4.92536 -3.27356 0
M  V30 840 H 73.318 0.701162 -0.277288 0
M  V30 841 H 75.969 1.32932 -1.26496 0
M  V30 842 H 74.351 3.89631 -0.707376 0
M  V30 843 H 75.525 3.06332 -3.44235 0
M  V30 844 H 73.84 2.88433 -3.00325 0
M  V30 845 H 76.437 5.15952 -1.4035 0
M  V30 846 H 76.78 4.16299 -0.0108001 0
M  V30 847 H 77.313 3.6313 -1.62423 0
M  V30 848 H 74.052 4.92119 -4.33012 0
M  V30 849 H 73.572 5.3676 -2.67673 0
M  V30 850 H 75.251 5.61288 -3.21815 0
M  V30 851 N 75.3831 0.828654 1.34056 0
M  V30 852 C 76.3301 0.252567 2.29414 0
M  V30 853 C 77.3001 -0.62588 1.53857 0
M  V30 854 O 78.4851 -0.566312 1.82202 0
M  V30 855 C 75.6251 -0.574831 3.40279 0
M  V30 856 C 74.7381 0.326499 4.30764 0
M  V30 857 C 73.8731 -0.511016 5.28736 0
M  V30 858 C 72.9121 0.389342 6.1086 0
M  V30 859 N 72.0491 -0.409439 7.00905 0
M  V30 860 H 76.8891 1.07108 2.78086 0
M  V30 861 H 74.4261 0.539677 1.36843 0
M  V30 862 H 76.3841 -1.06992 4.03248 0
M  V30 863 H 75.0141 -1.35841 2.92826 0
M  V30 864 H 74.0661 0.939837 3.68607 0
M  V30 865 H 75.3781 1.01857 4.88289 0
M  V30 866 H 74.5321 -1.07035 5.97184 0
M  V30 867 H 73.2711 -1.23657 4.71763 0
M  V30 868 H 72.2761 0.960769 5.4134 0
M  V30 869 H 73.5011 1.1131 6.69916 0
M  V30 870 H 71.4471 -1.11856 6.46393 0
M  V30 871 H 71.3641 0.224126 7.55668 0
M  V30 872 H 72.6321 -0.951336 7.73673 0
M  V30 873 N 76.8612 -1.46375 0.584142 0
M  V30 874 C 77.8082 -2.30323 -0.148286 0
M  V30 875 C 78.7782 -1.40703 -0.882713 0
M  V30 876 O 79.9632 -1.69651 -0.873099 0
M  V30 877 C 77.1032 -3.25196 -1.15507 0
M  V30 878 C 76.2162 -4.29915 -0.423943 0
M  V30 879 C 75.3512 -5.11914 -1.41838 0
M  V30 880 C 74.3902 -6.08381 -0.673736 0
M  V30 881 N 73.5272 -6.83242 -1.6163 0
M  V30 882 H 78.3672 -2.92427 0.573644 0
M  V30 883 H 75.9042 -1.44118 0.294703 0
M  V30 884 H 77.8622 -3.78646 -1.75166 0
M  V30 885 H 76.4922 -2.64898 -1.8447 0
M  V30 886 H 75.5442 -3.7931 0.287714 0
M  V30 887 H 76.8562 -4.98549 0.158128 0
M  V30 888 H 76.0102 -5.69648 -2.08773 0
M  V30 889 H 74.7492 -4.43243 -2.03438 0
M  V30 890 H 73.7542 -5.49799 0.00938483 0
M  V30 891 H 74.9792 -6.79071 -0.0631082 0
M  V30 892 H 72.9252 -6.1728 -2.22038 0
M  V30 893 H 72.8422 -7.48144 -1.08707 0
M  V30 894 H 74.1102 -7.45534 -2.27596 0
M  V30 895 N 78.3393 -0.321999 -1.54275 0
M  V30 896 C 79.5873 0.280489 -2.00144 0
M  V30 897 C 79.9083 1.52777 -1.21178 0
M  V30 898 O 79.1783 1.9338 -0.313187 0
M  V30 899 H 77.7583 0.106632 -0.73935 0
M  V30 900 H 80.4203 -0.438184 -1.8991 0
M  V30 901 H 79.5163 0.537972 -3.07428 0
M  V30 902 N 79.8174 1.5752 -0.0501392 0
M  V30 903 C 81.0474 1.96678 0.632573 0
M  V30 904 C 81.4554 0.926298 1.64974 0
M  V30 905 O 80.7984 -0.09802 1.83438 0
M  V30 906 C 80.8604 3.32068 1.37735 0
M  V30 907 C 80.5244 4.54076 0.516131 0
M  V30 908 C 81.5214 5.19445 -0.217357 0
M  V30 909 C 79.2064 5.00304 0.44736 0
M  V30 910 C 81.2004 6.29378 -1.00807 0
M  V30 911 C 78.8874 6.10114 -0.347038 0
M  V30 912 C 79.8854 6.74512 -1.07344 0
M  V30 913 O 79.5734 7.82211 -1.85477 0
M  V30 914 H 79.3054 0.652193 0.177821 0
M  V30 915 H 81.8594 2.05091 -0.112543 0
M  V30 916 H 80.0894 3.20206 2.16807 0
M  V30 917 H 81.7784 3.55981 1.95019 0
M  V30 918 H 82.5444 4.84689 -0.173688 0
M  V30 919 H 78.4234 4.49971 1.00235 0
M  V30 920 H 81.9674 6.79575 -1.57556 0
M  V30 921 H 77.8644 6.44307 -0.392349 0
M  V30 922 H 78.6324 7.98982 -1.77678 0
M  V30 923 N 81.2955 -0.223234 1.56011 0
M  V30 924 C 82.2275 -1.30006 1.88762 0
M  V30 925 C 83.2405 -1.43129 0.775746 0
M  V30 926 O 84.4295 -1.44057 1.05403 0
M  V30 927 C 81.5295 -2.67589 2.07965 0
M  V30 928 C 80.7025 -2.76434 3.38973 0
M  V30 929 C 79.7615 -3.95019 3.47629 0
M  V30 930 O 78.7875 -3.83436 4.20672 0
M  V30 931 N 79.9895 -5.09249 2.78649 0
M  V30 932 H 82.7545 -1.02238 2.81722 0
M  V30 933 H 80.3155 -0.413278 1.56536 0
M  V30 934 H 82.3075 -3.45297 2.11073 0
M  V30 935 H 80.8775 -2.87964 1.21638 0
M  V30 936 H 80.0975 -1.85216 3.47978 0
M  V30 937 H 81.3855 -2.79313 4.25278 0
M  V30 938 H 80.7835 -5.21556 2.19081 0
M  V30 939 H 79.3405 -5.85007 2.8742 0
M  V30 940 N 82.7736 -1.49793 -0.48987 0
M  V30 941 C 84.0506 -1.50348 -1.25119 0
M  V30 942 C 84.4306 -0.237466 -2.0976 0
M  V30 943 O 83.7786 0.77981 -2.14782 0
M  V30 944 C 83.9886 -2.78872 -2.09837 0
M  V30 945 C 85.3366 -3.288 -2.68655 0
M  V30 946 O 86.3606 -2.80065 -2.20096 0
M  V30 947 O 85.2196 -4.13707 -3.57083 0
M  V30 948 H 82.3136 -0.602242 -0.566775 0
M  V30 949 H 84.8596 -1.62067 -0.503229 0
M  V30 950 H 83.6316 -3.62499 -1.47343 0
M  V30 951 H 83.2546 -2.70066 -2.91805 0
M  V30 952 N 84.2517 0.741722 -1.39055 0
M  V30 953 C 85.4977 1.50336 -1.36113 0
M  V30 954 C 85.8307 1.94148 0.0450796 0
M  V30 955 O 85.1057 1.66301 1.00868 0
M  V30 956 C 85.3887 2.74773 -2.32749 0
M  V30 957 C 85.2417 2.37023 -3.82283 0
M  V30 958 C 86.5607 3.76846 -2.27322 0
M  V30 959 H 83.6797 0.545351 -0.495743 0
M  V30 960 H 86.3217 0.848624 -1.69995 0
M  V30 961 H 84.4717 3.30639 -2.03986 0
M  V30 962 H 86.1437 1.8684 -4.21768 0
M  V30 963 H 84.3867 1.69334 -3.99385 0
M  V30 964 H 85.0577 3.26104 -4.45376 0
M  V30 965 H 87.5337 3.30548 -2.5274 0
M  V30 966 H 86.4097 4.6159 -2.97028 0
M  V30 967 H 86.6707 4.23286 -1.27599 0
M  V30 968 N 85.7298 1.2412 0.971189 0
M  V30 969 C 87.0068 0.986867 1.6888 0
M  V30 970 C 87.3868 -0.491857 2.0529 0
M  V30 971 O 86.7348 -1.46531 1.75331 0
M  V30 972 C 86.9448 1.9063 2.92338 0
M  V30 973 C 88.2928 2.17515 3.64654 0
M  V30 974 O 89.3168 1.88254 3.02388 0
M  V30 975 O 88.1758 2.6719 4.7673 0
M  V30 976 H 85.2698 0.372944 0.738134 0
M  V30 977 H 87.8158 1.35203 1.02559 0
M  V30 978 H 86.5878 2.90552 2.62097 0
M  V30 979 H 86.2108 1.54408 3.66393 0
M  V30 980 N 87.2079 -1.17134 1.05439 0
M  V30 981 C 88.4359 -1.91372 0.786414 0
M  V30 982 C 88.8509 -1.76955 -0.658202 0
M  V30 983 O 88.2079 -1.10838 -1.44987 0
M  V30 984 C 88.2589 -3.42356 1.1608 0
M  V30 985 O 87.9799 -3.56332 2.54871 0
M  V30 986 C 89.4809 -4.33663 0.919322 0
M  V30 987 H 86.7009 -0.607118 0.285743 0
M  V30 988 H 89.2449 -1.48525 1.40572 0
M  V30 989 H 87.3999 -3.82939 0.586191 0
M  V30 990 H 87.8139 -4.49896 2.69618 0
M  V30 991 H 89.2879 -5.38099 1.231 0
M  V30 992 H 89.7649 -4.38959 -0.145359 0
M  V30 993 H 90.3709 -3.98796 1.47789 0
M  V30 994 N 88.686 -0.835752 -1.33615 0
M  V30 995 C 89.911 -0.442389 -2.02627 0
M  V30 996 C 90.336 0.947735 -1.62479 0
M  V30 997 O 89.694 1.61907 -0.815826 0
M  V30 998 C 89.742 -0.567216 -3.56111 0
M  V30 999 O 88.846 0.407799 -4.10379 0
M  V30 1000 H 88.187 -0.180278 -0.639059 0
M  V30 1001 H 90.717 -1.12972 -1.70583 0
M  V30 1002 H 90.727 -0.447708 -4.05536 0
M  V30 1003 H 89.402 -1.58103 -3.84677 0
M  V30 1004 H 87.979 0.246107 -3.72087 0
M  V30 1005 N 90.1641 1.46063 -0.591896 0
M  V30 1006 C 91.0941 2.33172 0.123673 0
M  V30 1007 C 92.0751 1.45897 0.87453 0
M  V30 1008 O 93.2601 1.74698 0.848181 0
M  V30 1009 C 90.3901 3.28336 1.13194 0
M  V30 1010 C 89.3441 4.25124 0.495324 0
M  V30 1011 C 88.6701 5.09863 1.61071 0
M  V30 1012 C 89.9701 5.19143 -0.573425 0
M  V30 1013 H 91.6641 2.93252 -0.603646 0
M  V30 1014 H 89.2101 1.41014 -0.291741 0
M  V30 1015 H 91.1631 3.88137 1.64097 0
M  V30 1016 H 89.8871 2.66383 1.88965 0
M  V30 1017 H 88.5461 3.66599 0.00729452 0
M  V30 1018 H 88.1941 4.44288 2.35832 0
M  V30 1019 H 87.8941 5.75417 1.19035 0
M  V30 1020 H 89.4181 5.72529 2.12233 0
M  V30 1021 H 90.8321 5.73106 -0.1491 0
M  V30 1022 H 89.2291 5.93089 -0.914636 0
M  V30 1023 H 90.2991 4.62519 -1.45617 0
M  V30 1024 N 91.6422 0.330177 1.54103 0
M  V30 1025 C 92.5742 -0.566902 2.22079 0
M  V30 1026 C 93.5872 -1.07462 1.22294 0
M  V30 1027 O 94.7762 -0.987065 1.48726 0
M  V30 1028 C 91.8762 -1.79138 2.87685 0
M  V30 1029 C 91.0492 -1.42123 4.13666 0
M  V30 1030 C 90.1082 -2.50394 4.62806 0
M  V30 1031 O 89.1342 -2.14261 5.27334 0
M  V30 1032 N 90.3362 -3.81433 4.37595 0
M  V30 1033 H 93.1012 0.0151844 2.99696 0
M  V30 1034 H 90.6622 0.153681 1.61169 0
M  V30 1035 H 92.6542 -2.50975 3.1748 0
M  V30 1036 H 91.2242 -2.28115 2.13734 0
M  V30 1037 H 90.4442 -0.534201 3.90564 0
M  V30 1038 H 91.7322 -1.14971 4.9564 0
M  V30 1039 H 91.1302 -4.13584 3.8596 0
M  V30 1040 H 89.6872 -4.4948 4.72029 0
M  V30 1041 N 93.1203 -1.57491 0.0584922 0
M  V30 1042 C 94.3453 -1.97711 -0.62652 0
M  V30 1043 C 94.7703 -0.936132 -1.63151 0
M  V30 1044 O 94.1283 0.099811 -1.81025 0
M  V30 1045 C 94.1763 -3.36989 -1.28338 0
M  V30 1046 O 93.2803 -3.35433 -2.39913 0
M  V30 1047 H 92.6213 -0.643868 -0.162266 0
M  V30 1048 H 95.1513 -2.04193 0.129064 0
M  V30 1049 H 95.1613 -3.73879 -1.63335 0
M  V30 1050 H 93.8363 -4.12289 -0.546889 0
M  V30 1051 H 92.4133 -3.10298 -2.06809 0
M  V30 1052 N 94.5984 0.214957 -1.56127 0
M  V30 1053 C 95.5614 1.24997 -1.92116 0
M  V30 1054 C 96.5614 1.39467 -0.800344 0
M  V30 1055 O 97.7514 1.37619 -1.06802 0
M  V30 1056 C 94.8834 2.62271 -2.17777 0
M  V30 1057 H 96.0764 0.942875 -2.84693 0
M  V30 1058 H 93.6294 0.455654 -1.49511 0
M  V30 1059 H 94.3644 2.98068 -1.27773 0
M  V30 1060 H 94.1494 2.53143 -2.99434 0
M  V30 1061 H 95.6394 3.36946 -2.46693 0
M  V30 1062 N 96.0765 1.50051 0.48192 0
M  V30 1063 C 97.3225 1.60736 1.2366 0
M  V30 1064 C 97.6555 0.301786 1.91841 0
M  V30 1065 O 96.9305 -0.696025 1.8162 0
M  V30 1066 C 97.2135 2.78009 2.28874 0
M  V30 1067 C 97.0665 4.18416 1.65069 0
M  V30 1068 C 98.3855 2.90867 3.30279 0
M  V30 1069 H 95.5045 0.585031 0.448228 0
M  V30 1070 H 98.1465 1.82402 0.531946 0
M  V30 1071 H 96.2965 2.59667 2.88973 0
M  V30 1072 H 97.9685 4.48322 1.0865 0
M  V30 1073 H 96.2115 4.23177 0.954148 0
M  V30 1074 H 96.8825 4.96381 2.41474 0
M  V30 1075 H 99.3585 3.07623 2.80191 0
M  V30 1076 H 98.2345 3.74566 4.01238 0
M  V30 1077 H 98.4955 2.01021 3.93755 0
M  V30 1078 N 97.5546 -0.734337 1.39446 0
M  V30 1079 C 98.8036 -1.48937 1.36017 0
M  V30 1080 C 99.1166 -1.95557 -0.0409005 0
M  V30 1081 O 100.323 -2.70779 -0.19778 0
M  V30 1082 C 98.7786 -2.69125 2.38955 0
M  V30 1083 C 98.3866 -2.29452 3.8478 0
M  V30 1084 C 100.131 -3.46944 2.44603 0
M  V30 1085 C 98.0376 -3.46366 4.79358 0
M  V30 1086 H 96.9676 -0.559296 0.505672 0
M  V30 1087 H 99.6186 -0.800983 1.65095 0
M  V30 1088 H 98.0006 -3.40041 2.02948 0
M  V30 1089 H 99.1746 -1.66077 4.29831 0
M  V30 1090 H 97.4896 -1.64723 3.82433 0
M  V30 1091 H 100.087 -4.33907 3.12456 0
M  V30 1092 H 100.43 -3.89454 1.47076 0
M  V30 1093 H 100.963 -2.83056 2.79507 0
M  V30 1094 H 97.7016 -3.08905 5.78151 0
M  V30 1095 H 97.2216 -4.08719 4.38986 0
M  V30 1096 H 98.9006 -4.12691 4.98292 0
M  V30 1097 N 99.0327 -1.24633 -0.964593 0
M  V30 1098 C 100.261 -1.11501 -1.74285 0
M  V30 1099 C 100.676 0.332165 -1.85855 0
M  V30 1100 O 100.033 1.22903 -1.34911 0
M  V30 1101 C 100.084 -1.75258 -3.16175 0
M  V30 1102 O 99.8047 -3.14318 -3.05182 0
M  V30 1103 C 101.306 -1.67776 -4.10324 0
M  V30 1104 H 98.5257 -0.389407 -0.546446 0
M  V30 1105 H 101.07 -1.64801 -1.21083 0
M  V30 1106 H 99.2247 -1.25954 -3.66353 0
M  V30 1107 H 99.6387 -3.4551 -3.94618 0
M  V30 1108 H 101.113 -2.17064 -5.0753 0
M  V30 1109 H 101.59 -0.639584 -4.34518 0
M  V30 1110 H 102.196 -2.16522 -3.66058 0
M  V30 1111 N 100.511 1.16574 -1.06058 0
M  V30 1112 C 101.458 2.20883 -0.669263 0
M  V30 1113 C 102.428 1.62729 0.332918 0
M  V30 1114 O 103.613 1.895 0.222346 0
M  V30 1115 C 100.753 3.45049 -0.0593572 0
M  V30 1116 C 99.8658 4.17458 -1.11143 0
M  V30 1117 C 99.0008 5.29135 -0.467916 0
M  V30 1118 C 98.0398 5.93343 -1.50369 0
M  V30 1119 N 97.1768 6.96516 -0.883706 0
M  V30 1120 H 102.017 2.53709 -1.5632 0
M  V30 1121 H 99.5538 1.24616 -0.781625 0
M  V30 1122 H 101.512 4.16033 0.311771 0
M  V30 1123 H 100.142 3.12781 0.797992 0
M  V30 1124 H 99.1938 3.45101 -1.60029 0
M  V30 1125 H 100.506 4.61307 -1.89731 0
M  V30 1126 H 99.6598 6.06684 -0.0436871 0
M  V30 1127 H 98.3988 4.86443 0.349864 0
M  V30 1128 H 97.4038 5.14517 -1.93784 0
M  V30 1129 H 98.6288 6.38114 -2.32352 0
M  V30 1130 H 96.5748 6.55943 -0.086595 0
M  V30 1131 H 96.4918 7.38723 -1.607 0
M  V30 1132 H 97.7598 7.77993 -0.484543 0
M  V30 1133 N 101.989 0.842826 1.3317 0
M  V30 1134 C 103.235 0.441099 1.97945 0
M  V30 1135 C 103.568 -0.998024 1.66593 0
M  V30 1136 O 102.843 -1.69839 0.947898 0
M  V30 1137 C 103.126 0.666841 3.53872 0
M  V30 1138 C 102.979 2.15352 3.94897 0
M  V30 1139 C 104.298 0.115544 4.39948 0
M  V30 1140 H 101.417 0.161739 0.719034 0
M  V30 1141 H 104.059 1.05907 1.57746 0
M  V30 1142 H 102.209 0.140828 3.88245 0
M  V30 1143 H 103.881 2.7447 3.70761 0
M  V30 1144 H 102.124 2.63653 3.44484 0
M  V30 1145 H 102.795 2.26221 5.03516 0
M  V30 1146 H 105.271 0.565213 4.12243 0
M  V30 1147 H 104.147 0.303152 5.48062 0
M  V30 1148 H 104.408 -0.980935 4.3108 0
M  V30 1149 N 103.467 -1.45747 0.599634 0
M  V30 1150 C 104.414 -2.30467 -0.123849 0
M  V30 1151 C 105.384 -1.41632 -0.86774 0
M  V30 1152 O 106.569 -1.70568 -0.855056 0
M  V30 1153 C 103.709 -3.26402 -1.12051 0
M  V30 1154 C 102.822 -4.3034 -0.37832 0
M  V30 1155 C 101.957 -5.13389 -1.364 0
M  V30 1156 C 100.996 -6.09061 -0.609171 0
M  V30 1157 N 100.133 -6.84918 -1.54374 0
M  V30 1158 H 104.973 -2.91802 0.604627 0
M  V30 1159 H 102.51 -1.43797 0.309972 0
M  V30 1160 H 104.468 -3.80482 -1.7114 0
M  V30 1161 H 103.098 -2.66839 -1.8165 0
M  V30 1162 H 102.15 -3.78984 0.327929 0
M  V30 1163 H 103.462 -4.98354 0.210997 0
M  V30 1164 H 102.616 -5.7183 -2.02719 0
M  V30 1165 H 101.355 -4.45376 -1.98725 0
M  V30 1166 H 100.36 -5.49758 0.0676979 0
M  V30 1167 H 101.585 -6.79099 0.00891991 0
M  V30 1168 H 99.531 -6.19601 -2.15478 0
M  V30 1169 H 99.448 -7.49254 -1.00766 0
M  V30 1170 H 100.716 -7.47906 -2.19676 0
M  V30 1171 N 104.945 -0.338344 -1.53925 0
M  V30 1172 C 106.193 0.259245 -2.0043 0
M  V30 1173 C 106.514 1.51484 -1.22791 0
M  V30 1174 O 105.784 1.93037 -0.33368 0
M  V30 1175 H 104.364 0.0987845 -0.740439 0
M  V30 1176 H 107.026 -0.458302 -1.89435 0
M  V30 1177 H 106.122 0.505334 -3.07982 0
M  V30 1178 N 106.423 1.57458 -0.0668435 0
M  V30 1179 C 107.669 1.93587 0.6043 0
M  V30 1180 C 108.002 0.946722 1.69561 0
M  V30 1181 O 107.277 -0.0248516 1.94484 0
M  V30 1182 C 107.56 3.40014 1.18585 0
M  V30 1183 C 107.413 4.49685 0.101529 0
M  V30 1184 C 108.732 3.87154 2.09284 0
M  V30 1185 H 105.851 0.703958 0.218202 0
M  V30 1186 H 108.493 1.89542 -0.131804 0
M  V30 1187 H 106.643 3.43592 1.81319 0
M  V30 1188 H 108.315 4.5823 -0.531279 0
M  V30 1189 H 106.558 4.30059 -0.568487 0
M  V30 1190 H 107.229 5.49266 0.54874 0
M  V30 1191 H 109.705 3.85551 1.56491 0
M  V30 1192 H 108.581 4.90231 2.46911 0
M  V30 1193 H 108.842 3.2481 2.99918 0
M  V30 1194 N 107.901 -0.206675 1.56239 0
M  V30 1195 C 108.864 -1.23976 1.92776 0
M  V30 1196 C 109.864 -1.39041 0.807729 0
M  V30 1197 O 111.054 -1.37051 1.0753 0
M  V30 1198 C 108.186 -2.61112 2.19165 0
M  V30 1199 H 109.379 -0.927764 2.85189 0
M  V30 1200 H 106.932 -0.447718 1.4975 0
M  V30 1201 H 107.667 -2.97386 1.29352 0
M  V30 1202 H 107.452 -2.51552 3.00772 0
M  V30 1203 H 108.942 -3.35633 2.48476 0
M  V30 1204 N 109.379 -1.50304 -0.473955 0
M  V30 1205 C 110.626 -1.6115 -1.22625 0
M  V30 1206 C 110.954 -0.310517 -1.92005 0
M  V30 1207 O 110.209 0.703419 -1.82621 0
M  V30 1208 C 110.508 -2.73938 -2.29549 0
M  V30 1209 C 110.174 -4.14519 -1.7744 0
M  V30 1210 C 108.836 -4.5277 -1.62949 0
M  V30 1211 C 111.188 -5.02392 -1.3875 0
M  V30 1212 C 108.516 -5.76639 -1.08187 0
M  V30 1213 C 110.868 -6.26805 -0.854309 0
M  V30 1214 C 109.532 -6.63861 -0.696011 0
M  V30 1215 H 108.802 -0.589691 -0.448715 0
M  V30 1216 H 111.449 -1.84228 -0.522705 0
M  V30 1217 H 109.754 -2.44937 -3.05799 0
M  V30 1218 H 111.451 -2.79534 -2.87509 0
M  V30 1219 H 108.041 -3.8434 -1.89685 0
M  V30 1220 H 112.225 -4.73474 -1.4878 0
M  V30 1221 H 107.481 -6.04027 -0.946666 0
M  V30 1222 H 111.655 -6.94258 -0.545843 0
M  V30 1223 H 109.282 -7.59722 -0.26952 0
M  V30 1224 N 110.857 0.726932 -1.39834 0
M  V30 1225 C 112.085 1.51613 -1.40787 0
M  V30 1226 C 112.5 1.88799 -0.00451505 0
M  V30 1227 O 111.857 1.54662 0.968809 0
M  V30 1228 C 111.908 2.79863 -2.28821 0
M  V30 1229 O 111.629 2.44253 -3.63692 0
M  V30 1230 C 113.13 3.73837 -2.38245 0
M  V30 1231 H 110.35 0.468264 -0.480593 0
M  V30 1232 H 112.894 0.897607 -1.83748 0
M  V30 1233 H 111.049 3.38027 -1.89252 0
M  V30 1234 H 111.463 3.26695 -4.1033 0
M  V30 1235 H 112.937 4.60699 -3.04073 0
M  V30 1236 H 113.414 4.16153 -1.40403 0
M  V30 1237 H 114.02 3.21589 -2.78317 0
M  V30 1238 N 112.336 1.25143 0.95797 0
M  V30 1239 C 113.284 1.05019 2.07542 0
M  V30 1240 C 114.278 -0.0178751 1.69391 0
M  V30 1241 O 115.484 0.137472 1.79474 0
M  V30 1242 H 111.859 0.32265 0.679265 0
M  V30 1243 H 113.83 1.99759 2.21673 0
M  V30 1244 C 112.579 0.682074 3.40944 0
M  V30 1245 H 111.902 1.49573 3.70767 0
M  V30 1246 H 113.342 0.580945 4.20001 0
M  V30 1247 C 111.801 -0.611608 3.31302 0
M  V30 1248 O 112.331 -1.65465 3.66038 0
M  V30 1249 N 110.537 -0.595982 2.84423 0
M  V30 1250 H 110.084 0.253192 2.56353 0
M  V30 1251 H 110.042 -1.46173 2.78354 0
M  V30 1252 N 113.814 -1.1601 1.06675 0
M  V30 1253 C 115.042 -1.90527 0.806667 0
M  V30 1254 C 115.457 -1.77643 -0.639396 0
M  V30 1255 O 114.814 -1.12369 -1.43803 0
M  V30 1256 C 114.865 -3.41106 1.19705 0
M  V30 1257 O 114.586 -3.53608 2.58636 0
M  V30 1258 C 116.087 -4.32663 0.965266 0
M  V30 1259 H 113.307 -0.604053 0.292166 0
M  V30 1260 H 115.851 -1.47026 1.4214 0
M  V30 1261 H 114.006 -3.82296 0.626774 0
M  V30 1262 H 114.42 -4.47011 2.74375 0
M  V30 1263 H 115.894 -5.36763 1.288 0
M  V30 1264 H 116.371 -4.39089 -0.0987936 0
M  V30 1265 H 116.977 -3.97206 1.52011 0
M  V30 1266 N 115.292 -0.849877 -1.32721 0
M  V30 1267 C 116.517 -0.463856 -2.02146 0
M  V30 1268 C 116.942 0.930449 -1.63476 0
M  V30 1269 O 116.3 1.61033 -0.832952 0
M  V30 1270 C 116.348 -0.604955 -3.55489 0
M  V30 1271 O 115.452 0.36425 -4.10788 0
M  V30 1272 H 114.793 -0.187046 -0.637111 0
M  V30 1273 H 117.323 -1.14775 -1.69375 0
M  V30 1274 H 117.333 -0.490696 -4.05038 0
M  V30 1275 H 116.008 -1.62174 -3.82978 0
M  V30 1276 H 114.585 0.206628 -3.72327 0
M  V30 1277 N 116.77 1.45427 -0.607355 0
M  V30 1278 C 118.047 1.9557 -0.0344566 0
M  V30 1279 C 118.427 1.54979 1.43334 0
M  V30 1280 O 117.775 0.812241 2.13576 0
M  V30 1281 C 117.985 3.48226 -0.232321 0
M  V30 1282 C 119.333 4.2445 -0.113001 0
M  V30 1283 O 120.357 3.55829 -0.162431 0
M  V30 1284 O 119.216 5.465 0.00209442 0
M  V30 1285 H 116.31 0.826222 0.0358667 0
M  V30 1286 H 118.856 1.55594 -0.6774 0
M  V30 1287 H 117.628 3.70739 -1.25174 0
M  V30 1288 H 117.251 3.95092 0.445896 0
M  V30 1289 N 118.248 0.346503 1.53744 0
M  V30 1290 C 119.178 -0.501193 2.28058 0
M  V30 1291 C 120.159 -1.10014 1.29734 0
M  V30 1292 O 121.344 -1.12097 1.58581 0
M  V30 1293 C 118.474 -1.65078 3.05559 0
M  V30 1294 C 117.428 -1.18003 4.11411 0
M  V30 1295 C 116.754 -2.41837 4.76884 0
M  V30 1296 C 118.054 -0.278394 5.21558 0
M  V30 1297 H 119.748 0.11875 2.99164 0
M  V30 1298 H 117.294 0.0585531 1.43881 0
M  V30 1299 H 119.247 -2.25028 3.56287 0
M  V30 1300 H 117.971 -2.29767 2.32109 0
M  V30 1301 H 116.63 -0.603331 3.61601 0
M  V30 1302 H 116.278 -3.0494 4.00026 0
M  V30 1303 H 115.978 -2.1102 5.48402 0
M  V30 1304 H 117.502 -3.02508 5.30397 0
M  V30 1305 H 118.916 -0.784823 5.67903 0
M  V30 1306 H 117.313 -0.0619707 6.00068 0
M  V30 1307 H 118.383 0.684677 4.80042 0
M  V30 1308 N 119.726 -1.57421 0.075193 0
M  V30 1309 C 120.974 -1.93236 -0.591974 0
M  V30 1310 C 121.295 -0.956241 -1.69944 0
M  V30 1311 O 120.565 -0.00494792 -1.95899 0
M  V30 1312 H 119.145 -0.713355 -0.22166 0
M  V30 1313 H 121.807 -1.9444 0.133848 0
M  V30 1314 H 120.903 -2.95131 -1.01509 0
M  V30 1315 N 121.204 0.198386 -1.56346 0
M  V30 1316 C 122.136 1.26987 -1.90806 0
M  V30 1317 C 123.149 1.41877 -0.798419 0
M  V30 1318 O 124.338 1.42362 -1.07682 0
M  V30 1319 C 121.438 2.64246 -2.12196 0
M  V30 1320 C 120.611 2.71007 -3.43328 0
M  V30 1321 C 119.67 3.89439 -3.5387 0
M  V30 1322 O 118.696 3.76695 -4.26719 0
M  V30 1323 N 119.898 5.04752 -2.86715 0
M  V30 1324 H 122.663 0.977433 -2.83313 0
M  V30 1325 H 120.224 0.388322 -1.57174 0
M  V30 1326 H 122.216 3.41896 -2.1654 0
M  V30 1327 H 120.786 2.85992 -1.26204 0
M  V30 1328 H 120.006 1.79657 -3.50881 0
M  V30 1329 H 121.294 2.72512 -4.29668 0
M  V30 1330 H 120.692 5.18004 -2.2735 0
M  V30 1331 H 119.249 5.8036 -2.96691 0
M  V30 1332 N 122.682 1.50554 0.465978 0
M  V30 1333 C 124.098 1.38093 0.800154 0
M  V30 1334 C 124.298 0.440988 1.96615 0
M  V30 1335 O 123.354 -0.114499 2.5224 0
M  V30 1336 C 124.667 2.79565 1.10742 0
M  V30 1337 C 126.215 2.88516 1.21357 0
M  V30 1338 C 126.69 4.30833 1.55393 0
M  V30 1339 N 128.181 4.33807 1.62375 0
M  V30 1340 C 128.916 5.40927 1.90225 0
M  V30 1341 N 128.412 6.58247 2.16062 0
M  V30 1342 N 130.205 5.28376 1.9177 0
M  V30 1343 H 122.356 2.10237 -0.302366 0
M  V30 1344 H 124.619 0.945203 -0.0727746 0
M  V30 1345 H 124.325 3.50208 0.323661 0
M  V30 1346 H 124.199 3.17125 2.04234 0
M  V30 1347 H 126.586 2.1809 1.98799 0
M  V30 1348 H 126.667 2.54492 0.258321 0
M  V30 1349 H 126.311 5.01799 0.784889 0
M  V30 1350 H 126.241 4.62347 2.52076 0
M  V30 1351 H 128.732 3.49212 1.44427 0
M  V30 1352 H 129.045 7.3569 2.36601 0
M  V30 1353 H 127.39 6.61413 2.13444 0
M  V30 1354 H 130.581 4.35715 1.71085 0
M  V30 1355 H 130.754 6.11944 2.13139 0
M  V30 1356 N 124.16 -0.719506 1.40217 0
M  V30 1357 C 125.409 -1.47486 1.37589 0
M  V30 1358 C 125.722 -1.9559 -0.0201568 0
M  V30 1359 O 126.928 -2.70973 -0.169049 0
M  V30 1360 C 125.384 -2.66575 2.41796 0
M  V30 1361 C 124.992 -2.25358 3.87192 0
M  V30 1362 C 126.736 -3.4433 2.48269 0
M  V30 1363 C 124.643 -3.41262 4.83005 0
M  V30 1364 H 123.573 -0.553901 0.511576 0
M  V30 1365 H 126.224 -0.783427 1.65936 0
M  V30 1366 H 124.606 -3.3787 2.06543 0
M  V30 1367 H 125.78 -1.61509 4.31569 0
M  V30 1368 H 124.095 -1.60657 3.84159 0
M  V30 1369 H 126.692 -4.30569 3.17041 0
M  V30 1370 H 127.035 -3.87872 1.51198 0
M  V30 1371 H 127.568 -2.80076 2.82493 0
M  V30 1372 H 124.307 -3.02755 5.81394 0
M  V30 1373 H 123.827 -4.0404 4.43297 0
M  V30 1374 H 125.506 -4.07383 5.02641 0
M  V30 1375 N 125.638 -1.25649 -0.95132 0
M  V30 1376 C 126.884 -1.11766 -1.69941 0
M  V30 1377 C 127.239 0.33735 -1.89419 0
M  V30 1378 O 126.532 1.24491 -1.45645 0
M  V30 1379 C 126.726 -1.80909 -3.08231 0
M  V30 1380 C 126.555 -3.32984 -3.02245 0
M  V30 1381 C 125.325 -4.02247 -3.05819 0
M  V30 1382 C 127.523 -4.29332 -2.83157 0
M  V30 1383 N 125.505 -5.41072 -2.90024 0
M  V30 1384 C 126.876 -5.55265 -2.75828 0
M  V30 1385 C 128.931 -4.19707 -2.67863 0
M  V30 1386 C 127.634 -6.72671 -2.54767 0
M  V30 1387 C 129.66 -5.36809 -2.48173 0
M  V30 1388 C 129.022 -6.61683 -2.41567 0
M  V30 1389 H 125.121 -0.463708 -0.629682 0
M  V30 1390 H 127.705 -1.58796 -1.12659 0
M  V30 1391 H 125.876 -1.36369 -3.63673 0
M  V30 1392 H 127.608 -1.59739 -3.71841 0
M  V30 1393 H 124.363 -3.53531 -3.15139 0
M  V30 1394 H 124.787 -6.13938 -2.85323 0
M  V30 1395 H 129.429 -3.23907 -2.71743 0
M  V30 1396 H 127.147 -7.68577 -2.49629 0
M  V30 1397 H 130.733 -5.31224 -2.37259 0
M  V30 1398 H 129.613 -7.50768 -2.26531 0
M  V30 1399 N 127.117 1.15442 -1.07289 0
M  V30 1400 C 128.394 1.82306 -0.708792 0
M  V30 1401 C 128.774 1.94991 0.808807 0
M  V30 1402 O 128.122 1.50085 1.72298 0
M  V30 1403 C 128.332 3.18695 -1.42247 0
M  V30 1404 C 129.68 3.94341 -1.57417 0
M  V30 1405 O 130.704 3.28247 -1.38319 0
M  V30 1406 O 129.563 5.12839 -1.88834 0
M  V30 1407 H 126.657 0.787628 -0.252132 0
M  V30 1408 H 129.203 1.22559 -1.17377 0
M  V30 1409 H 127.975 3.04557 -2.45684 0
M  V30 1410 H 127.598 3.86128 -0.948223 0
M  V30 1411 N 128.595 0.856903 1.32268 0
M  V30 1412 C 129.841 0.462069 1.97466 0
M  V30 1413 C 130.174 -0.980298 1.67642 0
M  V30 1414 O 129.449 -1.68824 0.965858 0
M  V30 1415 C 129.732 0.704336 3.53145 0
M  V30 1416 C 129.585 2.19529 3.9259 0
M  V30 1417 C 130.904 0.1622 4.39801 0
M  V30 1418 H 128.023 0.169357 0.717278 0
M  V30 1419 H 130.665 1.07574 1.56614 0
M  V30 1420 H 128.815 0.181999 3.88073 0
M  V30 1421 H 130.487 2.78387 3.67829 0
M  V30 1422 H 128.73 2.67292 3.41668 0
M  V30 1423 H 129.401 2.31549 5.01088 0
M  V30 1424 H 131.877 0.608905 4.11621 0
M  V30 1425 H 130.753 0.361265 5.4771 0
M  V30 1426 H 131.014 -0.935158 4.32096 0
M  V30 1427 N 130.073 -1.45103 0.615059 0
M  V30 1428 C 131.036 -2.29025 -0.0895485 0
M  V30 1429 C 132.036 -1.40174 -0.787906 0
M  V30 1430 O 133.226 -1.62217 -0.634933 0
M  V30 1431 C 130.358 -3.21376 -1.13711 0
M  V30 1432 H 131.551 -2.92807 0.648382 0
M  V30 1433 H 129.104 -1.51749 0.374444 0
M  V30 1434 H 129.839 -2.6241 -1.90556 0
M  V30 1435 H 129.624 -3.86834 -0.640475 0
M  V30 1436 H 131.114 -3.84459 -1.63036 0
M  V30 1437 N 131.551 -0.354651 -1.53558 0
M  V30 1438 C 132.828 0.294281 -1.93374 0
M  V30 1439 C 133.208 1.67313 -1.28723 0
M  V30 1440 O 132.556 2.24179 -0.442247 0
M  V30 1441 C 132.766 0.355445 -3.47185 0
M  V30 1442 C 134.114 0.601007 -4.20325 0
M  V30 1443 O 135.138 0.437106 -3.53508 0
M  V30 1444 O 133.997 0.919322 -5.38712 0
M  V30 1445 H 131.091 0.174033 -0.808481 0
M  V30 1446 H 133.637 -0.406638 -1.64756 0
M  V30 1447 H 132.409 -0.611729 -3.86489 0
M  V30 1448 H 132.032 1.1027 -3.82003 0
M  V30 1449 N 133.029 1.57378 -0.0835403 0
M  V30 1450 C 134.259 1.97975 0.590713 0
M  V30 1451 C 134.667 0.961083 1.62972 0
M  V30 1452 O 134.01 -0.0590879 1.83605 0
M  V30 1453 C 134.072 3.34915 1.3066 0
M  V30 1454 C 133.736 4.55069 0.419698 0
M  V30 1455 C 134.733 5.18868 -0.32749 0
M  V30 1456 C 132.418 5.0114 0.341137 0
M  V30 1457 C 134.412 6.27098 -1.14134 0
M  V30 1458 C 132.099 6.0924 -0.476374 0
M  V30 1459 C 133.097 6.72083 -1.21627 0
M  V30 1460 O 132.785 7.781 -2.02028 0
M  V30 1461 H 132.517 0.655818 0.163947 0
M  V30 1462 H 135.071 2.04807 -0.156021 0
M  V30 1463 H 133.301 3.24733 2.09966 0
M  V30 1464 H 134.99 3.60037 1.87424 0
M  V30 1465 H 135.756 4.84211 -0.276459 0
M  V30 1466 H 131.635 4.51996 0.90668 0
M  V30 1467 H 135.179 6.7608 -1.71935 0
M  V30 1468 H 131.076 6.43329 -0.528927 0
M  V30 1469 H 131.844 7.95034 -1.94586 0
M  V30 1470 N 134.507 -0.190092 1.56449 0
M  V30 1471 C 135.753 -0.911052 1.81184 0
M  V30 1472 C 136.086 -1.82699 0.658396 0
M  V30 1473 O 135.361 -1.91491 -0.340775 0
M  V30 1474 C 135.644 -1.72297 3.16205 0
M  V30 1475 C 135.497 -0.831419 4.42049 0
M  V30 1476 C 136.816 -2.69454 3.47969 0
M  V30 1477 H 133.935 -0.32977 0.659106 0
M  V30 1478 H 136.577 -0.178169 1.89163 0
M  V30 1479 H 134.727 -2.34778 3.09534 0
M  V30 1480 H 136.399 -0.220929 4.60771 0
M  V30 1481 H 134.642 -0.138406 4.33579 0
M  V30 1482 H 135.313 -1.43461 5.33032 0
M  V30 1483 H 137.789 -2.17104 3.54972 0
M  V30 1484 H 136.665 -3.23342 4.43555 0
M  V30 1485 H 136.926 -3.48744 2.71717 0
M  V30 1486 N 135.985 -1.50799 -0.457987 0
M  V30 1487 C 137.234 -1.6168 -1.20593 0
M  V30 1488 C 137.547 -0.32888 -1.92815 0
M  V30 1489 O 138.753 -0.316773 -2.69646 0
M  V30 1490 C 137.209 -2.8545 -2.19195 0
M  V30 1491 C 136.817 -4.21168 -1.52715 0
M  V30 1492 C 138.561 -3.05681 -2.94549 0
M  V30 1493 C 136.468 -5.3611 -2.4968 0
M  V30 1494 H 135.398 -0.602134 -0.453818 0
M  V30 1495 H 138.049 -1.77245 -0.475031 0
M  V30 1496 H 136.431 -2.63472 -2.95632 0
M  V30 1497 H 137.605 -4.53449 -0.819775 0
M  V30 1498 H 135.92 -4.06648 -0.895922 0
M  V30 1499 H 138.517 -3.88727 -3.67145 0
M  V30 1500 H 138.86 -2.17929 -3.54701 0
M  V30 1501 H 139.393 -3.27901 -2.25223 0
M  V30 1502 H 136.132 -6.26057 -1.94249 0
M  V30 1503 H 135.652 -5.0823 -3.18532 0
M  V30 1504 H 137.331 -5.6722 -3.11241 0
M  V30 1505 N 137.463 0.71206 -1.40597 0
M  V30 1506 C 138.874 1.29135 -1.34837 0
M  V30 1507 C 139.225 1.96186 -0.0235395 0
M  V30 1508 O 138.35 1.97768 0.878444 0
M  V30 1509 C 138.945 2.34827 -2.44217 0
M  V30 1510 C 137.504 2.88371 -2.41907 0
M  V30 1511 C 136.651 1.62202 -2.24913 0
M  V30 1512 H 139.602 0.507944 -1.50352 0
M  V30 1513 H 139.623 3.15749 -2.12327 0
M  V30 1514 H 139.135 1.85996 -3.40627 0
M  V30 1515 H 137.236 3.41422 -1.49204 0
M  V30 1516 H 137.349 3.39925 -3.37621 0
M  V30 1517 H 135.713 1.874 -1.72492 0
M  V30 1518 H 136.496 1.15391 -3.23326 0
M  V30 1519 N 138.941 1.26152 0.944643 0
M  V30 1520 C 139.904 1.07474 2.0244 0
M  V30 1521 C 140.904 0.0242064 1.60782 0
M  V30 1522 O 142.094 0.267302 1.72137 0
M  V30 1523 C 139.226 0.633956 3.34953 0
M  V30 1524 H 140.419 2.03336 2.20442 0
M  V30 1525 H 137.972 1.087 1.12312 0
M  V30 1526 H 138.707 -0.326811 3.22649 0
M  V30 1527 H 138.492 1.39247 3.66542 0
M  V30 1528 H 139.982 0.52501 4.14287 0
M  V30 1529 N 140.419 -1.14872 1.07899 0
M  V30 1530 C 141.351 -2.19425 0.662231 0
M  V30 1531 C 142.364 -1.60231 -0.288079 0
M  V30 1532 O 143.553 -1.78336 -0.076534 0
M  V30 1533 C 140.653 -3.38867 -0.0470695 0
M  V30 1534 C 139.826 -4.27597 0.920831 0
M  V30 1535 C 138.885 -5.25616 0.247805 0
M  V30 1536 O 137.911 -5.62189 0.890599 0
M  V30 1537 N 139.113 -5.71746 -1.00435 0
M  V30 1538 H 141.878 -2.55797 1.56166 0
M  V30 1539 H 139.439 -1.30042 0.964404 0
M  V30 1540 H 141.431 -4.01497 -0.50813 0
M  V30 1541 H 140.001 -3.00864 -0.848523 0
M  V30 1542 H 139.221 -3.61982 1.56087 0
M  V30 1543 H 140.509 -4.83748 1.57688 0
M  V30 1544 H 139.907 -5.44153 -1.54642 0
M  V30 1545 H 138.464 -6.36389 -1.40899 0
M  V30 1546 N 141.898 -0.863906 -1.31812 0
M  V30 1547 C 143.146 -0.470904 -1.96537 0
M  V30 1548 C 143.467 0.978771 -1.68657 0
M  V30 1549 O 142.737 1.6853 -0.998717 0
M  V30 1550 H 141.317 -0.171148 -0.72713 0
M  V30 1551 H 143.979 -1.10236 -1.60729 0
M  V30 1552 H 143.075 -0.623616 -3.05806 0
M  V30 1553 N 143.376 1.44774 -0.622745 0
M  V30 1554 C 144.286 2.34433 0.0886031 0
M  V30 1555 C 145.302 1.52131 0.844529 0
M  V30 1556 O 146.478 1.84886 0.798691 0
M  V30 1557 C 143.543 3.29986 1.0635 0
M  V30 1558 C 142.604 4.28195 0.307873 0
M  V30 1559 C 141.837 5.19183 1.23633 0
M  V30 1560 O 142.06 5.13918 2.47476 0
M  V30 1561 O 140.994 5.97515 0.725189 0
M  V30 1562 H 144.82 2.96693 -0.648599 0
M  V30 1563 H 142.405 1.44408 -0.382957 0
M  V30 1564 H 144.287 3.88825 1.6246 0
M  V30 1565 H 142.962 2.70269 1.78146 0
M  V30 1566 H 141.869 3.72927 -0.296064 0
M  V30 1567 H 143.202 4.90808 -0.3699 0
M  V30 1568 N 144.854 0.36279 1.53368 0
M  V30 1569 C 145.802 -0.500155 2.27159 0
M  V30 1570 C 146.796 -1.08575 1.3003 0
M  V30 1571 O 148.002 -1.02927 1.47668 0
M  V30 1572 H 144.377 -0.180009 0.730138 0
M  V30 1573 H 146.348 0.14401 2.98052 0
M  V30 1574 C 145.097 -1.62937 3.07159 0
M  V30 1575 H 144.42 -1.18806 3.8174 0
M  V30 1576 H 145.86 -2.20795 3.61975 0
M  V30 1577 C 144.319 -2.57007 2.17829 0
M  V30 1578 O 144.849 -3.59752 1.78721 0
M  V30 1579 N 143.055 -2.26131 1.82518 0
M  V30 1580 H 142.602 -1.42616 2.14519 0
M  V30 1581 H 142.56 -2.89327 1.23034 0
M  V30 1582 N 146.332 -1.57332 0.0918853 0
M  V30 1583 C 147.578 -1.94524 -0.573425 0
M  V30 1584 C 147.911 -0.973578 -1.68033 0
M  V30 1585 O 147.186 -0.00609226 -1.94499 0
M  V30 1586 C 147.469 -3.41858 -1.13161 0
M  V30 1587 C 147.322 -4.4979 -0.0299747 0
M  V30 1588 C 148.641 -3.90435 -2.03098 0
M  V30 1589 H 145.76 -0.70734 -0.206975 0
M  V30 1590 H 148.402 -1.89309 0.161942 0
M  V30 1591 H 146.552 -3.46433 -1.7583 0
M  V30 1592 H 148.224 -4.57327 0.604112 0
M  V30 1593 H 146.467 -4.291 0.636833 0
M  V30 1594 H 147.138 -5.50069 -0.461287 0
M  V30 1595 H 149.614 -3.87992 -1.50338 0
M  V30 1596 H 148.49 -4.94097 -2.39081 0
M  V30 1597 H 148.751 -3.29541 -2.94712 0
M  V30 1598 N 147.81 0.181792 -1.56548 0
M  V30 1599 C 149.057 0.900097 -1.81396 0
M  V30 1600 C 149.385 1.82695 -0.667281 0
M  V30 1601 O 148.64 1.92614 0.346146 0
M  V30 1602 C 148.939 1.73728 -3.12335 0
M  V30 1603 C 148.605 0.960255 -4.40556 0
M  V30 1604 C 147.267 0.745766 -4.75386 0
M  V30 1605 C 149.619 0.414477 -5.19549 0
M  V30 1606 C 146.947 -0.0257694 -5.86694 0
M  V30 1607 C 149.299 -0.343916 -6.31664 0
M  V30 1608 C 147.963 -0.569301 -6.65068 0
M  V30 1609 H 147.233 0.329369 -0.663775 0
M  V30 1610 H 149.88 0.165647 -1.90782 0
M  V30 1611 H 148.185 2.54081 -2.98245 0
M  V30 1612 H 149.882 2.29591 -3.28769 0
M  V30 1613 H 146.472 1.13746 -4.13231 0
M  V30 1614 H 150.656 0.567554 -4.93044 0
M  V30 1615 H 145.912 -0.210233 -6.11038 0
M  V30 1616 H 150.086 -0.774133 -6.92084 0
M  V30 1617 H 147.713 -1.16903 -7.51158 0
M  V30 1618 N 149.288 1.51039 0.449983 0
M  V30 1619 C 150.535 1.63081 1.20045 0
M  V30 1620 C 150.863 0.341024 1.91487 0
M  V30 1621 O 150.118 -0.674276 1.83717 0
M  V30 1622 C 150.417 2.77556 2.25161 0
M  V30 1623 C 150.083 4.17289 1.70823 0
M  V30 1624 C 148.745 4.55305 1.55725 0
M  V30 1625 C 151.097 5.04536 1.3074 0
M  V30 1626 C 148.425 5.78287 0.989999 0
M  V30 1627 C 150.777 6.28085 0.754482 0
M  V30 1628 C 149.441 6.64885 0.590308 0
M  V30 1629 H 148.711 0.596755 0.439277 0
M  V30 1630 H 151.358 1.85037 0.49333 0
M  V30 1631 H 149.663 2.49771 3.01863 0
M  V30 1632 H 151.36 2.84073 2.83026 0
M  V30 1633 H 147.95 3.8731 1.83546 0
M  V30 1634 H 152.134 4.75782 1.41229 0
M  V30 1635 H 147.39 6.05456 0.850451 0
M  V30 1636 H 151.564 6.95038 0.435324 0
M  V30 1637 H 149.191 7.60055 0.14862 0
M  V30 1638 N 150.766 -0.704594 1.40972 0
M  V30 1639 C 152.012 -1.46675 1.40051 0
M  V30 1640 C 152.345 -1.94199 0.00641102 0
M  V30 1641 O 151.62 -1.68916 -0.964235 0
M  V30 1642 C 151.903 -2.68505 2.39952 0
M  V30 1643 C 151.756 -2.26805 3.88432 0
M  V30 1644 C 153.075 -3.70686 2.37233 0
M  V30 1645 H 150.194 -0.532015 0.510028 0
M  V30 1646 H 152.836 -0.803255 1.72185 0
M  V30 1647 H 150.986 -3.25114 2.1268 0
M  V30 1648 H 152.658 -1.75592 4.26574 0
M  V30 1649 H 150.901 -1.58685 4.03734 0
M  V30 1650 H 151.572 -3.14181 4.53866 0
M  V30 1651 H 154.048 -3.23731 2.61415 0
M  V30 1652 H 152.924 -4.53553 3.09162 0
M  V30 1653 H 153.185 -4.19754 1.38777 0
M  V30 1654 N 152.244 -1.26651 -0.937939 0
M  V30 1655 C 153.49 -1.12553 -1.687 0
M  V30 1656 C 153.823 0.329782 -1.91379 0
M  V30 1657 O 153.098 1.24202 -1.4968 0
M  V30 1658 C 153.381 -1.89862 -3.05981 0
M  V30 1659 C 153.234 -3.43318 -2.90607 0
M  V30 1660 C 154.553 -1.69499 -4.0615 0
M  V30 1661 H 151.672 -0.410257 -0.612257 0
M  V30 1662 H 154.314 -1.55685 -1.08913 0
M  V30 1663 H 152.464 -1.53204 -3.57017 0
M  V30 1664 H 154.136 -3.89747 -2.46769 0
M  V30 1665 H 152.379 -3.70179 -2.26164 0
M  V30 1666 H 153.05 -3.92642 -3.8799 0
M  V30 1667 H 155.526 -2.01442 -3.64088 0
M  V30 1668 H 154.402 -2.26002 -5.00214 0
M  V30 1669 H 154.663 -0.640365 -4.37438 0
M  V30 1670 N 153.722 1.14298 -1.08507 0
M  V30 1671 C 154.95 1.89219 -0.836876 0
M  V30 1672 C 155.365 1.78638 0.611054 0
M  V30 1673 O 154.722 1.14643 1.41998 0
M  V30 1674 C 154.773 3.39158 -1.25116 0
M  V30 1675 O 154.494 3.49449 -2.64229 0
M  V30 1676 C 155.995 4.31073 -1.03398 0
M  V30 1677 H 153.215 0.599328 -0.301739 0
M  V30 1678 H 155.759 1.44746 -1.44461 0
M  V30 1679 H 153.914 3.81251 -0.687514 0
M  V30 1680 H 154.328 4.42589 -2.81452 0
M  V30 1681 H 155.802 5.34646 -1.37323 0
M  V30 1682 H 156.279 4.3919 0.0289259 0
M  V30 1683 H 156.885 3.94738 -1.58311 0
M  V30 1684 N 155.201 0.870884 1.31352 0
M  V30 1685 C 156.149 0.316445 2.30437 0
M  V30 1686 C 157.143 -0.568965 1.59559 0
M  V30 1687 O 158.349 -0.454964 1.74155 0
M  V30 1688 H 154.724 0.0836521 0.747333 0
M  V30 1689 H 156.695 1.16606 2.74673 0
M  V30 1690 C 155.444 -0.46635 3.44558 0
M  V30 1691 H 154.767 0.205687 3.99271 0
M  V30 1692 H 156.207 -0.819614 4.16003 0
M  V30 1693 C 154.666 -1.65797 2.9328 0
M  V30 1694 O 155.196 -2.75728 2.92125 0
M  V30 1695 N 153.402 -1.49041 2.4947 0
M  V30 1696 H 152.949 -0.59612 2.50608 0
M  V30 1697 H 152.907 -2.28911 2.15516 0
M  V30 1698 N 156.679 -1.44442 0.630414 0
M  V30 1699 C 157.609 -2.33418 -0.0618083 0
M  V30 1700 C 158.59 -1.48165 -0.835541 0
M  V30 1701 O 159.775 -1.76886 -0.801564 0
M  V30 1702 C 156.905 -3.31222 -1.04449 0
M  V30 1703 C 155.859 -4.26288 -0.382436 0
M  V30 1704 C 155.185 -5.13954 -1.47497 0
M  V30 1705 C 156.485 -5.1744 0.710865 0
M  V30 1706 H 158.179 -2.91548 0.681184 0
M  V30 1707 H 155.725 -1.40191 0.329026 0
M  V30 1708 H 157.678 -3.92351 -1.53748 0
M  V30 1709 H 156.402 -2.71299 -1.81836 0
M  V30 1710 H 155.061 -3.6649 0.0899054 0
M  V30 1711 H 154.709 -4.50385 -2.2397 0
M  V30 1712 H 154.409 -5.7837 -1.03737 0
M  V30 1713 H 155.933 -5.77955 -1.96979 0
M  V30 1714 H 157.347 -5.72509 0.300996 0
M  V30 1715 H 155.744 -5.90455 1.07156 0
M  V30 1716 H 156.814 -4.58496 1.57829 0
M  V30 1717 N 158.157 -0.370918 -1.53173 0
M  V30 1718 C 159.406 0.218249 -2.00516 0
M  V30 1719 C 159.719 1.49429 -1.26215 0
M  V30 1720 O 160.925 2.16239 -1.64174 0
M  V30 1721 C 159.381 0.43948 -3.57207 0
M  V30 1722 C 158.989 -0.822244 -4.4039 0
M  V30 1723 C 160.733 0.986012 -4.1289 0
M  V30 1724 C 158.64 -0.570304 -5.88644 0
M  V30 1725 H 157.57 0.0853333 -0.749156 0
M  V30 1726 H 160.221 -0.490483 -1.76823 0
M  V30 1727 H 158.603 1.20961 -3.77074 0
M  V30 1728 H 159.777 -1.59557 -4.32294 0
M  V30 1729 H 158.092 -1.29238 -3.95836 0
M  V30 1730 H 160.689 1.18991 -5.21292 0
M  V30 1731 H 161.032 1.94972 -3.6782 0
M  V30 1732 H 161.565 0.27592 -3.96842 0
M  V30 1733 H 158.304 -1.50449 -6.38001 0
M  V30 1734 H 157.824 0.164427 -5.99575 0
M  V30 1735 H 159.503 -0.19784 -6.46697 0
M  V30 1736 N 159.635 1.57281 -0.100228 0
M  V30 1737 C 160.881 1.94826 0.563101 0
M  V30 1738 C 161.214 0.982475 1.67514 0
M  V30 1739 O 160.489 0.0164069 1.94493 0
M  V30 1740 C 160.772 3.42453 1.11346 0
M  V30 1741 C 160.625 4.498 0.00612081 0
M  V30 1742 C 161.944 3.91506 2.01024 0
M  V30 1743 H 159.063 0.708428 0.203221 0
M  V30 1744 H 161.705 1.8922 -0.171979 0
M  V30 1745 H 159.855 3.47361 1.7399 0
M  V30 1746 H 161.527 4.57 -0.628357 0
M  V30 1747 H 159.77 4.28756 -0.659581 0
M  V30 1748 H 160.441 5.50306 0.432109 0
M  V30 1749 H 162.917 3.88784 1.48278 0
M  V30 1750 H 161.793 4.95358 2.36457 0
M  V30 1751 H 162.054 3.31099 2.92961 0
M  V30 1752 N 161.113 -0.173488 1.56642 0
M  V30 1753 C 162.341 -0.906095 1.86004 0
M  V30 1754 C 162.756 -1.75921 0.685355 0
M  V30 1755 O 162.113 -1.79198 -0.345578 0
M  V30 1756 C 162.164 -1.78462 3.14378 0
M  V30 1757 O 161.885 -0.965914 4.27319 0
M  V30 1758 C 163.386 -2.62707 3.57071 0
M  V30 1759 H 160.606 -0.263341 0.617165 0
M  V30 1760 H 163.15 -0.174236 2.03756 0
M  V30 1761 H 161.305 -2.46984 2.98459 0
M  V30 1762 H 161.719 -1.56655 5.00559 0
M  V30 1763 H 163.193 -3.19969 4.49804 0
M  V30 1764 H 163.67 -3.37472 2.81086 0
M  V30 1765 H 164.276 -1.99521 3.75595 0
M  V30 1766 N 162.591 -1.51276 -0.441967 0
M  V30 1767 C 164.002 -1.56244 -1.02199 0
M  V30 1768 C 164.353 -0.383149 -1.92422 0
M  V30 1769 O 163.478 0.500613 -2.1053 0
M  V30 1770 C 164.073 -2.83162 -1.86024 0
M  V30 1771 C 162.632 -2.90716 -2.39084 0
M  V30 1772 C 161.779 -2.50858 -1.18175 0
M  V30 1773 H 164.73 -1.5712 -0.223416 0
M  V30 1774 H 164.751 -2.66663 -2.71425 0
M  V30 1775 H 164.263 -3.68974 -1.20331 0
M  V30 1776 H 162.364 -2.09323 -3.08244 0
M  V30 1777 H 162.477 -3.94266 -2.72198 0
M  V30 1778 H 160.841 -2.03951 -1.52565 0
M  V30 1779 H 161.624 -3.3901 -0.541001 0
M  V30 1780 N 164.069 0.697108 -1.41344 0
M  V30 1781 C 165.017 1.83237 -1.43272 0
M  V30 1782 C 166.011 1.66522 -0.310947 0
M  V30 1783 O 167.217 1.73402 -0.482899 0
M  V30 1784 H 163.592 0.603802 -0.448249 0
M  V30 1785 H 165.563 1.78727 -2.38954 0
M  V30 1786 C 164.312 3.21245 -1.33029 0
M  V30 1787 H 163.635 3.34723 -2.18633 0
M  V30 1788 H 165.075 4.00763 -1.38439 0
M  V30 1789 C 163.534 3.36873 -0.0424635 0
M  V30 1790 O 164.064 3.91177 0.913421 0
M  V30 1791 N 162.27 2.90581 0.0331145 0
M  V30 1792 H 161.817 2.46577 -0.745506 0
M  V30 1793 H 161.775 3.01416 0.894199 0
M  V30 1794 N 165.547 1.27147 0.931209 0
M  V30 1795 C 166.479 1.05364 2.03546 0
M  V30 1796 C 167.492 0.0108438 1.62796 0
M  V30 1797 O 168.681 0.25202 1.76712 0
M  V30 1798 C 165.781 0.575566 3.33977 0
M  V30 1799 C 164.954 1.68985 4.03439 0
M  V30 1800 C 164.013 1.20813 5.12143 0
M  V30 1801 O 163.039 1.90712 5.363 0
M  V30 1802 N 164.241 0.0618851 5.80467 0
M  V30 1803 H 167.006 2.00454 2.22796 0
M  V30 1804 H 164.567 1.18666 1.10136 0
M  V30 1805 H 166.559 0.237264 4.04004 0
M  V30 1806 H 165.129 -0.282016 3.11325 0
M  V30 1807 H 164.349 2.19861 3.27192 0
M  V30 1808 H 165.637 2.4378 4.46597 0
M  V30 1809 H 165.035 -0.521621 5.6329 0
M  V30 1810 H 163.592 -0.217264 6.51438 0
M  V30 1811 N 167.025 -1.13721 1.09112 0
M  V30 1812 C 168.441 -1.36914 0.820174 0
M  V30 1813 C 168.641 -1.93356 -0.567079 0
M  V30 1814 O 167.697 -2.15093 -1.32255 0
M  V30 1815 C 169.01 -2.3235 1.90877 0
M  V30 1816 C 170.558 -2.45973 1.93562 0
M  V30 1817 C 171.033 -3.44714 3.01556 0
M  V30 1818 N 172.524 -3.52263 3.00775 0
M  V30 1819 C 173.259 -4.28536 3.80978 0
M  V30 1820 N 172.755 -5.07991 4.71081 0
M  V30 1821 N 174.548 -4.23804 3.69251 0
M  V30 1822 H 166.699 -0.754348 1.98553 0
M  V30 1823 H 168.962 -0.3944 0.862063 0
M  V30 1824 H 168.668 -1.98027 2.90651 0
M  V30 1825 H 168.542 -3.32332 1.78424 0
M  V30 1826 H 170.929 -2.79584 0.944286 0
M  V30 1827 H 171.01 -1.45926 2.10093 0
M  V30 1828 H 170.654 -3.11835 4.00901 0
M  V30 1829 H 170.584 -4.44558 2.82269 0
M  V30 1830 H 173.075 -2.95567 2.35475 0
M  V30 1831 H 173.388 -5.63487 5.28869 0
M  V30 1832 H 171.733 -5.07235 4.75119 0
M  V30 1833 H 174.924 -3.60806 2.98222 0
M  V30 1834 H 175.097 -4.82995 4.31995 0
M  V30 1835 N 168.503 -0.877838 -1.30888 0
M  V30 1836 C 169.435 -0.296607 -2.27273 0
M  V30 1837 C 170.448 0.544799 -1.53414 0
M  V30 1838 O 171.637 0.365511 -1.74718 0
M  V30 1839 C 168.737 0.597481 -3.33592 0
M  V30 1840 C 167.91 -0.213251 -4.3688 0
M  V30 1841 C 166.969 0.610208 -5.2265 0
M  V30 1842 O 165.995 0.035441 -5.69189 0
M  V30 1843 N 167.197 1.92071 -5.47804 0
M  V30 1844 H 169.962 -1.12492 -2.77787 0
M  V30 1845 H 167.523 -0.740105 -1.43993 0
M  V30 1846 H 169.515 1.15425 -3.87891 0
M  V30 1847 H 168.085 1.32647 -2.83061 0
M  V30 1848 H 167.305 -0.951466 -3.82545 0
M  V30 1849 H 168.593 -0.769262 -5.02951 0
M  V30 1850 H 167.991 2.4107 -5.11763 0
M  V30 1851 H 166.548 2.42508 -6.05007 0
M  V30 1852 N 169.982 1.44106 -0.638065 0
M  V30 1853 C 170.93 2.3248 0.0748149 0
M  V30 1854 C 171.924 1.47746 0.828702 0
M  V30 1855 O 173.13 1.64049 0.740816 0
M  V30 1856 H 169.505 0.750771 0.0429686 0
M  V30 1857 H 171.476 2.90348 -0.688504 0
M  V30 1858 C 170.225 3.31843 1.03805 0
M  V30 1859 H 169.548 3.97059 0.467375 0
M  V30 1860 H 170.988 3.96345 1.50622 0
M  V30 1861 C 169.447 2.61291 2.1267 0
M  V30 1862 O 169.977 2.41702 3.20847 0
M  V30 1863 N 168.183 2.20915 1.88798 0
M  V30 1864 H 167.73 2.37047 1.00829 0
M  V30 1865 H 167.688 1.74038 2.61836 0
M  V30 1866 N 171.46 0.379036 1.52974 0
M  V30 1867 C 172.706 -0.206727 2.01744 0
M  V30 1868 C 173.039 -1.47314 1.26539 0
M  V30 1869 O 172.314 -1.91084 0.362903 0
M  V30 1870 C 172.597 -0.485066 3.56818 0
M  V30 1871 C 172.45 0.795919 4.42702 0
M  V30 1872 C 173.769 -1.28003 4.21074 0
M  V30 1873 H 170.888 -0.0736607 0.73331 0
M  V30 1874 H 173.53 0.506581 1.83122 0
M  V30 1875 H 171.68 -1.09272 3.72816 0
M  V30 1876 H 173.352 1.43307 4.38476 0
M  V30 1877 H 171.595 1.41344 4.10127 0
M  V30 1878 H 172.266 0.555947 5.49193 0
M  V30 1879 H 174.742 -0.765867 4.08991 0
M  V30 1880 H 173.618 -1.44352 5.29579 0
M  V30 1881 H 173.879 -2.29236 3.78026 0
M  V30 1882 N 172.938 -1.57226 0.108567 0
M  V30 1883 C 174.178 -1.96717 -0.555155 0
M  V30 1884 C 174.542 -0.990003 -1.64508 0
M  V30 1885 O 175.743 -1.2739 -2.36696 0
M  V30 1886 C 174.014 -3.40575 -1.08367 0
M  V30 1887 S 175.573 -4.02072 -1.75737 0
M  V30 1888 H 172.391 -0.687638 -0.180762 0
M  V30 1889 H 174.993 -1.94563 0.191172 0
M  V30 1890 H 173.697 -4.0945 -0.279092 0
M  V30 1891 H 173.228 -3.46356 -1.86551 0
M  V30 1892 H 175.243 -3.91977 -3.04251 0
M  V30 1893 N 174.416 0.165178 -1.56732 0
M  V30 1894 C 175.379 1.18822 -1.95995 0
M  V30 1895 C 176.379 1.3685 -0.84431 0
M  V30 1896 O 177.569 1.34152 -1.11126 0
M  V30 1897 C 174.701 2.5521 -2.26011 0
M  V30 1898 H 175.894 0.851825 -2.87548 0
M  V30 1899 H 173.447 0.407857 -1.50885 0
M  V30 1900 H 174.182 2.93852 -1.37191 0
M  V30 1901 H 173.967 2.43489 -3.07336 0
M  V30 1902 H 175.457 3.28927 -2.57288 0
M  V30 1903 N 175.894 1.51508 0.433938 0
M  V30 1904 C 176.804 1.75917 1.5521 0
M  V30 1905 C 177.82 0.643545 1.61662 0
M  V30 1906 O 178.996 0.926183 1.7884 0
M  V30 1907 C 176.061 1.88213 2.91164 0
M  V30 1908 C 175.122 3.12074 2.94802 0
M  V30 1909 C 174.355 3.23774 4.24271 0
M  V30 1910 O 174.578 2.4133 5.16833 0
M  V30 1911 O 173.512 4.16774 4.34262 0
M  V30 1912 H 177.338 2.70777 1.37527 0
M  V30 1913 H 174.923 1.36051 0.617293 0
M  V30 1914 H 176.805 1.98267 3.71845 0
M  V30 1915 H 175.48 0.965413 3.08968 0
M  V30 1916 H 174.387 3.07497 2.13065 0
M  V30 1917 H 175.72 4.03446 2.81943 0
M  V30 1918 N 177.372 -0.689602 1.41712 0
M  V30 1919 C 178.32 -1.82475 1.44242 0
M  V30 1920 C 179.314 -1.66354 0.319774 0
M  V30 1921 O 180.52 -1.73143 0.492089 0
M  V30 1922 H 176.895 -0.601416 0.451445 0
M  V30 1923 H 178.866 -1.77458 2.39899 0
M  V30 1924 C 177.615 -3.20535 1.3473 0
M  V30 1925 H 176.938 -3.33559 2.20405 0
M  V30 1926 H 178.378 -4.00023 1.40562 0
M  V30 1927 C 176.837 -3.36846 0.0603281 0
M  V30 1928 O 177.367 -3.91656 -0.892663 0
M  V30 1929 N 175.573 -2.90595 -0.0177039 0
M  V30 1930 H 175.12 -2.46178 0.758572 0
M  V30 1931 H 175.078 -3.01886 -0.878201 0
M  V30 1932 N 178.85 -1.27639 -0.924453 0
M  V30 1933 C 179.76 -1.12466 -2.05885 0
M  V30 1934 C 180.776 -0.053869 -1.73917 0
M  V30 1935 O 181.952 -0.261012 -1.99702 0
M  V30 1936 C 179.017 -0.776768 -3.37886 0
M  V30 1937 C 178.078 -1.92878 -3.83532 0
M  V30 1938 C 177.311 -1.59739 -5.09234 0
M  V30 1939 O 177.534 -0.506782 -5.68144 0
M  V30 1940 O 176.468 -2.43761 -5.50331 0
M  V30 1941 H 180.294 -2.07671 -2.21599 0
M  V30 1942 H 177.879 -1.06857 -1.04413 0
M  V30 1943 H 179.761 -0.596229 -4.17161 0
M  V30 1944 H 178.436 0.145732 -3.23372 0
M  V30 1945 H 177.343 -2.1644 -3.0513 0
M  V30 1946 H 178.676 -2.8316 -4.02593 0
M  V30 1947 N 180.328 1.1314 -1.09713 0
M  V30 1948 C 181.576 1.84119 -0.833338 0
M  V30 1949 C 181.897 1.84097 0.642904 0
M  V30 1950 O 181.167 1.29881 1.46655 0
M  V30 1951 H 179.747 0.681766 -0.305293 0
M  V30 1952 H 182.409 1.37038 -1.38588 0
M  V30 1953 H 181.505 2.88543 -1.18951 0
M  V30 1954 N 181.806 0.884767 1.30421 0
M  V30 1955 C 183.055 0.499164 1.95426 0
M  V30 1956 C 183.368 -0.95645 1.70621 0
M  V30 1957 O 184.574 -1.44889 2.29607 0
M  V30 1958 C 183.03 0.84177 3.49917 0
M  V30 1959 C 182.638 2.31514 3.83543 0
M  V30 1960 C 184.382 0.525355 4.21237 0
M  V30 1961 C 182.289 2.59939 5.31212 0
M  V30 1962 H 181.219 0.182944 0.73147 0
M  V30 1963 H 183.87 1.07971 1.48373 0
M  V30 1964 H 182.252 0.190311 3.95542 0
M  V30 1965 H 183.426 3.0109 3.48829 0
M  V30 1966 H 181.741 2.59907 3.25326 0
M  V30 1967 H 184.338 0.714762 5.29901 0
M  V30 1968 H 184.681 -0.535222 4.12845 0
M  V30 1969 H 185.214 1.134 3.81294 0
M  V30 1970 H 181.953 3.64736 5.44654 0
M  V30 1971 H 181.473 1.94972 5.67227 0
M  V30 1972 H 183.152 2.45429 5.98643 0
M  V30 1973 N 183.284 -1.43765 0.645699 0
M  V30 1974 C 184.695 -1.85193 0.236719 0
M  V30 1975 C 185.046 -1.54045 -1.21509 0
M  V30 1976 O 184.171 -0.985694 -1.92647 0
M  V30 1977 C 184.766 -3.36151 0.422845 0
M  V30 1978 C 183.325 -3.76338 0.0682492 0
M  V30 1979 C 182.472 -2.67538 0.729306 0
M  V30 1980 H 185.423 -1.34025 0.849883 0
M  V30 1981 H 185.444 -3.79032 -0.333904 0
M  V30 1982 H 184.956 -3.5879 1.47958 0
M  V30 1983 H 183.057 -3.59312 -0.986179 0
M  V30 1984 H 183.17 -4.76603 0.488469 0
M  V30 1985 H 181.534 -2.54176 0.163235 0
M  V30 1986 H 182.317 -2.93006 1.78892 0
M  V30 1987 N 184.763 -0.387143 -1.52771 0
M  V30 1988 C 186.04 0.253197 -1.93954 0
M  V30 1989 C 186.42 1.64545 -1.32243 0
M  V30 1990 O 185.768 2.23191 -0.489699 0
M  V30 1991 C 185.978 0.281722 -3.47861 0
M  V30 1992 C 187.326 0.511715 -4.21505 0
M  V30 1993 O 188.35 0.362023 -3.54356 0
M  V30 1994 O 187.209 0.804847 -5.40541 0
M  V30 1995 H 184.303 0.156845 -0.811991 0
M  V30 1996 H 186.849 -0.441494 -1.63856 0
M  V30 1997 H 185.621 -0.693571 -3.85104 0
M  V30 1998 H 185.244 1.02142 -3.84256 0
M  V30 1999 N 186.241 1.57166 -0.116904 0
M  V30 2000 C 187.489 1.94737 0.540533 0
M  V30 2001 C 187.81 1.00096 1.67349 0
M  V30 2002 O 187.08 0.0568854 1.95817 0
M  V30 2003 H 185.66 0.718981 0.202669 0
M  V30 2004 H 188.322 1.94017 -0.185353 0
M  V30 2005 H 187.418 2.97719 0.936483 0
M  V30 2006 N 187.719 -0.156864 1.56817 0
M  V30 2007 C 188.682 -1.17781 1.96622 0
M  V30 2008 C 189.682 -1.36401 0.851555 0
M  V30 2009 O 190.872 -1.33561 1.11836 0
M  V30 2010 C 188.004 -2.54008 2.27361 0
M  V30 2011 H 189.197 -0.836564 2.87996 0
M  V30 2012 H 186.75 -0.39985 1.51099 0
M  V30 2013 H 187.485 -2.9312 1.38748 0
M  V30 2014 H 187.27 -2.41856 3.08623 0
M  V30 2015 H 188.76 -3.27558 2.59029 0
M  V30 2016 N 189.197 -1.51736 -0.425897 0
M  V30 2017 C 190.437 -1.66636 -1.18371 0
M  V30 2018 C 190.801 -0.379854 -1.88205 0
M  V30 2019 O 192.002 -0.404758 -2.65735 0
M  V30 2020 C 190.273 -2.84382 -2.16476 0
M  V30 2021 S 191.832 -3.19673 -3.0059 0
M  V30 2022 H 188.65 -0.586957 -0.40125 0
M  V30 2023 H 191.252 -1.89679 -0.473518 0
M  V30 2024 H 189.956 -3.76281 -1.63831 0
M  V30 2025 H 189.487 -2.63562 -2.92059 0
M  V30 2026 H 191.502 -2.66994 -4.18245 0
M  V30 2027 N 190.675 0.682077 -1.42076 0
M  V30 2028 C 191.9 1.47558 -1.45744 0
M  V30 2029 C 192.325 1.87977 -0.0680981 0
M  V30 2030 O 191.683 1.55522 0.9318 0
M  V30 2031 C 191.731 2.70575 -2.38373 0
M  V30 2032 O 190.835 3.68573 -1.85007 0
M  V30 2033 H 190.176 0.443585 -0.494093 0
M  V30 2034 H 192.706 0.837238 -1.86686 0
M  V30 2035 H 192.716 3.18729 -2.54707 0
M  V30 2036 H 191.391 2.40495 -3.39315 0
M  V30 2037 H 189.968 3.2757 -1.78192 0
M  V30 2038 N 192.153 1.28127 0.917671 0
M  V30 2039 C 193.1 1.11717 2.0196 0
M  V30 2040 C 194.07 0.0153929 1.66093 0
M  V30 2041 O 195.255 0.179596 1.89953 0
M  V30 2042 C 192.395 0.780927 3.36148 0
M  V30 2043 C 191.508 1.96135 3.84909 0
M  V30 2044 C 190.643 1.56609 5.0759 0
M  V30 2045 C 189.682 2.71339 5.48673 0
M  V30 2046 N 188.819 2.32332 6.62545 0
M  V30 2047 H 193.659 2.06003 2.15329 0
M  V30 2048 H 191.196 1.02535 1.05475 0
M  V30 2049 H 193.154 0.56675 4.13333 0
M  V30 2050 H 191.784 -0.124998 3.22558 0
M  V30 2051 H 190.836 2.28777 3.03916 0
M  V30 2052 H 192.148 2.82165 4.1132 0
M  V30 2053 H 191.302 1.31374 5.92305 0
M  V30 2054 H 190.041 0.677014 4.82978 0
M  V30 2055 H 189.046 2.97276 4.62501 0
M  V30 2056 H 190.271 3.60882 5.75274 0
M  V30 2057 H 188.217 1.45889 6.39572 0
M  V30 2058 H 188.134 3.11899 6.88662 0
M  V30 2059 H 189.402 2.10371 7.50576 0
M  V30 2060 N 193.631 -1.12557 1.10312 0
M  V30 2061 C 194.908 -1.80363 0.756878 0
M  V30 2062 C 195.288 -1.97067 -0.756824 0
M  V30 2063 O 194.636 -1.54601 -1.68259 0
M  V30 2064 C 194.846 -3.14812 1.50647 0
M  V30 2065 C 196.194 -3.90029 1.67817 0
M  V30 2066 O 197.218 -3.24464 1.46974 0
M  V30 2067 O 196.077 -5.07652 2.02365 0
M  V30 2068 H 193.171 -0.780667 0.272926 0
M  V30 2069 H 195.717 -1.19404 1.20586 0
M  V30 2070 H 194.489 -2.97936 2.53672 0
M  V30 2071 H 194.112 -3.83478 1.05026 0
M  V30 2072 N 195.109 -0.891671 -1.2995 0
M  V30 2073 C 196.334 -0.527932 -2.00568 0
M  V30 2074 C 196.759 0.877969 -1.66353 0
M  V30 2075 O 196.117 1.58301 -0.883762 0
M  V30 2076 C 196.165 -0.717745 -3.53385 0
M  V30 2077 O 195.269 0.233376 -4.11739 0
M  V30 2078 H 194.61 -0.20722 -0.630837 0
M  V30 2079 H 197.14 -1.20105 -1.65638 0
M  V30 2080 H 197.15 -0.619307 -4.03272 0
M  V30 2081 H 195.825 -1.74276 -3.77625 0
M  V30 2082 H 194.402 0.0880706 -3.72796 0
M  V30 2083 N 196.587 1.43421 -0.653314 0
M  V30 2084 C 197.864 1.95361 -0.0966581 0
M  V30 2085 C 198.244 1.59461 1.38331 0
M  V30 2086 O 197.592 0.879777 2.10884 0
M  V30 2087 C 197.802 3.47311 -0.342988 0
M  V30 2088 C 199.15 4.23875 -0.24798 0
M  V30 2089 O 200.174 3.55133 -0.275553 0
M  V30 2090 O 199.033 5.4623 -0.171771 0
M  V30 2091 H 196.127 0.826945 0.00956291 0
M  V30 2092 H 198.673 1.5336 -0.726558 0
M  V30 2093 H 197.445 3.66569 -1.36906 0
M  V30 2094 H 197.068 3.9631 0.319975 0
M  V30 2095 N 198.065 0.39524 1.52563 0
M  V30 2096 C 199.305 -0.184744 2.03563 0
M  V30 2097 C 199.669 -1.43548 1.27507 0
M  V30 2098 O 200.87 -2.093 1.68662 0
M  V30 2099 C 199.141 -0.440294 3.54678 0
M  V30 2100 S 200.7 -0.989712 4.27493 0
M  V30 2101 H 197.518 -0.0515075 0.709132 0
M  V30 2102 H 200.12 0.544957 1.87751 0
M  V30 2103 H 198.824 0.477005 4.07618 0
M  V30 2104 H 198.355 -1.19825 3.74707 0
M  V30 2105 H 200.37 -2.27155 4.41152 0
M  V30 2106 N 199.544 -1.57102 0.125237 0
M  V30 2107 C 200.494 -2.12202 -0.833936 0
M  V30 2108 C 201.478 -1.04433 -1.22403 0
M  V30 2109 O 202.67 -1.30655 -1.19408 0
M  V30 2110 C 199.799 -2.72994 -2.08157 0
M  V30 2111 C 198.885 -3.87852 -1.71556 0
M  V30 2112 N 199.276 -4.9464 -1.05662 0
M  V30 2113 C 197.574 -3.98153 -2.00973 0
M  V30 2114 C 198.275 -5.74953 -0.883376 0
M  V30 2115 N 197.251 -5.24985 -1.41036 0
M  V30 2116 H 201.053 -2.92141 -0.321035 0
M  V30 2117 H 198.567 -1.62217 -0.0770315 0
M  V30 2118 H 200.564 -3.10816 -2.77847 0
M  V30 2119 H 199.224 -1.9452 -2.59985 0
M  V30 2120 H 200.235 -5.12872 -0.719878 0
M  V30 2121 H 196.912 -3.30728 -2.54804 0
M  V30 2122 H 198.302 -6.70904 -0.365675 0
M  V30 2123 N 201.022 0.148545 -1.56898 0
M  V30 2124 C 201.985 1.16736 -1.97244 0
M  V30 2125 C 202.985 1.35947 -0.858777 0
M  V30 2126 O 204.175 1.32966 -1.12542 0
M  V30 2127 C 201.307 2.52798 -2.28705 0
M  V30 2128 H 202.5 0.821279 -2.88435 0
M  V30 2129 H 200.053 0.391831 -1.51309 0
M  V30 2130 H 200.788 2.92381 -1.403 0
M  V30 2131 H 200.573 2.40216 -3.09901 0
M  V30 2132 H 202.063 3.26179 -2.60762 0
M  V30 2133 N 202.5 1.5196 0.417844 0
M  V30 2134 C 203.748 1.65263 1.16329 0
M  V30 2135 C 204.069 0.380634 1.91249 0
M  V30 2136 O 203.339 -0.604214 1.86349 0
M  V30 2137 H 201.919 0.60912 0.432414 0
M  V30 2138 H 204.581 1.88969 0.477162 0
M  V30 2139 H 203.677 2.4896 1.88217 0
M  V30 2140 N 203.978 -0.674533 1.42435 0
M  V30 2141 C 204.888 -1.81751 1.48337 0
M  V30 2142 C 205.904 -1.69975 0.372099 0
M  V30 2143 O 207.08 -1.91521 0.62304 0
M  V30 2144 C 204.145 -3.17895 1.38361 0
M  V30 2145 C 203.206 -3.41625 2.59982 0
M  V30 2146 C 202.439 -4.71274 2.50473 0
M  V30 2147 O 202.662 -5.49197 1.54075 0
M  V30 2148 O 201.596 -4.96254 3.4061 0
M  V30 2149 H 205.422 -1.79728 2.44809 0
M  V30 2150 H 203.007 -0.830312 1.24202 0
M  V30 2151 H 204.889 -3.99136 1.35161 0
M  V30 2152 H 203.564 -3.20555 0.450144 0
M  V30 2153 H 202.471 -2.60231 2.68757 0
M  V30 2154 H 203.804 -3.43796 3.52229 0
M  V30 2155 N 205.456 -1.28612 -0.910864 0
M  V30 2156 C 206.419 -1.12803 -1.9952 0
M  V30 2157 C 207.419 -0.0668264 -1.60661 0
M  V30 2158 O 208.609 -0.312847 -1.71368 0
M  V30 2159 C 205.741 -0.72254 -3.33155 0
M  V30 2160 H 206.934 -2.09109 -2.14973 0
M  V30 2161 H 204.487 -1.11639 -1.09391 0
M  V30 2162 H 205.222 0.241152 -3.23402 0
M  V30 2163 H 205.007 -1.48916 -3.62721 0
M  V30 2164 H 206.497 -0.634666 -4.12749 0
M  V30 2165 N 206.934 1.1197 -1.10907 0
M  V30 2166 C 208.18 1.8386 -0.855773 0
M  V30 2167 C 208.513 1.84134 0.617103 0
M  V30 2168 O 207.788 1.29041 1.45529 0
M  V30 2169 C 208.071 3.31305 -1.411 0
M  V30 2170 C 207.924 3.39456 -2.9511 0
M  V30 2171 C 209.243 4.2721 -1.05736 0
M  V30 2172 H 206.362 0.667545 -0.312334 0
M  V30 2173 H 209.004 1.31331 -1.37303 0
M  V30 2174 H 207.154 3.76169 -0.97105 0
M  V30 2175 H 208.826 3.03191 -3.47668 0
M  V30 2176 H 207.069 2.79849 -3.31462 0
M  V30 2177 H 207.74 4.43209 -3.29044 0
M  V30 2178 H 210.216 3.90497 -1.43706 0
M  V30 2179 H 209.092 5.28775 -1.47269 0
M  V30 2180 H 209.353 4.42088 0.0325958 0
M  V30 2181 N 208.412 0.89855 1.29475 0
M  V30 2182 C 209.64 0.539261 1.99749 0
M  V30 2183 C 210.055 -0.875716 1.67262 0
M  V30 2184 O 209.412 -1.57786 0.917049 0
M  V30 2185 C 209.463 0.72061 3.54245 0
M  V30 2186 O 209.184 2.07989 3.8558 0
M  V30 2187 C 210.685 0.366118 4.41786 0
M  V30 2188 H 207.905 0.207047 0.638258 0
M  V30 2189 H 210.449 1.20758 1.65039 0
M  V30 2190 H 208.604 0.0994862 3.87272 0
M  V30 2191 H 209.018 2.10841 4.80257 0
M  V30 2192 H 210.492 0.543848 5.49314 0
M  V30 2193 H 210.969 -0.696763 4.33638 0
M  V30 2194 H 211.575 0.964135 4.14228 0
M  V30 2195 N 209.89 -1.43072 0.660911 0
M  V30 2196 C 210.853 -2.29194 -0.0166406 0
M  V30 2197 C 211.853 -1.42609 -0.742912 0
M  V30 2198 O 213.043 -1.64155 -0.583004 0
M  V30 2199 C 210.175 -3.24831 -1.0343 0
M  V30 2200 H 211.368 -2.90596 0.741208 0
M  V30 2201 H 208.921 -1.5048 0.422532 0
M  V30 2202 H 209.656 -2.68339 -1.82111 0
M  V30 2203 H 209.441 -3.88676 -0.517082 0
M  V30 2204 H 210.931 -3.89451 -1.50723 0
M  V30 2205 N 211.368 -0.403325 -1.52352 0
M  V30 2206 C 212.616 0.174003 -2.0135 0
M  V30 2207 C 212.937 1.46139 -1.29106 0
M  V30 2208 O 212.207 1.91448 -0.415253 0
M  V30 2209 H 210.787 0.0672911 -0.743963 0
M  V30 2210 H 213.449 -0.538235 -1.87321 0
M  V30 2211 H 212.545 0.374254 -3.09848 0
M  V30 2212 N 212.846 1.57033 -0.133567 0
M  V30 2213 C 213.794 2.17348 0.828412 0
M  V30 2214 C 214.788 1.12671 1.26498 0
M  V30 2215 O 215.994 1.30947 1.23502 0
M  V30 2216 H 212.369 0.695775 0.285309 0
M  V30 2217 H 214.34 2.96935 0.295372 0
M  V30 2218 C 213.089 2.79893 2.06289 0
M  V30 2219 H 212.412 3.60147 1.73592 0
M  V30 2220 H 213.852 3.25615 2.71572 0
M  V30 2221 C 212.311 1.77713 2.86216 0
M  V30 2222 O 212.841 1.23937 3.82103 0
M  V30 2223 N 211.047 1.47321 2.50489 0
M  V30 2224 H 210.594 1.91243 1.7258 0
M  V30 2225 H 210.552 0.79199 3.04261 0
M  V30 2226 N 214.325 -0.140222 1.56975 0
M  V30 2227 C 215.573 -0.850005 1.83356 0
M  V30 2228 C 215.894 -1.81399 0.71551 0
M  V30 2229 O 215.164 -1.94136 -0.262294 0
M  V30 2230 H 213.744 -0.316886 0.676456 0
M  V30 2231 H 216.406 -0.132608 1.94448 0
M  V30 2232 H 215.502 -1.40814 2.78528 0
M  V30 2233 N 215.803 -1.52179 -0.40978 0
M  V30 2234 C 217.049 -1.66453 -1.15851 0
M  V30 2235 C 217.382 -0.392972 -1.90182 0
M  V30 2236 O 216.657 0.608579 -1.84734 0
M  V30 2237 C 216.94 -2.88612 -2.15349 0
M  V30 2238 C 216.793 -4.25815 -1.44918 0
M  V30 2239 C 218.112 -3.06294 -3.16026 0
M  V30 2240 H 215.231 -0.60575 -0.419805 0
M  V30 2241 H 217.873 -1.84732 -0.444314 0
M  V30 2242 H 216.023 -2.73158 -2.76255 0
M  V30 2243 H 217.695 -4.52995 -0.871365 0
M  V30 2244 H 215.938 -4.27247 -0.751159 0
M  V30 2245 H 216.609 -5.07337 -2.17516 0
M  V30 2246 H 219.085 -3.20641 -2.65195 0
M  V30 2247 H 217.961 -3.93283 -3.8291 0
M  V30 2248 H 218.222 -2.19579 -3.83715 0
M  V30 2249 N 217.281 0.66697 -1.42791 0
M  V30 2250 C 218.228 1.7803 -1.4688 0
M  V30 2251 C 219.198 1.6299 -0.319919 0
M  V30 2252 O 220.383 1.83432 -0.525118 0
M  V30 2253 C 217.523 3.1611 -1.38451 0
M  V30 2254 C 216.636 3.42381 -2.63437 0
M  V30 2255 C 215.771 4.70232 -2.47094 0
M  V30 2256 C 214.81 4.89564 -3.67415 0
M  V30 2257 N 213.947 6.08661 -3.49966 0
M  V30 2258 H 218.787 1.7387 -2.42019 0
M  V30 2259 H 216.324 0.84868 -1.20149 0
M  V30 2260 H 218.282 3.95914 -1.31561 0
M  V30 2261 H 216.912 3.19374 -0.469033 0
M  V30 2262 H 215.964 2.56774 -2.80662 0
M  V30 2263 H 217.276 3.52557 -3.52853 0
M  V30 2264 H 216.43 5.5814 -2.37834 0
M  V30 2265 H 215.169 4.62353 -1.5518 0
M  V30 2266 H 214.174 4.00096 -3.77099 0
M  V30 2267 H 215.399 4.99282 -4.6032 0
M  V30 2268 H 213.345 6.0194 -2.60776 0
M  V30 2269 H 213.262 6.19733 -4.32975 0
M  V30 2270 H 214.53 6.99226 -3.44532 0
M  V30 2271 N 218.759 1.29093 0.90403 0
M  V30 2272 C 219.987 1.19689 1.68766 0
M  V30 2273 C 220.402 -0.243113 1.87228 0
M  V30 2274 O 219.759 -1.16326 1.40621 0
M  V30 2275 C 219.81 1.90144 3.07453 0
M  V30 2276 O 219.531 3.2852 2.89838 0
M  V30 2277 C 221.032 1.87162 4.01852 0
M  V30 2278 H 218.252 0.415035 0.527244 0
M  V30 2279 H 220.796 1.7039 1.13082 0
M  V30 2280 H 218.951 1.43289 3.59926 0
M  V30 2281 H 219.365 3.63944 3.77684 0
M  V30 2282 H 220.839 2.41032 4.96596 0
M  V30 2283 H 221.316 0.84617 4.30972 0
M  V30 2284 H 221.922 2.33741 3.5531 0
M  V30 2285 N 220.237 -1.11381 1.11499 0
M  V30 2286 C 221.485 -1.8277 0.862524 0
M  V30 2287 C 221.806 -1.85097 -0.613534 0
M  V30 2288 O 221.076 -1.32198 -1.4457 0
M  V30 2289 H 219.656 -0.676823 0.316101 0
M  V30 2290 H 222.318 -1.34816 1.4075 0
M  V30 2291 H 221.414 -2.86614 1.23527 0
M  V30 2292 N 221.715 -0.905404 -1.28997 0
M  V30 2293 C 223.131 -0.60233 -1.47798 0
M  V30 2294 C 223.331 0.854645 -1.82478 0
M  V30 2295 O 222.387 1.63439 -1.92468 0
M  V30 2296 C 223.7 -1.53306 -2.58685 0
M  V30 2297 C 225.248 -1.53887 -2.72558 0
M  V30 2298 C 225.723 -2.45602 -3.86579 0
M  V30 2299 N 227.214 -2.43681 -3.93921 0
M  V30 2300 C 227.949 -3.11347 -4.81509 0
M  V30 2301 N 227.445 -3.88313 -5.73746 0
M  V30 2302 N 229.238 -3.00476 -4.75048 0
M  V30 2303 H 221.389 -1.84765 -1.04764 0
M  V30 2304 H 223.652 -0.792025 -0.520961 0
M  V30 2305 H 223.358 -2.57141 -2.39941 0
M  V30 2306 H 223.232 -1.25787 -3.55609 0
M  V30 2307 H 225.619 -0.507941 -2.90696 0
M  V30 2308 H 225.7 -1.85447 -1.76191 0
M  V30 2309 H 225.344 -3.48792 -3.69197 0
M  V30 2310 H 225.274 -2.11349 -4.82327 0
M  V30 2311 H 227.765 -1.87767 -3.27951 0
M  V30 2312 H 228.078 -4.36985 -6.37389 0
M  V30 2313 H 226.423 -3.92419 -5.73614 0
M  V30 2314 H 229.614 -2.39858 -4.01977 0
M  V30 2315 H 229.787 -3.53485 -5.43095 0
M  V30 2316 N 223.193 1.4272 -0.668489 0
M  V30 2317 C 224.433 2.03497 -0.19194 0
M  V30 2318 C 224.797 1.51684 1.17712 0
M  V30 2319 O 225.998 2.04205 1.74796 0
M  V30 2320 C 224.269 3.56734 -0.218032 0
M  V30 2321 S 225.828 4.38395 0.188438 0
M  V30 2322 H 222.646 0.706542 -0.0794959 0
M  V30 2323 H 225.248 1.74563 -0.880235 0
M  V30 2324 H 223.952 3.91943 -1.2169 0
M  V30 2325 H 223.483 3.90333 0.490303 0
M  V30 2326 H 225.498 4.75345 1.42345 0
M  V30 2327 N 224.671 0.411399 1.52136 0
M  V30 2328 C 225.601 -0.404015 2.29978 0
M  V30 2329 C 226.582 -1.04412 1.34284 0
M  V30 2330 O 227.767 -1.0527 1.63192 0
M  V30 2331 C 224.897 -1.5197 3.12286 0
M  V30 2332 C 223.851 -1.00448 4.16046 0
M  V30 2333 C 223.177 -2.21393 4.86712 0
M  V30 2334 C 224.477 -0.0569336 5.22269 0
M  V30 2335 H 226.171 0.245529 2.98392 0
M  V30 2336 H 223.717 0.119525 1.43503 0
M  V30 2337 H 225.67 -2.09715 3.6551 0
M  V30 2338 H 224.394 -2.19716 2.41646 0
M  V30 2339 H 223.053 -0.449421 3.63835 0
M  V30 2340 H 222.701 -2.87699 4.12599 0
M  V30 2341 H 222.401 -1.87571 5.56858 0
M  V30 2342 H 223.925 -2.7974 5.4275 0
M  V30 2343 H 225.339 -0.54325 5.7072 0
M  V30 2344 H 223.736 0.192594 5.99791 0
M  V30 2345 H 224.806 0.887663 4.76706 0
M  V30 2346 N 226.149 -1.5696 0.141893 0
M  V30 2347 C 227.565 -1.58151 -0.21456 0
M  V30 2348 C 227.765 -1.1559 -1.65049 0
M  V30 2349 O 226.821 -0.853832 -2.37626 0
M  V30 2350 C 228.134 -3.00674 0.0395576 0
M  V30 2351 C 229.682 -3.1299 -0.0245529 0
M  V30 2352 C 230.157 -4.57554 0.202167 0
M  V30 2353 N 231.648 -4.62961 0.148919 0
M  V30 2354 C 232.383 -5.7262 0.298924 0
M  V30 2355 N 231.879 -6.90947 0.50637 0
M  V30 2356 N 233.672 -5.61601 0.236886 0
M  V30 2357 H 225.823 -1.8292 1.07953 0
M  V30 2358 H 228.086 -0.846425 0.42693 0
M  V30 2359 H 227.792 -3.36183 1.03315 0
M  V30 2360 H 227.666 -3.70981 -0.682143 0
M  V30 2361 H 230.053 -2.77326 -1.00869 0
M  V30 2362 H 230.134 -2.4518 0.729396 0
M  V30 2363 H 229.778 -4.93922 1.18338 0
M  V30 2364 H 229.708 -5.23484 -0.572044 0
M  V30 2365 H 232.199 -3.77899 -0.00697015 0
M  V30 2366 H 232.512 -7.7038 0.611076 0
M  V30 2367 H 230.857 -6.92878 0.542628 0
M  V30 2368 H 234.048 -4.68039 0.0756209 0
M  V30 2369 H 234.221 -6.47015 0.357227 0
M  V30 2370 N 227.627 0.131896 -1.57047 0
M  V30 2371 C 229.043 0.485031 -1.52051 0
M  V30 2372 C 229.243 1.82563 -0.85281 0
M  V30 2373 O 228.299 2.48817 -0.429694 0
M  V30 2374 C 229.612 0.481409 -2.96821 0
M  V30 2375 C 231.16 0.565868 -3.07842 0
M  V30 2376 C 231.635 0.592762 -4.54148 0
M  V30 2377 N 233.126 0.654564 -4.58552 0
M  V30 2378 C 233.861 0.696608 -5.69153 0
M  V30 2379 N 233.357 0.697078 -6.89284 0
M  V30 2380 N 235.15 0.738639 -5.57226 0
M  V30 2381 H 227.301 -0.746664 -1.98843 0
M  V30 2382 H 229.564 -0.273999 -0.90754 0
M  V30 2383 H 229.27 -0.435731 -3.4899 0
M  V30 2384 H 229.144 1.3139 -3.53577 0
M  V30 2385 H 231.531 1.47343 -2.55684 0
M  V30 2386 H 231.612 -0.29406 -2.54104 0
M  V30 2387 H 231.256 -0.310701 -5.06949 0
M  V30 2388 H 231.186 1.46939 -5.05684 0
M  V30 2389 H 233.677 0.660887 -3.72076 0
M  V30 2390 H 233.99 0.731426 -7.69331 0
M  V30 2391 H 232.335 0.66471 -6.91814 0
M  V30 2392 H 235.526 0.735545 -4.62285 0
M  V30 2393 H 235.699 0.767938 -6.43434 0
M  V30 2394 N 229.106 1.52395 0.401703 0
M  V30 2395 C 230.016 1.7917 1.51444 0
M  V30 2396 C 231.032 0.677691 1.6026 0
M  V30 2397 O 232.208 0.963909 1.76835 0
M  V30 2398 C 229.273 1.94347 2.87107 0
M  V30 2399 C 228.334 3.18257 2.88116 0
M  V30 2400 C 227.567 3.32701 4.17308 0
M  V30 2401 O 227.79 2.52238 5.11598 0
M  V30 2402 O 226.724 4.25891 4.25324 0
M  V30 2403 H 230.55 2.73633 1.31752 0
M  V30 2404 H 228.135 1.3733 0.588296 0
M  V30 2405 H 230.017 2.06109 3.67555 0
M  V30 2406 H 228.692 1.03073 3.06851 0
M  V30 2407 H 227.599 3.11947 2.06494 0
M  V30 2408 H 228.932 4.09336 2.73322 0
M  V30 2409 N 230.584 -0.659388 1.43143 0
M  V30 2410 C 231.532 -1.79374 1.4808 0
M  V30 2411 C 232.526 -1.65639 0.354988 0
M  V30 2412 O 233.732 -1.7206 0.528704 0
M  V30 2413 H 230.107 -0.591705 0.4641 0
M  V30 2414 H 232.078 -1.72329 2.43609 0
M  V30 2415 C 230.827 -3.17606 1.41499 0
M  V30 2416 H 230.15 -3.28809 2.27431 0
M  V30 2417 H 231.59 -3.96951 1.49015 0
M  V30 2418 C 230.049 -3.36642 0.131765 0
M  V30 2419 O 230.579 -3.93461 -0.809386 0
M  V30 2420 N 228.785 -2.90567 0.0439396 0
M  V30 2421 H 228.332 -2.44513 0.810619 0
M  V30 2422 H 228.29 -3.03681 -0.813969 0
M  V30 2423 N 232.062 -1.29571 -0.897171 0
M  V30 2424 C 232.992 -1.17473 -2.01798 0
M  V30 2425 C 233.973 -0.068323 -1.69963 0
M  V30 2426 O 235.158 -0.248239 -1.92607 0
M  V30 2427 C 232.288 -0.853099 -3.36659 0
M  V30 2428 C 231.242 -1.9161 -3.82713 0
M  V30 2429 C 230.568 -1.44773 -5.14728 0
M  V30 2430 C 231.868 -3.32535 -4.02763 0
M  V30 2431 H 233.562 -2.11237 -2.12177 0
M  V30 2432 H 231.108 -1.01699 -1.01948 0
M  V30 2433 H 233.061 -0.755165 -4.14578 0
M  V30 2434 H 231.785 0.120236 -3.26379 0
M  V30 2435 H 230.444 -2.00346 -3.07013 0
M  V30 2436 H 230.092 -0.462995 -5.00865 0
M  V30 2437 H 229.792 -2.15865 -5.46513 0
M  V30 2438 H 231.316 -1.36334 -5.95185 0
M  V30 2439 H 232.73 -3.26626 -4.71156 0
M  V30 2440 H 231.127 -4.01607 -4.45905 0
M  V30 2441 H 232.197 -3.75326 -3.07016 0
M  V30 2442 N 233.54 1.10788 -1.12088 0
M  V30 2443 C 234.503 2.15207 -0.788577 0
M  V30 2444 C 235.503 1.59609 0.195317 0
M  V30 2445 O 236.693 1.74174 -0.0300193 0
M  V30 2446 C 233.825 3.4047 -0.171174 0
M  V30 2447 H 235.018 2.46116 -1.71368 0
M  V30 2448 H 232.571 1.26089 -0.923652 0
M  V30 2449 H 233.306 3.15176 0.763832 0
M  V30 2450 H 233.091 3.82109 -0.879514 0
M  V30 2451 H 234.581 4.17576 0.04496 0
M  V30 2452 N 235.018 0.912232 1.28515 0
M  V30 2453 C 236.434 0.610159 1.47476 0
M  V30 2454 C 236.634 -0.844955 1.82928 0
M  V30 2455 O 235.69 -1.62416 1.93332 0
M  V30 2456 C 237.003 1.54675 2.57868 0
M  V30 2457 C 238.551 1.55331 2.71738 0
M  V30 2458 C 239.026 2.47649 3.85272 0
M  V30 2459 N 240.517 2.45767 3.92623 0
M  V30 2460 C 241.252 3.13896 4.79851 0
M  V30 2461 N 240.748 3.9135 5.71679 0
M  V30 2462 N 242.541 3.02991 4.73448 0
M  V30 2463 H 234.692 1.85318 1.03783 0
M  V30 2464 H 236.955 0.794777 0.516753 0
M  V30 2465 H 236.661 2.5841 2.38574 0
M  V30 2466 H 236.535 1.27671 3.54937 0
M  V30 2467 H 238.922 0.52335 2.90422 0
M  V30 2468 H 239.003 1.86378 1.75205 0
M  V30 2469 H 238.647 3.50745 3.67342 0
M  V30 2470 H 238.577 2.13904 4.81199 0
M  V30 2471 H 241.068 1.89503 3.26951 0
M  V30 2472 H 241.381 4.40359 6.35062 0
M  V30 2473 H 239.726 3.95455 5.71524 0
M  V30 2474 H 242.917 2.41987 4.007 0
M  V30 2475 H 243.09 3.5636 5.41213 0
M  V30 2476 N 236.496 -1.42363 0.676048 0
M  V30 2477 C 237.744 -2.01123 0.198437 0
M  V30 2478 C 238.065 -1.53731 -1.19966 0
M  V30 2479 O 237.335 -0.759518 -1.80577 0
M  V30 2480 H 235.915 -0.743678 0.0703721 0
M  V30 2481 H 238.577 -1.74263 0.872837 0
M  V30 2482 H 237.673 -3.11454 0.200686 0
M  V30 2483 N 237.974 -0.419461 -1.51915 0
M  V30 2484 C 239.202 0.152136 -2.0634 0
M  V30 2485 C 239.617 1.37988 -1.28859 0
M  V30 2486 O 238.974 1.79243 -0.343232 0
M  V30 2487 C 239.025 0.492266 -3.58133 0
M  V30 2488 O 238.746 -0.686736 -4.32684 0
M  V30 2489 C 240.247 1.11648 -4.2901 0
M  V30 2490 H 237.467 0.0158325 -0.670813 0
M  V30 2491 H 240.011 -0.593394 -1.95702 0
M  V30 2492 H 238.166 1.18769 -3.68745 0
M  V30 2493 H 238.58 -0.400341 -5.2297 0
M  V30 2494 H 240.054 1.3046 -5.36362 0
M  V30 2495 H 240.531 2.09251 -3.86148 0
M  V30 2496 H 241.137 0.460958 -4.22795 0
M  V30 2497 N 239.452 1.56882 -0.150215 0
M  V30 2498 C 240.692 1.98119 0.502804 0
M  V30 2499 C 241.056 1.03327 1.61826 0
M  V30 2500 O 242.257 1.33621 2.33236 0
M  V30 2501 C 240.528 3.43329 0.992988 0
M  V30 2502 S 242.087 4.0659 1.65015 0
M  V30 2503 H 238.905 0.692189 0.162467 0
M  V30 2504 H 241.507 1.93988 -0.242689 0
M  V30 2505 H 240.211 4.10046 0.170436 0
M  V30 2506 H 239.742 3.5118 1.77303 0
M  V30 2507 H 241.757 3.99906 2.93752 0
M  V30 2508 N 240.93 -0.123565 1.57115 0
M  V30 2509 C 241.84 -1.17074 2.033 0
M  V30 2510 C 242.856 -1.4561 0.952559 0
M  V30 2511 O 244.032 -1.56817 1.26374 0
M  V30 2512 C 241.097 -2.47857 2.42421 0
M  V30 2513 C 240.158 -2.26758 3.64526 0
M  V30 2514 C 239.391 -3.51305 4.01771 0
M  V30 2515 O 239.614 -4.5843 3.39409 0
M  V30 2516 O 238.548 -3.42578 4.94898 0
M  V30 2517 H 242.374 -0.808555 2.92739 0
M  V30 2518 H 239.959 -0.334027 1.45618 0
M  V30 2519 H 241.841 -3.2492 2.68338 0
M  V30 2520 H 240.516 -2.83558 1.5613 0
M  V30 2521 H 239.423 -1.47569 3.43765 0
M  V30 2522 H 240.756 -1.95963 4.51508 0
M  V30 2523 N 242.408 -1.52605 -0.393616 0
M  V30 2524 C 243.657 -1.66649 -1.13627 0
M  V30 2525 C 243.97 -0.410364 -1.91247 0
M  V30 2526 O 245.176 -0.430854 -2.68059 0
M  V30 2527 C 243.632 -2.9449 -2.06891 0
M  V30 2528 C 243.24 -4.27266 -1.34714 0
M  V30 2529 C 244.984 -3.17899 -2.81319 0
M  V30 2530 C 242.891 -5.46217 -2.26717 0
M  V30 2531 H 241.821 -0.62084 -0.427871 0
M  V30 2532 H 244.472 -1.791 -0.399428 0
M  V30 2533 H 242.854 -2.75774 -2.84191 0
M  V30 2534 H 244.028 -4.56518 -0.626714 0
M  V30 2535 H 242.343 -4.10081 -0.722643 0
M  V30 2536 H 244.94 -4.03949 -3.50328 0
M  V30 2537 H 245.283 -2.32777 -3.45139 0
M  V30 2538 H 245.816 -3.37159 -2.11113 0
M  V30 2539 H 242.555 -6.33733 -1.67521 0
M  V30 2540 H 242.075 -5.21283 -2.96689 0
M  V30 2541 H 243.754 -5.7991 -2.86903 0
M  V30 2542 N 243.887 0.651787 -1.4349 0
M  V30 2543 C 245.134 1.41167 -1.45183 0
M  V30 2544 C 245.462 1.94349 -0.0766601 0
M  V30 2545 O 244.717 1.72804 0.918555 0
M  V30 2546 C 245.016 2.60914 -2.44251 0
M  V30 2547 C 244.682 2.26142 -3.9009 0
M  V30 2548 C 243.344 2.16371 -4.2981 0
M  V30 2549 C 245.696 1.98334 -4.81989 0
M  V30 2550 C 243.024 1.7695 -5.5938 0
M  V30 2551 C 245.376 1.6041 -6.11924 0
M  V30 2552 C 244.04 1.49166 -6.5062 0
M  V30 2553 H 243.31 0.516566 -0.531263 0
M  V30 2554 H 245.957 0.741099 -1.76579 0
M  V30 2555 H 244.262 3.3311 -2.06265 0
M  V30 2556 H 245.959 3.19127 -2.42815 0
M  V30 2557 H 242.549 2.34658 -3.58655 0
M  V30 2558 H 246.733 2.04803 -4.52072 0
M  V30 2559 H 241.989 1.66831 -5.88198 0
M  V30 2560 H 246.163 1.37925 -6.82605 0
M  V30 2561 H 243.79 1.1839 -7.50925 0
M  V30 2562 N 245.365 1.30045 0.890287 0
M  V30 2563 C 246.328 1.15963 1.977 0
M  V30 2564 C 247.328 0.0923777 1.60534 0
M  V30 2565 O 248.518 0.340071 1.70848 0
M  V30 2566 C 245.65 0.775451 3.31963 0
M  V30 2567 H 246.843 2.12502 2.11619 0
M  V30 2568 H 244.396 1.13366 1.07601 0
M  V30 2569 H 245.131 -0.189671 3.23745 0
M  V30 2570 H 244.916 1.54668 3.60306 0
M  V30 2571 H 246.406 0.700251 4.11687 0
M  V30 2572 N 246.843 -1.10192 1.12674 0
M  V30 2573 C 248.089 -1.82658 0.894847 0
M  V30 2574 C 248.444 -1.83666 -0.573107 0
M  V30 2575 O 247.737 -1.28816 -1.41835 0
M  V30 2576 C 247.931 -3.28552 1.4067 0
M  V30 2577 C 247.76 -3.41756 2.92289 0
M  V30 2578 C 246.53 -3.54021 3.60551 0
M  V30 2579 C 248.728 -3.34949 3.90274 0
M  V30 2580 N 246.71 -3.55827 5.0026 0
M  V30 2581 C 248.081 -3.43531 5.16127 0
M  V30 2582 C 250.136 -3.18565 3.8265 0
M  V30 2583 C 248.839 -3.37416 6.3525 0
M  V30 2584 C 250.865 -3.13772 5.01299 0
M  V30 2585 C 250.227 -3.22938 6.26012 0
M  V30 2586 H 246.326 -0.683044 0.380756 0
M  V30 2587 H 248.91 -1.31752 1.43351 0
M  V30 2588 H 247.081 -3.77946 0.895055 0
M  V30 2589 H 248.813 -3.88991 1.11661 0
M  V30 2590 H 245.568 -3.57135 3.1105 0
M  V30 2591 H 245.992 -3.60335 5.73138 0
M  V30 2592 H 250.634 -3.10354 2.87124 0
M  V30 2593 H 248.352 -3.44391 7.3104 0
M  V30 2594 H 251.938 -3.02242 4.97133 0
M  V30 2595 H 250.818 -3.19235 7.16281 0
M  V30 2596 N 248.321 -0.919034 -1.28029 0
M  V30 2597 C 249.561 -0.562107 -1.96519 0
M  V30 2598 C 249.925 0.878784 -1.70708 0
M  V30 2599 O 251.126 1.34355 -2.32813 0
M  V30 2600 C 249.397 -0.868953 -3.46676 0
M  V30 2601 S 250.956 -0.619237 -4.34409 0
M  V30 2602 H 247.774 -0.2078 -0.679956 0
M  V30 2603 H 250.376 -1.18562 -1.55446 0
M  V30 2604 H 249.08 -1.91547 -3.62957 0
M  V30 2605 H 248.611 -0.234301 -3.92702 0
M  V30 2606 H 250.626 0.526995 -4.93394 0
M  V30 2607 N 249.799 1.42003 -0.683588 0
M  V30 2608 C 251.21 1.84501 -0.285736 0
M  V30 2609 C 251.561 1.57213 1.17382 0
M  V30 2610 O 250.686 1.03642 1.89966 0
M  V30 2611 C 251.281 3.34912 -0.511821 0
M  V30 2612 C 249.84 3.76025 -0.168005 0
M  V30 2613 C 248.987 2.6551 -0.799983 0
M  V30 2614 H 251.938 1.31724 -0.885119 0
M  V30 2615 H 251.959 3.79784 0.233292 0
M  V30 2616 H 251.471 3.54741 -1.57418 0
M  V30 2617 H 249.572 3.61801 0.890567 0
M  V30 2618 H 249.685 4.75141 -0.614661 0
M  V30 2619 H 248.049 2.53654 -0.230568 0
M  V30 2620 H 248.832 2.8816 -1.86597 0
M  V30 2621 N 251.277 0.427512 1.51691 0
M  V30 2622 C 252.207 -0.3796 2.30394 0
M  V30 2623 C 253.188 -1.02982 1.35384 0
M  V30 2624 O 254.373 -1.03534 1.643 0
M  V30 2625 C 251.503 -1.48649 3.1388 0
M  V30 2626 C 250.457 -0.960294 4.17088 0
M  V30 2627 C 249.783 -2.16219 4.89033 0
M  V30 2628 C 251.083 -0.00153679 5.223 0
M  V30 2629 H 252.777 0.277164 2.98114 0
M  V30 2630 H 250.323 0.134739 1.43368 0
M  V30 2631 H 252.276 -2.05826 3.67714 0
M  V30 2632 H 251 -2.1714 2.43962 0
M  V30 2633 H 249.659 -0.410806 3.64291 0
M  V30 2634 H 249.307 -2.83307 4.15628 0
M  V30 2635 H 249.007 -1.81654 5.58816 0
M  V30 2636 H 250.531 -2.73968 5.45687 0
M  V30 2637 H 251.945 -0.482687 5.71264 0
M  V30 2638 H 250.342 0.256199 5.99553 0
M  V30 2639 H 251.412 0.938174 4.75738 0
M  V30 2640 N 252.755 -1.56801 0.158532 0
M  V30 2641 C 253.665 -2.20916 -0.789518 0
M  V30 2642 C 254.681 -1.1969 -1.26294 0
M  V30 2643 O 255.857 -1.52308 -1.31773 0
M  V30 2644 C 252.922 -2.82727 -2.00665 0
M  V30 2645 C 251.983 -3.99114 -1.58134 0
M  V30 2646 C 251.216 -4.57968 -2.74045 0
M  V30 2647 O 251.439 -4.15704 -3.90572 0
M  V30 2648 O 250.373 -5.48047 -2.48855 0
M  V30 2649 H 254.199 -3.02464 -0.273681 0
M  V30 2650 H 251.784 -1.4924 -0.0690548 0
M  V30 2651 H 253.666 -3.21968 -2.71872 0
M  V30 2652 H 252.341 -2.04184 -2.51179 0
M  V30 2653 H 251.248 -3.64567 -0.839155 0
M  V30 2654 H 252.581 -4.79212 -1.12325 0
M  V30 2655 N 254.233 0.115231 -1.57178 0
M  V30 2656 C 255.461 0.836437 -1.89239 0
M  V30 2657 C 255.876 1.73256 -0.750175 0
M  V30 2658 O 255.233 1.80357 0.278832 0
M  V30 2659 C 255.284 1.66671 -3.20785 0
M  V30 2660 O 255.005 0.806652 -4.3061 0
M  V30 2661 C 256.506 2.49274 -3.66575 0
M  V30 2662 H 253.726 0.240253 -0.626514 0
M  V30 2663 H 256.27 0.0984932 -2.04263 0
M  V30 2664 H 254.425 2.35737 -3.0742 0
M  V30 2665 H 254.839 1.37969 -5.06028 0
M  V30 2666 H 256.313 3.03055 -4.6137 0
M  V30 2667 H 256.79 3.26807 -2.93417 0
M  V30 2668 H 257.396 1.85443 -3.82741 0
M  V30 2669 N 255.711 1.52812 0.385517 0
M  V30 2670 C 256.936 1.72207 1.15583 0
M  V30 2671 C 257.361 0.441034 1.82857 0
M  V30 2672 O 256.719 -0.603465 1.70962 0
M  V30 2673 C 256.767 2.87476 2.17692 0
M  V30 2674 O 255.871 2.54693 3.24354 0
M  V30 2675 H 255.212 0.572526 0.336319 0
M  V30 2676 H 257.742 1.99618 0.448744 0
M  V30 2677 H 257.752 3.13072 2.6163 0
M  V30 2678 H 256.427 3.80408 1.68115 0
M  V30 2679 H 255.004 2.3985 2.85529 0
M  V30 2680 N 257.189 -0.644168 1.43834 0
M  V30 2681 C 258.414 -1.43642 1.49605 0
M  V30 2682 C 258.839 -1.8773 0.117913 0
M  V30 2683 O 258.197 -1.57938 -0.890239 0
M  V30 2684 C 258.245 -2.6416 2.45463 0
M  V30 2685 O 257.349 -3.63538 1.94714 0
M  V30 2686 H 256.69 -0.430329 0.50568 0
M  V30 2687 H 259.22 -0.787448 1.8884 0
M  V30 2688 H 259.23 -3.11864 2.63068 0
M  V30 2689 H 257.905 -2.31414 3.45572 0
M  V30 2690 H 256.482 -3.2273 1.86814 0
M  V30 2691 N 258.668 -1.30515 -0.883378 0
M  V30 2692 C 260.084 -1.08881 -1.16692 0
M  V30 2693 C 260.284 0.149409 -2.00945 0
M  V30 2694 O 259.34 0.84257 -2.38027 0
M  V30 2695 C 260.653 -2.35319 -1.87204 0
M  V30 2696 C 262.201 -2.40799 -1.99962 0
M  V30 2697 C 262.676 -3.67083 -2.73887 0
M  V30 2698 N 264.167 -3.679 -2.81432 0
M  V30 2699 C 264.902 -4.62303 -3.3921 0
M  V30 2700 N 264.398 -5.67052 -3.98025 0
M  V30 2701 N 266.191 -4.49845 -3.3704 0
M  V30 2702 H 258.342 -2.09951 -0.321633 0
M  V30 2703 H 260.605 -0.92556 -0.205043 0
M  V30 2704 H 260.311 -3.25689 -1.3274 0
M  V30 2705 H 260.185 -2.44089 -2.87577 0
M  V30 2706 H 262.572 -1.50907 -2.53597 0
M  V30 2707 H 262.653 -2.36003 -0.98673 0
M  V30 2708 H 262.297 -4.57334 -2.20925 0
M  V30 2709 H 262.227 -3.69141 -3.75556 0
M  V30 2710 H 264.718 -2.92171 -2.39676 0
M  V30 2711 H 265.031 -6.35184 -4.40183 0
M  V30 2712 H 263.376 -5.70842 -3.96439 0
M  V30 2713 H 266.567 -3.67194 -2.90321 0
M  V30 2714 H 266.74 -5.23597 -3.81772 0
M  V30 2715 N 260.146 1.09593 -1.13257 0
M  V30 2716 C 261.557 1.63229 -0.906274 0
M  V30 2717 C 261.908 1.8811 0.557578 0
M  V30 2718 O 261.033 1.62953 1.42391 0
M  V30 2719 C 261.628 2.96535 -1.63867 0
M  V30 2720 C 260.187 3.47003 -1.45828 0
M  V30 2721 C 259.334 2.2145 -1.66898 0
M  V30 2722 H 262.285 0.92978 -1.28611 0
M  V30 2723 H 262.306 3.64411 -1.09476 0
M  V30 2724 H 261.818 2.78394 -2.70404 0
M  V30 2725 H 259.919 3.70272 -0.415848 0
M  V30 2726 H 260.032 4.24551 -2.2202 0
M  V30 2727 H 258.396 2.30022 -1.09371 0
M  V30 2728 H 259.179 2.0583 -2.74752 0
M  V30 2729 N 261.624 0.925811 1.2754 0
M  V30 2730 C 262.534 0.428993 2.30644 0
M  V30 2731 C 263.55 -0.489387 1.66976 0
M  V30 2732 O 264.726 -0.372653 1.97922 0
M  V30 2733 C 261.791 -0.311967 3.45294 0
M  V30 2734 C 260.852 0.641098 4.24486 0
M  V30 2735 C 260.085 -0.0645955 5.33661 0
M  V30 2736 O 260.308 -1.28429 5.55754 0
M  V30 2737 O 259.242 0.606265 5.98839 0
M  V30 2738 H 263.068 1.28504 2.75173 0
M  V30 2739 H 260.653 0.691086 1.32455 0
M  V30 2740 H 262.535 -0.729972 4.15029 0
M  V30 2741 H 261.21 -1.14365 3.02824 0
M  V30 2742 H 260.117 1.10874 3.57292 0
M  V30 2743 H 261.45 1.43995 4.70666 0
M  V30 2744 N 263.102 -1.41638 0.69111 0
M  V30 2745 C 264.012 -2.34588 0.0233487 0
M  V30 2746 C 265.028 -1.55987 -0.770984 0
M  V30 2747 O 266.204 -1.88486 -0.709569 0
M  V30 2748 C 263.269 -3.34684 -0.904851 0
M  V30 2749 C 262.33 -4.29176 -0.103225 0
M  V30 2750 C 261.563 -5.2449 -0.987216 0
M  V30 2751 O 261.786 -5.2514 -2.22674 0
M  V30 2752 O 260.72 -6.00295 -0.439281 0
M  V30 2753 H 264.546 -2.93261 0.789416 0
M  V30 2754 H 262.131 -1.42417 0.45142 0
M  V30 2755 H 264.013 -3.96133 -1.43724 0
M  V30 2756 H 262.688 -2.78461 -1.65049 0
M  V30 2757 H 261.595 -3.71089 0.473655 0
M  V30 2758 H 262.928 -4.88484 0.60365 0
M  V30 2759 N 264.58 -0.43555 -1.51462 0
M  V30 2760 C 265.991 0.0279871 -1.86679 0
M  V30 2761 C 266.342 1.42104 -1.35281 0
M  V30 2762 O 265.467 2.04667 -0.702878 0
M  V30 2763 C 266.062 0.0575626 -3.38751 0
M  V30 2764 C 264.621 0.465507 -3.7351 0
M  V30 2765 C 263.768 -0.342996 -2.75171 0
M  V30 2766 H 266.719 -0.651473 -1.44712 0
M  V30 2767 H 266.74 0.867421 -3.70481 0
M  V30 2768 H 266.252 -0.956448 -3.7613 0
M  V30 2769 H 264.353 1.48519 -3.41721 0
M  V30 2770 H 264.466 0.191546 -4.78717 0
M  V30 2771 H 262.83 0.198442 -2.53926 0
M  V30 2772 H 263.613 -1.35585 -3.15391 0
M  V30 2773 N 266.058 1.56714 -0.166846 0
M  V30 2774 C 267.305 1.96747 0.479252 0
M  V30 2775 C 267.633 1.05263 1.63554 0
M  V30 2776 O 266.888 0.0858098 1.95512 0
M  V30 2777 C 267.187 3.42889 1.00806 0
M  V30 2778 C 266.853 4.50889 -0.0318574 0
M  V30 2779 C 265.515 4.8015 -0.317675 0
M  V30 2780 C 267.867 5.15949 -0.737956 0
M  V30 2781 C 265.195 5.71772 -1.31506 0
M  V30 2782 C 267.547 6.08647 -1.72429 0
M  V30 2783 C 266.211 6.36277 -2.0176 0
M  V30 2784 H 265.481 0.719949 0.175371 0
M  V30 2785 H 268.128 1.89756 -0.257864 0
M  V30 2786 H 266.433 3.4681 1.82291 0
M  V30 2787 H 268.13 3.71203 1.51689 0
M  V30 2788 H 264.72 4.28128 0.201088 0
M  V30 2789 H 268.904 4.93458 -0.530351 0
M  V30 2790 H 264.16 5.91465 -1.54853 0
M  V30 2791 H 268.334 6.58129 -2.27682 0
M  V30 2792 H 265.961 7.07075 -2.79194 0
M  V30 2793 N 267.536 -0.106894 1.57237 0
M  V30 2794 C 268.466 -1.13148 2.04254 0
M  V30 2795 C 269.447 -1.42476 0.929224 0
M  V30 2796 O 270.632 -1.52709 1.19973 0
M  V30 2797 C 267.762 -2.4545 2.45706 0
M  V30 2798 C 266.716 -2.30558 3.60592 0
M  V30 2799 C 266.042 -3.67931 3.87983 0
M  V30 2800 C 267.342 -1.75597 4.91897 0
M  V30 2801 H 269.036 -0.740374 2.90101 0
M  V30 2802 H 266.582 -0.354696 1.39563 0
M  V30 2803 H 268.535 -3.17389 2.77205 0
M  V30 2804 H 267.259 -2.86475 1.56843 0
M  V30 2805 H 265.918 -1.61067 3.29322 0
M  V30 2806 H 265.566 -4.06462 2.96306 0
M  V30 2807 H 265.266 -3.58817 4.65322 0
M  V30 2808 H 266.79 -4.41356 4.21945 0
M  V30 2809 H 268.204 -2.37364 5.21854 0
M  V30 2810 H 266.601 -1.77272 5.73319 0
M  V30 2811 H 267.671 -0.714451 4.79608 0
M  V30 2812 N 269.014 -1.53014 -0.377408 0
M  V30 2813 C 269.961 -1.78616 -1.46168 0
M  V30 2814 C 270.931 -0.629917 -1.53692 0
M  V30 2815 O 272.116 -0.870861 -1.69766 0
M  V30 2816 C 269.256 -1.97123 -2.8326 0
M  V30 2817 C 268.369 -3.24831 -2.84796 0
M  V30 2818 C 267.504 -3.33591 -4.13389 0
M  V30 2819 C 266.543 -4.55377 -4.09021 0
M  V30 2820 N 265.68 -4.61355 -5.29241 0
M  V30 2821 H 270.52 -2.71142 -1.23637 0
M  V30 2822 H 268.057 -1.34326 -0.599577 0
M  V30 2823 H 270.015 -2.05839 -3.62886 0
M  V30 2824 H 268.645 -1.07946 -3.04216 0
M  V30 2825 H 267.697 -3.25128 -1.97474 0
M  V30 2826 H 269.009 -4.14523 -2.77439 0
M  V30 2827 H 268.163 -3.41554 -5.01424 0
M  V30 2828 H 266.902 -2.41894 -4.23484 0
M  V30 2829 H 265.907 -4.47527 -3.19373 0
M  V30 2830 H 267.132 -5.48402 -4.00539 0
M  V30 2831 H 265.078 -3.72554 -5.39944 0
M  V30 2832 H 264.995 -5.44935 -5.24006 0
M  V30 2833 H 266.263 -4.73586 -6.19141 0
M  V30 2834 N 270.492 0.636531 -1.44174 0
M  V30 2835 C 271.402 1.77754 -1.53103 0
M  V30 2836 C 272.418 1.68928 -0.417034 0
M  V30 2837 O 273.594 1.89801 -0.6736 0
M  V30 2838 C 270.659 3.14115 -1.46741 0
M  V30 2839 C 269.72 3.34612 -2.68948 0
M  V30 2840 C 268.953 4.64467 -2.6288 0
M  V30 2841 O 269.176 5.44919 -1.68581 0
M  V30 2842 O 268.11 4.87049 -3.53648 0
M  V30 2843 H 271.936 1.73174 -2.49489 0
M  V30 2844 H 269.521 0.79709 -1.2636 0
M  V30 2845 H 271.403 3.95412 -1.45696 0
M  V30 2846 H 270.078 3.19249 -0.534975 0
M  V30 2847 H 268.985 2.53014 -2.75562 0
M  V30 2848 H 270.318 3.34336 -3.61221 0
M  V30 2849 N 271.97 1.30982 0.876444 0
M  V30 2850 C 272.933 1.18054 1.96459 0
M  V30 2851 C 273.933 0.109399 1.60427 0
M  V30 2852 O 275.123 0.358173 1.70478 0
M  V30 2853 C 272.255 0.810616 3.31122 0
M  V30 2854 H 273.448 2.14735 2.09354 0
M  V30 2855 H 271.001 1.145 1.06392 0
M  V30 2856 H 271.736 -0.155322 3.23928 0
M  V30 2857 H 271.521 1.58481 3.58645 0
M  V30 2858 H 273.011 0.743876 4.10921 0
M  V30 2859 N 273.449 -1.08991 1.13837 0
M  V30 2860 C 274.359 -2.19301 0.833333 0
M  V30 2861 C 275.375 -1.73026 -0.183847 0
M  V30 2862 O 276.551 -2.01395 -0.0138092 0
M  V30 2863 C 273.616 -3.45323 0.308651 0
M  V30 2864 C 272.677 -4.06255 1.38764 0
M  V30 2865 C 271.91 -5.26262 0.887896 0
M  V30 2866 O 272.133 -5.69747 -0.27287 0
M  V30 2867 O 271.067 -5.78435 1.66421 0
M  V30 2868 H 274.893 -2.47854 1.75506 0
M  V30 2869 H 272.478 -1.18012 0.916166 0
M  V30 2870 H 274.36 -4.21394 0.0216739 0
M  V30 2871 H 273.035 -3.18362 -0.585431 0
M  V30 2872 H 271.942 -3.318 1.72799 0
M  V30 2873 H 273.275 -4.37452 2.25602 0
M  V30 2874 N 274.927 -0.932562 -1.27047 0
M  V30 2875 C 276.204 -0.49377 -1.89265 0
M  V30 2876 C 276.584 1.02833 -1.8436 0
M  V30 2877 O 275.932 1.88461 -1.29209 0
M  V30 2878 C 276.142 -1.04536 -3.32976 0
M  V30 2879 C 277.49 -1.10879 -4.09867 0
M  V30 2880 O 278.514 -0.995327 -3.42011 0
M  V30 2881 O 277.373 -1.28417 -5.31198 0
M  V30 2882 H 274.467 -0.159596 -0.811454 0
M  V30 2883 H 277.013 -1.02457 -1.3528 0
M  V30 2884 H 275.785 -2.08913 -3.30864 0
M  V30 2885 H 275.408 -0.496494 -3.94488 0
M  V30 2886 N 276.405 1.4127 -0.698611 0
M  V30 2887 C 277.652 2.0118 -0.230865 0
M  V30 2888 C 277.98 1.55338 1.17049 0
M  V30 2889 O 277.235 0.756775 1.80475 0
M  V30 2890 C 277.534 3.56592 -0.240192 0
M  V30 2891 C 277.2 4.21955 -1.58948 0
M  V30 2892 C 275.862 4.39524 -1.95887 0
M  V30 2893 C 278.214 4.58576 -2.47704 0
M  V30 2894 C 275.542 4.90992 -3.2116 0
M  V30 2895 C 277.894 5.11435 -3.72313 0
M  V30 2896 C 276.558 5.27215 -4.0939 0
M  V30 2897 H 275.828 0.736169 -0.0844796 0
M  V30 2898 H 278.475 1.69124 -0.8983 0
M  V30 2899 H 276.78 3.88456 0.510797 0
M  V30 2900 H 278.477 4.00758 0.139296 0
M  V30 2901 H 275.067 4.08657 -1.29219 0
M  V30 2902 H 279.251 4.44654 -2.20445 0
M  V30 2903 H 274.507 5.01393 -3.49878 0
M  V30 2904 H 278.681 5.38752 -4.4127 0
M  V30 2905 H 276.308 5.66859 -5.06533 0
M  V30 2906 N 277.883 0.443576 1.51229 0
M  V30 2907 C 279.111 -0.11929 2.06556 0
M  V30 2908 C 279.526 -1.35921 1.31038 0
M  V30 2909 O 278.883 -1.78675 0.371704 0
M  V30 2910 C 278.934 -0.435228 3.5887 0
M  V30 2911 O 278.655 0.755486 4.31537 0
M  V30 2912 C 280.156 -1.04808 4.30732 0
M  V30 2913 H 277.376 -0.0051584 0.67098 0
M  V30 2914 H 279.92 0.624453 1.94733 0
M  V30 2915 H 278.075 -1.12887 3.70588 0
M  V30 2916 H 278.489 0.483491 5.22267 0
M  V30 2917 H 279.963 -1.2191 5.3837 0
M  V30 2918 H 280.44 -2.03081 3.89429 0
M  V30 2919 H 281.046 -0.393637 4.23474 0
M  V30 2920 N 279.361 -1.56624 0.175154 0
M  V30 2921 C 280.61 -1.96173 -0.468921 0
M  V30 2922 C 280.923 -1.06401 -1.64128 0
M  V30 2923 O 282.129 -1.35648 -2.35185 0
M  V30 2924 C 280.585 -3.48833 -0.885633 0
M  V30 2925 C 280.193 -4.47237 0.261343 0
M  V30 2926 C 281.937 -3.97194 -1.49791 0
M  V30 2927 C 279.844 -5.9114 -0.175214 0
M  V30 2928 H 278.774 -0.732455 -0.178958 0
M  V30 2929 H 281.425 -1.81591 0.263997 0
M  V30 2930 H 279.807 -3.58848 -1.67464 0
M  V30 2931 H 280.981 -4.4894 1.03871 0
M  V30 2932 H 279.296 -4.08956 0.783827 0
M  V30 2933 H 281.893 -5.02167 -1.83665 0
M  V30 2934 H 282.236 -3.40351 -2.39722 0
M  V30 2935 H 282.769 -3.90212 -0.773267 0
M  V30 2936 H 279.508 -6.51865 0.689414 0
M  V30 2937 H 279.028 -5.92735 -0.91786 0
M  V30 2938 H 280.707 -6.44044 -0.617792 0
M  V30 2939 N 280.839 0.0985539 -1.57292 0
M  V30 2940 C 282.086 0.802678 -1.85912 0
M  V30 2941 C 282.414 1.78901 -0.763186 0
M  V30 2942 O 281.669 1.94178 0.243559 0
M  V30 2943 C 281.968 1.56927 -3.21105 0
M  V30 2944 C 281.634 0.725376 -4.45027 0
M  V30 2945 C 280.296 0.492726 -4.78671 0
M  V30 2946 C 282.648 0.138493 -5.21016 0
M  V30 2947 C 279.976 -0.336727 -5.85733 0
M  V30 2948 C 282.328 -0.678264 -6.28953 0
M  V30 2949 C 280.992 -0.921039 -6.61115 0
M  V30 2950 H 280.262 0.293721 -0.680301 0
M  V30 2951 H 282.909 0.0642841 -1.91392 0
M  V30 2952 H 281.214 2.37914 -3.11294 0
M  V30 2953 H 282.911 2.11841 -3.40477 0
M  V30 2954 H 279.501 0.916815 -4.18679 0
M  V30 2955 H 283.685 0.305404 -4.95359 0
M  V30 2956 H 278.941 -0.533836 -6.09065 0
M  V30 2957 H 283.115 -1.1399 -6.87007 0
M  V30 2958 H 280.742 -1.56556 -7.43905 0
M  V30 2959 N 282.317 1.53212 0.369288 0
M  V30 2960 C 283.566 1.68436 1.10961 0
M  V30 2961 C 283.879 0.440738 1.9057 0
M  V30 2962 O 285.085 0.473446 2.6734 0
M  V30 2963 C 283.541 2.97744 2.0218 0
M  V30 2964 C 283.149 4.29355 1.279 0
M  V30 2965 C 284.893 3.22334 2.76226 0
M  V30 2966 C 282.8 5.49755 2.17999 0
M  V30 2967 H 281.73 0.627568 0.41794 0
M  V30 2968 H 284.381 1.79713 0.370884 0
M  V30 2969 H 282.763 2.8026 2.79768 0
M  V30 2970 H 283.937 4.57458 0.554007 0
M  V30 2971 H 282.252 4.11179 0.657311 0
M  V30 2972 H 284.849 4.09471 3.43857 0
M  V30 2973 H 285.192 2.38238 3.41392 0
M  V30 2974 H 285.725 3.40475 2.05723 0
M  V30 2975 H 282.464 6.36318 1.57417 0
M  V30 2976 H 281.984 5.25937 2.88359 0
M  V30 2977 H 283.663 5.84401 2.77641 0
M  V30 2978 N 283.795 -0.628877 1.44509 0
M  V30 2979 C 284.742 -1.74074 1.51549 0
M  V30 2980 C 285.712 -1.62084 0.363021 0
M  V30 2981 O 286.897 -1.81975 0.573567 0
M  V30 2982 C 284.037 -3.12328 1.46784 0
M  V30 2983 C 283.15 -3.35277 2.72422 0
M  V30 2984 C 282.285 -4.63515 2.59475 0
M  V30 2985 C 281.324 -4.7965 3.80266 0
M  V30 2986 N 280.461 -5.99168 3.65981 0
M  V30 2987 H 285.301 -1.67392 2.46544 0
M  V30 2988 H 282.838 -0.816527 1.22357 0
M  V30 2989 H 284.796 -3.92286 1.42012 0
M  V30 2990 H 283.426 -3.18018 0.553544 0
M  V30 2991 H 282.478 -2.49242 2.87372 0
M  V30 2992 H 283.79 -3.43078 3.62076 0
M  V30 2993 H 282.944 -5.51638 2.52548 0
M  V30 2994 H 281.683 -4.58076 1.67384 0
M  V30 2995 H 280.688 -3.89957 3.87574 0
M  V30 2996 H 281.913 -4.86902 4.73395 0
M  V30 2997 H 279.859 -5.94814 2.76644 0
M  V30 2998 H 279.776 -6.08035 4.49254 0
M  V30 2999 H 281.044 -6.89846 3.6295 0
M  V30 3000 N 285.273 -1.31445 -0.869486 0
M  V30 3001 C 286.221 -1.19067 -1.99814 0
M  V30 3002 C 287.215 -0.0988569 -1.69111 0
M  V30 3003 O 288.421 -0.260781 -1.78101 0
M  V30 3004 H 284.796 -0.368677 -0.655425 0
M  V30 3005 H 286.767 -2.14555 -2.07385 0
M  V30 3006 C 285.516 -0.915323 -3.35436 0
M  V30 3007 H 284.839 -1.74759 -3.59582 0
M  V30 3008 H 286.279 -0.868895 -4.15001 0
M  V30 3009 C 284.738 0.381928 -3.34728 0
M  V30 3010 O 285.268 1.39857 -3.76567 0
M  V30 3011 N 283.474 0.398633 -2.87853 0
M  V30 3012 H 283.021 -0.429186 -2.54 0
M  V30 3013 H 282.979 1.26651 -2.87762 0
M  V30 3014 N 286.751 1.08385 -1.14413 0
M  V30 3015 C 287.701 2.13509 -0.79987 0
M  V30 3016 C 288.685 1.5951 0.211059 0
M  V30 3017 O 289.877 1.76995 0.0133694 0
M  V30 3018 C 287.006 3.42162 -0.279297 0
M  V30 3019 C 286.092 4.03042 -1.31976 0
M  V30 3020 N 286.483 4.38327 -2.52395 0
M  V30 3021 C 284.781 4.30379 -1.17004 0
M  V30 3022 C 285.482 4.86428 -3.19003 0
M  V30 3023 N 284.458 4.84547 -2.46405 0
M  V30 3024 H 288.26 2.38609 -1.7159 0
M  V30 3025 H 285.774 1.2572 -1.02802 0
M  V30 3026 H 287.771 4.16898 -0.0143688 0
M  V30 3027 H 286.431 3.18511 0.630923 0
M  V30 3028 H 287.442 4.29349 -2.89621 0
M  V30 3029 H 284.119 4.16281 -0.318854 0
M  V30 3030 H 285.509 5.23107 -4.21674 0
M  V30 3031 N 288.23 0.939286 1.26551 0
M  V30 3032 C 289.479 0.581601 1.93133 0
M  V30 3033 C 289.792 -0.883224 1.74524 0
M  V30 3034 O 290.998 -1.3502 2.35546 0
M  V30 3035 C 289.454 0.989425 3.46032 0
M  V30 3036 C 289.062 2.47573 3.73379 0
M  V30 3037 C 290.806 0.703544 4.18629 0
M  V30 3038 C 288.713 2.82235 5.19709 0
M  V30 3039 H 287.643 0.213803 0.723052 0
M  V30 3040 H 290.294 1.14167 1.4366 0
M  V30 3041 H 288.676 0.357902 3.94379 0
M  V30 3042 H 289.85 3.15614 3.35744 0
M  V30 3043 H 288.165 2.73471 3.1401 0
M  V30 3044 H 290.762 0.938869 5.26393 0
M  V30 3045 H 291.105 -0.359639 4.14744 0
M  V30 3046 H 291.638 1.2947 3.76141 0
M  V30 3047 H 288.377 3.87509 5.28694 0
M  V30 3048 H 287.897 2.18854 5.58447 0
M  V30 3049 H 289.576 2.70599 5.87695 0
M  V30 3050 N 289.708 -1.40897 0.706093 0
M  V30 3051 C 291.124 -1.55042 0.37869 0
M  V30 3052 C 291.324 -1.67944 -1.11342 0
M  V30 3053 O 290.38 -1.66372 -1.89938 0
M  V30 3054 C 291.693 -2.78398 1.13643 0
M  V30 3055 C 293.241 -2.92206 1.12181 0
M  V30 3056 C 293.716 -4.18463 1.86152 0
M  V30 3057 N 295.207 -4.25443 1.83173 0
M  V30 3058 C 295.942 -5.2202 2.37239 0
M  V30 3059 N 295.438 -6.24563 2.99821 0
M  V30 3060 N 297.231 -5.14033 2.27435 0
M  V30 3061 H 289.382 -1.30769 1.67372 0
M  V30 3062 H 291.645 -0.631653 0.706907 0
M  V30 3063 H 291.351 -2.7511 2.19106 0
M  V30 3064 H 291.225 -3.70228 0.721853 0
M  V30 3065 H 293.612 -2.95004 0.0754171 0
M  V30 3066 H 293.693 -2.01521 1.57554 0
M  V30 3067 H 293.337 -4.16427 2.90776 0
M  V30 3068 H 293.267 -5.08141 1.38206 0
M  V30 3069 H 295.758 -3.51976 1.37556 0
M  V30 3070 H 296.071 -6.94665 3.38616 0
M  V30 3071 H 294.416 -6.25035 3.03902 0
M  V30 3072 H 297.607 -4.3285 1.78208 0
M  V30 3073 H 297.78 -5.89129 2.69873 0
M  V30 3074 N 291.186 -0.45159 -1.50991 0
M  V30 3075 C 292.433 0.110074 -2.02201 0
M  V30 3076 C 292.761 1.4146 -1.33489 0
M  V30 3077 O 292.016 1.90617 -0.443125 0
M  V30 3078 C 292.315 0.361728 -3.55565 0
M  V30 3079 C 291.981 -0.858717 -4.42648 0
M  V30 3080 C 290.643 -1.19338 -4.66167 0
M  V30 3081 C 292.995 -1.67221 -4.93646 0
M  V30 3082 C 290.323 -2.34195 -5.37931 0
M  V30 3083 C 292.675 -2.8119 -5.6667 0
M  V30 3084 C 291.339 -3.15094 -5.88449 0
M  V30 3085 H 290.609 0.040279 -0.739904 0
M  V30 3086 H 293.256 -0.601696 -1.81802 0
M  V30 3087 H 291.561 1.15554 -3.74372 0
M  V30 3088 H 293.258 0.80996 -3.92735 0
M  V30 3089 H 289.848 -0.58796 -4.24548 0
M  V30 3090 H 294.032 -1.42686 -4.75347 0
M  V30 3091 H 289.288 -2.6076 -5.53005 0
M  V30 3092 H 293.462 -3.44585 -6.05173 0
M  V30 3093 H 291.089 -4.04204 -6.43835 0
M  V30 3094 N 292.664 1.56529 -0.183458 0
M  V30 3095 C 294.075 1.83739 0.331177 0
M  V30 3096 C 294.426 1.10373 1.62211 0
M  V30 3097 O 293.551 0.36071 2.13373 0
M  V30 3098 C 294.146 3.33306 0.607646 0
M  V30 3099 C 292.705 3.60969 1.06668 0
M  V30 3100 C 291.852 2.77086 0.109029 0
M  V30 3101 H 294.803 1.53379 -0.407484 0
M  V30 3102 H 294.824 3.51444 1.45832 0
M  V30 3103 H 294.336 3.86677 -0.332086 0
M  V30 3104 H 292.437 3.13021 2.0211 0
M  V30 3105 H 292.55 4.69231 0.967447 0
M  V30 3106 H 290.914 2.47319 0.608714 0
M  V30 3107 H 291.697 3.33241 -0.82494 0
M  V30 3108 N 294.142 -0.090211 1.57342 0
M  V30 3109 C 295.089 -1.10909 2.02405 0
M  V30 3110 C 296.059 -1.39523 0.901252 0
M  V30 3111 O 297.244 -1.50903 1.1676 0
M  V30 3112 C 294.384 -2.42277 2.45755 0
M  V30 3113 C 293.497 -2.20352 3.71576 0
M  V30 3114 C 292.632 -3.45154 4.03785 0
M  V30 3115 C 291.671 -3.18512 5.22701 0
M  V30 3116 N 290.808 -4.35593 5.50639 0
M  V30 3117 H 295.648 -0.71782 2.89225 0
M  V30 3118 H 293.185 -0.342901 1.43048 0
M  V30 3119 H 295.143 -3.18951 2.68935 0
M  V30 3120 H 293.773 -2.79242 1.61938 0
M  V30 3121 H 292.825 -1.34458 3.55844 0
M  V30 3122 H 294.137 -1.96661 4.58395 0
M  V30 3123 H 293.291 -4.30233 4.27767 0
M  V30 3124 H 292.03 -3.71904 3.15498 0
M  V30 3125 H 291.035 -2.31827 4.98534 0
M  V30 3126 H 292.26 -2.93103 6.12591 0
M  V30 3127 H 290.206 -4.6241 4.6531 0
M  V30 3128 H 290.123 -4.1511 6.31838 0
M  V30 3129 H 291.391 -5.21723 5.7916 0
M  V30 3130 N 295.62 -1.53406 -0.361157 0
M  V30 3131 C 296.867 -1.69802 -1.10333 0
M  V30 3132 C 297.195 -0.452087 -1.89173 0
M  V30 3133 O 296.45 0.566017 -1.87336 0
M  V30 3134 C 296.749 -2.90211 -2.08596 0
M  V30 3135 C 296.415 -4.26539 -1.46203 0
M  V30 3136 C 295.077 -4.6361 -1.28915 0
M  V30 3137 C 297.429 -5.113 -1.01101 0
M  V30 3138 C 294.757 -5.83075 -0.651157 0
M  V30 3139 C 297.109 -6.31415 -0.387007 0
M  V30 3140 C 295.773 -6.67195 -0.201657 0
M  V30 3141 H 295.043 -0.621351 -0.403737 0
M  V30 3142 H 297.69 -1.87598 -0.384609 0
M  V30 3143 H 295.995 -2.66946 -2.86788 0
M  V30 3144 H 297.692 -3.00091 -2.65982 0
M  V30 3145 H 294.282 -3.97352 -1.60653 0
M  V30 3146 H 298.466 -4.83206 -1.13249 0
M  V30 3147 H 293.722 -6.09385 -0.496006 0
M  V30 3148 H 297.896 -6.96394 -0.0293563 0
M  V30 3149 H 295.523 -7.59628 0.294766 0
M  V30 3150 N 297.098 0.621204 -1.44841 0
M  V30 3151 C 298.046 1.75385 -1.52784 0
M  V30 3152 C 299.04 1.64639 -0.398779 0
M  V30 3153 O 300.246 1.70598 -0.574137 0
M  V30 3154 H 296.621 0.579193 -0.479625 0
M  V30 3155 H 298.592 1.6581 -2.48092 0
M  V30 3156 C 297.341 3.13742 -1.4987 0
M  V30 3157 H 296.664 3.22663 -2.36069 0
M  V30 3158 H 298.104 3.92861 -1.59487 0
M  V30 3159 C 296.563 3.36175 -0.220973 0
M  V30 3160 O 297.093 3.95469 0.704782 0
M  V30 3161 N 295.299 2.90348 -0.120963 0
M  V30 3162 H 294.846 2.42278 -0.875162 0
M  V30 3163 H 294.804 3.05732 0.733168 0
M  V30 3164 N 298.576 1.31904 0.862503 0
M  V30 3165 C 299.823 1.22017 1.61611 0
M  V30 3166 C 300.151 -0.21991 1.93253 0
M  V30 3167 O 299.406 -1.17076 1.56817 0
M  V30 3168 C 299.705 2.01713 2.95037 0
M  V30 3169 C 299.371 3.51145 2.82857 0
M  V30 3170 C 298.033 3.91889 2.79243 0
M  V30 3171 C 300.385 4.46204 2.69353 0
M  V30 3172 C 297.713 5.25947 2.59993 0
M  V30 3173 C 300.065 5.80397 2.5164 0
M  V30 3174 C 298.729 6.20352 2.46413 0
M  V30 3175 H 297.999 0.44649 0.591378 0
M  V30 3176 H 300.646 1.63248 1.00111 0
M  V30 3177 H 298.951 1.53185 3.60613 0
M  V30 3178 H 300.648 1.91437 3.52353 0
M  V30 3179 H 297.238 3.1878 2.86491 0
M  V30 3180 H 301.422 4.15652 2.71196 0
M  V30 3181 H 296.678 5.5597 2.54376 0
M  V30 3182 H 300.852 6.53676 2.40169 0
M  V30 3183 H 298.479 7.24172 2.31256 0
M  V30 3184 N 300.054 -1.07777 1.14986 0
M  V30 3185 C 301.279 -1.84558 0.946213 0
M  V30 3186 C 301.704 -1.81323 -0.500362 0
M  V30 3187 O 301.062 -1.20301 -1.35637 0
M  V30 3188 C 301.11 -3.29736 1.45968 0
M  V30 3189 O 300.214 -4.07149 0.65601 0
M  V30 3190 H 299.555 -0.571641 0.33782 0
M  V30 3191 H 302.085 -1.35991 1.52865 0
M  V30 3192 H 302.095 -3.80574 1.47063 0
M  V30 3193 H 300.77 -3.31406 2.51283 0
M  V30 3194 H 299.347 -3.65994 0.714322 0
M  V30 3195 N 301.532 -0.945985 -1.26051 0
M  V30 3196 C 302.479 -0.45809 -2.26208 0
M  V30 3197 C 303.449 0.484816 -1.58867 0
M  V30 3198 O 304.634 0.399969 -1.86561 0
M  V30 3199 C 301.774 0.266131 -3.44072 0
M  V30 3200 C 300.887 -0.713005 -4.26075 0
M  V30 3201 C 300.022 0.0329013 -5.3119 0
M  V30 3202 C 299.061 -0.93774 -6.04874 0
M  V30 3203 N 298.198 -0.223274 -7.01745 0
M  V30 3204 H 303.038 -1.3171 -2.67313 0
M  V30 3205 H 300.575 -0.66069 -1.31428 0
M  V30 3206 H 302.533 0.702514 -4.11243 0
M  V30 3207 H 301.163 1.08925 -3.03867 0
M  V30 3208 H 300.215 -1.26789 -3.58648 0
M  V30 3209 H 301.527 -1.45406 -4.77136 0
M  V30 3210 H 300.681 0.528335 -6.04395 0
M  V30 3211 H 299.42 0.806801 -4.8098 0
M  V30 3212 H 298.425 -1.44425 -5.30492 0
M  V30 3213 H 299.65 -1.71172 -6.57173 0
M  V30 3214 H 297.596 0.532046 -6.53839 0
M  V30 3215 H 297.513 -0.90357 -7.50581 0
M  V30 3216 H 298.781 0.250907 -7.79096 0
M  V30 3217 N 303.011 1.40521 -0.713556 0
M  V30 3218 C 304.236 2.05759 -0.26035 0
M  V30 3219 C 304.661 1.53403 1.08854 0
M  V30 3220 O 304.019 0.668535 1.68524 0
M  V30 3221 C 304.067 3.59745 -0.248122 0
M  V30 3222 O 303.171 4.05123 0.77131 0
M  V30 3223 H 302.512 0.652564 -0.122703 0
M  V30 3224 H 305.042 1.79958 -0.973467 0
M  V30 3225 H 305.052 4.07911 -0.0851129 0
M  V30 3226 H 303.727 3.97218 -1.2325 0
M  V30 3227 H 302.304 3.68422 0.57619 0
M  V30 3228 N 304.489 0.459591 1.5075 0
M  V30 3229 C 305.437 -0.354678 2.2988 0
M  V30 3230 C 306.431 -1.00086 1.36672 0
M  V30 3231 O 307.637 -0.933277 1.53915 0
M  V30 3232 H 304.012 -0.13321 0.740107 0
M  V30 3233 H 305.983 0.333269 2.96533 0
M  V30 3234 C 304.732 -1.43073 3.169 0
M  V30 3235 H 304.055 -0.942882 3.88523 0
M  V30 3236 H 305.495 -1.97328 3.75284 0
M  V30 3237 C 303.954 -2.42633 2.33732 0
M  V30 3238 O 304.484 -3.47658 2.01238 0
M  V30 3239 N 302.69 -2.14066 1.9653 0
M  V30 3240 H 302.237 -1.28685 2.23155 0
M  V30 3241 H 302.195 -2.80917 1.41185 0
M  V30 3242 N 305.967 -1.56429 0.191757 0
M  V30 3243 C 307.213 -1.97777 -0.448554 0
M  V30 3244 C 307.546 -1.07847 -1.61501 0
M  V30 3245 O 306.821 -0.129774 -1.94067 0
M  V30 3246 C 307.104 -3.48362 -0.911906 0
M  V30 3247 C 306.957 -4.4907 0.256136 0
M  V30 3248 C 308.276 -4.02561 -1.77857 0
M  V30 3249 H 305.395 -0.719071 -0.161572 0
M  V30 3250 H 308.037 -1.87896 0.282007 0
M  V30 3251 H 306.187 -3.56914 -1.53442 0
M  V30 3252 H 307.859 -4.5256 0.893733 0
M  V30 3253 H 306.102 -4.24181 0.908436 0
M  V30 3254 H 306.773 -5.51889 -0.11053 0
M  V30 3255 H 309.249 -3.96767 -1.25359 0
M  V30 3256 H 308.125 -5.08301 -2.07174 0
M  V30 3257 H 308.386 -3.47616 -2.73158 0
M  V30 3258 N 307.445 0.0818655 -1.57387 0
M  V30 3259 C 308.378 1.12986 -1.98266 0
M  V30 3260 C 309.356 1.38123 -0.857954 0
M  V30 3261 O 310.54 1.51663 -1.1194 0
M  V30 3262 C 307.667 2.47632 -2.31076 0
M  V30 3263 C 306.713 2.38693 -3.53452 0
M  V30 3264 S 307.546 1.79071 -5.04672 0
M  V30 3265 C 308.702 3.15316 -5.40673 0
M  V30 3266 H 308.935 0.781435 -2.86846 0
M  V30 3267 H 306.468 0.290034 -1.51651 0
M  V30 3268 H 308.426 3.25089 -2.50654 0
M  V30 3269 H 307.087 2.79638 -1.43043 0
M  V30 3270 H 306.28 3.37964 -3.73893 0
M  V30 3271 H 305.882 1.69369 -3.33452 0
M  V30 3272 H 308.174 4.11613 -5.38127 0
M  V30 3273 H 309.117 2.99664 -6.41566 0
M  V30 3274 H 309.525 3.15457 -4.68132 0
M  V30 3275 N 308.923 1.53595 0.353017 0
M  V30 3276 C 310.2 1.61002 1.11075 0
M  V30 3277 C 310.58 0.425356 2.0677 0
M  V30 3278 O 309.928 -0.583267 2.2093 0
M  V30 3279 C 310.138 2.96631 1.83877 0
M  V30 3280 C 311.486 3.51653 2.37961 0
M  V30 3281 O 312.51 2.98743 1.93987 0
M  V30 3282 O 311.369 4.44177 3.18386 0
M  V30 3283 H 308.463 0.650825 0.510251 0
M  V30 3284 H 311.009 1.6594 0.35527 0
M  V30 3285 H 309.781 3.74293 1.14108 0
M  V30 3286 H 309.404 2.95242 2.66304 0
M  V30 3287 N 310.401 -0.613514 1.45168 0
M  V30 3288 C 311.647 -1.37471 1.49096 0
M  V30 3289 C 311.98 -1.93765 0.129901 0
M  V30 3290 O 311.255 -1.74707 -0.854858 0
M  V30 3291 C 311.538 -2.52701 2.56542 0
M  V30 3292 C 311.391 -2.01643 4.0207 0
M  V30 3293 C 312.71 -3.54849 2.60327 0
M  V30 3294 H 309.829 -0.498502 0.54283 0
M  V30 3295 H 312.471 -0.692125 1.76945 0
M  V30 3296 H 310.621 -3.10931 2.32926 0
M  V30 3297 H 312.293 -1.48108 4.36877 0
M  V30 3298 H 310.536 -1.32688 4.13009 0
M  V30 3299 H 311.207 -2.84681 4.72928 0
M  V30 3300 H 313.683 -3.0645 2.81474 0
M  V30 3301 H 312.559 -4.32973 3.37381 0
M  V30 3302 H 312.82 -4.10079 1.6519 0
M  V30 3303 N 311.879 -1.3236 -0.855495 0
M  V30 3304 C 312.826 -1.21225 -1.964 0
M  V30 3305 C 313.796 -0.0946204 -1.6583 0
M  V30 3306 O 314.981 -0.27002 -1.8888 0
M  V30 3307 C 312.121 -0.940419 -3.32039 0
M  V30 3308 C 311.234 -2.14276 -3.75113 0
M  V30 3309 C 310.369 -1.80648 -4.9954 0
M  V30 3310 C 309.408 -2.97208 -5.35102 0
M  V30 3311 N 308.545 -2.63678 -6.50706 0
M  V30 3312 H 313.385 -2.16042 -2.05255 0
M  V30 3313 H 310.922 -1.07451 -1.00463 0
M  V30 3314 H 312.88 -0.763311 -4.10158 0
M  V30 3315 H 311.51 -0.0290413 -3.22787 0
M  V30 3316 H 310.562 -2.43017 -2.92655 0
M  V30 3317 H 311.874 -3.01468 -3.97389 0
M  V30 3318 H 311.028 -1.59484 -5.85363 0
M  V30 3319 H 309.767 -0.906678 -4.79198 0
M  V30 3320 H 308.772 -3.19004 -4.47791 0
M  V30 3321 H 309.997 -3.87918 -5.57401 0
M  V30 3322 H 307.943 -1.76238 -6.31883 0
M  V30 3323 H 307.86 -3.444 -6.72997 0
M  V30 3324 H 309.128 -2.45942 -7.39684 0
M  V30 3325 N 313.357 1.07166 -1.15556 0
M  V30 3326 C 314.634 1.76546 -0.842069 0
M  V30 3327 C 315.014 2.00453 0.661939 0
M  V30 3328 O 314.362 1.62452 1.60691 0
M  V30 3329 C 314.572 3.07266 -1.65495 0
M  V30 3330 C 315.92 3.81578 -1.86234 0
M  V30 3331 O 316.944 3.17083 -1.62287 0
M  V30 3332 O 315.803 4.97419 -2.26355 0
M  V30 3333 H 312.897 0.766756 -0.309862 0
M  V30 3334 H 315.443 1.13514 -1.26145 0
M  V30 3335 H 314.215 2.85494 -2.67598 0
M  V30 3336 H 313.838 3.7803 -1.23203 0
M  V30 3337 N 314.835 0.952656 1.25548 0
M  V30 3338 C 316.251 0.656769 1.4546 0
M  V30 3339 C 316.451 -0.78633 1.85524 0
M  V30 3340 O 315.507 -1.56183 1.98402 0
M  V30 3341 C 316.82 1.62801 2.52817 0
M  V30 3342 C 318.368 1.63897 2.66659 0
M  V30 3343 C 318.843 2.5978 3.77198 0
M  V30 3344 N 320.334 2.58133 3.84606 0
M  V30 3345 C 321.069 3.29003 4.69621 0
M  V30 3346 N 320.565 4.09339 5.58939 0
M  V30 3347 N 322.358 3.179 4.63569 0
M  V30 3348 H 314.509 1.88526 0.978344 0
M  V30 3349 H 316.772 0.810815 0.491206 0
M  V30 3350 H 316.478 2.65869 2.30232 0
M  V30 3351 H 316.352 1.38898 3.50695 0
M  V30 3352 H 318.739 0.615481 2.8861 0
M  V30 3353 H 318.82 1.91858 1.69187 0
M  V30 3354 H 318.464 3.62254 3.55997 0
M  V30 3355 H 318.394 2.29105 4.7415 0
M  V30 3356 H 320.885 1.99809 3.20757 0
M  V30 3357 H 321.198 4.6034 6.20731 0
M  V30 3358 H 319.543 4.13438 5.58654 0
M  V30 3359 H 322.734 2.54612 3.92798 0
M  V30 3360 H 322.907 3.73398 5.29602 0
M  V30 3361 N 316.313 -1.40141 0.720998 0
M  V30 3362 C 317.538 -2.05618 0.271258 0
M  V30 3363 C 317.963 -1.53978 -1.08039 0
M  V30 3364 O 317.321 -0.677463 -1.68167 0
M  V30 3365 C 317.369 -3.59609 0.267197 0
M  V30 3366 O 316.473 -4.05526 -0.749814 0
M  V30 3367 H 315.814 -0.651904 0.126162 0
M  V30 3368 H 318.344 -1.79439 0.982997 0
M  V30 3369 H 318.354 -4.0786 0.106744 0
M  V30 3370 H 317.029 -3.96559 1.25354 0
M  V30 3371 H 315.606 -3.68722 -0.556644 0
M  V30 3372 N 317.792 -0.46758 -1.50504 0
M  V30 3373 C 319.039 0.0886219 -2.02306 0
M  V30 3374 C 319.367 1.40037 -1.34981 0
M  V30 3375 O 318.622 1.90136 -0.463318 0
M  V30 3376 C 318.921 0.323995 -3.55928 0
M  V30 3377 C 318.587 -0.905618 -4.41712 0
M  V30 3378 C 317.249 -1.24275 -4.64875 0
M  V30 3379 C 319.601 -1.72448 -4.91845 0
M  V30 3380 C 316.929 -2.39888 -5.35417 0
M  V30 3381 C 319.281 -2.87185 -5.63656 0
M  V30 3382 C 317.945 -3.21317 -5.85074 0
M  V30 3383 H 317.215 0.0324291 -0.74029 0
M  V30 3384 H 319.862 -0.620945 -1.81153 0
M  V30 3385 H 318.167 1.11577 -3.75577 0
M  V30 3386 H 319.864 0.76826 -3.93572 0
M  V30 3387 H 316.454 -0.632956 -4.239 0
M  V30 3388 H 320.638 -1.4772 -4.73806 0
M  V30 3389 H 315.894 -2.66611 -5.50208 0
M  V30 3390 H 320.068 -3.50985 -6.01484 0
M  V30 3391 H 317.695 -4.1101 -6.39511 0
M  V30 3392 N 319.27 1.56325 -0.20005 0
M  V30 3393 C 320.2 2.22318 0.713916 0
M  V30 3394 C 321.181 1.18788 1.21752 0
M  V30 3395 O 322.366 1.47309 1.26545 0
M  V30 3396 C 319.496 2.88639 1.93144 0
M  V30 3397 C 318.45 3.98457 1.56255 0
M  V30 3398 C 317.776 4.51967 2.85709 0
M  V30 3399 C 319.076 5.16612 0.768747 0
M  V30 3400 H 320.77 2.98952 0.163755 0
M  V30 3401 H 318.316 1.43792 0.0773219 0
M  V30 3402 H 320.269 3.33491 2.57608 0
M  V30 3403 H 318.993 2.09419 2.50621 0
M  V30 3404 H 317.652 3.54305 0.941471 0
M  V30 3405 H 317.3 3.69503 3.41287 0
M  V30 3406 H 317 5.26071 2.6177 0
M  V30 3407 H 318.524 4.99523 3.51154 0
M  V30 3408 H 319.938 5.57977 1.3166 0
M  V30 3409 H 318.335 5.96812 0.627286 0
M  V30 3410 H 319.405 4.84358 -0.229168 0
M  V30 3411 N 320.748 -0.0735177 1.57428 0
M  V30 3412 C 321.695 -1.08756 2.0357 0
M  V30 3413 C 322.665 -1.38559 0.916 0
M  V30 3414 O 323.85 -1.49656 1.18354 0
M  V30 3415 C 320.99 -2.39657 2.48311 0
M  V30 3416 C 320.103 -2.16399 3.73892 0
M  V30 3417 C 319.238 -3.40852 4.07423 0
M  V30 3418 C 318.277 -3.1295 5.2605 0
M  V30 3419 N 317.414 -4.29729 5.55228 0
M  V30 3420 H 322.254 -0.687104 2.8997 0
M  V30 3421 H 319.791 -0.327709 1.43403 0
M  V30 3422 H 321.749 -3.16081 2.72303 0
M  V30 3423 H 320.379 -2.77508 1.64891 0
M  V30 3424 H 319.431 -1.30676 3.57251 0
M  V30 3425 H 320.743 -1.91788 4.60455 0
M  V30 3426 H 319.897 -4.25671 4.32306 0
M  V30 3427 H 318.636 -3.68537 3.19425 0
M  V30 3428 H 317.641 -2.26526 5.00965 0
M  V30 3429 H 318.866 -2.86589 6.15665 0
M  V30 3430 H 316.812 -4.57448 4.70188 0
M  V30 3431 H 316.729 -4.08385 6.36206 0
M  V30 3432 H 317.997 -5.1555 5.84661 0
M  V30 3433 N 322.226 -1.5378 -0.344866 0
M  V30 3434 C 323.451 -1.75211 -1.10977 0
M  V30 3435 C 323.876 -0.48936 -1.81623 0
M  V30 3436 O 323.234 0.557925 -1.72502 0
M  V30 3437 C 323.282 -2.93147 -2.09993 0
M  V30 3438 O 322.386 -2.63203 -3.17487 0
M  V30 3439 H 321.727 -0.581241 -0.321021 0
M  V30 3440 H 324.257 -2.00738 -0.395661 0
M  V30 3441 H 324.267 -3.19898 -2.53237 0
M  V30 3442 H 322.942 -3.84731 -1.5797 0
M  V30 3443 H 321.519 -2.47336 -2.79069 0
M  V30 3444 N 323.704 0.605807 -1.45491 0
M  V30 3445 C 324.944 1.37606 -1.51142 0
M  V30 3446 C 325.308 1.91413 -0.150075 0
M  V30 3447 O 326.509 2.68677 -0.0812828 0
M  V30 3448 C 324.78 2.49197 -2.56195 0
M  V30 3449 S 326.339 3.36953 -2.81083 0
M  V30 3450 H 323.157 0.469118 -0.534275 0
M  V30 3451 H 325.759 0.698845 -1.82583 0
M  V30 3452 H 324.463 2.0802 -3.53773 0
M  V30 3453 H 323.994 3.21717 -2.26411 0
M  V30 3454 H 326.009 4.47395 -2.14598 0
M  V30 3455 N 325.182 1.32811 0.848464 0
M  V30 3456 C 326.132 1.18842 1.94578 0
M  V30 3457 C 327.116 0.0937517 1.60627 0
M  V30 3458 O 328.308 0.320887 1.74067 0
M  V30 3459 C 325.437 0.91999 3.30743 0
M  V30 3460 C 324.523 2.05665 3.70894 0
M  V30 3461 N 324.914 3.30579 3.8282 0
M  V30 3462 C 323.212 1.9612 4.00566 0
M  V30 3463 C 323.913 4.05067 4.17487 0
M  V30 3464 N 322.889 3.33419 4.2934 0
M  V30 3465 H 326.691 2.13536 2.0194 0
M  V30 3466 H 324.205 1.2468 1.0406 0
M  V30 3467 H 326.202 0.800859 4.09136 0
M  V30 3468 H 324.862 -0.0185076 3.24695 0
M  V30 3469 H 325.873 3.65441 3.66978 0
M  V30 3470 H 322.55 1.09871 4.02784 0
M  V30 3471 H 323.94 5.12815 4.34131 0
M  V30 3472 N 326.66 -1.06551 1.16123 0
M  V30 3473 C 327.907 -1.79302 0.941126 0
M  V30 3474 C 328.235 -1.87105 -0.531235 0
M  V30 3475 O 327.49 -1.35692 -1.41018 0
M  V30 3476 C 327.789 -3.23911 1.51052 0
M  V30 3477 C 327.455 -3.36193 3.00475 0
M  V30 3478 C 326.117 -3.39252 3.41265 0
M  V30 3479 C 328.469 -3.38326 3.96465 0
M  V30 3480 C 325.797 -3.42057 4.76669 0
M  V30 3481 C 328.149 -3.4267 5.31752 0
M  V30 3482 C 326.813 -3.4401 5.72026 0
M  V30 3483 H 326.083 -0.656111 0.344382 0
M  V30 3484 H 328.73 -1.25325 1.44796 0
M  V30 3485 H 327.035 -3.80723 0.925063 0
M  V30 3486 H 328.732 -3.78793 1.31593 0
M  V30 3487 H 325.322 -3.34516 2.6795 0
M  V30 3488 H 329.506 -3.35176 3.6602 0
M  V30 3489 H 324.762 -3.41398 5.07206 0
M  V30 3490 H 328.936 -3.43268 6.05921 0
M  V30 3491 H 326.563 -3.45937 6.76928 0
M  V30 3492 N 328.138 -0.959301 -1.25041 0
M  V30 3493 C 329.386 -0.615393 -1.92503 0
M  V30 3494 C 329.707 0.850969 -1.75452 0
M  V30 3495 O 328.977 1.60658 -1.12098 0
M  V30 3496 H 327.557 -0.224613 -0.712431 0
M  V30 3497 H 330.219 -1.21855 -1.5211 0
M  V30 3498 H 329.315 -0.848738 -3.00338 0
M  V30 3499 N 329.616 1.39756 -0.72842 0
M  V30 3500 C 331.027 1.83498 -0.344289 0
M  V30 3501 C 331.378 1.60868 1.12321 0
M  V30 3502 O 330.503 1.09634 1.86573 0
M  V30 3503 C 331.098 3.33114 -0.618112 0
M  V30 3504 C 329.657 3.753 -0.287549 0
M  V30 3505 C 328.804 2.62831 -0.884048 0
M  V30 3506 H 331.755 1.28842 -0.926578 0
M  V30 3507 H 331.776 3.80334 0.112349 0
M  V30 3508 H 331.288 3.49553 -1.68625 0
M  V30 3509 H 329.389 3.64451 0.775012 0
M  V30 3510 H 329.502 4.72945 -0.765512 0
M  V30 3511 H 327.866 2.52792 -0.311149 0
M  V30 3512 H 328.649 2.82078 -1.95671 0
M  V30 3513 N 331.094 0.475555 1.50254 0
M  V30 3514 C 332.041 -0.316293 2.28622 0
M  V30 3515 C 333.011 -0.983227 1.33873 0
M  V30 3516 O 334.196 -0.994805 1.62814 0
M  V30 3517 C 331.336 -1.38975 3.1588 0
M  V30 3518 C 330.449 -0.737146 4.25664 0
M  V30 3519 C 329.584 -1.78887 5.00173 0
M  V30 3520 C 328.623 -1.11676 6.01826 0
M  V30 3521 N 327.76 -2.11154 6.69596 0
M  V30 3522 H 332.6 0.358297 2.95838 0
M  V30 3523 H 330.137 0.188541 1.45887 0
M  V30 3524 H 332.095 -2.02383 3.64825 0
M  V30 3525 H 330.725 -2.03344 2.50701 0
M  V30 3526 H 329.777 0.0096065 3.80399 0
M  V30 3527 H 331.089 -0.206816 4.98371 0
M  V30 3528 H 330.243 -2.49865 5.52859 0
M  V30 3529 H 328.982 -2.35302 4.27182 0
M  V30 3530 H 327.987 -0.392633 5.48396 0
M  V30 3531 H 329.212 -0.55945 6.76792 0
M  V30 3532 H 327.158 -2.66577 5.99394 0
M  V30 3533 H 327.075 -1.63118 7.38193 0
M  V30 3534 H 328.343 -2.81497 7.26897 0
M  V30 3535 N 332.573 -1.56217 0.208337 0
M  V30 3536 C 333.521 -2.21053 -0.723769 0
M  V30 3537 C 334.515 -1.18578 -1.20978 0
M  V30 3538 O 335.721 -1.36691 -1.17114 0
M  V30 3539 H 332.096 -0.708595 -0.251788 0
M  V30 3540 H 334.067 -2.98006 -0.153365 0
M  V30 3541 C 332.816 -2.89417 -1.927 0
M  V30 3542 H 332.139 -3.68019 -1.56212 0
M  V30 3543 H 333.579 -3.38201 -2.55727 0
M  V30 3544 C 332.038 -1.91166 -2.77411 0
M  V30 3545 O 332.568 -1.42026 -3.75754 0
M  V30 3546 N 330.774 -1.59105 -2.43175 0
M  V30 3547 H 330.321 -1.99259 -1.63259 0
M  V30 3548 H 330.279 -0.936255 -3.00136 0
M  V30 3549 N 334.051 0.0651679 -1.57465 0
M  V30 3550 C 335.001 1.0838 -2.00594 0
M  V30 3551 C 335.985 1.34106 -0.889071 0
M  V30 3552 O 337.177 1.34295 -1.15299 0
M  V30 3553 C 334.306 2.39565 -2.45894 0
M  V30 3554 C 333.392 2.17085 -3.64328 0
M  V30 3555 N 333.783 1.64553 -4.78285 0
M  V30 3556 C 332.081 2.4753 -3.71006 0
M  V30 3557 C 332.782 1.57042 -5.60101 0
M  V30 3558 N 331.758 2.03328 -5.04141 0
M  V30 3559 H 335.56 0.671062 -2.86136 0
M  V30 3560 H 333.074 0.27213 -1.60104 0
M  V30 3561 H 335.071 3.13308 -2.75034 0
M  V30 3562 H 333.731 2.81549 -1.61741 0
M  V30 3563 H 334.742 1.33323 -5.00445 0
M  V30 3564 H 331.419 2.92835 -2.9758 0
M  V30 3565 H 332.809 1.17223 -6.61595 0
M  V30 3566 N 335.529 1.53961 0.336706 0
M  V30 3567 C 336.759 1.75229 1.09446 0
M  V30 3568 C 337.167 0.494602 1.82621 0
M  V30 3569 O 336.51 -0.543764 1.75468 0
M  V30 3570 C 336.572 2.88288 2.1478 0
M  V30 3571 C 336.236 4.27656 1.6112 0
M  V30 3572 C 337.233 5.08981 1.0599 0
M  V30 3573 C 334.918 4.74161 1.6576 0
M  V30 3574 C 336.912 6.34916 0.562129 0
M  V30 3575 C 334.599 6.00067 1.15595 0
M  V30 3576 C 335.597 6.80278 0.609147 0
M  V30 3577 O 335.285 8.03818 0.114999 0
M  V30 3578 H 335.017 0.588881 0.331956 0
M  V30 3579 H 337.571 2.01614 0.392566 0
M  V30 3580 H 335.801 2.57443 2.88548 0
M  V30 3581 H 337.49 2.97461 2.76174 0
M  V30 3582 H 338.256 4.74213 1.01722 0
M  V30 3583 H 334.135 4.11781 2.07261 0
M  V30 3584 H 337.679 6.9747 0.134668 0
M  V30 3585 H 333.576 6.3433 1.19566 0
M  V30 3586 H 334.344 8.18172 0.231651 0
M  V30 3587 N 337.007 -0.598083 1.45811 0
M  V30 3588 C 338.247 -1.36802 1.5187 0
M  V30 3589 C 338.611 -1.9133 0.160224 0
M  V30 3590 O 339.812 -2.6863 0.0955302 0
M  V30 3591 C 338.083 -2.47835 2.57513 0
M  V30 3592 S 339.642 -3.35458 2.82866 0
M  V30 3593 H 336.46 -0.466278 0.536755 0
M  V30 3594 H 339.062 -0.689152 1.82951 0
M  V30 3595 H 337.766 -2.06141 3.54872 0
M  V30 3596 H 337.297 -3.20512 2.28114 0
M  V30 3597 H 339.312 -4.46251 2.16967 0
M  V30 3598 N 338.485 -1.33259 -0.841409 0
M  V30 3599 C 339.896 -1.22066 -1.41269 0
M  V30 3600 C 340.247 0.161479 -1.95534 0
M  V30 3601 O 339.372 1.06094 -1.88608 0
M  V30 3602 C 339.967 -2.20996 -2.568 0
M  V30 3603 C 338.526 -2.13649 -3.09888 0
M  V30 3604 C 337.673 -2.08623 -1.82679 0
M  V30 3605 H 340.624 -1.44895 -0.647395 0
M  V30 3606 H 340.645 -1.81621 -3.34356 0
M  V30 3607 H 340.157 -3.2158 -2.17274 0
M  V30 3608 H 338.258 -1.16359 -3.53965 0
M  V30 3609 H 338.371 -3.04079 -3.70234 0
M  V30 3610 H 336.735 -1.54061 -2.02824 0
M  V30 3611 H 337.518 -3.1101 -1.45353 0
M  V30 3612 N 339.963 1.05934 -1.16686 0
M  V30 3613 C 341.212 1.78188 -0.945085 0
M  V30 3614 C 341.525 1.88338 0.528021 0
M  V30 3615 O 342.731 2.57258 0.867799 0
M  V30 3616 C 341.187 3.20277 -1.64167 0
M  V30 3617 C 340.795 3.18281 -3.15279 0
M  V30 3618 C 342.539 3.97039 -1.502 0
M  V30 3619 C 340.446 4.55112 -3.7766 0
M  V30 3620 H 339.376 0.667866 -0.349959 0
M  V30 3621 H 342.027 1.18794 -1.39858 0
M  V30 3622 H 340.409 3.79952 -1.11589 0
M  V30 3623 H 341.583 2.68167 -3.74731 0
M  V30 3624 H 339.898 2.55018 -3.29173 0
M  V30 3625 H 342.495 4.98194 -1.94183 0
M  V30 3626 H 342.838 4.13845 -0.451461 0
M  V30 3627 H 343.371 3.43894 -1.99954 0
M  V30 3628 H 340.11 4.43512 -4.82677 0
M  V30 3629 H 339.63 5.05406 -3.22994 0
M  V30 3630 H 341.309 5.24064 -3.79428 0
M  V30 3631 N 341.441 0.965919 1.2453 0
M  V30 3632 C 342.688 0.626831 1.92554 0
M  V30 3633 C 343.016 -0.837739 1.75534 0
M  V30 3634 O 342.271 -1.61793 1.10098 0
M  V30 3635 C 342.57 0.945428 3.44669 0
M  V30 3636 C 342.236 2.39785 3.81856 0
M  V30 3637 C 340.898 2.79483 3.91718 0
M  V30 3638 C 343.25 3.34055 4.00071 0
M  V30 3639 C 340.578 4.12496 4.1721 0
M  V30 3640 C 342.93 4.66694 4.27059 0
M  V30 3641 C 341.594 5.06172 4.3514 0
M  V30 3642 H 340.864 0.229374 0.704605 0
M  V30 3643 H 343.511 1.21707 1.4785 0
M  V30 3644 H 341.816 0.272926 3.90848 0
M  V30 3645 H 343.513 0.661484 3.95507 0
M  V30 3646 H 340.103 2.08003 3.74743 0
M  V30 3647 H 344.287 3.04571 3.91855 0
M  V30 3648 H 339.543 4.42709 4.21685 0
M  V30 3649 H 343.717 5.3971 4.40097 0
M  V30 3650 H 341.344 6.09262 4.54646 0
M  V30 3651 N 342.919 -1.39368 0.735821 0
M  V30 3652 C 344.335 -1.54204 0.411492 0
M  V30 3653 C 344.535 -1.70268 -1.07755 0
M  V30 3654 O 343.591 -1.70364 -1.86366 0
M  V30 3655 C 344.904 -2.75925 1.19523 0
M  V30 3656 C 346.452 -2.89761 1.18354 0
M  V30 3657 C 346.927 -4.14421 1.94986 0
M  V30 3658 N 348.418 -4.21462 1.92156 0
M  V30 3659 C 349.153 -5.16871 2.48258 0
M  V30 3660 N 348.649 -6.18063 3.13001 0
M  V30 3661 N 350.442 -5.09093 2.38287 0
M  V30 3662 H 342.593 -1.27189 1.70108 0
M  V30 3663 H 344.856 -0.616517 0.720147 0
M  V30 3664 H 344.562 -2.70401 2.24892 0
M  V30 3665 H 344.436 -3.68614 0.800222 0
M  V30 3666 H 346.823 -2.94777 0.137975 0
M  V30 3667 H 346.904 -1.98133 1.61793 0
M  V30 3668 H 346.548 -4.10166 2.99543 0
M  V30 3669 H 346.478 -5.05095 1.48953 0
M  V30 3670 H 348.969 -3.48979 1.44991 0
M  V30 3671 H 349.282 -6.87326 3.53275 0
M  V30 3672 H 347.627 -6.18448 3.17091 0
M  V30 3673 H 350.818 -4.28973 1.8735 0
M  V30 3674 H 350.991 -5.83272 2.82308 0
M  V30 3675 N 344.397 -0.483516 -1.5 0
M  V30 3676 C 345.327 0.293829 -2.31644 0
M  V30 3677 C 346.308 0.978864 -1.39112 0
M  V30 3678 O 347.493 0.973644 -1.68029 0
M  V30 3679 C 344.623 1.36897 -3.19181 0
M  V30 3680 C 343.577 0.804833 -4.20365 0
M  V30 3681 C 342.903 1.9792 -4.96721 0
M  V30 3682 C 344.203 -0.192313 -5.21946 0
M  V30 3683 H 345.897 -0.387616 -2.9688 0
M  V30 3684 H 343.443 -0.187856 -1.42769 0
M  V30 3685 H 345.396 1.92037 -3.751 0
M  V30 3686 H 344.12 2.07936 -2.51853 0
M  V30 3687 H 342.779 0.275319 -3.65565 0
M  V30 3688 H 342.427 2.67686 -4.25856 0
M  V30 3689 H 342.127 1.60789 -5.65173 0
M  V30 3690 H 343.651 2.53526 -5.55479 0
M  V30 3691 H 345.065 0.270333 -5.72662 0
M  V30 3692 H 343.462 -0.478543 -5.98189 0
M  V30 3693 H 344.532 -1.11409 -4.71928 0
M  V30 3694 N 345.875 1.56104 -0.216619 0
M  V30 3695 C 347.123 1.97781 0.415593 0
M  V30 3696 C 347.444 1.10536 1.60645 0
M  V30 3697 O 346.714 0.181303 1.95059 0
M  V30 3698 H 345.294 0.730415 0.156534 0
M  V30 3699 H 347.956 1.92445 -0.308366 0
M  V30 3700 H 347.052 3.03072 0.74525 0
M  V30 3701 N 347.353 -0.0568162 1.57498 0
M  V30 3702 C 348.578 -0.769402 1.92601 0
M  V30 3703 C 349.003 -1.69559 0.814336 0
M  V30 3704 O 348.361 -1.79811 -0.231903 0
M  V30 3705 C 348.409 -1.52634 3.26704 0
M  V30 3706 O 347.513 -2.63797 3.16994 0
M  V30 3707 H 346.854 -0.208909 0.63028 0
M  V30 3708 H 349.384 -0.0205798 2.0459 0
M  V30 3709 H 349.394 -1.90234 3.60936 0
M  V30 3710 H 348.069 -0.846875 4.07186 0
M  V30 3711 H 346.646 -2.28943 2.94346 0
M  V30 3712 N 348.832 -1.54138 -0.328536 0
M  V30 3713 C 350.078 -1.7236 -1.06865 0
M  V30 3714 C 350.411 -0.493231 -1.87832 0
M  V30 3715 O 349.686 0.5098 -1.877 0
M  V30 3716 C 349.969 -2.99621 -1.99747 0
M  V30 3717 C 349.822 -4.32899 -1.22143 0
M  V30 3718 C 351.141 -3.22615 -2.99345 0
M  V30 3719 H 348.26 -0.627151 -0.387105 0
M  V30 3720 H 350.902 -1.86827 -0.345767 0
M  V30 3721 H 349.052 -2.87418 -2.61387 0
M  V30 3722 H 350.724 -4.56978 -0.630017 0
M  V30 3723 H 348.967 -4.30628 -0.523628 0
M  V30 3724 H 349.638 -5.18154 -1.90318 0
M  V30 3725 H 352.114 -3.34248 -2.47826 0
M  V30 3726 H 350.99 -4.13027 -3.61524 0
M  V30 3727 H 351.251 -2.3961 -3.71536 0
M  V30 3728 N 350.31 0.590341 -1.46126 0
M  V30 3729 C 351.559 1.34499 -1.50309 0
M  V30 3730 C 351.872 1.94977 -0.156021 0
M  V30 3731 O 353.078 2.71395 -0.0756037 0
M  V30 3732 C 351.534 2.43723 -2.64815 0
M  V30 3733 C 351.142 1.89582 -4.0591 0
M  V30 3734 C 352.886 3.20579 -2.78262 0
M  V30 3735 C 350.793 2.9639 -5.11769 0
M  V30 3736 H 349.723 0.505593 -0.559368 0
M  V30 3737 H 352.374 0.630848 -1.72315 0
M  V30 3738 H 350.756 3.17902 -2.36124 0
M  V30 3739 H 351.93 1.21997 -4.44357 0
M  V30 3740 H 350.245 1.25418 -3.97063 0
M  V30 3741 H 352.842 4.00276 -3.54519 0
M  V30 3742 H 353.185 3.72684 -1.85505 0
M  V30 3743 H 353.718 2.53505 -3.06562 0
M  V30 3744 H 350.457 2.49181 -6.06291 0
M  V30 3745 H 349.977 3.62487 -4.77873 0
M  V30 3746 H 351.656 3.60474 -5.37278 0
M  V30 3747 N 351.788 1.33704 0.83433 0
M  V30 3748 C 353.204 1.13137 1.12571 0
M  V30 3749 C 353.404 -0.0747261 2.01361 0
M  V30 3750 O 352.46 -0.753647 2.4099 0
M  V30 3751 C 353.773 2.42105 1.78342 0
M  V30 3752 C 355.321 2.48054 1.90888 0
M  V30 3753 C 355.796 3.76995 2.60075 0
M  V30 3754 N 357.287 3.78092 2.67584 0
M  V30 3755 C 358.022 4.74574 3.21818 0
M  V30 3756 N 357.518 5.81434 3.76705 0
M  V30 3757 N 359.311 4.62044 3.20112 0
M  V30 3758 H 351.462 2.11 0.243489 0
M  V30 3759 H 353.725 0.932532 0.17055 0
M  V30 3760 H 353.431 3.30391 1.20561 0
M  V30 3761 H 353.305 2.54594 2.7832 0
M  V30 3762 H 355.692 1.60215 2.47821 0
M  V30 3763 H 355.773 2.39502 0.898459 0
M  V30 3764 H 355.417 4.65219 2.03799 0
M  V30 3765 H 355.347 3.82825 3.61597 0
M  V30 3766 H 357.838 3.00865 2.28667 0
M  V30 3767 H 358.151 6.51084 4.16305 0
M  V30 3768 H 356.496 5.85163 3.7498 0
M  V30 3769 H 359.687 3.77716 2.76493 0
M  V30 3770 H 359.86 5.37406 3.62076 0
M  V30 3771 N 353.266 -1.05314 1.17247 0
M  V30 3772 C 354.512 -1.78699 0.971513 0
M  V30 3773 C 354.867 -1.85932 -0.494692 0
M  V30 3774 O 354.16 -1.34716 -1.36243 0
M  V30 3775 C 354.354 -3.2229 1.54479 0
M  V30 3776 C 354.183 -3.29052 3.06521 0
M  V30 3777 C 352.953 -3.3841 3.75242 0
M  V30 3778 C 355.151 -3.18095 4.04129 0
M  V30 3779 N 353.133 -3.34289 5.14902 0
M  V30 3780 C 354.504 -3.21331 5.30232 0
M  V30 3781 C 356.559 -3.02049 3.95817 0
M  V30 3782 C 355.262 -3.10169 6.4899 0
M  V30 3783 C 357.288 -2.92228 5.14156 0
M  V30 3784 C 356.65 -2.96096 6.39145 0
M  V30 3785 H 352.749 -0.66628 0.409383 0
M  V30 3786 H 355.333 -1.25553 1.4881 0
M  V30 3787 H 353.504 -3.7381 1.05455 0
M  V30 3788 H 355.236 -3.83905 1.28059 0
M  V30 3789 H 351.991 -3.43621 3.25917 0
M  V30 3790 H 352.415 -3.35702 5.87906 0
M  V30 3791 H 357.057 -2.97897 3.00029 0
M  V30 3792 H 354.775 -3.13076 7.44989 0
M  V30 3793 H 358.361 -2.80885 5.09505 0
M  V30 3794 H 357.241 -2.88568 7.29176 0
M  V30 3795 N 354.744 -0.972509 -1.24016 0
M  V30 3796 C 355.707 -0.511403 -2.23422 0
M  V30 3797 C 356.707 0.394679 -1.55881 0
M  V30 3798 O 357.897 0.189469 -1.73167 0
M  V30 3799 C 355.029 0.258769 -3.39916 0
M  V30 3800 H 356.222 -1.39024 -2.6573 0
M  V30 3801 H 353.775 -0.757585 -1.36713 0
M  V30 3802 H 354.51 1.1545 -3.03054 0
M  V30 3803 H 354.295 -0.391522 -3.9014 0
M  V30 3804 H 355.785 0.570244 -4.13688 0
M  V30 3805 N 356.222 1.38976 -0.743202 0
M  V30 3806 C 357.47 1.99948 -0.29417 0
M  V30 3807 C 357.791 1.59279 1.12495 0
M  V30 3808 O 357.061 0.844808 1.76748 0
M  V30 3809 H 355.641 0.739473 -0.105774 0
M  V30 3810 H 358.303 1.699 -0.954986 0
M  V30 3811 H 357.399 3.10142 -0.349056 0
M  V30 3812 N 357.7 0.491464 1.49741 0
M  V30 3813 C 358.925 -0.0557177 2.07325 0
M  V30 3814 C 359.35 -1.30925 1.35056 0
M  V30 3815 O 358.708 -1.76733 0.404365 0
M  V30 3816 C 358.756 -0.302074 3.59333 0
M  V30 3817 O 357.86 -1.37868 3.88672 0
M  V30 3818 H 357.201 0.0219956 0.663636 0
M  V30 3819 H 359.731 0.688352 1.92673 0
M  V30 3820 H 359.741 -0.536464 4.04458 0
M  V30 3821 H 358.416 0.61383 4.11345 0
M  V30 3822 H 356.993 -1.12999 3.55367 0
M  V30 3823 N 359.178 -1.55987 0.224894 0
M  V30 3824 C 360.455 -1.90232 -0.455083 0
M  V30 3825 C 360.835 -1.14269 -1.77499 0
M  V30 3826 O 360.183 -0.253079 -2.27094 0
M  V30 3827 C 360.393 -3.42993 -0.644758 0
M  V30 3828 C 361.741 -4.13821 -0.950669 0
M  V30 3829 O 362.765 -3.4861 -0.731423 0
M  V30 3830 O 361.624 -5.29128 -1.36695 0
M  V30 3831 H 358.718 -0.79108 -0.241084 0
M  V30 3832 H 361.264 -1.67581 0.267327 0
M  V30 3833 H 360.036 -3.90252 0.28613 0
M  V30 3834 H 359.659 -3.71434 -1.41853 0
M  V30 3835 N 360.656 0.0484629 -1.57525 0
M  V30 3836 C 361.903 0.743125 -1.88372 0
M  V30 3837 C 362.231 1.76383 -0.819715 0
M  V30 3838 O 361.486 1.94855 0.181659 0
M  V30 3839 C 361.785 1.46632 -3.25935 0
M  V30 3840 C 361.451 0.583427 -4.4711 0
M  V30 3841 C 360.113 0.340191 -4.79996 0
M  V30 3842 C 362.465 -0.0273345 -5.21193 0
M  V30 3843 C 359.793 -0.522903 -5.84365 0
M  V30 3844 C 362.145 -0.878017 -6.26477 0
M  V30 3845 C 360.809 -1.1309 -6.5785 0
M  V30 3846 H 360.079 0.271929 -0.689301 0
M  V30 3847 H 362.726 0.00336166 -1.915 0
M  V30 3848 H 361.031 2.2789 -3.18706 0
M  V30 3849 H 362.728 2.00902 -3.47044 0
M  V30 3850 H 359.318 0.783151 -4.21384 0
M  V30 3851 H 363.502 0.147654 -4.9608 0
M  V30 3852 H 358.758 -0.727335 -6.07058 0
M  V30 3853 H 362.932 -1.35789 -6.83033 0
M  V30 3854 H 360.559 -1.80144 -7.38547 0
M  V30 3855 N 362.134 1.5431 0.320358 0
M  V30 3856 C 363.066 1.80262 1.41556 0
M  V30 3857 C 364.079 0.684723 1.477 0
M  V30 3858 O 365.268 0.961886 1.50366 0
M  V30 3859 C 362.368 1.90825 2.8007 0
M  V30 3860 C 361.541 3.21023 2.97091 0
M  V30 3861 C 360.6 3.22247 4.15985 0
M  V30 3862 O 359.626 3.95871 4.08992 0
M  V30 3863 N 360.828 2.46258 5.25678 0
M  V30 3864 H 363.593 2.74778 1.19655 0
M  V30 3865 H 361.154 1.53646 0.510358 0
M  V30 3866 H 363.146 1.89067 3.57821 0
M  V30 3867 H 361.716 1.03392 2.95006 0
M  V30 3868 H 360.936 3.35715 2.06614 0
M  V30 3869 H 362.224 4.0698 3.05361 0
M  V30 3870 H 361.622 1.86037 5.34235 0
M  V30 3871 H 360.179 2.50275 6.01835 0
M  V30 3872 N 363.613 -0.582584 1.46437 0
M  V30 3873 C 364.89 -1.34276 1.4223 0
M  V30 3874 C 365.27 -2.10835 0.10583 0
M  V30 3875 O 364.618 -2.09485 -0.912596 0
M  V30 3876 C 364.828 -2.26865 2.65204 0
M  V30 3877 C 366.176 -2.88691 3.11356 0
M  V30 3878 O 367.2 -2.37178 2.65753 0
M  V30 3879 O 366.059 -3.82255 3.90568 0
M  V30 3880 H 363.153 -0.603326 0.565621 0
M  V30 3881 H 365.699 -0.603591 1.58603 0
M  V30 3882 H 364.471 -1.69724 3.52576 0
M  V30 3883 H 364.094 -3.08122 2.5129 0
M  V30 3884 N 365.091 -1.34144 -0.827227 0
M  V30 3885 C 366.34 -1.25602 -1.5782 0
M  V30 3886 C 366.653 0.173445 -1.94829 0
M  V30 3887 O 367.859 0.380984 -2.68814 0
M  V30 3888 C 366.315 -2.20151 -2.84713 0
M  V30 3889 C 365.923 -3.68331 -2.55021 0
M  V30 3890 C 367.667 -2.20508 -3.62735 0
M  V30 3891 C 365.574 -4.54762 -3.78082 0
M  V30 3892 H 364.504 -0.466573 -0.592306 0
M  V30 3893 H 367.155 -1.59283 -0.911116 0
M  V30 3894 H 365.537 -1.79417 -3.53023 0
M  V30 3895 H 366.711 -4.17577 -1.94849 0
M  V30 3896 H 365.026 -3.7038 -1.90283 0
M  V30 3897 H 367.623 -2.82306 -4.54101 0
M  V30 3898 H 367.966 -1.20322 -3.98533 0
M  V30 3899 H 368.499 -2.59664 -3.01362 0
M  V30 3900 H 365.238 -5.55867 -3.47407 0
M  V30 3901 H 364.758 -4.10254 -4.37552 0
M  V30 3902 H 366.437 -4.69153 -4.45538 0
M  V30 3903 N 366.569 1.04691 -1.17803 0
M  V30 3904 C 367.532 2.10724 -0.901545 0
M  V30 3905 C 368.532 1.6042 0.110437 0
M  V30 3906 O 369.722 1.7377 -0.122303 0
M  V30 3907 C 366.854 3.39084 -0.351409 0
M  V30 3908 H 368.047 2.36686 -1.84174 0
M  V30 3909 H 365.6 1.21015 -0.98919 0
M  V30 3910 H 366.335 3.18782 0.59569 0
M  V30 3911 H 366.12 3.76909 -1.08083 0
M  V30 3912 H 367.61 4.17227 -0.176451 0
M  V30 3913 N 368.047 0.979072 1.23499 0
M  V30 3914 C 368.977 0.537606 2.27227 0
M  V30 3915 C 369.958 -0.428539 1.64613 0
M  V30 3916 O 371.143 -0.322191 1.91509 0
M  V30 3917 C 368.273 -0.162052 3.46922 0
M  V30 3918 C 367.227 0.721242 4.21879 0
M  V30 3919 C 366.553 -0.110555 5.34586 0
M  V30 3920 C 367.853 2.01141 4.82016 0
M  V30 3921 H 369.547 1.40462 2.64406 0
M  V30 3922 H 367.093 0.67684 1.27102 0
M  V30 3923 H 369.046 -0.482192 4.18632 0
M  V30 3924 H 367.77 -1.06351 3.08799 0
M  V30 3925 H 366.429 1.02482 3.51984 0
M  V30 3926 H 366.077 -1.0125 4.92704 0
M  V30 3927 H 365.777 0.477325 5.85658 0
M  V30 3928 H 367.301 -0.425107 6.09118 0
M  V30 3929 H 368.715 1.75612 5.45741 0
M  V30 3930 H 367.112 2.54695 5.43369 0
M  V30 3931 H 368.182 2.69909 4.02836 0
M  V30 3932 N 369.525 -1.3858 0.750561 0
M  V30 3933 C 370.435 -2.34278 0.122825 0
M  V30 3934 C 371.451 -1.59116 -0.704131 0
M  V30 3935 O 372.627 -1.91326 -0.628987 0
M  V30 3936 C 369.692 -3.38221 -0.762086 0
M  V30 3937 C 368.753 -4.29227 0.078896 0
M  V30 3938 C 367.986 -5.28205 -0.763874 0
M  V30 3939 O 368.209 -5.34112 -2.00201 0
M  V30 3940 O 367.143 -6.01618 -0.18428 0
M  V30 3941 H 370.969 -2.89649 0.913088 0
M  V30 3942 H 368.554 -1.40374 0.511417 0
M  V30 3943 H 370.436 -4.01872 -1.26793 0
M  V30 3944 H 369.111 -2.85211 -1.5309 0
M  V30 3945 H 368.018 -3.68747 0.630621 0
M  V30 3946 H 369.351 -4.85484 0.810289 0
M  V30 3947 N 371.003 -0.499398 -1.49478 0
M  V30 3948 C 372.251 0.0455996 -2.02049 0
M  V30 3949 C 372.572 1.37633 -1.38138 0
M  V30 3950 O 371.842 1.8842 -0.536166 0
M  V30 3951 H 370.422 0.0198416 -0.746736 0
M  V30 3952 H 373.084 -0.656274 -1.83519 0
M  V30 3953 H 372.18 0.176445 -3.11601 0
M  V30 3954 N 372.481 1.55866 -0.233164 0
M  V30 3955 C 373.729 1.9821 0.394593 0
M  V30 3956 C 374.05 1.12234 1.59463 0
M  V30 3957 O 373.32 0.201981 1.94856 0
M  V30 3958 H 371.9 0.732034 0.148778 0
M  V30 3959 H 374.562 1.92107 -0.32876 0
M  V30 3960 H 373.658 3.03845 0.713063 0
M  V30 3961 N 373.959 -0.0401083 1.57549 0
M  V30 3962 C 375.205 -0.734211 1.89043 0
M  V30 3963 C 375.538 -1.75591 0.829535 0
M  V30 3964 O 374.813 -1.93868 -0.156706 0
M  V30 3965 C 375.096 -1.41374 3.31188 0
M  V30 3966 C 374.949 -0.406299 4.47961 0
M  V30 3967 C 376.268 -2.35061 3.72068 0
M  V30 3968 H 373.387 -0.265447 0.687537 0
M  V30 3969 H 376.029 0.00294087 1.9 0
M  V30 3970 H 374.179 -2.04206 3.30503 0
M  V30 3971 H 375.851 0.219255 4.60779 0
M  V30 3972 H 374.094 0.275485 4.32924 0
M  V30 3973 H 374.765 -0.920022 5.44279 0
M  V30 3974 H 377.241 -1.82282 3.74049 0
M  V30 3975 H 376.117 -2.79593 4.72355 0
M  V30 3976 H 376.378 -3.21258 3.0372 0
M  V30 3977 N 375.437 -1.54477 -0.31217 0
M  V30 3978 C 376.686 -1.72438 -1.04633 0
M  V30 3979 C 376.999 -0.511163 -1.88803 0
M  V30 3980 O 378.205 -0.572341 -2.65399 0
M  V30 3981 C 376.661 -3.05043 -1.9099 0
M  V30 3982 C 376.269 -4.33806 -1.11877 0
M  V30 3983 C 378.013 -3.32364 -2.64073 0
M  V30 3984 C 375.92 -5.57467 -1.97445 0
M  V30 3985 H 374.85 -0.642647 -0.394361 0
M  V30 3986 H 377.501 -1.80966 -0.303929 0
M  V30 3987 H 375.883 -2.90451 -2.69173 0
M  V30 3988 H 377.057 -4.59199 -0.383843 0
M  V30 3989 H 375.372 -4.13336 -0.504252 0
M  V30 3990 H 377.969 -4.21951 -3.28423 0
M  V30 3991 H 378.312 -2.50745 -3.32314 0
M  V30 3992 H 378.845 -3.47875 -1.92944 0
M  V30 3993 H 375.584 -6.41722 -1.33692 0
M  V30 3994 H 375.104 -5.36277 -2.6864 0
M  V30 3995 H 376.783 -5.94303 -2.5576 0
M  V30 3996 N 376.915 0.57481 -1.46744 0
M  V30 3997 C 378.163 1.33009 -1.52161 0
M  V30 3998 C 378.484 1.94185 -0.178092 0
M  V30 3999 O 377.754 1.7899 0.796196 0
M  V30 4000 H 376.334 0.493873 -0.560445 0
M  V30 4001 H 378.996 0.672589 -1.82927 0
M  V30 4002 H 378.092 2.13273 -2.27862 0
M  V30 4003 N 378.394 1.34581 0.820102 0
M  V30 4004 C 379.643 1.26437 1.57151 0
M  V30 4005 C 379.956 -0.163111 1.94919 0
M  V30 4006 O 381.162 -0.366722 2.69012 0
M  V30 4007 C 379.618 2.21658 2.83541 0
M  V30 4008 C 379.226 3.69679 2.53065 0
M  V30 4009 C 380.97 2.22428 3.61561 0
M  V30 4010 C 378.877 4.56761 3.75664 0
M  V30 4011 H 377.807 0.469707 0.589823 0
M  V30 4012 H 380.458 1.59763 0.902656 0
M  V30 4013 H 378.84 1.81287 3.52067 0
M  V30 4014 H 380.014 4.18605 1.92631 0
M  V30 4015 H 378.329 3.71384 1.88316 0
M  V30 4016 H 380.926 2.8471 4.52597 0
M  V30 4017 H 381.269 1.22434 3.97889 0
M  V30 4018 H 381.802 2.61259 2.99981 0
M  V30 4019 H 378.541 5.57702 3.44454 0
M  V30 4020 H 378.061 4.12568 4.35371 0
M  V30 4021 H 379.74 4.71509 4.43044 0
M  V30 4022 N 379.872 -1.04064 1.18357 0
M  V30 4023 C 380.82 -2.14187 0.907007 0
M  V30 4024 C 381.814 -1.68879 -0.132725 0
M  V30 4025 O 383.02 -1.79993 0.0154248 0
M  V30 4026 H 379.395 -0.699585 0.275835 0
M  V30 4027 H 381.366 -2.34711 1.84264 0
M  V30 4028 C 380.115 -3.44785 0.449254 0
M  V30 4029 H 379.438 -3.80058 1.24081 0
M  V30 4030 H 380.878 -4.22974 0.294737 0
M  V30 4031 C 379.337 -3.26391 -0.834909 0
M  V30 4032 O 379.867 -3.53973 -1.89911 0
M  V30 4033 N 378.073 -2.79726 -0.787523 0
M  V30 4034 H 377.62 -2.5748 0.0787347 0
M  V30 4035 H 377.578 -2.67798 -1.64716 0
M  V30 4036 N 381.35 -0.985608 -1.22978 0
M  V30 4037 C 382.599 -0.652881 -1.90841 0
M  V30 4038 C 382.912 0.817842 -1.77681 0
M  V30 4039 O 384.118 1.26185 -2.40395 0
M  V30 4040 C 382.574 -1.11717 -3.42122 0
M  V30 4041 C 382.182 -2.6126 -3.63933 0
M  V30 4042 C 383.926 -0.85843 -4.1573 0
M  V30 4043 C 381.833 -3.0133 -5.08876 0
M  V30 4044 H 380.763 -0.240491 -0.714619 0
M  V30 4045 H 383.414 -1.1942 -1.39324 0
M  V30 4046 H 381.796 -0.504027 -3.92779 0
M  V30 4047 H 382.97 -3.27858 -3.23799 0
M  V30 4048 H 381.285 -2.84937 -3.03644 0
M  V30 4049 H 383.882 -1.13359 -5.22546 0
M  V30 4050 H 384.225 0.205461 -4.15793 0
M  V30 4051 H 384.758 -1.43341 -3.71077 0
M  V30 4052 H 381.497 -4.06864 -5.13947 0
M  V30 4053 H 381.017 -2.3943 -5.49939 0
M  V30 4054 H 382.696 -2.92224 -5.77247 0
M  V30 4055 N 382.828 1.3818 -0.7579 0
M  V30 4056 C 383.738 2.3421 -0.135247 0
M  V30 4057 C 384.754 1.59487 0.695683 0
M  V30 4058 O 385.93 1.91657 0.618832 0
M  V30 4059 C 382.995 3.3862 0.744139 0
M  V30 4060 C 382.056 4.2918 -0.101658 0
M  V30 4061 C 381.289 5.28603 0.735851 0
M  V30 4062 O 381.512 5.35166 1.97366 0
M  V30 4063 O 380.446 6.01707 0.152372 0
M  V30 4064 H 384.272 2.8916 -0.928436 0
M  V30 4065 H 381.857 1.40101 -0.518855 0
M  V30 4066 H 383.739 4.02539 1.2466 0
M  V30 4067 H 382.414 2.86019 1.51575 0
M  V30 4068 H 381.321 3.68407 -0.650167 0
M  V30 4069 H 382.654 4.85048 -0.836024 0
M  V30 4070 N 384.306 0.507319 1.49211 0
M  V30 4071 C 385.552 -0.0269732 2.03382 0
M  V30 4072 C 385.907 -1.34111 1.37957 0
M  V30 4073 O 385.2 -1.84733 0.508351 0
M  V30 4074 C 385.394 -0.229513 3.56662 0
M  V30 4075 C 385.223 1.06344 4.36945 0
M  V30 4076 C 383.993 1.617 4.78729 0
M  V30 4077 C 386.191 1.96833 4.75143 0
M  V30 4078 N 384.173 2.8552 5.43463 0
M  V30 4079 C 385.544 3.0523 5.39661 0
M  V30 4080 C 387.599 1.97434 4.57082 0
M  V30 4081 C 386.302 4.14265 5.88028 0
M  V30 4082 C 388.328 3.05448 5.06414 0
M  V30 4083 C 387.69 4.12564 5.70938 0
M  V30 4084 H 383.789 0.0310673 0.781383 0
M  V30 4085 H 386.373 0.683579 1.82305 0
M  V30 4086 H 384.544 -0.909127 3.7761 0
M  V30 4087 H 386.276 -0.761377 3.97473 0
M  V30 4088 H 383.031 1.16132 4.59141 0
M  V30 4089 H 383.455 3.48499 5.80412 0
M  V30 4090 H 388.097 1.15924 4.06597 0
M  V30 4091 H 385.815 4.96569 6.3753 0
M  V30 4092 H 389.401 3.06941 4.94246 0
M  V30 4093 H 388.281 4.94767 6.0842 0
M  V30 4094 N 385.784 -1.5574 0.241426 0
M  V30 4095 C 386.732 -2.22538 -0.676718 0
M  V30 4096 C 387.726 -1.21117 -1.18436 0
M  V30 4097 O 388.932 -1.39144 -1.14188 0
M  V30 4098 H 385.307 -0.713776 -0.236701 0
M  V30 4099 H 387.278 -2.98264 -0.0901187 0
M  V30 4100 C 386.027 -2.93439 -1.86518 0
M  V30 4101 H 385.35 -3.7125 -1.4837 0
M  V30 4102 H 386.79 -3.43549 -2.48495 0
M  V30 4103 C 385.249 -1.97008 -2.73294 0
M  V30 4104 O 385.779 -1.49965 -3.72657 0
M  V30 4105 N 383.985 -1.64227 -2.39745 0
M  V30 4106 H 383.532 -2.02677 -1.58996 0
M  V30 4107 H 383.49 -0.999708 -2.98083 0
M  V30 4108 N 387.262 0.0317525 -1.57568 0
M  V30 4109 C 388.502 0.727979 -1.90997 0
M  V30 4110 C 388.866 1.72664 -0.839708 0
M  V30 4111 O 390.067 2.47092 -1.05825 0
M  V30 4112 C 388.338 1.38239 -3.29583 0
M  V30 4113 S 389.897 2.10814 -3.84841 0
M  V30 4114 H 386.715 0.241226 -0.668828 0
M  V30 4115 H 389.317 -0.0173037 -1.95492 0
M  V30 4116 H 388.021 0.642288 -4.05343 0
M  V30 4117 H 387.552 2.16628 -3.28384 0
M  V30 4118 H 389.567 3.3792 -3.63352 0
M  V30 4119 N 388.74 1.54641 0.303973 0
M  V30 4120 C 390.017 1.64455 1.05896 0
M  V30 4121 C 390.397 0.490923 2.05312 0
M  V30 4122 O 389.745 -0.512685 2.22674 0
M  V30 4123 C 389.955 3.02331 1.74347 0
M  V30 4124 C 391.303 3.59045 2.26653 0
M  V30 4125 O 392.327 3.04764 1.84384 0
M  V30 4126 O 391.186 4.54081 3.04093 0
M  V30 4127 H 388.28 0.666729 0.489287 0
M  V30 4128 H 390.826 1.66986 0.302298 0
M  V30 4129 H 389.598 3.77734 1.02142 0
M  V30 4130 H 389.221 3.03565 2.56777 0
M  V30 4131 N 390.218 -0.567019 1.47046 0
M  V30 4132 C 391.148 -1.68482 1.61667 0
M  V30 4133 C 392.129 -1.6358 0.466418 0
M  V30 4134 O 393.314 -1.81354 0.694574 0
M  V30 4135 C 390.444 -3.07124 1.62148 0
M  V30 4136 C 389.398 -3.26867 2.76301 0
M  V30 4137 C 388.724 -4.66196 2.61849 0
M  V30 4138 C 390.024 -3.13186 4.17986 0
M  V30 4139 H 391.718 -1.56502 2.5524 0
M  V30 4140 H 389.264 -0.751486 1.22836 0
M  V30 4141 H 391.217 -3.8516 1.70968 0
M  V30 4142 H 389.941 -3.2004 0.651287 0
M  V30 4143 H 388.6 -2.51237 2.66975 0
M  V30 4144 H 388.248 -4.75898 1.62879 0
M  V30 4145 H 387.948 -4.80356 3.38425 0
M  V30 4146 H 389.472 -5.46379 2.72584 0
M  V30 4147 H 390.886 -3.81049 4.2834 0
M  V30 4148 H 389.283 -3.3886 4.95272 0
M  V30 4149 H 390.353 -2.10057 4.3704 0
M  V30 4150 N 391.696 -1.35014 -0.812953 0
M  V30 4151 C 392.973 -1.18502 -1.55617 0
M  V30 4152 C 393.353 0.238421 -2.09749 0
M  V30 4153 O 392.701 1.2411 -1.91857 0
M  V30 4154 C 392.911 -2.24783 -2.66971 0
M  V30 4155 C 394.259 -2.60268 -3.35478 0
M  V30 4156 O 395.283 -2.23648 -2.77236 0
M  V30 4157 O 394.142 -3.2321 -4.40678 0
M  V30 4158 H 391.236 -0.459984 -0.687272 0
M  V30 4159 H 393.782 -1.46677 -0.853464 0
M  V30 4160 H 392.554 -3.20284 -2.24798 0
M  V30 4161 H 392.177 -1.97841 -3.44884 0
M  V30 4162 N 393.175 1.03435 -1.18907 0
M  V30 4163 C 394.122 2.11591 -0.921837 0
M  V30 4164 C 395.092 1.65499 0.141226 0
M  V30 4165 O 396.277 1.908 0.000242829 0
M  V30 4166 C 393.417 3.42012 -0.460616 0
M  V30 4167 C 392.53 4.01682 -1.58982 0
M  V30 4168 C 391.665 5.20091 -1.08069 0
M  V30 4169 C 390.704 5.71805 -2.18416 0
M  V30 4170 N 389.841 6.81494 -1.68849 0
M  V30 4171 H 394.681 2.33787 -1.8479 0
M  V30 4172 H 392.218 1.1467 -0.921373 0
M  V30 4173 H 394.176 4.16834 -0.174642 0
M  V30 4174 H 392.806 3.19944 0.428467 0
M  V30 4175 H 391.858 3.24127 -1.99113 0
M  V30 4176 H 393.17 4.36084 -2.4214 0
M  V30 4177 H 392.324 6.02051 -0.749615 0
M  V30 4178 H 391.063 4.87209 -0.218771 0
M  V30 4179 H 390.068 4.88461 -2.5236 0
M  V30 4180 H 391.293 6.06728 -3.05054 0
M  V30 4181 H 389.239 6.50475 -0.849572 0
M  V30 4182 H 389.156 7.14994 -2.45601 0
M  V30 4183 H 390.424 7.67063 -1.38689 0
M  V30 4184 N 394.653 0.992116 1.22453 0
M  V30 4185 C 395.616 0.546883 2.2258 0
M  V30 4186 C 396.616 -0.369829 1.56489 0
M  V30 4187 O 397.806 -0.161896 1.73446 0
M  V30 4188 C 394.938 -0.204659 3.40285 0
M  V30 4189 H 396.131 1.43234 2.63484 0
M  V30 4190 H 393.684 0.779239 1.3549 0
M  V30 4191 H 394.419 -1.10614 3.04853 0
M  V30 4192 H 394.204 0.45354 3.89468 0
M  V30 4193 H 395.694 -0.504358 4.14543 0
M  V30 4194 N 396.131 -1.37776 0.765217 0
M  V30 4195 C 397.094 -2.28686 0.153416 0
M  V30 4196 C 398.094 -1.47727 -0.635081 0
M  V30 4197 O 399.284 -1.68027 -0.459632 0
M  V30 4198 C 396.416 -3.31608 -0.790495 0
M  V30 4199 H 397.609 -2.84297 0.954723 0
M  V30 4200 H 395.162 -1.46932 0.53299 0
M  V30 4201 H 395.897 -2.81109 -1.61705 0
M  V30 4202 H 395.682 -3.9144 -0.227348 0
M  V30 4203 H 397.172 -3.99559 -1.21419 0
M  V30 4204 N 397.609 -0.515225 -1.4894 0
M  V30 4205 C 398.834 0.022727 -2.07388 0
M  V30 4206 C 399.259 1.2876 -1.37122 0
M  V30 4207 O 398.617 1.76067 -0.432431 0
M  V30 4208 C 398.665 0.244869 -3.59768 0
M  V30 4209 O 397.769 1.31667 -3.90817 0
M  V30 4210 H 397.11 -0.0325506 -0.663202 0
M  V30 4211 H 399.64 -0.718918 -1.91553 0
M  V30 4212 H 399.65 0.47205 -4.0526 0
M  V30 4213 H 398.325 -0.679194 -4.10317 0
M  V30 4214 H 396.902 1.07331 -3.5712 0
M  V30 4215 N 399.087 1.5561 -0.249682 0
M  V30 4216 C 399.997 2.25143 0.659375 0
M  V30 4217 C 401.013 1.2685 1.19101 0
M  V30 4218 O 402.189 1.59732 1.22669 0
M  V30 4219 C 399.254 2.93945 1.8384 0
M  V30 4220 C 398.315 4.07655 1.34596 0
M  V30 4221 C 397.548 4.73167 2.46878 0
M  V30 4222 O 397.771 4.37768 3.65671 0
M  V30 4223 O 396.705 5.61623 2.16478 0
M  V30 4224 H 400.531 3.03545 0.0968698 0
M  V30 4225 H 398.116 1.49389 -0.018074 0
M  V30 4226 H 399.998 3.37271 2.52638 0
M  V30 4227 H 398.673 2.18481 2.38847 0
M  V30 4228 H 397.58 3.68839 0.625174 0
M  V30 4229 H 398.913 4.84946 0.841941 0
M  V30 4230 N 400.565 -0.0233959 1.57583 0
M  V30 4231 C 401.805 -0.71784 1.9138 0
M  V30 4232 C 402.169 -1.72216 0.848853 0
M  V30 4233 O 403.37 -2.46527 1.07134 0
M  V30 4234 C 401.641 -1.36489 3.30311 0
M  V30 4235 S 403.2 -2.0877 3.85954 0
M  V30 4236 H 400.018 -0.237676 0.670098 0
M  V30 4237 H 402.62 0.0276709 1.9548 0
M  V30 4238 H 401.324 -0.620782 4.05678 0
M  V30 4239 H 400.855 -2.14883 3.29528 0
M  V30 4240 H 402.87 -3.35988 3.65139 0
M  V30 4241 N 402.043 -1.548 -0.295768 0
M  V30 4242 C 402.993 -1.82497 -1.3667 0
M  V30 4243 C 403.977 -0.682434 -1.45711 0
M  V30 4244 O 405.169 -0.943207 -1.49775 0
M  V30 4245 C 402.298 -2.08036 -2.73086 0
M  V30 4246 C 401.384 -3.28488 -2.68247 0
M  V30 4247 N 401.775 -4.48924 -2.33025 0
M  V30 4248 C 400.073 -3.3062 -2.99343 0
M  V30 4249 C 400.774 -5.30956 -2.37613 0
M  V30 4250 N 399.75 -4.68805 -2.75178 0
M  V30 4251 H 403.552 -2.73175 -1.0841 0
M  V30 4252 H 401.066 -1.5437 -0.504361 0
M  V30 4253 H 403.063 -2.26027 -3.5031 0
M  V30 4254 H 401.723 -1.18629 -3.02254 0
M  V30 4255 H 402.734 -4.75432 -2.05389 0
M  V30 4256 H 399.411 -2.51336 -3.33371 0
M  V30 4257 H 400.801 -6.37199 -2.13135 0
M  V30 4258 N 403.521 0.559213 -1.47345 0
M  V30 4259 C 404.932 1.14134 -1.47751 0
M  V30 4260 C 405.283 1.94834 -0.231103 0
M  V30 4261 O 404.408 2.05957 0.664137 0
M  V30 4262 C 405.003 2.07653 -2.67705 0
M  V30 4263 C 403.562 2.61141 -2.71076 0
M  V30 4264 C 402.709 1.3748 -2.40821 0
M  V30 4265 H 405.66 0.345917 -1.54884 0
M  V30 4266 H 405.681 2.91497 -2.44561 0
M  V30 4267 H 405.193 1.4889 -3.58404 0
M  V30 4268 H 403.294 3.23707 -1.84511 0
M  V30 4269 H 403.407 3.02272 -3.7171 0
M  V30 4270 H 401.771 1.68086 -1.91362 0
M  V30 4271 H 402.554 0.805135 -3.33725 0
M  V30 4272 N 404.999 1.35443 0.805782 0
M  V30 4273 C 405.949 1.24972 1.90699 0
M  V30 4274 C 406.933 0.144806 1.60247 0
M  V30 4275 O 408.125 0.376102 1.72958 0
M  V30 4276 C 405.254 1.02475 3.27649 0
M  V30 4277 C 404.34 2.17361 3.64164 0
M  V30 4278 N 404.731 3.42591 3.72109 0
M  V30 4279 C 403.029 2.08765 3.94123 0
M  V30 4280 C 403.73 4.18144 4.04389 0
M  V30 4281 N 402.706 3.4691 4.18515 0
M  V30 4282 H 406.508 2.19852 1.95044 0
M  V30 4283 H 404.022 1.27928 1.00041 0
M  V30 4284 H 406.019 0.930617 4.06381 0
M  V30 4285 H 404.679 0.0848009 3.24589 0
M  V30 4286 H 405.69 3.76932 3.55166 0
M  V30 4287 H 402.367 1.22629 3.99084 0
M  V30 4288 H 403.757 5.26367 4.17597 0
M  V30 4289 N 406.477 -1.02803 1.19454 0
M  V30 4290 C 407.707 -1.79581 1.02149 0
M  V30 4291 C 408.115 -1.84182 -0.432851 0
M  V30 4292 O 407.458 -1.28534 -1.31243 0
M  V30 4293 C 407.52 -3.25993 1.51554 0
M  V30 4294 C 407.184 -3.45025 2.99678 0
M  V30 4295 C 408.181 -3.35175 3.97434 0
M  V30 4296 C 405.866 -3.71212 3.38389 0
M  V30 4297 C 407.86 -3.51238 5.31893 0
M  V30 4298 C 405.547 -3.8692 4.73008 0
M  V30 4299 C 406.545 -3.76936 5.69569 0
M  V30 4300 O 406.233 -3.92179 7.01748 0
M  V30 4301 H 405.965 -0.571962 0.360327 0
M  V30 4302 H 408.519 -1.30367 1.58725 0
M  V30 4303 H 406.749 -3.76235 0.893543 0
M  V30 4304 H 408.438 -3.84368 1.30444 0
M  V30 4305 H 409.204 -3.14895 3.68872 0
M  V30 4306 H 405.083 -3.78075 2.6378 0
M  V30 4307 H 408.627 -3.43362 6.07247 0
M  V30 4308 H 404.524 -4.06699 5.01265 0
M  V30 4309 H 405.292 -4.09265 7.08833 0
M  V30 4310 N 407.956 -0.998596 -1.21925 0
M  V30 4311 C 409.181 -0.696015 -1.95372 0
M  V30 4312 C 409.606 0.733826 -1.73195 0
M  V30 4313 O 408.964 1.50242 -1.01474 0
M  V30 4314 C 409.012 -1.01466 -3.4603 0
M  V30 4315 O 408.116 -0.116415 -4.12236 0
M  V30 4316 H 407.457 -0.259938 -0.611006 0
M  V30 4317 H 409.987 -1.33711 -1.54863 0
M  V30 4318 H 409.997 -0.958855 -3.96573 0
M  V30 4319 H 408.672 -2.05653 -3.61497 0
M  V30 4320 H 407.249 -0.228193 -3.72201 0
M  V30 4321 N 409.434 1.37368 -0.772513 0
M  V30 4322 C 410.681 1.99673 -0.337182 0
M  V30 4323 C 411.009 1.61324 1.0865 0
M  V30 4324 O 410.264 0.851377 1.7621 0
M  V30 4325 C 410.563 3.54817 -0.428876 0
M  V30 4326 C 410.229 4.12936 -1.81092 0
M  V30 4327 C 408.891 4.28523 -2.1891 0
M  V30 4328 C 411.243 4.44801 -2.71664 0
M  V30 4329 C 408.571 4.73277 -3.46735 0
M  V30 4330 C 410.923 4.90981 -3.98899 0
M  V30 4331 C 409.587 5.04773 -4.36761 0
M  V30 4332 H 408.857 0.730656 -0.123384 0
M  V30 4333 H 411.504 1.64124 -0.986686 0
M  V30 4334 H 409.809 3.90618 0.304167 0
M  V30 4335 H 411.506 4.00933 -0.0733334 0
M  V30 4336 H 408.096 4.01233 -1.50699 0
M  V30 4337 H 412.28 4.32344 -2.43706 0
M  V30 4338 H 407.536 4.82142 -3.75964 0
M  V30 4339 H 411.71 5.14603 -4.69208 0
M  V30 4340 H 409.337 5.39211 -5.35868 0
M  V30 4341 N 410.912 0.523116 1.48665 0
M  V30 4342 C 412.137 -0.0117284 2.07397 0
M  V30 4343 C 412.562 -1.28031 1.37803 0
M  V30 4344 O 411.92 -1.75836 0.441762 0
M  V30 4345 C 411.968 -0.225786 3.59892 0
M  V30 4346 O 411.072 -1.29592 3.91509 0
M  V30 4347 H 410.413 0.0360673 0.66302 0
M  V30 4348 H 412.943 0.729066 1.9117 0
M  V30 4349 H 412.953 -0.450552 4.05505 0
M  V30 4350 H 411.628 0.700944 4.09951 0
M  V30 4351 H 410.205 -1.05436 3.57684 0
M  V30 4352 N 412.39 -1.55475 0.257931 0
M  V30 4353 C 413.806 -1.59307 -0.0966563 0
M  V30 4354 C 414.006 -1.27514 -1.5602 0
M  V30 4355 O 413.062 -1.02774 -2.30637 0
M  V30 4356 C 414.375 -2.99552 0.262481 0
M  V30 4357 C 415.923 -3.1231 0.207683 0
M  V30 4358 C 416.398 -4.54793 0.541012 0
M  V30 4359 N 417.889 -4.6058 0.491921 0
M  V30 4360 C 418.624 -5.68825 0.722857 0
M  V30 4361 N 418.12 -6.85287 1.0175 0
M  V30 4362 N 419.913 -5.58296 0.652815 0
M  V30 4363 H 412.064 -1.74409 1.21224 0
M  V30 4364 H 414.327 -0.812424 0.48854 0
M  V30 4365 H 414.033 -3.27593 1.27967 0
M  V30 4366 H 413.907 -3.75019 -0.40508 0
M  V30 4367 H 416.294 -2.84044 -0.800195 0
M  V30 4368 H 416.375 -2.39095 0.909255 0
M  V30 4369 H 416.019 -4.83783 1.5465 0
M  V30 4370 H 415.949 -5.26285 -0.18216 0
M  V30 4371 H 418.44 -3.7691 0.273366 0
M  V30 4372 H 418.753 -7.63725 1.18084 0
M  V30 4373 H 417.098 -6.86945 1.05509 0
M  V30 4374 H 420.289 -4.66189 0.422592 0
M  V30 4375 H 420.462 -6.42582 0.836182 0
M  V30 4376 N 413.868 0.0150385 -1.57593 0
M  V30 4377 C 414.798 1.01047 -2.10503 0
M  V30 4378 C 415.779 1.36816 -1.01071 0
M  V30 4379 O 416.964 1.45455 -1.28672 0
M  V30 4380 C 414.094 2.30708 -2.59598 0
M  V30 4381 C 413.048 2.09142 -3.73421 0
M  V30 4382 C 412.374 3.44685 -4.08774 0
M  V30 4383 C 413.674 1.46619 -5.01298 0
M  V30 4384 H 415.368 0.569978 -2.93925 0
M  V30 4385 H 412.914 0.272724 -1.41394 0
M  V30 4386 H 414.867 3.00687 -2.95238 0
M  V30 4387 H 413.591 2.76843 -1.73279 0
M  V30 4388 H 412.25 1.41592 -3.38153 0
M  V30 4389 H 411.898 3.88495 -3.195 0
M  V30 4390 H 411.598 3.31077 -4.8545 0
M  V30 4391 H 413.122 4.16004 -4.4696 0
M  V30 4392 H 414.536 2.06535 -5.34805 0
M  V30 4393 H 412.933 1.43544 -5.82679 0
M  V30 4394 H 414.003 0.433611 -4.82957 0
M  V30 4395 N 415.346 1.54954 0.287554 0
M  V30 4396 C 416.623 1.65569 1.04146 0
M  V30 4397 C 417.003 0.512672 2.0478 0
M  V30 4398 O 416.351 -0.489038 2.23205 0
M  V30 4399 C 416.561 3.04163 1.71131 0
M  V30 4400 C 417.909 3.61429 2.22832 0
M  V30 4401 O 418.933 3.06702 1.81141 0
M  V30 4402 O 417.792 4.57281 2.9926 0
M  V30 4403 H 414.886 0.671881 0.482188 0
M  V30 4404 H 417.432 1.67297 0.28457 0
M  V30 4405 H 416.204 3.78796 0.981303 0
M  V30 4406 H 415.827 3.06271 2.53543 0
M  V30 4407 N 416.824 -0.551391 1.4764 0
M  V30 4408 C 417.772 -1.67896 1.60978 0
M  V30 4409 C 418.766 -1.62549 0.476877 0
M  V30 4410 O 419.972 -1.67664 0.654878 0
M  V30 4411 H 416.347 -0.555649 0.506713 0
M  V30 4412 H 418.318 -1.53784 2.55721 0
M  V30 4413 C 417.067 -3.06234 1.64669 0
M  V30 4414 H 416.39 -3.11033 2.51194 0
M  V30 4415 H 417.83 -3.84804 1.7805 0
M  V30 4416 C 416.289 -3.34737 0.381115 0
M  V30 4417 O 416.819 -3.98381 -0.515297 0
M  V30 4418 N 415.025 -2.8944 0.259354 0
M  V30 4419 H 414.572 -2.37827 0.98976 0
M  V30 4420 H 414.53 -3.08882 -0.586464 0
M  V30 4421 N 418.302 -1.35869 -0.798587 0
M  V30 4422 C 419.249 -1.29446 -1.91082 0
M  V30 4423 C 420.219 -0.16487 -1.6528 0
M  V30 4424 O 421.404 -0.349888 -1.87564 0
M  V30 4425 C 418.544 -1.0804 -3.27752 0
M  V30 4426 C 417.657 -2.29993 -3.65687 0
M  V30 4427 C 416.792 -2.01673 -4.91428 0
M  V30 4428 C 415.831 -3.19636 -5.22015 0
M  V30 4429 N 414.968 -2.91039 -6.38937 0
M  V30 4430 H 419.808 -2.24553 -1.95907 0
M  V30 4431 H 417.345 -1.11615 -0.958148 0
M  V30 4432 H 419.303 -0.936586 -4.06551 0
M  V30 4433 H 417.933 -0.16592 -3.22373 0
M  V30 4434 H 416.985 -2.55211 -2.82085 0
M  V30 4435 H 418.297 -3.18052 -3.84245 0
M  V30 4436 H 417.451 -1.84168 -5.78072 0
M  V30 4437 H 416.19 -1.10911 -4.74921 0
M  V30 4438 H 415.195 -3.37709 -4.33858 0
M  V30 4439 H 416.42 -4.11211 -5.40447 0
M  V30 4440 H 414.366 -2.0288 -6.2384 0
M  V30 4441 H 414.283 -3.72635 -6.57784 0
M  V30 4442 H 415.551 -2.77093 -7.28587 0
M  V30 4443 N 419.78 1.02168 -1.19998 0
M  V30 4444 C 420.71 2.12488 -0.96804 0
M  V30 4445 C 421.691 1.69799 0.101185 0
M  V30 4446 O 422.876 1.94121 -0.0552993 0
M  V30 4447 C 420.006 3.43479 -0.513776 0
M  V30 4448 C 418.96 3.99884 -1.52566 0
M  V30 4449 C 418.286 5.26582 -0.928214 0
M  V30 4450 C 419.586 4.33861 -2.90795 0
M  V30 4451 H 421.28 2.32149 -1.89069 0
M  V30 4452 H 418.826 1.11564 -0.910468 0
M  V30 4453 H 420.779 4.20036 -0.338774 0
M  V30 4454 H 419.503 3.23561 0.444493 0
M  V30 4455 H 418.162 3.25429 -1.68794 0
M  V30 4456 H 417.81 5.02986 0.0378289 0
M  V30 4457 H 417.51 5.65284 -1.60397 0
M  V30 4458 H 419.034 6.05799 -0.764167 0
M  V30 4459 H 420.448 5.01327 -2.78109 0
M  V30 4460 H 418.845 4.83664 -3.55231 0
M  V30 4461 H 419.915 3.42848 -3.42904 0
M  V30 4462 N 421.258 1.00505 1.21394 0
M  V30 4463 C 422.483 0.706367 1.95001 0
M  V30 4464 C 422.908 -0.72463 1.73582 0
M  V30 4465 O 422.266 -1.49702 1.0227 0
M  V30 4466 C 422.314 1.03299 3.45487 0
M  V30 4467 O 421.418 0.138275 4.12168 0
M  V30 4468 H 420.759 0.263175 0.609619 0
M  V30 4469 H 423.289 1.34531 1.54151 0
M  V30 4470 H 423.299 0.979872 3.96059 0
M  V30 4471 H 421.974 2.07567 3.60401 0
M  V30 4472 H 420.551 0.247928 3.72075 0
M  V30 4473 N 422.737 -1.36956 0.779787 0
M  V30 4474 C 423.684 -2.30175 0.169697 0
M  V30 4475 C 424.654 -1.51501 -0.68094 0
M  V30 4476 O 425.839 -1.80042 -0.631629 0
M  V30 4477 C 422.979 -3.37985 -0.697131 0
M  V30 4478 C 422.092 -4.31661 0.170992 0
M  V30 4479 C 421.227 -5.2655 -0.701298 0
M  V30 4480 C 420.266 -6.11867 0.168869 0
M  V30 4481 N 419.403 -6.98973 -0.661855 0
M  V30 4482 H 424.243 -2.81767 0.970135 0
M  V30 4483 H 421.78 -1.38699 0.489994 0
M  V30 4484 H 423.738 -3.99128 -1.2146 0
M  V30 4485 H 422.368 -2.87739 -1.46309 0
M  V30 4486 H 421.42 -3.71756 0.80634 0
M  V30 4487 H 422.732 -4.91644 0.841875 0
M  V30 4488 H 421.886 -5.92937 -1.28494 0
M  V30 4489 H 420.625 -4.66998 -1.40584 0
M  V30 4490 H 419.63 -5.44452 0.764986 0
M  V30 4491 H 420.855 -6.73493 0.870863 0
M  V30 4492 H 418.801 -6.41941 -1.35086 0
M  V30 4493 H 418.718 -7.55984 -0.0484447 0
M  V30 4494 H 419.986 -7.6974 -1.22963 0
M  V30 4495 N 424.215 -0.530993 -1.48385 0
M  V30 4496 C 425.44 0.000729535 -2.074 0
M  V30 4497 C 425.865 1.27298 -1.3848 0
M  V30 4498 O 425.223 1.75599 -0.451081 0
M  V30 4499 C 425.271 0.206697 -3.60007 0
M  V30 4500 O 424.375 1.27514 -3.92191 0
M  V30 4501 H 423.716 -0.039583 -0.662819 0
M  V30 4502 H 426.246 -0.739194 -1.9078 0
M  V30 4503 H 426.256 0.42904 -4.05738 0
M  V30 4504 H 424.931 -0.722675 -4.09573 0
M  V30 4505 H 423.508 1.03537 -3.58238 0
M  V30 4506 N 425.693 1.55336 -0.266172 0
M  V30 4507 C 426.939 1.99692 0.353681 0
M  V30 4508 C 427.272 1.1543 1.56172 0
M  V30 4509 O 426.547 0.222218 1.93226 0
M  V30 4510 C 426.83 3.52316 0.74466 0
M  V30 4511 C 426.683 4.47337 -0.470101 0
M  V30 4512 C 428.002 4.10588 1.58447 0
M  V30 4513 H 425.121 0.725961 0.12708 0
M  V30 4514 H 427.763 1.86336 -0.371333 0
M  V30 4515 H 425.913 3.63829 1.36239 0
M  V30 4516 H 427.585 4.4778 -1.10864 0
M  V30 4517 H 425.828 4.19364 -1.10978 0
M  V30 4518 H 426.499 5.51788 -0.15291 0
M  V30 4519 H 428.975 4.02297 1.06286 0
M  V30 4520 H 427.851 5.17607 1.82686 0
M  V30 4521 H 428.112 3.60253 2.56262 0
M  V30 4522 N 427.171 -0.0066808 1.57599 0
M  V30 4523 C 428.396 -0.707738 1.94951 0
M  V30 4524 C 428.821 -1.66882 0.867868 0
M  V30 4525 O 428.179 -1.80457 -0.17458 0
M  V30 4526 C 428.227 -1.42162 3.31394 0
M  V30 4527 O 427.331 -2.53578 3.25226 0
M  V30 4528 H 426.672 -0.188752 0.636607 0
M  V30 4529 H 429.202 0.0445193 2.04552 0
M  V30 4530 H 429.212 -1.78655 3.66806 0
M  V30 4531 H 427.887 -0.716903 4.09675 0
M  V30 4532 H 426.464 -2.19463 3.01481 0
M  V30 4533 N 428.649 -1.55105 -0.279332 0
M  V30 4534 C 429.874 -1.7976 -1.03446 0
M  V30 4535 C 430.299 -0.565952 -1.79384 0
M  V30 4536 O 429.657 0.484259 -1.74713 0
M  V30 4537 C 429.705 -3.0179 -1.97371 0
M  V30 4538 O 428.809 -2.76432 -3.06038 0
M  V30 4539 H 428.15 -0.594334 -0.29608 0
M  V30 4540 H 430.68 -2.02235 -0.310165 0
M  V30 4541 H 430.69 -3.30351 -2.39441 0
M  V30 4542 H 429.365 -3.91085 -1.4151 0
M  V30 4543 H 427.942 -2.58949 -2.68328 0
M  V30 4544 N 430.127 0.543554 -1.4793 0
M  V30 4545 C 431.375 1.29752 -1.54948 0
M  V30 4546 C 431.696 1.93764 -0.219242 0
M  V30 4547 O 430.966 1.80639 0.75805 0
M  V30 4548 H 429.546 0.481874 -0.570795 0
M  V30 4549 H 432.208 0.633636 -1.84312 0
M  V30 4550 H 431.304 2.08392 -2.32334 0
M  V30 4551 N 431.605 1.3629 0.791371 0
M  V30 4552 C 432.835 1.33368 1.57786 0
M  V30 4553 C 433.243 -0.0875188 1.88997 0
M  V30 4554 O 432.586 -1.05427 1.50435 0
M  V30 4555 C 432.648 2.08802 2.92646 0
M  V30 4556 C 432.312 3.57903 2.84174 0
M  V30 4557 C 433.309 4.52191 2.56553 0
M  V30 4558 C 430.994 4.00762 3.02812 0
M  V30 4559 C 432.988 5.87315 2.47669 0
M  V30 4560 C 430.675 5.35977 2.93551 0
M  V30 4561 C 431.673 6.29066 2.66017 0
M  V30 4562 O 431.361 7.61798 2.56746 0
M  V30 4563 H 431.093 0.459166 0.496128 0
M  V30 4564 H 433.647 1.79952 0.990269 0
M  V30 4565 H 431.877 1.56878 3.53449 0
M  V30 4566 H 433.566 1.98762 3.53904 0
M  V30 4567 H 434.332 4.20393 2.41858 0
M  V30 4568 H 430.211 3.2868 3.2325 0
M  V30 4569 H 433.755 6.59943 2.26099 0
M  V30 4570 H 429.652 5.67384 3.07808 0
M  V30 4571 H 430.42 7.71898 2.72242 0
M  V30 4572 N 433.083 -1.0153 1.20538 0
M  V30 4573 C 434.031 -2.12215 0.952235 0
M  V30 4574 C 435.025 -1.69123 -0.0968735 0
M  V30 4575 O 436.231 -1.7992 0.0536006 0
M  V30 4576 H 432.606 -0.693576 0.290613 0
M  V30 4577 H 434.577 -2.3075 1.89201 0
M  V30 4578 C 433.326 -3.43755 0.522287 0
M  V30 4579 H 432.649 -3.7734 1.32115 0
M  V30 4580 H 434.089 -4.22254 0.384389 0
M  V30 4581 C 432.548 -3.28088 -0.765489 0
M  V30 4582 O 433.078 -3.57921 -1.8236 0
M  V30 4583 N 431.284 -2.81333 -0.728011 0
M  V30 4584 H 430.831 -2.57255 0.133332 0
M  V30 4585 H 430.789 -2.71232 -1.58999 0
M  V30 4586 N 434.561 -1.01147 -1.20859 0
M  V30 4587 C 435.808 -0.697865 -1.90095 0
M  V30 4588 C 436.136 0.772014 -1.78522 0
M  V30 4589 O 435.391 1.57595 -1.16027 0
M  V30 4590 C 435.69 -1.0727 -3.40922 0
M  V30 4591 C 435.356 -2.53792 -3.72693 0
M  V30 4592 C 434.018 -2.93829 -3.81075 0
M  V30 4593 C 436.37 -3.48674 -3.87397 0
M  V30 4594 C 433.698 -4.27696 -4.01613 0
M  V30 4595 C 436.05 -4.82223 -4.09444 0
M  V30 4596 C 434.714 -5.21973 -4.16054 0
M  V30 4597 H 433.984 -0.255367 -0.695607 0
M  V30 4598 H 436.631 -1.27111 -1.43231 0
M  V30 4599 H 434.936 -0.417799 -3.89566 0
M  V30 4600 H 436.633 -0.807818 -3.92779 0
M  V30 4601 H 433.223 -2.21768 -3.66765 0
M  V30 4602 H 437.407 -3.18904 -3.80281 0
M  V30 4603 H 432.663 -4.58055 -4.04964 0
M  V30 4604 H 436.837 -5.55672 -4.19763 0
M  V30 4605 H 434.464 -6.25717 -4.31721 0
M  V30 4606 N 436.039 1.36541 -0.78704 0
M  V30 4607 C 437.455 1.52571 -0.46844 0
M  V30 4608 C 437.655 1.7415 1.01361 0
M  V30 4609 O 436.711 1.77163 1.79915 0
M  V30 4610 C 438.024 2.71299 -1.29682 0
M  V30 4611 C 439.572 2.85169 -1.29027 0
M  V30 4612 C 440.047 4.06898 -2.10233 0
M  V30 4613 N 441.538 4.1404 -2.07666 0
M  V30 4614 C 442.273 5.07301 -2.67271 0
M  V30 4615 N 441.769 6.06021 -3.35724 0
M  V30 4616 N 443.562 4.99898 -2.57018 0
M  V30 4617 H 435.713 1.20788 -1.74711 0
M  V30 4618 H 437.976 0.589364 -0.742532 0
M  V30 4619 H 437.682 2.61868 -2.34773 0
M  V30 4620 H 437.556 3.6539 -0.936479 0
M  V30 4621 H 439.943 2.94062 -0.247284 0
M  V30 4622 H 440.024 1.91992 -1.69035 0
M  V30 4623 H 439.668 3.98766 -3.1456 0
M  V30 4624 H 439.598 4.99218 -1.67597 0
M  V30 4625 H 442.089 3.43357 -1.57843 0
M  V30 4626 H 442.402 6.73741 -3.78541 0
M  V30 4627 H 440.747 6.06253 -3.39826 0
M  V30 4628 H 443.938 4.21724 -2.03142 0
M  V30 4629 H 444.111 5.72392 -3.03761 0
M  V30 4630 N 437.518 0.538854 1.48102 0
M  V30 4631 C 438.765 0.0080018 2.02498 0
M  V30 4632 C 439.093 -1.33437 1.41509 0
M  V30 4633 O 438.348 -1.87709 0.553507 0
M  V30 4634 C 438.647 -0.153808 3.57069 0
M  V30 4635 C 438.313 1.11533 4.36888 0
M  V30 4636 C 436.975 1.46314 4.58417 0
M  V30 4637 C 439.327 1.95718 4.83057 0
M  V30 4638 C 436.655 2.6516 5.23361 0
M  V30 4639 C 439.007 3.13751 5.49312 0
M  V30 4640 C 437.671 3.48866 5.69077 0
M  V30 4641 H 436.941 0.00292807 0.740994 0
M  V30 4642 H 439.588 0.706668 1.77984 0
M  V30 4643 H 437.893 -0.935309 3.80472 0
M  V30 4644 H 439.59 -0.579607 3.96789 0
M  V30 4645 H 436.18 0.834484 4.20398 0
M  V30 4646 H 440.364 1.70158 4.66219 0
M  V30 4647 H 435.62 2.92558 5.36861 0
M  V30 4648 H 439.794 3.79282 5.84053 0
M  V30 4649 H 437.421 4.41054 6.19173 0
M  V30 4650 N 438.996 -1.55193 0.274407 0
M  V30 4651 C 439.959 -2.212 -0.600279 0
M  V30 4652 C 440.959 -1.18963 -1.08187 0
M  V30 4653 O 442.149 -1.43873 -0.982158 0
M  V30 4654 C 439.281 -2.87739 -1.82809 0
M  V30 4655 H 440.474 -2.9989 -0.0239682 0
M  V30 4656 H 438.027 -1.5628 0.0250192 0
M  V30 4657 H 438.762 -2.13058 -2.44493 0
M  V30 4658 H 438.547 -3.62658 -1.49069 0
M  V30 4659 H 440.037 -3.38171 -2.45011 0
M  V30 4660 N 440.474 -0.00167713 -1.576 0
M  V30 4661 C 441.89 0.354422 -1.55615 0
M  V30 4662 C 442.09 1.74679 -1.00447 0
M  V30 4663 O 441.146 2.4428 -0.639022 0
M  V30 4664 C 442.459 0.22812 -2.99833 0
M  V30 4665 C 444.007 0.302934 -3.11531 0
M  V30 4666 C 444.482 0.205737 -4.57538 0
M  V30 4667 N 445.973 0.263584 -4.62449 0
M  V30 4668 C 446.708 0.211742 -5.73009 0
M  V30 4669 N 446.204 0.110399 -6.92712 0
M  V30 4670 N 447.997 0.263729 -5.61481 0
M  V30 4671 H 440.148 -0.912498 -1.918 0
M  V30 4672 H 442.411 -0.349928 -0.881053 0
M  V30 4673 H 442.117 -0.729934 -3.44042 0
M  V30 4674 H 441.991 1.00951 -3.6344 0
M  V30 4675 H 444.378 1.25143 -2.67251 0
M  V30 4676 H 444.459 -0.508357 -2.50698 0
M  V30 4677 H 444.103 -0.739225 -5.02492 0
M  V30 4678 H 444.033 1.03554 -5.16318 0
M  V30 4679 H 446.524 0.343173 -3.76339 0
M  V30 4680 H 446.837 0.0767828 -7.72762 0
M  V30 4681 H 445.182 0.0760025 -6.94958 0
M  V30 4682 H 448.373 0.34111 -4.66855 0
M  V30 4683 H 448.546 0.219862 -6.47627 0
M  V30 4684 N 441.952 1.55251 0.271103 0
M  V30 4685 C 443.182 1.79713 1.01916 0
M  V30 4686 C 443.59 0.571613 1.80359 0
M  V30 4687 O 442.933 -0.468853 1.77616 0
M  V30 4688 C 442.995 2.97138 2.02359 0
M  V30 4689 C 442.659 4.34104 1.42837 0
M  V30 4690 C 443.656 5.13019 0.843071 0
M  V30 4691 C 441.341 4.80765 1.455 0
M  V30 4692 C 443.335 6.36729 0.292333 0
M  V30 4693 C 441.022 6.0443 0.900402 0
M  V30 4694 C 442.02 6.8225 0.32007 0
M  V30 4695 O 441.708 8.03582 -0.226031 0
M  V30 4696 H 441.44 0.602431 0.306681 0
M  V30 4697 H 443.994 2.03097 0.306701 0
M  V30 4698 H 442.224 2.6945 2.77369 0
M  V30 4699 H 443.913 3.08907 2.63309 0
M  V30 4700 H 444.679 4.781 0.815178 0
M  V30 4701 H 440.558 4.20202 1.89609 0
M  V30 4702 H 444.102 6.97414 -0.161274 0
M  V30 4703 H 439.999 6.3883 0.925541 0
M  V30 4704 H 440.767 8.18418 -0.115572 0
M  V30 4705 N 443.43 -0.535701 1.48216 0
M  V30 4706 C 444.66 -1.3148 1.59363 0
M  V30 4707 C 445.068 -1.8753 0.250844 0
M  V30 4708 O 444.411 -1.66821 -0.769174 0
M  V30 4709 C 444.473 -2.50731 2.57632 0
M  V30 4710 C 444.137 -2.15811 4.02833 0
M  V30 4711 C 445.134 -1.71822 4.90686 0
M  V30 4712 C 442.819 -2.26509 4.48329 0
M  V30 4713 C 444.813 -1.3899 6.22062 0
M  V30 4714 C 442.5 -1.93289 5.79726 0
M  V30 4715 C 443.498 -1.49599 6.66415 0
M  V30 4716 O 443.186 -1.16812 7.95368 0
M  V30 4717 H 442.918 -0.406315 0.540263 0
M  V30 4718 H 445.472 -0.653569 1.94725 0
M  V30 4719 H 443.702 -3.19817 2.1738 0
M  V30 4720 H 445.391 -3.12797 2.58675 0
M  V30 4721 H 446.157 -1.63031 4.56778 0
M  V30 4722 H 442.036 -2.59471 3.81045 0
M  V30 4723 H 445.58 -1.04816 6.89681 0
M  V30 4724 H 441.477 -2.01718 6.13172 0
M  V30 4725 H 442.245 -1.30259 8.08069 0
M  V30 4726 N 444.908 -1.36708 -0.784132 0
M  V30 4727 C 446.324 -1.17237 -1.08294 0
M  V30 4728 C 446.524 -5.93947e-05 -2.015 0
M  V30 4729 O 445.58 0.663686 -2.43622 0
M  V30 4730 C 446.893 -2.48557 -1.69233 0
M  V30 4731 C 448.441 -2.54968 -1.8155 0
M  V30 4732 C 448.916 -3.86388 -2.45904 0
M  V30 4733 N 450.407 -3.87762 -2.53367 0
M  V30 4734 C 451.142 -4.86191 -3.03983 0
M  V30 4735 N 450.638 -5.95015 -3.54866 0
M  V30 4736 N 452.431 -4.73606 -3.02743 0
M  V30 4737 H 444.582 -2.11758 -0.16501 0
M  V30 4738 H 446.845 -0.93822 -0.135822 0
M  V30 4739 H 446.551 -3.34638 -1.08215 0
M  V30 4740 H 446.425 -2.64748 -2.68679 0
M  V30 4741 H 448.812 -1.69302 -2.41704 0
M  V30 4742 H 448.893 -2.42672 -0.80895 0
M  V30 4743 H 448.537 -4.72462 -1.86392 0
M  V30 4744 H 448.467 -3.95982 -3.4714 0
M  V30 4745 H 450.958 -3.09145 -2.17343 0
M  V30 4746 H 451.271 -6.66086 -3.91854 0
M  V30 4747 H 449.616 -5.98676 -3.53003 0
M  V30 4748 H 452.807 -3.87717 -2.62284 0
M  V30 4749 H 452.98 -5.50473 -3.41881 0
M  V30 4750 N 446.386 1.0089 -1.21074 0
M  V30 4751 C 447.663 1.71834 -0.934469 0
M  V30 4752 C 448.043 2.0368 0.554753 0
M  V30 4753 O 447.391 1.70742 1.51854 0
M  V30 4754 C 447.601 2.98061 -1.8155 0
M  V30 4755 C 448.949 3.7117 -2.06199 0
M  V30 4756 O 449.973 3.08034 -1.78867 0
M  V30 4757 O 448.832 4.84721 -2.52404 0
M  V30 4758 H 445.926 0.749253 -0.35007 0
M  V30 4759 H 448.472 1.06668 -1.31985 0
M  V30 4760 H 447.244 2.70908 -2.82355 0
M  V30 4761 H 446.867 3.70968 -1.43068 0
M  V30 4762 N 447.864 1.01787 1.20321 0
M  V30 4763 C 448.827 0.593972 2.2137 0
M  V30 4764 C 449.827 -0.336553 1.57239 0
M  V30 4765 O 451.017 -0.125069 1.7375 0
M  V30 4766 C 448.149 -0.132433 3.40643 0
M  V30 4767 H 449.342 1.48791 2.60387 0
M  V30 4768 H 446.895 0.807803 1.33807 0
M  V30 4769 H 447.63 -1.04123 3.0713 0
M  V30 4770 H 447.415 0.53605 3.88418 0
M  V30 4771 H 448.905 -0.416314 4.1552 0
M  V30 4772 N 449.342 -1.36122 0.79427 0
M  V30 4773 C 450.305 -2.28309 0.201889 0
M  V30 4774 C 451.305 -1.49041 -0.603603 0
M  V30 4775 O 452.495 -1.68964 -0.423888 0
M  V30 4776 C 449.627 -3.3321 -0.719978 0
M  V30 4777 H 450.82 -2.82208 1.01481 0
M  V30 4778 H 448.373 -1.45768 0.564037 0
M  V30 4779 H 449.108 -2.84475 -1.55706 0
M  V30 4780 H 448.893 -3.91835 -0.144266 0
M  V30 4781 H 450.383 -4.02044 -1.12916 0
M  V30 4782 N 450.82 -0.546701 -1.47814 0
M  V30 4783 C 452.068 -0.0187037 -2.02091 0
M  V30 4784 C 452.389 1.33168 -1.42447 0
M  V30 4785 O 451.659 1.86619 -0.595839 0
M  V30 4786 H 450.239 -0.00392531 -0.74699 0
M  V30 4787 H 452.901 -0.714327 -1.81338 0
M  V30 4788 H 451.997 0.0772219 -3.12004 0
M  V30 4789 N 452.299 1.55045 -0.282633 0
M  V30 4790 C 453.545 2.00056 0.332481 0
M  V30 4791 C 453.878 1.1708 1.54939 0
M  V30 4792 O 453.153 0.2427 1.9298 0
M  V30 4793 C 453.436 3.53086 0.70725 0
M  V30 4794 C 453.289 4.46813 -0.517521 0
M  V30 4795 C 454.608 4.12245 1.54084 0
M  V30 4796 H 451.727 0.727268 0.119373 0
M  V30 4797 H 454.369 1.85932 -0.391076 0
M  V30 4798 H 452.519 3.65253 1.32372 0
M  V30 4799 H 454.191 4.46579 -1.15607 0
M  V30 4800 H 452.434 4.18163 -1.1542 0
M  V30 4801 H 453.105 5.51595 -0.211426 0
M  V30 4802 H 455.581 4.03401 1.02013 0
M  V30 4803 H 454.457 5.19515 1.77186 0
M  V30 4804 H 454.718 3.62951 2.52427 0
M  V30 4805 N 453.777 0.010035 1.57597 0
M  V30 4806 C 454.687 -0.994226 2.12491 0
M  V30 4807 C 455.703 -1.37013 1.07254 0
M  V30 4808 O 456.879 -1.45542 1.3921 0
M  V30 4809 C 453.944 -2.2642 2.62555 0
M  V30 4810 C 453.005 -1.95049 3.82432 0
M  V30 4811 C 452.238 -3.15991 4.30099 0
M  V30 4812 O 452.461 -4.28015 3.7704 0
M  V30 4813 O 451.395 -2.99403 5.22151 0
M  V30 4814 H 455.221 -0.557549 2.98538 0
M  V30 4815 H 452.806 -0.209413 1.47925 0
M  V30 4816 H 454.688 -3.01009 2.9491 0
M  V30 4817 H 453.363 -2.69306 1.796 0
M  V30 4818 H 452.27 -1.17904 3.55034 0
M  V30 4819 H 453.603 -1.56992 4.66491 0
M  V30 4820 N 455.255 -1.55392 -0.262866 0
M  V30 4821 C 456.502 -1.76476 -0.993109 0
M  V30 4822 C 456.83 -0.571479 -1.85915 0
M  V30 4823 O 456.085 0.445733 -1.90556 0
M  V30 4824 C 456.384 -3.02889 -1.89718 0
M  V30 4825 C 456.05 -4.34974 -1.18781 0
M  V30 4826 C 454.712 -4.7087 -0.991699 0
M  V30 4827 C 457.064 -5.16695 -0.683798 0
M  V30 4828 C 454.392 -5.86036 -0.279024 0
M  V30 4829 C 456.744 -6.32598 0.0153327 0
M  V30 4830 C 455.408 -6.67127 0.223062 0
M  V30 4831 H 454.678 -0.64577 -0.363404 0
M  V30 4832 H 457.325 -1.89664 -0.264525 0
M  V30 4833 H 455.63 -2.84644 -2.6923 0
M  V30 4834 H 457.327 -3.16399 -2.46359 0
M  V30 4835 H 453.917 -4.06765 -1.35058 0
M  V30 4836 H 458.101 -4.8943 -0.8229 0
M  V30 4837 H 453.357 -6.11306 -0.107456 0
M  V30 4838 H 457.531 -6.95171 0.413584 0
M  V30 4839 H 455.158 -7.56216 0.777265 0
M  V30 4840 N 456.733 0.527833 -1.48498 0
M  V30 4841 C 458.149 0.856571 -1.34666 0
M  V30 4842 C 458.349 1.98271 -0.35931 0
M  V30 4843 O 457.405 2.51551 0.218703 0
M  V30 4844 C 458.718 1.22207 -2.74747 0
M  V30 4845 C 460.266 1.33183 -2.83251 0
M  V30 4846 C 460.741 1.73075 -4.24039 0
M  V30 4847 N 462.232 1.80174 -4.26722 0
M  V30 4848 C 462.967 2.1243 -5.32598 0
M  V30 4849 N 462.463 2.43096 -6.4875 0
M  V30 4850 N 464.256 2.13454 -5.19994 0
M  V30 4851 H 456.407 -0.215174 -2.11307 0
M  V30 4852 H 458.67 -0.0336281 -0.947403 0
M  V30 4853 H 458.376 0.468195 -3.4857 0
M  V30 4854 H 458.25 2.17173 -3.08409 0
M  V30 4855 H 460.637 2.07647 -2.09683 0
M  V30 4856 H 460.718 0.363333 -2.53206 0
M  V30 4857 H 460.362 0.991712 -4.98124 0
M  V30 4858 H 460.292 2.70979 -4.51529 0
M  V30 4859 H 462.783 1.58744 -3.42942 0
M  V30 4860 H 463.096 2.6682 -7.25277 0
M  V30 4861 H 461.441 2.40611 -6.52021 0
M  V30 4862 H 464.632 1.88956 -4.28268 0
M  V30 4863 H 464.805 2.38261 -6.02608 0
M  V30 4864 N 458.211 1.37122 0.776871 0
M  V30 4865 C 459.439 1.3523 1.5659 0
M  V30 4866 C 459.854 -0.0635518 1.88693 0
M  V30 4867 O 459.211 -1.02394 1.51069 0
M  V30 4868 C 459.262 2.18583 2.8793 0
M  V30 4869 O 458.983 3.5465 2.57206 0
M  V30 4870 C 460.484 2.24612 3.82183 0
M  V30 4871 H 457.704 0.4634 0.485285 0
M  V30 4872 H 460.248 1.80392 0.963266 0
M  V30 4873 H 458.403 1.76943 3.4463 0
M  V30 4874 H 458.817 3.98286 3.41275 0
M  V30 4875 H 460.291 2.87267 4.71361 0
M  V30 4876 H 460.768 1.25309 4.20944 0
M  V30 4877 H 461.374 2.66543 3.31414 0
M  V30 4878 N 459.689 -1.00246 1.21608 0
M  V30 4879 C 460.619 -2.10921 1.00172 0
M  V30 4880 C 461.6 -1.69938 -0.0741587 0
M  V30 4881 O 462.785 -1.94009 0.0861753 0
M  V30 4882 C 459.915 -3.42618 0.568355 0
M  V30 4883 C 458.869 -3.97407 1.58909 0
M  V30 4884 C 458.195 -5.25038 1.01187 0
M  V30 4885 C 459.495 -4.2918 2.97661 0
M  V30 4886 H 461.189 -2.29112 1.92739 0
M  V30 4887 H 458.735 -1.10101 0.928102 0
M  V30 4888 H 460.688 -4.19444 0.405555 0
M  V30 4889 H 459.412 -3.24227 -0.392961 0
M  V30 4890 H 458.071 -3.22703 1.73949 0
M  V30 4891 H 457.719 -5.02982 0.0421965 0
M  V30 4892 H 457.419 -5.62661 1.6937 0
M  V30 4893 H 458.943 -6.04507 0.860448 0
M  V30 4894 H 460.357 -4.96839 2.86049 0
M  V30 4895 H 458.754 -4.77952 3.6288 0
M  V30 4896 H 459.824 -3.3735 3.48315 0
M  V30 4897 N 461.167 -1.02423 -1.1978 0
M  V30 4898 C 462.1 -0.545641 -2.21581 0
M  V30 4899 C 463.078 0.411024 -1.57319 0
M  V30 4900 O 464.262 0.329223 -1.85603 0
M  V30 4901 C 461.389 0.204973 -3.38079 0
M  V30 4902 C 460.435 -0.70241 -4.20676 0
M  V30 4903 S 461.268 -2.17595 -4.89298 0
M  V30 4904 C 462.424 -1.43572 -6.09211 0
M  V30 4905 H 462.657 -1.4082 -2.61834 0
M  V30 4906 H 460.19 -0.833771 -1.29952 0
M  V30 4907 H 462.148 0.631924 -4.05607 0
M  V30 4908 H 460.809 1.0432 -2.9627 0
M  V30 4909 H 460.002 -0.123193 -5.03849 0
M  V30 4910 H 459.604 -1.06747 -3.58442 0
M  V30 4911 H 461.896 -0.719806 -6.73665 0
M  V30 4912 H 462.839 -2.24388 -6.71607 0
M  V30 4913 H 463.247 -0.935252 -5.56699 0
M  V30 4914 N 462.645 1.35699 -0.801477 0
M  V30 4915 C 463.592 2.29876 -0.206294 0
M  V30 4916 C 464.562 1.52565 0.656752 0
M  V30 4917 O 465.747 1.81024 0.602906 0
M  V30 4918 C 462.887 3.39052 0.643272 0
M  V30 4919 C 462 4.31335 -0.239644 0
M  V30 4920 C 461.135 5.27599 0.61744 0
M  V30 4921 C 460.174 6.11521 -0.26619 0
M  V30 4922 N 459.311 6.99938 0.550571 0
M  V30 4923 H 464.151 2.80187 -1.01484 0
M  V30 4924 H 461.688 1.37902 -0.511997 0
M  V30 4925 H 463.646 4.0101 1.15094 0
M  V30 4926 H 462.276 2.9003 1.41713 0
M  V30 4927 H 461.328 3.70426 -0.865381 0
M  V30 4928 H 462.64 4.90243 -0.919985 0
M  V30 4929 H 461.794 5.94906 1.19045 0
M  V30 4930 H 460.533 4.69176 1.33137 0
M  V30 4931 H 459.538 5.43166 -0.851507 0
M  V30 4932 H 460.763 6.72022 -0.9779 0
M  V30 4933 H 458.709 6.44008 1.24856 0
M  V30 4934 H 458.626 7.55966 -0.071832 0
M  V30 4935 H 459.894 7.71599 1.10702 0
M  V30 4936 N 464.123 0.554532 1.47522 0
M  V30 4937 C 465.086 -0.184174 2.28459 0
M  V30 4938 C 466.086 -0.845195 1.36796 0
M  V30 4939 O 467.276 -0.701467 1.59452 0
M  V30 4940 C 464.408 -1.26903 3.16399 0
M  V30 4941 H 465.601 0.526751 2.95238 0
M  V30 4942 H 463.154 0.311375 1.53167 0
M  V30 4943 H 463.889 -2.01244 2.54306 0
M  V30 4944 H 463.674 -0.799883 3.83854 0
M  V30 4945 H 465.164 -1.78794 3.77389 0
M  V30 4946 N 465.601 -1.54893 0.290851 0
M  V30 4947 C 466.831 -2.04047 -0.323818 0
M  V30 4948 C 467.239 -1.16809 -1.48837 0
M  V30 4949 O 466.582 -0.184145 -1.82775 0
M  V30 4950 C 466.644 -3.49248 -0.852395 0
M  V30 4951 C 466.308 -4.56623 0.185557 0
M  V30 4952 C 467.305 -5.09985 1.01053 0
M  V30 4953 C 464.99 -5.01252 0.324332 0
M  V30 4954 C 466.984 -6.06507 1.96031 0
M  V30 4955 C 464.671 -5.97596 1.27757 0
M  V30 4956 C 465.669 -6.50107 2.09405 0
M  V30 4957 O 465.357 -7.44565 3.03114 0
M  V30 4958 H 465.089 -0.671735 -0.0758129 0
M  V30 4959 H 467.643 -2.00947 0.425393 0
M  V30 4960 H 465.873 -3.49639 -1.65195 0
M  V30 4961 H 467.562 -3.81654 -1.38185 0
M  V30 4962 H 468.328 -4.76307 0.914129 0
M  V30 4963 H 464.207 -4.60015 -0.301213 0
M  V30 4964 H 467.751 -6.47418 2.598 0
M  V30 4965 H 463.648 -6.30691 1.37473 0
M  V30 4966 H 464.416 -7.62334 2.97976 0
M  V30 4967 N 467.08 -0.0183926 -1.57589 0
M  V30 4968 C 468.328 0.661253 -1.90976 0
M  V30 4969 C 468.649 1.73281 -0.894353 0
M  V30 4970 O 467.919 1.9579 0.0656788 0
M  V30 4971 H 466.499 0.247233 -0.704901 0
M  V30 4972 H 469.161 -0.0636639 -1.94796 0
M  V30 4973 H 468.257 1.12083 -2.9128 0
M  V30 4974 N 468.558 1.5553 0.254621 0
M  V30 4975 C 469.807 1.76202 0.981612 0
M  V30 4976 C 470.12 0.580883 1.86776 0
M  V30 4977 O 471.326 0.670448 2.63092 0
M  V30 4978 C 469.782 3.11921 1.79537 0
M  V30 4979 C 469.39 4.37659 0.956991 0
M  V30 4980 C 471.134 3.41936 2.51555 0
M  V30 4981 C 469.041 5.64411 1.76619 0
M  V30 4982 H 467.971 0.656841 0.370237 0
M  V30 4983 H 470.622 1.81969 0.236556 0
M  V30 4984 H 469.004 3.00241 2.58208 0
M  V30 4985 H 470.178 4.60307 0.21315 0
M  V30 4986 H 468.493 4.14922 0.350497 0
M  V30 4987 H 471.09 4.33849 3.12536 0
M  V30 4988 H 471.433 2.62905 3.22779 0
M  V30 4989 H 471.966 3.54797 1.799 0
M  V30 4990 H 468.705 6.46241 1.09783 0
M  V30 4991 H 468.225 5.45877 2.48551 0
M  V30 4992 H 469.904 6.03386 2.33527 0
M  V30 4993 N 470.036 -0.519951 1.48776 0
M  V30 4994 C 471.452 -0.849418 1.35119 0
M  V30 4995 C 471.652 -1.98077 0.36982 0
M  V30 4996 O 470.708 -2.51664 -0.205359 0
M  V30 4997 C 472.021 -1.20748 2.75391 0
M  V30 4998 C 473.569 -1.31679 2.83954 0
M  V30 4999 C 474.044 -1.70824 4.24951 0
M  V30 5000 N 475.535 -1.77908 4.27672 0
M  V30 5001 C 476.27 -2.09603 5.33717 0
M  V30 5002 N 475.766 -2.39652 6.5003 0
M  V30 5003 N 477.559 -2.10694 5.21119 0
M  V30 5004 H 469.71 0.226377 2.1119 0
M  V30 5005 H 471.973 0.0386519 0.947212 0
M  V30 5006 H 471.679 -0.449703 3.48813 0
M  V30 5007 H 471.553 -2.15534 3.09556 0
M  V30 5008 H 473.94 -2.06532 2.10781 0
M  V30 5009 H 474.021 -0.3499 2.53396 0
M  V30 5010 H 473.665 -0.965282 4.98643 0
M  V30 5011 H 473.595 -2.6858 4.52959 0
M  V30 5012 H 476.086 -1.56923 3.43779 0
M  V30 5013 H 476.399 -2.6297 7.26682 0
M  V30 5014 H 474.744 -2.37149 6.53288 0
M  V30 5015 H 477.935 -1.86682 4.29264 0
M  V30 5016 H 478.108 -2.35062 6.03863 0
M  V30 5017 N 471.514 -1.37532 -0.769588 0
M  V30 5018 C 472.761 -1.3286 -1.52822 0
M  V30 5019 C 473.089 0.0862597 -1.94309 0
M  V30 5020 O 472.344 1.05995 -1.6451 0
M  V30 5021 C 472.643 -2.21558 -2.8044 0
M  V30 5022 C 472.309 -3.69796 -2.57996 0
M  V30 5023 C 470.971 -4.10194 -2.51583 0
M  V30 5024 C 473.323 -4.63699 -2.37976 0
M  V30 5025 C 470.651 -5.42608 -2.23144 0
M  V30 5026 C 473.003 -5.96353 -2.1106 0
M  V30 5027 C 471.667 -6.35853 -2.03093 0
M  V30 5028 H 470.937 -0.486168 -0.559215 0
M  V30 5029 H 473.584 -1.69757 -0.886277 0
M  V30 5030 H 471.889 -1.77663 -3.49204 0
M  V30 5031 H 473.586 -2.15256 -3.38328 0
M  V30 5032 H 470.176 -3.37759 -2.63851 0
M  V30 5033 H 474.36 -4.33346 -2.41919 0
M  V30 5034 H 469.616 -5.72173 -2.15472 0
M  V30 5035 H 473.79 -6.68667 -1.94568 0
M  V30 5036 H 471.417 -7.38382 -1.8082 0
M  V30 5037 N 472.992 0.995999 -1.22138 0
M  V30 5038 C 474.269 1.70834 -0.952642 0
M  V30 5039 C 474.649 2.04257 0.533119 0
M  V30 5040 O 473.997 1.72343 1.50034 0
M  V30 5041 C 474.207 2.96119 -1.84701 0
M  V30 5042 C 475.555 3.68962 -2.10124 0
M  V30 5043 O 476.579 3.0612 -1.82124 0
M  V30 5044 O 475.438 4.82017 -2.57531 0
M  V30 5045 H 472.532 0.745498 -0.357997 0
M  V30 5046 H 475.078 1.05262 -1.33109 0
M  V30 5047 H 473.85 2.67898 -2.85213 0
M  V30 5048 H 473.473 3.6943 -1.46995 0
M  V30 5049 N 474.47 1.03057 1.19235 0
M  V30 5050 C 475.716 0.729098 1.89241 0
M  V30 5051 C 476.049 -0.740573 1.79525 0
M  V30 5052 O 475.324 -1.53946 1.18874 0
M  V30 5053 C 475.607 1.18304 3.40112 0
M  V30 5054 C 475.46 2.71406 3.5869 0
M  V30 5055 C 476.779 0.765161 4.33397 0
M  V30 5056 H 473.898 0.266338 0.687192 0
M  V30 5057 H 476.54 1.28079 1.40341 0
M  V30 5058 H 474.69 0.713672 3.81889 0
M  V30 5059 H 476.362 3.26303 3.26074 0
M  V30 5060 H 474.605 3.11717 3.01687 0
M  V30 5061 H 475.276 2.98225 4.64506 0
M  V30 5062 H 477.752 1.16889 3.99345 0
M  V30 5063 H 476.628 1.11065 5.37546 0
M  V30 5064 H 476.889 -0.332372 4.40849 0
M  V30 5065 N 475.948 -1.35272 0.808662 0
M  V30 5066 C 476.881 -2.27595 0.165994 0
M  V30 5067 C 477.859 -1.48189 -0.669241 0
M  V30 5068 O 479.043 -1.77444 -0.636073 0
M  V30 5069 C 476.17 -3.29843 -0.769505 0
M  V30 5070 C 475.216 -4.26498 -0.0136267 0
M  V30 5071 S 476.049 -5.18878 1.32384 0
M  V30 5072 C 477.205 -6.24666 0.392838 0
M  V30 5073 H 477.438 -2.81755 0.948756 0
M  V30 5074 H 474.971 -1.42103 0.603828 0
M  V30 5075 H 476.929 -3.89247 -1.30374 0
M  V30 5076 H 475.59 -2.74558 -1.52567 0
M  V30 5077 H 474.783 -4.98769 -0.724227 0
M  V30 5078 H 474.385 -3.71274 0.450713 0
M  V30 5079 H 476.677 -6.7619 -0.4211 0
M  V30 5080 H 477.62 -6.99741 1.0848 0
M  V30 5081 H 478.028 -5.64499 -0.0123908 0
M  V30 5082 N 477.426 -0.562348 -1.47226 0
M  V30 5083 C 478.672 -0.0402761 -2.0276 0
M  V30 5084 C 479.005 1.30823 -1.43523 0
M  V30 5085 O 478.28 1.85249 -0.592705 0
M  V30 5086 C 478.563 0.047311 -3.60069 0
M  V30 5087 C 478.416 -1.32865 -4.29729 0
M  V30 5088 C 479.735 0.758182 -4.3352 0
M  V30 5089 H 476.854 -0.0161105 -0.736824 0
M  V30 5090 H 479.496 -0.725628 -1.75598 0
M  V30 5091 H 477.646 0.630986 -3.83342 0
M  V30 5092 H 479.318 -1.95593 -4.17781 0
M  V30 5093 H 477.561 -1.90195 -3.89882 0
M  V30 5094 H 478.232 -1.22004 -5.38349 0
M  V30 5095 H 480.708 0.262546 -4.15271 0
M  V30 5096 H 479.584 0.78844 -5.43208 0
M  V30 5097 H 479.845 1.81537 -4.03109 0
M  V30 5098 N 478.904 1.54736 -0.299062 0
M  V30 5099 C 479.852 2.24897 0.593658 0
M  V30 5100 C 480.846 1.25429 1.13859 0
M  V30 5101 O 482.052 1.43286 1.08945 0
M  V30 5102 H 478.427 0.72207 0.210046 0
M  V30 5103 H 480.398 2.98393 -0.0206421 0
M  V30 5104 C 479.147 3.00159 1.75499 0
M  V30 5105 H 478.47 3.76501 1.34489 0
M  V30 5106 H 479.91 3.52535 2.35574 0
M  V30 5107 C 478.369 2.07015 2.65794 0
M  V30 5108 O 478.899 1.63692 3.66835 0
M  V30 5109 N 477.105 1.73012 2.33485 0
M  V30 5110 H 476.652 2.08439 1.51364 0
M  V30 5111 H 476.61 1.10965 2.94167 0
M  V30 5112 N 480.382 0.0267497 1.57577 0
M  V30 5113 C 481.63 -0.651116 1.91324 0
M  V30 5114 C 481.951 -1.72804 0.90353 0
M  V30 5115 O 481.221 -1.95822 -0.0552946 0
M  V30 5116 H 479.801 -0.243491 0.706202 0
M  V30 5117 H 482.463 0.0739935 1.94759 0
M  V30 5118 H 481.559 -1.10536 2.9187 0
M  V30 5119 N 481.861 -1.55662 -0.24637 0
M  V30 5120 C 482.808 -1.90361 -1.30504 0
M  V30 5121 C 483.778 -0.757905 -1.47801 0
M  V30 5122 O 484.963 -1.01161 -1.61775 0
M  V30 5123 C 482.103 -2.2042 -2.65535 0
M  V30 5124 C 481.216 -3.47799 -2.56242 0
M  V30 5125 C 480.351 -3.67426 -3.8363 0
M  V30 5126 C 479.39 -4.88403 -3.68956 0
M  V30 5127 N 478.527 -5.04548 -4.88237 0
M  V30 5128 H 483.367 -2.80645 -1.00213 0
M  V30 5129 H 480.904 -1.38924 -0.483577 0
M  V30 5130 H 482.862 -2.35853 -3.44135 0
M  V30 5131 H 481.492 -1.3334 -2.93973 0
M  V30 5132 H 480.544 -3.40694 -1.69208 0
M  V30 5133 H 481.856 -4.36544 -2.4131 0
M  V30 5134 H 481.01 -3.82821 -4.70673 0
M  V30 5135 H 479.749 -2.76914 -4.01459 0
M  V30 5136 H 478.754 -4.72984 -2.80296 0
M  V30 5137 H 479.979 -5.80375 -3.52621 0
M  V30 5138 H 477.925 -4.16974 -5.06427 0
M  V30 5139 H 477.842 -5.87384 -4.75937 0
M  V30 5140 H 479.11 -5.24355 -5.76777 0
M  V30 5141 N 483.339 0.512053 -1.4905 0
M  V30 5142 C 484.587 1.26436 -1.57665 0
M  V30 5143 C 484.908 1.93255 -0.260293 0
M  V30 5144 O 484.178 1.82206 0.719564 0
M  V30 5145 H 482.758 0.469658 -0.580888 0
M  V30 5146 H 485.42 0.594398 -1.85615 0
M  V30 5147 H 484.516 2.03417 -2.36702 0
M  V30 5148 N 484.817 1.37938 0.762283 0
M  V30 5149 C 485.78 1.34279 1.85747 0
M  V30 5150 C 486.78 0.244969 1.58923 0
M  V30 5151 O 487.97 0.501365 1.66829 0
M  V30 5152 C 485.102 1.08833 3.23061 0
M  V30 5153 H 486.295 2.31705 1.90401 0
M  V30 5154 H 483.848 1.23105 0.963057 0
M  V30 5155 H 484.583 0.119767 3.24079 0
M  V30 5156 H 484.368 1.88306 3.43923 0
M  V30 5157 H 485.858 1.08946 4.03138 0
M  V30 5158 N 486.295 -0.989507 1.22664 0
M  V30 5159 C 487.542 -1.72953 1.05325 0
M  V30 5160 C 487.87 -1.90104 -0.411168 0
M  V30 5161 O 487.125 -1.44386 -1.32103 0
M  V30 5162 C 487.424 -3.13649 1.71345 0
M  V30 5163 C 487.09 -3.16403 3.21248 0
M  V30 5164 C 485.752 -3.16862 3.62149 0
M  V30 5165 C 488.104 -3.12428 4.17179 0
M  V30 5166 C 485.432 -3.11051 4.97458 0
M  V30 5167 C 487.784 -3.08159 5.52468 0
M  V30 5168 C 486.448 -3.06935 5.92746 0
M  V30 5169 H 485.718 -0.632881 0.385412 0
M  V30 5170 H 488.365 -1.15863 1.52473 0
M  V30 5171 H 486.67 -3.74069 1.16532 0
M  V30 5172 H 488.367 -3.69658 1.55416 0
M  V30 5173 H 484.957 -3.16798 2.88682 0
M  V30 5174 H 489.141 -3.11221 3.86595 0
M  V30 5175 H 484.397 -3.0845 5.27891 0
M  V30 5176 H 488.571 -3.04039 6.26525 0
M  V30 5177 H 486.198 -3.02186 6.97558 0
M  V30 5178 N 487.773 -1.03688 -1.18687 0
M  V30 5179 C 489.02 -0.73803 -1.88572 0
M  V30 5180 C 489.348 0.733973 -1.8012 0
M  V30 5181 O 488.603 1.55098 -1.19344 0
M  V30 5182 C 488.902 -1.14477 -3.3857 0
M  V30 5183 C 488.568 -2.61641 -3.67226 0
M  V30 5184 C 487.23 -3.01846 -3.74757 0
M  V30 5185 C 489.582 -3.56812 -3.79914 0
M  V30 5186 C 486.91 -4.36118 -3.92451 0
M  V30 5187 C 489.262 -4.90799 -3.99123 0
M  V30 5188 C 487.926 -5.3068 -4.04888 0
M  V30 5189 H 487.196 -0.270064 -0.690034 0
M  V30 5190 H 489.843 -1.3012 -1.40503 0
M  V30 5191 H 488.148 -0.500337 -3.88592 0
M  V30 5192 H 489.845 -0.89095 -3.90977 0
M  V30 5193 H 486.435 -2.29498 -3.61979 0
M  V30 5194 H 490.619 -3.26899 -3.73431 0
M  V30 5195 H 485.875 -4.66542 -3.95157 0
M  V30 5196 H 490.049 -5.64451 -4.07882 0
M  V30 5197 H 487.676 -6.34733 -4.18351 0
M  V30 5198 N 489.251 1.34841 -0.815825 0
M  V30 5199 C 490.491 2.00321 -0.406297 0
M  V30 5200 C 490.855 1.63293 1.00992 0
M  V30 5201 O 492.056 2.21563 1.52195 0
M  V30 5202 C 490.327 3.52421 -0.594469 0
M  V30 5203 S 491.886 4.37926 -0.276735 0
M  V30 5204 H 488.704 0.694155 -0.153848 0
M  V30 5205 H 491.306 1.64263 -1.06009 0
M  V30 5206 H 490.01 3.76858 -1.625 0
M  V30 5207 H 489.541 3.9333 0.0743157 0
M  V30 5208 H 491.556 4.87743 0.912215 0
M  V30 5209 N 490.729 0.570148 1.46925 0
M  V30 5210 C 492.006 -0.0153259 1.95594 0
M  V30 5211 C 492.386 -1.47232 1.51281 0
M  V30 5212 O 491.734 -2.15574 0.757624 0
M  V30 5213 C 491.944 0.143624 3.48704 0
M  V30 5214 C 493.292 0.00494484 4.246 0
M  V30 5215 O 494.316 0.0718214 3.56128 0
M  V30 5216 O 493.175 -0.141175 5.46318 0
M  V30 5217 H 490.269 -0.0568819 0.825041 0
M  V30 5218 H 492.815 0.637583 1.57267 0
M  V30 5219 H 491.587 1.15699 3.73804 0
M  V30 5220 H 491.21 -0.5463 3.93829 0
M  V30 5221 N 492.207 -1.54576 0.307264 0
M  V30 5222 C 493.137 -2.26708 -0.55907 0
M  V30 5223 C 494.118 -1.26893 -1.1328 0
M  V30 5224 O 495.303 -1.55677 -1.16097 0
M  V30 5225 C 492.433 -3.01259 -1.72801 0
M  V30 5226 C 491.387 -4.08275 -1.28435 0
M  V30 5227 C 490.713 -4.70575 -2.53895 0
M  V30 5228 C 492.013 -5.2068 -0.411038 0
M  V30 5229 H 493.707 -2.9937 0.042576 0
M  V30 5230 H 491.253 -1.43983 0.0219173 0
M  V30 5231 H 493.206 -3.50444 -2.34023 0
M  V30 5232 H 491.93 -2.26187 -2.356 0
M  V30 5233 H 490.589 -3.59949 -0.695161 0
M  V30 5234 H 490.237 -3.92136 -3.15021 0
M  V30 5235 H 489.937 -5.42854 -2.24908 0
M  V30 5236 H 491.461 -5.22527 -3.15908 0
M  V30 5237 H 492.875 -5.65721 -0.929097 0
M  V30 5238 H 491.272 -5.99716 -0.214664 0
M  V30 5239 H 492.342 -4.81629 0.562287 0
M  V30 5240 N 493.685 -0.035106 -1.57561 0
M  V30 5241 C 494.931 0.64318 -1.92331 0
M  V30 5242 C 495.264 1.71434 -0.912368 0
M  V30 5243 O 494.539 1.94395 0.0640303 0
M  V30 5244 C 494.822 1.25411 -3.37556 0
M  V30 5245 C 494.675 0.192109 -4.4939 0
M  V30 5246 C 495.994 2.17041 -3.82859 0
M  V30 5247 H 493.113 0.232341 -0.699419 0
M  V30 5248 H 495.755 -0.0935889 -1.89769 0
M  V30 5249 H 493.905 1.88205 -3.39869 0
M  V30 5250 H 495.577 -0.438849 -4.59208 0
M  V30 5251 H 493.82 -0.481725 -4.31117 0
M  V30 5252 H 494.491 0.659292 -5.48049 0
M  V30 5253 H 496.967 1.64228 -3.8232 0
M  V30 5254 H 495.843 2.56738 -4.85157 0
M  V30 5255 H 496.104 3.06401 -3.18702 0
M  V30 5256 N 495.163 1.55791 0.238111 0
M  V30 5257 C 496.093 1.94068 1.29846 0
M  V30 5258 C 497.074 0.806726 1.49753 0
M  V30 5259 O 498.259 1.06772 1.62214 0
M  V30 5260 C 495.389 2.24302 2.65153 0
M  V30 5261 C 494.343 3.40032 2.59927 0
M  V30 5262 C 493.669 3.55829 3.99111 0
M  V30 5263 C 494.969 4.75476 2.16148 0
M  V30 5264 H 496.663 2.82887 0.980563 0
M  V30 5265 H 494.209 1.36105 0.470253 0
M  V30 5266 H 496.162 2.4967 3.39475 0
M  V30 5267 H 494.886 1.32318 2.98596 0
M  V30 5268 H 493.545 3.14687 1.88063 0
M  V30 5269 H 493.193 2.6125 4.29834 0
M  V30 5270 H 492.893 4.3366 3.96501 0
M  V30 5271 H 494.417 3.83528 4.7512 0
M  V30 5272 H 495.831 5.00158 2.80205 0
M  V30 5273 H 494.228 5.56472 2.24631 0
M  V30 5274 H 495.298 4.71946 1.11333 0
M  V30 5275 N 496.642 -0.504142 1.49319 0
M  V30 5276 C 497.891 -1.25507 1.57895 0
M  V30 5277 C 498.204 -1.93735 0.269433 0
M  V30 5278 O 499.41 -2.70492 0.233706 0
M  V30 5279 C 497.866 -2.27869 2.78574 0
M  V30 5280 C 497.474 -1.65594 4.16272 0
M  V30 5281 C 499.218 -3.0381 2.96479 0
M  V30 5282 C 497.125 -2.66048 5.28178 0
M  V30 5283 H 496.055 -0.47212 0.587894 0
M  V30 5284 H 498.706 -0.52931 1.757 0
M  V30 5285 H 497.088 -3.03594 2.54257 0
M  V30 5286 H 498.262 -0.958826 4.50714 0
M  V30 5287 H 496.577 -1.02055 4.037 0
M  V30 5288 H 499.174 -3.78925 3.77253 0
M  V30 5289 H 499.517 -3.61235 2.06918 0
M  V30 5290 H 500.05 -2.352 3.20821 0
M  V30 5291 H 496.789 -2.13408 6.19788 0
M  V30 5292 H 496.309 -3.34009 4.98195 0
M  V30 5293 H 497.988 -3.28536 5.57381 0
M  V30 5294 N 498.12 -1.38341 -0.754957 0
M  V30 5295 C 499.35 -1.37504 -1.54195 0
M  V30 5296 C 499.758 0.0373787 -1.89163 0
M  V30 5297 O 499.101 1.01402 -1.53178 0
M  V30 5298 C 499.163 -2.16488 -2.87008 0
M  V30 5299 C 498.827 -3.65311 -2.74585 0
M  V30 5300 C 499.824 -4.58834 -2.44474 0
M  V30 5301 C 497.509 -4.08649 -2.9208 0
M  V30 5302 C 499.503 -5.93675 -2.32011 0
M  V30 5303 C 497.19 -5.43571 -2.79237 0
M  V30 5304 C 498.188 -6.35898 -2.49245 0
M  V30 5305 O 497.876 -7.68338 -2.36458 0
M  V30 5306 H 497.608 -0.472159 -0.483779 0
M  V30 5307 H 500.162 -1.82515 -0.94221 0
M  V30 5308 H 498.392 -1.66194 -3.49166 0
M  V30 5309 H 500.081 -2.08076 -3.4851 0
M  V30 5310 H 500.847 -4.26657 -2.30627 0
M  V30 5311 H 496.726 -3.37134 -3.14422 0
M  V30 5312 H 500.27 -6.65706 -2.08522 0
M  V30 5313 H 496.167 -5.75345 -2.92657 0
M  V30 5314 H 496.935 -7.78845 -2.5168 0
M  V30 5315 N 499.598 0.982988 -1.23187 0
M  V30 5316 C 500.528 2.09301 -1.03515 0
M  V30 5317 C 501.509 1.70035 0.0471136 0
M  V30 5318 O 502.694 1.93847 -0.117029 0
M  V30 5319 C 499.824 3.4167 -0.622791 0
M  V30 5320 C 498.778 3.94828 -1.65211 0
M  V30 5321 C 498.104 5.23362 -1.09527 0
M  V30 5322 C 499.404 4.2439 -3.04451 0
M  V30 5323 H 501.098 2.26016 -1.96359 0
M  V30 5324 H 498.644 1.08611 -0.945501 0
M  V30 5325 H 500.597 4.18746 -0.472233 0
M  V30 5326 H 499.321 3.24811 0.341329 0
M  V30 5327 H 497.98 3.19895 -1.79061 0
M  V30 5328 H 497.628 5.02852 -0.122211 0
M  V30 5329 H 497.328 5.59895 -1.783 0
M  V30 5330 H 498.852 6.03062 -0.956511 0
M  V30 5331 H 500.266 4.92225 -2.93917 0
M  V30 5332 H 498.663 4.72118 -3.70438 0
M  V30 5333 H 499.733 3.31765 -3.53638 0
M  V30 5334 N 501.076 1.04316 1.18135 0
M  V30 5335 C 502.325 0.74319 1.87509 0
M  V30 5336 C 502.638 -0.732136 1.81381 0
M  V30 5337 O 503.844 -1.14572 2.46141 0
M  V30 5338 C 502.3 1.27913 3.36402 0
M  V30 5339 C 501.908 2.78326 3.51053 0
M  V30 5340 C 503.652 1.0558 4.11161 0
M  V30 5341 C 501.559 3.25266 4.93919 0
M  V30 5342 H 500.489 0.274313 0.702331 0
M  V30 5343 H 503.14 1.25931 1.33467 0
M  V30 5344 H 501.522 0.690853 3.89927 0
M  V30 5345 H 502.696 3.42933 3.07788 0
M  V30 5346 H 501.011 2.991 2.89704 0
M  V30 5347 H 503.608 1.38161 5.16542 0
M  V30 5348 H 503.951 -0.00684729 4.16299 0
M  V30 5349 H 504.484 1.60882 3.63816 0
M  V30 5350 H 501.223 4.30922 4.9395 0
M  V30 5351 H 500.743 2.65396 5.3789 0
M  V30 5352 H 502.422 3.19433 5.62647 0
M  V30 5353 N 502.554 -1.34406 0.822964 0
M  V30 5354 C 503.501 -2.29519 0.24284 0
M  V30 5355 C 504.471 -1.5359 -0.632397 0
M  V30 5356 O 505.656 -1.8196 -0.57403 0
M  V30 5357 C 502.796 -3.40032 -0.58925 0
M  V30 5358 C 501.909 -4.30899 0.308236 0
M  V30 5359 C 501.044 -5.28515 -0.533425 0
M  V30 5360 C 500.083 -6.1102 0.363444 0
M  V30 5361 N 499.22 -7.00725 -0.439147 0
M  V30 5362 H 504.06 -2.78537 1.05929 0
M  V30 5363 H 501.597 -1.3707 0.533872 0
M  V30 5364 H 503.555 -4.0279 -1.087 0
M  V30 5365 H 502.185 -2.92248 -1.37081 0
M  V30 5366 H 501.237 -3.69002 0.924203 0
M  V30 5367 H 502.549 -4.88717 0.997862 0
M  V30 5368 H 501.703 -5.96725 -1.09565 0
M  V30 5369 H 500.442 -4.71235 -1.25656 0
M  V30 5370 H 499.447 -5.41743 0.937812 0
M  V30 5371 H 500.672 -6.70381 1.08469 0
M  V30 5372 H 498.618 -6.45913 -1.14595 0
M  V30 5373 H 498.535 -7.55756 0.19209 0
M  V30 5374 H 499.803 -7.73263 -0.984124 0
M  V30 5375 N 504.032 -0.577932 -1.46621 0
M  V30 5376 C 504.979 0.158048 -2.30258 0
M  V30 5377 C 505.949 0.888669 -1.40328 0
M  V30 5378 O 507.134 0.880283 -1.6928 0
M  V30 5379 C 504.274 1.16884 -3.24703 0
M  V30 5380 C 503.387 0.442163 -4.29731 0
M  V30 5381 C 502.522 1.44007 -5.11308 0
M  V30 5382 C 501.561 0.69952 -6.0809 0
M  V30 5383 N 500.698 1.64525 -6.82551 0
M  V30 5384 H 505.538 -0.561242 -2.92667 0
M  V30 5385 H 503.075 -0.288591 -1.44241 0
M  V30 5386 H 505.033 1.7677 -3.779 0
M  V30 5387 H 503.663 1.85591 -2.64113 0
M  V30 5388 H 502.715 -0.271632 -3.79429 0
M  V30 5389 H 504.027 -0.136992 -4.98612 0
M  V30 5390 H 503.181 2.11186 -5.68758 0
M  V30 5391 H 501.92 2.05315 -4.42377 0
M  V30 5392 H 500.925 0.0139217 -5.49798 0
M  V30 5393 H 502.15 0.091894 -6.79038 0
M  V30 5394 H 500.096 2.24653 -6.16334 0
M  V30 5395 H 500.013 1.11878 -7.47676 0
M  V30 5396 H 501.281 2.30754 -7.44562 0
M  V30 5397 N 505.51 1.54411 -0.315457 0
M  V30 5398 C 506.926 1.59556 0.037464 0
M  V30 5399 C 507.126 1.33217 1.5118 0
M  V30 5400 O 506.182 1.11264 2.26664 0
M  V30 5401 C 507.495 2.98372 -0.373477 0
M  V30 5402 C 509.043 3.11324 -0.323452 0
M  V30 5403 C 509.518 4.52472 -0.709433 0
M  V30 5404 N 511.009 4.58437 -0.662524 0
M  V30 5405 C 511.744 5.65751 -0.933474 0
M  V30 5406 N 511.24 6.81039 -1.27114 0
M  V30 5407 N 513.033 5.55489 -0.859573 0
M  V30 5408 H 505.184 1.6979 -1.27614 0
M  V30 5409 H 507.447 0.793732 -0.518356 0
M  V30 5410 H 507.153 3.22618 -1.40037 0
M  V30 5411 H 507.027 3.76264 0.265615 0
M  V30 5412 H 509.414 2.86818 0.694223 0
M  V30 5413 H 509.495 2.35555 -0.997367 0
M  V30 5414 H 509.139 4.7771 -1.72498 0
M  V30 5415 H 509.069 5.26598 -0.0132923 0
M  V30 5416 H 511.56 3.75636 -0.413065 0
M  V30 5417 H 511.873 7.58816 -1.46348 0
M  V30 5418 H 510.218 6.82555 -1.30932 0
M  V30 5419 H 513.409 4.64299 -0.595324 0
M  V30 5420 H 513.582 6.39036 -1.0741 0
M  V30 5421 N 506.988 0.0434614 1.5754 0
M  V30 5422 C 507.898 -0.94893 2.14552 0
M  V30 5423 C 508.914 -1.34707 1.10136 0
M  V30 5424 O 510.09 -1.42557 1.42266 0
M  V30 5425 C 507.155 -2.208 2.67298 0
M  V30 5426 C 506.216 -1.86893 3.86484 0
M  V30 5427 C 505.449 -3.06797 4.36705 0
M  V30 5428 O 505.672 -4.19921 3.86034 0
M  V30 5429 O 504.606 -2.8826 5.28384 0
M  V30 5430 H 508.432 -0.494099 2.99654 0
M  V30 5431 H 506.017 -0.177989 1.48336 0
M  V30 5432 H 507.899 -2.94686 3.01228 0
M  V30 5433 H 506.574 -2.65436 1.85272 0
M  V30 5434 H 505.481 -1.10347 3.57455 0
M  V30 5435 H 506.814 -1.47062 4.69716 0
M  V30 5436 N 508.466 -1.55915 -0.229846 0
M  V30 5437 C 509.713 -1.78542 -0.955452 0
M  V30 5438 C 510.041 -0.610785 -1.84661 0
M  V30 5439 O 509.296 0.405213 -1.91459 0
M  V30 5440 C 509.595 -3.06845 -1.8325 0
M  V30 5441 C 509.261 -4.37395 -1.09528 0
M  V30 5442 C 507.923 -4.72868 -0.891598 0
M  V30 5443 C 510.275 -5.18029 -0.574046 0
M  V30 5444 C 507.603 -5.86496 -0.154655 0
M  V30 5445 C 509.955 -6.32423 0.149513 0
M  V30 5446 C 508.619 -6.66504 0.364519 0
M  V30 5447 H 507.889 -0.653333 -0.349625 0
M  V30 5448 H 510.536 -1.90183 -0.224235 0
M  V30 5449 H 508.841 -2.90291 -2.63132 0
M  V30 5450 H 510.538 -3.21553 -2.39592 0
M  V30 5451 H 507.128 -4.09538 -1.26399 0
M  V30 5452 H 511.312 -4.91066 -0.718899 0
M  V30 5453 H 506.568 -6.11396 0.0222356 0
M  V30 5454 H 510.742 -6.94137 0.560947 0
M  V30 5455 H 508.369 -7.54397 0.937495 0
M  V30 5456 N 509.944 0.496216 -1.49584 0
M  V30 5457 C 511.174 1.27209 -1.62793 0
M  V30 5458 C 511.582 1.86799 -0.300476 0
M  V30 5459 O 510.925 1.68802 0.724674 0
M  V30 5460 C 510.987 2.43812 -2.64189 0
M  V30 5461 C 510.651 2.05055 -4.08414 0
M  V30 5462 C 511.648 1.58752 -4.9507 0
M  V30 5463 C 509.333 2.14543 -4.54177 0
M  V30 5464 C 511.327 1.22448 -6.25528 0
M  V30 5465 C 509.014 1.77851 -5.84647 0
M  V30 5466 C 510.012 1.31878 -6.70147 0
M  V30 5467 O 509.7 0.956834 -7.98185 0
M  V30 5468 H 509.432 0.391848 -0.550846 0
M  V30 5469 H 511.986 0.601712 -1.96389 0
M  V30 5470 H 510.216 3.13941 -2.25783 0
M  V30 5471 H 511.905 3.05829 -2.66877 0
M  V30 5472 H 512.671 1.50863 -4.60939 0
M  V30 5473 H 508.55 2.49277 -3.87791 0
M  V30 5474 H 512.094 0.864933 -6.92217 0
M  V30 5475 H 507.991 1.8539 -6.18305 0
M  V30 5476 H 508.759 1.08789 -8.11238 0
M  V30 5477 N 511.423 1.38739 0.74761 0
M  V30 5478 C 512.839 1.20067 1.05148 0
M  V30 5479 C 513.039 0.0534835 2.01429 0
M  V30 5480 O 512.095 -0.59886 2.45296 0
M  V30 5481 C 513.408 2.52957 1.62584 0
M  V30 5482 C 514.956 2.59692 1.74726 0
M  V30 5483 C 515.431 3.92772 2.35573 0
M  V30 5484 N 516.922 3.94343 2.42997 0
M  V30 5485 C 517.657 4.9408 2.90985 0
M  V30 5486 N 517.153 6.04214 3.38965 0
M  V30 5487 N 518.946 4.81466 2.9008 0
M  V30 5488 H 511.097 2.12121 0.108808 0
M  V30 5489 H 513.36 0.941491 0.110899 0
M  V30 5490 H 513.066 3.37389 0.993051 0
M  V30 5491 H 512.94 2.71779 2.61565 0
M  V30 5492 H 515.327 1.75651 2.3713 0
M  V30 5493 H 515.408 2.44731 0.744326 0
M  V30 5494 H 515.052 4.77238 1.738 0
M  V30 5495 H 514.982 4.05046 3.36519 0
M  V30 5496 H 517.473 3.14799 2.0907 0
M  V30 5497 H 517.786 6.76241 3.74056 0
M  V30 5498 H 516.131 6.07825 3.37007 0
M  V30 5499 H 519.322 3.94535 2.51912 0
M  V30 5500 H 519.495 5.59344 3.27166 0
M  V30 5501 N 512.901 -0.976442 1.23707 0
M  V30 5502 C 514.178 -1.69296 0.979699 0
M  V30 5503 C 514.558 -2.0508 -0.500555 0
M  V30 5504 O 513.906 -1.74708 -1.47273 0
M  V30 5505 C 514.116 -2.93143 1.89389 0
M  V30 5506 C 515.464 -3.65572 2.15968 0
M  V30 5507 O 516.488 -3.03184 1.86971 0
M  V30 5508 O 515.347 -4.77859 2.65167 0
M  V30 5509 H 512.441 -0.739708 0.369812 0
M  V30 5510 H 514.987 -1.03131 1.34767 0
M  V30 5511 H 513.759 -2.63327 2.89439 0
M  V30 5512 H 513.382 -3.67044 1.52854 0
M  V30 5513 N 514.379 -1.04941 -1.1758 0
M  V30 5514 C 515.326 -0.648155 -2.21512 0
M  V30 5515 C 516.296 0.348431 -1.62404 0
M  V30 5516 O 517.481 0.240419 -1.89279 0
M  V30 5517 C 514.621 -0.0264291 -3.4509 0
M  V30 5518 C 513.734 -1.07154 -4.185 0
M  V30 5519 C 512.869 -0.417403 -5.29558 0
M  V30 5520 C 511.908 -1.447 -5.94751 0
M  V30 5521 N 511.045 -0.817203 -6.97328 0
M  V30 5522 H 515.885 -1.53891 -2.55189 0
M  V30 5523 H 513.422 -0.769699 -1.25356 0
M  V30 5524 H 515.38 0.351456 -4.15717 0
M  V30 5525 H 514.01 0.827802 -3.12005 0
M  V30 5526 H 513.062 -1.56728 -3.46613 0
M  V30 5527 H 514.374 -1.8532 -4.63096 0
M  V30 5528 H 513.528 0.0142061 -6.06698 0
M  V30 5529 H 512.267 0.396265 -4.86087 0
M  V30 5530 H 511.272 -1.88865 -5.16343 0
M  V30 5531 H 512.497 -2.26252 -6.40302 0
M  V30 5532 H 510.443 -0.0239995 -6.55996 0
M  V30 5533 H 510.36 -1.53644 -7.40223 0
M  V30 5534 H 511.628 -0.410283 -7.7842 0
M  V30 5535 N 515.857 1.33968 -0.830081 0
M  V30 5536 C 516.804 2.29387 -0.255008 0
M  V30 5537 C 517.774 1.53923 0.624243 0
M  V30 5538 O 518.959 1.82262 0.564372 0
M  V30 5539 C 516.099 3.4034 0.571209 0
M  V30 5540 C 515.212 4.30729 -0.331083 0
M  V30 5541 C 514.347 5.2879 0.505389 0
M  V30 5542 C 513.386 6.10819 -0.395843 0
M  V30 5543 N 512.523 7.00948 0.401979 0
M  V30 5544 H 517.363 2.77972 -1.07404 0
M  V30 5545 H 514.9 1.36785 -0.541133 0
M  V30 5546 H 516.858 4.03361 1.06562 0
M  V30 5547 H 515.488 2.9297 1.35529 0
M  V30 5548 H 514.54 3.68507 -0.943759 0
M  V30 5549 H 515.852 4.88181 -1.02377 0
M  V30 5550 H 515.006 5.97297 1.06399 0
M  V30 5551 H 513.745 4.71894 1.23155 0
M  V30 5552 H 512.75 5.41238 -0.966529 0
M  V30 5553 H 513.975 6.69797 -1.12023 0
M  V30 5554 H 511.921 6.46512 1.11168 0
M  V30 5555 H 511.838 7.55643 -0.232167 0
M  V30 5556 H 513.106 7.73774 0.943102 0
M  V30 5557 N 517.335 0.585699 1.46312 0
M  V30 5558 C 518.565 0.0780166 2.06453 0
M  V30 5559 C 518.973 -1.2336 1.43454 0
M  V30 5560 O 518.316 -1.75734 0.535086 0
M  V30 5561 C 518.378 -0.158951 3.59148 0
M  V30 5562 C 518.042 1.06752 4.44357 0
M  V30 5563 C 519.039 1.98031 4.80708 0
M  V30 5564 C 516.724 1.2902 4.85447 0
M  V30 5565 C 518.718 3.09924 5.5698 0
M  V30 5566 C 516.405 2.41218 5.61478 0
M  V30 5567 C 517.403 3.31499 5.97158 0
M  V30 5568 O 517.091 4.41747 6.71651 0
M  V30 5569 H 516.823 0.0558894 0.673686 0
M  V30 5570 H 519.377 0.806994 1.88883 0
M  V30 5571 H 517.607 -0.942575 3.75037 0
M  V30 5572 H 519.296 -0.615513 4.01206 0
M  V30 5573 H 520.062 1.82043 4.49539 0
M  V30 5574 H 515.941 0.596567 4.57124 0
M  V30 5575 H 519.485 3.80415 5.84748 0
M  V30 5576 H 515.382 2.57167 5.9206 0
M  V30 5577 H 516.15 4.40152 6.90079 0
M  V30 5578 N 518.813 -1.54241 0.323641 0
M  V30 5579 C 519.723 -2.28033 -0.551205 0
M  V30 5580 C 520.739 -1.32388 -1.12913 0
M  V30 5581 O 521.915 -1.65403 -1.14908 0
M  V30 5582 C 518.98 -3.02382 -1.69606 0
M  V30 5583 C 518.041 -4.13612 -1.14993 0
M  V30 5584 C 517.274 -4.84407 -2.24022 0
M  V30 5585 O 517.497 -4.54716 -3.44368 0
M  V30 5586 O 516.431 -5.71312 -1.89436 0
M  V30 5587 H 520.257 -3.03662 0.048066 0
M  V30 5588 H 517.842 -1.49133 0.0893289 0
M  V30 5589 H 519.724 -3.48941 -2.36259 0
M  V30 5590 H 518.399 -2.29628 -2.28151 0
M  V30 5591 H 517.306 -3.71402 -0.448484 0
M  V30 5592 H 518.639 -4.8841 -0.609608 0
M  V30 5593 N 520.291 -0.0518155 -1.57515 0
M  V30 5594 C 521.201 0.937539 -2.15052 0
M  V30 5595 C 522.217 1.34121 -1.10849 0
M  V30 5596 O 523.393 1.418 -1.4302 0
M  V30 5597 C 520.458 2.19379 -2.68466 0
M  V30 5598 C 519.519 1.84841 -3.87469 0
M  V30 5599 C 518.752 3.04477 -4.38326 0
M  V30 5600 O 518.975 4.17868 -3.88256 0
M  V30 5601 O 517.909 2.85453 -5.29906 0
M  V30 5602 H 521.735 0.478201 -2.99912 0
M  V30 5603 H 519.32 0.17012 -1.48428 0
M  V30 5604 H 521.202 2.93084 -3.02787 0
M  V30 5605 H 519.877 2.64449 -1.86677 0
M  V30 5606 H 518.784 1.08449 -3.58036 0
M  V30 5607 H 520.117 1.44569 -4.7049 0
M  V30 5608 N 521.769 1.56035 0.221574 0
M  V30 5609 C 523.015 1.79312 0.947372 0
M  V30 5610 C 523.348 0.621453 1.83988 0
M  V30 5611 O 522.623 -0.379287 1.90766 0
M  V30 5612 C 522.906 3.1267 1.78633 0
M  V30 5613 C 522.759 4.40284 0.920312 0
M  V30 5614 C 524.078 3.4247 2.7641 0
M  V30 5615 H 521.197 0.652328 0.342982 0
M  V30 5616 H 523.839 1.88765 0.216244 0
M  V30 5617 H 521.989 3.04741 2.40967 0
M  V30 5618 H 523.661 4.60232 0.313718 0
M  V30 5619 H 521.904 4.33212 0.225734 0
M  V30 5620 H 522.575 5.30033 1.54171 0
M  V30 5621 H 525.051 3.50526 2.24211 0
M  V30 5622 H 523.927 4.3695 3.32213 0
M  V30 5623 H 524.188 2.64635 3.54148 0
M  V30 5624 N 523.247 -0.488276 1.49845 0
M  V30 5625 C 524.663 -0.820566 1.3689 0
M  V30 5626 C 524.863 -1.97248 0.411752 0
M  V30 5627 O 523.919 -2.52042 -0.151931 0
M  V30 5628 C 525.232 -1.1488 2.77891 0
M  V30 5629 C 526.78 -1.25626 2.86683 0
M  V30 5630 C 527.255 -1.61772 4.28479 0
M  V30 5631 N 528.746 -1.68797 4.31349 0
M  V30 5632 C 529.481 -1.98235 5.38043 0
M  V30 5633 N 528.977 -2.2581 6.54967 0
M  V30 5634 N 530.77 -1.99593 5.2547 0
M  V30 5635 H 522.921 0.271123 2.10662 0
M  V30 5636 H 525.184 0.058735 0.946179 0
M  V30 5637 H 524.89 -0.375614 3.49688 0
M  V30 5638 H 524.764 -2.08919 3.14058 0
M  V30 5639 H 527.151 -2.02014 2.15114 0
M  V30 5640 H 527.232 -0.296072 2.54081 0
M  V30 5641 H 526.876 -0.859295 5.00578 0
M  V30 5642 H 526.806 -2.58912 4.58554 0
M  V30 5643 H 529.297 -1.49595 3.4703 0
M  V30 5644 H 529.61 -2.47497 7.32096 0
M  V30 5645 H 527.955 -2.23239 6.58171 0
M  V30 5646 H 531.146 -1.77535 4.33127 0
M  V30 5647 H 531.319 -2.222 6.08713 0
M  V30 5648 N 524.725 -1.39134 -0.740242 0
M  V30 5649 C 525.973 -1.35803 -1.49673 0
M  V30 5650 C 526.294 0.0470897 -1.94943 0
M  V30 5651 O 525.564 0.997347 -1.68611 0
M  V30 5652 H 524.144 -0.499736 -0.555224 0
M  V30 5653 H 526.806 -1.73947 -0.879107 0
M  V30 5654 H 525.902 -2.0174 -2.38133 0
M  V30 5655 N 526.204 0.969867 -1.24223 0
M  V30 5656 C 527.134 2.08191 -1.05729 0
M  V30 5657 C 528.115 1.70075 0.0290765 0
M  V30 5658 O 529.3 1.93712 -0.137583 0
M  V30 5659 C 526.43 3.40991 -0.658995 0
M  V30 5660 C 525.384 3.93054 -1.69389 0
M  V30 5661 C 524.71 5.22171 -1.15072 0
M  V30 5662 C 526.01 4.21137 -3.08935 0
M  V30 5663 H 527.704 2.23921 -1.98746 0
M  V30 5664 H 525.25 1.07602 -0.956967 0
M  V30 5665 H 527.203 4.18221 -0.51662 0
M  V30 5666 H 525.927 3.25155 0.30686 0
M  V30 5667 H 524.586 3.17977 -1.82444 0
M  V30 5668 H 524.234 5.02694 -0.175539 0
M  V30 5669 H 523.934 5.57973 -1.84229 0
M  V30 5670 H 525.458 6.02013 -1.02042 0
M  V30 5671 H 526.872 4.8908 -2.99121 0
M  V30 5672 H 525.269 4.68163 -3.75425 0
M  V30 5673 H 526.339 3.27996 -3.57137 0
M  V30 5674 N 527.682 1.05563 1.17022 0
M  V30 5675 C 528.592 0.670758 2.24807 0
M  V30 5676 C 529.608 -0.309865 1.71219 0
M  V30 5677 O 530.784 -0.161025 2.00755 0
M  V30 5678 C 527.849 0.055337 3.46656 0
M  V30 5679 C 526.91 1.08688 4.15314 0
M  V30 5680 C 526.143 0.500736 5.31346 0
M  V30 5681 O 526.366 -0.688718 5.66227 0
M  V30 5682 O 525.3 1.23683 5.89055 0
M  V30 5683 H 529.126 1.56914 2.60023 0
M  V30 5684 H 526.711 0.827428 1.24395 0
M  V30 5685 H 528.593 -0.286492 4.20425 0
M  V30 5686 H 527.268 -0.816638 3.13229 0
M  V30 5687 H 526.175 1.48077 3.43546 0
M  V30 5688 H 527.508 1.93014 4.52777 0
M  V30 5689 N 529.16 -1.33526 0.837174 0
M  V30 5690 C 530.437 -1.92369 0.354065 0
M  V30 5691 C 530.817 -1.76348 -1.16038 0
M  V30 5692 O 530.165 -1.15083 -1.97403 0
M  V30 5693 C 530.375 -3.39728 0.799101 0
M  V30 5694 C 531.723 -4.16877 0.806139 0
M  V30 5695 O 532.747 -3.48373 0.742597 0
M  V30 5696 O 531.606 -5.39166 0.892345 0
M  V30 5697 H 528.7 -0.820952 0.0998378 0
M  V30 5698 H 531.246 -1.42409 0.922913 0
M  V30 5699 H 530.018 -3.45254 1.84162 0
M  V30 5700 H 529.641 -3.97062 0.206731 0
M  V30 5701 N 530.638 -0.59345 -1.46 0
M  V30 5702 C 531.863 -0.0872365 -2.07216 0
M  V30 5703 C 532.288 1.2131 -1.43755 0
M  V30 5704 O 531.646 1.73528 -0.525152 0
M  V30 5705 C 531.694 0.0538197 -3.6056 0
M  V30 5706 O 530.798 1.10765 -3.97247 0
M  V30 5707 H 530.139 -0.0676598 -0.660544 0
M  V30 5708 H 532.669 -0.819445 -1.87473 0
M  V30 5709 H 532.679 0.256567 -4.07193 0
M  V30 5710 H 531.354 -0.895739 -4.0614 0
M  V30 5711 H 529.931 0.882501 -3.62307 0
M  V30 5712 N 532.116 1.54067 -0.331816 0
M  V30 5713 C 533.341 2.05599 0.272705 0
M  V30 5714 C 533.766 1.2059 1.44359 0
M  V30 5715 O 533.124 0.216907 1.79998 0
M  V30 5716 C 533.172 3.54188 0.677021 0
M  V30 5717 O 532.276 3.72082 1.77844 0
M  V30 5718 H 531.617 0.662286 0.0476801 0
M  V30 5719 H 534.147 1.98826 -0.482624 0
M  V30 5720 H 534.157 3.96608 0.957415 0
M  V30 5721 H 532.832 4.15513 -0.179325 0
M  V30 5722 H 531.409 3.41566 1.49622 0
M  V30 5723 N 533.594 0.0601682 1.57485 0
M  V30 5724 C 534.526 -0.94047 2.09016 0
M  V30 5725 C 535.539 -1.26897 1.01985 0
M  V30 5726 O 536.728 -1.22819 1.29529 0
M  V30 5727 C 533.828 -2.25955 2.52582 0
M  V30 5728 C 533.001 -2.11163 3.83052 0
M  V30 5729 C 532.06 -3.26273 4.12835 0
M  V30 5730 O 531.086 -3.01779 4.82616 0
M  V30 5731 N 532.288 -4.51022 3.65458 0
M  V30 5732 H 535.053 -0.500578 2.9549 0
M  V30 5733 H 532.614 -0.125852 1.6141 0
M  V30 5734 H 534.606 -3.01846 2.69575 0
M  V30 5735 H 533.176 -2.61481 1.71308 0
M  V30 5736 H 532.396 -1.19808 3.75552 0
M  V30 5737 H 533.684 -1.98517 4.68475 0
M  V30 5738 H 533.082 -4.73811 3.09062 0
M  V30 5739 H 531.639 -5.23978 3.87673 0
M  V30 5740 N 535.072 -1.5615 -0.213296 0
M  V30 5741 C 535.982 -1.96265 -1.28519 0
M  V30 5742 C 536.998 -0.86765 -1.50824 0
M  V30 5743 O 538.174 -1.17191 -1.63793 0
M  V30 5744 C 535.239 -2.27836 -2.61327 0
M  V30 5745 C 534.3 -3.50949 -2.47252 0
M  V30 5746 C 533.533 -3.81004 -3.73727 0
M  V30 5747 O 533.756 -3.12612 -4.77106 0
M  V30 5748 O 532.69 -4.74477 -3.70344 0
M  V30 5749 H 536.516 -2.87631 -0.974795 0
M  V30 5750 H 534.101 -1.43467 -0.416832 0
M  V30 5751 H 535.983 -2.49299 -3.39747 0
M  V30 5752 H 534.658 -1.39643 -2.9203 0
M  V30 5753 H 533.565 -3.34754 -1.67004 0
M  V30 5754 H 534.898 -4.39551 -2.21486 0
M  V30 5755 N 536.55 0.480323 -1.50102 0
M  V30 5756 C 537.513 1.56181 -1.6775 0
M  V30 5757 C 538.513 1.51156 -0.548503 0
M  V30 5758 O 539.703 1.5394 -0.815363 0
M  V30 5759 C 536.835 2.95823 -1.69415 0
M  V30 5760 H 538.028 1.41855 -2.6423 0
M  V30 5761 H 535.581 0.70605 -1.39444 0
M  V30 5762 H 536.316 3.15604 -0.745948 0
M  V30 5763 H 536.101 3.00878 -2.51425 0
M  V30 5764 H 537.591 3.74359 -1.85054 0
M  V30 5765 N 538.028 1.39524 0.732853 0
M  V30 5766 C 538.938 1.40695 1.87729 0
M  V30 5767 C 539.954 0.301496 1.71368 0
M  V30 5768 O 541.13 0.543313 1.93933 0
M  V30 5769 C 538.195 1.25098 3.23344 0
M  V30 5770 C 537.256 2.45634 3.52083 0
M  V30 5771 C 536.489 2.30772 4.81228 0
M  V30 5772 O 536.712 1.31233 5.55098 0
M  V30 5773 O 535.646 3.19799 5.09914 0
M  V30 5774 H 539.472 2.37168 1.89697 0
M  V30 5775 H 537.057 1.20663 0.880959 0
M  V30 5776 H 538.939 1.18541 4.04383 0
M  V30 5777 H 537.614 0.317209 3.22142 0
M  V30 5778 H 536.521 2.57767 2.71122 0
M  V30 5779 H 537.854 3.37712 3.58066 0
M  V30 5780 N 539.506 -0.963266 1.24736 0
M  V30 5781 C 540.783 -1.68248 0.9976 0
M  V30 5782 C 541.163 -2.05599 -0.478776 0
M  V30 5783 O 540.511 -1.7626 -1.45412 0
M  V30 5784 C 540.721 -2.91118 1.92487 0
M  V30 5785 C 542.069 -3.63261 2.19833 0
M  V30 5786 O 543.093 -3.01184 1.90176 0
M  V30 5787 O 541.952 -4.75019 2.7022 0
M  V30 5788 H 539.046 -0.735744 0.377637 0
M  V30 5789 H 541.592 -1.01696 1.35853 0
M  V30 5790 H 540.364 -2.60242 2.92215 0
M  V30 5791 H 539.987 -3.65402 1.56738 0
M  V30 5792 N 540.985 -1.06182 -1.16461 0
M  V30 5793 C 541.895 -0.682671 -2.24448 0
M  V30 5794 C 542.911 0.30078 -1.71381 0
M  V30 5795 O 544.087 0.150376 -2.00838 0
M  V30 5796 C 541.152 -0.0737202 -3.46622 0
M  V30 5797 C 540.213 -1.10889 -4.14731 0
M  V30 5798 C 539.446 -0.528908 -5.31073 0
M  V30 5799 O 539.669 0.65868 -5.66584 0
M  V30 5800 O 538.603 -1.26805 -5.88391 0
M  V30 5801 H 542.429 -1.58291 -2.59187 0
M  V30 5802 H 540.014 -0.834013 -1.23954 0
M  V30 5803 H 541.896 0.264192 -4.20571 0
M  V30 5804 H 540.571 0.800015 -3.13658 0
M  V30 5805 H 539.478 -1.49896 -3.42756 0
M  V30 5806 H 540.811 -1.95412 -4.51747 0
M  V30 5807 N 542.463 1.3308 -0.844243 0
M  V30 5808 C 543.426 2.27403 -0.286485 0
M  V30 5809 C 544.426 1.51179 0.547872 0
M  V30 5810 O 545.616 1.70421 0.360886 0
M  V30 5811 C 542.748 3.35653 0.595813 0
M  V30 5812 H 543.941 2.78248 -1.11885 0
M  V30 5813 H 541.494 1.43574 -0.617749 0
M  V30 5814 H 542.229 2.90058 1.4504 0
M  V30 5815 H 542.014 3.921 -0.00125994 0
M  V30 5816 H 543.504 4.05958 0.979168 0
M  V30 5817 N 543.941 0.601185 1.45683 0
M  V30 5818 C 545.166 0.0982245 2.07167 0
M  V30 5819 C 545.591 -1.20546 1.44396 0
M  V30 5820 O 544.949 -1.73247 0.534347 0
M  V30 5821 C 544.997 -0.0346976 3.60583 0
M  V30 5822 O 544.101 -1.08657 3.97828 0
M  V30 5823 H 543.442 0.0711618 0.660176 0
M  V30 5824 H 545.972 0.829376 1.87036 0
M  V30 5825 H 545.982 -0.234969 4.07323 0
M  V30 5826 H 544.657 0.917265 4.05659 0
M  V30 5827 H 543.234 -0.863275 3.6277 0
M  V30 5828 N 545.419 -1.53889 0.339982 0
M  V30 5829 C 546.667 -2.00458 -0.257112 0
M  V30 5830 C 546.988 -1.22953 -1.51353 0
M  V30 5831 O 546.258 -0.335734 -1.93002 0
M  V30 5832 H 544.838 -0.740544 -0.0979965 0
M  V30 5833 H 547.5 -1.89386 0.460317 0
M  V30 5834 H 546.596 -3.08035 -0.502057 0
M  V30 5835 N 546.897 -0.0685191 -1.57451 0
M  V30 5836 C 547.827 0.89747 -2.15564 0
M  V30 5837 C 548.808 1.31266 -1.08181 0
M  V30 5838 O 549.993 1.38429 -1.36202 0
M  V30 5839 C 547.123 2.16623 -2.71463 0
M  V30 5840 C 546.077 1.89054 -3.83982 0
M  V30 5841 C 545.403 3.22532 -4.26471 0
M  V30 5842 C 546.703 1.1984 -5.08366 0
M  V30 5843 H 548.397 0.413373 -2.96533 0
M  V30 5844 H 545.943 0.197391 -1.42641 0
M  V30 5845 H 547.896 2.84614 -3.10761 0
M  V30 5846 H 546.62 2.67269 -1.8771 0
M  V30 5847 H 545.279 1.23469 -3.45183 0
M  V30 5848 H 544.927 3.71013 -3.39644 0
M  V30 5849 H 544.627 3.04879 -5.02317 0
M  V30 5850 H 546.151 3.91727 -4.68383 0
M  V30 5851 H 547.565 1.77896 -5.45001 0
M  V30 5852 H 545.962 1.12456 -5.89469 0
M  V30 5853 H 547.032 0.176996 -4.84577 0
M  V30 5854 N 548.375 1.56261 0.205012 0
M  V30 5855 C 549.623 1.79684 0.925096 0
M  V30 5856 C 549.944 0.63989 1.84202 0
M  V30 5857 O 549.214 -0.342345 1.92885 0
M  V30 5858 H 547.794 0.662774 0.344587 0
M  V30 5859 H 550.456 1.93734 0.212899 0
M  V30 5860 H 549.552 2.72467 1.52211 0
M  V30 5861 N 549.853 -0.472356 1.50355 0
M  V30 5862 C 550.783 -1.57859 1.72055 0
M  V30 5863 C 551.764 -1.60283 0.569505 0
M  V30 5864 O 552.949 -1.7657 0.808503 0
M  V30 5865 C 550.079 -2.96191 1.81351 0
M  V30 5866 C 549.033 -3.08633 2.96529 0
M  V30 5867 C 548.359 -4.486 2.90968 0
M  V30 5868 C 549.659 -2.85969 4.37057 0
M  V30 5869 H 551.353 -1.39953 2.64676 0
M  V30 5870 H 548.899 -0.671846 1.27367 0
M  V30 5871 H 550.852 -3.73507 1.95117 0
M  V30 5872 H 549.576 -3.15251 0.853502 0
M  V30 5873 H 548.235 -2.33749 2.82413 0
M  V30 5874 H 547.883 -4.64577 1.92815 0
M  V30 5875 H 547.583 -4.57861 3.68289 0
M  V30 5876 H 549.107 -5.27938 3.0678 0
M  V30 5877 H 550.521 -3.53036 4.51706 0
M  V30 5878 H 548.918 -3.06677 5.15819 0
M  V30 5879 H 549.988 -1.81838 4.49514 0
M  V30 5880 N 551.331 -1.39911 -0.725443 0
M  V30 5881 C 552.556 -1.41137 -1.5197 0
M  V30 5882 C 552.981 -0.010262 -1.88097 0
M  V30 5883 O 552.339 0.979184 -1.52583 0
M  V30 5884 C 552.387 -2.2994 -2.77777 0
M  V30 5885 O 551.491 -1.73586 -3.74088 0
M  V30 5886 H 550.832 -0.480219 -0.458569 0
M  V30 5887 H 553.362 -1.84023 -0.894249 0
M  V30 5888 H 553.372 -2.44785 -3.26411 0
M  V30 5889 H 552.047 -3.31759 -2.50816 0
M  V30 5890 H 550.624 -1.68035 -3.32894 0
M  V30 5891 N 552.809 0.956637 -1.25245 0
M  V30 5892 C 553.719 2.0868 -1.0719 0
M  V30 5893 C 554.735 1.73997 -0.00959074 0
M  V30 5894 O 555.911 2.00301 -0.210104 0
M  V30 5895 C 552.976 3.39754 -0.690526 0
M  V30 5896 C 552.037 3.88316 -1.83055 0
M  V30 5897 C 551.27 5.13134 -1.46728 0
M  V30 5898 O 551.493 5.6925 -0.362029 0
M  V30 5899 O 550.427 5.56356 -2.29677 0
M  V30 5900 H 554.253 2.26813 -2.01965 0
M  V30 5901 H 551.838 1.07098 -1.04165 0
M  V30 5902 H 553.72 4.18543 -0.489871 0
M  V30 5903 H 552.395 3.22896 0.227981 0
M  V30 5904 H 551.302 3.1054 -2.08604 0
M  V30 5905 H 552.635 4.09669 -2.72822 0
M  V30 5906 N 554.287 1.06798 1.15896 0
M  V30 5907 C 555.219 0.641263 2.20046 0
M  V30 5908 C 556.232 -0.303355 1.59949 0
M  V30 5909 O 557.421 -0.0935478 1.78255 0
M  V30 5910 C 554.521 -0.0794029 3.38807 0
M  V30 5911 C 553.694 0.879986 4.28457 0
M  V30 5912 C 552.753 0.197638 5.25829 0
M  V30 5913 O 551.779 0.836913 5.63014 0
M  V30 5914 N 552.981 -1.05886 5.70761 0
M  V30 5915 H 555.746 1.53718 2.57276 0
M  V30 5916 H 553.307 0.951951 1.30956 0
M  V30 5917 H 555.299 -0.546418 4.00994 0
M  V30 5918 H 553.869 -0.877193 3.0004 0
M  V30 5919 H 553.089 1.52625 3.63454 0
M  V30 5920 H 554.377 1.53065 4.8523 0
M  V30 5921 H 553.775 -1.59828 5.42652 0
M  V30 5922 H 552.332 -1.46965 6.35015 0
M  V30 5923 N 555.766 -1.3263 0.851289 0
M  V30 5924 C 556.696 -2.31449 0.308771 0
M  V30 5925 C 557.677 -1.59531 -0.590255 0
M  V30 5926 O 558.862 -1.87351 -0.511205 0
M  V30 5927 C 555.992 -3.43586 -0.506548 0
M  V30 5928 C 554.946 -4.26963 0.297753 0
M  V30 5929 C 554.272 -5.30831 -0.642094 0
M  V30 5930 C 555.572 -4.99643 1.52166 0
M  V30 5931 H 557.266 -2.77074 1.13447 0
M  V30 5932 H 554.812 -1.33207 0.546971 0
M  V30 5933 H 556.765 -4.11754 -0.896474 0
M  V30 5934 H 555.489 -2.96681 -1.36558 0
M  V30 5935 H 554.148 -3.60437 0.669391 0
M  V30 5936 H 553.796 -4.8018 -1.49788 0
M  V30 5937 H 553.496 -5.87501 -0.107968 0
M  V30 5938 H 555.02 -6.01862 -1.02927 0
M  V30 5939 H 556.434 -5.6051 1.20421 0
M  V30 5940 H 554.831 -5.66022 1.99347 0
M  V30 5941 H 555.901 -4.27701 2.28474 0
M  V30 5942 N 557.244 -0.608902 -1.45362 0
M  V30 5943 C 558.472 -0.111013 -2.06602 0
M  V30 5944 C 558.887 1.20516 -1.45332 0
M  V30 5945 O 558.244 1.73437 -0.567978 0
M  V30 5946 C 558.295 0.033688 -3.61484 0
M  V30 5947 O 558.016 -1.23041 -4.20467 0
M  V30 5948 C 559.517 0.562882 -4.39712 0
M  V30 5949 H 556.737 -0.0694453 -0.667397 0
M  V30 5950 H 559.281 -0.837008 -1.86586 0
M  V30 5951 H 557.436 0.710016 -3.80838 0
M  V30 5952 H 557.85 -1.06094 -5.13658 0
M  V30 5953 H 559.324 0.613213 -5.48583 0
M  V30 5954 H 559.801 1.58543 -4.09586 0
M  V30 5955 H 560.407 -0.0794454 -4.25226 0
M  V30 5956 N 558.722 1.53707 -0.348139 0
M  V30 5957 C 559.947 2.05877 0.250883 0
M  V30 5958 C 560.372 1.22115 1.43072 0
M  V30 5959 O 559.73 0.235986 1.79758 0
M  V30 5960 C 559.778 3.54886 0.639416 0
M  V30 5961 O 558.882 3.73948 1.73888 0
M  V30 5962 H 558.223 0.662754 0.040653 0
M  V30 5963 H 560.753 1.98303 -0.503685 0
M  V30 5964 H 560.763 3.97601 0.915295 0
M  V30 5965 H 559.438 4.153 -0.223386 0
M  V30 5966 H 558.015 3.43134 1.45991 0
M  V30 5967 N 560.2 0.0768682 1.57412 0
M  V30 5968 C 561.448 -0.589918 1.93299 0
M  V30 5969 C 561.769 -1.69842 0.958049 0
M  V30 5970 O 561.039 -1.95899 0.00703261 0
M  V30 5971 H 559.619 -0.220901 0.713591 0
M  V30 5972 H 562.281 0.135917 1.94425 0
M  V30 5973 H 561.377 -1.01195 2.95239 0
M  V30 5974 N 561.678 -1.56367 -0.196722 0
M  V30 5975 C 563.089 -1.70462 -0.761545 0
M  V30 5976 C 563.44 -0.683161 -1.83922 0
M  V30 5977 O 562.565 0.160753 -2.15802 0
M  V30 5978 C 563.16 -3.09057 -1.38814 0
M  V30 5979 C 561.719 -3.24922 -1.90007 0
M  V30 5980 C 560.866 -2.66412 -0.769399 0
M  V30 5981 H 563.817 -1.58675 0.0283263 0
M  V30 5982 H 563.838 -3.06296 -2.2575 0
M  V30 5983 H 563.35 -3.83378 -0.603559 0
M  V30 5984 H 561.451 -2.55514 -2.71189 0
M  V30 5985 H 561.564 -4.3241 -2.06297 0
M  V30 5986 H 559.928 -2.25546 -1.18326 0
M  V30 5987 H 560.711 -3.433 0.00291773 0
M  V30 5988 N 563.156 0.464375 -1.50603 0
M  V30 5989 C 564.404 1.21356 -1.61608 0
M  V30 5990 C 564.725 1.92329 -0.321643 0
M  V30 5991 O 563.995 1.84403 0.661232 0
M  V30 5992 H 562.575 0.45094 -0.595535 0
M  V30 5993 H 565.237 0.535046 -1.87412 0
M  V30 5994 H 564.333 1.95783 -2.43054 0
M  V30 5995 N 564.634 1.40294 0.718013 0
M  V30 5996 C 565.564 1.43118 1.84498 0
M  V30 5997 C 566.545 0.292403 1.67568 0
M  V30 5998 O 567.73 0.500675 1.87635 0
M  V30 5999 C 564.86 1.29065 3.22427 0
M  V30 6000 C 563.814 2.40521 3.54025 0
M  V30 6001 C 563.14 2.11546 4.91073 0
M  V30 6002 C 564.44 3.82859 3.55269 0
M  V30 6003 H 566.134 2.37432 1.82391 0
M  V30 6004 H 563.68 1.14283 0.87609 0
M  V30 6005 H 565.633 1.29658 4.00957 0
M  V30 6006 H 564.357 0.312271 3.25104 0
M  V30 6007 H 563.016 2.39173 2.77834 0
M  V30 6008 H 562.664 1.12104 4.90348 0
M  V30 6009 H 562.364 2.86216 5.1318 0
M  V30 6010 H 563.888 2.13817 5.71939 0
M  V30 6011 H 565.302 3.86044 4.23843 0
M  V30 6012 H 563.699 4.57029 3.88902 0
M  V30 6013 H 564.769 4.12617 2.54706 0
M  V30 6014 N 566.112 -0.949982 1.2575 0
M  V30 6015 C 567.042 -2.06483 1.09028 0
M  V30 6016 C 568.023 -1.701 -0.00201532 0
M  V30 6017 O 569.208 -1.93469 0.168383 0
M  V30 6018 C 566.338 -3.39899 0.71316 0
M  V30 6019 C 565.292 -3.90309 1.75621 0
M  V30 6020 C 564.618 -5.20274 1.23365 0
M  V30 6021 C 565.918 -4.16169 3.15596 0
M  V30 6022 H 567.612 -2.20731 2.02283 0
M  V30 6023 H 565.158 -1.06066 0.973964 0
M  V30 6024 H 567.111 -4.17346 0.58309 0
M  V30 6025 H 565.835 -3.25602 -0.255091 0
M  V30 6026 H 564.494 -3.15035 1.8748 0
M  V30 6027 H 564.142 -5.02351 0.255491 0
M  V30 6028 H 563.842 -5.54971 1.93082 0
M  V30 6029 H 565.366 -6.00314 1.11607 0
M  V30 6030 H 566.78 -4.84259 3.06864 0
M  V30 6031 H 565.177 -4.62131 3.82825 0
M  V30 6032 H 566.247 -3.22273 3.6231 0
M  V30 6033 N 567.59 -1.07411 -1.15328 0
M  V30 6034 C 568.838 -0.796073 -1.85761 0
M  V30 6035 C 569.159 0.679864 -1.82764 0
M  V30 6036 O 568.429 1.49242 -1.269 0
M  V30 6037 H 567.009 -0.291495 -0.687779 0
M  V30 6038 H 569.671 -1.35799 -1.39802 0
M  V30 6039 H 568.767 -1.13114 -2.90881 0
M  V30 6040 N 569.068 1.32177 -0.85831 0
M  V30 6041 C 570.001 2.26823 -0.25035 0
M  V30 6042 C 570.979 1.50571 0.61378 0
M  V30 6043 O 572.163 1.79682 0.569777 0
M  V30 6044 C 569.29 3.32472 0.646556 0
M  V30 6045 C 568.336 4.26255 -0.144675 0
M  V30 6046 S 569.169 5.13608 -1.5155 0
M  V30 6047 C 570.325 6.22778 -0.624408 0
M  V30 6048 H 570.558 2.7804 -1.05267 0
M  V30 6049 H 568.091 1.39764 -0.656152 0
M  V30 6050 H 570.049 3.93817 1.15837 0
M  V30 6051 H 568.71 2.80031 1.42272 0
M  V30 6052 H 567.903 5.01114 0.538613 0
M  V30 6053 H 567.505 3.69346 -0.588198 0
M  V30 6054 H 569.797 6.77287 0.169846 0
M  V30 6055 H 570.74 6.95233 -1.34376 0
M  V30 6056 H 571.148 5.64156 -0.197128 0
M  V30 6057 N 570.547 0.616602 1.45037 0
M  V30 6058 C 571.958 0.199359 1.85633 0
M  V30 6059 C 572.309 -1.24588 1.51566 0
M  V30 6060 O 571.434 -1.94594 0.94668 0
M  V30 6061 C 572.029 0.355033 3.36935 0
M  V30 6062 C 570.588 -0.00758748 3.76399 0
M  V30 6063 C 569.735 0.675256 2.68953 0
M  V30 6064 H 572.686 0.822708 1.3571 0
M  V30 6065 H 572.707 -0.410201 3.78282 0
M  V30 6066 H 572.219 1.40699 3.61698 0
M  V30 6067 H 570.32 -1.05837 3.57252 0
M  V30 6068 H 570.433 0.392346 4.77491 0
M  V30 6069 H 568.797 0.111992 2.54454 0
M  V30 6070 H 569.58 1.72952 2.96551 0
M  V30 6071 N 572.025 -1.5352 0.356285 0
M  V30 6072 C 572.935 -2.29151 -0.502712 0
M  V30 6073 C 573.951 -1.34753 -1.1008 0
M  V30 6074 O 575.127 -1.67803 -1.11374 0
M  V30 6075 C 572.192 -3.05911 -1.63154 0
M  V30 6076 C 571.253 -4.15958 -1.06194 0
M  V30 6077 C 570.486 -4.8905 -2.13696 0
M  V30 6078 O 570.709 -4.61919 -3.34645 0
M  V30 6079 O 569.643 -5.75202 -1.77275 0
M  V30 6080 H 573.469 -3.03492 0.112466 0
M  V30 6081 H 571.054 -1.4891 0.120942 0
M  V30 6082 H 572.936 -3.53874 -2.28804 0
M  V30 6083 H 571.611 -2.34415 -2.23229 0
M  V30 6084 H 570.518 -3.7227 -0.369603 0
M  V30 6085 H 571.851 -4.89593 -0.505872 0
M  V30 6086 N 573.503 -0.0852151 -1.57369 0
M  V30 6087 C 574.435 0.907099 -2.10486 0
M  V30 6088 C 575.448 1.25259 -1.03991 0
M  V30 6089 O 576.637 1.20743 -1.31467 0
M  V30 6090 C 573.737 2.21908 -2.56145 0
M  V30 6091 C 572.91 2.05042 -3.86363 0
M  V30 6092 C 571.969 3.19664 -4.17973 0
M  V30 6093 O 570.995 2.94062 -4.87356 0
M  V30 6094 N 572.197 4.45151 -3.72587 0
M  V30 6095 H 574.962 0.453505 -2.96249 0
M  V30 6096 H 572.523 0.100157 -1.6159 0
M  V30 6097 H 574.515 2.97519 -2.74343 0
M  V30 6098 H 573.085 2.58723 -1.75446 0
M  V30 6099 H 572.305 1.13819 -3.77411 0
M  V30 6100 H 573.593 1.91039 -4.71574 0
M  V30 6101 H 572.991 4.68834 -3.16561 0
M  V30 6102 H 571.548 5.17744 -3.9596 0
M  V30 6103 N 574.981 1.5647 0.188427 0
M  V30 6104 C 575.913 1.91611 1.25769 0
M  V30 6105 C 576.926 0.807436 1.41366 0
M  V30 6106 O 578.115 1.08586 1.41673 0
M  V30 6107 C 575.215 2.13874 2.6289 0
M  V30 6108 C 574.388 3.45047 2.68815 0
M  V30 6109 C 573.447 3.56342 3.87178 0
M  V30 6110 O 572.473 4.29109 3.73971 0
M  V30 6111 N 573.675 2.89924 5.02916 0
M  V30 6112 H 576.44 2.8393 0.959373 0
M  V30 6113 H 574.001 1.57418 0.378306 0
M  V30 6114 H 575.993 2.18713 3.4051 0
M  V30 6115 H 574.563 1.28022 2.85183 0
M  V30 6116 H 573.783 3.52017 1.77419 0
M  V30 6117 H 575.071 4.31395 2.6977 0
M  V30 6118 H 574.469 2.30644 5.16546 0
M  V30 6119 H 573.026 3.0038 5.78459 0
M  V30 6120 N 576.459 -0.456382 1.50847 0
M  V30 6121 C 577.369 -1.57805 1.73594 0
M  V30 6122 C 578.385 -1.62599 0.619476 0
M  V30 6123 O 579.561 -1.80195 0.899532 0
M  V30 6124 C 576.626 -2.93926 1.8387 0
M  V30 6125 C 575.687 -2.99402 3.07663 0
M  V30 6126 C 574.92 -4.29031 3.1744 0
M  V30 6127 O 575.143 -5.20358 2.33631 0
M  V30 6128 O 574.077 -4.40401 4.10281 0
M  V30 6129 H 577.903 -1.41531 2.68705 0
M  V30 6130 H 575.488 -0.637422 1.3512 0
M  V30 6131 H 577.37 -3.74747 1.92725 0
M  V30 6132 H 576.045 -3.10368 0.91944 0
M  V30 6133 H 574.952 -2.17606 3.043 0
M  V30 6134 H 576.285 -2.87901 3.99216 0
M  V30 6135 N 577.937 -1.40673 -0.710563 0
M  V30 6136 C 578.867 -1.44095 -1.83736 0
M  V30 6137 C 579.848 -0.301286 -1.67411 0
M  V30 6138 O 581.033 -0.510618 -1.87367 0
M  V30 6139 C 578.163 -1.30773 -3.21738 0
M  V30 6140 C 577.117 -2.42395 -3.52745 0
M  V30 6141 C 576.443 -2.14147 -4.89944 0
M  V30 6142 C 577.743 -3.84738 -3.53234 0
M  V30 6143 H 579.437 -2.38396 -1.81129 0
M  V30 6144 H 576.983 -1.14746 -0.870017 0
M  V30 6145 H 578.936 -1.31783 -4.00264 0
M  V30 6146 H 577.66 -0.329507 -3.24934 0
M  V30 6147 H 576.319 -2.40643 -2.76562 0
M  V30 6148 H 575.967 -1.14703 -4.89747 0
M  V30 6149 H 575.667 -2.88934 -5.11655 0
M  V30 6150 H 577.191 -2.16848 -5.70797 0
M  V30 6151 H 578.605 -3.88286 -4.2179 0
M  V30 6152 H 577.002 -4.59085 -3.86473 0
M  V30 6153 H 578.072 -4.13962 -2.52514 0
M  V30 6154 N 579.415 0.9433 -1.26252 0
M  V30 6155 C 580.347 2.04542 -1.03417 0
M  V30 6156 C 581.36 1.62799 0.0046911 0
M  V30 6157 O 582.549 1.76944 -0.235146 0
M  V30 6158 C 579.649 3.34511 -0.543671 0
M  V30 6159 C 578.822 4.05033 -1.65128 0
M  V30 6160 C 577.881 5.13273 -1.1592 0
M  V30 6161 O 576.907 5.38095 -1.85586 0
M  V30 6162 N 578.109 5.805 -0.00649279 0
M  V30 6163 H 580.874 2.24699 -1.98319 0
M  V30 6164 H 578.435 1.11264 -1.1761 0
M  V30 6165 H 580.427 4.04212 -0.198703 0
M  V30 6166 H 578.997 3.11042 0.311711 0
M  V30 6167 H 578.217 3.29275 -2.16729 0
M  V30 6168 H 579.505 4.48903 -2.39508 0
M  V30 6169 H 578.903 5.62767 0.575347 0
M  V30 6170 H 577.46 6.51201 0.279416 0
M  V30 6171 N 580.893 1.08022 1.14757 0
M  V30 6172 C 581.803 0.718292 2.23333 0
M  V30 6173 C 582.819 -0.273477 1.71837 0
M  V30 6174 O 583.995 -0.118406 2.01052 0
M  V30 6175 C 581.06 0.128855 3.4646 0
M  V30 6176 C 580.121 1.17473 4.12915 0
M  V30 6177 C 579.354 0.61333 5.30164 0
M  V30 6178 O 579.577 -0.568458 5.6756 0
M  V30 6179 O 578.511 1.3615 5.86299 0
M  V30 6180 H 582.337 1.62394 2.56636 0
M  V30 6181 H 579.922 0.853628 1.22611 0
M  V30 6182 H 581.804 -0.197249 4.20938 0
M  V30 6183 H 580.479 -0.750014 3.14891 0
M  V30 6184 H 579.386 1.5533 3.40328 0
M  V30 6185 H 580.719 2.02574 4.48581 0
M  V30 6186 N 582.371 -1.3172 0.865308 0
M  V30 6187 C 583.782 -1.79104 0.527126 0
M  V30 6188 C 584.133 -1.7135 -0.955695 0
M  V30 6189 O 583.258 -1.27845 -1.74598 0
M  V30 6190 C 583.853 -3.25207 0.950061 0
M  V30 6191 C 582.412 -3.70504 0.663611 0
M  V30 6192 C 581.559 -2.52605 1.14395 0
M  V30 6193 H 584.51 -1.18868 1.05148 0
M  V30 6194 H 584.531 -3.79535 0.270805 0
M  V30 6195 H 584.043 -3.30818 2.02931 0
M  V30 6196 H 582.144 -3.70398 -0.404474 0
M  V30 6197 H 582.257 -4.62845 1.23737 0
M  V30 6198 H 580.621 -2.4838 0.563859 0
M  V30 6199 H 581.404 -2.60964 2.23053 0
M  V30 6200 N 583.85 -0.624285 -1.44708 0
M  V30 6201 C 585.26 -0.2092 -1.85524 0
M  V30 6202 C 585.611 1.23783 -1.52225 0
M  V30 6203 O 584.736 1.94089 -0.956986 0
M  V30 6204 C 585.332 -0.372897 -3.36742 0
M  V30 6205 C 583.891 -0.012374 -3.76398 0
M  V30 6206 C 583.038 -0.68951 -2.68591 0
M  V30 6207 H 585.989 -0.829894 -1.35272 0
M  V30 6208 H 586.01 0.390134 -3.78495 0
M  V30 6209 H 585.522 -1.42615 -3.60947 0
M  V30 6210 H 583.623 1.03941 -3.57809 0
M  V30 6211 H 583.736 -0.417663 -4.77276 0
M  V30 6212 H 582.1 -0.125484 -2.54391 0
M  V30 6213 H 582.883 -1.74522 -2.9563 0
M  V30 6214 N 585.328 1.53329 -0.364422 0
M  V30 6215 C 586.238 2.29414 0.490552 0
M  V30 6216 C 587.254 1.35335 1.09363 0
M  V30 6217 O 588.43 1.68391 1.10483 0
M  V30 6218 C 585.495 3.06772 1.61529 0
M  V30 6219 C 584.556 4.16516 1.03986 0
M  V30 6220 C 583.789 4.90176 2.111 0
M  V30 6221 O 584.012 4.63687 3.32191 0
M  V30 6222 O 582.946 5.76134 1.74222 0
M  V30 6223 H 586.772 3.03428 -0.12856 0
M  V30 6224 H 584.357 1.48843 -0.128837 0
M  V30 6225 H 586.239 3.55082 2.26924 0
M  V30 6226 H 584.914 2.35596 2.21983 0
M  V30 6227 H 583.821 3.7246 0.349856 0
M  V30 6228 H 585.154 4.89855 0.4799 0
M  V30 6229 N 586.806 0.0935595 1.57322 0
M  V30 6230 C 587.769 -0.851426 2.12799 0
M  V30 6231 C 588.769 -1.21187 1.0569 0
M  V30 6232 O 589.959 -1.14156 1.31583 0
M  V30 6233 C 587.091 -2.14779 2.64731 0
M  V30 6234 H 588.284 -0.369733 2.97612 0
M  V30 6235 H 585.837 -0.155417 1.55525 0
M  V30 6236 H 586.572 -2.67437 1.83434 0
M  V30 6237 H 586.357 -1.89907 3.43042 0
M  V30 6238 H 587.847 -2.82383 3.07651 0
M  V30 6239 N 588.284 -1.56567 -0.180126 0
M  V30 6240 C 589.231 -1.95725 -1.22313 0
M  V30 6241 C 590.201 -0.819911 -1.44453 0
M  V30 6242 O 591.386 -1.07931 -1.57339 0
M  V30 6243 C 588.526 -2.31484 -2.55947 0
M  V30 6244 C 587.639 -3.58354 -2.4126 0
M  V30 6245 C 586.774 -3.83366 -3.67701 0
M  V30 6246 C 585.813 -5.03612 -3.47909 0
M  V30 6247 N 584.95 -5.24802 -4.66398 0
M  V30 6248 H 589.79 -2.84642 -0.882198 0
M  V30 6249 H 587.327 -1.4085 -0.42422 0
M  V30 6250 H 589.285 -2.50237 -3.33822 0
M  V30 6251 H 587.915 -1.45689 -2.88053 0
M  V30 6252 H 586.967 -3.47565 -1.54606 0
M  V30 6253 H 588.279 -4.46386 -2.22577 0
M  V30 6254 H 587.433 -4.02439 -4.54013 0
M  V30 6255 H 586.172 -2.93692 -3.89353 0
M  V30 6256 H 585.177 -4.84447 -2.59983 0
M  V30 6257 H 586.402 -5.94809 -3.27688 0
M  V30 6258 H 584.348 -4.38079 -4.88286 0
M  V30 6259 H 584.265 -6.07041 -4.50596 0
M  V30 6260 H 585.533 -5.48346 -5.54019 0
M  V30 6261 N 589.762 0.448376 -1.51087 0
M  V30 6262 C 591.178 0.783984 -1.39017 0
M  V30 6263 C 591.378 1.96087 -0.463904 0
M  V30 6264 O 590.434 2.52357 0.0850534 0
M  V30 6265 C 591.747 1.07471 -2.80839 0
M  V30 6266 C 593.295 1.17981 -2.89913 0
M  V30 6267 C 593.77 1.50354 -4.32617 0
M  V30 6268 N 595.261 1.57301 -4.35673 0
M  V30 6269 C 595.996 1.839 -5.4311 0
M  V30 6270 N 595.492 2.08365 -6.60724 0
M  V30 6271 N 597.285 1.8559 -5.30578 0
M  V30 6272 H 589.436 -0.326881 -2.0987 0
M  V30 6273 H 591.699 -0.0838006 -0.944289 0
M  V30 6274 H 591.405 0.282768 -3.50561 0
M  V30 6275 H 591.279 2.00519 -3.19487 0
M  V30 6276 H 593.666 1.9624 -2.20395 0
M  V30 6277 H 593.747 0.228603 -2.54776 0
M  V30 6278 H 593.391 0.726273 -5.0268 0
M  V30 6279 H 593.321 2.46663 -4.65258 0
M  V30 6280 H 595.812 1.40342 -3.50874 0
M  V30 6281 H 596.125 2.27999 -7.38401 0
M  V30 6282 H 594.47 2.0571 -6.63859 0
M  V30 6283 H 597.661 1.65989 -4.37682 0
M  V30 6284 H 597.834 2.05983 -6.1439 0
M  V30 6285 N 591.24 1.41047 0.703093 0
M  V30 6286 C 592.488 1.39723 1.4602 0
M  V30 6287 C 592.809 0.00461257 1.94999 0
M  V30 6288 O 592.079 -0.952292 1.71196 0
M  V30 6289 H 590.659 0.514281 0.541779 0
M  V30 6290 H 593.321 1.76217 0.832678 0
M  V30 6291 H 592.417 2.07982 2.32701 0
M  V30 6292 N 592.718 -0.936591 1.26751 0
M  V30 6293 C 593.943 -1.72288 1.15462 0
M  V30 6294 C 594.368 -1.85915 -0.285887 0
M  V30 6295 O 593.726 -1.35272 -1.20711 0
M  V30 6296 C 593.774 -3.10503 1.83359 0
M  V30 6297 O 592.878 -3.96745 1.1255 0
M  V30 6298 H 592.219 -0.52843 0.402067 0
M  V30 6299 H 594.749 -1.17271 1.67656 0
M  V30 6300 H 594.759 -3.60867 1.90365 0
M  V30 6301 H 593.434 -2.99901 2.88153 0
M  V30 6302 H 592.011 -3.55191 1.13551 0
M  V30 6303 N 594.196 -1.08629 -1.14182 0
M  V30 6304 C 595.421 -0.83902 -1.89671 0
M  V30 6305 C 595.846 0.603332 -1.78161 0
M  V30 6306 O 595.204 1.42301 -1.12339 0
M  V30 6307 C 595.252 -1.26854 -3.37551 0
M  V30 6308 O 594.356 -0.42188 -4.10236 0
M  V30 6309 H 593.697 -0.304545 -0.590041 0
M  V30 6310 H 596.227 -1.4483 -1.44518 0
M  V30 6311 H 596.237 -1.25038 -3.88368 0
M  V30 6312 H 594.912 -2.31901 -3.45246 0
M  V30 6313 H 593.489 -0.503654 -3.69483 0
M  V30 6314 N 595.674 1.31259 -0.872281 0
M  V30 6315 C 596.899 2.0133 -0.498099 0
M  V30 6316 C 597.324 1.65031 0.902568 0
M  V30 6317 O 596.682 0.860164 1.59596 0
M  V30 6318 C 596.73 3.54411 -0.665205 0
M  V30 6319 O 595.834 4.11347 0.294473 0
M  V30 6320 H 595.175 0.633844 -0.197832 0
M  V30 6321 H 597.705 1.67402 -1.17633 0
M  V30 6322 H 597.715 4.04147 -0.559373 0
M  V30 6323 H 596.39 3.80171 -1.68651 0
M  V30 6324 H 594.967 3.72624 0.143403 0
M  V30 6325 N 597.152 0.631951 1.44375 0
M  V30 6326 C 598.084 -0.110911 2.28931 0
M  V30 6327 C 599.097 -0.808086 1.41329 0
M  V30 6328 O 600.286 -0.669396 1.65473 0
M  V30 6329 C 597.386 -1.17928 3.1772 0
M  V30 6330 C 596.559 -0.564458 4.33743 0
M  V30 6331 C 595.618 -1.5269 5.0356 0
M  V30 6332 O 594.644 -1.04372 5.59549 0
M  V30 6333 N 595.846 -2.86123 5.05088 0
M  V30 6334 H 598.611 0.614758 2.93327 0
M  V30 6335 H 596.172 0.473171 1.54831 0
M  V30 6336 H 598.164 -1.82348 3.61291 0
M  V30 6337 H 596.734 -1.80717 2.55069 0
M  V30 6338 H 595.954 0.258373 3.93352 0
M  V30 6339 H 597.242 -0.134355 5.08623 0
M  V30 6340 H 596.64 -3.27959 4.60933 0
M  V30 6341 H 595.197 -3.45901 5.52445 0
M  V30 6342 N 598.631 -1.53133 0.372548 0
M  V30 6343 C 599.578 -2.25951 -0.470631 0
M  V30 6344 C 600.548 -1.26895 -1.07176 0
M  V30 6345 O 601.733 -1.55691 -1.10294 0
M  V30 6346 C 598.873 -3.05726 -1.6008 0
M  V30 6347 C 597.986 -4.19684 -1.02416 0
M  V30 6348 C 597.121 -4.86888 -2.124 0
M  V30 6349 C 596.16 -5.92866 -1.52238 0
M  V30 6350 N 595.297 -6.53732 -2.56084 0
M  V30 6351 H 600.137 -2.97587 0.156816 0
M  V30 6352 H 597.674 -1.4683 0.0891571 0
M  V30 6353 H 599.632 -3.50258 -2.26661 0
M  V30 6354 H 598.262 -2.36331 -2.1988 0
M  V30 6355 H 597.314 -3.79588 -0.248426 0
M  V30 6356 H 598.626 -4.95821 -0.544366 0
M  V30 6357 H 597.78 -5.34638 -2.86787 0
M  V30 6358 H 596.519 -4.10239 -2.63734 0
M  V30 6359 H 595.524 -5.4447 -0.763685 0
M  V30 6360 H 596.749 -6.71439 -1.0172 0
M  V30 6361 H 594.695 -5.79932 -3.06618 0
M  V30 6362 H 594.612 -7.25429 -2.12811 0
M  V30 6363 H 595.88 -7.0613 -3.30152 0
M  V30 6364 N 600.109 -0.101901 -1.5727 0
M  V30 6365 C 601.357 0.559091 -1.94213 0
M  V30 6366 C 601.678 1.68297 -0.984948 0
M  V30 6367 O 600.948 1.95863 -0.0381975 0
M  V30 6368 H 599.528 0.20952 -0.717015 0
M  V30 6369 H 602.19 -0.166831 -1.94185 0
M  V30 6370 H 601.286 0.96485 -2.96811 0
M  V30 6371 N 601.587 1.56661 0.17182 0
M  V30 6372 C 602.535 1.97289 1.23207 0
M  V30 6373 C 603.529 0.861566 1.45854 0
M  V30 6374 O 604.735 1.04668 1.4644 0
M  V30 6375 H 601.11 0.627681 0.41415 0
M  V30 6376 H 603.081 2.85662 0.862542 0
M  V30 6377 C 601.83 2.34849 2.564 0
M  V30 6378 H 601.153 3.19903 2.39797 0
M  V30 6379 H 602.593 2.67121 3.29276 0
M  V30 6380 C 601.052 1.19172 3.15119 0
M  V30 6381 O 601.582 0.479113 3.98833 0
M  V30 6382 N 599.788 0.962415 2.74201 0
M  V30 6383 H 599.335 1.54365 2.06226 0
M  V30 6384 H 599.293 0.190272 3.13824 0
M  V30 6385 N 603.065 -0.440357 1.51323 0
M  V30 6386 C 604.313 -1.18769 1.63518 0
M  V30 6387 C 604.634 -1.91793 0.352201 0
M  V30 6388 O 603.904 -1.85432 -0.631811 0
M  V30 6389 H 602.484 -0.441408 0.602634 0
M  V30 6390 H 605.146 -0.505162 1.8824 0
M  V30 6391 H 604.242 -1.91892 2.46138 0
M  V30 6392 N 604.543 -1.41418 -0.695603 0
M  V30 6393 C 605.768 -1.44329 -1.48942 0
M  V30 6394 C 606.193 -0.0501579 -1.88033 0
M  V30 6395 O 605.551 0.946598 -1.54626 0
M  V30 6396 C 605.599 -2.3578 -2.72837 0
M  V30 6397 O 604.703 -1.81482 -3.70322 0
M  V30 6398 H 604.044 -0.489838 -0.44828 0
M  V30 6399 H 606.574 -1.85878 -0.855014 0
M  V30 6400 H 606.584 -2.51654 -3.21145 0
M  V30 6401 H 605.259 -3.37005 -2.43722 0
M  V30 6402 H 603.836 -1.75058 -3.29255 0
M  V30 6403 N 606.021 0.929856 -1.27246 0
M  V30 6404 C 607.267 1.6798 -1.13625 0
M  V30 6405 C 607.6 1.91586 0.317589 0
M  V30 6406 O 606.875 1.50467 1.23247 0
M  V30 6407 C 607.158 3.04766 -1.91806 0
M  V30 6408 C 607.011 2.88415 -3.45162 0
M  V30 6409 C 608.33 4.05063 -1.72082 0
M  V30 6410 H 605.449 0.609632 -0.414147 0
M  V30 6411 H 608.091 1.0792 -1.56376 0
M  V30 6412 H 606.241 3.56034 -1.55474 0
M  V30 6413 H 607.913 2.44282 -3.91311 0
M  V30 6414 H 606.156 2.23802 -3.71611 0
M  V30 6415 H 606.827 3.85482 -3.95105 0
M  V30 6416 H 609.303 3.62798 -2.03757 0
M  V30 6417 H 608.179 4.98765 -2.29182 0
M  V30 6418 H 608.44 4.37021 -0.668206 0
M  V30 6419 N 607.499 1.09233 1.13605 0
M  V30 6420 C 608.739 0.836786 1.86487 0
M  V30 6421 C 609.103 -0.626191 1.81502 0
M  V30 6422 O 610.304 -0.99758 2.49603 0
M  V30 6423 C 608.575 1.35476 3.30728 0
M  V30 6424 S 610.134 1.2328 4.21126 0
M  V30 6425 H 606.952 0.302702 0.643345 0
M  V30 6426 H 609.554 1.3953 1.36936 0
M  V30 6427 H 608.258 2.41381 3.31909 0
M  V30 6428 H 607.789 0.792286 3.85339 0
M  V30 6429 H 609.804 0.182468 4.95864 0
M  V30 6430 N 608.977 -1.30795 0.87923 0
M  V30 6431 C 610.388 -1.78535 0.546093 0
M  V30 6432 C 610.739 -1.72354 -0.937467 0
M  V30 6433 O 609.864 -1.2969 -1.73233 0
M  V30 6434 C 610.459 -3.24181 0.9845 0
M  V30 6435 C 609.018 -3.69779 0.702871 0
M  V30 6436 C 608.165 -2.51377 1.17068 0
M  V30 6437 H 611.116 -1.17746 1.06403 0
M  V30 6438 H 611.137 -3.79227 0.311045 0
M  V30 6439 H 610.649 -3.28647 2.06429 0
M  V30 6440 H 608.75 -3.70806 -0.365166 0
M  V30 6441 H 608.863 -4.61507 1.28639 0
M  V30 6442 H 607.227 -2.47768 0.590172 0
M  V30 6443 H 608.01 -2.58584 2.25808 0
M  V30 6444 N 610.455 -0.639598 -1.44038 0
M  V30 6445 C 611.387 0.0987684 -2.28987 0
M  V30 6446 C 612.4 0.80058 -1.41755 0
M  V30 6447 O 613.589 0.660611 -1.65826 0
M  V30 6448 C 610.689 1.16242 -3.18341 0
M  V30 6449 C 609.862 0.541447 -4.34036 0
M  V30 6450 C 608.921 1.50017 -5.04362 0
M  V30 6451 O 607.947 1.01403 -5.60095 0
M  V30 6452 N 609.149 2.83441 -5.06598 0
M  V30 6453 H 611.914 -0.630305 -2.92997 0
M  V30 6454 H 609.475 -0.481376 -1.54578 0
M  V30 6455 H 611.467 1.80429 -3.62253 0
M  V30 6456 H 610.037 1.79362 -2.56024 0
M  V30 6457 H 609.257 -0.27923 -3.9321 0
M  V30 6458 H 610.545 0.107379 -5.08687 0
M  V30 6459 H 609.943 3.2551 -4.62666 0
M  V30 6460 H 608.5 3.42966 -5.54272 0
M  V30 6461 N 611.933 1.52934 -0.380664 0
M  V30 6462 C 612.863 2.29118 0.450268 0
M  V30 6463 C 613.844 1.32153 1.07096 0
M  V30 6464 O 615.029 1.61038 1.08537 0
M  V30 6465 C 612.159 3.09161 1.58231 0
M  V30 6466 C 611.113 4.13938 1.0881 0
M  V30 6467 C 610.439 4.82153 2.31155 0
M  V30 6468 C 611.739 5.22048 0.162146 0
M  V30 6469 H 613.433 2.98826 -0.185361 0
M  V30 6470 H 610.979 1.43715 -0.0905886 0
M  V30 6471 H 612.932 3.61211 2.17036 0
M  V30 6472 H 611.656 2.3717 2.2454 0
M  V30 6473 H 610.315 3.62855 0.522633 0
M  V30 6474 H 609.963 4.06719 2.95953 0
M  V30 6475 H 609.663 5.52966 1.98752 0
M  V30 6476 H 611.187 5.37004 2.90618 0
M  V30 6477 H 612.601 5.6951 0.658126 0
M  V30 6478 H 610.998 6.00057 -0.0717122 0
M  V30 6479 H 612.068 4.78398 -0.791438 0
M  V30 6480 N 613.412 0.11024 1.57214 0
M  V30 6481 C 614.342 -0.840002 2.17867 0
M  V30 6482 C 615.323 -1.28352 1.11624 0
M  V30 6483 O 616.508 -1.3477 1.39824 0
M  V30 6484 C 613.638 -2.09349 2.77111 0
M  V30 6485 C 612.592 -1.78807 3.8886 0
M  V30 6486 C 611.918 -3.11112 4.34872 0
M  V30 6487 C 613.218 -1.0632 5.11364 0
M  V30 6488 H 614.912 -0.334608 2.97524 0
M  V30 6489 H 612.458 -0.159502 1.43114 0
M  V30 6490 H 614.411 -2.76275 3.18198 0
M  V30 6491 H 613.135 -2.62198 1.9473 0
M  V30 6492 H 611.794 -1.14273 3.48335 0
M  V30 6493 H 611.442 -3.61877 3.49362 0
M  V30 6494 H 611.142 -2.91453 5.10224 0
M  V30 6495 H 612.666 -3.79171 4.78604 0
M  V30 6496 H 614.08 -1.63383 5.49526 0
M  V30 6497 H 612.477 -0.967876 5.92243 0
M  V30 6498 H 613.547 -0.0484569 4.84876 0
M  V30 6499 N 614.89 -1.56749 -0.16351 0
M  V30 6500 C 615.8 -2.00255 -1.2221 0
M  V30 6501 C 616.816 -0.915194 -1.47987 0
M  V30 6502 O 617.992 -1.22342 -1.59982 0
M  V30 6503 C 615.057 -2.36035 -2.53946 0
M  V30 6504 C 614.118 -3.58637 -2.35962 0
M  V30 6505 C 613.351 -3.92701 -3.61416 0
M  V30 6506 O 613.574 -3.27632 -4.66919 0
M  V30 6507 O 612.508 -4.86019 -3.55062 0
M  V30 6508 H 616.334 -2.90586 -0.882794 0
M  V30 6509 H 613.919 -1.44721 -0.370978 0
M  V30 6510 H 615.801 -2.59982 -3.31643 0
M  V30 6511 H 614.476 -1.48863 -2.8744 0
M  V30 6512 H 613.383 -3.39898 -1.5627 0
M  V30 6513 H 614.716 -4.46374 -2.0739 0
M  V30 6514 N 616.368 0.432326 -1.51554 0
M  V30 6515 C 617.779 1.01202 -1.56892 0
M  V30 6516 C 618.13 1.92175 -0.395394 0
M  V30 6517 O 617.255 2.10844 0.487198 0
M  V30 6518 C 617.85 1.84217 -2.8434 0
M  V30 6519 C 616.409 2.37228 -2.92233 0
M  V30 6520 C 615.556 1.16576 -2.51606 0
M  V30 6521 H 618.507 0.213407 -1.57259 0
M  V30 6522 H 618.528 2.69721 -2.68385 0
M  V30 6523 H 618.04 1.17979 -3.69733 0
M  V30 6524 H 616.141 3.06905 -2.11282 0
M  V30 6525 H 616.254 2.69682 -3.95991 0
M  V30 6526 H 614.618 1.51263 -2.04919 0
M  V30 6527 H 615.401 0.519404 -3.39348 0
M  V30 6528 N 617.846 1.41785 0.688094 0
M  V30 6529 C 618.796 1.40684 1.79421 0
M  V30 6530 C 619.78 0.280096 1.58443 0
M  V30 6531 O 620.972 0.521332 1.69148 0
M  V30 6532 C 618.101 1.29874 3.17785 0
M  V30 6533 C 617.187 2.47442 3.44432 0
M  V30 6534 N 617.578 3.72895 3.41736 0
M  V30 6535 C 615.876 2.41416 3.75013 0
M  V30 6536 C 616.577 4.50912 3.67496 0
M  V30 6537 N 615.553 3.81131 3.87608 0
M  V30 6538 H 619.355 2.35591 1.7571 0
M  V30 6539 H 616.869 1.35946 0.888393 0
M  V30 6540 H 618.866 1.27168 3.97031 0
M  V30 6541 H 617.526 0.359587 3.22703 0
M  V30 6542 H 618.537 4.05676 3.21943 0
M  V30 6543 H 615.214 1.56011 3.87256 0
M  V30 6544 H 616.604 5.59865 3.71484 0
M  V30 6545 N 619.324 -0.923095 1.27737 0
M  V30 6546 C 620.74 -1.19985 1.05241 0
M  V30 6547 C 620.94 -2.00391 -0.21113 0
M  V30 6548 O 619.996 -2.35324 -0.915366 0
M  V30 6549 C 621.309 -1.94352 2.29451 0
M  V30 6550 C 622.857 -2.07273 2.34536 0
M  V30 6551 C 623.332 -2.85046 3.58487 0
M  V30 6552 N 624.823 -2.92612 3.59072 0
M  V30 6553 C 625.558 -3.53266 4.51654 0
M  V30 6554 N 625.054 -4.15274 5.54545 0
M  V30 6555 N 626.847 -3.50714 4.39268 0
M  V30 6556 H 618.998 -0.386042 2.08862 0
M  V30 6557 H 621.261 -0.233407 0.918817 0
M  V30 6558 H 620.967 -1.42692 3.21453 0
M  V30 6559 H 620.841 -2.94947 2.3513 0
M  V30 6560 H 623.228 -2.58117 1.43037 0
M  V30 6561 H 623.309 -1.05884 2.32857 0
M  V30 6562 H 622.953 -2.34884 4.50324 0
M  V30 6563 H 622.883 -3.8673 3.57418 0
M  V30 6564 H 625.374 -2.48547 2.84663 0
M  V30 6565 H 625.687 -4.59507 6.21348 0
M  V30 6566 H 624.032 -4.13806 5.58382 0
M  V30 6567 H 627.223 -3.01475 3.58093 0
M  V30 6568 H 627.396 -3.97693 5.1161 0
M  V30 6569 N 620.802 -1.09834 -1.13024 0
M  V30 6570 C 622.027 -0.85909 -1.88771 0
M  V30 6571 C 622.452 0.584402 -1.78791 0
M  V30 6572 O 621.81 1.41101 -1.13842 0
M  V30 6573 C 621.858 -1.30427 -3.36186 0
M  V30 6574 O 620.962 -0.465368 -4.09766 0
M  V30 6575 H 620.303 -0.310786 -0.586778 0
M  V30 6576 H 622.833 -1.46355 -1.42973 0
M  V30 6577 H 622.843 -1.2915 -3.8702 0
M  V30 6578 H 621.518 -2.3555 -3.42767 0
M  V30 6579 H 620.095 -0.542814 -3.68928 0
M  V30 6580 N 622.28 1.30327 -0.886154 0
M  V30 6581 C 623.508 2.00254 -0.520176 0
M  V30 6582 C 623.923 1.66419 0.891637 0
M  V30 6583 O 623.28 0.901951 1.58654 0
M  V30 6584 C 623.331 3.54916 -0.686775 0
M  V30 6585 O 623.052 3.87547 -2.04301 0
M  V30 6586 C 624.553 4.42115 -0.323945 0
M  V30 6587 H 621.773 0.640204 -0.200947 0
M  V30 6588 H 624.317 1.66183 -1.19178 0
M  V30 6589 H 622.472 3.8735 -0.0625273 0
M  V30 6590 H 622.886 4.82247 -2.06249 0
M  V30 6591 H 624.36 5.49808 -0.491407 0
M  V30 6592 H 624.837 4.32953 0.73811 0
M  V30 6593 H 625.443 4.15129 -0.924565 0
M  V30 6594 O 623.797 0.786908 1.41032 0
M  V30 6595 H 624.488 0.356185 1.90397 0
M  V30 END ATOM
M  V30 BEGIN BOND
M  V30 END BOND
M  V30 END CTAB
M  END
$$$$
