drugbank_target|Q93RD8 H subunit of photosynthetic reaction center complex (DB03152; DB04147)
 OpenBabel12092120433D

  0  0  0     0  0            999 V3000
M  V30 BEGIN CTAB
M  V30 COUNTS 3941 3996 0 0 0
M  V30 BEGIN ATOM
M  V30 1 H -0.908 1.98254 -0.117106 0
M  V30 2 N 0 1.576 0 0
M  V30 3 C 1.249 1.89747 0.684041 0
M  V30 4 C 1.562 0.87501 1.74937 0
M  V30 5 O 2.768 1.0867 2.48803 0
M  V30 6 C 1.224 3.36829 1.26783 0
M  V30 7 C 0.832 4.47371 0.237329 0
M  V30 8 C 2.576 3.78085 1.93007 0
M  V30 9 C 0.483 5.85531 0.831114 0
M  V30 10 H -0.587 0.708028 0.259253 0
M  V30 11 H 2.064 1.834 -0.060544 0
M  V30 12 H 0.446 3.38013 2.06309 0
M  V30 13 H 1.62 4.57703 -0.53333 0
M  V30 14 H -0.065 4.15134 -0.324463 0
M  V30 15 H 2.532 4.78644 2.38337 0
M  V30 16 H 2.875 3.116 2.76063 0
M  V30 17 H 3.408 3.79201 1.20215 0
M  V30 18 H 0.147 6.55488 0.0393298 0
M  V30 19 H -0.333 5.78862 1.57093 0
M  V30 20 H 1.346 6.33188 1.32975 0
M  V30 21 N 1.4781 -0.272755 1.55222 0
M  V30 22 C 2.7061 -1.02255 1.79865 0
M  V30 23 C 3.1211 -1.79924 0.572088 0
M  V30 24 O 2.4781 -1.76638 -0.458842 0
M  V30 25 C 2.5291 -1.98094 3.02392 0
M  V30 26 O 2.2501 -1.23572 4.20311 0
M  V30 27 C 3.7511 -2.84884 3.39641 0
M  V30 28 H 0.9711 -0.302057 0.599168 0
M  V30 29 H 3.5151 -0.303465 2.02236 0
M  V30 30 H 1.6701 -2.65465 2.82147 0
M  V30 31 H 2.0841 -1.88172 4.89583 0
M  V30 32 H 3.5581 -3.47927 4.28545 0
M  V30 33 H 4.0351 -3.54665 2.59055 0
M  V30 34 H 4.6411 -2.23003 3.62146 0
M  V30 35 N 2.9562 -1.48159 -0.537278 0
M  V30 36 C 3.9062 -1.5854 -1.63857 0
M  V30 37 C 4.8902 -0.442969 -1.54682 0
M  V30 38 O 6.0822 -0.69401 -1.62827 0
M  V30 39 C 3.2112 -1.62144 -3.02596 0
M  V30 40 C 2.2972 -2.81841 -3.16901 0
M  V30 41 N 2.6882 -4.06337 -3.01204 0
M  V30 42 C 0.9862 -2.79021 -3.47942 0
M  V30 43 C 1.6872 -4.86606 -3.18731 0
M  V30 44 N 0.6632 -4.19288 -3.45974 0
M  V30 45 H 4.4652 -2.5255 -1.50319 0
M  V30 46 H 1.9792 -1.4443 -0.742555 0
M  V30 47 H 3.9762 -1.67674 -3.81695 0
M  V30 48 H 2.6362 -0.69245 -3.17231 0
M  V30 49 H 3.6472 -4.36888 -2.78117 0
M  V30 50 H 0.3242 -1.95347 -3.6898 0
M  V30 51 H 1.7142 -5.95385 -3.11394 0
M  V30 52 N 4.4343 0.785586 -1.36625 0
M  V30 53 C 5.6643 1.5722 -1.34036 0
M  V30 54 C 6.0723 1.89033 0.0795062 0
M  V30 55 O 5.4153 1.50881 1.04789 0
M  V30 56 C 5.4773 2.91759 -2.10041 0
M  V30 57 C 5.1413 2.82654 -3.59104 0
M  V30 58 C 6.1383 2.54634 -4.53274 0
M  V30 59 C 3.8233 3.01111 -4.02042 0
M  V30 60 C 5.8173 2.45177 -5.88359 0
M  V30 61 C 3.5043 2.91276 -5.37216 0
M  V30 62 C 4.5023 2.63348 -6.30188 0
M  V30 63 O 4.1903 2.53514 -7.6288 0
M  V30 64 H 3.9223 0.494177 -0.461265 0
M  V30 65 H 6.4763 0.982632 -1.8037 0
M  V30 66 H 4.7063 3.52781 -1.58375 0
M  V30 67 H 6.3953 3.53059 -2.00261 0
M  V30 68 H 7.1613 2.40073 -4.21414 0
M  V30 69 H 3.0403 3.21854 -3.30047 0
M  V30 70 H 6.5843 2.23299 -6.60896 0
M  V30 71 H 2.4813 3.054 -5.68684 0
M  V30 72 H 3.2493 2.68967 -7.73045 0
M  V30 73 N 5.9124 1.20967 1.01018 0
M  V30 74 C 7.1614 1.01796 1.74128 0
M  V30 75 C 7.4744 -0.449691 1.90361 0
M  V30 76 O 8.6804 -0.76068 2.60626 0
M  V30 77 C 7.1364 1.7727 3.13215 0
M  V30 78 C 6.7444 3.28171 3.04972 0
M  V30 79 C 8.4884 1.66489 3.90489 0
M  V30 80 C 6.3954 3.96156 4.39107 0
M  V30 81 H 5.3254 0.377276 0.652824 0
M  V30 82 H 7.9764 1.44651 1.12909 0
M  V30 83 H 6.3584 1.27205 3.75013 0
M  V30 84 H 7.5324 3.85499 2.52443 0
M  V30 85 H 5.8474 3.39437 2.41188 0
M  V30 86 H 8.4444 2.14617 4.89738 0
M  V30 87 H 8.7874 0.6222 4.11624 0
M  V30 88 H 9.3204 2.14003 3.35332 0
M  V30 89 H 6.0594 5.00604 4.23174 0
M  V30 90 H 5.5794 3.43617 4.91617 0
M  V30 91 H 7.2584 4.00774 5.07926 0
M  V30 92 N 7.3905 -1.2043 1.01659 0
M  V30 93 C 8.6675 -1.8548 0.621004 0
M  V30 94 C 9.0475 -1.9091 -0.900919 0
M  V30 95 O 8.3955 -1.41694 -1.79263 0
M  V30 96 C 8.6055 -3.25119 1.2688 0
M  V30 97 C 9.9535 -4.01403 1.38423 0
M  V30 98 O 10.9775 -3.34473 1.22501 0
M  V30 99 O 9.8365 -5.21265 1.64151 0
M  V30 100 H 6.9305 -0.798761 0.214266 0
M  V30 101 H 9.4765 -1.28019 1.11396 0
M  V30 102 H 8.2485 -3.15932 2.30873 0
M  V30 103 H 7.8715 -3.90212 0.762917 0
M  V30 104 N 8.8686 -0.792821 -1.36206 0
M  V30 105 C 9.8316 -0.199459 -2.2833 0
M  V30 106 C 10.8316 0.605189 -1.48977 0
M  V30 107 O 12.0216 0.425685 -1.68919 0
M  V30 108 C 9.1536 0.723523 -3.33134 0
M  V30 109 H 10.3466 -1.01181 -2.82316 0
M  V30 110 H 7.8996 -0.562485 -1.45828 0
M  V30 111 H 8.6346 1.56008 -2.84309 0
M  V30 112 H 8.4196 0.148436 -3.91819 0
M  V30 113 H 9.9096 1.13344 -4.01924 0
M  V30 114 N 10.3467 1.47872 -0.545128 0
M  V30 115 C 11.3097 2.28337 0.198717 0
M  V30 116 C 12.3097 1.36255 0.853888 0
M  V30 117 O 13.4997 1.59003 0.711606 0
M  V30 118 C 10.6317 3.15585 1.28915 0
M  V30 119 H 11.8247 2.95567 -0.507941 0
M  V30 120 H 9.3777 1.53362 -0.301616 0
M  V30 121 H 10.1127 2.53019 2.02859 0
M  V30 122 H 9.8977 3.83337 0.824309 0
M  V30 123 H 11.3877 3.76243 1.81194 0
M  V30 124 N 11.8248 0.280983 1.55075 0
M  V30 125 C 12.7568 -0.637268 2.20163 0
M  V30 126 C 13.7698 -1.11298 1.18813 0
M  V30 127 O 14.9588 -1.03388 1.4551 0
M  V30 128 C 12.0588 -1.88199 2.81841 0
M  V30 129 C 11.2318 -1.55211 4.08936 0
M  V30 130 C 10.2908 -2.64991 4.54606 0
M  V30 131 O 9.3168 -2.30929 5.2025 0
M  V30 132 N 10.5188 -3.95161 4.25238 0
M  V30 133 H 13.2838 -0.0801694 2.99593 0
M  V30 134 H 10.8448 0.102329 1.61576 0
M  V30 135 H 12.8368 -2.60948 3.09335 0
M  V30 136 H 11.4068 -2.34799 2.06369 0
M  V30 137 H 10.6268 -0.658185 3.88666 0
M  V30 138 H 11.9148 -1.30681 4.91732 0
M  V30 139 H 11.3128 -4.25653 3.72607 0
M  V30 140 H 9.8698 -4.6427 4.5749 0
M  V30 141 N 13.3029 -1.57598 0.00835791 0
M  V30 142 C 14.5519 -1.90107 -0.673968 0
M  V30 143 C 14.8649 -0.884275 -1.7447 0
M  V30 144 O 16.0709 -1.09987 -2.48224 0
M  V30 145 C 14.5269 -3.37497 -1.24995 0
M  V30 146 C 14.1349 -4.47491 -0.2136 0
M  V30 147 C 15.8789 -3.79104 -1.90999 0
M  V30 148 C 13.7859 -5.85963 -0.80005 0
M  V30 149 H 12.7159 -0.709393 -0.255495 0
M  V30 150 H 15.3669 -1.83365 0.0702693 0
M  V30 151 H 13.7489 -3.39102 -2.04513 0
M  V30 152 H 14.9229 -4.57414 0.557596 0
M  V30 153 H 13.2379 -4.14956 0.346474 0
M  V30 154 H 15.8349 -4.79901 -2.35795 0
M  V30 155 H 16.1779 -3.1306 -2.74407 0
M  V30 156 H 16.7109 -3.79833 -1.18203 0
M  V30 157 H 13.4499 -6.555 -0.00456708 0
M  V30 158 H 12.9699 -5.79687 -1.54021 0
M  V30 159 H 14.6489 -6.33884 -1.29615 0
M  V30 160 N 14.781 0.264519 -1.55364 0
M  V30 161 C 16.009 1.013 -1.80405 0
M  V30 162 C 16.424 1.79618 -0.581622 0
M  V30 163 O 15.781 1.76879 0.449468 0
M  V30 164 C 15.832 1.96487 -3.03439 0
M  V30 165 O 15.553 1.21341 -4.20961 0
M  V30 166 C 17.054 2.83079 -3.41147 0
M  V30 167 H 14.274 0.298875 -0.600762 0
M  V30 168 H 16.818 0.292736 -2.02394 0
M  V30 169 H 14.973 2.63965 -2.83551 0
M  V30 170 H 15.387 1.85573 -4.90574 0
M  V30 171 H 16.861 3.4565 -4.30384 0
M  V30 172 H 17.338 3.53286 -2.60932 0
M  V30 173 H 17.944 2.2108 -3.63323 0
M  V30 174 N 16.2591 1.48442 0.529413 0
M  V30 175 C 17.5081 1.55742 1.28169 0
M  V30 176 C 17.8211 0.236511 1.94165 0
M  V30 177 O 19.0271 0.187761 2.7085 0
M  V30 178 C 17.4831 2.74667 2.32564 0
M  V30 179 C 17.0911 4.13402 1.72636 0
M  V30 180 C 18.8351 2.9128 3.08798 0
M  V30 181 C 16.7421 5.23587 2.74975 0
M  V30 182 H 15.6721 0.579796 0.48203 0
M  V30 183 H 18.3231 1.74776 0.559056 0
M  V30 184 H 16.7051 2.49067 3.07866 0
M  V30 185 H 17.8791 4.49022 1.03519 0
M  V30 186 H 16.1941 4.0191 1.08892 0
M  V30 187 H 18.7911 3.70767 3.85274 0
M  V30 188 H 19.1341 2.00757 3.64695 0
M  V30 189 H 19.6671 3.16782 2.40611 0
M  V30 190 H 16.4061 6.16076 2.23897 0
M  V30 191 H 15.9261 4.92454 3.42417 0
M  V30 192 H 17.6051 5.51724 3.37949 0
M  V30 193 N 17.7372 -0.778329 1.37039 0
M  V30 194 C 18.9832 -1.53817 1.33086 0
M  V30 195 C 19.3382 -1.92208 -0.0860346 0
M  V30 196 O 18.6312 -1.60713 -1.04316 0
M  V30 197 C 18.8252 -2.81845 2.19768 0
M  V30 198 C 18.6542 -2.55967 3.69744 0
M  V30 199 C 17.4242 -2.50428 4.38878 0
M  V30 200 C 19.6222 -2.2441 4.62758 0
M  V30 201 N 17.6042 -2.16564 5.74433 0
M  V30 202 C 18.9752 -2.0063 5.86641 0
M  V30 203 C 21.0302 -2.1051 4.5121 0
M  V30 204 C 19.7332 -1.64354 7.00272 0
M  V30 205 C 21.7592 -1.75634 5.64718 0
M  V30 206 C 21.1212 -1.52709 6.87648 0
M  V30 207 H 17.2202 -0.563434 0.542279 0
M  V30 208 H 19.8042 -0.908617 1.72198 0
M  V30 209 H 17.9752 -3.42649 1.82883 0
M  V30 210 H 19.7072 -3.47682 2.07122 0
M  V30 211 H 16.4622 -2.66056 3.91805 0
M  V30 212 H 16.8862 -2.02348 6.46053 0
M  V30 213 H 21.5282 -2.26919 3.56746 0
M  V30 214 H 19.2462 -1.46683 7.94676 0
M  V30 215 H 22.8322 -1.65546 5.57751 0
M  V30 216 H 21.7122 -1.2612 7.73992 0
M  V30 217 N 19.2153 -1.21501 -1.00376 0
M  V30 218 C 20.1783 -0.976927 -2.07337 0
M  V30 219 C 21.1783 0.0525322 -1.60714 0
M  V30 220 O 22.3683 -0.184869 -1.73216 0
M  V30 221 C 19.5003 -0.473423 -3.37597 0
M  V30 222 H 20.6933 -1.92587 -2.29892 0
M  V30 223 H 18.2463 -1.03217 -1.17371 0
M  V30 224 H 18.9813 0.480379 -3.20722 0
M  V30 225 H 18.7663 -1.216 -3.72768 0
M  V30 226 H 20.2563 -0.32675 -4.1632 0
M  V30 227 N 20.6934 1.19889 -1.02296 0
M  V30 228 C 21.9404 1.8942 -0.715972 0
M  V30 229 C 22.2684 1.79251 0.754944 0
M  V30 230 O 21.5234 1.17526 1.56481 0
M  V30 231 C 21.8224 3.39883 -1.10518 0
M  V30 232 C 21.4884 3.70254 -2.57337 0
M  V30 233 C 20.1504 3.78254 -2.97452 0
M  V30 234 C 22.5024 3.84052 -3.52354 0
M  V30 235 C 19.8304 3.97514 -4.31509 0
M  V30 236 C 22.1824 4.04824 -4.86108 0
M  V30 237 C 20.8464 4.11054 -5.25919 0
M  V30 238 H 20.1164 0.693138 -0.261993 0
M  V30 239 H 22.7634 1.42012 -1.28472 0
M  V30 240 H 21.0684 3.8915 -0.454953 0
M  V30 241 H 22.7654 3.9199 -0.845261 0
M  V30 242 H 19.3554 3.64632 -2.25258 0
M  V30 243 H 23.5394 3.77221 -3.22518 0
M  V30 244 H 18.7954 4.00574 -4.61898 0
M  V30 245 H 22.9694 4.14442 -5.59653 0
M  V30 246 H 20.5964 4.2573 -6.29808 0
M  V30 247 N 22.1715 0.800033 1.35784 0
M  V30 248 C 23.4175 0.38701 1.99684 0
M  V30 249 C 23.7725 -1.03268 1.62338 0
M  V30 250 O 23.0655 -1.70543 0.87325 0
M  V30 251 C 23.2595 0.500276 3.53881 0
M  V30 252 C 23.0885 1.92942 4.06206 0
M  V30 253 C 21.8585 2.55637 4.35865 0
M  V30 254 C 24.0565 2.89307 4.25213 0
M  V30 255 N 22.0385 3.9003 4.74078 0
M  V30 256 C 23.4095 4.08556 4.66349 0
M  V30 257 C 25.4645 2.86225 4.07406 0
M  V30 258 C 24.1675 5.25146 4.91543 0
M  V30 259 C 26.1935 4.02011 4.33752 0
M  V30 260 C 25.5555 5.20007 4.75155 0
M  V30 261 H 21.6545 0.189252 0.758754 0
M  V30 262 H 24.2385 1.03988 1.64604 0
M  V30 263 H 22.4095 -0.122568 3.88207 0
M  V30 264 H 24.1415 0.0624733 4.04652 0
M  V30 265 H 20.8965 2.07039 4.25948 0
M  V30 266 H 21.3205 4.59205 4.97454 0
M  V30 267 H 25.9625 1.96154 3.74544 0
M  V30 268 H 23.6805 6.15794 5.23281 0
M  V30 269 H 27.2665 4.00999 4.21534 0
M  V30 270 H 26.1465 6.08113 4.95145 0
M  V30 271 N 23.6496 -1.47581 0.552962 0
M  V30 272 C 24.5796 -2.32762 -0.185451 0
M  V30 273 C 25.5606 -1.43527 -0.912905 0
M  V30 274 O 26.7456 -1.72388 -0.894201 0
M  V30 275 C 23.8756 -3.25219 -1.21859 0
M  V30 276 C 22.8296 -4.23661 -0.607864 0
M  V30 277 C 22.1556 -5.05413 -1.74533 0
M  V30 278 C 23.4556 -5.20481 0.435582 0
M  V30 279 H 25.1496 -2.94749 0.525684 0
M  V30 280 H 22.6956 -1.41738 0.254251 0
M  V30 281 H 24.6486 -3.8365 -1.7433 0
M  V30 282 H 23.3726 -2.61279 -1.95961 0
M  V30 283 H 22.0316 -3.66451 -0.104489 0
M  V30 284 H 21.6796 -4.3788 -2.47529 0
M  V30 285 H 21.3796 -5.72059 -1.34249 0
M  V30 286 H 22.9036 -5.66701 -2.27338 0
M  V30 287 H 24.3176 -5.733 -0.00290157 0
M  V30 288 H 22.7146 -5.95305 0.757067 0
M  V30 289 H 23.7846 -4.66217 1.33303 0
M  V30 290 N 25.1277 -0.289203 -1.54924 0
M  V30 291 C 26.3747 0.323519 -1.99899 0
M  V30 292 C 26.7027 1.54797 -1.17762 0
M  V30 293 O 25.9577 1.94237 -0.238835 0
M  V30 294 C 26.2567 0.736119 -3.49737 0
M  V30 295 C 25.9227 -0.385276 -4.49251 0
M  V30 296 C 24.5847 -0.693156 -4.76181 0
M  V30 297 C 26.9367 -1.14021 -5.08575 0
M  V30 298 C 24.2647 -1.7593 -5.59701 0
M  V30 299 C 26.6167 -2.19619 -5.93254 0
M  V30 300 C 25.2807 -2.51026 -6.185 0
M  V30 301 H 24.5507 0.118384 -0.731482 0
M  V30 302 H 27.1977 -0.405847 -1.8715 0
M  V30 303 H 25.5027 1.54539 -3.60035 0
M  V30 304 H 27.1997 1.22118 -3.81953 0
M  V30 305 H 23.7897 -0.135202 -4.28387 0
M  V30 306 H 27.9737 -0.915611 -4.87781 0
M  V30 307 H 23.2297 -2.0075 -5.77503 0
M  V30 308 H 27.4037 -2.78581 -6.38252 0
M  V30 309 H 25.0307 -3.33772 -6.83008 0
M  V30 310 N 26.6058 1.57591 -0.0167156 0
M  V30 311 C 27.8528 1.91283 0.664597 0
M  V30 312 C 28.1808 0.891949 1.72842 0
M  V30 313 O 27.4358 -0.100931 1.9544 0
M  V30 314 C 27.7348 3.3172 1.33029 0
M  V30 315 C 27.4008 4.4914 0.398047 0
M  V30 316 C 26.0628 4.80992 0.141421 0
M  V30 317 C 28.4148 5.20634 -0.242825 0
M  V30 318 C 25.7428 5.81703 -0.764092 0
M  V30 319 C 28.0948 6.22311 -1.13632 0
M  V30 320 C 26.7588 6.52611 -1.40196 0
M  V30 321 H 26.0288 0.699956 0.243193 0
M  V30 322 H 28.6758 1.9135 -0.0758267 0
M  V30 323 H 26.9808 3.27856 2.14517 0
M  V30 324 H 28.6778 3.55055 1.86379 0
M  V30 325 H 25.2678 4.24262 0.608238 0
M  V30 326 H 29.4518 4.96267 -0.0576019 0
M  V30 327 H 24.7078 6.03532 -0.977732 0
M  V30 328 H 28.8818 6.76834 -1.63917 0
M  V30 329 H 26.5088 7.30467 -2.10529 0
M  V30 330 N 28.0839 -0.256276 1.55502 0
M  V30 331 C 29.3309 -0.985619 1.76895 0
M  V30 332 C 29.6589 -1.85671 0.579355 0
M  V30 333 O 28.9139 -1.90744 -0.437651 0
M  V30 334 C 29.2129 -1.88432 3.03691 0
M  V30 335 C 28.8789 -1.16936 4.35473 0
M  V30 336 C 27.5409 -0.97173 4.71286 0
M  V30 337 C 29.8929 -0.661889 5.1698 0
M  V30 338 C 27.2209 -0.254179 5.86149 0
M  V30 339 C 29.5729 0.042149 6.32586 0
M  V30 340 C 28.2369 0.25134 6.67027 0
M  V30 341 H 27.5069 -0.360663 0.647304 0
M  V30 342 H 30.1539 -0.256483 1.89775 0
M  V30 343 H 28.4589 -2.68021 2.85783 0
M  V30 344 H 30.1559 -2.45015 3.1744 0
M  V30 345 H 26.7459 -1.33332 4.07333 0
M  V30 346 H 30.9299 -0.802145 4.89775 0
M  V30 347 H 26.1859 -0.0815408 6.11346 0
M  V30 348 H 30.3599 0.443049 6.94989 0
M  V30 349 H 27.9869 0.809314 7.5588 0
M  V30 350 N 29.562 -1.4872 -0.521534 0
M  V30 351 C 30.81 -1.56857 -1.27437 0
M  V30 352 C 31.131 -0.247982 -1.93417 0
M  V30 353 O 30.401 0.731151 -1.81744 0
M  V30 354 H 28.981 -0.577885 -0.473347 0
M  V30 355 H 31.643 -1.85233 -0.606205 0
M  V30 356 H 30.739 -2.35402 -2.0492 0
M  V30 357 N 31.0401 0.771051 -1.3745 0
M  V30 358 C 31.9701 1.89827 -1.3597 0
M  V30 359 C 32.9511 1.68562 -0.228216 0
M  V30 360 O 34.1361 1.8941 -0.428675 0
M  V30 361 C 31.2661 3.2712 -1.16662 0
M  V30 362 C 30.2201 3.6295 -2.2683 0
M  V30 363 C 29.5461 4.98791 -1.92644 0
M  V30 364 C 30.8461 3.69627 -3.69017 0
M  V30 365 H 32.5401 1.91323 -2.30295 0
M  V30 366 H 30.0861 0.919082 -1.10855 0
M  V30 367 H 32.0391 4.05615 -1.14256 0
M  V30 368 H 30.7631 3.26059 -0.187926 0
M  V30 369 H 29.4221 2.86763 -2.28392 0
M  V30 370 H 29.0701 4.94271 -0.933021 0
M  V30 371 H 28.7701 5.23733 -2.66416 0
M  V30 372 H 30.2941 5.79685 -1.91826 0
M  V30 373 H 31.7081 4.38273 -3.69581 0
M  V30 374 H 30.1051 4.06067 -4.41848 0
M  V30 375 H 31.1751 2.70273 -4.02592 0
M  V30 376 N 32.5182 1.22032 0.997298 0
M  V30 377 C 33.7672 1.03637 1.73038 0
M  V30 378 C 34.0802 -0.429475 1.90827 0
M  V30 379 O 35.2862 -0.732995 2.61418 0
M  V30 380 C 33.7422 1.80582 3.11317 0
M  V30 381 C 33.3502 3.31387 3.01474 0
M  V30 382 C 35.0942 1.70621 3.88701 0
M  V30 383 C 33.0012 4.00791 4.3488 0
M  V30 384 H 31.9312 0.384179 0.648785 0
M  V30 385 H 34.5822 1.4584 1.11368 0
M  V30 386 H 32.9642 1.31175 3.73643 0
M  V30 387 H 34.1382 3.88155 2.4834 0
M  V30 388 H 32.4532 3.41976 2.37575 0
M  V30 389 H 35.0502 2.19799 4.87434 0
M  V30 390 H 35.3932 0.665823 4.10941 0
M  V30 391 H 35.9262 2.17547 3.33044 0
M  V30 392 H 32.6652 5.05064 4.1784 0
M  V30 393 H 32.1852 3.48811 4.87945 0
M  V30 394 H 33.8642 4.06139 5.03647 0
M  V30 395 N 33.9963 -1.19345 1.0293 0
M  V30 396 C 35.2453 -1.88363 0.721256 0
M  V30 397 C 35.5583 -1.80514 -0.753254 0
M  V30 398 O 36.7643 -2.44788 -1.17436 0
M  V30 399 C 35.2203 -3.37872 1.23978 0
M  V30 400 C 34.8283 -3.54278 2.74211 0
M  V30 401 C 36.5723 -4.12365 1.00775 0
M  V30 402 C 34.4793 -4.97682 3.19479 0
M  V30 403 H 33.4093 -0.705484 0.266098 0
M  V30 404 H 36.0603 -1.34928 1.24365 0
M  V30 405 H 34.4423 -3.90707 0.6453 0
M  V30 406 H 35.6163 -3.11769 3.39318 0
M  V30 407 H 33.9313 -2.93174 2.95699 0
M  V30 408 H 36.5283 -5.18119 1.32123 0
M  V30 409 H 36.8713 -4.16263 -0.0554308 0
M  V30 410 H 37.4043 -3.65668 1.56625 0
M  V30 411 H 34.1433 -4.98945 4.25128 0
M  V30 412 H 33.6633 -5.4095 2.591 0
M  V30 413 H 35.3423 -5.66337 3.12845 0
M  V30 414 N 35.4744 -0.807222 -1.35358 0
M  V30 415 C 36.7044 -0.399796 -2.02695 0
M  V30 416 C 37.1124 0.994176 -1.60974 0
M  V30 417 O 36.4554 1.65209 -0.803226 0
M  V30 418 C 36.5174 -0.404445 -3.57218 0
M  V30 419 C 36.1814 -1.74904 -4.22206 0
M  V30 420 C 37.1784 -2.70743 -4.4384 0
M  V30 421 C 34.8634 -2.03322 -4.5931 0
M  V30 422 C 36.8574 -3.93183 -5.01683 0
M  V30 423 C 34.5444 -3.26026 -5.16866 0
M  V30 424 C 35.5424 -4.20774 -5.37994 0
M  V30 425 O 35.2304 -5.41312 -5.94337 0
M  V30 426 H 34.9624 -0.160517 -0.656666 0
M  V30 427 H 37.5164 -1.09235 -1.73945 0
M  V30 428 H 35.7464 0.344707 -3.85161 0
M  V30 429 H 37.4354 -0.0192429 -4.05895 0
M  V30 430 H 38.2014 -2.5008 -4.15554 0
M  V30 431 H 34.0804 -1.30384 -4.42178 0
M  V30 432 H 37.6244 -4.6715 -5.1809 0
M  V30 433 H 33.5214 -3.46559 -5.44579 0
M  V30 434 H 34.2894 -5.42618 -6.12787 0
M  V30 435 N 36.9525 1.47285 -0.560781 0
M  V30 436 C 37.8825 2.32857 0.173105 0
M  V30 437 C 38.8635 1.44009 0.905281 0
M  V30 438 O 40.0485 1.7286 0.885046 0
M  V30 439 C 37.1785 3.25861 1.20133 0
M  V30 440 C 36.1325 4.23978 0.585388 0
M  V30 441 C 35.4585 5.06332 1.7185 0
M  V30 442 C 36.7585 5.20242 -0.463178 0
M  V30 443 H 38.4525 2.94466 -0.541307 0
M  V30 444 H 35.9985 1.41601 -0.261764 0
M  V30 445 H 37.9515 3.84569 1.72293 0
M  V30 446 H 36.6755 2.62315 1.94573 0
M  V30 447 H 35.3345 3.66501 0.085054 0
M  V30 448 H 34.9825 4.39186 2.45203 0
M  V30 449 H 34.6825 5.72762 1.31213 0
M  V30 450 H 36.2065 5.67899 2.24329 0
M  V30 451 H 37.6205 5.73293 -0.027502 0
M  V30 452 H 36.0175 5.94896 -0.788627 0
M  V30 453 H 37.0875 4.65504 -1.35773 0
M  V30 454 N 38.4306 0.297415 1.54768 0
M  V30 455 C 39.8466 -0.0560823 1.59501 0
M  V30 456 C 40.0466 -1.52725 1.31444 0
M  V30 457 O 39.1026 -2.27947 1.08611 0
M  V30 458 C 40.4156 0.338631 2.98787 0
M  V30 459 C 41.9636 0.287097 3.11681 0
M  V30 460 C 42.4386 0.656579 4.53269 0
M  V30 461 N 43.9296 0.608977 4.59179 0
M  V30 462 C 44.6646 0.867385 5.66802 0
M  V30 463 N 44.1606 1.19157 6.82476 0
M  V30 464 N 45.9536 0.794687 5.56454 0
M  V30 465 H 38.1046 1.25624 1.71267 0
M  V30 466 H 40.3676 0.509057 0.799728 0
M  V30 467 H 40.0736 1.36263 3.2423 0
M  V30 468 H 39.9476 -0.309508 3.75928 0
M  V30 469 H 42.3346 -0.727649 2.85988 0
M  V30 470 H 42.4156 0.969809 2.36703 0
M  V30 471 H 42.0596 1.66912 4.7969 0
M  V30 472 H 41.9896 -0.0481649 5.26578 0
M  V30 473 H 44.4806 0.369198 3.76092 0
M  V30 474 H 44.7936 1.37482 7.60473 0
M  V30 475 H 43.1386 1.22958 6.84037 0
M  V30 476 H 46.3296 0.541098 4.64962 0
M  V30 477 H 46.5026 0.999445 6.40246 0
M  V30 478 N 39.9087 -1.5758 0.0250728 0
M  V30 479 C 41.3247 -1.56124 -0.331282 0
M  V30 480 C 41.5247 -1.03029 -1.73169 0
M  V30 481 O 40.5807 -0.675215 -2.43305 0
M  V30 482 C 41.8937 -3.00139 -0.183584 0
M  V30 483 C 43.4417 -3.11946 -0.256654 0
M  V30 484 C 43.9167 -4.57793 -0.137792 0
M  V30 485 N 45.4077 -4.6279 -0.194904 0
M  V30 486 C 46.1427 -5.7326 -0.126655 0
M  V30 487 N 45.6387 -6.928 -0.00755288 0
M  V30 488 N 47.4317 -5.61811 -0.180348 0
M  V30 489 H 39.5827 -1.90424 0.94087 0
M  V30 490 H 41.8457 -0.875761 0.362968 0
M  V30 491 H 41.5517 -3.4292 0.780927 0
M  V30 492 H 41.4257 -3.64899 -0.955448 0
M  V30 493 H 43.8127 -2.69079 -1.21162 0
M  V30 494 H 43.8937 -2.49915 0.545517 0
M  V30 495 H 43.5377 -5.01339 0.813739 0
M  V30 496 H 43.4677 -5.17798 -0.958775 0
M  V30 497 H 45.9587 -3.76807 -0.287267 0
M  V30 498 H 46.2717 -7.72791 0.0379428 0
M  V30 499 H 44.6167 -6.94995 0.0271731 0
M  V30 500 H 47.8077 -4.6731 -0.271767 0
M  V30 501 H 47.9807 -6.47882 -0.123697 0
M  V30 502 N 41.3868 0.248026 -1.55636 0
M  V30 503 C 42.2968 1.32859 -1.93354 0
M  V30 504 C 43.3128 1.52719 -0.833838 0
M  V30 505 O 44.4888 1.66363 -1.13513 0
M  V30 506 C 41.5538 2.66337 -2.21958 0
M  V30 507 C 40.6148 2.55008 -3.45354 0
M  V30 508 C 39.8478 3.82121 -3.72584 0
M  V30 509 O 40.0708 4.83951 -3.01907 0
M  V30 510 O 39.0048 3.80822 -4.6611 0
M  V30 511 H 42.8308 1.03862 -2.85388 0
M  V30 512 H 40.4158 0.448686 -1.42503 0
M  V30 513 H 42.2978 3.45216 -2.4167 0
M  V30 514 H 40.9728 2.95068 -1.33103 0
M  V30 515 H 39.8798 1.7442 -3.30951 0
M  V30 516 H 41.2128 2.31222 -4.34508 0
M  V30 517 N 42.8649 1.48995 0.513639 0
M  V30 518 C 44.1419 1.48338 1.27495 0
M  V30 519 C 44.5219 0.204065 2.10111 0
M  V30 520 O 43.8699 -0.813881 2.13514 0
M  V30 521 C 44.0799 2.75498 2.14247 0
M  V30 522 C 45.4279 3.24484 2.73852 0
M  V30 523 O 46.4519 2.76528 2.24523 0
M  V30 524 O 45.3109 4.07974 3.6362 0
M  V30 525 H 42.4049 0.593149 0.576284 0
M  V30 526 H 44.9509 1.61246 0.528948 0
M  V30 527 H 43.7229 3.60109 1.53092 0
M  V30 528 H 43.3459 2.6539 2.96064 0
M  V30 529 N 44.343 -0.763751 1.37857 0
M  V30 530 C 45.29 -1.87726 1.34267 0
M  V30 531 C 46.26 -1.64807 0.206879 0
M  V30 532 O 47.445 -1.86613 0.397508 0
M  V30 533 C 44.585 -3.24896 1.16346 0
M  V30 534 C 43.698 -3.59716 2.39225 0
M  V30 535 C 42.833 -4.86137 2.14114 0
M  V30 536 C 41.872 -5.13711 3.32817 0
M  V30 537 N 41.009 -6.31323 3.07206 0
M  V30 538 H 45.849 -1.90129 2.29466 0
M  V30 539 H 43.386 -0.929433 1.14017 0
M  V30 540 H 45.344 -4.04036 1.03975 0
M  V30 541 H 43.974 -3.21847 0.247909 0
M  V30 542 H 43.026 -2.75498 2.62307 0
M  V30 543 H 44.338 -3.76027 3.27728 0
M  V30 544 H 43.492 -5.73198 1.9882 0
M  V30 545 H 42.231 -4.71945 1.22961 0
M  V30 546 H 41.236 -4.25123 3.48641 0
M  V30 547 H 42.461 -5.29807 4.24832 0
M  V30 548 H 40.407 -6.18474 2.1869 0
M  V30 549 H 40.324 -6.48087 3.89254 0
M  V30 550 H 41.592 -7.213 2.95546 0
M  V30 551 N 45.8211 -1.22559 -0.990812 0
M  V30 552 C 47.2371 -0.985996 -1.255 0
M  V30 553 C 47.4371 0.319173 -1.98956 0
M  V30 554 O 46.4931 1.04127 -2.3003 0
M  V30 555 C 47.8061 -2.18607 -2.06474 0
M  V30 556 C 49.3541 -2.22985 -2.19651 0
M  V30 557 C 49.8291 -3.4255 -3.04012 0
M  V30 558 N 51.3201 -3.42725 -3.11599 0
M  V30 559 C 52.0551 -4.31892 -3.7717 0
M  V30 560 N 51.5511 -5.31279 -4.44651 0
M  V30 561 N 53.3441 -4.19662 -3.73952 0
M  V30 562 H 45.4951 -2.06469 -0.49841 0
M  V30 563 H 47.7581 -0.904853 -0.282747 0
M  V30 564 H 47.4641 -3.13267 -1.59865 0
M  V30 565 H 47.3381 -2.18838 -3.07229 0
M  V30 566 H 49.7251 -1.28871 -2.65474 0
M  V30 567 H 49.8061 -2.26791 -1.18319 0
M  V30 568 H 49.4501 -4.36965 -2.58889 0
M  V30 569 H 49.3801 -3.35984 -4.0549 0
M  V30 570 H 51.8711 -2.70807 -2.63575 0
M  V30 571 H 52.1841 -5.95593 -4.92431 0
M  V30 572 H 50.5291 -5.3519 -4.43392 0
M  V30 573 H 53.7201 -3.41268 -3.20396 0
M  V30 574 H 53.8931 -4.89358 -4.24774 0
M  V30 575 N 47.2992 1.18797 -1.03562 0
M  V30 576 C 48.2092 2.25913 -0.632505 0
M  V30 577 C 49.2252 1.70668 0.338882 0
M  V30 578 O 50.4012 2.00453 0.195076 0
M  V30 579 C 47.4662 3.467 0.00350942 0
M  V30 580 C 46.5272 4.17098 -1.01624 0
M  V30 581 C 45.7602 5.32119 -0.410478 0
M  V30 582 O 45.9832 5.64976 0.784725 0
M  V30 583 O 44.9172 5.9107 -1.13667 0
M  V30 584 H 48.7432 2.62648 -1.52478 0
M  V30 585 H 46.3282 1.25781 -0.806195 0
M  V30 586 H 48.2102 4.19878 0.35781 0
M  V30 587 H 46.8852 3.11798 0.869686 0
M  V30 588 H 45.7922 3.4601 -1.42224 0
M  V30 589 H 47.1252 4.55987 -1.85301 0
M  V30 590 N 48.7773 0.814389 1.34928 0
M  V30 591 C 50.0253 0.397636 1.9815 0
M  V30 592 C 50.3463 -1.04069 1.64908 0
M  V30 593 O 49.6163 -1.72121 0.93548 0
M  V30 594 H 48.1963 0.144043 0.732981 0
M  V30 595 H 50.8583 1.04195 1.6471 0
M  V30 596 H 49.9543 0.509688 3.0791 0
M  V30 597 N 50.2554 -1.46986 0.568584 0
M  V30 598 C 51.4854 -2.0653 0.0539173 0
M  V30 599 C 51.8934 -1.42004 -1.25026 0
M  V30 600 O 51.2364 -0.514541 -1.76347 0
M  V30 601 C 51.2984 -3.58938 -0.200854 0
M  V30 602 C 50.9624 -4.45572 1.01559 0
M  V30 603 C 51.9594 -4.82986 1.92407 0
M  V30 604 C 49.6444 -4.8692 1.23346 0
M  V30 605 C 51.6384 -5.60559 3.03402 0
M  V30 606 C 49.3254 -5.64255 2.34649 0
M  V30 607 C 50.3234 -6.00986 3.24507 0
M  V30 608 O 50.0114 -6.76761 4.33878 0
M  V30 609 H 49.7434 -0.674292 0.0480234 0
M  V30 610 H 52.2974 -1.89812 0.784896 0
M  V30 611 H 50.5274 -3.73911 -0.986279 0
M  V30 612 H 52.2164 -4.0046 -0.662294 0
M  V30 613 H 52.9824 -4.51633 1.76785 0
M  V30 614 H 48.8614 -4.57789 0.543178 0
M  V30 615 H 52.4054 -5.89147 3.73565 0
M  V30 616 H 48.3024 -5.95021 2.5024 0
M  V30 617 H 49.0704 -6.95168 4.32068 0
M  V30 618 N 51.7335 -0.305618 -1.54608 0
M  V30 619 C 53.1445 0.186098 -1.8577 0
M  V30 620 C 53.4955 1.53058 -1.22751 0
M  V30 621 O 52.6205 2.09888 -0.526893 0
M  V30 622 C 53.2155 0.344449 -3.37044 0
M  V30 623 C 51.7745 0.780384 -3.68221 0
M  V30 624 C 50.9215 -0.108554 -2.77087 0
M  V30 625 H 53.8725 -0.526485 -1.49712 0
M  V30 626 H 53.8935 1.17828 -3.61796 0
M  V30 627 H 53.4055 -0.634235 -3.82883 0
M  V30 628 H 51.5065 1.76945 -3.27904 0
M  V30 629 H 51.6195 0.596572 -4.75371 0
M  V30 630 H 49.9835 0.412931 -2.5133 0
M  V30 631 H 50.7665 -1.08368 -3.25747 0
M  V30 632 N 53.2116 1.57565 -0.0334293 0
M  V30 633 C 54.1416 2.13511 0.945265 0
M  V30 634 C 55.1226 1.05231 1.33643 0
M  V30 635 O 56.3076 1.33084 1.41429 0
M  V30 636 C 53.4376 2.6657 2.22616 0
M  V30 637 C 52.3916 3.79676 1.97561 0
M  V30 638 C 51.7176 4.1918 3.31952 0
M  V30 639 C 53.0176 5.0557 1.31135 0
M  V30 640 H 54.7116 2.95538 0.479325 0
M  V30 641 H 52.2576 1.42166 0.229115 0
M  V30 642 H 54.2106 3.04344 2.91466 0
M  V30 643 H 52.9346 1.8171 2.71384 0
M  V30 644 H 51.5936 3.42347 1.31127 0
M  V30 645 H 51.2416 3.31296 3.78487 0
M  V30 646 H 50.9416 4.95402 3.15992 0
M  V30 647 H 52.4656 4.59541 4.02063 0
M  V30 648 H 53.8796 5.40903 1.89992 0
M  V30 649 H 52.2766 5.86818 1.25559 0
M  V30 650 H 53.3466 4.84062 0.284894 0
M  V30 651 N 54.6897 -0.239769 1.55765 0
M  V30 652 C 55.9667 -0.990056 1.68693 0
M  V30 653 C 56.3467 -2.03107 0.5754 0
M  V30 654 O 55.6947 -2.24604 -0.42017 0
M  V30 655 C 55.9047 -1.61696 3.09282 0
M  V30 656 C 57.2527 -2.11613 3.6811 0
M  V30 657 O 58.2767 -1.71624 3.12127 0
M  V30 658 O 57.1357 -2.85057 4.66267 0
M  V30 659 H 54.2297 -0.461299 0.686391 0
M  V30 660 H 56.7757 -0.232991 1.68093 0
M  V30 661 H 55.5477 -0.864357 3.81634 0
M  V30 662 H 55.1707 -2.44005 3.13923 0
M  V30 663 N 56.1678 -1.49265 -0.50573 0
M  V30 664 C 57.3928 -1.62478 -1.28902 0
M  V30 665 C 57.8178 -0.294332 -1.85783 0
M  V30 666 O 57.1758 0.737412 -1.65626 0
M  V30 667 C 57.2238 -2.69268 -2.39848 0
M  V30 668 O 56.3278 -2.28113 -3.43567 0
M  V30 669 H 55.6688 -0.54399 -0.380751 0
M  V30 670 H 58.1988 -1.95421 -0.605952 0
M  V30 671 H 58.2088 -2.91291 -2.85681 0
M  V30 672 H 56.8838 -3.65846 -1.97812 0
M  V30 673 H 55.4608 -2.16401 -3.03685 0
M  V30 674 N 57.6459 0.756429 -1.3826 0
M  V30 675 C 58.5939 1.89149 -1.35372 0
M  V30 676 C 59.5879 1.67691 -0.24004 0
M  V30 677 O 60.7939 1.75294 -0.408919 0
M  V30 678 H 57.1689 0.622271 -0.422236 0
M  V30 679 H 59.1399 1.88701 -2.31159 0
M  V30 680 C 57.8889 3.26599 -1.19284 0
M  V30 681 H 57.2119 3.43695 -2.0424 0
M  V30 682 H 58.6519 4.06274 -1.21316 0
M  V30 683 C 57.1109 3.3675 0.100454 0
M  V30 684 O 57.6409 3.86951 1.07851 0
M  V30 685 N 55.8469 2.90179 0.15633 0
M  V30 686 H 55.3939 2.49517 -0.640253 0
M  V30 687 H 55.3519 2.97352 1.02123 0
M  V30 688 N 59.124 1.23083 0.984299 0
M  V30 689 C 60.54 0.992637 1.24975 0
M  V30 690 C 60.74 -0.308618 1.99123 0
M  V30 691 O 59.796 -1.02905 2.30579 0
M  V30 692 C 61.109 2.19698 2.05312 0
M  V30 693 C 62.657 2.24147 2.18465 0
M  V30 694 C 63.132 3.44157 3.02192 0
M  V30 695 N 64.623 3.44372 3.09777 0
M  V30 696 C 65.358 4.33886 3.74874 0
M  V30 697 N 64.854 5.3363 4.41827 0
M  V30 698 N 66.647 4.21639 3.71721 0
M  V30 699 H 58.798 2.06731 0.487453 0
M  V30 700 H 61.061 0.906339 0.277944 0
M  V30 701 H 60.767 3.1411 1.58201 0
M  V30 702 H 60.641 2.20465 3.06064 0
M  V30 703 H 63.028 1.30277 2.64786 0
M  V30 704 H 63.109 2.27415 1.17115 0
M  V30 705 H 62.753 4.38332 2.56568 0
M  V30 706 H 62.683 3.3813 4.03702 0
M  V30 707 H 65.174 2.72201 2.62135 0
M  V30 708 H 65.487 5.98196 4.89266 0
M  V30 709 H 63.832 5.37534 4.40548 0
M  V30 710 H 67.023 3.42962 3.18582 0
M  V30 711 H 67.196 4.91604 4.22173 0
M  V30 712 N 60.6021 -1.18246 1.0419 0
M  V30 713 C 61.8301 -1.92195 0.766072 0
M  V30 714 C 62.2451 -1.76247 -0.676933 0
M  V30 715 O 61.6021 -1.09293 -1.46155 0
M  V30 716 C 61.6531 -3.43568 1.12442 0
M  V30 717 O 61.3741 -3.59015 2.51078 0
M  V30 718 C 62.8751 -4.34613 0.873275 0
M  V30 719 H 60.0951 -0.610114 0.279288 0
M  V30 720 H 62.6391 -1.50007 1.38989 0
M  V30 721 H 60.7941 -3.8354 0.545542 0
M  V30 722 H 61.2081 -4.5273 2.64831 0
M  V30 723 H 62.6821 -5.39374 1.17385 0
M  V30 724 H 63.1591 -4.38781 -0.191909 0
M  V30 725 H 63.7651 -4.00341 1.43551 0
M  V30 726 N 62.0802 -0.821533 -1.34494 0
M  V30 727 C 62.9902 -0.244355 -2.33324 0
M  V30 728 C 64.0062 0.620527 -1.62559 0
M  V30 729 O 65.1822 0.528754 -1.94335 0
M  V30 730 C 62.2472 0.585368 -3.41723 0
M  V30 731 C 61.3082 -0.301752 -4.28238 0
M  V30 732 C 60.5412 0.488466 -5.3146 0
M  V30 733 O 60.7642 1.72186 -5.4379 0
M  V30 734 O 59.6982 -0.12848 -6.01763 0
M  V30 735 H 63.5242 -1.06231 -2.84515 0
M  V30 736 H 61.1092 -0.583645 -1.37528 0
M  V30 737 H 62.9912 1.05747 -4.07916 0
M  V30 738 H 61.6662 1.38068 -2.92778 0
M  V30 739 H 60.5732 -0.821315 -3.64973 0
M  V30 740 H 61.9062 -1.06138 -4.8062 0
M  V30 741 N 63.5583 1.46682 -0.576371 0
M  V30 742 C 64.9743 1.57822 -0.237562 0
M  V30 743 C 65.1743 1.57237 1.26011 0
M  V30 744 O 64.2303 1.48596 2.04146 0
M  V30 745 C 65.5433 2.87499 -0.881168 0
M  V30 746 C 67.0913 3.01119 -0.85417 0
M  V30 747 C 67.5663 4.33524 -1.4772 0
M  V30 748 N 69.0573 4.40207 -1.44125 0
M  V30 749 C 69.7923 5.4126 -1.89276 0
M  V30 750 N 69.2883 6.49021 -2.42371 0
M  V30 751 N 71.0813 5.32422 -1.80231 0
M  V30 752 H 63.2323 1.45306 -1.54919 0
M  V30 753 H 65.4953 0.692733 -0.647167 0
M  V30 754 H 65.2013 2.9372 -1.93447 0
M  V30 755 H 65.0753 3.75224 -0.385592 0
M  V30 756 H 67.4623 2.94485 0.190491 0
M  V30 757 H 67.5433 2.14887 -1.3877 0
M  V30 758 H 67.1873 4.40916 -2.52103 0
M  V30 759 H 67.1173 5.1852 -0.918947 0
M  V30 760 H 69.6083 3.62931 -1.05307 0
M  V30 761 H 69.9213 7.2233 -2.74698 0
M  V30 762 H 68.2663 6.49858 -2.46393 0
M  V30 763 H 71.4573 4.47137 -1.38514 0
M  V30 764 H 71.6303 6.11034 -2.15735 0
M  V30 765 N 65.0364 0.313813 1.54444 0
M  V30 766 C 66.2614 -0.296681 2.05267 0
M  V30 767 C 66.6864 -1.45757 1.18897 0
M  V30 768 O 66.0444 -1.80239 0.195886 0
M  V30 769 C 66.0924 -0.71831 3.53373 0
M  V30 770 O 65.1964 -1.82175 3.69981 0
M  V30 771 H 64.5374 -0.0554061 0.661684 0
M  V30 772 H 67.0674 0.459387 1.99376 0
M  V30 773 H 67.0774 -1.00364 3.95463 0
M  V30 774 H 65.7524 0.130821 4.15694 0
M  V30 775 H 64.3294 -1.53598 3.39797 0
M  V30 776 N 66.5145 -1.57545 0.0417849 0
M  V30 777 C 67.7625 -1.91937 -0.632829 0
M  V30 778 C 68.0835 -0.919978 -1.71934 0
M  V30 779 O 67.3535 0.0366064 -1.95866 0
M  V30 780 H 65.9335 -0.708493 -0.236742 0
M  V30 781 H 68.5955 -1.9468 0.0925745 0
M  V30 782 H 67.6915 -2.92912 -1.07746 0
M  V30 783 N 67.9926 0.231505 -1.5589 0
M  V30 784 C 69.2406 0.955461 -1.78088 0
M  V30 785 C 69.5616 1.85262 -0.608533 0
M  V30 786 O 68.8316 1.92277 0.375035 0
M  V30 787 H 67.4116 0.355787 -0.656829 0
M  V30 788 H 70.0736 0.245751 -1.93344 0
M  V30 789 H 69.1696 1.56814 -2.69844 0
M  V30 790 N 69.4707 1.49531 0.497807 0
M  V30 791 C 70.8867 1.36365 0.829266 0
M  V30 792 C 71.0867 0.399184 1.97506 0
M  V30 793 O 70.1427 -0.167977 2.51941 0
M  V30 794 C 71.4557 2.77153 1.16647 0
M  V30 795 C 73.0037 2.85877 1.27449 0
M  V30 796 C 73.4787 4.2744 1.64497 0
M  V30 797 N 74.9697 4.30265 1.7154 0
M  V30 798 C 75.7047 5.3677 2.01656 0
M  V30 799 N 75.2007 6.53516 2.29976 0
M  V30 800 N 76.9937 5.24189 2.02934 0
M  V30 801 H 69.1447 2.10831 -0.257703 0
M  V30 802 H 71.4077 0.946534 -0.0527091 0
M  V30 803 H 71.1137 3.49442 0.397872 0
M  V30 804 H 70.9877 3.12722 2.10915 0
M  V30 805 H 73.3747 2.13824 2.0338 0
M  V30 806 H 73.4557 2.53887 0.312244 0
M  V30 807 H 73.0997 5.00021 0.891151 0
M  V30 808 H 73.0297 4.56896 2.61827 0
M  V30 809 H 75.5207 3.4607 1.51802 0
M  V30 810 H 75.8337 7.30506 2.52153 0
M  V30 811 H 74.1787 6.56737 2.27425 0
M  V30 812 H 77.3697 4.31988 1.80289 0
M  V30 813 H 77.5427 6.07286 2.26071 0
M  V30 814 N 70.9488 -0.749086 1.3866 0
M  V30 815 C 72.1948 -1.51056 1.35314 0
M  V30 816 C 72.5278 -1.94121 -0.0553751 0
M  V30 817 O 71.8028 -1.65763 -1.01749 0
M  V30 818 C 72.0858 -2.76003 2.31288 0
M  V30 819 C 71.9388 -2.39047 3.8102 0
M  V30 820 C 73.2578 -3.78046 2.2532 0
M  V30 821 H 70.3768 -0.547972 0.492844 0
M  V30 822 H 73.0188 -0.857628 1.69543 0
M  V30 823 H 71.1688 -3.31716 2.02229 0
M  V30 824 H 72.8408 -1.89074 4.20771 0
M  V30 825 H 71.0838 -1.71449 3.98482 0
M  V30 826 H 71.7548 -3.28462 4.4364 0
M  V30 827 H 74.2308 -3.31884 2.50983 0
M  V30 828 H 73.1068 -4.63159 2.94576 0
M  V30 829 H 73.3678 -4.23957 1.25352 0
M  V30 830 N 72.4269 -1.23603 -0.977757 0
M  V30 831 C 73.3739 -1.01954 -2.07061 0
M  V30 832 C 74.3439 0.0638697 -1.65977 0
M  V30 833 O 75.5289 -0.0887624 -1.90593 0
M  V30 834 C 72.6689 -0.619658 -3.39491 0
M  V30 835 C 71.7819 -1.77547 -3.93829 0
M  V30 836 C 70.9169 -1.32212 -5.14484 0
M  V30 837 C 69.9559 -2.44852 -5.60994 0
M  V30 838 N 69.0929 -2.00456 -6.72876 0
M  V30 839 H 73.9329 -1.95495 -2.24913 0
M  V30 840 H 71.4699 -0.973861 -1.10247 0
M  V30 841 H 73.4279 -0.368898 -4.15566 0
M  V30 842 H 72.0579 0.278752 -3.21594 0
M  V30 843 H 71.1099 -2.14016 -3.14486 0
M  V30 844 H 72.4219 -2.62219 -4.24314 0
M  V30 845 H 71.5759 -1.02965 -5.97899 0
M  V30 846 H 70.3149 -0.445808 -4.85658 0
M  V30 847 H 69.3199 -2.74871 -4.76157 0
M  V30 848 H 70.5449 -3.33024 -5.91837 0
M  V30 849 H 68.4909 -1.15208 -6.45804 0
M  V30 850 H 68.4079 -2.78687 -7.02759 0
M  V30 851 H 69.6759 -1.7432 -7.59758 0
M  V30 852 N 73.905 1.17692 -1.04816 0
M  V30 853 C 75.151 1.88137 -0.75711 0
M  V30 854 C 75.484 1.80604 0.713841 0
M  V30 855 O 74.759 1.21146 1.52164 0
M  V30 856 C 75.042 3.38318 -1.2334 0
M  V30 857 C 74.895 3.54622 -2.76701 0
M  V30 858 C 76.214 4.32214 -0.829415 0
M  V30 859 H 73.333 0.683163 -0.27651 0
M  V30 860 H 75.975 1.38424 -1.30149 0
M  V30 861 H 74.125 3.80787 -0.770286 0
M  V30 862 H 75.797 3.21194 -3.31107 0
M  V30 863 H 74.04 2.97026 -3.16161 0
M  V30 864 H 74.711 4.60028 -3.05088 0
M  V30 865 H 77.187 3.97565 -1.22805 0
M  V30 866 H 76.063 5.35838 -1.19033 0
M  V30 867 H 76.324 4.41294 0.266891 0
M  V30 868 N 75.3831 0.828654 1.34056 0
M  V30 869 C 76.6291 0.42008 1.98402 0
M  V30 870 C 76.9621 -1.01564 1.65525 0
M  V30 871 O 76.2371 -1.70834 0.929831 0
M  V30 872 C 76.5201 0.62927 3.54559 0
M  V30 873 C 76.3731 2.11152 3.97159 0
M  V30 874 C 77.6921 0.0688756 4.40046 0
M  V30 875 H 74.8111 0.154104 0.720709 0
M  V30 876 H 77.4531 1.04228 1.5886 0
M  V30 877 H 75.6031 0.0996418 3.88372 0
M  V30 878 H 77.2751 2.70522 3.73651 0
M  V30 879 H 75.5181 2.59985 3.47261 0
M  V30 880 H 76.1891 2.20868 5.05887 0
M  V30 881 H 78.6651 0.521458 4.1282 0
M  V30 882 H 77.5411 0.245006 5.48353 0
M  V30 883 H 77.8021 -1.0266 4.30015 0
M  V30 884 N 76.8612 -1.46375 0.584142 0
M  V30 885 C 78.1092 -2.01978 0.0701287 0
M  V30 886 C 78.4302 -1.4579 -1.295 0
M  V30 887 O 77.7002 -0.64314 -1.85042 0
M  V30 888 H 76.2802 -0.746648 0.0229345 0
M  V30 889 H 78.9422 -1.79461 0.760245 0
M  V30 890 H 78.0382 -3.121 0.0022064 0
M  V30 891 N 78.3393 -0.321999 -1.54275 0
M  V30 892 C 79.5863 0.281044 -2.0054 0
M  V30 893 C 79.9143 1.52265 -1.21019 0
M  V30 894 O 79.1693 1.93687 -0.279982 0
M  V30 895 C 79.4683 0.661769 -3.5122 0
M  V30 896 C 79.1343 -0.480482 -4.48333 0
M  V30 897 C 77.7963 -0.794005 -4.74604 0
M  V30 898 C 80.1483 -1.24783 -5.06042 0
M  V30 899 C 77.4763 -1.87763 -5.55844 0
M  V30 900 C 79.8283 -2.32153 -5.88462 0
M  V30 901 C 78.4923 -2.64089 -6.13036 0
M  V30 902 H 77.7623 0.102841 -0.733829 0
M  V30 903 H 80.4093 -0.445453 -1.86247 0
M  V30 904 H 78.7143 1.46867 -3.63232 0
M  V30 905 H 80.4113 1.13989 -3.84457 0
M  V30 906 H 77.0013 -0.226039 -4.28004 0
M  V30 907 H 81.1853 -1.01887 -4.85729 0
M  V30 908 H 76.4413 -2.12954 -5.73115 0
M  V30 909 H 80.6153 -2.92057 -6.32199 0
M  V30 910 H 78.2423 -3.48185 -6.75775 0
M  V30 911 N 79.8174 1.5752 -0.0501392 0
M  V30 912 C 81.2284 1.80271 0.485705 0
M  V30 913 C 81.5794 0.96228 1.70981 0
M  V30 914 O 80.7044 0.178578 2.15662 0
M  V30 915 C 81.2994 3.26957 0.887938 0
M  V30 916 C 79.8584 3.5063 1.36877 0
M  V30 917 C 79.0054 2.75165 0.343468 0
M  V30 918 H 81.9564 1.56281 -0.276028 0
M  V30 919 H 81.9774 3.37821 1.75093 0
M  V30 920 H 81.4894 3.881 -0.0031809 0
M  V30 921 H 79.5904 2.94766 2.27911 0
M  V30 922 H 79.7034 4.59343 1.36164 0
M  V30 923 H 78.0674 2.4127 0.816128 0
M  V30 924 H 78.8504 3.39034 -0.539548 0
M  V30 925 N 81.2955 -0.223234 1.56011 0
M  V30 926 C 82.5725 -0.972108 1.69733 0
M  V30 927 C 82.9525 -2.02485 0.59691 0
M  V30 928 O 82.3005 -2.25037 -0.396324 0
M  V30 929 C 82.5105 -1.58407 3.10979 0
M  V30 930 C 83.8585 -2.07696 3.70334 0
M  V30 931 O 84.8825 -1.68304 3.1393 0
M  V30 932 O 83.7415 -2.80096 4.69264 0
M  V30 933 H 80.8355 -0.453993 0.691245 0
M  V30 934 H 83.3815 -0.215149 1.68331 0
M  V30 935 H 82.1535 -0.823831 3.82529 0
M  V30 936 H 81.7765 -2.40661 3.16493 0
M  V30 937 N 82.7736 -1.49793 -0.48987 0
M  V30 938 C 83.7036 -1.70201 -1.59856 0
M  V30 939 C 84.6846 -0.55076 -1.60937 0
M  V30 940 O 85.8696 -0.787841 -1.77501 0
M  V30 941 C 82.9996 -1.77882 -2.98287 0
M  V30 942 C 81.9536 -2.92907 -3.12073 0
M  V30 943 C 81.2796 -2.85712 -4.51965 0
M  V30 944 C 82.5796 -4.3369 -2.91051 0
M  V30 945 H 84.2736 -2.63025 -1.43032 0
M  V30 946 H 81.8196 -1.26574 -0.686664 0
M  V30 947 H 83.7726 -1.90744 -3.75759 0
M  V30 948 H 82.4966 -0.816653 -3.16225 0
M  V30 949 H 81.1556 -2.79665 -2.37029 0
M  V30 950 H 80.8036 -1.8738 -4.66795 0
M  V30 951 H 80.5036 -3.62921 -4.62128 0
M  V30 952 H 82.0276 -3.00598 -5.31482 0
M  V30 953 H 83.4416 -4.47555 -3.58284 0
M  V30 954 H 81.8386 -5.12205 -3.12675 0
M  V30 955 H 82.9086 -4.47362 -1.87071 0
M  V30 956 N 84.2517 0.741722 -1.39055 0
M  V30 957 C 85.6627 1.31966 -1.32068 0
M  V30 958 C 86.0137 1.96192 0.0180797 0
M  V30 959 O 85.1387 1.95861 0.920196 0
M  V30 960 C 85.7337 2.39954 -2.39181 0
M  V30 961 C 84.2927 2.93438 -2.35735 0
M  V30 962 C 83.4397 1.66936 -2.21422 0
M  V30 963 H 86.3907 0.539721 -1.4924 0
M  V30 964 H 86.4117 3.20182 -2.05581 0
M  V30 965 H 85.9237 1.9318 -3.36605 0
M  V30 966 H 84.0247 3.4451 -1.41929 0
M  V30 967 H 84.1377 3.4701 -3.30335 0
M  V30 968 H 82.5017 1.91016 -1.68478 0
M  V30 969 H 83.2847 1.22224 -3.20806 0
M  V30 970 N 85.7298 1.2412 0.971189 0
M  V30 971 C 87.0068 0.986867 1.6888 0
M  V30 972 C 87.3868 -0.491857 2.0529 0
M  V30 973 O 86.7348 -1.46531 1.75331 0
M  V30 974 C 86.9448 1.9063 2.92338 0
M  V30 975 C 88.2928 2.17515 3.64654 0
M  V30 976 O 89.3168 1.88254 3.02388 0
M  V30 977 O 88.1758 2.6719 4.7673 0
M  V30 978 H 85.2698 0.372944 0.738134 0
M  V30 979 H 87.8158 1.35203 1.02559 0
M  V30 980 H 86.5878 2.90552 2.62097 0
M  V30 981 H 86.2108 1.54408 3.66393 0
M  V30 982 N 87.2079 -1.17134 1.05439 0
M  V30 983 C 88.6189 -1.69084 0.791676 0
M  V30 984 C 88.9699 -1.83822 -0.685839 0
M  V30 985 O 88.0949 -1.52757 -1.53278 0
M  V30 986 C 88.6899 -3.07119 1.4305 0
M  V30 987 C 87.2489 -3.56225 1.21577 0
M  V30 988 C 86.3959 -2.32421 1.51247 0
M  V30 989 H 89.3469 -1.01617 1.219 0
M  V30 990 H 89.3679 -3.71087 0.84112 0
M  V30 991 H 88.8799 -2.9636 2.50584 0
M  V30 992 H 86.9809 -3.72257 0.159787 0
M  V30 993 H 87.0939 -4.38837 1.92246 0
M  V30 994 H 85.4579 -2.3701 0.932653 0
M  V30 995 H 86.2409 -2.24268 2.5992 0
M  V30 996 N 88.686 -0.835752 -1.33615 0
M  V30 997 C 89.633 -0.26473 -2.29277 0
M  V30 998 C 90.603 0.617712 -1.54187 0
M  V30 999 O 91.788 0.556641 -1.825 0
M  V30 1000 C 88.928 0.556777 -3.40579 0
M  V30 1001 C 88.041 -0.349339 -4.30585 0
M  V30 1002 C 87.176 0.482969 -5.29 0
M  V30 1003 C 86.215 -0.421732 -6.10645 0
M  V30 1004 N 85.352 0.372262 -7.01112 0
M  V30 1005 H 90.192 -1.08582 -2.77514 0
M  V30 1006 H 87.729 -0.546927 -1.36554 0
M  V30 1007 H 89.687 1.04852 -4.03809 0
M  V30 1008 H 88.317 1.34286 -2.93542 0
M  V30 1009 H 87.369 -0.959372 -3.68104 0
M  V30 1010 H 88.681 -1.04445 -4.87742 0
M  V30 1011 H 87.835 1.03866 -5.97743 0
M  V30 1012 H 86.574 1.21153 -4.72412 0
M  V30 1013 H 85.579 -0.989464 -5.40823 0
M  V30 1014 H 86.804 -1.14861 -6.69316 0
M  V30 1015 H 84.75 1.08426 -6.46977 0
M  V30 1016 H 84.667 -0.264198 -7.55538 0
M  V30 1017 H 85.935 0.910293 -7.74167 0
M  V30 1018 N 90.1641 1.46063 -0.591896 0
M  V30 1019 C 91.3921 2.06717 -0.0868936 0
M  V30 1020 C 91.8071 1.43916 1.22203 0
M  V30 1021 O 91.1641 0.547698 1.74088 0
M  V30 1022 C 91.2151 3.6142 0.0758725 0
M  V30 1023 O 90.9361 4.21874 -1.18126 0
M  V30 1024 C 92.4371 4.39025 0.61416 0
M  V30 1025 H 89.6571 0.668162 -0.0616518 0
M  V30 1026 H 92.2011 1.8755 -0.815175 0
M  V30 1027 H 90.3561 3.79983 0.754413 0
M  V30 1028 H 90.7701 5.14861 -1.00092 0
M  V30 1029 H 92.2441 5.4783 0.677193 0
M  V30 1030 H 92.7211 4.07708 1.63312 0
M  V30 1031 H 93.3271 4.2529 -0.0298142 0
M  V30 1032 N 91.6422 0.330177 1.54103 0
M  V30 1033 C 92.8892 -0.270405 2.00686 0
M  V30 1034 C 93.2172 -1.51621 1.21825 0
M  V30 1035 O 92.4722 -1.93536 0.29025 0
M  V30 1036 C 92.7712 -0.643134 3.51566 0
M  V30 1037 C 92.4372 0.504251 4.48072 0
M  V30 1038 C 91.0992 0.819163 4.74176 0
M  V30 1039 C 93.4512 1.27465 5.05373 0
M  V30 1040 C 90.7792 1.90708 5.5484 0
M  V30 1041 C 93.1312 2.35271 5.87223 0
M  V30 1042 C 91.7952 2.67336 6.11627 0
M  V30 1043 H 91.0652 -0.0989482 0.734364 0
M  V30 1044 H 93.7122 0.455324 1.86008 0
M  V30 1045 H 92.0172 -1.44938 3.64006 0
M  V30 1046 H 93.7142 -1.11949 3.85056 0
M  V30 1047 H 90.3042 0.248733 4.27878 0
M  V30 1048 H 94.4882 1.04462 4.85182 0
M  V30 1049 H 89.7442 2.15991 5.71977 0
M  V30 1050 H 93.9182 2.95405 6.30641 0
M  V30 1051 H 91.5452 3.51763 6.73919 0
M  V30 1052 N 93.1203 -1.57491 0.0584922 0
M  V30 1053 C 94.3663 -1.93264 -0.614558 0
M  V30 1054 C 94.6993 -0.937717 -1.7006 0
M  V30 1055 O 93.9743 0.0351652 -1.94468 0
M  V30 1056 C 94.2573 -3.3938 -1.20386 0
M  V30 1057 C 94.1103 -4.49625 -0.125375 0
M  V30 1058 C 95.4293 -3.86039 -2.11334 0
M  V30 1059 H 92.5483 -0.702791 -0.221933 0
M  V30 1060 H 95.1903 -1.8961 0.12175 0
M  V30 1061 H 93.3403 -3.42626 -1.83139 0
M  V30 1062 H 95.0123 -4.58506 0.506971 0
M  V30 1063 H 93.2553 -4.30354 0.545672 0
M  V30 1064 H 93.9263 -5.48967 -0.577861 0
M  V30 1065 H 96.4023 -3.84716 -1.58534 0
M  V30 1066 H 95.2783 -4.88914 -2.49507 0
M  V30 1067 H 95.5393 -3.23215 -3.01636 0
M  V30 1068 N 94.5984 0.214957 -1.56127 0
M  V30 1069 C 95.5284 1.2695 -1.95974 0
M  V30 1070 C 96.5094 1.48539 -0.828868 0
M  V30 1071 O 97.6944 1.60611 -1.09168 0
M  V30 1072 C 94.8244 2.61794 -2.28214 0
M  V30 1073 C 93.7784 2.54851 -3.43853 0
M  V30 1074 C 93.1044 3.93785 -3.61715 0
M  V30 1075 C 94.4044 2.09065 -4.78632 0
M  V30 1076 H 96.0984 0.93846 -2.84312 0
M  V30 1077 H 93.6444 0.449996 -1.36788 0
M  V30 1078 H 95.5974 3.35731 -2.54682 0
M  V30 1079 H 94.3214 2.96599 -1.36736 0
M  V30 1080 H 92.9804 1.8337 -3.17444 0
M  V30 1081 H 92.6284 4.25908 -2.67602 0
M  V30 1082 H 92.3284 3.90019 -4.39498 0
M  V30 1083 H 93.8524 4.69374 -3.90539 0
M  V30 1084 H 95.2664 2.7275 -5.04262 0
M  V30 1085 H 93.6634 2.16346 -5.59745 0
M  V30 1086 H 94.7334 1.04315 -4.73547 0
M  V30 1087 N 96.0765 1.50051 0.48192 0
M  V30 1088 C 97.4875 1.5348 1.06305 0
M  V30 1089 C 97.8385 0.331997 1.93371 0
M  V30 1090 O 96.9635 -0.556256 2.09129 0
M  V30 1091 C 97.5585 2.7813 1.93466 0
M  V30 1092 C 96.1175 2.84275 2.46707 0
M  V30 1093 C 95.2645 2.47637 1.24785 0
M  V30 1094 H 98.2155 1.56472 0.264995 0
M  V30 1095 H 98.2365 2.59372 2.78399 0
M  V30 1096 H 97.7485 3.65654 1.30072 0
M  V30 1097 H 95.8495 2.01077 3.13686 0
M  V30 1098 H 95.9625 3.8691 2.82555 0
M  V30 1099 H 94.3265 1.99835 1.57918 0
M  V30 1100 H 95.1095 3.37457 0.630694 0
M  V30 1101 N 97.5546 -0.734337 1.39446 0
M  V30 1102 C 98.5046 -1.83949 1.34709 0
M  V30 1103 C 99.4886 -1.59279 0.227851 0
M  V30 1104 O 100.681 -1.70771 0.465438 0
M  V30 1105 C 97.8096 -3.21884 1.19356 0
M  V30 1106 C 96.8956 -3.52381 2.35984 0
M  V30 1107 N 97.2866 -3.53811 3.61457 0
M  V30 1108 C 95.5846 -3.82747 2.28956 0
M  V30 1109 C 96.2856 -3.82122 4.38586 0
M  V30 1110 N 95.2616 -3.9993 3.68181 0
M  V30 1111 H 99.0636 -1.83361 2.29687 0
M  V30 1112 H 96.5776 -0.932609 1.32952 0
M  V30 1113 H 98.5746 -4.00998 1.14046 0
M  V30 1114 H 97.2346 -3.23711 0.253295 0
M  V30 1115 H 98.2456 -3.35107 3.94872 0
M  V30 1116 H 94.9226 -3.92175 1.43194 0
M  V30 1117 H 96.3126 -3.89691 5.47349 0
M  V30 1118 N 99.0327 -1.24633 -0.964593 0
M  V30 1119 C 99.9807 -1.03917 -2.08096 0
M  V30 1120 C 100.975 0.0268581 -1.69379 0
M  V30 1121 O 102.181 -0.127952 -1.79545 0
M  V30 1122 H 98.5557 -0.319044 -0.680966 0
M  V30 1123 H 100.527 -1.98581 -2.22729 0
M  V30 1124 C 99.2757 -0.663983 -3.41301 0
M  V30 1125 H 98.5987 -1.47605 -3.71555 0
M  V30 1126 H 100.039 -0.558663 -4.20303 0
M  V30 1127 C 98.4977 0.629169 -3.30973 0
M  V30 1128 O 99.0277 1.67404 -3.65156 0
M  V30 1129 N 97.2337 0.611057 -2.84103 0
M  V30 1130 H 96.7807 -0.239593 -2.56483 0
M  V30 1131 H 96.7387 1.47647 -2.77575 0
M  V30 1132 N 100.511 1.16574 -1.06058 0
M  V30 1133 C 101.759 1.86677 -0.77434 0
M  V30 1134 C 102.08 1.81959 0.701147 0
M  V30 1135 O 101.35 1.2515 1.50713 0
M  V30 1136 H 99.9298 0.691134 -0.283449 0
M  V30 1137 H 102.592 1.41378 -1.34158 0
M  V30 1138 H 101.688 2.92181 -1.09711 0
M  V30 1139 N 101.989 0.842826 1.3317 0
M  V30 1140 C 103.237 0.439577 1.97262 0
M  V30 1141 C 103.558 -1.00548 1.67078 0
M  V30 1142 O 102.828 -1.70098 0.971779 0
M  V30 1143 H 101.408 0.159558 0.72976 0
M  V30 1144 H 104.07 1.07665 1.62463 0
M  V30 1145 H 103.166 0.574886 3.0676 0
M  V30 1146 N 103.467 -1.45747 0.599634 0
M  V30 1147 C 104.695 -2.06668 0.0978551 0
M  V30 1148 C 105.11 -1.44562 -1.21439 0
M  V30 1149 O 104.467 -0.556923 -1.73795 0
M  V30 1150 C 104.518 -3.61456 -0.0567044 0
M  V30 1151 O 104.239 -4.21242 1.20361 0
M  V30 1152 C 105.74 -4.39345 -0.590869 0
M  V30 1153 H 102.96 -0.667825 0.0651943 0
M  V30 1154 H 105.504 -1.87115 0.82511 0
M  V30 1155 H 103.659 -3.80378 -0.734251 0
M  V30 1156 H 104.073 -5.14323 1.02821 0
M  V30 1157 H 105.547 -5.48182 -0.648131 0
M  V30 1158 H 106.024 -4.08568 -1.61147 0
M  V30 1159 H 106.63 -4.25268 0.0523679 0
M  V30 1160 N 104.945 -0.338344 -1.53925 0
M  V30 1161 C 106.191 0.260143 -2.01125 0
M  V30 1162 C 106.524 1.50617 -1.22589 0
M  V30 1163 O 105.799 1.91979 -0.312113 0
M  V30 1164 C 106.082 0.579499 -3.55407 0
M  V30 1165 C 105.935 -0.678264 -4.44657 0
M  V30 1166 C 107.254 1.39122 -4.17532 0
M  V30 1167 H 104.373 0.0930772 -0.731099 0
M  V30 1168 H 107.015 -0.457852 -1.84401 0
M  V30 1169 H 105.165 1.19118 -3.69788 0
M  V30 1170 H 106.837 -1.31631 -4.42121 0
M  V30 1171 H 105.08 -1.3042 -4.13731 0
M  V30 1172 H 105.751 -0.410143 -5.50474 0
M  V30 1173 H 108.227 0.874035 -4.06817 0
M  V30 1174 H 107.103 1.58342 -5.25565 0
M  V30 1175 H 107.364 2.39178 -3.71815 0
M  V30 1176 N 106.423 1.57458 -0.0668435 0
M  V30 1177 C 107.669 1.93587 0.6043 0
M  V30 1178 C 108.002 0.946722 1.69561 0
M  V30 1179 O 107.277 -0.0248516 1.94484 0
M  V30 1180 C 107.56 3.40014 1.18585 0
M  V30 1181 C 107.413 4.49685 0.101529 0
M  V30 1182 C 108.732 3.87154 2.09284 0
M  V30 1183 H 105.851 0.703958 0.218202 0
M  V30 1184 H 108.493 1.89542 -0.131804 0
M  V30 1185 H 106.643 3.43592 1.81319 0
M  V30 1186 H 108.315 4.5823 -0.531279 0
M  V30 1187 H 106.558 4.30059 -0.568487 0
M  V30 1188 H 107.229 5.49266 0.54874 0
M  V30 1189 H 109.705 3.85551 1.56491 0
M  V30 1190 H 108.581 4.90231 2.46911 0
M  V30 1191 H 108.842 3.2481 2.99918 0
M  V30 1192 N 107.901 -0.206675 1.56239 0
M  V30 1193 C 108.864 -1.23976 1.92776 0
M  V30 1194 C 109.864 -1.39041 0.807729 0
M  V30 1195 O 111.054 -1.37051 1.0753 0
M  V30 1196 C 108.186 -2.61112 2.19165 0
M  V30 1197 H 109.379 -0.927764 2.85189 0
M  V30 1198 H 106.932 -0.447718 1.4975 0
M  V30 1199 H 107.667 -2.97386 1.29352 0
M  V30 1200 H 107.452 -2.51552 3.00772 0
M  V30 1201 H 108.942 -3.35633 2.48476 0
M  V30 1202 N 109.379 -1.50304 -0.473955 0
M  V30 1203 C 110.79 -1.54042 -1.0549 0
M  V30 1204 C 111.141 -0.342248 -1.93192 0
M  V30 1205 O 110.266 0.545157 -2.09421 0
M  V30 1206 C 110.861 -2.79152 -1.91989 0
M  V30 1207 C 109.42 -2.8558 -2.45196 0
M  V30 1208 C 108.567 -2.48295 -1.2347 0
M  V30 1209 H 111.518 -1.5661 -0.256693 0
M  V30 1210 H 111.539 -2.60845 -2.7702 0
M  V30 1211 H 111.051 -3.66339 -1.28131 0
M  V30 1212 H 109.152 -2.02738 -3.12615 0
M  V30 1213 H 109.265 -3.88403 -2.80499 0
M  V30 1214 H 107.629 -2.00669 -1.56856 0
M  V30 1215 H 108.412 -3.37787 -0.612789 0
M  V30 1216 N 110.857 0.726932 -1.39834 0
M  V30 1217 C 112.273 1.03354 -1.21615 0
M  V30 1218 C 112.473 2.01327 -0.08338 0
M  V30 1219 O 111.529 2.46158 0.56238 0
M  V30 1220 C 112.842 1.58811 -2.55342 0
M  V30 1221 C 114.39 1.70851 -2.62257 0
M  V30 1222 C 114.865 2.29716 -3.96225 0
M  V30 1223 N 116.356 2.37116 -3.97907 0
M  V30 1224 C 117.091 2.83619 -4.98345 0
M  V30 1225 N 116.587 3.29958 -6.09179 0
M  V30 1226 N 118.38 2.82901 -4.8572 0
M  V30 1227 H 110.531 0.0773069 -2.12259 0
M  V30 1228 H 112.794 0.0969102 -0.943034 0
M  V30 1229 H 112.5 0.942855 -3.38826 0
M  V30 1230 H 112.374 2.57502 -2.75632 0
M  V30 1231 H 114.761 2.34497 -1.79152 0
M  V30 1232 H 114.842 0.707913 -2.45809 0
M  V30 1233 H 114.486 1.66696 -4.79765 0
M  V30 1234 H 114.416 3.30469 -4.09997 0
M  V30 1235 H 116.907 2.04374 -3.17868 0
M  V30 1236 H 117.22 3.63976 -6.8172 0
M  V30 1237 H 115.565 3.27946 -6.12761 0
M  V30 1238 H 118.756 2.46027 -3.98231 0
M  V30 1239 H 118.929 3.18827 -5.6414 0
M  V30 1240 N 112.336 1.25143 0.95797 0
M  V30 1241 C 113.582 1.09855 1.70469 0
M  V30 1242 C 113.915 -0.360187 1.90831 0
M  V30 1243 O 113.19 -1.26568 1.47685 0
M  V30 1244 C 113.473 1.8497 3.08963 0
M  V30 1245 C 113.326 3.38652 2.96032 0
M  V30 1246 C 114.645 1.63016 4.08795 0
M  V30 1247 H 111.764 0.400465 0.618706 0
M  V30 1248 H 114.406 1.53933 1.11376 0
M  V30 1249 H 112.556 1.47505 3.59409 0
M  V30 1250 H 114.228 3.85772 2.52938 0
M  V30 1251 H 112.471 3.66534 2.32025 0
M  V30 1252 H 113.142 3.8642 3.94187 0
M  V30 1253 H 115.618 1.95625 3.67247 0
M  V30 1254 H 114.494 2.18015 5.03747 0
M  V30 1255 H 114.755 0.570692 4.38401 0
M  V30 1256 N 113.814 -1.1601 1.06675 0
M  V30 1257 C 114.724 -2.24156 0.692179 0
M  V30 1258 C 115.74 -1.71507 -0.293513 0
M  V30 1259 O 116.916 -2.009 -0.141861 0
M  V30 1260 C 113.981 -3.46587 0.0884131 0
M  V30 1261 C 113.042 -4.14257 1.12646 0
M  V30 1262 C 112.275 -5.30844 0.551416 0
M  V30 1263 O 112.498 -5.66858 -0.634656 0
M  V30 1264 O 111.432 -5.87848 1.29298 0
M  V30 1265 H 115.258 -2.58513 1.59388 0
M  V30 1266 H 112.843 -1.23599 0.83926 0
M  V30 1267 H 114.725 -4.20679 -0.246361 0
M  V30 1268 H 113.4 -3.13994 -0.786712 0
M  V30 1269 H 112.307 -3.42118 1.51348 0
M  V30 1270 H 113.64 -4.50914 1.97325 0
M  V30 1271 N 115.292 -0.849877 -1.32721 0
M  V30 1272 C 116.255 -0.296122 -2.27279 0
M  V30 1273 C 117.255 0.541458 -1.5141 0
M  V30 1274 O 118.445 0.353658 -1.70572 0
M  V30 1275 C 115.577 0.581579 -3.35902 0
M  V30 1276 H 116.77 -1.13064 -2.77771 0
M  V30 1277 H 114.323 -0.62383 -1.43311 0
M  V30 1278 H 115.058 1.43809 -2.9067 0
M  V30 1279 H 114.843 -0.0178814 -3.92096 0
M  V30 1280 H 116.333 0.961951 -4.0637 0
M  V30 1281 N 116.77 1.45427 -0.607355 0
M  V30 1282 C 118.181 1.85756 -0.187535 0
M  V30 1283 C 118.532 1.5077 1.25551 0
M  V30 1284 O 117.657 0.93427 1.95193 0
M  V30 1285 C 118.252 3.37154 -0.333572 0
M  V30 1286 C 116.811 3.76387 0.0315542 0
M  V30 1287 C 115.958 2.69377 -0.658117 0
M  V30 1288 H 118.909 1.36231 -0.81405 0
M  V30 1289 H 118.93 3.78014 0.43428 0
M  V30 1290 H 118.442 3.62586 -1.38393 0
M  V30 1291 H 116.543 3.56571 1.0811 0
M  V30 1292 H 116.656 4.77731 -0.361935 0
M  V30 1293 H 115.02 2.5452 -0.0957873 0
M  V30 1294 H 115.803 2.97646 -1.7106 0
M  V30 1295 N 118.248 0.346503 1.53744 0
M  V30 1296 C 119.494 -0.249473 2.0126 0
M  V30 1297 C 119.827 -1.49965 1.23386 0
M  V30 1298 O 119.102 -1.91811 0.32229 0
M  V30 1299 C 119.385 -0.560643 3.55709 0
M  V30 1300 C 119.238 0.701836 4.44291 0
M  V30 1301 C 120.557 -1.36905 4.18264 0
M  V30 1302 H 117.676 -0.0891987 0.731582 0
M  V30 1303 H 120.318 0.467624 1.84156 0
M  V30 1304 H 118.468 -1.17156 3.70414 0
M  V30 1305 H 120.14 1.33974 4.41417 0
M  V30 1306 H 118.383 1.32612 4.13033 0
M  V30 1307 H 119.054 0.43933 5.50249 0
M  V30 1308 H 121.53 -0.852448 4.07275 0
M  V30 1309 H 120.406 -1.55553 5.26398 0
M  V30 1310 H 120.667 -2.37203 3.73078 0
M  V30 1311 N 119.726 -1.57421 0.075193 0
M  V30 1312 C 120.689 -2.11791 -0.876203 0
M  V30 1313 C 121.689 -1.04268 -1.22412 0
M  V30 1314 O 122.879 -1.30242 -1.15684 0
M  V30 1315 C 120.011 -2.62207 -2.17854 0
M  V30 1316 H 121.204 -2.9716 -0.40444 0
M  V30 1317 H 118.757 -1.55333 -0.173557 0
M  V30 1318 H 119.492 -1.803 -2.6956 0
M  V30 1319 H 119.277 -3.40802 -1.93897 0
M  V30 1320 H 120.767 -3.04335 -2.85955 0
M  V30 1321 N 121.204 0.198386 -1.56346 0
M  V30 1322 C 122.45 0.920648 -1.80698 0
M  V30 1323 C 122.783 1.83045 -0.648697 0
M  V30 1324 O 122.058 1.91308 0.350925 0
M  V30 1325 C 122.341 1.73971 -3.15287 0
M  V30 1326 C 122.194 0.85485 -4.41602 0
M  V30 1327 C 123.513 2.71296 -3.46535 0
M  V30 1328 H 120.632 0.333261 -0.657348 0
M  V30 1329 H 123.274 0.188198 -1.89066 0
M  V30 1330 H 121.424 2.36416 -3.08285 0
M  V30 1331 H 123.096 0.245362 -4.60647 0
M  V30 1332 H 121.339 0.161398 -4.335 0
M  V30 1333 H 122.01 1.46286 -5.32264 0
M  V30 1334 H 124.486 2.18983 -3.53816 0
M  V30 1335 H 123.362 3.2569 -4.41834 0
M  V30 1336 H 123.623 3.5018 -2.69864 0
M  V30 1337 N 122.682 1.50554 0.465978 0
M  V30 1338 C 123.63 1.70324 1.58406 0
M  V30 1339 C 124.624 0.569139 1.59553 0
M  V30 1340 O 125.83 0.749776 1.63641 0
M  V30 1341 H 122.205 0.537688 0.525734 0
M  V30 1342 H 124.176 2.64104 1.38894 0
M  V30 1343 C 122.925 1.81928 2.96307 0
M  V30 1344 H 122.248 2.68586 2.96144 0
M  V30 1345 H 123.688 1.99784 3.73982 0
M  V30 1346 C 122.147 0.572095 3.32007 0
M  V30 1347 O 122.677 -0.286416 4.00678 0
M  V30 1348 N 120.883 0.424606 2.87481 0
M  V30 1349 H 120.43 1.12427 2.31771 0
M  V30 1350 H 120.388 -0.408697 3.11732 0
M  V30 1351 N 124.16 -0.719506 1.40217 0
M  V30 1352 C 125.123 -1.8153 1.39927 0
M  V30 1353 C 126.123 -1.58095 0.293723 0
M  V30 1354 O 127.313 -1.65209 0.552429 0
M  V30 1355 C 124.445 -3.19561 1.18716 0
M  V30 1356 H 125.638 -1.83186 2.37451 0
M  V30 1357 H 123.191 -0.924746 1.26008 0
M  V30 1358 H 123.926 -3.23557 0.219366 0
M  V30 1359 H 123.711 -3.3797 1.98793 0
M  V30 1360 H 125.201 -3.99598 1.21291 0
M  V30 1361 N 125.638 -1.25649 -0.95132 0
M  V30 1362 C 126.866 -1.13343 -1.73092 0
M  V30 1363 C 127.281 0.312434 -1.86197 0
M  V30 1364 O 126.638 1.21465 -1.36207 0
M  V30 1365 C 126.689 -1.78602 -3.14299 0
M  V30 1366 O 126.41 -3.17537 -3.01831 0
M  V30 1367 C 127.911 -1.72119 -4.08522 0
M  V30 1368 H 125.131 -0.395181 -0.542285 0
M  V30 1369 H 127.675 -1.66076 -1.19328 0
M  V30 1370 H 125.83 -1.29832 -3.64996 0
M  V30 1371 H 126.244 -3.49676 -3.90931 0
M  V30 1372 H 127.718 -2.22435 -5.052 0
M  V30 1373 H 128.195 -0.685635 -4.33815 0
M  V30 1374 H 128.801 -2.20393 -3.63741 0
M  V30 1375 N 127.117 1.15442 -1.07289 0
M  V30 1376 C 128.528 1.67803 -0.818475 0
M  V30 1377 C 128.879 1.8489 0.656507 0
M  V30 1378 O 128.004 1.55176 1.50829 0
M  V30 1379 C 128.599 3.04805 -1.47917 0
M  V30 1380 C 127.158 3.54245 -1.27229 0
M  V30 1381 C 126.305 2.29986 -1.54925 0
M  V30 1382 H 129.256 0.996646 -1.23502 0
M  V30 1383 H 129.277 3.69702 -0.90005 0
M  V30 1384 H 128.789 2.92336 -2.55267 0
M  V30 1385 H 126.89 3.71956 -0.21899 0
M  V30 1386 H 127.003 4.35723 -1.99203 0
M  V30 1387 H 125.367 2.35496 -0.970242 0
M  V30 1388 H 126.15 2.20105 -2.63455 0
M  V30 1389 N 128.595 0.856903 1.32268 0
M  V30 1390 C 129.842 0.461386 1.97174 0
M  V30 1391 C 130.17 -0.983491 1.67803 0
M  V30 1392 O 129.425 -1.70541 0.959903 0
M  V30 1393 C 129.724 0.649919 3.51441 0
M  V30 1394 C 129.39 2.0656 4.00804 0
M  V30 1395 C 128.052 2.45279 4.13995 0
M  V30 1396 C 130.404 2.98947 4.26943 0
M  V30 1397 C 127.732 3.75653 4.50668 0
M  V30 1398 C 130.084 4.28822 4.65075 0
M  V30 1399 C 128.748 4.67472 4.76472 0
M  V30 1400 H 128.018 0.168833 0.72151 0
M  V30 1401 H 130.665 1.08739 1.57633 0
M  V30 1402 H 128.97 -0.0593018 3.91755 0
M  V30 1403 H 130.667 0.32391 3.9969 0
M  V30 1404 H 127.257 1.75495 3.91024 0
M  V30 1405 H 131.441 2.70265 4.16258 0
M  V30 1406 H 126.697 4.05379 4.57688 0
M  V30 1407 H 130.871 5.0047 4.84255 0
M  V30 1408 H 128.498 5.68539 5.04646 0
M  V30 1409 N 130.073 -1.45103 0.615059 0
M  V30 1410 C 131.298 -2.07064 0.117988 0
M  V30 1411 C 131.723 -1.4554 -1.19163 0
M  V30 1412 O 131.081 -0.550855 -1.72729 0
M  V30 1413 C 131.129 -3.606 -0.000288387 0
M  V30 1414 O 130.233 -3.98847 -1.04856 0
M  V30 1415 H 129.574 -0.659467 0.0774581 0
M  V30 1416 H 132.104 -1.86236 0.847186 0
M  V30 1417 H 132.114 -4.07529 -0.196091 0
M  V30 1418 H 130.789 -4.04765 0.955932 0
M  V30 1419 H 129.366 -3.63577 -0.828619 0
M  V30 1420 N 131.551 -0.354651 -1.53558 0
M  V30 1421 C 132.962 0.126902 -1.86268 0
M  V30 1422 C 133.313 1.49075 -1.27558 0
M  V30 1423 O 132.438 2.08105 -0.5934 0
M  V30 1424 C 133.033 0.237046 -3.3797 0
M  V30 1425 C 131.592 0.662842 -3.70518 0
M  V30 1426 C 130.739 -0.196652 -2.76602 0
M  V30 1427 H 133.69 -0.573849 -1.47962 0
M  V30 1428 H 133.711 1.06259 -3.65362 0
M  V30 1429 H 133.223 -0.755725 -3.80671 0
M  V30 1430 H 131.324 1.66424 -3.33367 0
M  V30 1431 H 131.437 0.445034 -4.77029 0
M  V30 1432 H 129.801 0.332763 -2.52517 0
M  V30 1433 H 130.584 -1.18676 -3.22135 0
M  V30 1434 N 133.029 1.57378 -0.0835403 0
M  V30 1435 C 133.992 2.12252 0.864959 0
M  V30 1436 C 134.992 1.04916 1.21858 0
M  V30 1437 O 136.182 1.30853 1.14991 0
M  V30 1438 C 133.314 2.63358 2.16461 0
M  V30 1439 H 134.507 2.97371 0.388676 0
M  V30 1440 H 132.06 1.55423 0.165317 0
M  V30 1441 H 132.795 1.81727 2.686 0
M  V30 1442 H 132.58 3.41826 1.92087 0
M  V30 1443 H 134.07 3.05847 2.84337 0
M  V30 1444 N 134.507 -0.190092 1.56449 0
M  V30 1445 C 135.918 -0.754312 1.70784 0
M  V30 1446 C 136.269 -1.83631 0.690951 0
M  V30 1447 O 135.394 -2.15868 -0.151604 0
M  V30 1448 C 135.989 -1.37503 3.09642 0
M  V30 1449 C 134.548 -1.88628 3.25725 0
M  V30 1450 C 133.695 -0.758098 2.66736 0
M  V30 1451 H 136.646 0.0350524 1.58661 0
M  V30 1452 H 136.667 -2.2445 3.0725 0
M  V30 1453 H 136.179 -0.587302 3.83631 0
M  V30 1454 H 134.28 -2.70103 2.56661 0
M  V30 1455 H 134.393 -2.04462 4.3328 0
M  V30 1456 H 132.757 -1.17369 2.26046 0
M  V30 1457 H 133.54 0.0174705 3.43296 0
M  V30 1458 N 135.985 -1.50799 -0.457987 0
M  V30 1459 C 137.233 -1.62121 -1.2067 0
M  V30 1460 C 137.554 -0.329793 -1.92191 0
M  V30 1461 O 136.824 0.653409 -1.84682 0
M  V30 1462 H 135.404 -0.597441 -0.448411 0
M  V30 1463 H 138.066 -1.87637 -0.527096 0
M  V30 1464 H 137.162 -2.43882 -1.94751 0
M  V30 1465 N 137.463 0.71206 -1.40597 0
M  V30 1466 C 138.688 1.50617 -1.42581 0
M  V30 1467 C 139.113 1.88079 -0.0282102 0
M  V30 1468 O 138.471 1.53511 0.964579 0
M  V30 1469 C 138.519 2.7557 -2.3258 0
M  V30 1470 O 137.623 3.72414 -1.77148 0
M  V30 1471 H 136.964 0.453966 -0.484573 0
M  V30 1472 H 139.494 0.876649 -1.84868 0
M  V30 1473 H 139.504 3.2406 -2.47889 0
M  V30 1474 H 138.179 2.47639 -3.34138 0
M  V30 1475 H 136.756 3.31276 -1.71204 0
M  V30 1476 N 138.941 1.26152 0.944643 0
M  V30 1477 C 140.352 1.10454 1.50522 0
M  V30 1478 C 140.703 -0.31635 1.93633 0
M  V30 1479 O 139.828 -1.20746 1.79581 0
M  V30 1480 C 140.423 1.99891 2.73549 0
M  V30 1481 C 138.982 1.88348 3.25886 0
M  V30 1482 C 138.129 1.93447 1.9868 0
M  V30 1483 H 141.08 1.39292 0.760489 0
M  V30 1484 H 141.101 1.54477 3.47732 0
M  V30 1485 H 140.613 3.03297 2.42141 0
M  V30 1486 H 138.714 0.878636 3.62092 0
M  V30 1487 H 138.827 2.73696 3.93227 0
M  V30 1488 H 137.191 1.37456 2.14425 0
M  V30 1489 H 137.974 2.98476 1.69607 0
M  V30 1490 N 140.419 -1.14872 1.07899 0
M  V30 1491 C 141.349 -2.2193 0.725887 0
M  V30 1492 C 142.33 -1.67622 -0.28927 0
M  V30 1493 O 143.515 -1.93533 -0.160787 0
M  V30 1494 C 140.645 -3.47061 0.128856 0
M  V30 1495 C 139.599 -4.14363 1.07178 0
M  V30 1496 C 138.925 -5.33636 0.337229 0
M  V30 1497 C 140.225 -4.63492 2.40775 0
M  V30 1498 H 141.919 -2.51724 1.62097 0
M  V30 1499 H 139.465 -1.20991 0.780838 0
M  V30 1500 H 141.418 -4.21199 -0.130147 0
M  V30 1501 H 140.142 -3.16617 -0.80134 0
M  V30 1502 H 138.801 -3.42173 1.3158 0
M  V30 1503 H 138.449 -4.99449 -0.596606 0
M  V30 1504 H 138.149 -5.79609 0.965788 0
M  V30 1505 H 139.673 -6.10539 0.0861567 0
M  V30 1506 H 141.087 -5.2913 2.20669 0
M  V30 1507 H 139.484 -5.20148 2.99276 0
M  V30 1508 H 140.554 -3.78834 3.02676 0
M  V30 1509 N 141.898 -0.863906 -1.31812 0
M  V30 1510 C 143.144 -0.472535 -1.97218 0
M  V30 1511 C 143.477 0.971394 -1.68159 0
M  V30 1512 O 142.752 1.68309 -0.974798 0
M  V30 1513 C 143.035 -0.723054 -3.52766 0
M  V30 1514 C 142.888 -2.21608 -3.91421 0
M  V30 1515 C 144.207 -0.185522 -4.39709 0
M  V30 1516 H 141.326 -0.173158 -0.71637 0
M  V30 1517 H 143.968 -1.08403 -1.56041 0
M  V30 1518 H 142.118 -0.202577 -3.87971 0
M  V30 1519 H 143.79 -2.80334 -3.66347 0
M  V30 1520 H 142.033 -2.691 -3.40246 0
M  V30 1521 H 142.704 -2.34203 -4.99853 0
M  V30 1522 H 145.18 -0.630726 -4.11292 0
M  V30 1523 H 144.056 -0.390306 -5.47511 0
M  V30 1524 H 144.317 0.912229 -4.32586 0
M  V30 1525 N 143.376 1.44774 -0.622745 0
M  V30 1526 C 144.787 1.85546 -0.207226 0
M  V30 1527 C 145.138 1.52093 1.23944 0
M  V30 1528 O 144.263 0.95492 1.94191 0
M  V30 1529 C 144.858 3.36781 -0.369313 0
M  V30 1530 C 143.417 3.76399 -0.00836847 0
M  V30 1531 C 142.564 2.68664 -0.686651 0
M  V30 1532 H 145.515 1.3536 -0.828454 0
M  V30 1533 H 145.536 3.78453 0.394162 0
M  V30 1534 H 145.048 3.61098 -1.42231 0
M  V30 1535 H 143.149 3.57698 1.04322 0
M  V30 1536 H 143.262 4.7732 -0.412584 0
M  V30 1537 H 141.626 2.54404 -0.122777 0
M  V30 1538 H 142.409 2.95815 -1.74208 0
M  V30 1539 N 144.854 0.36279 1.53368 0
M  V30 1540 C 145.802 -0.500155 2.27159 0
M  V30 1541 C 146.796 -1.08575 1.3003 0
M  V30 1542 O 148.002 -1.02927 1.47668 0
M  V30 1543 H 144.377 -0.180009 0.730138 0
M  V30 1544 H 146.348 0.14401 2.98052 0
M  V30 1545 C 145.097 -1.62937 3.07159 0
M  V30 1546 H 144.42 -1.18806 3.8174 0
M  V30 1547 H 145.86 -2.20795 3.61975 0
M  V30 1548 C 144.319 -2.57007 2.17829 0
M  V30 1549 O 144.849 -3.59752 1.78721 0
M  V30 1550 N 143.055 -2.26131 1.82518 0
M  V30 1551 H 142.602 -1.42616 2.14519 0
M  V30 1552 H 142.56 -2.89327 1.23034 0
M  V30 1553 N 146.332 -1.57332 0.0918853 0
M  V30 1554 C 147.58 -1.93853 -0.571446 0
M  V30 1555 C 147.901 -0.974212 -1.6892 0
M  V30 1556 O 147.171 -0.0257254 -1.95883 0
M  V30 1557 H 145.751 -0.715666 -0.214082 0
M  V30 1558 H 148.413 -1.94287 0.154464 0
M  V30 1559 H 147.509 -2.96191 -0.983729 0
M  V30 1560 N 147.81 0.181792 -1.56548 0
M  V30 1561 C 149.087 0.926765 -1.72251 0
M  V30 1562 C 149.467 2.00831 -0.650386 0
M  V30 1563 O 148.815 2.26008 0.336521 0
M  V30 1564 C 149.025 1.50106 -3.1507 0
M  V30 1565 C 150.373 1.97805 -3.75711 0
M  V30 1566 O 151.397 1.59922 -3.18282 0
M  V30 1567 O 150.256 2.67555 -4.76525 0
M  V30 1568 H 147.35 0.435506 -0.703039 0
M  V30 1569 H 149.896 0.170443 -1.68842 0
M  V30 1570 H 148.668 0.72212 -3.84579 0
M  V30 1571 H 148.291 2.32186 -3.22763 0
M  V30 1572 N 149.288 1.51039 0.449983 0
M  V30 1573 C 150.699 1.557 1.03026 0
M  V30 1574 C 151.05 0.372939 1.92623 0
M  V30 1575 O 150.175 -0.511771 2.10261 0
M  V30 1576 C 150.77 2.82171 1.87523 0
M  V30 1577 C 149.329 2.89444 2.40622 0
M  V30 1578 C 148.476 2.50228 1.19504 0
M  V30 1579 H 151.427 1.56999 0.231745 0
M  V30 1580 H 151.448 2.65219 2.72835 0
M  V30 1581 H 150.96 3.68331 1.22286 0
M  V30 1582 H 149.061 2.07685 3.0935 0
M  V30 1583 H 149.174 3.92816 2.74285 0
M  V30 1584 H 147.538 2.03139 1.53644 0
M  V30 1585 H 148.321 3.38719 0.558972 0
M  V30 1586 N 150.766 -0.704594 1.40972 0
M  V30 1587 C 151.699 -1.82861 1.36518 0
M  V30 1588 C 152.677 -1.6091 0.23382 0
M  V30 1589 O 153.861 -1.83778 0.419271 0
M  V30 1590 C 150.988 -3.1939 1.12729 0
M  V30 1591 C 150.034 -3.60148 2.28463 0
M  V30 1592 S 150.867 -3.65994 3.90907 0
M  V30 1593 C 152.023 -5.05264 3.69403 0
M  V30 1594 H 152.256 -1.86361 2.3164 0
M  V30 1595 H 149.789 -0.872439 1.27389 0
M  V30 1596 H 151.747 -3.98211 0.996893 0
M  V30 1597 H 150.408 -3.1351 0.192427 0
M  V30 1598 H 149.601 -4.59309 2.07489 0
M  V30 1599 H 149.203 -2.88612 2.37863 0
M  V30 1600 H 151.495 -5.92504 3.28551 0
M  V30 1601 H 152.438 -5.31278 4.68134 0
M  V30 1602 H 152.846 -4.76377 3.02862 0
M  V30 1603 N 152.244 -1.26651 -0.937939 0
M  V30 1604 C 153.174 -1.10993 -2.05433 0
M  V30 1605 C 154.155 -0.0142161 -1.70094 0
M  V30 1606 O 155.34 -0.186837 -1.93299 0
M  V30 1607 C 152.47 -0.745561 -3.39203 0
M  V30 1608 C 151.424 -1.79337 -3.88616 0
M  V30 1609 C 150.75 -1.28324 -5.19073 0
M  V30 1610 C 152.05 -3.19553 -4.13138 0
M  V30 1611 H 153.744 -2.0438 -2.1879 0
M  V30 1612 H 151.29 -0.984041 -1.05131 0
M  V30 1613 H 153.243 -0.622888 -4.16771 0
M  V30 1614 H 151.967 0.22401 -3.25831 0
M  V30 1615 H 150.626 -1.90477 -3.13231 0
M  V30 1616 H 150.274 -0.303414 -5.02084 0
M  V30 1617 H 149.974 -1.98369 -5.53103 0
M  V30 1618 H 151.498 -1.1733 -5.99221 0
M  V30 1619 H 152.912 -3.11471 -4.81309 0
M  V30 1620 H 151.309 -3.87218 -4.58457 0
M  V30 1621 H 152.379 -3.65368 -3.18801 0
M  V30 1622 N 153.722 1.14298 -1.08507 0
M  V30 1623 C 154.947 1.8976 -0.837001 0
M  V30 1624 C 155.372 1.78097 0.605228 0
M  V30 1625 O 154.73 1.12188 1.4242 0
M  V30 1626 C 154.778 3.37685 -1.26495 0
M  V30 1627 O 153.882 4.10281 -0.417514 0
M  V30 1628 H 153.223 0.590365 -0.303917 0
M  V30 1629 H 155.753 1.44672 -1.44676 0
M  V30 1630 H 155.763 3.88501 -1.24625 0
M  V30 1631 H 154.438 3.45492 -2.31534 0
M  V30 1632 H 153.015 3.69536 -0.499722 0
M  V30 1633 N 155.201 0.870884 1.31352 0
M  V30 1634 C 156.449 0.48132 1.96285 0
M  V30 1635 C 156.77 -0.969813 1.69173 0
M  V30 1636 O 156.04 -1.67998 1.00764 0
M  V30 1637 H 154.62 0.175002 0.726212 0
M  V30 1638 H 157.282 1.11087 1.60143 0
M  V30 1639 H 156.378 0.639825 3.05471 0
M  V30 1640 N 156.679 -1.44442 0.630414 0
M  V30 1641 C 157.926 -2.02052 0.134617 0
M  V30 1642 C 158.254 -1.49576 -1.24327 0
M  V30 1643 O 157.509 -0.669806 -1.83881 0
M  V30 1644 C 157.808 -3.57332 0.0697835 0
M  V30 1645 C 157.474 -4.29058 1.38635 0
M  V30 1646 C 156.136 -4.4837 1.74694 0
M  V30 1647 C 158.488 -4.69872 2.25543 0
M  V30 1648 C 155.816 -5.05756 2.97369 0
M  V30 1649 C 158.168 -5.28616 3.47487 0
M  V30 1650 C 156.832 -5.46147 3.8377 0
M  V30 1651 H 156.102 -0.739361 0.0492598 0
M  V30 1652 H 158.749 -1.73217 0.816586 0
M  V30 1653 H 157.054 -3.85577 -0.695553 0
M  V30 1654 H 158.751 -3.99637 -0.330344 0
M  V30 1655 H 155.341 -4.14357 1.09574 0
M  V30 1656 H 159.525 -4.54666 1.98979 0
M  V30 1657 H 154.781 -5.17515 3.25558 0
M  V30 1658 H 158.955 -5.59192 4.15063 0
M  V30 1659 H 156.582 -5.9038 4.7891 0
M  V30 1660 N 158.157 -0.370918 -1.53173 0
M  V30 1661 C 159.405 0.216673 -2.00935 0
M  V30 1662 C 159.726 1.48845 -1.25977 0
M  V30 1663 O 158.996 1.92286 -0.374551 0
M  V30 1664 H 157.576 0.0830565 -0.742368 0
M  V30 1665 H 160.238 -0.49838 -1.8842 0
M  V30 1666 H 159.334 0.439893 -3.08984 0
M  V30 1667 N 159.635 1.57281 -0.100228 0
M  V30 1668 C 161.046 1.81725 0.428107 0
M  V30 1669 C 161.397 1.01619 1.67833 0
M  V30 1670 O 160.522 0.247098 2.14985 0
M  V30 1671 C 161.117 3.29617 0.78347 0
M  V30 1672 C 159.676 3.54808 1.25653 0
M  V30 1673 C 158.823 2.76118 0.255752 0
M  V30 1674 H 161.774 1.55324 -0.325608 0
M  V30 1675 H 161.795 3.4322 1.64256 0
M  V30 1676 H 161.307 3.87893 -0.12665 0
M  V30 1677 H 159.408 3.01868 2.18418 0
M  V30 1678 H 159.521 4.63443 1.21482 0
M  V30 1679 H 157.885 2.43745 0.738956 0
M  V30 1680 H 158.668 3.37145 -0.647136 0
M  V30 1681 N 161.113 -0.173488 1.56642 0
M  V30 1682 C 162.076 -1.19859 1.95362 0
M  V30 1683 C 163.076 -1.37296 0.83704 0
M  V30 1684 O 164.266 -1.34739 1.10413 0
M  V30 1685 C 161.398 -2.56405 2.24654 0
M  V30 1686 H 162.591 -0.867062 2.87092 0
M  V30 1687 H 160.144 -0.415853 1.50666 0
M  V30 1688 H 160.879 -2.94576 1.35631 0
M  V30 1689 H 160.664 -2.45115 3.06041 0
M  V30 1690 H 162.154 -3.30287 2.5554 0
M  V30 1691 N 162.591 -1.51276 -0.441967 0
M  V30 1692 C 163.554 -1.7167 -1.51862 0
M  V30 1693 C 164.554 -0.586793 -1.49711 0
M  V30 1694 O 165.744 -0.854276 -1.51815 0
M  V30 1695 C 162.876 -1.76889 -2.91416 0
M  V30 1696 H 164.069 -2.67754 -1.35084 0
M  V30 1697 H 161.622 -1.41196 -0.670333 0
M  V30 1698 H 162.357 -0.826026 -3.13604 0
M  V30 1699 H 162.142 -2.59001 -2.94382 0
M  V30 1700 H 163.632 -1.94522 -3.69528 0
M  V30 1701 N 164.069 0.697108 -1.41344 0
M  V30 1702 C 165.309 1.46939 -1.42085 0
M  V30 1703 C 165.673 1.9198 -0.0280397 0
M  V30 1704 O 166.874 2.6865 0.0897504 0
M  V30 1705 C 165.145 2.64985 -2.39828 0
M  V30 1706 S 166.704 3.54147 -2.59085 0
M  V30 1707 H 163.522 0.502146 -0.503359 0
M  V30 1708 H 166.124 0.813546 -1.77769 0
M  V30 1709 H 164.828 2.30098 -3.39828 0
M  V30 1710 H 164.359 3.35464 -2.05493 0
M  V30 1711 H 166.374 4.60137 -1.85711 0
M  V30 1712 N 165.547 1.27147 0.931209 0
M  V30 1713 C 166.958 1.12044 1.49342 0
M  V30 1714 C 167.309 -0.295795 1.93957 0
M  V30 1715 O 166.434 -1.18835 1.80852 0
M  V30 1716 C 167.029 2.02781 2.71414 0
M  V30 1717 C 165.588 1.91794 3.2387 0
M  V30 1718 C 164.735 1.95543 1.96617 0
M  V30 1719 H 167.686 1.40091 0.745672 0
M  V30 1720 H 167.707 1.58156 3.46074 0
M  V30 1721 H 167.219 3.05848 2.38911 0
M  V30 1722 H 165.32 0.916992 3.6114 0
M  V30 1723 H 165.433 2.77852 3.90302 0
M  V30 1724 H 163.797 1.39722 2.12955 0
M  V30 1725 H 164.58 3.00259 1.66432 0
M  V30 1726 N 167.025 -1.13721 1.09112 0
M  V30 1727 C 168.302 -1.81155 0.737706 0
M  V30 1728 C 168.682 -1.96253 -0.777683 0
M  V30 1729 O 168.03 -1.52807 -1.69889 0
M  V30 1730 C 168.24 -3.16392 1.47299 0
M  V30 1731 C 169.588 -3.91787 1.63671 0
M  V30 1732 O 170.612 -3.26005 1.43524 0
M  V30 1733 O 169.471 -5.0977 1.96969 0
M  V30 1734 H 166.565 -0.783518 0.26463 0
M  V30 1735 H 169.111 -1.20676 1.19312 0
M  V30 1736 H 167.883 -3.0061 2.50498 0
M  V30 1737 H 167.506 -3.8457 1.00953 0
M  V30 1738 N 168.503 -0.877838 -1.30888 0
M  V30 1739 C 169.919 -0.570844 -1.49042 0
M  V30 1740 C 170.119 0.893159 -1.80624 0
M  V30 1741 O 169.175 1.67485 -1.88958 0
M  V30 1742 C 170.488 -1.47784 -2.61878 0
M  V30 1743 C 172.036 -1.48071 -2.75761 0
M  V30 1744 C 172.511 -2.37347 -3.91702 0
M  V30 1745 N 174.002 -2.35271 -3.99001 0
M  V30 1746 C 174.737 -3.01063 -4.88004 0
M  V30 1747 N 174.233 -3.76055 -5.81854 0
M  V30 1748 N 176.026 -2.90332 -4.81315 0
M  V30 1749 H 168.177 -1.82502 -1.0866 0
M  V30 1750 H 170.44 -0.780797 -0.537644 0
M  V30 1751 H 170.146 -2.51993 -2.45341 0
M  V30 1752 H 170.02 -1.18215 -3.58197 0
M  V30 1753 H 172.407 -0.446166 -2.91708 0
M  V30 1754 H 172.488 -1.81668 -1.80085 0
M  V30 1755 H 172.132 -3.40883 -3.76512 0
M  V30 1756 H 172.062 -2.01071 -4.86701 0
M  V30 1757 H 174.553 -1.80768 -3.3186 0
M  V30 1758 H 174.866 -4.23366 -6.46514 0
M  V30 1759 H 173.211 -3.80163 -5.81808 0
M  V30 1760 H 176.402 -2.31278 -4.06974 0
M  V30 1761 H 176.575 -3.41885 -5.50471 0
M  V30 1762 N 169.982 1.44106 -0.638065 0
M  V30 1763 C 171.393 1.85316 -0.226894 0
M  V30 1764 C 171.744 1.53399 1.22324 0
M  V30 1765 O 170.869 0.975463 1.93167 0
M  V30 1766 C 171.464 3.3637 -0.405013 0
M  V30 1767 C 170.023 3.76369 -0.0482902 0
M  V30 1768 C 169.17 2.67921 -0.715108 0
M  V30 1769 H 172.121 1.34474 -0.842764 0
M  V30 1770 H 172.142 3.7885 0.354 0
M  V30 1771 H 171.654 3.59569 -1.46053 0
M  V30 1772 H 169.755 3.58784 1.00522 0
M  V30 1773 H 169.868 4.76856 -0.463187 0
M  V30 1774 H 168.232 2.54259 -0.149753 0
M  V30 1775 H 169.015 2.93951 -1.77335 0
M  V30 1776 N 171.46 0.379036 1.52974 0
M  V30 1777 C 172.407 -0.461048 2.26148 0
M  V30 1778 C 173.377 -1.06637 1.27349 0
M  V30 1779 O 174.562 -1.09633 1.56157 0
M  V30 1780 C 171.702 -1.58782 3.06402 0
M  V30 1781 C 170.815 -1.00636 4.20115 0
M  V30 1782 C 169.95 -2.10334 4.87784 0
M  V30 1783 C 168.989 -1.49724 5.93506 0
M  V30 1784 N 168.126 -2.5331 6.54812 0
M  V30 1785 H 172.966 0.169429 2.97518 0
M  V30 1786 H 170.503 0.0953806 1.4679 0
M  V30 1787 H 172.461 -2.25174 3.51215 0
M  V30 1788 H 171.091 -2.18876 2.37261 0
M  V30 1789 H 170.143 -0.232332 3.7969 0
M  V30 1790 H 171.455 -0.523343 4.96047 0
M  V30 1791 H 170.609 -2.84519 5.35849 0
M  V30 1792 H 169.348 -2.61992 4.11353 0
M  V30 1793 H 168.353 -0.740598 5.44789 0
M  V30 1794 H 169.578 -0.988732 6.71864 0
M  V30 1795 H 167.524 -3.04156 5.81227 0
M  V30 1796 H 167.441 -2.09734 7.26325 0
M  V30 1797 H 168.709 -3.27155 7.07524 0
M  V30 1798 N 172.938 -1.57226 0.108567 0
M  V30 1799 C 173.888 -2.11305 -0.856396 0
M  V30 1800 C 174.872 -1.03129 -1.23504 0
M  V30 1801 O 176.064 -1.29381 -1.20787 0
M  V30 1802 C 173.193 -2.70771 -2.11041 0
M  V30 1803 C 172.279 -3.86011 -1.7566 0
M  V30 1804 N 172.67 -4.93492 -1.10902 0
M  V30 1805 C 170.968 -3.95999 -2.05185 0
M  V30 1806 C 171.669 -5.73984 -0.944308 0
M  V30 1807 N 170.645 -5.2346 -1.46596 0
M  V30 1808 H 174.447 -2.91784 -0.352002 0
M  V30 1809 H 171.961 -1.62126 -0.0942324 0
M  V30 1810 H 173.958 -3.07851 -2.81128 0
M  V30 1811 H 172.618 -1.91751 -2.62034 0
M  V30 1812 H 173.629 -5.1208 -0.774235 0
M  V30 1813 H 170.306 -3.28007 -2.58298 0
M  V30 1814 H 171.696 -6.70479 -0.436813 0
M  V30 1815 N 174.416 0.165178 -1.56732 0
M  V30 1816 C 175.656 0.887231 -1.8414 0
M  V30 1817 C 176.02 1.79159 -0.690353 0
M  V30 1818 O 177.221 2.55172 -0.845032 0
M  V30 1819 C 175.492 1.65674 -3.16681 0
M  V30 1820 S 177.051 2.42671 -3.6559 0
M  V30 1821 H 173.869 0.297042 -0.645978 0
M  V30 1822 H 176.471 0.148439 -1.94936 0
M  V30 1823 H 175.175 0.983507 -3.98441 0
M  V30 1824 H 174.706 2.43679 -3.08843 0
M  V30 1825 H 176.721 3.67499 -3.33406 0
M  V30 1826 N 175.894 1.51508 0.433938 0
M  V30 1827 C 177.171 1.54888 1.19453 0
M  V30 1828 C 177.551 0.315154 2.08734 0
M  V30 1829 O 176.899 -0.699558 2.17528 0
M  V30 1830 C 177.109 2.86467 1.99342 0
M  V30 1831 C 178.457 3.38545 2.56267 0
M  V30 1832 O 179.481 2.88041 2.0955 0
M  V30 1833 O 178.34 4.26675 3.41483 0
M  V30 1834 H 175.434 0.622863 0.544032 0
M  V30 1835 H 177.98 1.63823 0.442732 0
M  V30 1836 H 176.752 3.67718 1.33788 0
M  V30 1837 H 176.375 2.8071 2.8158 0
M  V30 1838 N 177.372 -0.689602 1.41712 0
M  V30 1839 C 178.302 -1.81577 1.46806 0
M  V30 1840 C 179.283 -1.66945 0.326105 0
M  V30 1841 O 180.468 -1.86588 0.538377 0
M  V30 1842 C 177.598 -3.19762 1.35535 0
M  V30 1843 C 176.552 -3.49107 2.47605 0
M  V30 1844 C 175.878 -4.86711 2.21397 0
M  V30 1845 C 177.178 -3.47483 3.89939 0
M  V30 1846 H 178.872 -1.7757 2.41058 0
M  V30 1847 H 176.418 -0.852887 1.16025 0
M  V30 1848 H 178.371 -3.98263 1.3771 0
M  V30 1849 H 177.095 -3.24409 0.377708 0
M  V30 1850 H 175.754 -2.72959 2.44722 0
M  V30 1851 H 175.402 -4.8799 1.21961 0
M  V30 1852 H 175.102 -5.0731 2.96497 0
M  V30 1853 H 176.626 -5.67515 2.25297 0
M  V30 1854 H 178.04 -4.1598 3.94505 0
M  V30 1855 H 176.437 -3.79615 4.64771 0
M  V30 1856 H 177.507 -2.46341 4.17665 0
M  V30 1857 N 178.85 -1.27639 -0.924453 0
M  V30 1858 C 180.078 -1.16989 -1.70649 0
M  V30 1859 C 180.493 0.272869 -1.86818 0
M  V30 1860 O 179.85 1.18549 -1.38753 0
M  V30 1861 C 179.901 -1.85229 -3.10439 0
M  V30 1862 O 179.622 -3.23868 -2.95028 0
M  V30 1863 C 181.123 -1.80746 -4.04779 0
M  V30 1864 H 178.343 -0.406595 -0.53378 0
M  V30 1865 H 180.887 -1.68569 -1.15778 0
M  V30 1866 H 179.042 -1.37545 -3.6216 0
M  V30 1867 H 179.456 -3.57889 -3.83426 0
M  V30 1868 H 180.93 -2.33101 -5.00368 0
M  V30 1869 H 181.407 -0.777499 -4.32263 0
M  V30 1870 H 182.013 -2.28059 -3.58984 0
M  V30 1871 N 180.328 1.1314 -1.09713 0
M  V30 1872 C 181.575 1.84484 -0.834987 0
M  V30 1873 C 181.903 1.83689 0.639418 0
M  V30 1874 O 181.158 1.2724 1.4869 0
M  V30 1875 C 181.457 3.32167 -1.3191 0
M  V30 1876 C 181.123 3.53139 -2.80363 0
M  V30 1877 C 179.785 3.58571 -3.20905 0
M  V30 1878 C 182.137 3.60866 -3.76065 0
M  V30 1879 C 179.465 3.69267 -4.55916 0
M  V30 1880 C 181.817 3.73089 -5.10869 0
M  V30 1881 C 180.481 3.76775 -5.50996 0
M  V30 1882 H 179.751 0.675073 -0.305544 0
M  V30 1883 H 182.398 1.33554 -1.37243 0
M  V30 1884 H 180.703 3.85469 -0.701517 0
M  V30 1885 H 182.4 3.85821 -1.09284 0
M  V30 1886 H 178.99 3.49569 -2.47991 0
M  V30 1887 H 183.174 3.55946 -3.45855 0
M  V30 1888 H 178.43 3.70388 -4.86438 0
M  V30 1889 H 182.604 3.78011 -5.84877 0
M  V30 1890 H 180.231 3.84815 -6.55608 0
M  V30 1891 N 181.806 0.884767 1.30421 0
M  V30 1892 C 182.716 0.355398 2.31892 0
M  V30 1893 C 183.732 -0.542261 1.65335 0
M  V30 1894 O 184.908 -0.435432 1.96637 0
M  V30 1895 C 181.973 -0.421661 3.44126 0
M  V30 1896 C 181.034 0.505727 4.26311 0
M  V30 1897 C 180.267 -0.234343 5.33185 0
M  V30 1898 O 180.49 -1.46045 5.51386 0
M  V30 1899 O 179.424 0.415443 6.00465 0
M  V30 1900 H 183.25 1.19685 2.79122 0
M  V30 1901 H 180.835 0.648596 1.34587 0
M  V30 1902 H 182.717 -0.861641 4.12497 0
M  V30 1903 H 181.392 -1.23942 2.99032 0
M  V30 1904 H 180.299 0.994513 3.60639 0
M  V30 1905 H 181.632 1.28948 4.75009 0
M  V30 1906 N 183.284 -1.43765 0.645699 0
M  V30 1907 C 184.532 -2.01499 0.155731 0
M  V30 1908 C 184.853 -1.51151 -1.232 0
M  V30 1909 O 184.123 -0.721044 -1.82148 0
M  V30 1910 H 182.703 -0.745003 0.0545817 0
M  V30 1911 H 185.365 -1.76075 0.835677 0
M  V30 1912 H 184.461 -3.1181 0.134577 0
M  V30 1913 N 184.763 -0.387143 -1.52771 0
M  V30 1914 C 185.693 0.440551 -2.29306 0
M  V30 1915 C 186.674 1.06535 -1.32606 0
M  V30 1916 O 187.859 1.07853 -1.61497 0
M  V30 1917 C 184.989 1.56919 -3.09829 0
M  V30 1918 C 183.943 1.07054 -4.14395 0
M  V30 1919 C 183.269 2.29109 -4.83129 0
M  V30 1920 C 184.569 0.140015 -5.22112 0
M  V30 1921 H 186.263 -0.198026 -2.98744 0
M  V30 1922 H 183.809 -0.09668 -1.43675 0
M  V30 1923 H 185.762 2.15503 -3.62128 0
M  V30 1924 H 184.486 2.23532 -2.3812 0
M  V30 1925 H 183.145 0.507247 -3.63074 0
M  V30 1926 H 182.793 2.94227 -4.0797 0
M  V30 1927 H 182.493 1.96406 -5.53804 0
M  V30 1928 H 184.017 2.88339 -5.38231 0
M  V30 1929 H 185.431 0.633978 -5.69784 0
M  V30 1930 H 183.828 -0.0971485 -6.00021 0
M  V30 1931 H 184.898 -0.811711 -4.78058 0
M  V30 1932 N 186.241 1.57166 -0.116904 0
M  V30 1933 C 187.652 1.82169 0.408809 0
M  V30 1934 C 188.003 1.03393 1.66746 0
M  V30 1935 O 187.128 0.269886 2.1471 0
M  V30 1936 C 187.723 3.30429 0.748466 0
M  V30 1937 C 186.282 3.5612 1.21882 0
M  V30 1938 C 185.429 2.76374 0.226452 0
M  V30 1939 H 188.38 1.5497 -0.342063 0
M  V30 1940 H 188.401 3.44943 1.60607 0
M  V30 1941 H 187.913 3.87737 -0.167784 0
M  V30 1942 H 186.014 3.04168 2.15204 0
M  V30 1943 H 186.127 4.64705 1.16559 0
M  V30 1944 H 184.491 2.44515 0.713063 0
M  V30 1945 H 185.274 3.3644 -0.682859 0
M  V30 1946 N 187.719 -0.156864 1.56817 0
M  V30 1947 C 188.666 -1.19394 1.97519 0
M  V30 1948 C 189.636 -1.4322 0.841265 0
M  V30 1949 O 190.821 -1.55719 1.10255 0
M  V30 1950 C 187.961 -2.52483 2.35258 0
M  V30 1951 C 187.074 -2.35914 3.61896 0
M  V30 1952 C 186.209 -3.61969 3.88782 0
M  V30 1953 C 185.248 -3.40395 5.08722 0
M  V30 1954 N 184.385 -4.58556 5.31668 0
M  V30 1955 H 189.225 -0.839845 2.85921 0
M  V30 1956 H 186.762 -0.403264 1.41464 0
M  V30 1957 H 188.72 -3.30071 2.55165 0
M  V30 1958 H 187.35 -2.85859 1.49949 0
M  V30 1959 H 186.402 -1.49429 3.49821 0
M  V30 1960 H 187.714 -2.15926 4.49641 0
M  V30 1961 H 186.868 -4.47989 4.09135 0
M  V30 1962 H 185.607 -3.84951 2.9944 0
M  V30 1963 H 184.612 -2.52763 4.88253 0
M  V30 1964 H 185.837 -3.18822 5.99608 0
M  V30 1965 H 183.783 -4.81729 4.45279 0
M  V30 1966 H 183.7 -4.41535 6.13664 0
M  V30 1967 H 184.968 -5.45817 5.5651 0
M  V30 1968 N 189.197 -1.51736 -0.425897 0
M  V30 1969 C 190.446 -1.64201 -1.17136 0
M  V30 1970 C 190.759 -0.369705 -1.92074 0
M  V30 1971 O 191.965 -0.373898 -2.68913 0
M  V30 1972 C 190.421 -2.90035 -2.13091 0
M  V30 1973 C 190.029 -4.24312 -1.43747 0
M  V30 1974 C 191.773 -3.1186 -2.87999 0
M  V30 1975 C 189.68 -5.41285 -2.38253 0
M  V30 1976 H 188.61 -0.611624 -0.440944 0
M  V30 1977 H 191.261 -1.78212 -0.437328 0
M  V30 1978 H 189.643 -2.69684 -2.89977 0
M  V30 1979 H 190.817 -4.55086 -0.723408 0
M  V30 1980 H 189.132 -4.08456 -0.809465 0
M  V30 1981 H 191.729 -3.96427 -3.58817 0
M  V30 1982 H 192.072 -2.25403 -3.49999 0
M  V30 1983 H 192.605 -3.32605 -2.18217 0
M  V30 1984 H 189.344 -6.30037 -1.80925 0
M  V30 1985 H 188.864 -5.14872 -3.0768 0
M  V30 1986 H 190.543 -5.73694 -2.99139 0
M  V30 1987 N 190.675 0.682077 -1.42076 0
M  V30 1988 C 191.921 1.44428 -1.42367 0
M  V30 1989 C 192.254 1.94164 -0.0373056 0
M  V30 1990 O 191.529 1.70429 0.937239 0
M  V30 1991 C 191.812 2.64654 -2.44194 0
M  V30 1992 C 191.665 2.20596 -3.91991 0
M  V30 1993 C 192.984 3.66865 -2.431 0
M  V30 1994 H 190.103 0.523834 -0.518428 0
M  V30 1995 H 192.745 0.77576 -1.73442 0
M  V30 1996 H 190.895 3.2169 -2.17826 0
M  V30 1997 H 192.567 1.68783 -4.29313 0
M  V30 1998 H 190.81 1.52242 -4.06208 0
M  V30 1999 H 191.481 3.06921 -4.58807 0
M  V30 2000 H 193.957 3.19531 -2.66532 0
M  V30 2001 H 192.833 4.48577 -3.16339 0
M  V30 2002 H 193.094 4.17493 -1.45437 0
M  V30 2003 N 192.153 1.28127 0.917671 0
M  V30 2004 C 193.564 1.13622 1.48145 0
M  V30 2005 C 193.915 -0.275207 1.9426 0
M  V30 2006 O 193.04 -1.1691 1.82102 0
M  V30 2007 C 193.635 2.05648 2.69248 0
M  V30 2008 C 192.194 1.95219 3.21818 0
M  V30 2009 C 191.341 1.97618 1.94532 0
M  V30 2010 H 194.292 1.40874 0.730772 0
M  V30 2011 H 194.313 1.61818 3.44377 0
M  V30 2012 H 193.825 3.08365 2.35653 0
M  V30 2013 H 191.926 0.955244 3.60147 0
M  V30 2014 H 192.039 2.81976 3.87333 0
M  V30 2015 H 190.403 1.41973 2.11461 0
M  V30 2016 H 191.186 3.02007 1.63238 0
M  V30 2017 N 193.631 -1.12557 1.10312 0
M  V30 2018 C 194.564 -2.1737 0.694674 0
M  V30 2019 C 195.542 -1.59745 -0.303373 0
M  V30 2020 O 196.726 -1.87408 -0.202578 0
M  V30 2021 C 193.853 -3.38691 0.0248052 0
M  V30 2022 C 192.899 -4.14943 0.986121 0
M  V30 2023 S 193.732 -4.73413 2.50281 0
M  V30 2024 C 194.888 -5.9807 1.84562 0
M  V30 2025 H 195.121 -2.5168 1.58255 0
M  V30 2026 H 192.654 -1.23998 0.919992 0
M  V30 2027 H 194.612 -4.08959 -0.355361 0
M  V30 2028 H 193.273 -3.02664 -0.839851 0
M  V30 2029 H 192.466 -5.01854 0.464651 0
M  V30 2030 H 192.068 -3.50377 1.30813 0
M  V30 2031 H 194.36 -6.67232 1.17507 0
M  V30 2032 H 195.303 -6.54841 2.69423 0
M  V30 2033 H 195.711 -5.49073 1.31069 0
M  V30 2034 N 195.109 -0.891671 -1.2995 0
M  V30 2035 C 196.525 -0.58662 -1.48428 0
M  V30 2036 C 196.725 0.873951 -1.81561 0
M  V30 2037 O 195.781 1.65471 -1.90724 0
M  V30 2038 C 197.094 -1.50553 -2.60296 0
M  V30 2039 C 198.642 -1.50988 -2.74175 0
M  V30 2040 C 199.117 -2.41488 -3.89163 0
M  V30 2041 N 200.608 -2.39489 -3.96483 0
M  V30 2042 C 201.343 -3.06223 -4.84784 0
M  V30 2043 N 200.839 -3.82206 -5.77833 0
M  V30 2044 N 202.632 -2.95421 -4.78208 0
M  V30 2045 H 194.783 -1.83644 -1.06718 0
M  V30 2046 H 197.046 -0.786455 -0.529332 0
M  V30 2047 H 196.752 -2.54581 -2.42654 0
M  V30 2048 H 196.626 -1.22008 -3.56923 0
M  V30 2049 H 199.013 -0.47708 -2.91218 0
M  V30 2050 H 199.094 -1.83567 -1.78148 0
M  V30 2051 H 198.738 -3.44857 -3.72876 0
M  V30 2052 H 198.668 -2.06222 -4.84541 0
M  V30 2053 H 201.159 -1.84278 -3.29924 0
M  V30 2054 H 201.472 -4.302 -6.41988 0
M  V30 2055 H 199.817 -3.86313 -5.77743 0
M  V30 2056 H 203.008 -2.35581 -4.04499 0
M  V30 2057 H 203.181 -3.47704 -5.46814 0
M  V30 2058 N 196.587 1.43421 -0.653314 0
M  V30 2059 C 197.833 2.02111 -0.166992 0
M  V30 2060 C 198.166 1.51423 1.21592 0
M  V30 2061 O 197.441 0.707389 1.8118 0
M  V30 2062 C 197.724 3.5966 -0.177948 0
M  V30 2063 C 197.577 4.20579 -1.59478 0
M  V30 2064 C 198.896 4.37413 0.4856 0
M  V30 2065 H 196.015 0.734374 -0.0621557 0
M  V30 2066 H 198.657 1.70717 -0.834016 0
M  V30 2067 H 196.807 3.86537 0.390032 0
M  V30 2068 H 198.479 4.04732 -2.21336 0
M  V30 2069 H 196.722 3.77226 -2.14204 0
M  V30 2070 H 197.393 5.29665 -1.5543 0
M  V30 2071 H 199.869 4.161 0.00234528 0
M  V30 2072 H 198.745 5.47075 0.447207 0
M  V30 2073 H 199.006 4.13672 1.55974 0
M  V30 2074 N 198.065 0.39524 1.52563 0
M  V30 2075 C 199.028 -0.425001 2.25225 0
M  V30 2076 C 200.028 -0.985266 1.27079 0
M  V30 2077 O 201.218 -0.866332 1.5113 0
M  V30 2078 C 198.35 -1.59686 3.01186 0
M  V30 2079 H 199.543 0.211233 2.99155 0
M  V30 2080 H 197.096 0.147472 1.55603 0
M  V30 2081 H 197.831 -2.27035 2.31572 0
M  V30 2082 H 197.616 -1.20176 3.73229 0
M  V30 2083 H 199.106 -2.17743 3.5634 0
M  V30 2084 N 199.544 -1.57102 0.125237 0
M  V30 2085 C 200.491 -2.15641 -0.822655 0
M  V30 2086 C 201.461 -1.08313 -1.25927 0
M  V30 2087 O 202.646 -1.36251 -1.33567 0
M  V30 2088 C 199.786 -2.76504 -2.06494 0
M  V30 2089 C 198.899 -3.98158 -1.67612 0
M  V30 2090 C 198.034 -4.47088 -2.86854 0
M  V30 2091 C 197.073 -5.6126 -2.44242 0
M  V30 2092 N 196.21 -6.04905 -3.56419 0
M  V30 2093 H 201.05 -2.96313 -0.316625 0
M  V30 2094 H 198.587 -1.46388 -0.144588 0
M  V30 2095 H 200.545 -3.09925 -2.79289 0
M  V30 2096 H 199.175 -1.98512 -2.54545 0
M  V30 2097 H 198.227 -3.70858 -0.846661 0
M  V30 2098 H 199.539 -4.80934 -1.32301 0
M  V30 2099 H 198.693 -4.82451 -3.67867 0
M  V30 2100 H 197.432 -3.63275 -3.25396 0
M  V30 2101 H 196.437 -5.25495 -1.61663 0
M  V30 2102 H 197.662 -6.46843 -2.0681 0
M  V30 2103 H 195.608 -5.24032 -3.94623 0
M  V30 2104 H 195.525 -6.82552 -3.25051 0
M  V30 2105 H 196.793 -6.44907 -4.37853 0
M  V30 2106 N 201.022 0.148545 -1.56898 0
M  V30 2107 C 201.932 1.20293 -2.01412 0
M  V30 2108 C 202.948 1.47107 -0.929273 0
M  V30 2109 O 204.124 1.58807 -1.23863 0
M  V30 2110 C 201.189 2.51682 -2.38447 0
M  V30 2111 C 200.25 2.32529 -3.60872 0
M  V30 2112 C 199.483 3.57653 -3.96132 0
M  V30 2113 O 199.706 4.63771 -3.32073 0
M  V30 2114 O 198.64 3.50408 -4.89385 0
M  V30 2115 H 202.466 0.855025 -2.91416 0
M  V30 2116 H 200.051 0.357151 -1.45068 0
M  V30 2117 H 201.933 3.29147 -2.63135 0
M  V30 2118 H 200.608 2.86006 -1.51599 0
M  V30 2119 H 199.515 1.53019 -3.41373 0
M  V30 2120 H 200.848 2.03121 -4.48333 0
M  V30 2121 N 202.5 1.5196 0.417844 0
M  V30 2122 C 203.747 1.65591 1.16559 0
M  V30 2123 C 204.075 0.381565 1.90721 0
M  V30 2124 O 203.33 -0.635156 1.85106 0
M  V30 2125 C 203.629 2.82269 2.19223 0
M  V30 2126 C 203.295 4.20819 1.61933 0
M  V30 2127 C 201.957 4.58506 1.46033 0
M  V30 2128 C 204.309 5.07196 1.20008 0
M  V30 2129 C 201.637 5.80257 0.867113 0
M  V30 2130 C 203.989 6.29544 0.621086 0
M  V30 2131 C 202.653 6.65987 0.449144 0
M  V30 2132 H 201.923 0.605939 0.42652 0
M  V30 2133 H 204.57 1.86041 0.45397 0
M  V30 2134 H 202.875 2.56118 2.96498 0
M  V30 2135 H 204.572 2.90012 2.76936 0
M  V30 2136 H 201.162 3.91116 1.7529 0
M  V30 2137 H 205.346 4.7867 1.31105 0
M  V30 2138 H 200.602 6.07124 0.721833 0
M  V30 2139 H 204.776 6.95805 0.287798 0
M  V30 2140 H 202.403 7.60199 -0.012632 0
M  V30 2141 N 203.978 -0.674533 1.42435 0
M  V30 2142 C 205.203 -1.46784 1.46524 0
M  V30 2143 C 205.628 -1.87938 0.078066 0
M  V30 2144 O 204.986 -1.56014 -0.92354 0
M  V30 2145 C 205.034 -2.69307 2.39805 0
M  V30 2146 O 204.138 -3.67587 1.86959 0
M  V30 2147 H 203.479 -0.440959 0.496439 0
M  V30 2148 H 206.009 -0.827326 1.87127 0
M  V30 2149 H 206.019 -3.17374 2.56393 0
M  V30 2150 H 204.694 -2.38692 3.40586 0
M  V30 2151 H 203.271 -3.2662 1.79927 0
M  V30 2152 N 205.456 -1.28612 -0.910864 0
M  V30 2153 C 206.705 -1.15311 -1.65488 0
M  V30 2154 C 207.018 0.296999 -1.93332 0
M  V30 2155 O 208.224 0.551168 -2.65847 0
M  V30 2156 C 206.68 -2.01599 -2.98137 0
M  V30 2157 C 206.288 -3.51367 -2.7793 0
M  V30 2158 C 208.032 -1.96993 -3.76024 0
M  V30 2159 C 205.939 -4.29797 -4.06237 0
M  V30 2160 H 204.869 -0.42796 -0.620779 0
M  V30 2161 H 207.52 -1.53166 -1.01057 0
M  V30 2162 H 205.902 -1.56603 -3.63719 0
M  V30 2163 H 207.076 -4.0434 -2.21011 0
M  V30 2164 H 205.391 -3.57529 -2.13452 0
M  V30 2165 H 207.988 -2.52856 -4.71135 0
M  V30 2166 H 208.331 -0.94733 -4.05378 0
M  V30 2167 H 208.864 -2.39973 -3.17266 0
M  V30 2168 H 205.603 -5.32648 -3.82055 0
M  V30 2169 H 205.123 -3.81596 -4.62757 0
M  V30 2170 H 206.802 -4.39869 -4.74473 0
M  V30 2171 N 206.934 1.1197 -1.10907 0
M  V30 2172 C 207.897 2.16031 -0.765707 0
M  V30 2173 C 208.897 1.59393 0.212235 0
M  V30 2174 O 210.087 1.74196 -0.0115441 0
M  V30 2175 C 207.219 3.40632 -0.135053 0
M  V30 2176 H 208.412 2.47919 -1.68748 0
M  V30 2177 H 205.965 1.27061 -0.910226 0
M  V30 2178 H 206.7 3.14348 0.797218 0
M  V30 2179 H 206.485 3.8302 -0.838937 0
M  V30 2180 H 207.975 4.17505 0.0892469 0
M  V30 2181 N 208.412 0.89855 1.29475 0
M  V30 2182 C 209.322 0.379974 2.31502 0
M  V30 2183 C 210.338 -0.524695 1.659 0
M  V30 2184 O 211.514 -0.414551 1.97087 0
M  V30 2185 C 208.579 -0.385138 3.44554 0
M  V30 2186 C 207.64 0.550914 4.2575 0
M  V30 2187 C 206.873 -0.177778 5.33404 0
M  V30 2188 O 207.096 -1.40189 5.52904 0
M  V30 2189 O 206.03 0.479106 5.9999 0
M  V30 2190 H 209.856 1.22639 2.77837 0
M  V30 2191 H 207.441 0.662834 1.33891 0
M  V30 2192 H 209.323 -0.817841 4.13388 0
M  V30 2193 H 207.998 -1.20763 3.0033 0
M  V30 2194 H 206.905 1.03271 3.59564 0
M  V30 2195 H 208.238 1.33979 4.73614 0
M  V30 2196 N 209.89 -1.43072 0.660911 0
M  V30 2197 C 211.138 -2.01323 0.177094 0
M  V30 2198 C 211.459 -1.5245 -1.2159 0
M  V30 2199 O 210.729 -0.740322 -1.81373 0
M  V30 2200 H 209.309 -0.744382 0.0624804 0
M  V30 2201 H 211.971 -1.75179 0.854305 0
M  V30 2202 H 211.067 -3.11649 0.167641 0
M  V30 2203 N 211.368 -0.403325 -1.52352 0
M  V30 2204 C 212.645 0.232611 -1.94212 0
M  V30 2205 C 213.025 1.63133 -1.33981 0
M  V30 2206 O 212.373 2.22659 -0.513344 0
M  V30 2207 C 212.583 0.244811 -3.4814 0
M  V30 2208 C 213.931 0.46698 -4.22024 0
M  V30 2209 O 214.955 0.324419 -3.5472 0
M  V30 2210 O 213.814 0.74747 -5.41364 0
M  V30 2211 H 210.908 0.148223 -0.813609 0
M  V30 2212 H 213.454 -0.458848 -1.63379 0
M  V30 2213 H 212.226 -0.734378 -3.84347 0
M  V30 2214 H 211.849 0.980611 -3.85318 0
M  V30 2215 N 212.846 1.57033 -0.133567 0
M  V30 2216 C 214.257 1.82593 0.389464 0
M  V30 2217 C 214.608 1.05156 1.6564 0
M  V30 2218 O 213.733 0.292644 2.14412 0
M  V30 2219 C 214.328 3.31204 0.713377 0
M  V30 2220 C 212.887 3.57393 1.18098 0
M  V30 2221 C 212.034 2.76598 0.197126 0
M  V30 2222 H 214.985 1.54598 -0.358481 0
M  V30 2223 H 215.006 3.46627 1.56939 0
M  V30 2224 H 214.518 3.87537 -0.2089 0
M  V30 2225 H 212.619 3.06433 2.11966 0
M  V30 2226 H 212.732 4.65915 1.11624 0
M  V30 2227 H 211.096 2.45257 0.687088 0
M  V30 2228 H 211.879 3.35697 -0.718504 0
M  V30 2229 N 214.325 -0.140222 1.56975 0
M  V30 2230 C 215.602 -0.880769 1.74648 0
M  V30 2231 C 215.982 -1.99036 0.703404 0
M  V30 2232 O 215.33 -2.26821 -0.27648 0
M  V30 2233 C 215.54 -1.417 3.18939 0
M  V30 2234 C 216.888 -1.87774 3.80823 0
M  V30 2235 O 217.912 -1.51427 3.2241 0
M  V30 2236 O 216.771 -2.54827 4.83452 0
M  V30 2237 H 213.865 -0.416713 0.714338 0
M  V30 2238 H 216.411 -0.125618 1.69234 0
M  V30 2239 H 215.183 -0.619902 3.86359 0
M  V30 2240 H 214.806 -2.23546 3.28805 0
M  V30 2241 N 215.803 -1.52179 -0.40978 0
M  V30 2242 C 217.214 -1.58377 -0.988615 0
M  V30 2243 C 217.565 -0.423879 -1.91566 0
M  V30 2244 O 216.69 0.455844 -2.11544 0
M  V30 2245 C 217.285 -2.87044 -1.79976 0
M  V30 2246 C 215.844 -2.95722 -2.32863 0
M  V30 2247 C 214.991 -2.53309 -1.12828 0
M  V30 2248 H 217.942 -1.57558 -0.190039 0
M  V30 2249 H 217.963 -2.7236 -2.65707 0
M  V30 2250 H 217.475 -3.71444 -1.12478 0
M  V30 2251 H 215.576 -2.15814 -3.03735 0
M  V30 2252 H 215.689 -3.99951 -2.63773 0
M  V30 2253 H 214.053 -2.07142 -1.48204 0
M  V30 2254 H 214.836 -3.40082 -0.46897 0
M  V30 2255 N 217.281 0.66697 -1.42791 0
M  V30 2256 C 218.697 0.981027 -1.25889 0
M  V30 2257 C 218.897 2.00793 -0.168695 0
M  V30 2258 O 217.953 2.48321 0.45747 0
M  V30 2259 C 219.266 1.47838 -2.61848 0
M  V30 2260 C 220.814 1.59575 -2.69267 0
M  V30 2261 C 221.289 2.12704 -4.05612 0
M  V30 2262 N 222.78 2.20026 -4.07606 0
M  V30 2263 C 223.515 2.62227 -5.09926 0
M  V30 2264 N 223.011 3.03824 -6.22626 0
M  V30 2265 N 224.804 2.62045 -4.97281 0
M  V30 2266 H 216.955 -0.0127891 -2.12396 0
M  V30 2267 H 219.218 0.0568258 -0.946295 0
M  V30 2268 H 218.924 0.798299 -3.4252 0
M  V30 2269 H 218.798 2.45579 -2.86305 0
M  V30 2270 H 221.185 2.26687 -1.88936 0
M  V30 2271 H 221.266 0.60302 -2.48591 0
M  V30 2272 H 220.91 1.46198 -4.86404 0
M  V30 2273 H 220.84 3.12782 -4.23645 0
M  V30 2274 H 223.331 1.90708 -3.2625 0
M  V30 2275 H 223.644 3.34734 -6.96544 0
M  V30 2276 H 221.989 3.01662 -6.26119 0
M  V30 2277 H 225.18 2.28916 -4.08308 0
M  V30 2278 H 225.353 2.94613 -5.77154 0
M  V30 2279 N 218.759 1.29093 0.90403 0
M  V30 2280 C 220.007 1.16583 1.65085 0
M  V30 2281 C 220.328 -0.283933 1.92922 0
M  V30 2282 O 219.598 -1.19509 1.55224 0
M  V30 2283 H 218.178 0.428467 0.611903 0
M  V30 2284 H 220.84 1.61959 1.08422 0
M  V30 2285 H 219.936 1.71266 2.6091 0
M  V30 2286 N 220.237 -1.11381 1.11499 0
M  V30 2287 C 221.17 -2.16621 0.71769 0
M  V30 2288 C 222.148 -1.60058 -0.286413 0
M  V30 2289 O 223.332 -1.87613 -0.182689 0
M  V30 2290 C 220.459 -3.38646 0.0607265 0
M  V30 2291 C 219.505 -4.13874 1.03008 0
M  V30 2292 S 220.338 -4.70731 2.55289 0
M  V30 2293 C 221.494 -5.96079 1.90895 0
M  V30 2294 H 221.727 -2.49987 1.60915 0
M  V30 2295 H 219.26 -1.23015 0.933092 0
M  V30 2296 H 221.218 -4.09313 -0.311965 0
M  V30 2297 H 219.879 -3.03537 -0.807702 0
M  V30 2298 H 219.072 -5.01333 0.517853 0
M  V30 2299 H 218.674 -3.4897 1.34522 0
M  V30 2300 H 220.966 -6.65948 1.24577 0
M  V30 2301 H 221.909 -6.51946 2.76354 0
M  V30 2302 H 222.317 -5.47652 1.36885 0
M  V30 2303 N 221.715 -0.905404 -1.28997 0
M  V30 2304 C 222.943 -0.549846 -1.9946 0
M  V30 2305 C 223.358 0.866834 -1.67724 0
M  V30 2306 O 222.715 1.57298 -0.925404 0
M  V30 2307 C 222.766 -0.739387 -3.53858 0
M  V30 2308 O 222.487 -2.10031 -3.84472 0
M  V30 2309 C 223.988 -0.389541 -4.41585 0
M  V30 2310 H 221.208 -0.210429 -0.637151 0
M  V30 2311 H 223.752 -1.21632 -1.64396 0
M  V30 2312 H 221.907 -0.120023 -3.87214 0
M  V30 2313 H 222.321 -2.13385 -4.79132 0
M  V30 2314 H 223.795 -0.572972 -5.49018 0
M  V30 2315 H 224.272 0.673756 -4.34001 0
M  V30 2316 H 224.878 -0.986089 -4.1371 0
M  V30 2317 N 223.193 1.4272 -0.668489 0
M  V30 2318 C 224.439 2.01923 -0.188419 0
M  V30 2319 C 224.772 1.52704 1.19979 0
M  V30 2320 O 224.047 0.726566 1.8042 0
M  V30 2321 C 224.33 3.59451 -0.216085 0
M  V30 2322 C 224.183 4.18864 -1.6393 0
M  V30 2323 C 225.502 4.37903 0.439179 0
M  V30 2324 H 222.621 0.733674 -0.0699412 0
M  V30 2325 H 225.263 1.69822 -0.852076 0
M  V30 2326 H 223.413 3.86929 0.349012 0
M  V30 2327 H 225.085 4.02362 -2.25616 0
M  V30 2328 H 223.328 3.74933 -2.18193 0
M  V30 2329 H 223.999 5.27987 -1.61039 0
M  V30 2330 H 226.475 4.16079 -0.0417878 0
M  V30 2331 H 225.351 5.47519 0.389157 0
M  V30 2332 H 225.612 4.15303 1.51577 0
M  V30 2333 N 224.671 0.411399 1.52136 0
M  V30 2334 C 225.917 -0.163888 2.02137 0
M  V30 2335 C 226.25 -1.44597 1.29636 0
M  V30 2336 O 225.525 -1.90272 0.403353 0
M  V30 2337 C 225.808 -0.40927 3.57767 0
M  V30 2338 C 225.661 0.889643 4.40914 0
M  V30 2339 C 226.98 -1.19042 4.23694 0
M  V30 2340 H 224.099 -0.0580896 0.734707 0
M  V30 2341 H 226.741 0.54531 1.82007 0
M  V30 2342 H 224.891 -1.0134 3.7505 0
M  V30 2343 H 226.563 1.52575 4.35337 0
M  V30 2344 H 224.806 1.50011 4.07037 0
M  V30 2345 H 225.477 0.672314 5.4789 0
M  V30 2346 H 227.953 -0.678942 4.10524 0
M  V30 2347 H 226.829 -1.33086 5.32522 0
M  V30 2348 H 227.09 -2.21166 3.82803 0
M  V30 2349 N 226.149 -1.5696 0.141893 0
M  V30 2350 C 227.397 -1.95573 -0.509484 0
M  V30 2351 C 227.718 -1.02746 -1.65736 0
M  V30 2352 O 226.988 -0.0880311 -1.95702 0
M  V30 2353 H 225.568 -0.722115 -0.191205 0
M  V30 2354 H 228.23 -1.93697 0.216196 0
M  V30 2355 H 227.326 -2.99171 -0.889 0
M  V30 2356 N 227.627 0.131896 -1.57047 0
M  V30 2357 C 228.557 1.16384 -2.02428 0
M  V30 2358 C 229.538 1.43936 -0.90644 0
M  V30 2359 O 230.723 1.54599 -1.17528 0
M  V30 2360 C 227.853 2.49328 -2.4177 0
M  V30 2361 C 226.807 2.36266 -3.56879 0
M  V30 2362 C 226.133 3.74057 -3.8208 0
M  V30 2363 C 227.433 1.834 -4.89042 0
M  V30 2364 H 229.127 0.786433 -2.88887 0
M  V30 2365 H 226.673 0.376855 -1.38981 0
M  V30 2366 H 228.626 3.21759 -2.7212 0
M  V30 2367 H 227.35 2.88934 -1.52266 0
M  V30 2368 H 226.009 1.66286 -3.26718 0
M  V30 2369 H 225.657 4.11125 -2.89803 0
M  V30 2370 H 225.357 3.66174 -4.59554 0
M  V30 2371 H 226.881 4.48012 -4.1487 0
M  V30 2372 H 228.295 2.45636 -5.18011 0
M  V30 2373 H 226.692 1.8637 -5.70426 0
M  V30 2374 H 227.762 0.790662 -4.7841 0
M  V30 2375 N 229.106 1.52395 0.401703 0
M  V30 2376 C 230.383 1.57387 1.16141 0
M  V30 2377 C 230.763 0.359359 2.08019 0
M  V30 2378 O 230.111 -0.65326 2.18963 0
M  V30 2379 C 230.321 2.90631 1.93221 0
M  V30 2380 C 231.669 3.43904 2.49028 0
M  V30 2381 O 232.693 2.92421 2.03393 0
M  V30 2382 O 231.552 4.33823 3.32356 0
M  V30 2383 H 228.646 0.634262 0.530698 0
M  V30 2384 H 231.192 1.64725 0.407883 0
M  V30 2385 H 229.964 3.70473 1.25958 0
M  V30 2386 H 229.587 2.8662 2.75563 0
M  V30 2387 N 230.584 -0.659388 1.43143 0
M  V30 2388 C 231.832 -1.41654 1.44147 0
M  V30 2389 C 232.153 -1.94893 0.0645739 0
M  V30 2390 O 231.423 -1.74044 -0.899198 0
M  V30 2391 H 230.003 -0.525708 0.530697 0
M  V30 2392 H 232.665 -0.778097 1.78694 0
M  V30 2393 H 231.761 -2.26195 2.1504 0
M  V30 2394 N 232.062 -1.29571 -0.897171 0
M  V30 2395 C 232.972 -1.16808 -2.03453 0
M  V30 2396 C 233.988 -0.0907471 -1.73763 0
M  V30 2397 O 235.164 -0.303312 -1.99103 0
M  V30 2398 C 232.229 -0.848264 -3.36163 0
M  V30 2399 C 231.29 -2.0097 -3.79354 0
M  V30 2400 C 230.523 -1.70505 -5.05731 0
M  V30 2401 O 230.746 -0.62718 -5.66941 0
M  V30 2402 O 229.68 -2.5538 -5.45036 0
M  V30 2403 H 233.506 -2.12325 -2.17144 0
M  V30 2404 H 231.091 -1.09047 -1.02123 0
M  V30 2405 H 232.973 -0.684581 -4.15802 0
M  V30 2406 H 231.648 0.0771071 -3.23608 0
M  V30 2407 H 230.555 -2.22863 -3.00471 0
M  V30 2408 H 231.888 -2.91636 -3.96496 0
M  V30 2409 N 233.54 1.10788 -1.12088 0
M  V30 2410 C 234.786 1.82942 -0.875226 0
M  V30 2411 C 235.119 1.84779 0.597538 0
M  V30 2412 O 234.394 1.30578 1.44152 0
M  V30 2413 C 234.677 3.29789 -1.44606 0
M  V30 2414 C 234.53 3.36307 -2.98693 0
M  V30 2415 C 235.849 4.26064 -1.10261 0
M  V30 2416 H 232.968 0.664195 -0.319397 0
M  V30 2417 H 235.61 1.29867 -1.38689 0
M  V30 2418 H 233.76 3.75118 -1.01089 0
M  V30 2419 H 235.432 2.99487 -3.50864 0
M  V30 2420 H 233.675 2.76318 -3.34411 0
M  V30 2421 H 234.346 4.39694 -3.33726 0
M  V30 2422 H 236.822 3.88951 -1.4784 0
M  V30 2423 H 235.698 5.27183 -1.52869 0
M  V30 2424 H 235.959 4.42098 -0.0142953 0
M  V30 2425 N 235.018 0.912232 1.28515 0
M  V30 2426 C 235.981 0.404223 2.25607 0
M  V30 2427 C 236.981 -0.468602 1.53821 0
M  V30 2428 O 238.171 -0.271873 1.72065 0
M  V30 2429 C 235.303 -0.420653 3.38295 0
M  V30 2430 H 236.496 1.26188 2.7206 0
M  V30 2431 H 234.049 0.691495 1.40171 0
M  V30 2432 H 234.784 -1.29777 2.97201 0
M  V30 2433 H 234.569 0.204935 3.91564 0
M  V30 2434 H 236.059 -0.766971 4.10496 0
M  V30 2435 N 236.496 -1.42363 0.676048 0
M  V30 2436 C 237.744 -2.01123 0.198437 0
M  V30 2437 C 238.065 -1.53731 -1.19966 0
M  V30 2438 O 237.335 -0.759518 -1.80577 0
M  V30 2439 H 235.915 -0.743678 0.0703721 0
M  V30 2440 H 238.577 -1.74263 0.872837 0
M  V30 2441 H 237.673 -3.11454 0.200686 0
M  V30 2442 N 237.974 -0.419461 -1.51915 0
M  V30 2443 C 239.202 0.152136 -2.0634 0
M  V30 2444 C 239.617 1.37988 -1.28859 0
M  V30 2445 O 238.974 1.79243 -0.343232 0
M  V30 2446 C 239.025 0.492266 -3.58133 0
M  V30 2447 O 238.746 -0.686736 -4.32684 0
M  V30 2448 C 240.247 1.11648 -4.2901 0
M  V30 2449 H 237.467 0.0158325 -0.670813 0
M  V30 2450 H 240.011 -0.593394 -1.95702 0
M  V30 2451 H 238.166 1.18769 -3.68745 0
M  V30 2452 H 238.58 -0.400341 -5.2297 0
M  V30 2453 H 240.054 1.3046 -5.36362 0
M  V30 2454 H 240.531 2.09251 -3.86148 0
M  V30 2455 H 241.137 0.460958 -4.22795 0
M  V30 2456 N 239.452 1.56882 -0.150215 0
M  V30 2457 C 240.698 1.96518 0.500834 0
M  V30 2458 C 241.031 1.03527 1.64304 0
M  V30 2459 O 240.306 0.0782751 1.94342 0
M  V30 2460 C 240.589 3.45822 1.00395 0
M  V30 2461 C 240.442 4.49591 -0.136983 0
M  V30 2462 C 241.761 3.97704 1.88467 0
M  V30 2463 H 238.88 0.714535 0.18058 0
M  V30 2464 H 241.522 1.88577 -0.232091 0
M  V30 2465 H 239.672 3.5272 1.62851 0
M  V30 2466 H 241.344 4.5477 -0.77343 0
M  V30 2467 H 239.587 4.26441 -0.795652 0
M  V30 2468 H 240.258 5.51402 0.256815 0
M  V30 2469 H 242.734 3.93304 1.35834 0
M  V30 2470 H 241.61 5.0263 2.20578 0
M  V30 2471 H 241.871 3.40252 2.82279 0
M  V30 2472 N 240.93 -0.123565 1.57115 0
M  V30 2473 C 242.155 -0.850398 1.89164 0
M  V30 2474 C 242.58 -1.7286 0.741688 0
M  V30 2475 O 241.938 -1.78665 -0.307958 0
M  V30 2476 C 241.986 -1.66353 3.19936 0
M  V30 2477 O 241.09 -2.77004 3.0552 0
M  V30 2478 H 240.431 -0.235454 0.620852 0
M  V30 2479 H 242.961 -0.107335 2.04318 0
M  V30 2480 H 242.971 -2.05372 3.52543 0
M  V30 2481 H 241.646 -1.01881 4.03228 0
M  V30 2482 H 240.223 -2.41221 2.84371 0
M  V30 2483 N 242.408 -1.52605 -0.393616 0
M  V30 2484 C 243.685 -1.58001 -1.15304 0
M  V30 2485 C 244.065 -0.370385 -2.07825 0
M  V30 2486 O 243.413 0.641638 -2.19306 0
M  V30 2487 C 243.623 -2.91652 -1.91677 0
M  V30 2488 C 244.971 -3.4522 -2.47201 0
M  V30 2489 O 245.995 -2.93495 -2.01839 0
M  V30 2490 O 244.854 -4.35579 -3.3005 0
M  V30 2491 H 241.948 -0.637068 -0.527327 0
M  V30 2492 H 244.494 -1.64939 -0.399141 0
M  V30 2493 H 243.266 -3.71136 -1.23992 0
M  V30 2494 H 242.889 -2.88077 -2.74039 0
M  V30 2495 N 243.887 0.651787 -1.4349 0
M  V30 2496 C 245.133 1.41376 -1.45398 0
M  V30 2497 C 245.466 1.94041 -0.0784823 0
M  V30 2498 O 244.741 1.72379 0.900878 0
M  V30 2499 C 245.024 2.59414 -2.49752 0
M  V30 2500 C 244.877 2.12232 -3.96582 0
M  V30 2501 C 246.196 3.61626 -2.50827 0
M  V30 2502 H 243.315 0.512719 -0.529422 0
M  V30 2503 H 245.957 0.738796 -1.75048 0
M  V30 2504 H 244.107 3.16997 -2.246 0
M  V30 2505 H 245.779 1.59639 -4.32797 0
M  V30 2506 H 244.022 1.43592 -4.09346 0
M  V30 2507 H 244.693 2.9712 -4.65214 0
M  V30 2508 H 247.169 3.13805 -2.7325 0
M  V30 2509 H 246.045 4.41766 -3.25783 0
M  V30 2510 H 246.306 4.14314 -1.5426 0
M  V30 2511 N 245.365 1.30045 0.890287 0
M  V30 2512 C 246.611 1.19747 1.64415 0
M  V30 2513 C 246.966 -0.246591 1.90813 0
M  V30 2514 O 246.259 -1.174 1.51419 0
M  V30 2515 C 246.453 1.95409 2.99249 0
M  V30 2516 C 246.282 3.47025 2.86013 0
M  V30 2517 C 245.052 4.1638 2.86279 0
M  V30 2518 C 247.25 4.42353 2.62351 0
M  V30 2519 N 245.232 5.54293 2.63879 0
M  V30 2520 C 246.603 5.67792 2.49022 0
M  V30 2521 C 248.658 4.32009 2.47533 0
M  V30 2522 C 247.361 6.8406 2.22383 0
M  V30 2523 C 249.387 5.48038 2.22279 0
M  V30 2524 C 248.749 6.72455 2.09722 0
M  V30 2525 H 244.848 0.493223 0.60684 0
M  V30 2526 H 247.432 1.6399 1.04954 0
M  V30 2527 H 245.603 1.53565 3.56752 0
M  V30 2528 H 247.335 1.77298 3.63796 0
M  V30 2529 H 244.09 3.68164 2.97913 0
M  V30 2530 H 244.514 6.26852 2.55706 0
M  V30 2531 H 249.156 3.36503 2.55979 0
M  V30 2532 H 246.874 7.79612 2.12675 0
M  V30 2533 H 250.46 5.41939 2.11643 0
M  V30 2534 H 249.34 7.60722 1.90453 0
M  V30 2535 N 246.843 -1.10192 1.12674 0
M  V30 2536 C 248.089 -1.82475 0.884915 0
M  V30 2537 C 248.422 -1.85093 -0.58773 0
M  V30 2538 O 247.697 -1.3134 -1.43457 0
M  V30 2539 C 247.98 -3.29018 1.46353 0
M  V30 2540 C 247.833 -3.34718 3.00473 0
M  V30 2541 C 249.152 -4.25473 1.12519 0
M  V30 2542 H 246.271 -0.662492 0.322915 0
M  V30 2543 H 248.913 -1.2913 1.39375 0
M  V30 2544 H 247.063 -3.74576 1.03077 0
M  V30 2545 H 248.735 -2.97622 3.52447 0
M  V30 2546 H 246.978 -2.74541 3.35872 0
M  V30 2547 H 247.649 -4.37918 3.36053 0
M  V30 2548 H 250.125 -3.88161 1.499 0
M  V30 2549 H 249.001 -5.26365 1.55663 0
M  V30 2550 H 249.262 -4.42084 0.0377407 0
M  V30 2551 N 248.321 -0.919034 -1.28029 0
M  V30 2552 C 249.598 -0.473668 -1.89778 0
M  V30 2553 C 249.978 1.04783 -1.83259 0
M  V30 2554 O 249.326 1.8982 -1.27202 0
M  V30 2555 C 249.536 -1.00998 -3.34066 0
M  V30 2556 C 250.884 -1.06525 -4.1102 0
M  V30 2557 O 251.908 -0.958996 -3.43048 0
M  V30 2558 O 250.767 -1.22776 -5.3253 0
M  V30 2559 H 247.861 -0.15098 -0.813101 0
M  V30 2560 H 250.407 -1.01016 -1.36359 0
M  V30 2561 H 249.179 -2.05392 -3.33061 0
M  V30 2562 H 248.802 -0.454626 -3.94992 0
M  V30 2563 N 249.799 1.42003 -0.683588 0
M  V30 2564 C 251.215 1.55625 -0.353976 0
M  V30 2565 C 251.415 1.66151 1.14 0
M  V30 2566 O 250.471 1.63329 1.92561 0
M  V30 2567 C 251.784 2.80171 -1.092 0
M  V30 2568 C 253.332 2.93954 -1.07518 0
M  V30 2569 C 253.807 4.21372 -1.79471 0
M  V30 2570 N 255.298 4.28303 -1.76381 0
M  V30 2571 C 256.033 5.25729 -2.28904 0
M  V30 2572 N 255.529 6.29254 -2.89846 0
M  V30 2573 N 257.322 5.17586 -2.19228 0
M  V30 2574 H 249.473 1.33415 -1.6527 0
M  V30 2575 H 251.736 0.64282 -0.696769 0
M  V30 2576 H 251.442 2.78561 -2.14701 0
M  V30 2577 H 251.316 3.7133 -0.662862 0
M  V30 2578 H 253.703 2.95086 -0.028475 0
M  V30 2579 H 253.784 2.04002 -1.54328 0
M  V30 2580 H 253.428 4.21001 -2.84114 0
M  V30 2581 H 253.358 5.10275 -1.30104 0
M  V30 2582 H 255.849 3.54119 -1.31939 0
M  V30 2583 H 256.162 6.99964 -3.27522 0
M  V30 2584 H 254.507 6.29791 -2.93919 0
M  V30 2585 H 257.698 4.35631 -1.71299 0
M  V30 2586 H 257.871 5.93348 -2.60466 0
M  V30 2587 N 251.277 0.427512 1.51691 0
M  V30 2588 C 252.502 -0.143601 2.06902 0
M  V30 2589 C 252.927 -1.36536 1.29382 0
M  V30 2590 O 252.285 -1.78289 0.329043 0
M  V30 2591 C 252.333 -0.454207 3.57728 0
M  V30 2592 O 251.437 -1.54228 3.82475 0
M  V30 2593 H 250.778 -0.00617128 0.663971 0
M  V30 2594 H 253.308 0.606014 1.95419 0
M  V30 2595 H 253.318 -0.707525 4.01818 0
M  V30 2596 H 251.993 0.438812 4.13579 0
M  V30 2597 H 250.57 -1.2797 3.50254 0
M  V30 2598 N 252.755 -1.56801 0.158532 0
M  V30 2599 C 253.665 -2.20916 -0.789518 0
M  V30 2600 C 254.681 -1.1969 -1.26294 0
M  V30 2601 O 255.857 -1.52308 -1.31773 0
M  V30 2602 C 252.922 -2.82727 -2.00665 0
M  V30 2603 C 251.983 -3.99114 -1.58134 0
M  V30 2604 C 251.216 -4.57968 -2.74045 0
M  V30 2605 O 251.439 -4.15704 -3.90572 0
M  V30 2606 O 250.373 -5.48047 -2.48855 0
M  V30 2607 H 254.199 -3.02464 -0.273681 0
M  V30 2608 H 251.784 -1.4924 -0.0690548 0
M  V30 2609 H 253.666 -3.21968 -2.71872 0
M  V30 2610 H 252.341 -2.04184 -2.51179 0
M  V30 2611 H 251.248 -3.64567 -0.839155 0
M  V30 2612 H 252.581 -4.79212 -1.12325 0
M  V30 2613 N 254.233 0.115231 -1.57178 0
M  V30 2614 C 255.644 0.67197 -1.74188 0
M  V30 2615 C 255.995 1.80125 -0.777777 0
M  V30 2616 O 255.12 2.16346 0.0484376 0
M  V30 2617 C 255.715 1.22573 -3.1585 0
M  V30 2618 C 254.274 1.72872 -3.34353 0
M  V30 2619 C 253.421 0.629972 -2.70049 0
M  V30 2620 H 256.372 -0.110712 -1.58313 0
M  V30 2621 H 256.393 2.09535 -3.17609 0
M  V30 2622 H 255.905 0.403598 -3.85996 0
M  V30 2623 H 254.006 2.5755 -2.69256 0
M  V30 2624 H 254.119 1.83557 -4.42542 0
M  V30 2625 H 252.483 1.0645 -2.31388 0
M  V30 2626 H 253.266 -0.181241 -3.42821 0
M  V30 2627 N 255.711 1.52812 0.385517 0
M  V30 2628 C 256.643 1.74096 1.49074 0
M  V30 2629 C 257.656 0.621462 1.50472 0
M  V30 2630 O 258.845 0.897245 1.54311 0
M  V30 2631 C 255.945 1.78774 2.87911 0
M  V30 2632 C 255.118 3.08134 3.10439 0
M  V30 2633 C 254.177 3.04313 4.29278 0
M  V30 2634 O 253.203 3.78168 4.25415 0
M  V30 2635 N 254.405 2.23741 5.35649 0
M  V30 2636 H 257.17 2.69455 1.31202 0
M  V30 2637 H 254.731 1.51343 0.575065 0
M  V30 2638 H 256.723 1.73721 3.65518 0
M  V30 2639 H 255.293 0.907869 2.99126 0
M  V30 2640 H 254.513 3.26649 2.20667 0
M  V30 2641 H 255.801 3.93662 3.22347 0
M  V30 2642 H 255.199 1.63211 5.41645 0
M  V30 2643 H 253.756 2.24524 6.11909 0
M  V30 2644 N 257.189 -0.644168 1.43834 0
M  V30 2645 C 258.438 -1.39985 1.45214 0
M  V30 2646 C 258.751 -1.95421 0.0835494 0
M  V30 2647 O 259.957 -2.71488 -0.0251748 0
M  V30 2648 C 258.413 -2.53384 2.55587 0
M  V30 2649 C 258.021 -2.04517 3.98594 0
M  V30 2650 C 259.765 -3.30685 2.66172 0
M  V30 2651 C 257.672 -3.1518 5.00416 0
M  V30 2652 H 256.602 -0.526005 0.540218 0
M  V30 2653 H 259.253 -0.694367 1.69855 0
M  V30 2654 H 257.635 -3.26446 2.24163 0
M  V30 2655 H 258.809 -1.38405 4.39523 0
M  V30 2656 H 257.124 -1.40068 3.92135 0
M  V30 2657 H 259.721 -4.13158 3.39418 0
M  V30 2658 H 260.064 -3.79312 1.71546 0
M  V30 2659 H 260.597 -2.64708 2.96942 0
M  V30 2660 H 257.336 -2.71511 5.96625 0
M  V30 2661 H 256.856 -3.79974 4.64091 0
M  V30 2662 H 258.535 -3.80166 5.23529 0
M  V30 2663 N 258.668 -1.30515 -0.883378 0
M  V30 2664 C 260.084 -1.08881 -1.16692 0
M  V30 2665 C 260.284 0.149409 -2.00945 0
M  V30 2666 O 259.34 0.84257 -2.38027 0
M  V30 2667 C 260.653 -2.35319 -1.87204 0
M  V30 2668 C 262.201 -2.40799 -1.99962 0
M  V30 2669 C 262.676 -3.67083 -2.73887 0
M  V30 2670 N 264.167 -3.679 -2.81432 0
M  V30 2671 C 264.902 -4.62303 -3.3921 0
M  V30 2672 N 264.398 -5.67052 -3.98025 0
M  V30 2673 N 266.191 -4.49845 -3.3704 0
M  V30 2674 H 258.342 -2.09951 -0.321633 0
M  V30 2675 H 260.605 -0.92556 -0.205043 0
M  V30 2676 H 260.311 -3.25689 -1.3274 0
M  V30 2677 H 260.185 -2.44089 -2.87577 0
M  V30 2678 H 262.572 -1.50907 -2.53597 0
M  V30 2679 H 262.653 -2.36003 -0.98673 0
M  V30 2680 H 262.297 -4.57334 -2.20925 0
M  V30 2681 H 262.227 -3.69141 -3.75556 0
M  V30 2682 H 264.718 -2.92171 -2.39676 0
M  V30 2683 H 265.031 -6.35184 -4.40183 0
M  V30 2684 H 263.376 -5.70842 -3.96439 0
M  V30 2685 H 266.567 -3.67194 -2.90321 0
M  V30 2686 H 266.74 -5.23597 -3.81772 0
M  V30 2687 N 260.146 1.09593 -1.13257 0
M  V30 2688 C 261.376 1.85231 -0.915049 0
M  V30 2689 C 261.784 1.81345 0.539498 0
M  V30 2690 O 261.127 1.20664 1.38513 0
M  V30 2691 C 261.189 3.34275 -1.3229 0
M  V30 2692 C 260.853 3.6191 -2.79052 0
M  V30 2693 C 261.85 3.57777 -3.77216 0
M  V30 2694 C 259.535 3.90309 -3.16171 0
M  V30 2695 C 261.529 3.81652 -5.1051 0
M  V30 2696 C 259.216 4.13839 -4.49644 0
M  V30 2697 C 260.214 4.09502 -5.46623 0
M  V30 2698 O 259.902 4.32426 -6.77689 0
M  V30 2699 H 259.634 0.591997 -0.326367 0
M  V30 2700 H 262.188 1.394 -1.50854 0
M  V30 2701 H 260.418 3.80805 -0.672667 0
M  V30 2702 H 262.107 3.9132 -1.07812 0
M  V30 2703 H 262.873 3.35865 -3.49885 0
M  V30 2704 H 258.752 3.92811 -2.41289 0
M  V30 2705 H 262.296 3.78182 -5.86195 0
M  V30 2706 H 258.193 4.35232 -4.767 0
M  V30 2707 H 258.961 4.49896 -6.83766 0
M  V30 2708 N 261.624 0.925811 1.2754 0
M  V30 2709 C 262.554 0.440748 2.29303 0
M  V30 2710 C 263.535 -0.497971 1.62648 0
M  V30 2711 O 264.72 -0.403126 1.8997 0
M  V30 2712 C 261.85 -0.309048 3.45922 0
M  V30 2713 C 260.804 0.54166 4.24559 0
M  V30 2714 C 260.13 -0.337191 5.33636 0
M  V30 2715 C 261.43 1.80516 4.90114 0
M  V30 2716 H 263.124 1.29121 2.70126 0
M  V30 2717 H 260.67 0.622323 1.29858 0
M  V30 2718 H 262.623 -0.659315 4.1621 0
M  V30 2719 H 261.347 -1.19352 3.04011 0
M  V30 2720 H 260.006 0.874609 3.56014 0
M  V30 2721 H 259.654 -1.22056 4.87966 0
M  V30 2722 H 259.354 0.228497 5.87156 0
M  V30 2723 H 260.878 -0.683072 6.06767 0
M  V30 2724 H 262.292 1.52307 5.52698 0
M  V30 2725 H 260.689 2.3142 5.53683 0
M  V30 2726 H 261.759 2.52581 4.13921 0
M  V30 2727 N 263.102 -1.41638 0.69111 0
M  V30 2728 C 264.012 -2.34588 0.0233487 0
M  V30 2729 C 265.028 -1.55987 -0.770984 0
M  V30 2730 O 266.204 -1.88486 -0.709569 0
M  V30 2731 C 263.269 -3.34684 -0.904851 0
M  V30 2732 C 262.33 -4.29176 -0.103225 0
M  V30 2733 C 261.563 -5.2449 -0.987216 0
M  V30 2734 O 261.786 -5.2514 -2.22674 0
M  V30 2735 O 260.72 -6.00295 -0.439281 0
M  V30 2736 H 264.546 -2.93261 0.789416 0
M  V30 2737 H 262.131 -1.42417 0.45142 0
M  V30 2738 H 264.013 -3.96133 -1.43724 0
M  V30 2739 H 262.688 -2.78461 -1.65049 0
M  V30 2740 H 261.595 -3.71089 0.473655 0
M  V30 2741 H 262.928 -4.88484 0.60365 0
M  V30 2742 N 264.58 -0.43555 -1.51462 0
M  V30 2743 C 265.826 0.131709 -2.02372 0
M  V30 2744 C 266.159 1.42516 -1.3192 0
M  V30 2745 O 265.434 1.89606 -0.433573 0
M  V30 2746 C 265.717 0.352301 -3.58373 0
M  V30 2747 C 265.57 -0.959676 -4.39443 0
M  V30 2748 C 266.889 1.12286 -4.25535 0
M  V30 2749 H 264.008 0.0463936 -0.735538 0
M  V30 2750 H 266.65 -0.574197 -1.81116 0
M  V30 2751 H 264.8 0.9536 -3.76615 0
M  V30 2752 H 266.472 -1.59482 -4.32855 0
M  V30 2753 H 264.715 -1.56468 -4.04599 0
M  V30 2754 H 265.386 -0.759394 -5.46752 0
M  V30 2755 H 267.862 0.613545 -4.11552 0
M  V30 2756 H 266.738 1.24598 -5.34571 0
M  V30 2757 H 266.999 2.15048 -3.86273 0
M  V30 2758 N 266.058 1.56714 -0.166846 0
M  V30 2759 C 266.968 2.21331 0.777791 0
M  V30 2760 C 267.984 1.20358 1.25658 0
M  V30 2761 O 269.16 1.53005 1.30964 0
M  V30 2762 C 266.225 2.83787 1.99163 0
M  V30 2763 C 265.286 3.99947 1.56016 0
M  V30 2764 C 264.519 4.59415 2.71613 0
M  V30 2765 O 264.742 4.17769 3.88362 0
M  V30 2766 O 263.676 5.49359 2.45945 0
M  V30 2767 H 267.502 3.02605 0.257636 0
M  V30 2768 H 265.087 1.49275 0.0611393 0
M  V30 2769 H 266.969 3.23405 2.70161 0
M  V30 2770 H 265.644 2.05513 2.50092 0
M  V30 2771 H 264.551 3.65007 0.819809 0
M  V30 2772 H 265.884 4.79801 1.09782 0
M  V30 2773 N 267.536 -0.106894 1.57237 0
M  V30 2774 C 268.782 -0.81373 1.85759 0
M  V30 2775 C 269.115 -1.78952 0.754315 0
M  V30 2776 O 268.39 -1.93029 -0.23879 0
M  V30 2777 C 268.673 -1.55293 3.24894 0
M  V30 2778 C 268.526 -0.595929 4.45835 0
M  V30 2779 C 269.845 -2.5063 3.61763 0
M  V30 2780 H 266.964 -0.294369 0.67566 0
M  V30 2781 H 269.606 -0.0776472 1.89841 0
M  V30 2782 H 267.756 -2.1804 3.21544 0
M  V30 2783 H 269.428 0.0236262 4.61294 0
M  V30 2784 H 267.671 0.0916191 4.33703 0
M  V30 2785 H 268.342 -1.15004 5.39887 0
M  V30 2786 H 270.818 -1.97982 3.65981 0
M  V30 2787 H 269.694 -2.99376 4.60071 0
M  V30 2788 H 269.955 -3.3385 2.89821 0
M  V30 2789 N 269.014 -1.53014 -0.377408 0
M  V30 2790 C 269.977 -1.77957 -1.44444 0
M  V30 2791 C 270.977 -0.649763 -1.47087 0
M  V30 2792 O 272.167 -0.917897 -1.48055 0
M  V30 2793 C 269.299 -1.89089 -2.83651 0
M  V30 2794 H 270.492 -2.73243 -1.23606 0
M  V30 2795 H 268.045 -1.43912 -0.609844 0
M  V30 2796 H 268.78 -0.958293 -3.09818 0
M  V30 2797 H 268.565 -2.71254 -2.83132 0
M  V30 2798 H 270.055 -2.1002 -3.60945 0
M  V30 2799 N 270.492 0.636531 -1.44174 0
M  V30 2800 C 271.455 1.73063 -1.50273 0
M  V30 2801 C 272.455 1.56113 -0.385397 0
M  V30 2802 O 273.645 1.61707 -0.64781 0
M  V30 2803 C 270.777 3.12096 -1.37145 0
M  V30 2804 H 271.97 1.69031 -2.47727 0
M  V30 2805 H 269.523 0.849706 -1.31186 0
M  V30 2806 H 270.258 3.21728 -0.407636 0
M  V30 2807 H 270.043 3.25805 -2.18159 0
M  V30 2808 H 271.533 3.91846 -1.44382 0
M  V30 2809 N 271.97 1.30982 0.876444 0
M  V30 2810 C 272.918 1.18006 2.00443 0
M  V30 2811 C 273.912 0.0898871 1.69161 0
M  V30 2812 O 275.118 0.251333 1.78237 0
M  V30 2813 H 271.493 0.365196 0.65737 0
M  V30 2814 H 273.464 2.13453 2.0852 0
M  V30 2815 C 272.213 0.897521 3.35916 0
M  V30 2816 H 271.536 1.7285 3.60504 0
M  V30 2817 H 272.976 0.846874 4.15456 0
M  V30 2818 C 271.435 -0.399674 3.34521 0
M  V30 2819 O 271.965 -1.41852 3.7582 0
M  V30 2820 N 270.171 -0.413893 2.87637 0
M  V30 2821 H 269.718 0.41571 2.54224 0
M  V30 2822 H 269.676 -1.28175 2.87086 0
M  V30 2823 N 273.449 -1.08991 1.13837 0
M  V30 2824 C 274.396 -2.15748 0.819835 0
M  V30 2825 C 275.366 -1.64636 -0.220026 0
M  V30 2826 O 276.551 -1.90582 -0.0912757 0
M  V30 2827 C 273.691 -3.4382 0.296913 0
M  V30 2828 C 272.804 -4.0881 1.39636 0
M  V30 2829 C 271.939 -5.24655 0.831314 0
M  V30 2830 C 270.978 -5.81575 1.90886 0
M  V30 2831 N 270.115 -6.88774 1.36142 0
M  V30 2832 H 274.955 -2.42338 1.73426 0
M  V30 2833 H 272.492 -1.18935 0.865613 0
M  V30 2834 H 274.45 -4.17193 -0.0244339 0
M  V30 2835 H 273.08 -3.17535 -0.580628 0
M  V30 2836 H 272.132 -3.33258 1.83422 0
M  V30 2837 H 273.444 -4.47141 2.21058 0
M  V30 2838 H 272.598 -6.04942 0.461515 0
M  V30 2839 H 271.337 -4.87698 -0.013932 0
M  V30 2840 H 270.342 -4.99946 2.28767 0
M  V30 2841 H 271.567 -6.20592 2.75758 0
M  V30 2842 H 269.513 -6.53788 0.538254 0
M  V30 2843 H 269.43 -7.25898 2.11208 0
M  V30 2844 H 270.698 -7.72806 1.01933 0
M  V30 2845 N 274.927 -0.932562 -1.27047 0
M  V30 2846 C 275.874 -0.434072 -2.26681 0
M  V30 2847 C 276.844 0.501639 -1.58344 0
M  V30 2848 O 278.029 0.419734 -1.86126 0
M  V30 2849 C 275.169 0.30261 -3.43771 0
M  V30 2850 C 274.282 -0.667774 -4.26808 0
M  V30 2851 C 273.417 0.0892393 -5.31125 0
M  V30 2852 C 272.456 -0.873532 -6.05835 0
M  V30 2853 N 271.593 -0.148832 -7.01942 0
M  V30 2854 H 276.433 -1.28868 -2.68695 0
M  V30 2855 H 273.97 -0.646713 -1.32121 0
M  V30 2856 H 275.928 0.746092 -4.10474 0
M  V30 2857 H 274.558 1.12142 -3.02695 0
M  V30 2858 H 273.61 -1.22978 -3.59973 0
M  V30 2859 H 274.922 -1.40337 -4.78651 0
M  V30 2860 H 274.076 0.592409 -6.03801 0
M  V30 2861 H 272.815 0.85777 -4.80097 0
M  V30 2862 H 271.82 -1.38791 -5.31994 0
M  V30 2863 H 273.045 -1.64193 -6.58952 0
M  V30 2864 H 270.991 0.601365 -6.53238 0
M  V30 2865 H 270.908 -0.82391 -7.51497 0
M  V30 2866 H 272.176 0.333527 -7.78786 0
M  V30 2867 N 276.405 1.4127 -0.698611 0
M  V30 2868 C 277.352 2.30773 -0.0352094 0
M  V30 2869 C 278.322 1.47273 0.768111 0
M  V30 2870 O 279.507 1.76053 0.735524 0
M  V30 2871 C 276.647 3.33346 0.893 0
M  V30 2872 C 275.76 4.31924 0.0809695 0
M  V30 2873 C 274.895 5.21566 1.0071 0
M  V30 2874 C 273.934 6.11811 0.188155 0
M  V30 2875 N 273.071 6.93926 1.06825 0
M  V30 2876 H 277.911 2.86943 -0.804207 0
M  V30 2877 H 275.448 1.4132 -0.408294 0
M  V30 2878 H 277.406 3.91368 1.44523 0
M  V30 2879 H 276.036 2.78719 1.62836 0
M  V30 2880 H 275.088 3.75825 -0.588224 0
M  V30 2881 H 276.4 4.95716 -0.553801 0
M  V30 2882 H 275.554 5.84437 1.62845 0
M  V30 2883 H 274.293 4.58008 1.67572 0
M  V30 2884 H 273.298 5.47986 -0.446254 0
M  V30 2885 H 274.523 6.77425 -0.476716 0
M  V30 2886 H 272.469 6.32973 1.72283 0
M  V30 2887 H 272.386 7.54416 0.489123 0
M  V30 2888 H 273.654 7.61262 1.67632 0
M  V30 2889 N 277.883 0.443576 1.51229 0
M  V30 2890 C 279.129 -0.120975 2.02439 0
M  V30 2891 C 279.462 -1.41815 1.32674 0
M  V30 2892 O 278.737 -1.89373 0.443622 0
M  V30 2893 C 279.02 -0.333291 3.58554 0
M  V30 2894 C 278.873 0.982968 4.38928 0
M  V30 2895 C 280.192 -1.10028 4.26124 0
M  V30 2896 H 277.311 -0.0424923 0.735774 0
M  V30 2897 H 279.953 0.583794 1.80809 0
M  V30 2898 H 278.103 -0.933614 3.77115 0
M  V30 2899 H 279.775 1.61775 4.32003 0
M  V30 2900 H 278.018 1.58611 4.03763 0
M  V30 2901 H 278.689 0.788379 5.46341 0
M  V30 2902 H 281.165 -0.591711 4.11871 0
M  V30 2903 H 280.041 -1.21761 5.35225 0
M  V30 2904 H 280.302 -2.12996 3.87408 0
M  V30 2905 N 279.361 -1.56624 0.175154 0
M  V30 2906 C 280.291 -2.21155 -0.749195 0
M  V30 2907 C 281.272 -1.16836 -1.23626 0
M  V30 2908 O 282.457 -1.45277 -1.28873 0
M  V30 2909 C 279.587 -2.8553 -1.97711 0
M  V30 2910 C 278.541 -3.95921 -1.62575 0
M  V30 2911 C 277.867 -4.47365 -2.92864 0
M  V30 2912 C 279.167 -5.15323 -0.850838 0
M  V30 2913 H 280.861 -2.98653 -0.211295 0
M  V30 2914 H 278.407 -1.43651 -0.100188 0
M  V30 2915 H 280.36 -3.2935 -2.62881 0
M  V30 2916 H 279.084 -2.05406 -2.53921 0
M  V30 2917 H 277.743 -3.52762 -0.997719 0
M  V30 2918 H 277.391 -3.64027 -3.47122 0
M  V30 2919 H 277.091 -5.21839 -2.70106 0
M  V30 2920 H 278.615 -4.93873 -3.59056 0
M  V30 2921 H 280.029 -5.55812 -1.40521 0
M  V30 2922 H 278.426 -5.95739 -0.722154 0
M  V30 2923 H 279.496 -4.84661 0.152082 0
M  V30 2924 N 280.839 0.0985539 -1.57292 0
M  V30 2925 C 281.769 1.12064 -2.04851 0
M  V30 2926 C 282.75 1.41981 -0.936767 0
M  V30 2927 O 283.935 1.52071 -1.20781 0
M  V30 2928 C 281.065 2.44144 -2.47004 0
M  V30 2929 C 280.019 2.28643 -3.6181 0
M  V30 2930 C 279.345 3.65869 -3.89929 0
M  V30 2931 C 280.645 1.72986 -4.92822 0
M  V30 2932 H 282.339 0.724979 -2.9049 0
M  V30 2933 H 279.885 0.34729 -1.39749 0
M  V30 2934 H 281.838 3.15914 -2.78884 0
M  V30 2935 H 280.562 2.85639 -1.5836 0
M  V30 2936 H 279.221 1.59318 -3.30172 0
M  V30 2937 H 278.869 4.04885 -2.98458 0
M  V30 2938 H 278.569 3.56344 -4.67218 0
M  V30 2939 H 280.093 4.39112 -4.2428 0
M  V30 2940 H 281.507 2.34593 -5.23105 0
M  V30 2941 H 279.904 1.74229 -5.74251 0
M  V30 2942 H 280.974 0.689007 -4.7998 0
M  V30 2943 N 282.317 1.53212 0.369288 0
M  V30 2944 C 283.728 1.60943 0.946276 0
M  V30 2945 C 284.079 0.47452 1.90375 0
M  V30 2946 O 283.204 -0.399597 2.12679 0
M  V30 2947 C 283.799 2.91715 1.72302 0
M  V30 2948 C 282.358 3.01792 2.24941 0
M  V30 2949 C 281.505 2.56211 1.06072 0
M  V30 2950 H 284.456 1.58007 0.148198 0
M  V30 2951 H 284.477 2.79309 2.58393 0
M  V30 2952 H 283.989 3.74295 1.0259 0
M  V30 2953 H 282.09 2.23791 2.97906 0
M  V30 2954 H 282.203 4.06803 2.53077 0
M  V30 2955 H 280.567 2.10998 1.4266 0
M  V30 2956 H 281.35 3.41206 0.378639 0
M  V30 2957 N 283.795 -0.628877 1.44509 0
M  V30 2958 C 285.044 -1.38437 1.4669 0
M  V30 2959 C 285.357 -1.95322 0.104272 0
M  V30 2960 O 286.563 -2.715 0.00362163 0
M  V30 2961 C 285.019 -2.50659 2.5826 0
M  V30 2962 C 284.627 -2.00277 4.0074 0
M  V30 2963 C 286.371 -3.27844 2.69664 0
M  V30 2964 C 284.278 -3.09854 5.0373 0
M  V30 2965 H 283.208 -0.520245 0.545766 0
M  V30 2966 H 285.859 -0.676313 1.70582 0
M  V30 2967 H 284.241 -3.2405 2.27612 0
M  V30 2968 H 285.415 -1.33736 4.40966 0
M  V30 2969 H 283.73 -1.35901 3.93599 0
M  V30 2970 H 286.327 -4.09534 3.43781 0
M  V30 2971 H 286.67 -3.77471 1.75559 0
M  V30 2972 H 287.203 -2.61543 2.99733 0
M  V30 2973 H 283.942 -2.65168 5.99472 0
M  V30 2974 H 283.462 -3.7503 4.68095 0
M  V30 2975 H 285.141 -3.74592 5.27532 0
M  V30 2976 N 285.273 -1.31445 -0.869486 0
M  V30 2977 C 286.521 -1.20918 -1.61936 0
M  V30 2978 C 286.842 0.232683 -1.93607 0
M  V30 2979 O 286.112 1.15352 -1.58338 0
M  V30 2980 H 284.692 -0.44454 -0.600328 0
M  V30 2981 H 287.354 -1.64776 -1.0409 0
M  V30 2982 H 286.45 -1.78124 -2.56278 0
M  V30 2983 N 286.751 1.08385 -1.14413 0
M  V30 2984 C 287.998 1.80776 -0.912482 0
M  V30 2985 C 288.326 1.86236 0.560934 0
M  V30 2986 O 287.581 1.33431 1.43159 0
M  V30 2987 C 287.88 3.26273 -1.45879 0
M  V30 2988 C 287.546 3.4093 -2.95089 0
M  V30 2989 C 286.208 3.44638 -3.35824 0
M  V30 2990 C 288.56 3.44591 -3.91033 0
M  V30 2991 C 285.888 3.49597 -4.71167 0
M  V30 2992 C 288.24 3.51086 -5.26233 0
M  V30 2993 C 286.904 3.53067 -5.6648 0
M  V30 2994 H 286.174 0.661507 -0.333901 0
M  V30 2995 H 288.821 1.27613 -1.42784 0
M  V30 2996 H 287.126 3.82146 -0.864376 0
M  V30 2997 H 288.823 3.80839 -1.2555 0
M  V30 2998 H 285.413 3.38736 -2.62594 0
M  V30 2999 H 289.597 3.40957 -3.60641 0
M  V30 3000 H 284.853 3.49424 -5.0171 0
M  V30 3001 H 289.027 3.52864 -6.00383 0
M  V30 3002 H 286.654 3.56662 -6.71339 0
M  V30 3003 N 288.23 0.939286 1.26551 0
M  V30 3004 C 289.455 0.602008 1.98471 0
M  V30 3005 C 289.88 -0.815624 1.69497 0
M  V30 3006 O 289.238 -1.54912 0.941905 0
M  V30 3007 C 289.286 0.848407 3.50477 0
M  V30 3008 O 288.39 -0.0804009 4.12322 0
M  V30 3009 H 287.731 0.23049 0.622712 0
M  V30 3010 H 290.261 1.2617 1.61066 0
M  V30 3011 H 290.271 0.768553 4.00696 0
M  V30 3012 H 288.946 1.88171 3.70897 0
M  V30 3013 H 287.523 0.0503508 3.72866 0
M  V30 3014 N 289.708 -1.40897 0.706093 0
M  V30 3015 C 291.124 -1.55042 0.37869 0
M  V30 3016 C 291.324 -1.67944 -1.11342 0
M  V30 3017 O 290.38 -1.66372 -1.89938 0
M  V30 3018 C 291.693 -2.78398 1.13643 0
M  V30 3019 C 293.241 -2.92206 1.12181 0
M  V30 3020 C 293.716 -4.18463 1.86152 0
M  V30 3021 N 295.207 -4.25443 1.83173 0
M  V30 3022 C 295.942 -5.2202 2.37239 0
M  V30 3023 N 295.438 -6.24563 2.99821 0
M  V30 3024 N 297.231 -5.14033 2.27435 0
M  V30 3025 H 289.382 -1.30769 1.67372 0
M  V30 3026 H 291.645 -0.631653 0.706907 0
M  V30 3027 H 291.351 -2.7511 2.19106 0
M  V30 3028 H 291.225 -3.70228 0.721853 0
M  V30 3029 H 293.612 -2.95004 0.0754171 0
M  V30 3030 H 293.693 -2.01521 1.57554 0
M  V30 3031 H 293.337 -4.16427 2.90776 0
M  V30 3032 H 293.267 -5.08141 1.38206 0
M  V30 3033 H 295.758 -3.51976 1.37556 0
M  V30 3034 H 296.071 -6.94665 3.38616 0
M  V30 3035 H 294.416 -6.25035 3.03902 0
M  V30 3036 H 297.607 -4.3285 1.78208 0
M  V30 3037 H 297.78 -5.89129 2.69873 0
M  V30 3038 N 291.186 -0.45159 -1.50991 0
M  V30 3039 C 292.433 0.110074 -2.02201 0
M  V30 3040 C 292.761 1.4146 -1.33489 0
M  V30 3041 O 292.016 1.90617 -0.443125 0
M  V30 3042 C 292.315 0.361728 -3.55565 0
M  V30 3043 C 291.981 -0.858717 -4.42648 0
M  V30 3044 C 290.643 -1.19338 -4.66167 0
M  V30 3045 C 292.995 -1.67221 -4.93646 0
M  V30 3046 C 290.323 -2.34195 -5.37931 0
M  V30 3047 C 292.675 -2.8119 -5.6667 0
M  V30 3048 C 291.339 -3.15094 -5.88449 0
M  V30 3049 H 290.609 0.040279 -0.739904 0
M  V30 3050 H 293.256 -0.601696 -1.81802 0
M  V30 3051 H 291.561 1.15554 -3.74372 0
M  V30 3052 H 293.258 0.80996 -3.92735 0
M  V30 3053 H 289.848 -0.58796 -4.24548 0
M  V30 3054 H 294.032 -1.42686 -4.75347 0
M  V30 3055 H 289.288 -2.6076 -5.53005 0
M  V30 3056 H 293.462 -3.44585 -6.05173 0
M  V30 3057 H 291.089 -4.04204 -6.43835 0
M  V30 3058 N 292.664 1.56529 -0.183458 0
M  V30 3059 C 293.941 1.88959 0.50536 0
M  V30 3060 C 294.321 1.09523 1.80466 0
M  V30 3061 O 293.669 0.19278 2.27685 0
M  V30 3062 C 293.879 3.41162 0.73547 0
M  V30 3063 C 295.227 4.11155 1.06005 0
M  V30 3064 O 296.251 3.46548 0.823594 0
M  V30 3065 O 295.11 5.25318 1.50675 0
M  V30 3066 H 292.204 0.78441 0.261973 0
M  V30 3067 H 294.75 1.68231 -0.222802 0
M  V30 3068 H 293.522 3.90874 -0.182561 0
M  V30 3069 H 293.145 3.67543 1.51651 0
M  V30 3070 N 294.142 -0.090211 1.57342 0
M  V30 3071 C 295.089 -1.10909 2.02405 0
M  V30 3072 C 296.059 -1.39523 0.901252 0
M  V30 3073 O 297.244 -1.50903 1.1676 0
M  V30 3074 C 294.384 -2.42277 2.45755 0
M  V30 3075 C 293.497 -2.20352 3.71576 0
M  V30 3076 C 292.632 -3.45154 4.03785 0
M  V30 3077 C 291.671 -3.18512 5.22701 0
M  V30 3078 N 290.808 -4.35593 5.50639 0
M  V30 3079 H 295.648 -0.71782 2.89225 0
M  V30 3080 H 293.185 -0.342901 1.43048 0
M  V30 3081 H 295.143 -3.18951 2.68935 0
M  V30 3082 H 293.773 -2.79242 1.61938 0
M  V30 3083 H 292.825 -1.34458 3.55844 0
M  V30 3084 H 294.137 -1.96661 4.58395 0
M  V30 3085 H 293.291 -4.30233 4.27767 0
M  V30 3086 H 292.03 -3.71904 3.15498 0
M  V30 3087 H 291.035 -2.31827 4.98534 0
M  V30 3088 H 292.26 -2.93103 6.12591 0
M  V30 3089 H 290.206 -4.6241 4.6531 0
M  V30 3090 H 290.123 -4.1511 6.31838 0
M  V30 3091 H 291.391 -5.21723 5.7916 0
M  V30 3092 N 295.62 -1.53406 -0.361157 0
M  V30 3093 C 296.567 -1.80156 -1.44265 0
M  V30 3094 C 297.537 -0.646183 -1.53015 0
M  V30 3095 O 298.722 -0.888818 -1.68833 0
M  V30 3096 C 295.862 -2.00116 -2.81154 0
M  V30 3097 C 294.975 -3.27833 -2.81335 0
M  V30 3098 C 294.11 -3.37957 -4.09828 0
M  V30 3099 C 293.149 -4.59689 -4.04168 0
M  V30 3100 N 292.286 -4.66942 -5.24318 0
M  V30 3101 H 297.126 -2.72438 -1.20754 0
M  V30 3102 H 294.663 -1.34954 -0.585296 0
M  V30 3103 H 296.621 -2.09677 -3.60682 0
M  V30 3104 H 295.251 -1.11167 -3.03054 0
M  V30 3105 H 294.303 -3.27204 -1.94014 0
M  V30 3106 H 295.615 -4.17442 -2.73027 0
M  V30 3107 H 294.769 -3.46853 -4.97773 0
M  V30 3108 H 293.508 -2.46372 -4.20894 0
M  V30 3109 H 292.513 -4.50889 -3.14609 0
M  V30 3110 H 293.738 -5.5262 -3.947 0
M  V30 3111 H 291.684 -3.7826 -5.35962 0
M  V30 3112 H 291.601 -5.50462 -5.18197 0
M  V30 3113 H 292.869 -4.80127 -6.14084 0
M  V30 3114 N 297.098 0.621204 -1.44841 0
M  V30 3115 C 298.061 1.71459 -1.521 0
M  V30 3116 C 299.061 1.55696 -0.401933 0
M  V30 3117 O 300.251 1.61011 -0.664925 0
M  V30 3118 C 297.383 3.10624 -1.40447 0
M  V30 3119 H 298.576 1.66394 -2.49506 0
M  V30 3120 H 296.129 0.835745 -1.3208 0
M  V30 3121 H 296.864 3.21277 -0.441737 0
M  V30 3122 H 296.649 3.23473 -2.21602 0
M  V30 3123 H 298.139 3.90293 -1.4853 0
M  V30 3124 N 298.576 1.31904 0.862503 0
M  V30 3125 C 299.992 1.10724 1.14945 0
M  V30 3126 C 300.192 -0.117421 2.01158 0
M  V30 3127 O 299.248 -0.804595 2.39338 0
M  V30 3128 C 300.561 2.38267 1.83437 0
M  V30 3129 C 302.109 2.43949 1.96106 0
M  V30 3130 C 302.584 3.71394 2.68013 0
M  V30 3131 N 304.075 3.72331 2.75543 0
M  V30 3132 C 304.81 4.67641 3.31812 0
M  V30 3133 N 304.306 5.73313 3.88953 0
M  V30 3134 N 306.099 4.5515 3.29841 0
M  V30 3135 H 298.25 2.10436 0.288191 0
M  V30 3136 H 300.513 0.928705 0.190292 0
M  V30 3137 H 300.219 3.27759 1.27542 0
M  V30 3138 H 300.093 2.48633 2.83657 0
M  V30 3139 H 302.48 1.54922 2.51164 0
M  V30 3140 H 302.561 2.37543 0.949059 0
M  V30 3141 H 302.205 4.60791 2.13621 0
M  V30 3142 H 302.135 3.75069 3.69636 0
M  V30 3143 H 304.626 2.95947 2.34997 0
M  V30 3144 H 304.939 6.42107 4.30022 0
M  V30 3145 H 303.284 5.77077 3.87308 0
M  V30 3146 H 306.475 3.71766 2.84443 0
M  V30 3147 H 306.648 5.29604 3.73394 0
M  V30 3148 N 300.054 -1.07777 1.14986 0
M  V30 3149 C 301.001 -2.14867 0.842672 0
M  V30 3150 C 301.971 -1.6486 -0.202552 0
M  V30 3151 O 303.156 -1.90668 -0.0710568 0
M  V30 3152 C 300.296 -3.43486 0.333363 0
M  V30 3153 C 299.409 -4.07306 1.43965 0
M  V30 3154 C 298.544 -5.23744 0.886914 0
M  V30 3155 C 297.583 -5.79517 1.97043 0
M  V30 3156 N 296.72 -6.87291 1.4344 0
M  V30 3157 H 301.56 -2.40485 1.75986 0
M  V30 3158 H 299.097 -1.1801 0.878179 0
M  V30 3159 H 301.055 -4.17195 0.0198163 0
M  V30 3160 H 299.685 -3.18133 -0.546916 0
M  V30 3161 H 298.737 -3.31293 1.86946 0
M  V30 3162 H 300.049 -4.44771 2.25788 0
M  V30 3163 H 299.203 -6.04419 0.525651 0
M  V30 3164 H 297.942 -4.87685 0.0377957 0
M  V30 3165 H 296.947 -4.97491 2.34057 0
M  V30 3166 H 298.172 -6.17632 2.82325 0
M  V30 3167 H 296.118 -6.5318 0.607567 0
M  V30 3168 H 296.035 -7.23617 2.18895 0
M  V30 3169 H 297.303 -7.71682 1.10124 0
M  V30 3170 N 301.532 -0.945985 -1.26051 0
M  V30 3171 C 302.778 -0.597002 -1.93814 0
M  V30 3172 C 303.111 0.862484 -1.73997 0
M  V30 3173 O 302.386 1.61769 -1.07986 0
M  V30 3174 C 302.669 -0.945937 -3.47454 0
M  V30 3175 C 302.522 -2.46052 -3.76535 0
M  V30 3176 C 303.841 -0.464785 -4.37639 0
M  V30 3177 H 300.96 -0.218366 -0.703907 0
M  V30 3178 H 303.602 -1.18107 -1.48831 0
M  V30 3179 H 301.752 -0.448902 -3.85898 0
M  V30 3180 H 303.424 -3.03065 -3.47778 0
M  V30 3181 H 301.667 -2.90194 -3.22444 0
M  V30 3182 H 302.338 -2.65517 -4.83947 0
M  V30 3183 H 304.814 -0.891016 -4.06448 0
M  V30 3184 H 303.69 -0.737712 -5.4392 0
M  V30 3185 H 303.951 0.635274 -4.37512 0
M  V30 3186 N 303.011 1.40521 -0.713556 0
M  V30 3187 C 303.958 2.30723 -0.059684 0
M  V30 3188 C 304.928 1.48079 0.752448 0
M  V30 3189 O 306.113 1.76823 0.71681 0
M  V30 3190 C 303.253 3.34274 0.857594 0
M  V30 3191 C 302.366 4.31986 0.0351536 0
M  V30 3192 C 301.501 5.22605 0.951724 0
M  V30 3193 C 300.54 6.11976 0.123253 0
M  V30 3194 N 299.677 6.9502 0.99459 0
M  V30 3195 H 304.517 2.86074 -0.834596 0
M  V30 3196 H 302.054 1.40879 -0.42326 0
M  V30 3197 H 304.012 3.92879 1.40364 0
M  V30 3198 H 302.642 2.8043 1.59871 0
M  V30 3199 H 301.694 3.7518 -0.628052 0
M  V30 3200 H 303.006 4.95101 -0.606347 0
M  V30 3201 H 302.16 5.86131 1.56638 0
M  V30 3202 H 300.899 4.59759 1.62705 0
M  V30 3203 H 299.904 5.47482 -0.50435 0
M  V30 3204 H 301.129 6.76881 -0.548539 0
M  V30 3205 H 299.075 6.34764 1.6556 0
M  V30 3206 H 298.992 7.54892 0.40908 0
M  V30 3207 H 300.26 7.62997 1.59549 0
M  V30 3208 N 304.489 0.459591 1.5075 0
M  V30 3209 C 305.735 -0.0994966 2.02556 0
M  V30 3210 C 306.068 -1.40399 1.3417 0
M  V30 3211 O 305.343 -1.88892 0.463683 0
M  V30 3212 C 305.626 -0.295242 3.58888 0
M  V30 3213 C 305.479 1.02947 4.37861 0
M  V30 3214 C 306.798 -1.05502 4.27267 0
M  V30 3215 H 303.917 -0.034686 0.736183 0
M  V30 3216 H 306.559 0.602938 1.8018 0
M  V30 3217 H 304.709 -0.893563 3.78084 0
M  V30 3218 H 306.381 1.66348 4.30263 0
M  V30 3219 H 304.624 1.62885 4.02058 0
M  V30 3220 H 305.295 0.846281 5.45474 0
M  V30 3221 H 307.771 -0.547993 4.12476 0
M  V30 3222 H 306.647 -1.16077 5.36486 0
M  V30 3223 H 306.908 -2.08875 3.89645 0
M  V30 3224 N 305.967 -1.56429 0.191757 0
M  V30 3225 C 307.244 -1.89224 -0.495332 0
M  V30 3226 C 307.624 -1.10478 -1.79883 0
M  V30 3227 O 306.972 -0.204852 -2.2758 0
M  V30 3228 C 307.182 -3.41548 -0.717367 0
M  V30 3229 C 308.53 -4.11711 -1.03823 0
M  V30 3230 O 309.554 -3.4698 -0.805204 0
M  V30 3231 O 308.413 -5.2611 -1.47887 0
M  V30 3232 H 305.507 -0.785788 -0.25781 0
M  V30 3233 H 308.053 -1.68111 0.231721 0
M  V30 3234 H 306.825 -3.90772 0.203287 0
M  V30 3235 H 306.448 -3.68342 -1.497 0
M  V30 3236 N 307.445 0.0818655 -1.57387 0
M  V30 3237 C 308.408 1.08265 -2.02018 0
M  V30 3238 C 309.408 1.32183 -0.915664 0
M  V30 3239 O 310.598 1.28073 -1.18081 0
M  V30 3240 C 307.73 2.42871 -2.39221 0
M  V30 3241 H 308.923 0.698204 -2.91659 0
M  V30 3242 H 306.476 0.327303 -1.52835 0
M  V30 3243 H 307.211 2.86167 -1.52575 0
M  V30 3244 H 306.996 2.26855 -3.19811 0
M  V30 3245 H 308.486 3.14826 -2.74362 0
M  V30 3246 N 308.923 1.53595 0.353017 0
M  V30 3247 C 310.172 1.69603 1.09168 0
M  V30 3248 C 310.485 0.460925 1.90092 0
M  V30 3249 O 311.691 0.501774 2.66823 0
M  V30 3250 C 310.147 2.99872 1.9901 0
M  V30 3251 C 309.755 4.30687 1.23339 0
M  V30 3252 C 311.499 3.25246 2.72792 0
M  V30 3253 C 309.406 5.52036 2.12156 0
M  V30 3254 H 308.336 0.631966 0.411261 0
M  V30 3255 H 310.987 1.80096 0.351802 0
M  V30 3256 H 309.369 2.83212 2.7678 0
M  V30 3257 H 310.543 4.58019 0.505456 0
M  V30 3258 H 308.858 4.11853 0.613663 0
M  V30 3259 H 311.455 4.13095 3.39495 0
M  V30 3260 H 311.798 2.41846 3.38846 0
M  V30 3261 H 312.331 3.42638 2.021 0
M  V30 3262 H 309.07 6.37951 1.50659 0
M  V30 3263 H 308.59 5.28966 2.82764 0
M  V30 3264 H 310.269 5.87313 2.71427 0
M  V30 3265 N 310.401 -0.613514 1.45168 0
M  V30 3266 C 311.348 -1.72456 1.53387 0
M  V30 3267 C 312.318 -1.6169 0.380191 0
M  V30 3268 O 313.503 -1.81356 0.592836 0
M  V30 3269 C 310.643 -3.10753 1.50088 0
M  V30 3270 C 309.756 -3.32368 2.75963 0
M  V30 3271 C 308.891 -4.60737 2.64376 0
M  V30 3272 C 307.93 -4.7559 3.85332 0
M  V30 3273 N 307.067 -5.95253 3.72315 0
M  V30 3274 H 311.907 -1.64768 2.48305 0
M  V30 3275 H 309.444 -0.803503 1.23216 0
M  V30 3276 H 311.402 -3.90758 1.46164 0
M  V30 3277 H 310.032 -3.17413 0.587243 0
M  V30 3278 H 309.084 -2.4618 2.89999 0
M  V30 3279 H 310.396 -3.39218 3.65695 0
M  V30 3280 H 309.55 -5.48928 2.58385 0
M  V30 3281 H 308.289 -4.56275 1.72233 0
M  V30 3282 H 307.294 -3.85824 3.91688 0
M  V30 3283 H 308.519 -4.81854 4.78533 0
M  V30 3284 H 306.465 -5.91847 2.82937 0
M  V30 3285 H 306.382 -6.03236 4.55677 0
M  V30 3286 H 307.65 -6.85958 3.70246 0
M  V30 3287 N 311.879 -1.3236 -0.855495 0
M  V30 3288 C 312.842 -1.21164 -1.94556 0
M  V30 3289 C 313.842 -0.134908 -1.60233 0
M  V30 3290 O 315.032 -0.385249 -1.69887 0
M  V30 3291 C 312.164 -0.863192 -3.29791 0
M  V30 3292 H 313.357 -2.18038 -2.05911 0
M  V30 3293 H 310.91 -1.16179 -1.04557 0
M  V30 3294 H 311.645 0.103769 -3.24134 0
M  V30 3295 H 311.43 -1.64166 -3.56078 0
M  V30 3296 H 312.92 -0.809156 -4.09686 0
M  V30 3297 N 313.357 1.07166 -1.15556 0
M  V30 3298 C 314.32 2.12589 -0.856644 0
M  V30 3299 C 315.32 1.6015 0.14444 0
M  V30 3300 O 316.51 1.7399 -0.0854163 0
M  V30 3301 C 313.642 3.39753 -0.279405 0
M  V30 3302 H 314.835 2.40539 -1.79112 0
M  V30 3303 H 312.388 1.23086 -0.963298 0
M  V30 3304 H 313.123 3.17447 0.663174 0
M  V30 3305 H 312.908 3.79117 -1.00063 0
M  V30 3306 H 314.398 4.17507 -0.0879113 0
M  V30 3307 N 314.835 0.952656 1.25548 0
M  V30 3308 C 315.785 0.442033 2.23674 0
M  V30 3309 C 316.769 -0.467632 1.53955 0
M  V30 3310 O 317.961 -0.301006 1.74422 0
M  V30 3311 C 315.09 -0.280816 3.4215 0
M  V30 3312 C 314.176 0.646803 4.19139 0
M  V30 3313 N 314.567 1.77759 4.73535 0
M  V30 3314 C 312.865 0.454617 4.43677 0
M  V30 3315 C 313.566 2.35658 5.31827 0
M  V30 3316 N 312.542 1.64333 5.18166 0
M  V30 3317 H 316.344 1.30505 2.63336 0
M  V30 3318 H 313.858 0.809904 1.40763 0
M  V30 3319 H 315.855 -0.663747 4.11582 0
M  V30 3320 H 314.515 -1.14046 3.04012 0
M  V30 3321 H 315.526 2.15949 4.7073 0
M  V30 3322 H 312.203 -0.362312 4.15925 0
M  V30 3323 H 313.593 3.30998 5.84713 0
M  V30 3324 N 316.313 -1.40141 0.720998 0
M  V30 3325 C 317.56 -2.00787 0.262842 0
M  V30 3326 C 317.888 -1.5718 -1.14563 0
M  V30 3327 O 317.143 -0.785391 -1.79249 0
M  V30 3328 C 317.442 -3.56165 0.296892 0
M  V30 3329 C 317.108 -4.19373 1.65641 0
M  V30 3330 C 315.77 -4.36352 2.02855 0
M  V30 3331 C 318.122 -4.54578 2.54968 0
M  V30 3332 C 315.45 -4.8582 3.28931 0
M  V30 3333 C 317.802 -5.05447 3.80402 0
M  V30 3334 C 316.466 -5.20635 4.17726 0
M  V30 3335 H 315.736 -0.734731 0.0961807 0
M  V30 3336 H 318.383 -1.67673 0.925093 0
M  V30 3337 H 316.688 -3.8922 -0.448932 0
M  V30 3338 H 318.385 -4.00929 -0.0755208 0
M  V30 3339 H 314.975 -4.06549 1.35704 0
M  V30 3340 H 319.159 -4.41091 2.27491 0
M  V30 3341 H 314.415 -4.95764 3.57811 0
M  V30 3342 H 318.589 -5.31663 4.49786 0
M  V30 3343 H 316.216 -5.58728 5.15487 0
M  V30 3344 N 317.792 -0.46758 -1.50504 0
M  V30 3345 C 318.755 0.317059 -2.26996 0
M  V30 3346 C 319.755 0.923513 -1.31635 0
M  V30 3347 O 320.945 0.793239 -1.55091 0
M  V30 3348 C 318.077 1.45134 -3.08462 0
M  V30 3349 H 319.27 -0.353723 -2.97807 0
M  V30 3350 H 316.823 -0.221545 -1.54722 0
M  V30 3351 H 317.558 2.15728 -2.4214 0
M  V30 3352 H 317.343 1.02232 -3.78538 0
M  V30 3353 H 318.833 2.00493 -3.66323 0
M  V30 3354 N 319.27 1.56325 -0.20005 0
M  V30 3355 C 320.218 2.20666 0.735482 0
M  V30 3356 C 321.212 1.17934 1.21605 0
M  V30 3357 O 322.418 1.36068 1.17837 0
M  V30 3358 H 318.793 0.70725 0.255542 0
M  V30 3359 H 320.764 2.9792 0.169166 0
M  V30 3360 C 319.513 2.88391 1.94232 0
M  V30 3361 H 318.836 3.67185 1.58161 0
M  V30 3362 H 320.276 3.3684 2.57517 0
M  V30 3363 C 318.735 1.89692 2.78421 0
M  V30 3364 O 319.265 1.40032 3.76502 0
M  V30 3365 N 317.471 1.57813 2.44015 0
M  V30 3366 H 317.018 1.9839 1.64314 0
M  V30 3367 H 316.976 0.920325 3.00628 0
M  V30 3368 N 320.748 -0.0735177 1.57428 0
M  V30 3369 C 321.994 -0.774145 1.87443 0
M  V30 3370 C 322.327 -1.77311 0.792103 0
M  V30 3371 O 321.602 -1.93492 -0.197793 0
M  V30 3372 C 321.885 -1.48367 3.28115 0
M  V30 3373 C 321.738 -0.501227 4.46999 0
M  V30 3374 C 323.057 -2.429 3.66998 0
M  V30 3375 H 320.176 -0.279971 0.681752 0
M  V30 3376 H 322.818 -0.0373616 1.89963 0
M  V30 3377 H 320.968 -2.11171 3.26097 0
M  V30 3378 H 322.64 0.121468 4.6114 0
M  V30 3379 H 320.883 0.183593 4.33411 0
M  V30 3380 H 321.554 -1.03526 5.42205 0
M  V30 3381 H 324.03 -1.90175 3.70098 0
M  V30 3382 H 322.906 -2.89549 4.66318 0
M  V30 3383 H 323.167 -3.27628 2.96837 0
M  V30 3384 N 322.226 -1.5378 -0.344866 0
M  V30 3385 C 323.637 -1.62428 -0.920552 0
M  V30 3386 C 323.988 -0.504747 -1.89596 0
M  V30 3387 O 323.113 0.365711 -2.13287 0
M  V30 3388 C 323.708 -2.94419 -1.67639 0
M  V30 3389 C 322.267 -3.05333 -2.20111 0
M  V30 3390 C 321.414 -2.57866 -1.01982 0
M  V30 3391 H 324.365 -1.58222 -0.123042 0
M  V30 3392 H 324.386 -2.83384 -2.53917 0
M  V30 3393 H 323.898 -3.7588 -0.966224 0
M  V30 3394 H 321.999 -2.28502 -2.94308 0
M  V30 3395 H 322.112 -4.10778 -2.46573 0
M  V30 3396 H 320.476 -2.13241 -1.39285 0
M  V30 3397 H 321.259 -3.41765 -0.324308 0
M  V30 3398 N 323.704 0.605807 -1.45491 0
M  V30 3399 C 324.932 1.39136 -1.5313 0
M  V30 3400 C 325.347 1.88082 -0.164507 0
M  V30 3401 O 324.704 1.62316 0.834247 0
M  V30 3402 C 324.755 2.59463 -2.51716 0
M  V30 3403 O 324.476 2.12551 -3.83084 0
M  V30 3404 C 325.977 3.52301 -2.6907 0
M  V30 3405 H 323.197 0.425849 -0.51855 0
M  V30 3406 H 325.741 0.73865 -1.90694 0
M  V30 3407 H 323.896 3.20772 -2.17219 0
M  V30 3408 H 324.31 2.90744 -4.36541 0
M  V30 3409 H 325.784 4.33271 -3.42024 0
M  V30 3410 H 326.261 4.02757 -1.75167 0
M  V30 3411 H 326.867 2.96845 -3.04571 0
M  V30 3412 N 325.182 1.32811 0.848464 0
M  V30 3413 C 326.112 1.24882 1.97299 0
M  V30 3414 C 327.093 0.131357 1.69592 0
M  V30 3415 O 328.278 0.319553 1.91553 0
M  V30 3416 C 325.408 0.97746 3.33261 0
M  V30 3417 C 324.362 2.05682 3.75338 0
M  V30 3418 C 323.688 1.63777 5.09 0
M  V30 3419 C 324.988 3.47254 3.90144 0
M  V30 3420 H 326.682 2.18966 2.04191 0
M  V30 3421 H 324.228 1.05413 0.981029 0
M  V30 3422 H 326.181 0.908513 4.1149 0
M  V30 3423 H 324.905 0.000980011 3.266 0
M  V30 3424 H 323.564 2.11603 2.99366 0
M  V30 3425 H 323.212 0.648569 4.98801 0
M  V30 3426 H 322.912 2.36 5.38124 0
M  V30 3427 H 324.436 1.5833 5.89715 0
M  V30 3428 H 325.85 3.43888 4.58709 0
M  V30 3429 H 324.247 4.1788 4.30693 0
M  V30 3430 H 325.317 3.86462 2.92874 0
M  V30 3431 N 326.66 -1.06551 1.16123 0
M  V30 3432 C 327.885 -1.83544 0.965735 0
M  V30 3433 C 328.31 -1.81843 -0.481102 0
M  V30 3434 O 327.668 -1.21732 -1.34354 0
M  V30 3435 C 327.716 -3.28169 1.49457 0
M  V30 3436 O 326.82 -4.0643 0.699157 0
M  V30 3437 H 326.161 -0.568026 0.343864 0
M  V30 3438 H 328.691 -1.34362 1.54299 0
M  V30 3439 H 328.701 -3.78992 1.51092 0
M  V30 3440 H 327.376 -3.28722 2.54784 0
M  V30 3441 H 325.953 -3.65216 0.7531 0
M  V30 3442 N 328.138 -0.959301 -1.25041 0
M  V30 3443 C 329.086 -0.474437 -2.2771 0
M  V30 3444 C 330.08 0.457697 -1.631 0
M  V30 3445 O 331.286 0.333912 -1.76876 0
M  V30 3446 H 327.661 -0.134936 -0.739795 0
M  V30 3447 H 329.632 -1.35251 -2.65988 0
M  V30 3448 C 328.381 0.227884 -3.46952 0
M  V30 3449 H 327.704 -0.480248 -3.96905 0
M  V30 3450 H 329.144 0.531091 -4.20661 0
M  V30 3451 C 327.603 1.452 -3.04004 0
M  V30 3452 O 328.133 2.54949 -3.10426 0
M  V30 3453 N 326.339 1.31502 -2.59144 0
M  V30 3454 H 325.886 0.422065 -2.54119 0
M  V30 3455 H 325.844 2.13521 -2.30773 0
M  V30 3456 N 329.616 1.39756 -0.72842 0
M  V30 3457 C 331.027 1.83498 -0.344289 0
M  V30 3458 C 331.378 1.60868 1.12321 0
M  V30 3459 O 330.503 1.09634 1.86573 0
M  V30 3460 C 331.098 3.33114 -0.618112 0
M  V30 3461 C 329.657 3.753 -0.287549 0
M  V30 3462 C 328.804 2.62831 -0.884048 0
M  V30 3463 H 331.755 1.28842 -0.926578 0
M  V30 3464 H 331.776 3.80334 0.112349 0
M  V30 3465 H 331.288 3.49553 -1.68625 0
M  V30 3466 H 329.389 3.64451 0.775012 0
M  V30 3467 H 329.502 4.72945 -0.765512 0
M  V30 3468 H 327.866 2.52792 -0.311149 0
M  V30 3469 H 328.649 2.82078 -1.95671 0
M  V30 3470 N 331.094 0.475555 1.50254 0
M  V30 3471 C 332.371 -0.139685 1.95101 0
M  V30 3472 C 332.751 -1.56555 1.41611 0
M  V30 3473 O 332.099 -2.19956 0.618993 0
M  V30 3474 C 332.309 -0.0784298 3.48912 0
M  V30 3475 C 333.657 -0.265095 4.23772 0
M  V30 3476 O 334.681 -0.154808 3.55863 0
M  V30 3477 O 333.54 -0.488327 5.44314 0
M  V30 3478 H 330.634 -0.109236 0.819754 0
M  V30 3479 H 333.18 0.536276 1.61004 0
M  V30 3480 H 331.952 0.916918 3.80405 0
M  V30 3481 H 331.575 -0.795655 3.89558 0
M  V30 3482 N 332.573 -1.56217 0.208337 0
M  V30 3483 C 333.505 -2.1695 -0.739276 0
M  V30 3484 C 334.518 -1.13492 -1.1672 0
M  V30 3485 O 335.707 -1.40529 -1.10063 0
M  V30 3486 C 332.807 -2.72755 -2.01142 0
M  V30 3487 C 331.98 -4.0125 -1.74118 0
M  V30 3488 C 331.039 -4.41749 -2.85909 0
M  V30 3489 O 330.065 -5.08912 -2.54946 0
M  V30 3490 N 331.267 -4.06342 -4.14568 0
M  V30 3491 H 334.032 -2.98893 -0.219837 0
M  V30 3492 H 331.593 -1.61878 0.0268445 0
M  V30 3493 H 333.585 -2.96826 -2.75094 0
M  V30 3494 H 332.155 -1.95191 -2.4417 0
M  V30 3495 H 331.375 -3.85173 -0.838775 0
M  V30 3496 H 332.663 -4.851 -1.53477 0
M  V30 3497 H 332.061 -3.52345 -4.42571 0
M  V30 3498 H 330.618 -4.35335 -4.85105 0
M  V30 3499 N 334.051 0.0651679 -1.57465 0
M  V30 3500 C 335.297 0.764193 -1.87851 0
M  V30 3501 C 335.63 1.76889 -0.801495 0
M  V30 3502 O 334.905 1.93594 0.187528 0
M  V30 3503 C 335.188 1.46625 -3.28897 0
M  V30 3504 C 335.041 0.477515 -4.47258 0
M  V30 3505 C 336.36 2.4095 -3.68281 0
M  V30 3506 H 333.479 0.276351 -0.683227 0
M  V30 3507 H 336.121 0.0272868 -1.8998 0
M  V30 3508 H 334.271 2.09438 -3.27212 0
M  V30 3509 H 335.943 -0.145922 -4.61069 0
M  V30 3510 H 334.186 -0.206576 -4.33308 0
M  V30 3511 H 334.857 1.0065 -5.42746 0
M  V30 3512 H 337.333 1.88209 -3.71102 0
M  V30 3513 H 336.209 2.87072 -4.67847 0
M  V30 3514 H 336.47 3.26049 -2.98571 0
M  V30 3515 N 335.529 1.53961 0.336706 0
M  V30 3516 C 336.757 1.75483 1.09605 0
M  V30 3517 C 337.172 0.4972 1.82136 0
M  V30 3518 O 336.529 -0.53149 1.74589 0
M  V30 3519 C 336.58 2.93943 2.10428 0
M  V30 3520 O 336.301 4.14842 1.40846 0
M  V30 3521 C 337.802 3.27571 2.98684 0
M  V30 3522 H 335.022 0.586166 0.326574 0
M  V30 3523 H 337.566 2.00808 0.38683 0
M  V30 3524 H 335.721 2.70929 2.76905 0
M  V30 3525 H 336.135 4.81383 2.08255 0
M  V30 3526 H 337.609 4.13791 3.6535 0
M  V30 3527 H 338.086 2.44168 3.65074 0
M  V30 3528 H 338.692 3.52615 2.37787 0
M  V30 3529 N 337.007 -0.598083 1.45811 0
M  V30 3530 C 337.937 -1.71873 1.58057 0
M  V30 3531 C 338.918 -1.64533 0.431615 0
M  V30 3532 O 340.103 -1.82787 0.65595 0
M  V30 3533 C 337.233 -3.10495 1.55597 0
M  V30 3534 C 336.187 -3.32654 2.69305 0
M  V30 3535 C 335.513 -4.71646 2.51902 0
M  V30 3536 C 336.813 -3.21981 4.11248 0
M  V30 3537 H 338.507 -1.61881 2.51863 0
M  V30 3538 H 336.053 -0.777372 1.21214 0
M  V30 3539 H 338.006 -3.88699 1.6276 0
M  V30 3540 H 336.73 -3.2135 0.583255 0
M  V30 3541 H 335.389 -2.56843 2.61586 0
M  V30 3542 H 335.037 -4.79246 1.52748 0
M  V30 3543 H 334.737 -4.87426 3.2816 0
M  V30 3544 H 336.261 -5.52038 2.60933 0
M  V30 3545 H 337.675 -3.90049 4.20161 0
M  V30 3546 H 336.072 -3.49289 4.87972 0
M  V30 3547 H 337.142 -2.1928 4.32486 0
M  V30 3548 N 338.485 -1.33259 -0.841409 0
M  V30 3549 C 339.715 -1.2742 -1.62628 0
M  V30 3550 C 340.123 0.157604 -1.88542 0
M  V30 3551 O 339.466 1.10938 -1.46419 0
M  V30 3552 C 339.528 -1.97797 -3.00194 0
M  V30 3553 C 339.192 -3.47109 -2.97261 0
M  V30 3554 C 340.189 -4.42358 -2.73159 0
M  V30 3555 C 337.874 -3.89247 -3.17478 0
M  V30 3556 C 339.868 -5.77718 -2.69296 0
M  V30 3557 C 337.555 -5.24713 -3.13241 0
M  V30 3558 C 338.553 -6.1876 -2.89181 0
M  V30 3559 O 338.241 -7.51745 -2.84843 0
M  V30 3560 H 337.973 -0.440436 -0.512827 0
M  V30 3561 H 340.527 -1.76153 -1.05638 0
M  V30 3562 H 338.757 -1.43652 -3.59028 0
M  V30 3563 H 340.446 -1.8549 -3.61038 0
M  V30 3564 H 341.212 -4.11127 -2.57294 0
M  V30 3565 H 337.091 -3.16456 -3.35226 0
M  V30 3566 H 340.635 -6.51097 -2.50436 0
M  V30 3567 H 336.532 -5.55569 -3.28654 0
M  V30 3568 H 337.3 -7.61262 -3.00702 0
M  V30 3569 N 339.963 1.05934 -1.16686 0
M  V30 3570 C 340.873 2.17014 -0.891183 0
M  V30 3571 C 341.889 1.73453 0.137907 0
M  V30 3572 O 343.065 2.01361 -0.039592 0
M  V30 3573 C 340.13 3.44384 -0.400099 0
M  V30 3574 C 339.191 4.02433 -1.49486 0
M  V30 3575 C 338.424 5.23723 -1.02711 0
M  V30 3576 O 338.647 5.7027 0.121716 0
M  V30 3577 O 337.581 5.7382 -1.81699 0
M  V30 3578 H 341.407 2.43113 -1.82015 0
M  V30 3579 H 338.992 1.15541 -0.947132 0
M  V30 3580 H 340.874 4.21189 -0.133392 0
M  V30 3581 H 339.549 3.19802 0.500817 0
M  V30 3582 H 338.456 3.27102 -1.81535 0
M  V30 3583 H 339.789 4.31317 -2.37121 0
M  V30 3584 N 341.441 0.965919 1.2453 0
M  V30 3585 C 342.351 0.502154 2.29163 0
M  V30 3586 C 343.367 -0.436017 1.68448 0
M  V30 3587 O 344.543 -0.309497 1.99008 0
M  V30 3588 C 341.608 -0.201956 3.46111 0
M  V30 3589 C 340.669 0.775821 4.22232 0
M  V30 3590 C 339.902 0.105217 5.33596 0
M  V30 3591 O 340.125 -1.10683 5.59558 0
M  V30 3592 O 339.059 0.796475 5.96607 0
M  V30 3593 H 342.885 1.37194 2.70946 0
M  V30 3594 H 340.47 0.732875 1.30189 0
M  V30 3595 H 342.352 -0.597564 4.17142 0
M  V30 3596 H 341.027 -1.04673 3.06309 0
M  V30 3597 H 339.934 1.22185 3.53584 0
M  V30 3598 H 341.267 1.58896 4.65846 0
M  V30 3599 N 342.919 -1.39368 0.735821 0
M  V30 3600 C 344.196 -1.94465 0.210395 0
M  V30 3601 C 344.576 -1.67254 -1.28799 0
M  V30 3602 O 343.924 -1.00123 -2.05396 0
M  V30 3603 C 344.134 -3.4472 0.544897 0
M  V30 3604 C 345.482 -4.21708 0.494689 0
M  V30 3605 O 346.506 -3.52922 0.482136 0
M  V30 3606 O 345.365 -5.44299 0.489947 0
M  V30 3607 H 342.459 -0.826096 0.0386666 0
M  V30 3608 H 345.005 -1.48863 0.814735 0
M  V30 3609 H 343.777 -3.57963 1.58045 0
M  V30 3610 H 343.4 -3.97502 -0.08837 0
M  V30 3611 N 344.397 -0.483516 -1.5 0
M  V30 3612 C 345.344 0.304164 -2.28787 0
M  V30 3613 C 346.314 0.976114 -1.34392 0
M  V30 3614 O 347.499 0.986156 -1.63339 0
M  V30 3615 C 344.639 1.37298 -3.16612 0
M  V30 3616 C 343.752 0.714561 -4.26049 0
M  V30 3617 C 342.887 1.76232 -5.01114 0
M  V30 3618 C 341.926 1.08483 -6.0241 0
M  V30 3619 N 341.063 2.076 -6.70706 0
M  V30 3620 H 345.903 -0.373981 -2.95644 0
M  V30 3621 H 343.44 -0.196275 -1.45785 0
M  V30 3622 H 345.398 2.00445 -3.65893 0
M  V30 3623 H 344.028 2.02012 -2.51776 0
M  V30 3624 H 343.08 -0.0297798 -3.80388 0
M  V30 3625 H 344.392 0.180383 -4.98474 0
M  V30 3626 H 343.546 2.46929 -5.54176 0
M  V30 3627 H 342.285 2.33033 -4.28424 0
M  V30 3628 H 341.29 0.363545 -5.48597 0
M  V30 3629 H 342.515 0.523551 -6.77079 0
M  V30 3630 H 340.461 2.63394 -6.00799 0
M  V30 3631 H 340.378 1.59201 -7.39047 0
M  V30 3632 H 341.646 2.77639 -7.2838 0
M  V30 3633 N 345.875 1.56104 -0.216619 0
M  V30 3634 C 347.121 1.98466 0.417033 0
M  V30 3635 C 347.454 1.10403 1.59765 0
M  V30 3636 O 346.729 0.160632 1.93836 0
M  V30 3637 C 347.012 3.49769 0.85637 0
M  V30 3638 C 346.865 4.48606 -0.327546 0
M  V30 3639 C 348.184 4.05339 1.7143 0
M  V30 3640 H 345.303 0.721551 0.150112 0
M  V30 3641 H 347.945 1.87423 -0.311864 0
M  V30 3642 H 346.095 3.5931 1.47745 0
M  V30 3643 H 347.767 4.5108 -0.965618 0
M  V30 3644 H 346.01 4.22682 -0.975805 0
M  V30 3645 H 346.681 5.51995 0.0227149 0
M  V30 3646 H 349.157 3.98712 1.19031 0
M  V30 3647 H 348.033 5.11533 1.99061 0
M  V30 3648 H 348.294 3.51918 2.67593 0
M  V30 3649 N 347.353 -0.0568162 1.57498 0
M  V30 3650 C 348.593 -0.758273 1.89815 0
M  V30 3651 C 348.957 -1.73978 0.812132 0
M  V30 3652 O 350.158 -2.48744 1.01881 0
M  V30 3653 C 348.429 -1.43465 3.27342 0
M  V30 3654 S 349.988 -2.1691 3.81439 0
M  V30 3655 H 346.806 -0.251836 0.664906 0
M  V30 3656 H 349.408 -0.0137997 1.95495 0
M  V30 3657 H 348.112 -0.706693 4.0427 0
M  V30 3658 H 347.643 -2.21825 3.24896 0
M  V30 3659 H 349.658 -3.43658 3.5793 0
M  V30 3660 N 348.832 -1.54138 -0.328536 0
M  V30 3661 C 349.795 -1.82462 -1.38709 0
M  V30 3662 C 350.795 -0.696229 -1.44946 0
M  V30 3663 O 351.985 -0.964535 -1.4506 0
M  V30 3664 C 349.117 -1.98018 -2.77492 0
M  V30 3665 H 350.31 -2.77037 -1.14851 0
M  V30 3666 H 347.863 -1.45779 -0.563751 0
M  V30 3667 H 348.598 -1.05637 -3.06613 0
M  V30 3668 H 348.383 -2.80124 -2.74359 0
M  V30 3669 H 349.873 -2.21396 -3.54081 0
M  V30 3670 N 350.31 0.590341 -1.46126 0
M  V30 3671 C 351.54 1.37304 -1.54373 0
M  V30 3672 C 351.948 1.88332 -0.181071 0
M  V30 3673 O 351.291 1.63852 0.830559 0
M  V30 3674 C 351.353 2.6012 -2.48149 0
M  V30 3675 C 351.017 2.30613 -3.94546 0
M  V30 3676 C 352.014 1.89915 -4.83971 0
M  V30 3677 C 349.699 2.42993 -4.39613 0
M  V30 3678 C 351.693 1.61981 -6.16475 0
M  V30 3679 C 349.38 2.14672 -5.72153 0
M  V30 3680 C 350.378 1.7423 -6.60404 0
M  V30 3681 O 350.066 1.46251 -7.90485 0
M  V30 3682 H 349.798 0.426086 -0.524811 0
M  V30 3683 H 352.352 0.72539 -1.92165 0
M  V30 3684 H 350.582 3.27664 -2.05361 0
M  V30 3685 H 352.271 3.22182 -2.46887 0
M  V30 3686 H 353.037 1.79872 -4.50412 0
M  V30 3687 H 348.916 2.73435 -3.71153 0
M  V30 3688 H 352.46 1.30341 -6.85315 0
M  V30 3689 H 348.357 2.24337 -6.05263 0
M  V30 3690 H 349.125 1.6016 -8.02677 0
M  V30 3691 N 351.788 1.33704 0.83433 0
M  V30 3692 C 353.018 1.28281 1.6195 0
M  V30 3693 C 353.426 -0.147603 1.88623 0
M  V30 3694 O 352.769 -1.1016 1.47005 0
M  V30 3695 C 352.831 1.99386 2.99141 0
M  V30 3696 C 352.495 3.48681 2.95416 0
M  V30 3697 C 353.492 4.438 2.70809 0
M  V30 3698 C 351.177 3.90925 3.15409 0
M  V30 3699 C 353.171 5.79138 2.66229 0
M  V30 3700 C 350.858 5.26366 3.10454 0
M  V30 3701 C 351.856 6.20284 2.85895 0
M  V30 3702 O 351.544 7.53245 2.80852 0
M  V30 3703 H 351.276 0.44315 0.510484 0
M  V30 3704 H 353.83 1.76711 1.04702 0
M  V30 3705 H 352.06 1.45554 3.58261 0
M  V30 3706 H 353.749 1.87403 3.60049 0
M  V30 3707 H 354.515 4.12485 2.5511 0
M  V30 3708 H 350.394 3.18229 3.33543 0
M  V30 3709 H 353.938 6.52416 2.4698 0
M  V30 3710 H 349.835 5.57304 3.25703 0
M  V30 3711 H 350.603 7.62846 2.96661 0
M  V30 3712 N 353.266 -1.05314 1.17247 0
M  V30 3713 C 354.229 -2.112 0.890357 0
M  V30 3714 C 355.229 -1.60359 -0.118943 0
M  V30 3715 O 356.419 -1.73833 0.113086 0
M  V30 3716 C 353.551 -3.39266 0.333422 0
M  V30 3717 H 354.744 -2.37659 1.82916 0
M  V30 3718 H 352.297 -1.21538 0.982758 0
M  V30 3719 H 353.032 -3.18462 -0.612587 0
M  V30 3720 H 352.817 -3.77477 1.06082 0
M  V30 3721 H 354.307 -4.17315 0.154322 0
M  V30 3722 N 354.744 -0.972509 -1.24016 0
M  V30 3723 C 355.992 -0.635776 -1.91839 0
M  V30 3724 C 356.313 0.832312 -1.76345 0
M  V30 3725 O 355.583 1.5946 -1.13795 0
M  V30 3726 H 354.163 -0.232157 -0.710009 0
M  V30 3727 H 356.825 -1.23462 -1.50809 0
M  V30 3728 H 355.921 -0.880545 -2.99421 0
M  V30 3729 N 356.222 1.38976 -0.743202 0
M  V30 3730 C 357.47 1.99948 -0.29417 0
M  V30 3731 C 357.791 1.59279 1.12495 0
M  V30 3732 O 357.061 0.844808 1.76748 0
M  V30 3733 H 355.641 0.739473 -0.105774 0
M  V30 3734 H 358.303 1.699 -0.954986 0
M  V30 3735 H 357.399 3.10142 -0.349056 0
M  V30 3736 N 357.7 0.491464 1.49741 0
M  V30 3737 C 358.647 -0.292027 2.28945 0
M  V30 3738 C 359.617 -0.968973 1.34908 0
M  V30 3739 O 360.802 -0.97748 1.6386 0
M  V30 3740 C 357.942 -1.35617 3.17336 0
M  V30 3741 C 357.055 -0.691957 4.26422 0
M  V30 3742 C 356.19 -1.73572 5.02042 0
M  V30 3743 C 355.229 -1.05286 6.02977 0
M  V30 3744 N 354.366 -2.0404 6.71798 0
M  V30 3745 H 359.206 0.389654 2.95442 0
M  V30 3746 H 356.743 0.204003 1.45679 0
M  V30 3747 H 358.701 -1.98502 3.66951 0
M  V30 3748 H 357.331 -2.00674 2.52844 0
M  V30 3749 H 356.383 0.0499523 3.80367 0
M  V30 3750 H 357.695 -0.153946 4.98562 0
M  V30 3751 H 356.849 -2.43987 5.55478 0
M  V30 3752 H 355.588 -2.30757 4.29654 0
M  V30 3753 H 354.593 -0.334446 5.48782 0
M  V30 3754 H 355.818 -0.487636 6.77347 0
M  V30 3755 H 353.764 -2.60205 6.02187 0
M  V30 3756 H 353.681 -1.55279 7.39881 0
M  V30 3757 H 354.949 -2.73772 7.29842 0
M  V30 3758 N 359.178 -1.55987 0.224894 0
M  V30 3759 C 360.108 -2.23426 -0.678457 0
M  V30 3760 C 361.089 -1.20709 -1.19847 0
M  V30 3761 O 362.274 -1.49304 -1.24186 0
M  V30 3762 C 359.404 -2.91676 -1.88527 0
M  V30 3763 C 358.358 -4.00893 -1.49896 0
M  V30 3764 C 357.684 -4.56455 -2.78483 0
M  V30 3765 C 358.984 -5.17769 -0.686461 0
M  V30 3766 H 360.678 -2.99175 -0.116173 0
M  V30 3767 H 358.224 -1.43897 -0.054436 0
M  V30 3768 H 360.177 -3.37547 -2.5227 0
M  V30 3769 H 358.901 -2.1338 -2.47258 0
M  V30 3770 H 357.56 -3.55758 -0.884985 0
M  V30 3771 H 357.208 -3.74886 -3.35365 0
M  V30 3772 H 356.908 -5.30169 -2.53368 0
M  V30 3773 H 358.432 -5.05047 -3.43162 0
M  V30 3774 H 359.846 -5.60001 -1.22767 0
M  V30 3775 H 358.243 -5.97735 -0.532259 0
M  V30 3776 H 359.313 -4.83932 0.306196 0
M  V30 3777 N 360.656 0.0484629 -1.57525 0
M  V30 3778 C 361.886 0.754326 -1.92337 0
M  V30 3779 C 362.294 1.70443 -0.82132 0
M  V30 3780 O 361.637 1.82466 0.21254 0
M  V30 3781 C 361.699 1.58231 -3.22805 0
M  V30 3782 C 361.363 0.799074 -4.4996 0
M  V30 3783 C 362.36 0.1079 -5.19788 0
M  V30 3784 C 360.045 0.759345 -4.96527 0
M  V30 3785 C 362.039 -0.612516 -6.3445 0
M  V30 3786 C 359.726 0.0351713 -6.1109 0
M  V30 3787 C 360.724 -0.649537 -6.79904 0
M  V30 3788 O 360.412 -1.36199 -7.92278 0
M  V30 3789 H 360.144 0.218257 -0.639797 0
M  V30 3790 H 362.698 0.0159295 -2.05394 0
M  V30 3791 H 360.928 2.36406 -3.06021 0
M  V30 3792 H 362.617 2.16898 -3.43089 0
M  V30 3793 H 363.383 0.129748 -4.84826 0
M  V30 3794 H 359.262 1.28177 -4.42822 0
M  V30 3795 H 362.806 -1.14751 -6.88097 0
M  V30 3796 H 358.703 0.0113314 -6.45499 0
M  V30 3797 H 359.471 -1.27366 -8.0853 0
M  V30 3798 N 362.134 1.5431 0.320358 0
M  V30 3799 C 363.097 1.83195 1.3774 0
M  V30 3800 C 364.097 0.703906 1.44575 0
M  V30 3801 O 365.287 0.972214 1.44546 0
M  V30 3802 C 362.419 1.99487 2.76438 0
M  V30 3803 H 363.612 2.77642 1.1338 0
M  V30 3804 H 361.165 1.46076 0.556012 0
M  V30 3805 H 361.9 1.07262 3.06048 0
M  V30 3806 H 361.685 2.81575 2.7287 0
M  V30 3807 H 363.175 2.23271 3.52902 0
M  V30 3808 N 363.613 -0.582584 1.46437 0
M  V30 3809 C 364.841 -1.36682 1.55324 0
M  V30 3810 C 365.256 -1.87796 0.194409 0
M  V30 3811 O 364.613 -1.63623 -0.808318 0
M  V30 3812 C 364.664 -2.55426 2.55812 0
M  V30 3813 O 364.385 -2.0643 3.86417 0
M  V30 3814 C 365.886 -3.47976 2.74641 0
M  V30 3815 H 363.106 -0.417545 0.525259 0
M  V30 3816 H 365.65 -0.708219 1.91845 0
M  V30 3817 H 363.805 -3.17275 2.22295 0
M  V30 3818 H 364.219 -2.83762 4.41111 0
M  V30 3819 H 365.693 -4.27775 3.48874 0
M  V30 3820 H 366.17 -3.99919 1.81553 0
M  V30 3821 H 366.776 -2.91962 3.09255 0
M  V30 3822 N 365.091 -1.34144 -0.827227 0
M  V30 3823 C 366.054 -1.25264 -1.91942 0
M  V30 3824 C 367.054 -0.168866 -1.59911 0
M  V30 3825 O 368.244 -0.421198 -1.69031 0
M  V30 3826 C 365.376 -0.932952 -3.27885 0
M  V30 3827 H 366.569 -2.22357 -2.0124 0
M  V30 3828 H 364.122 -1.1837 -1.0207 0
M  V30 3829 H 364.857 0.0349917 -3.24281 0
M  V30 3830 H 364.642 -1.71682 -3.52516 0
M  V30 3831 H 366.132 -0.895874 -4.07877 0
M  V30 3832 N 366.569 1.04691 -1.17803 0
M  V30 3833 C 367.479 2.16057 -0.914151 0
M  V30 3834 C 368.495 1.73589 0.119503 0
M  V30 3835 O 369.671 2.01308 -0.0609468 0
M  V30 3836 C 366.736 3.4394 -0.436603 0
M  V30 3837 C 365.797 4.00825 -1.53746 0
M  V30 3838 C 365.03 5.22604 -1.0826 0
M  V30 3839 O 365.253 5.70367 0.0612244 0
M  V30 3840 O 364.187 5.7186 -1.87775 0
M  V30 3841 H 368.013 2.41169 -1.84584 0
M  V30 3842 H 365.598 1.1453 -0.959334 0
M  V30 3843 H 367.48 4.21024 -0.178057 0
M  V30 3844 H 366.155 3.20316 0.466869 0
M  V30 3845 H 365.062 3.25158 -1.84995 0
M  V30 3846 H 366.395 4.28778 -2.41683 0
M  V30 3847 N 368.047 0.979072 1.23499 0
M  V30 3848 C 369.463 0.687475 1.44034 0
M  V30 3849 C 369.663 -0.746801 1.8715 0
M  V30 3850 O 368.719 -1.51939 2.0167 0
M  V30 3851 C 370.032 1.68127 2.49307 0
M  V30 3852 C 371.58 1.69516 2.63122 0
M  V30 3853 C 372.055 2.67723 3.71603 0
M  V30 3854 N 373.546 2.66233 3.79044 0
M  V30 3855 C 374.281 3.38891 4.62537 0
M  V30 3856 N 373.777 4.21103 5.50131 0
M  V30 3857 N 375.57 3.27661 4.56721 0
M  V30 3858 H 367.721 1.90559 0.938135 0
M  V30 3859 H 369.984 0.821051 0.473897 0
M  V30 3860 H 369.69 2.70693 2.2454 0
M  V30 3861 H 369.564 1.46306 3.4767 0
M  V30 3862 H 371.951 0.676561 2.8724 0
M  V30 3863 H 372.032 1.95404 1.65079 0
M  V30 3864 H 371.676 3.69724 3.48233 0
M  V30 3865 H 371.606 2.39111 4.69184 0
M  V30 3866 H 374.097 2.06568 3.16446 0
M  V30 3867 H 374.41 4.73403 6.10827 0
M  V30 3868 H 372.755 4.25195 5.49759 0
M  V30 3869 H 375.946 2.62887 3.87309 0
M  V30 3870 H 376.119 3.84547 5.21562 0
M  V30 3871 N 369.525 -1.3858 0.750561 0
M  V30 3872 C 370.488 -2.28836 0.129152 0
M  V30 3873 C 371.488 -1.47045 -0.650714 0
M  V30 3874 O 372.678 -1.6753 -0.477428 0
M  V30 3875 C 369.81 -3.30751 -0.825622 0
M  V30 3876 H 371.003 -2.85294 0.924516 0
M  V30 3877 H 368.556 -1.47489 0.517376 0
M  V30 3878 H 369.291 -2.79378 -1.64677 0
M  V30 3879 H 369.076 -3.91177 -0.268852 0
M  V30 3880 H 370.566 -3.98249 -1.2565 0
M  V30 3881 N 371.003 -0.499398 -1.49478 0
M  V30 3882 C 372.251 0.0455996 -2.02049 0
M  V30 3883 C 372.572 1.37633 -1.38138 0
M  V30 3884 O 371.842 1.8842 -0.536166 0
M  V30 3885 H 370.422 0.0198416 -0.746736 0
M  V30 3886 H 373.084 -0.656274 -1.83519 0
M  V30 3887 H 372.18 0.176445 -3.11601 0
M  V30 3888 N 372.481 1.55866 -0.233164 0
M  V30 3889 C 373.892 1.847 0.272554 0
M  V30 3890 C 374.243 1.15477 1.58617 0
M  V30 3891 O 373.368 0.42841 2.12117 0
M  V30 3892 C 373.963 3.35071 0.501299 0
M  V30 3893 C 372.522 3.6418 0.951304 0
M  V30 3894 C 371.669 2.77292 0.0208209 0
M  V30 3895 H 374.62 1.52005 -0.456074 0
M  V30 3896 H 374.641 3.55906 1.34577 0
M  V30 3897 H 374.153 3.85424 -0.454936 0
M  V30 3898 H 372.254 3.19293 1.92049 0
M  V30 3899 H 372.367 4.72071 0.817675 0
M  V30 3900 H 370.731 2.49131 0.529723 0
M  V30 3901 H 371.514 3.30448 -0.93054 0
M  V30 3902 N 373.959 -0.0401083 1.57549 0
M  V30 3903 C 374.889 -1.04384 2.08869 0
M  V30 3904 C 375.87 -1.38407 0.988817 0
M  V30 3905 O 377.055 -1.47483 1.26342 0
M  V30 3906 C 374.185 -2.34808 2.55895 0
M  V30 3907 C 373.139 -2.15057 3.70047 0
M  V30 3908 C 372.465 -3.51145 4.03239 0
M  V30 3909 C 373.765 -1.54576 4.98902 0
M  V30 3910 H 375.459 -0.616666 2.92981 0
M  V30 3911 H 373.005 -0.295184 1.40942 0
M  V30 3912 H 374.958 -3.05346 2.90417 0
M  V30 3913 H 373.682 -2.79565 1.68853 0
M  V30 3914 H 372.341 -1.46954 3.35857 0
M  V30 3915 H 371.989 -3.93529 3.13279 0
M  V30 3916 H 371.689 -3.38758 4.80122 0
M  V30 3917 H 373.213 -4.23062 4.40285 0
M  V30 3918 H 374.627 -2.15017 5.31451 0
M  V30 3919 H 373.024 -1.52796 5.80322 0
M  V30 3920 H 374.094 -0.51039 4.82206 0
M  V30 3921 N 375.437 -1.54477 -0.31217 0
M  V30 3922 C 376.367 -1.87652 -1.38957 0
M  V30 3923 C 377.348 -0.734358 -1.53431 0
M  V30 3924 O 378.533 -0.98911 -1.67123 0
M  V30 3925 C 375.663 -2.11396 -2.75552 0
M  V30 3926 C 374.617 -3.27243 -2.75855 0
M  V30 3927 C 373.943 -3.36382 -4.15633 0
M  V30 3928 C 375.243 -4.64622 -2.38587 0
M  V30 3929 H 376.937 -2.77887 -1.11442 0
M  V30 3930 H 374.483 -1.33707 -0.534655 0
M  V30 3931 H 376.436 -2.33189 -3.51 0
M  V30 3932 H 375.16 -1.17921 -3.04569 0
M  V30 3933 H 373.819 -3.05356 -2.02863 0
M  V30 3934 H 373.467 -2.40445 -4.41809 0
M  V30 3935 H 373.167 -4.14249 -4.1674 0
M  V30 3936 H 374.691 -3.60422 -4.92877 0
M  V30 3937 H 376.105 -4.86219 -3.03749 0
M  V30 3938 H 374.502 -5.45121 -2.50925 0
M  V30 3939 H 375.572 -4.66097 -1.33723 0
M  V30 3940 O 376.954 0.458097 -1.54867 0
M  V30 3941 H 377.645 1.11218 -1.58588 0
M  V30 END ATOM
M  V30 BEGIN BOND
M  V30 END BOND
M  V30 END CTAB
M  END
$$$$
