drugbank_target|Q93TU6 6-oxocamphor hydrolase (DB02906)
 OpenBabel12092120253D

  0  0  0     0  0            999 V3000
M  V30 BEGIN CTAB
M  V30 COUNTS 3982 4026 0 0 0
M  V30 BEGIN ATOM
M  V30 1 H -0.908 1.98254 -0.117106 0
M  V30 2 N 0 1.576 0 0
M  V30 3 C 0.933 2.03868 1.02534 0
M  V30 4 C 1.911 0.928543 1.3348 0
M  V30 5 O 3.095 1.19667 1.45644 0
M  V30 6 C 0.222 2.43627 2.35294 0
M  V30 7 C -0.732 3.65373 2.2001 0
M  V30 8 S 0.101 5.13292 1.52614 0
M  V30 9 C 1.257 5.56322 2.86805 0
M  V30 10 H 1.49 2.90518 0.631377 0
M  V30 11 H -0.977 1.52953 0.210867 0
M  V30 12 H 0.981 2.67203 3.11629 0
M  V30 13 H -0.358 1.57376 2.7183 0
M  V30 14 H -1.165 3.90944 3.18086 0
M  V30 15 H -1.563 3.418 1.51819 0
M  V30 16 H 0.729 5.58782 3.83104 0
M  V30 17 H 1.672 6.56266 2.65933 0
M  V30 18 H 2.08 4.83886 2.90714 0
M  V30 19 N 1.4781 -0.272755 1.55222 0
M  V30 20 C 2.4251 -1.33716 1.88119 0
M  V30 21 C 3.3951 -1.49066 0.73271 0
M  V30 22 O 4.5801 -1.63469 0.984002 0
M  V30 23 C 1.7201 -2.69238 2.15882 0
M  V30 24 C 0.8331 -2.62108 3.43399 0
M  V30 25 C -0.0319 -3.89811 3.60861 0
M  V30 26 C -0.9929 -3.77193 4.8207 0
M  V30 27 N -1.8559 -4.9673 4.96189 0
M  V30 28 H 2.9841 -1.04962 2.78903 0
M  V30 29 H 0.5211 -0.507088 1.38083 0
M  V30 30 H 2.4791 -3.48089 2.29978 0
M  V30 31 H 1.1091 -2.96194 1.28331 0
M  V30 32 H 0.1611 -1.74967 3.37773 0
M  V30 33 H 1.4731 -2.48685 4.32386 0
M  V30 34 H 0.6271 -4.77103 3.74777 0
M  V30 35 H -0.6339 -4.06102 2.7006 0
M  V30 36 H -1.6289 -2.88284 4.68159 0
M  V30 37 H -0.4039 -3.62421 5.74307 0
M  V30 38 H -2.4579 -5.13431 4.08319 0
M  V30 39 H -2.5409 -4.85839 5.79221 0
M  V30 40 H -1.2729 -5.85594 5.1449 0
M  V30 41 N 2.9562 -1.48159 -0.537278 0
M  V30 42 C 3.8882 -1.58218 -1.65831 0
M  V30 43 C 4.9012 -0.466948 -1.5596 0
M  V30 44 O 6.0902 -0.73747 -1.62553 0
M  V30 45 C 3.1902 -1.48906 -3.04434 0
M  V30 46 C 2.3632 -2.75343 -3.3986 0
M  V30 47 C 1.4222 -2.59588 -4.57712 0
M  V30 48 O 0.4482 -3.33457 -4.61297 0
M  V30 49 N 1.6502 -1.68724 -5.55439 0
M  V30 50 H 4.4152 -2.54891 -1.57641 0
M  V30 51 H 1.9762 -1.4479 -0.724386 0
M  V30 52 H 3.9682 -1.36072 -3.81139 0
M  V30 53 H 2.5382 -0.602368 -3.06741 0
M  V30 54 H 1.7582 -3.02795 -2.52406 0
M  V30 55 H 3.0462 -3.5924 -3.60311 0
M  V30 56 H 2.4442 -1.07898 -5.55315 0
M  V30 57 H 1.0012 -1.61832 -6.3139 0
M  V30 58 N 4.4343 0.785586 -1.36625 0
M  V30 59 C 5.3643 1.91259 -1.33949 0
M  V30 60 C 6.3453 1.68795 -0.210325 0
M  V30 61 O 7.5303 1.89854 -0.408561 0
M  V30 62 C 4.6603 3.28339 -1.13186 0
M  V30 63 C 3.6143 3.65335 -2.22967 0
M  V30 64 C 2.9403 5.00806 -1.87342 0
M  V30 65 C 4.2403 3.7352 -3.65075 0
M  V30 66 H 5.9343 1.93755 -2.28253 0
M  V30 67 H 3.4803 0.930788 -1.09874 0
M  V30 68 H 5.4333 4.06804 -1.09948 0
M  V30 69 H 4.1573 3.2624 -0.153332 0
M  V30 70 H 2.8163 2.89169 -2.25337 0
M  V30 71 H 2.4643 4.95233 -0.880545 0
M  V30 72 H 2.1643 5.26529 -2.60846 0
M  V30 73 H 3.6883 5.81687 -1.85667 0
M  V30 74 H 5.1023 4.42168 -3.64911 0
M  V30 75 H 3.4993 4.10731 -4.37516 0
M  V30 76 H 4.5693 2.74527 -3.99703 0
M  V30 77 N 5.9124 1.20967 1.01018 0
M  V30 78 C 6.8754 0.965918 2.07853 0
M  V30 79 C 7.8754 -0.0610545 1.60684 0
M  V30 80 O 9.0654 0.175681 1.73312 0
M  V30 81 C 6.1974 0.455513 3.37843 0
M  V30 82 H 7.3904 1.91365 2.3091 0
M  V30 83 H 4.9434 1.02594 1.17916 0
M  V30 84 H 5.6784 -0.497381 3.20463 0
M  V30 85 H 5.4634 1.19622 3.73407 0
M  V30 86 H 6.9534 0.304667 4.16487 0
M  V30 87 N 7.3905 -1.2043 1.01659 0
M  V30 88 C 8.6185 -1.93777 0.725132 0
M  V30 89 C 9.0335 -1.74772 -0.714166 0
M  V30 90 O 8.3905 -1.06169 -1.4844 0
M  V30 91 C 8.4415 -3.45876 1.05129 0
M  V30 92 O 8.1625 -3.6426 2.43406 0
M  V30 93 C 9.6635 -4.36368 0.780891 0
M  V30 94 H 6.8835 -0.615901 0.266284 0
M  V30 95 H 9.4275 -1.52922 1.35776 0
M  V30 96 H 7.5825 -3.8461 0.464065 0
M  V30 97 H 7.9965 -4.58246 2.55169 0
M  V30 98 H 9.4705 -5.41743 1.05918 0
M  V30 99 H 9.9475 -4.38275 -0.284937 0
M  V30 100 H 10.5535 -4.03296 1.35027 0
M  V30 101 N 8.8686 -0.792821 -1.36206 0
M  V30 102 C 10.2796 -0.429513 -1.81692 0
M  V30 103 C 10.6306 1.04695 -1.65932 0
M  V30 104 O 9.7556 1.81256 -1.18218 0
M  V30 105 C 10.3506 -0.772831 -3.29868 0
M  V30 106 C 8.9096 -0.462307 -3.7355 0
M  V30 107 C 8.0566 -1.00569 -2.5842 0
M  V30 108 H 11.0076 -0.985672 -1.24379 0
M  V30 109 H 11.0286 -0.0651928 -3.80444 0
M  V30 110 H 10.5406 -1.84747 -3.41307 0
M  V30 111 H 8.6416 0.604158 -3.67669 0
M  V30 112 H 8.7546 -0.985299 -4.68859 0
M  V30 113 H 7.1186 -0.428734 -2.51066 0
M  V30 114 H 7.9016 -2.08616 -2.72643 0
M  V30 115 N 10.3467 1.47872 -0.545128 0
M  V30 116 C 11.5937 2.02493 -0.0165858 0
M  V30 117 C 11.9217 1.42073 1.32836 0
M  V30 118 O 11.1767 0.561459 1.87473 0
M  V30 119 C 11.4757 3.57131 0.13867 0
M  V30 120 C 11.1417 4.36411 -1.13384 0
M  V30 121 C 9.8037 4.57792 -1.48256 0
M  V30 122 C 12.1557 4.82223 -1.97764 0
M  V30 123 C 9.4837 5.22233 -2.67376 0
M  V30 124 C 11.8357 5.47977 -3.16076 0
M  V30 125 C 10.4997 5.67593 -3.51275 0
M  V30 126 H 9.7697 0.740975 -0.00606918 0
M  V30 127 H 12.4167 1.77683 -0.714207 0
M  V30 128 H 10.7217 3.80865 0.919172 0
M  V30 129 H 12.4187 3.97031 0.562782 0
M  V30 130 H 9.0087 4.2004 -0.852297 0
M  V30 131 H 13.1927 4.65493 -1.72132 0
M  V30 132 H 8.4487 5.35616 -2.94831 0
M  V30 133 H 12.6227 5.8244 -3.81755 0
M  V30 134 H 10.2497 6.17298 -4.43675 0
M  V30 135 N 11.8248 0.280983 1.55075 0
M  V30 136 C 12.7568 -0.637268 2.20163 0
M  V30 137 C 13.7698 -1.11298 1.18813 0
M  V30 138 O 14.9588 -1.03388 1.4551 0
M  V30 139 C 12.0588 -1.88199 2.81841 0
M  V30 140 C 11.2318 -1.55211 4.08936 0
M  V30 141 C 10.2908 -2.64991 4.54606 0
M  V30 142 O 9.3168 -2.30929 5.2025 0
M  V30 143 N 10.5188 -3.95161 4.25238 0
M  V30 144 H 13.2838 -0.0801694 2.99593 0
M  V30 145 H 10.8448 0.102329 1.61576 0
M  V30 146 H 12.8368 -2.60948 3.09335 0
M  V30 147 H 11.4068 -2.34799 2.06369 0
M  V30 148 H 10.6268 -0.658185 3.88666 0
M  V30 149 H 11.9148 -1.30681 4.91732 0
M  V30 150 H 11.3128 -4.25653 3.72607 0
M  V30 151 H 9.8698 -4.6427 4.5749 0
M  V30 152 N 13.3029 -1.57598 0.00835791 0
M  V30 153 C 14.2129 -2.12385 -0.996487 0
M  V30 154 C 15.2289 -1.07108 -1.37127 0
M  V30 155 O 16.4049 -1.39055 -1.4569 0
M  V30 156 C 13.4699 -2.62314 -2.26699 0
M  V30 157 C 12.5309 -3.82225 -1.95456 0
M  V30 158 C 11.7639 -4.29763 -3.16449 0
M  V30 159 O 11.9869 -3.76584 -4.28416 0
M  V30 160 O 10.9209 -5.21832 -2.99958 0
M  V30 161 H 14.7469 -2.98479 -0.560725 0
M  V30 162 H 12.3319 -1.47903 -0.210987 0
M  V30 163 H 14.2139 -2.94589 -3.01322 0
M  V30 164 H 12.8889 -1.79313 -2.69497 0
M  V30 165 H 11.7959 -3.54909 -1.18282 0
M  V30 166 H 13.1289 -4.66324 -1.57489 0
M  V30 167 N 14.781 0.264519 -1.55364 0
M  V30 168 C 16.011 1.01153 -1.80143 0
M  V30 169 C 16.419 1.80115 -0.579253 0
M  V30 170 O 15.762 1.77813 0.46132 0
M  V30 171 C 15.824 2.01098 -2.97993 0
M  V30 172 C 15.488 1.40995 -4.34706 0
M  V30 173 C 16.485 0.821316 -5.13372 0
M  V30 174 C 14.17 1.43461 -4.81378 0
M  V30 175 C 16.164 0.265339 -6.36847 0
M  V30 176 C 13.851 0.874771 -6.04807 0
M  V30 177 C 14.849 0.291146 -6.82379 0
M  V30 178 O 14.537 -0.260093 -8.03479 0
M  V30 179 H 14.269 0.304125 -0.603725 0
M  V30 180 H 16.823 0.298089 -2.03225 0
M  V30 181 H 15.053 2.76224 -2.70623 0
M  V30 182 H 16.742 2.61997 -3.1002 0
M  V30 183 H 17.508 0.794903 -4.78442 0
M  V30 184 H 13.387 1.87826 -4.21002 0
M  V30 185 H 16.931 -0.190837 -6.97339 0
M  V30 186 H 12.828 0.898452 -6.39217 0
M  V30 187 H 13.596 -0.150265 -8.18362 0
M  V30 188 N 16.2591 1.48442 0.529413 0
M  V30 189 C 17.4841 1.60406 1.31471 0
M  V30 190 C 17.9091 0.264738 1.86228 0
M  V30 191 O 17.2671 -0.763668 1.64432 0
M  V30 192 C 17.3151 2.65419 2.44101 0
M  V30 193 O 16.4191 2.22618 3.47153 0
M  V30 194 H 15.7601 0.537863 0.389357 0
M  V30 195 H 18.2901 1.94432 0.636965 0
M  V30 196 H 18.3001 2.86709 2.90279 0
M  V30 197 H 16.9751 3.62652 2.03608 0
M  V30 198 H 15.5521 2.11543 3.0709 0
M  V30 199 N 17.7372 -0.778329 1.37039 0
M  V30 200 C 18.6692 -1.90034 1.2814 0
M  V30 201 C 19.6822 -1.61585 0.198558 0
M  V30 202 O 20.8712 -1.72625 0.454175 0
M  V30 203 C 17.9712 -3.25108 0.956968 0
M  V30 204 C 17.1442 -3.81253 2.14394 0
M  V30 205 C 16.2032 -4.94789 1.79082 0
M  V30 206 O 15.2292 -5.10721 2.51301 0
M  V30 207 N 16.4312 -5.75878 0.731043 0
M  V30 208 H 19.1962 -1.98186 2.24816 0
M  V30 209 H 16.7572 -0.957129 1.30578 0
M  V30 210 H 18.7492 -3.9857 0.701701 0
M  V30 211 H 17.3192 -3.125 0.0789812 0
M  V30 212 H 16.5392 -2.99647 2.56135 0
M  V30 213 H 17.8272 -4.15495 2.93668 0
M  V30 214 H 17.2252 -5.65547 0.131618 0
M  V30 215 H 15.7822 -6.49596 0.535622 0
M  V30 216 N 19.2153 -1.21501 -1.00376 0
M  V30 217 C 20.1623 -0.975387 -2.09177 0
M  V30 218 C 21.1323 0.0990615 -1.65804 0
M  V30 219 O 22.3173 -0.0483147 -1.90739 0
M  V30 220 C 19.4573 -0.547507 -3.40729 0
M  V30 221 C 18.5703 -1.69153 -3.97506 0
M  V30 222 C 17.7053 -1.2127 -5.17172 0
M  V30 223 C 16.7443 -2.32897 -5.66061 0
M  V30 224 N 15.8813 -1.86138 -6.76976 0
M  V30 225 H 20.7213 -1.9068 -2.29009 0
M  V30 226 H 18.2583 -0.950257 -1.12288 0
M  V30 227 H 20.2163 -0.280667 -4.16255 0
M  V30 228 H 18.8463 0.346904 -3.20931 0
M  V30 229 H 17.8983 -2.07298 -3.18954 0
M  V30 230 H 19.2103 -2.5316 -4.29781 0
M  V30 231 H 18.3643 -0.902591 -5.99948 0
M  V30 232 H 17.1033 -0.342692 -4.86495 0
M  V30 233 H 16.1083 -2.64709 -4.81881 0
M  V30 234 H 17.3333 -3.20396 -5.98768 0
M  V30 235 H 15.2793 -1.01484 -6.48103 0
M  V30 236 H 15.1963 -2.63717 -7.08512 0
M  V30 237 H 16.4643 -1.58165 -7.63285 0
M  V30 238 N 20.6934 1.19889 -1.02296 0
M  V30 239 C 21.9234 1.93109 -0.734332 0
M  V30 240 C 22.3314 1.75377 0.709889 0
M  V30 241 O 21.6744 1.06912 1.49384 0
M  V30 242 C 21.7364 3.45362 -0.99827 0
M  V30 243 C 21.4004 3.8686 -2.43287 0
M  V30 244 C 22.3974 3.92102 -3.41397 0
M  V30 245 C 20.0824 4.18668 -2.77529 0
M  V30 246 C 22.0764 4.28573 -4.71809 0
M  V30 247 C 19.7634 4.54813 -4.08153 0
M  V30 248 C 20.7614 4.59739 -5.05103 0
M  V30 249 O 20.4494 4.95051 -6.33388 0
M  V30 250 H 20.1814 0.620409 -0.268456 0
M  V30 251 H 22.7354 1.53144 -1.3688 0
M  V30 252 H 20.9654 3.85482 -0.306645 0
M  V30 253 H 22.6544 3.99814 -0.700234 0
M  V30 254 H 23.4204 3.67685 -3.1628 0
M  V30 255 H 19.2994 4.14021 -2.0275 0
M  V30 256 H 22.8434 4.32333 -5.4748 0
M  V30 257 H 18.7404 4.78687 -4.33047 0
M  V30 258 H 19.5084 5.1302 -6.37772 0
M  V30 259 N 22.1715 0.800033 1.35784 0
M  V30 260 C 23.0815 0.207204 2.33683 0
M  V30 261 C 24.0975 -0.64631 1.61551 0
M  V30 262 O 25.2735 -0.559604 1.93469 0
M  V30 263 C 22.3385 -0.639659 3.40748 0
M  V30 264 C 21.3995 0.233585 4.28664 0
M  V30 265 C 20.6325 -0.572954 5.30616 0
M  V30 266 O 20.8555 -1.80816 5.40982 0
M  V30 267 O 19.7895 0.0327285 6.01891 0
M  V30 268 H 23.6155 1.01692 2.86169 0
M  V30 269 H 21.2005 0.561691 1.38439 0
M  V30 270 H 23.0825 -1.12223 4.06182 0
M  V30 271 H 21.7575 -1.42708 2.90544 0
M  V30 272 H 20.6645 0.763147 3.66233 0
M  V30 273 H 21.9975 0.984784 4.82248 0
M  V30 274 N 23.6496 -1.47581 0.552962 0
M  V30 275 C 24.5976 -2.31648 -0.21023 0
M  V30 276 C 25.5916 -1.42663 -0.913432 0
M  V30 277 O 26.7976 -1.5945 -0.835201 0
M  V30 278 H 23.1726 -0.746989 -0.0866676 0
M  V30 279 H 25.1436 -2.93869 0.518051 0
M  V30 280 C 23.8926 -3.25226 -1.22976 0
M  V30 281 H 23.2156 -3.93658 -0.698077 0
M  V30 282 H 24.6556 -3.86889 -1.73473 0
M  V30 283 C 23.1146 -2.48448 -2.27542 0
M  V30 284 O 23.6446 -2.22585 -3.34393 0
M  V30 285 N 21.8506 -2.09532 -2.01357 0
M  V30 286 H 21.3976 -2.30765 -1.14478 0
M  V30 287 H 21.3556 -1.58476 -2.71538 0
M  V30 288 N 25.1277 -0.289203 -1.54924 0
M  V30 289 C 26.3767 0.324231 -1.99077 0
M  V30 290 C 26.6897 1.5591 -1.18117 0
M  V30 291 O 27.8957 2.24637 -1.52481 0
M  V30 292 C 26.3517 0.628209 -3.54375 0
M  V30 293 C 25.9597 -0.587647 -4.44129 0
M  V30 294 C 27.7037 1.20349 -4.07083 0
M  V30 295 C 25.6107 -0.257475 -5.90839 0
M  V30 296 H 24.5407 0.124924 -0.743579 0
M  V30 297 H 27.1917 -0.396063 -1.79175 0
M  V30 298 H 25.5737 1.40778 -3.70132 0
M  V30 299 H 26.7477 -1.36418 -4.40144 0
M  V30 300 H 25.0627 -1.08074 -4.0213 0
M  V30 301 H 27.6597 1.46456 -5.14252 0
M  V30 302 H 28.0027 2.14195 -3.56968 0
M  V30 303 H 28.5357 0.485889 -3.94821 0
M  V30 304 H 25.2747 -1.16419 -6.45079 0
M  V30 305 H 24.7947 0.482018 -5.9786 0
M  V30 306 H 26.4737 0.145238 -6.46837 0
M  V30 307 N 26.6058 1.57591 -0.0167156 0
M  V30 308 C 28.0218 1.55946 0.339557 0
M  V30 309 C 28.2218 1.02109 1.73713 0
M  V30 310 O 27.2778 0.662303 2.43659 0
M  V30 311 C 28.5908 3.00037 0.199499 0
M  V30 312 C 30.1388 3.11805 0.273193 0
M  V30 313 C 30.6138 4.57713 0.162068 0
M  V30 314 N 32.1048 4.6268 0.219444 0
M  V30 315 C 32.8398 5.73185 0.157054 0
M  V30 316 N 32.3358 6.92786 0.0442936 0
M  V30 317 N 34.1288 5.61707 0.21014 0
M  V30 318 H 26.2798 1.90921 -0.930758 0
M  V30 319 H 28.5428 0.877674 -0.358319 0
M  V30 320 H 28.2488 3.4333 -0.76273 0
M  V30 321 H 28.1228 3.64387 0.974786 0
M  V30 322 H 30.5098 2.68433 1.22587 0
M  V30 323 H 30.5908 2.50201 -0.532256 0
M  V30 324 H 30.2348 5.01763 -0.78714 0
M  V30 325 H 30.1648 5.17283 0.986222 0
M  V30 326 H 32.6558 3.76649 0.307246 0
M  V30 327 H 32.9688 7.728 0.00304069 0
M  V30 328 H 31.3138 6.94999 0.00968457 0
M  V30 329 H 34.5048 4.6716 0.296546 0
M  V30 330 H 34.6778 6.47807 0.158054 0
M  V30 331 N 28.0839 -0.256276 1.55502 0
M  V30 332 C 29.0139 -1.32102 1.92539 0
M  V30 333 C 29.9949 -1.50684 0.789194 0
M  V30 334 O 31.1799 -1.63449 1.04872 0
M  V30 335 C 28.3099 -2.67752 2.21192 0
M  V30 336 C 27.2639 -2.63878 3.36975 0
M  V30 337 C 26.5899 -4.03236 3.51147 0
M  V30 338 C 27.8899 -2.21682 4.72921 0
M  V30 339 H 29.5839 -1.01351 2.81724 0
M  V30 340 H 27.1299 -0.486105 1.35547 0
M  V30 341 H 29.0829 -3.42365 2.45691 0
M  V30 342 H 27.8069 -3.0012 1.28824 0
M  V30 343 H 26.4659 -1.91722 3.12471 0
M  V30 344 H 26.1139 -4.32854 2.56216 0
M  V30 345 H 25.8139 -4.01535 4.29003 0
M  V30 346 H 27.3379 -4.79563 3.77957 0
M  V30 347 H 28.7519 -2.86023 4.96854 0
M  V30 348 H 27.1489 -2.3111 5.53812 0
M  V30 349 H 28.2189 -1.16833 4.70615 0
M  V30 350 N 29.562 -1.4872 -0.521534 0
M  V30 351 C 30.472 -1.66569 -1.65203 0
M  V30 352 C 31.488 -0.548197 -1.65139 0
M  V30 353 O 32.664 -0.820339 -1.83936 0
M  V30 354 C 29.729 -1.70917 -3.01642 0
M  V30 355 C 28.79 -2.94356 -3.12495 0
M  V30 356 C 28.023 -2.98487 -4.42426 0
M  V30 357 O 28.246 -2.10786 -5.30024 0
M  V30 358 O 27.18 -3.90746 -4.57822 0
M  V30 359 H 31.006 -2.62298 -1.5308 0
M  V30 360 H 28.591 -1.3222 -0.695565 0
M  V30 361 H 30.473 -1.7625 -3.82771 0
M  V30 362 H 29.148 -0.783633 -3.14071 0
M  V30 363 H 28.055 -2.94552 -2.3063 0
M  V30 364 H 29.388 -3.86322 -3.04986 0
M  V30 365 N 31.0401 0.771051 -1.3745 0
M  V30 366 C 32.4561 1.07171 -1.18265 0
M  V30 367 C 32.6561 2.01491 -0.019287 0
M  V30 368 O 31.7121 2.44244 0.640408 0
M  V30 369 C 33.0251 1.66854 -2.50161 0
M  V30 370 C 34.5731 1.79109 -2.56689 0
M  V30 371 C 35.0481 2.42205 -3.88717 0
M  V30 372 N 36.5391 2.49655 -3.90162 0
M  V30 373 C 37.2741 2.9933 -4.8907 0
M  V30 374 N 36.7701 3.49172 -5.98374 0
M  V30 375 N 38.5631 2.9821 -4.76474 0
M  V30 376 H 30.7141 0.144796 -2.11906 0
M  V30 377 H 32.9771 0.126863 -0.939473 0
M  V30 378 H 32.6831 1.05017 -3.35655 0
M  V30 379 H 32.5571 2.6614 -2.673 0
M  V30 380 H 34.9441 2.40077 -1.71601 0
M  V30 381 H 35.0251 0.785757 -2.43433 0
M  V30 382 H 34.6691 1.81875 -4.74219 0
M  V30 383 H 34.5991 3.43345 -3.99276 0
M  V30 384 H 37.0901 2.14383 -3.11205 0
M  V30 385 H 37.4031 3.8548 -6.69795 0
M  V30 386 H 35.7481 3.47275 -6.02018 0
M  V30 387 H 38.9391 2.58572 -3.90203 0
M  V30 388 H 39.1121 3.36613 -5.53711 0
M  V30 389 N 32.5182 1.22032 0.997298 0
M  V30 390 C 33.7952 0.950823 1.70935 0
M  V30 391 C 34.1752 -0.535292 2.042 0
M  V30 392 O 33.5232 -1.50217 1.72183 0
M  V30 393 C 33.7332 1.84386 2.96315 0
M  V30 394 C 35.0812 2.09732 3.69185 0
M  V30 395 O 36.1052 1.81798 3.06314 0
M  V30 396 O 34.9642 2.57018 4.82291 0
M  V30 397 H 32.0582 0.357204 0.745878 0
M  V30 398 H 34.6042 1.32997 1.05404 0
M  V30 399 H 33.3762 2.84928 2.68201 0
M  V30 400 H 32.9992 1.46602 3.69586 0
M  V30 401 N 33.9963 -1.19345 1.0293 0
M  V30 402 C 35.2443 -1.88665 0.724574 0
M  V30 403 C 35.5653 -1.80036 -0.749144 0
M  V30 404 O 34.8353 -1.2111 -1.53978 0
M  V30 405 H 33.4153 -0.698406 0.265025 0
M  V30 406 H 36.0773 -1.44885 1.30362 0
M  V30 407 H 35.1733 -2.94987 1.01926 0
M  V30 408 N 35.4744 -0.807222 -1.35358 0
M  V30 409 C 36.7224 -0.387122 -1.98358 0
M  V30 410 C 37.0434 1.04942 -1.64354 0
M  V30 411 O 36.3134 1.72615 -0.926339 0
M  V30 412 H 34.8934 -0.140154 -0.733734 0
M  V30 413 H 37.5554 -1.0332 -1.6526 0
M  V30 414 H 36.6514 -0.493352 -3.08176 0
M  V30 415 N 36.9525 1.47285 -0.560781 0
M  V30 416 C 38.1985 2.02764 -0.0381184 0
M  V30 417 C 38.5315 1.43384 1.30976 0
M  V30 418 O 37.8065 0.590733 1.85312 0
M  V30 419 C 38.0895 3.60064 0.0511427 0
M  V30 420 C 37.9425 4.2987 -1.32408 0
M  V30 421 C 39.2615 4.33439 0.762795 0
M  V30 422 H 36.3805 0.736841 -0.0153264 0
M  V30 423 H 39.0225 1.75675 -0.723759 0
M  V30 424 H 37.1725 3.83274 0.635065 0
M  V30 425 H 38.8445 4.17989 -1.95148 0
M  V30 426 H 37.0875 3.90085 -1.8978 0
M  V30 427 H 37.7585 5.38478 -1.21431 0
M  V30 428 H 40.2345 4.15243 0.266965 0
M  V30 429 H 39.1105 5.43124 0.794221 0
M  V30 430 H 39.3715 4.02915 1.81966 0
M  V30 431 N 38.4306 0.297415 1.54768 0
M  V30 432 C 39.3606 -0.573494 2.26348 0
M  V30 433 C 40.3416 -1.14085 1.26169 0
M  V30 434 O 41.5266 -1.17086 1.54934 0
M  V30 435 C 38.6566 -1.74716 3.00153 0
M  V30 436 C 37.6106 -1.31032 4.07449 0
M  V30 437 C 36.9366 -2.56887 4.68949 0
M  V30 438 C 38.2366 -0.444183 5.20408 0
M  V30 439 H 39.9306 0.0235131 2.99391 0
M  V30 440 H 37.4766 0.0127488 1.43994 0
M  V30 441 H 39.4296 -2.3625 3.48947 0
M  V30 442 H 38.1536 -2.37035 2.24682 0
M  V30 443 H 36.8126 -0.718066 3.59499 0
M  V30 444 H 36.4606 -3.17512 3.90122 0
M  V30 445 H 36.1606 -2.2836 5.41411 0
M  V30 446 H 37.6846 -3.19229 5.20505 0
M  V30 447 H 39.0986 -0.9651 5.65118 0
M  V30 448 H 37.4956 -0.252846 5.99567 0
M  V30 449 H 38.5656 0.531609 4.81977 0
M  V30 450 N 39.9087 -1.5758 0.0250728 0
M  V30 451 C 40.8387 -2.13007 -0.956575 0
M  V30 452 C 41.8197 -1.0452 -1.342 0
M  V30 453 O 43.0047 -1.32332 -1.42133 0
M  V30 454 C 40.1347 -2.65386 -2.24026 0
M  V30 455 C 39.0887 -3.78623 -1.99571 0
M  V30 456 C 38.4147 -4.17414 -3.3417 0
M  V30 457 C 39.7147 -5.04867 -1.33814 0
M  V30 458 H 41.4087 -2.9528 -0.494991 0
M  V30 459 H 38.9547 -1.42042 -0.236651 0
M  V30 460 H 40.9077 -3.02794 -2.93076 0
M  V30 461 H 39.6317 -1.80268 -2.72343 0
M  V30 462 H 38.2907 -3.41646 -1.32941 0
M  V30 463 H 37.9387 -3.29284 -3.80238 0
M  V30 464 H 37.6387 -4.93719 -3.18615 0
M  V30 465 H 39.1627 -4.57402 -4.04495 0
M  V30 466 H 40.5767 -5.39888 -1.92857 0
M  V30 467 H 38.9737 -5.86144 -1.28669 0
M  V30 468 H 40.0437 -4.83904 -0.310561 0
M  V30 469 N 41.3868 0.248026 -1.55636 0
M  V30 470 C 42.6328 0.97767 -1.77678 0
M  V30 471 C 42.9658 1.85016 -0.590135 0
M  V30 472 O 42.2408 1.90095 0.411611 0
M  V30 473 C 42.5238 1.83914 -3.09593 0
M  V30 474 C 42.3768 0.99491 -4.38659 0
M  V30 475 C 43.6958 2.82183 -3.37729 0
M  V30 476 H 40.8148 0.354005 -0.646413 0
M  V30 477 H 43.4568 0.248253 -1.88371 0
M  V30 478 H 41.6068 2.46104 -3.00608 0
M  V30 479 H 43.2788 0.391789 -4.59633 0
M  V30 480 H 41.5218 0.299231 -4.32767 0
M  V30 481 H 42.1928 1.63145 -5.2734 0
M  V30 482 H 44.6688 2.30129 -3.4667 0
M  V30 483 H 43.5448 3.39582 -4.31249 0
M  V30 484 H 43.8058 3.58588 -2.58586 0
M  V30 485 N 42.8649 1.48995 0.513639 0
M  V30 486 C 44.0929 1.61531 1.29288 0
M  V30 487 C 44.5079 0.281801 1.86685 0
M  V30 488 O 43.8649 -0.731111 1.67215 0
M  V30 489 C 43.9159 2.67449 2.43215 0
M  V30 490 O 43.6369 3.95626 1.88179 0
M  V30 491 C 45.1379 2.90575 3.34785 0
M  V30 492 H 42.3579 0.544165 0.392588 0
M  V30 493 H 44.9019 1.9494 0.617956 0
M  V30 494 H 43.0569 2.36853 3.0656 0
M  V30 495 H 43.4709 4.53868 2.62876 0
M  V30 496 H 44.9449 3.68449 4.11035 0
M  V30 497 H 45.4219 2.00011 3.91015 0
M  V30 498 H 46.0279 3.22538 2.77218 0
M  V30 499 N 44.343 -0.763751 1.37857 0
M  V30 500 C 45.589 -1.52483 1.33704 0
M  V30 501 C 45.922 -1.94051 -0.0759612 0
M  V30 502 O 45.197 -1.64675 -1.03501 0
M  V30 503 C 45.48 -2.78441 2.28348 0
M  V30 504 C 45.333 -2.43075 3.78463 0
M  V30 505 C 46.652 -3.80415 2.21298 0
M  V30 506 H 43.771 -0.553169 0.487005 0
M  V30 507 H 46.413 -0.875562 1.68624 0
M  V30 508 H 44.563 -3.33842 1.987 0
M  V30 509 H 46.235 -1.93527 4.18742 0
M  V30 510 H 44.478 -1.75666 3.96641 0
M  V30 511 H 45.149 -3.33149 4.40132 0
M  V30 512 H 47.625 -3.34527 2.47449 0
M  V30 513 H 46.501 -4.66257 2.89647 0
M  V30 514 H 46.762 -4.25262 1.20849 0
M  V30 515 N 45.8211 -1.22559 -0.990812 0
M  V30 516 C 46.7711 -0.964807 -2.0658 0
M  V30 517 C 47.7551 0.0853472 -1.60673 0
M  V30 518 O 48.9471 -0.125443 -1.76555 0
M  V30 519 C 46.0761 -0.546707 -3.38919 0
M  V30 520 C 45.1621 -1.6317 -3.91454 0
M  V30 521 N 45.5531 -2.85985 -4.17189 0
M  V30 522 C 43.8511 -1.50387 -4.19881 0
M  V30 523 C 44.5521 -3.56159 -4.59919 0
M  V30 524 N 43.5281 -2.83637 -4.63736 0
M  V30 525 H 47.3301 -1.89769 -2.24421 0
M  V30 526 H 44.8441 -1.12343 -1.17273 0
M  V30 527 H 46.8411 -0.34119 -4.15502 0
M  V30 528 H 45.5011 0.379254 -3.22478 0
M  V30 529 H 46.5121 -3.22392 -4.05319 0
M  V30 530 H 43.1891 -0.644254 -4.12499 0
M  V30 531 H 44.5791 -4.6139 -4.88435 0
M  V30 532 N 47.2992 1.18797 -1.03562 0
M  V30 533 C 48.5272 1.92599 -0.755869 0
M  V30 534 C 48.9422 1.75886 0.686271 0
M  V30 535 O 48.2992 1.08517 1.46732 0
M  V30 536 C 48.3502 3.44159 -1.10619 0
M  V30 537 O 48.0712 3.60341 -2.4917 0
M  V30 538 C 49.5722 4.3507 -0.850214 0
M  V30 539 H 46.7922 0.611587 -0.276048 0
M  V30 540 H 49.3362 1.50742 -1.38192 0
M  V30 541 H 47.4912 3.83823 -0.525194 0
M  V30 542 H 47.9052 4.54128 -2.62427 0
M  V30 543 H 49.3792 5.39989 -1.14523 0
M  V30 544 H 49.8562 4.38673 0.215176 0
M  V30 545 H 50.4622 4.01097 -1.41426 0
M  V30 546 N 48.7773 0.814389 1.34928 0
M  V30 547 C 49.6873 0.231978 2.3345 0
M  V30 548 C 50.7033 -0.629139 1.62228 0
M  V30 549 O 51.8793 -0.539052 1.94052 0
M  V30 550 C 48.9443 -0.603482 3.41407 0
M  V30 551 C 48.0053 0.279037 4.28392 0
M  V30 552 C 47.2383 -0.516643 5.31193 0
M  V30 553 O 47.4613 -1.75068 5.4287 0
M  V30 554 O 46.3953 0.0965652 6.01823 0
M  V30 555 H 50.2213 1.04721 2.85074 0
M  V30 556 H 47.8063 0.576343 1.37836 0
M  V30 557 H 49.6883 -1.07908 4.0735 0
M  V30 558 H 48.3633 -1.39618 2.92042 0
M  V30 559 H 47.2703 0.801948 3.65403 0
M  V30 560 H 48.6033 1.03588 4.81176 0
M  V30 561 N 50.2554 -1.46986 0.568584 0
M  V30 562 C 51.5034 -2.02041 0.0487022 0
M  V30 563 C 51.8244 -1.44408 -1.31039 0
M  V30 564 O 51.0944 -0.623477 -1.85714 0
M  V30 565 H 49.6744 -0.746849 0.015014 0
M  V30 566 H 52.3364 -1.80257 0.741168 0
M  V30 567 H 51.4324 -3.12085 -0.0308961 0
M  V30 568 N 51.7335 -0.305618 -1.54608 0
M  V30 569 C 52.6805 0.568421 -2.23691 0
M  V30 570 C 53.6505 1.12592 -1.22116 0
M  V30 571 O 54.8355 1.16959 -1.50749 0
M  V30 572 C 51.9755 1.7322 -2.98477 0
M  V30 573 C 51.0885 1.20566 -4.14835 0
M  V30 574 C 50.2235 2.33368 -4.77193 0
M  V30 575 C 49.2625 1.7787 -5.85686 0
M  V30 576 N 48.3995 2.84263 -6.4198 0
M  V30 577 H 53.2395 -0.0272867 -2.97988 0
M  V30 578 H 50.7765 -0.0252363 -1.47078 0
M  V30 579 H 52.7345 2.41675 -3.40072 0
M  V30 580 H 51.3645 2.29947 -2.26548 0
M  V30 581 H 50.4165 0.413223 -3.78149 0
M  V30 582 H 51.7285 0.759417 -4.92985 0
M  V30 583 H 50.8825 3.09761 -5.21664 0
M  V30 584 H 49.6215 2.8132 -3.98385 0
M  V30 585 H 48.6265 0.99968 -5.40635 0
M  V30 586 H 49.8515 1.30816 -6.66381 0
M  V30 587 H 47.7975 3.31541 -5.66053 0
M  V30 588 H 47.7145 2.44149 -7.15491 0
M  V30 589 H 48.9825 3.6054 -6.91109 0
M  V30 590 N 53.2116 1.57565 -0.0334293 0
M  V30 591 C 54.4366 1.96689 0.657895 0
M  V30 592 C 54.8616 0.910057 1.64619 0
M  V30 593 O 54.2196 -0.128598 1.80843 0
M  V30 594 C 54.2676 3.34905 1.33683 0
M  V30 595 O 53.3716 3.31574 2.45219 0
M  V30 596 H 52.7126 0.641205 0.172489 0
M  V30 597 H 55.2426 2.04372 -0.0965621 0
M  V30 598 H 55.2526 3.71234 1.69262 0
M  V30 599 H 53.9276 4.11366 0.612411 0
M  V30 600 H 52.5046 3.06968 2.11719 0
M  V30 601 N 54.6897 -0.239769 1.55765 0
M  V30 602 C 55.6197 -1.30052 1.9393 0
M  V30 603 C 56.6007 -1.49839 0.805132 0
M  V30 604 O 57.7857 -1.62328 1.06599 0
M  V30 605 C 54.9157 -2.65391 2.2402 0
M  V30 606 C 53.8697 -2.60289 3.39755 0
M  V30 607 C 53.1957 -3.99489 3.55405 0
M  V30 608 C 54.4957 -2.16654 4.75246 0
M  V30 609 H 56.1897 -0.983573 2.82783 0
M  V30 610 H 53.7357 -0.471701 1.36055 0
M  V30 611 H 55.6887 -3.3974 2.49308 0
M  V30 612 H 54.4127 -2.98736 1.32 0
M  V30 613 H 53.0717 -1.88398 3.14487 0
M  V30 614 H 52.7197 -4.30112 2.60793 0
M  V30 615 H 52.4197 -3.96962 4.33238 0
M  V30 616 H 53.9437 -4.75528 3.83022 0
M  V30 617 H 55.3577 -2.80737 4.99859 0
M  V30 618 H 53.7547 -2.25223 5.56232 0
M  V30 619 H 54.8247 -1.11835 4.71827 0
M  V30 620 N 56.1678 -1.49265 -0.50573 0
M  V30 621 C 57.4138 -1.58748 -1.26202 0
M  V30 622 C 57.7468 -0.271227 -1.92297 0
M  V30 623 O 57.0218 0.724831 -1.80489 0
M  V30 624 C 57.3048 -2.74332 -2.33268 0
M  V30 625 C 57.1578 -4.15737 -1.71705 0
M  V30 626 C 58.4768 -2.85576 -3.34865 0
M  V30 627 H 55.5958 -0.577826 -0.457478 0
M  V30 628 H 58.2378 -1.81532 -0.560897 0
M  V30 629 H 56.3878 -2.55036 -2.93068 0
M  V30 630 H 58.0598 -4.46537 -1.15769 0
M  V30 631 H 56.3028 -4.21605 -1.02135 0
M  V30 632 H 56.9738 -4.92477 -2.49341 0
M  V30 633 H 59.4498 -3.03127 -2.8505 0
M  V30 634 H 58.3258 -3.68135 -4.07146 0
M  V30 635 H 58.5868 -1.94732 -3.96903 0
M  V30 636 N 57.6459 0.756429 -1.3826 0
M  V30 637 C 58.8919 1.5168 -1.35517 0
M  V30 638 C 59.2469 1.9232 0.0554451 0
M  V30 639 O 58.5399 1.62352 1.01746 0
M  V30 640 C 58.7339 2.78313 -2.24224 0
M  V30 641 C 58.5629 2.50053 -3.7377 0
M  V30 642 C 57.3329 2.43414 -4.42807 0
M  V30 643 C 59.5309 2.1702 -4.66269 0
M  V30 644 N 57.5129 2.07398 -5.77805 0
M  V30 645 C 58.8839 1.91271 -5.89759 0
M  V30 646 C 60.9389 2.03305 -4.54501 0
M  V30 647 C 59.6419 1.53192 -7.02798 0
M  V30 648 C 61.6679 1.66627 -5.67441 0
M  V30 649 C 61.0299 1.4175 -6.8999 0
M  V30 650 H 57.1289 0.554735 -0.551174 0
M  V30 651 H 59.7129 0.881106 -1.73622 0
M  V30 652 H 57.8839 3.39696 -1.88311 0
M  V30 653 H 59.6159 3.44343 -2.12627 0
M  V30 654 H 56.3709 2.59789 -3.95988 0
M  V30 655 H 56.7949 1.92044 -6.4919 0
M  V30 656 H 61.4369 2.21215 -3.60311 0
M  V30 657 H 59.1549 1.34022 -7.96909 0
M  V30 658 H 62.7409 1.56652 -5.60314 0
M  V30 659 H 61.6209 1.1379 -7.759 0
M  V30 660 N 59.124 1.23083 0.984299 0
M  V30 661 C 60.352 1.08714 1.76037 0
M  V30 662 C 60.767 -0.361691 1.85303 0
M  V30 663 O 60.124 -1.25034 1.32939 0
M  V30 664 C 60.175 1.70206 3.18923 0
M  V30 665 O 59.896 3.09423 3.10144 0
M  V30 666 C 61.397 1.61227 4.12941 0
M  V30 667 H 58.617 0.380664 0.552572 0
M  V30 668 H 61.161 1.62853 1.23689 0
M  V30 669 H 59.316 1.20109 3.6831 0
M  V30 670 H 59.73 3.39188 4.00065 0
M  V30 671 H 61.204 2.08962 5.10919 0
M  V30 672 H 61.681 0.570375 4.35481 0
M  V30 673 H 62.287 2.10671 3.69456 0
M  V30 674 N 60.6021 -1.18246 1.0419 0
M  V30 675 C 61.8271 -1.92736 0.765996 0
M  V30 676 C 62.2521 -1.75728 -0.67091 0
M  V30 677 O 61.6101 -1.06825 -1.46486 0
M  V30 678 C 61.6581 -3.42148 1.13875 0
M  V30 679 O 60.7621 -4.11548 0.264954 0
M  V30 680 H 60.1031 -0.601238 0.281797 0
M  V30 681 H 62.6331 -1.49942 1.39207 0
M  V30 682 H 62.6431 -3.92858 1.1012 0
M  V30 683 H 61.3181 -3.53848 2.18551 0
M  V30 684 H 59.8951 -3.71137 0.362226 0
M  V30 685 N 62.0802 -0.821533 -1.34494 0
M  V30 686 C 63.3082 -0.421884 -2.02553 0
M  V30 687 C 63.7232 0.971745 -1.61872 0
M  V30 688 O 63.0802 1.62864 -0.823496 0
M  V30 689 C 63.1312 -0.51285 -3.57844 0
M  V30 690 O 62.8522 -1.85155 -3.97051 0
M  V30 691 C 64.3532 -0.107921 -4.43169 0
M  V30 692 H 61.5732 -0.169482 -0.649243 0
M  V30 693 H 64.1172 -1.1093 -1.71798 0
M  V30 694 H 62.2722 0.126474 -3.87193 0
M  V30 695 H 62.6862 -1.82482 -4.91732 0
M  V30 696 H 64.1602 -0.222657 -5.51551 0
M  V30 697 H 64.6372 0.948401 -4.28838 0
M  V30 698 H 65.2432 -0.720989 -4.19144 0
M  V30 699 N 63.5583 1.46682 -0.576371 0
M  V30 700 C 64.5213 2.28707 0.150239 0
M  V30 701 C 65.5213 1.38035 0.824794 0
M  V30 702 O 66.7113 1.60476 0.677719 0
M  V30 703 C 63.8433 3.18248 1.22192 0
M  V30 704 H 65.0363 2.94423 -0.570521 0
M  V30 705 H 62.5893 1.52688 -0.334078 0
M  V30 706 H 63.3243 2.57265 1.97447 0
M  V30 707 H 63.1093 3.85 0.742812 0
M  V30 708 H 64.5993 3.80001 1.73172 0
M  V30 709 N 65.0364 0.313813 1.54444 0
M  V30 710 C 65.9864 -0.571898 2.20711 0
M  V30 711 C 66.9704 -1.08913 1.18435 0
M  V30 712 O 68.1624 -1.02777 1.44104 0
M  V30 713 C 65.2914 -1.7371 2.96108 0
M  V30 714 C 64.3774 -1.23522 4.05713 0
M  V30 715 N 64.7684 -0.452288 5.03774 0
M  V30 716 C 63.0664 -1.51482 4.19487 0
M  V30 717 C 63.7674 -0.183438 5.81411 0
M  V30 718 N 62.7434 -0.766845 5.38164 0
M  V30 719 H 66.5454 0.0336802 2.93881 0
M  V30 720 H 64.0594 0.119192 1.61962 0
M  V30 721 H 66.0564 -2.38329 3.4206 0
M  V30 722 H 64.7164 -2.34625 2.24458 0
M  V30 723 H 65.7274 -0.0960131 5.17811 0
M  V30 724 H 62.4044 -2.13053 3.59047 0
M  V30 725 H 63.7944 0.446216 6.70417 0
M  V30 726 N 66.5145 -1.57545 0.0417849 0
M  V30 727 C 67.7915 -1.83642 -0.673433 0
M  V30 728 C 68.1715 -0.928298 -1.89594 0
M  V30 729 O 67.5195 0.0129955 -2.28496 0
M  V30 730 C 67.7295 -3.33155 -1.03964 0
M  V30 731 C 69.0775 -3.99941 -1.42592 0
M  V30 732 O 70.1015 -3.37725 -1.13226 0
M  V30 733 O 68.9605 -5.09619 -1.9736 0
M  V30 734 H 66.0545 -0.757638 -0.331533 0
M  V30 735 H 68.6005 -1.69554 0.070433 0
M  V30 736 H 67.3725 -3.9093 -0.170098 0
M  V30 737 H 66.9955 -3.52396 -1.84126 0
M  V30 738 N 67.9926 0.231505 -1.5589 0
M  V30 739 C 68.9026 1.308 -1.94752 0
M  V30 740 C 69.9186 1.51826 -0.849989 0
M  V30 741 O 71.0946 1.6515 -1.15271 0
M  V30 742 C 68.1596 2.63968 -2.24771 0
M  V30 743 C 67.2206 2.51331 -3.48039 0
M  V30 744 C 66.4536 3.78148 -3.76616 0
M  V30 745 O 66.6766 4.80722 -3.07022 0
M  V30 746 O 65.6106 3.75857 -4.70123 0
M  V30 747 H 69.4366 1.0083 -2.86474 0
M  V30 748 H 67.0216 0.433547 -1.42971 0
M  V30 749 H 68.9036 3.42633 -2.45318 0
M  V30 750 H 67.5786 2.9364 -1.36225 0
M  V30 751 H 66.4856 1.709 -3.32782 0
M  V30 752 H 67.8186 2.26601 -4.36936 0
M  V30 753 N 69.4707 1.49531 0.497807 0
M  V30 754 C 70.4007 1.6935 1.60757 0
M  V30 755 C 71.3817 0.542218 1.61227 0
M  V30 756 O 72.5667 0.778417 1.77917 0
M  V30 757 C 69.6967 1.76298 2.99226 0
M  V30 758 C 68.6507 2.91248 3.13622 0
M  V30 759 C 67.9767 2.83312 4.53474 0
M  V30 760 C 69.2767 4.3214 2.93346 0
M  V30 761 H 70.9707 2.62263 1.44425 0
M  V30 762 H 68.5167 1.26208 0.693367 0
M  V30 763 H 70.4697 1.88749 3.76765 0
M  V30 764 H 69.1937 0.799871 3.16654 0
M  V30 765 H 67.8527 2.78404 2.38509 0
M  V30 766 H 67.5007 1.84902 4.67782 0
M  V30 767 H 67.2007 3.60465 4.64046 0
M  V30 768 H 68.7247 2.97775 5.33069 0
M  V30 769 H 70.1387 4.45649 3.60652 0
M  V30 770 H 68.5357 5.1054 3.15387 0
M  V30 771 H 69.6057 4.46363 1.89441 0
M  V30 772 N 70.9488 -0.749086 1.3866 0
M  V30 773 C 71.9118 -1.84457 1.36045 0
M  V30 774 C 72.9118 -1.58682 0.260122 0
M  V30 775 O 74.1018 -1.66343 0.517261 0
M  V30 776 C 71.2338 -3.22008 1.11911 0
M  V30 777 H 72.4268 -1.88182 2.33512 0
M  V30 778 H 69.9798 -0.951266 1.24019 0
M  V30 779 H 70.7148 -3.2395 0.150686 0
M  V30 780 H 70.4998 -3.42111 1.91579 0
M  V30 781 H 71.9898 -4.0208 1.12788 0
M  V30 782 N 72.4269 -1.23603 -0.977757 0
M  V30 783 C 73.6569 -1.09487 -1.75203 0
M  V30 784 C 74.0649 0.356321 -1.85814 0
M  V30 785 O 73.4079 1.25816 -1.33851 0
M  V30 786 C 73.4699 -1.64905 -3.19447 0
M  V30 787 C 73.1339 -3.13688 -3.32338 0
M  V30 788 C 74.1309 -4.10953 -3.18455 0
M  V30 789 C 71.8159 -3.53449 -3.56902 0
M  V30 790 C 73.8099 -5.45962 -3.28944 0
M  V30 791 C 71.4969 -4.88602 -3.6703 0
M  V30 792 C 72.4949 -5.84668 -3.53062 0
M  V30 793 O 72.1829 -7.17365 -3.62826 0
M  V30 794 H 71.9149 -0.38367 -0.556573 0
M  V30 795 H 74.4689 -1.6398 -1.23693 0
M  V30 796 H 72.6989 -1.04835 -3.72218 0
M  V30 797 H 74.3879 -1.46226 -3.78646 0
M  V30 798 H 75.1539 -3.81577 -2.99372 0
M  V30 799 H 71.0329 -2.79188 -3.66844 0
M  V30 800 H 74.5769 -6.20925 -3.17958 0
M  V30 801 H 70.4739 -5.17653 -3.85623 0
M  V30 802 H 71.2419 -7.2515 -3.79605 0
M  V30 803 N 73.905 1.17692 -1.04816 0
M  V30 804 C 75.145 1.89545 -0.764979 0
M  V30 805 C 75.509 1.78979 0.695028 0
M  V30 806 O 76.71 2.45613 1.09215 0
M  V30 807 C 74.981 3.35659 -1.22751 0
M  V30 808 S 76.54 4.25526 -1.07112 0
M  V30 809 H 73.358 0.654432 -0.27792 0
M  V30 810 H 75.96 1.42163 -1.34201 0
M  V30 811 H 74.664 3.40882 -2.28533 0
M  V30 812 H 74.195 3.88083 -0.644594 0
M  V30 813 H 76.21 4.962 0.00697508 0
M  V30 814 N 75.3831 0.828654 1.34056 0
M  V30 815 C 76.6301 0.419458 1.98108 0
M  V30 816 C 76.9581 -1.01886 1.65679 0
M  V30 817 O 76.2131 -1.72539 0.923512 0
M  V30 818 C 76.5121 0.575226 3.52741 0
M  V30 819 C 76.1781 1.98012 4.05095 0
M  V30 820 C 74.8401 2.36442 4.19104 0
M  V30 821 C 77.1921 2.89824 4.33188 0
M  V30 822 C 74.5201 3.66009 4.58535 0
M  V30 823 C 76.8721 4.1886 4.74066 0
M  V30 824 C 75.5361 4.5726 4.86281 0
M  V30 825 H 74.8061 0.153491 0.724929 0
M  V30 826 H 77.4531 1.05371 1.59904 0
M  V30 827 H 75.7581 -0.142385 3.91541 0
M  V30 828 H 77.4551 0.239057 4.00287 0
M  V30 829 H 74.0451 1.67162 3.94658 0
M  V30 830 H 78.2291 2.61375 4.21897 0
M  V30 831 H 73.4851 3.95579 4.66184 0
M  V30 832 H 77.6591 4.90086 4.94761 0
M  V30 833 H 75.2861 5.57707 5.16592 0
M  V30 834 N 76.8612 -1.46375 0.584142 0
M  V30 835 C 77.8112 -2.27371 -0.169232 0
M  V30 836 C 78.7952 -1.35955 -0.860523 0
M  V30 837 O 79.9872 -1.60119 -0.754382 0
M  V30 838 C 77.1162 -3.22334 -1.18134 0
M  V30 839 C 76.2022 -4.21235 -0.492088 0
M  V30 840 N 76.5932 -5.03766 0.453129 0
M  V30 841 C 74.8912 -4.39773 -0.742652 0
M  V30 842 C 75.5922 -5.75366 0.85609 0
M  V30 843 N 74.5682 -5.43214 0.204926 0
M  V30 844 H 78.3702 -2.88572 0.557097 0
M  V30 845 H 75.8842 -1.57242 0.406042 0
M  V30 846 H 77.8812 -3.79071 -1.73525 0
M  V30 847 H 76.5412 -2.62693 -1.90847 0
M  V30 848 H 77.5522 -5.11227 0.828723 0
M  V30 849 H 74.2292 -3.91279 -1.45625 0
M  V30 850 H 75.6192 -6.5172 1.63434 0
M  V30 851 N 78.3393 -0.321999 -1.54275 0
M  V30 852 C 79.6163 0.335232 -1.92706 0
M  V30 853 C 79.9963 1.70006 -1.25145 0
M  V30 854 O 79.3443 2.25067 -0.394596 0
M  V30 855 C 79.5543 0.429008 -3.46353 0
M  V30 856 C 80.9023 0.690029 -4.18956 0
M  V30 857 O 81.9263 0.511992 -3.52501 0
M  V30 858 O 80.7853 1.03338 -5.36641 0
M  V30 859 H 77.8793 0.191143 -0.804608 0
M  V30 860 H 80.4253 -0.3716 -1.65581 0
M  V30 861 H 79.1973 -0.529611 -3.87699 0
M  V30 862 H 78.8203 1.18348 -3.79578 0
M  V30 863 N 79.8174 1.5752 -0.0501392 0
M  V30 864 C 81.0664 1.91827 0.623328 0
M  V30 865 C 81.3794 0.930222 1.72065 0
M  V30 866 O 82.5854 1.1653 2.4522 0
M  V30 867 C 81.0414 3.40692 1.16003 0
M  V30 868 C 80.6494 4.479 0.0948811 0
M  V30 869 C 82.3934 3.84034 1.80881 0
M  V30 870 C 80.3004 5.87879 0.644411 0
M  V30 871 H 79.2304 0.715918 0.236596 0
M  V30 872 H 81.8814 1.83115 -0.118861 0
M  V30 873 H 80.2634 3.44405 1.9545 0
M  V30 874 H 81.4374 4.55775 -0.678675 0
M  V30 875 H 79.7524 4.13892 -0.45637 0
M  V30 876 H 82.3494 4.85984 2.22988 0
M  V30 877 H 82.6924 3.20225 2.6601 0
M  V30 878 H 83.2254 3.82833 1.0809 0
M  V30 879 H 79.9644 6.55282 -0.169229 0
M  V30 880 H 79.4844 5.83567 1.38598 0
M  V30 881 H 81.1634 6.37098 1.12763 0
M  V30 882 N 81.2955 -0.223234 1.56011 0
M  V30 883 C 82.2585 -1.26014 1.9145 0
M  V30 884 C 83.2585 -1.3989 0.792937 0
M  V30 885 O 84.4485 -1.38184 1.0607 0
M  V30 886 C 81.5805 -2.63422 2.16383 0
M  V30 887 H 82.7735 -0.95796 2.84189 0
M  V30 888 H 80.3265 -0.463576 1.49267 0
M  V30 889 H 81.0615 -2.98741 1.2619 0
M  V30 890 H 80.8465 -2.54728 2.98088 0
M  V30 891 H 82.3365 -3.38249 2.44903 0
M  V30 892 N 82.7736 -1.49793 -0.48987 0
M  V30 893 C 84.0136 -1.61466 -1.25332 0
M  V30 894 C 84.3776 -0.299688 -1.89647 0
M  V30 895 O 85.5786 -0.291687 -2.67213 0
M  V30 896 C 83.8496 -2.74944 -2.28343 0
M  V30 897 S 85.4086 -3.06637 -3.13878 0
M  V30 898 H 82.2266 -0.569411 -0.425784 0
M  V30 899 H 84.8286 -1.875 -0.553541 0
M  V30 900 H 83.5326 -3.68994 -1.79643 0
M  V30 901 H 83.0636 -2.50938 -3.02975 0
M  V30 902 H 85.0786 -2.49015 -4.29192 0
M  V30 903 N 84.2517 0.741722 -1.39055 0
M  V30 904 C 85.5287 1.49252 -1.26425 0
M  V30 905 C 85.9087 2.10705 0.129144 0
M  V30 906 O 85.2567 1.98045 1.13976 0
M  V30 907 C 85.4667 2.54934 -2.38347 0
M  V30 908 C 86.8147 3.21506 -2.77343 0
M  V30 909 O 87.8387 2.65245 -2.37747 0
M  V30 910 O 86.6977 4.23294 -3.45665 0
M  V30 911 H 83.7917 0.662451 -0.495064 0
M  V30 912 H 86.3377 0.776121 -1.50912 0
M  V30 913 H 85.1097 2.07857 -3.31529 0
M  V30 914 H 84.7327 3.34141 -2.15489 0
M  V30 915 N 85.7298 1.2412 0.971189 0
M  V30 916 C 87.1458 1.00584 1.23916 0
M  V30 917 C 87.3458 -0.287481 1.99439 0
M  V30 918 O 86.4018 -1.00454 2.31658 0
M  V30 919 C 87.7148 2.21864 2.0297 0
M  V30 920 C 89.2628 2.26452 2.16076 0
M  V30 921 C 89.7378 3.47343 2.98524 0
M  V30 922 N 91.2288 3.47639 3.06107 0
M  V30 923 C 91.9638 4.37837 3.70251 0
M  V30 924 N 91.4598 5.38286 4.36142 0
M  V30 925 N 93.2528 4.25558 3.67228 0
M  V30 926 H 85.4038 2.07236 0.465499 0
M  V30 927 H 87.6668 0.909236 0.268315 0
M  V30 928 H 87.3728 3.15771 1.54861 0
M  V30 929 H 87.2468 2.23698 3.03709 0
M  V30 930 H 89.6338 1.33078 2.6339 0
M  V30 931 H 89.7148 2.28645 1.14696 0
M  V30 932 H 89.3588 4.41029 2.51905 0
M  V30 933 H 89.2888 3.42393 4.00093 0
M  V30 934 H 91.7798 2.74966 2.59233 0
M  V30 935 H 92.0928 6.03352 4.82894 0
M  V30 936 H 90.4378 5.42176 4.34822 0
M  V30 937 H 93.6288 3.46322 3.14927 0
M  V30 938 H 93.8018 4.96054 4.16935 0
M  V30 939 N 87.2079 -1.17134 1.05439 0
M  V30 940 C 88.1179 -2.24878 0.668365 0
M  V30 941 C 89.1339 -1.71186 -0.311687 0
M  V30 942 O 90.3099 -2.00738 -0.163161 0
M  V30 943 C 87.3749 -3.46662 0.051648 0
M  V30 944 C 86.4359 -4.15429 1.08246 0
M  V30 945 C 85.6689 -5.31399 0.495082 0
M  V30 946 O 85.8919 -5.66153 -0.694743 0
M  V30 947 O 84.8259 -5.89187 1.23056 0
M  V30 948 H 88.6519 -2.60189 1.56637 0
M  V30 949 H 86.2369 -1.24482 0.826104 0
M  V30 950 H 88.1189 -4.20394 -0.290966 0
M  V30 951 H 86.7939 -3.13142 -0.819971 0
M  V30 952 H 85.7009 -3.43704 1.47711 0
M  V30 953 H 87.0339 -4.52982 1.92532 0
M  V30 954 N 88.686 -0.835752 -1.33615 0
M  V30 955 C 89.634 -0.255238 -2.31195 0
M  V30 956 C 90.628 0.61107 -1.57995 0
M  V30 957 O 91.834 0.500979 -1.72888 0
M  V30 958 H 88.209 -0.0638085 -0.749288 0
M  V30 959 H 90.18 -1.09283 -2.77669 0
M  V30 960 C 88.929 0.55754 -3.43201 0
M  V30 961 H 88.252 -0.0997553 -3.99676 0
M  V30 962 H 89.692 0.929622 -4.13683 0
M  V30 963 C 88.151 1.73515 -2.88781 0
M  V30 964 O 88.681 2.83376 -2.84712 0
M  V30 965 N 86.887 1.55603 -2.4543 0
M  V30 966 H 86.434 0.662354 -2.48939 0
M  V30 967 H 86.392 2.34545 -2.09371 0
M  V30 968 N 90.1641 1.46063 -0.591896 0
M  V30 969 C 91.1111 2.30399 0.136069 0
M  V30 970 C 92.0811 1.41169 0.875238 0
M  V30 971 O 93.2661 1.70112 0.86409 0
M  V30 972 C 90.4061 3.25804 1.13781 0
M  V30 973 C 89.5191 4.30134 0.401137 0
M  V30 974 C 88.6541 5.12659 1.39121 0
M  V30 975 C 87.6931 6.0873 0.641462 0
M  V30 976 N 86.8301 6.8409 1.58004 0
M  V30 977 H 91.6701 2.92118 -0.589144 0
M  V30 978 H 89.2071 1.43959 -0.302342 0
M  V30 979 H 91.1651 3.79569 1.73156 0
M  V30 980 H 89.7951 2.65872 1.83062 0
M  V30 981 H 88.8471 3.79152 -0.307826 0
M  V30 982 H 90.1591 4.98458 -0.184565 0
M  V30 983 H 89.3131 5.70747 2.05749 0
M  V30 984 H 88.0521 4.44316 2.01084 0
M  V30 985 H 87.0571 5.49786 -0.0385419 0
M  V30 986 H 88.2821 6.79095 0.0270945 0
M  V30 987 H 86.2281 6.18449 2.18761 0
M  V30 988 H 86.1451 7.48709 1.04738 0
M  V30 989 H 87.4131 7.4673 2.23639 0
M  V30 990 N 91.6422 0.330177 1.54103 0
M  V30 991 C 92.8882 -0.270806 2.00984 0
M  V30 992 C 93.2212 -1.51265 1.21789 0
M  V30 993 O 92.4962 -1.92142 0.301927 0
M  V30 994 C 92.7792 -0.598339 3.55094 0
M  V30 995 C 92.6322 0.654674 4.4501 0
M  V30 996 C 93.9512 -1.41334 4.16789 0
M  V30 997 H 91.0702 -0.0969531 0.730595 0
M  V30 998 H 93.7122 0.448066 1.84641 0
M  V30 999 H 91.8622 -1.21078 3.69151 0
M  V30 1000 H 93.5342 1.29285 4.42813 0
M  V30 1001 H 91.7772 1.28224 4.14416 0
M  V30 1002 H 92.4482 0.380944 5.50684 0
M  V30 1003 H 94.9242 -0.895597 4.06347 0
M  V30 1004 H 93.8002 -1.61127 5.24718 0
M  V30 1005 H 94.0612 -2.41146 3.70541 0
M  V30 1006 N 93.1203 -1.57491 0.0584922 0
M  V30 1007 C 94.3663 -1.93264 -0.614558 0
M  V30 1008 C 94.6993 -0.937717 -1.7006 0
M  V30 1009 O 93.9743 0.0351652 -1.94468 0
M  V30 1010 C 94.2573 -3.3938 -1.20386 0
M  V30 1011 C 94.1103 -4.49625 -0.125375 0
M  V30 1012 C 95.4293 -3.86039 -2.11334 0
M  V30 1013 H 92.5483 -0.702791 -0.221933 0
M  V30 1014 H 95.1903 -1.8961 0.12175 0
M  V30 1015 H 93.3403 -3.42626 -1.83139 0
M  V30 1016 H 95.0123 -4.58506 0.506971 0
M  V30 1017 H 93.2553 -4.30354 0.545672 0
M  V30 1018 H 93.9263 -5.48967 -0.577861 0
M  V30 1019 H 96.4023 -3.84716 -1.58534 0
M  V30 1020 H 95.2783 -4.88914 -2.49507 0
M  V30 1021 H 95.5393 -3.23215 -3.01636 0
M  V30 1022 N 94.5984 0.214957 -1.56127 0
M  V30 1023 C 95.8474 0.936451 -1.78643 0
M  V30 1024 C 96.1604 1.85237 -0.628229 0
M  V30 1025 O 97.3664 2.613 -0.737186 0
M  V30 1026 C 95.8224 1.7154 -3.16389 0
M  V30 1027 C 95.4304 0.845299 -4.39953 0
M  V30 1028 C 97.1744 2.42772 -3.48227 0
M  V30 1029 C 95.0814 1.62198 -5.68723 0
M  V30 1030 H 94.0114 0.353401 -0.666051 0
M  V30 1031 H 96.6624 0.190169 -1.82512 0
M  V30 1032 H 95.0444 2.50484 -3.06715 0
M  V30 1033 H 96.2184 0.0959353 -4.607 0
M  V30 1034 H 94.5334 0.244789 -4.1568 0
M  V30 1035 H 97.1304 3.01394 -4.41663 0
M  V30 1036 H 97.4734 3.15984 -2.71035 0
M  V30 1037 H 98.0064 1.70813 -3.5926 0
M  V30 1038 H 94.7454 0.933011 -6.48826 0
M  V30 1039 H 94.2654 2.34579 -5.52026 0
M  V30 1040 H 95.9444 2.18095 -6.09133 0
M  V30 1041 N 96.0765 1.50051 0.48192 0
M  V30 1042 C 97.0065 1.71046 1.58951 0
M  V30 1043 C 97.9875 0.559288 1.60642 0
M  V30 1044 O 99.1725 0.797243 1.77081 0
M  V30 1045 C 96.3025 1.79462 2.97339 0
M  V30 1046 C 95.2565 2.94558 3.10515 0
M  V30 1047 C 94.5825 2.88105 4.50444 0
M  V30 1048 C 95.8825 4.35227 2.88747 0
M  V30 1049 H 97.5765 2.6378 1.41635 0
M  V30 1050 H 95.1225 1.26936 0.679942 0
M  V30 1051 H 97.0755 1.92734 3.74742 0
M  V30 1052 H 95.7995 0.833412 3.15788 0
M  V30 1053 H 94.4585 2.80918 2.35543 0
M  V30 1054 H 94.1065 1.89853 4.65795 0
M  V30 1055 H 93.8065 3.65366 4.60197 0
M  V30 1056 H 95.3305 3.03412 5.29881 0
M  V30 1057 H 96.7445 4.49449 3.55905 0
M  V30 1058 H 95.1415 5.13856 3.09955 0
M  V30 1059 H 96.2115 4.48347 1.84696 0
M  V30 1060 N 97.5546 -0.734337 1.39446 0
M  V30 1061 C 98.7826 -1.52358 1.39981 0
M  V30 1062 C 99.1976 -1.88799 -0.0054975 0
M  V30 1063 O 98.5546 -1.54146 -0.976998 0
M  V30 1064 C 98.6056 -2.81072 2.27333 0
M  V30 1065 O 98.3266 -2.46178 3.62392 0
M  V30 1066 C 99.8276 -3.75096 2.36259 0
M  V30 1067 H 97.0476 -0.470806 0.478103 0
M  V30 1068 H 99.5916 -0.907339 1.83269 0
M  V30 1069 H 97.7466 -3.39026 1.87457 0
M  V30 1070 H 98.1606 -3.28866 4.08592 0
M  V30 1071 H 99.6346 -4.62305 3.01626 0
M  V30 1072 H 100.112 -4.16892 1.38194 0
M  V30 1073 H 100.718 -3.23061 2.76608 0
M  V30 1074 N 99.0327 -1.24633 -0.964593 0
M  V30 1075 C 100.281 -1.08573 -1.70459 0
M  V30 1076 C 100.602 0.375655 -1.91347 0
M  V30 1077 O 99.8717 1.26779 -1.49345 0
M  V30 1078 H 98.4517 -0.398784 -0.631649 0
M  V30 1079 H 101.114 -1.56601 -1.16026 0
M  V30 1080 H 100.21 -1.58623 -2.68785 0
M  V30 1081 N 100.511 1.16574 -1.06058 0
M  V30 1082 C 101.739 1.90952 -0.796552 0
M  V30 1083 C 102.154 1.77302 0.648808 0
M  V30 1084 O 101.511 1.11605 1.44397 0
M  V30 1085 C 101.562 3.41736 -1.17894 0
M  V30 1086 O 101.283 3.54975 -2.56758 0
M  V30 1087 C 102.784 4.33169 -0.942308 0
M  V30 1088 H 100.004 0.605594 -0.288959 0
M  V30 1089 H 102.548 1.47777 -1.41358 0
M  V30 1090 H 100.703 3.82623 -0.606491 0
M  V30 1091 H 101.117 4.4846 -2.72 0
M  V30 1092 H 102.591 5.37439 -1.25952 0
M  V30 1093 H 103.068 4.3903 0.122078 0
M  V30 1094 H 103.674 3.98007 -1.49902 0
M  V30 1095 N 101.989 0.842826 1.3317 0
M  V30 1096 C 103.237 0.439577 1.97262 0
M  V30 1097 C 103.558 -1.00548 1.67078 0
M  V30 1098 O 102.828 -1.70098 0.971779 0
M  V30 1099 H 101.408 0.159558 0.72976 0
M  V30 1100 H 104.07 1.07665 1.62463 0
M  V30 1101 H 103.166 0.574886 3.0676 0
M  V30 1102 N 103.467 -1.45747 0.599634 0
M  V30 1103 C 104.878 -1.85853 0.177681 0
M  V30 1104 C 105.229 -1.50102 -1.26348 0
M  V30 1105 O 104.354 -0.923905 -1.95686 0
M  V30 1106 C 104.949 -3.37326 0.315688 0
M  V30 1107 C 103.508 -3.76365 -0.0515144 0
M  V30 1108 C 102.655 -2.69722 0.643822 0
M  V30 1109 H 105.606 -1.36661 0.806814 0
M  V30 1110 H 105.627 -3.77778 -0.454321 0
M  V30 1111 H 105.139 -3.63315 1.36468 0
M  V30 1112 H 103.24 -3.55993 -1.09999 0
M  V30 1113 H 103.353 -4.77916 0.336594 0
M  V30 1114 H 101.717 -2.54567 0.0822881 0
M  V30 1115 H 102.5 -2.98549 1.6948 0
M  V30 1116 N 104.945 -0.338344 -1.53925 0
M  V30 1117 C 106.17 0.263987 -2.05713 0
M  V30 1118 C 106.595 1.43847 -1.21201 0
M  V30 1119 O 105.953 1.79904 -0.224535 0
M  V30 1120 C 106.001 0.662 -3.54471 0
M  V30 1121 O 105.105 1.76265 -3.72833 0
M  V30 1122 H 104.446 0.0448722 -0.662482 0
M  V30 1123 H 106.976 -0.491048 -1.9862 0
M  V30 1124 H 106.986 0.940594 -3.9701 0
M  V30 1125 H 105.661 -0.196937 -4.15433 0
M  V30 1126 H 104.238 1.48173 -3.42198 0
M  V30 1127 N 106.423 1.57458 -0.0668435 0
M  V30 1128 C 107.67 1.93301 0.603406 0
M  V30 1129 C 107.998 0.946486 1.69917 0
M  V30 1130 O 107.253 -0.0387021 1.95662 0
M  V30 1131 C 107.552 3.35784 1.22409 0
M  V30 1132 C 107.218 4.50179 0.254955 0
M  V30 1133 C 105.88 4.81199 -0.0116746 0
M  V30 1134 C 108.232 5.19598 -0.408338 0
M  V30 1135 C 105.56 5.78978 -0.94877 0
M  V30 1136 C 107.912 6.18381 -1.33372 0
M  V30 1137 C 106.576 6.47821 -1.60887 0
M  V30 1138 H 105.846 0.707338 0.220802 0
M  V30 1139 H 108.493 1.91012 -0.136665 0
M  V30 1140 H 106.798 3.34515 2.03978 0
M  V30 1141 H 108.495 3.60804 1.74989 0
M  V30 1142 H 105.085 4.25983 0.472954 0
M  V30 1143 H 109.269 4.95832 -0.215456 0
M  V30 1144 H 104.525 6.00115 -1.16925 0
M  V30 1145 H 108.699 6.71277 -1.85367 0
M  V30 1146 H 106.326 7.23399 -2.33661 0
M  V30 1147 N 107.901 -0.206675 1.56239 0
M  V30 1148 C 109.141 -0.93574 1.81723 0
M  V30 1149 C 109.505 -1.80927 0.642609 0
M  V30 1150 O 110.706 -2.57323 0.777081 0
M  V30 1151 C 108.977 -1.74012 3.12177 0
M  V30 1152 S 110.536 -2.52279 3.59028 0
M  V30 1153 H 107.354 -0.314065 0.637875 0
M  V30 1154 H 109.956 -0.200071 1.94474 0
M  V30 1155 H 108.66 -1.0888 3.95693 0
M  V30 1156 H 108.191 -2.51782 3.02274 0
M  V30 1157 H 110.206 -3.76209 3.23545 0
M  V30 1158 N 109.379 -1.50304 -0.473955 0
M  V30 1159 C 110.327 -1.69482 -1.59307 0
M  V30 1160 C 111.321 -0.560669 -1.59853 0
M  V30 1161 O 112.527 -0.741087 -1.64036 0
M  V30 1162 H 108.902 -0.534892 -0.528578 0
M  V30 1163 H 110.873 -2.63364 -1.40293 0
M  V30 1164 C 109.622 -1.80354 -2.97267 0
M  V30 1165 H 108.945 -2.67012 -2.97564 0
M  V30 1166 H 110.385 -1.97798 -3.75036 0
M  V30 1167 C 108.844 -0.55448 -3.32306 0
M  V30 1168 O 109.374 0.307661 -4.0052 0
M  V30 1169 N 107.58 -0.409354 -2.87702 0
M  V30 1170 H 107.127 -1.11196 -2.32364 0
M  V30 1171 H 107.085 0.425223 -3.11511 0
M  V30 1172 N 110.857 0.726932 -1.39834 0
M  V30 1173 C 111.767 1.87131 -1.41489 0
M  V30 1174 C 112.783 1.71239 -0.308757 0
M  V30 1175 O 113.959 1.93701 -0.551529 0
M  V30 1176 C 111.024 3.22811 -1.26468 0
M  V30 1177 C 110.085 3.51039 -2.47124 0
M  V30 1178 C 109.318 4.80245 -2.3281 0
M  V30 1179 O 109.541 5.54537 -1.33585 0
M  V30 1180 O 108.475 5.08554 -3.21957 0
M  V30 1181 H 112.301 1.8869 -2.3797 0
M  V30 1182 H 109.886 0.875837 -1.21035 0
M  V30 1183 H 111.768 4.03877 -1.20255 0
M  V30 1184 H 110.443 3.22005 -0.330862 0
M  V30 1185 H 109.35 2.70027 -2.58914 0
M  V30 1186 H 110.683 3.56632 -3.39227 0
M  V30 1187 N 112.336 1.25143 0.95797 0
M  V30 1188 C 113.585 1.0909 1.69654 0
M  V30 1189 C 113.898 -0.368548 1.92097 0
M  V30 1190 O 115.104 -0.649455 2.63618 0
M  V30 1191 C 113.56 1.90395 3.05414 0
M  V30 1192 C 113.168 3.4081 2.90779 0
M  V30 1193 C 114.912 1.82901 3.83076 0
M  V30 1194 C 112.819 4.14423 4.21909 0
M  V30 1195 H 111.749 0.404625 0.636235 0
M  V30 1196 H 114.4 1.4931 1.06672 0
M  V30 1197 H 112.782 1.42996 3.69281 0
M  V30 1198 H 113.956 3.95859 2.35865 0
M  V30 1199 H 112.271 3.49361 2.26575 0
M  V30 1200 H 114.868 2.35196 4.80195 0
M  V30 1201 H 115.211 0.796224 4.08615 0
M  V30 1202 H 115.744 2.28033 3.25954 0
M  V30 1203 H 112.483 5.18102 4.01561 0
M  V30 1204 H 112.003 3.64159 4.76601 0
M  V30 1205 H 113.682 4.21956 4.90471 0
M  V30 1206 N 113.814 -1.1601 1.06675 0
M  V30 1207 C 115.091 -1.82679 0.699114 0
M  V30 1208 C 115.471 -1.94559 -0.819137 0
M  V30 1209 O 114.819 -1.49169 -1.73092 0
M  V30 1210 C 115.029 -3.19445 1.40555 0
M  V30 1211 C 116.377 -3.95171 1.55323 0
M  V30 1212 O 117.401 -3.28976 1.36577 0
M  V30 1213 O 116.26 -5.13833 1.86112 0
M  V30 1214 H 113.354 -0.788954 0.247951 0
M  V30 1215 H 115.9 -1.23179 1.16726 0
M  V30 1216 H 114.672 -3.05856 2.44065 0
M  V30 1217 H 114.295 -3.86625 0.927733 0
M  V30 1218 N 115.292 -0.849877 -1.32721 0
M  V30 1219 C 116.539 -0.450923 -1.97416 0
M  V30 1220 C 116.867 0.992376 -1.67279 0
M  V30 1221 O 116.122 1.71048 -0.950845 0
M  V30 1222 C 116.421 -0.631272 -3.51781 0
M  V30 1223 C 116.087 -2.04432 -4.01894 0
M  V30 1224 C 114.749 -2.4308 -4.1529 0
M  V30 1225 C 117.101 -2.96679 -4.28522 0
M  V30 1226 C 114.429 -3.73257 -4.52654 0
M  V30 1227 C 116.781 -4.26349 -4.67343 0
M  V30 1228 C 115.445 -4.64939 -4.78945 0
M  V30 1229 H 114.715 -0.165004 -0.722395 0
M  V30 1230 H 117.362 -1.07901 -1.58207 0
M  V30 1231 H 115.667 0.0800767 -3.91718 0
M  V30 1232 H 117.364 -0.302709 -3.99856 0
M  V30 1233 H 113.954 -1.73419 -3.91949 0
M  V30 1234 H 118.138 -2.68054 -4.17685 0
M  V30 1235 H 113.394 -4.02946 -4.59831 0
M  V30 1236 H 117.568 -4.97895 -4.86902 0
M  V30 1237 H 115.195 -5.65855 -5.07654 0
M  V30 1238 N 116.77 1.45427 -0.607355 0
M  V30 1239 C 117.998 2.06614 -0.108814 0
M  V30 1240 C 118.413 1.45204 1.2067 0
M  V30 1241 O 117.77 0.566132 1.73497 0
M  V30 1242 C 117.821 3.61481 0.0375347 0
M  V30 1243 O 117.542 4.20598 -1.22593 0
M  V30 1244 C 119.043 4.39652 0.567561 0
M  V30 1245 H 116.263 0.66747 -0.0687351 0
M  V30 1246 H 118.807 1.86675 -0.835022 0
M  V30 1247 H 116.962 3.80762 0.714068 0
M  V30 1248 H 117.376 5.1377 -1.05547 0
M  V30 1249 H 118.85 5.48518 0.61905 0
M  V30 1250 H 119.327 4.09417 1.58978 0
M  V30 1251 H 119.933 4.25234 -0.0749202 0
M  V30 1252 N 118.248 0.346503 1.53744 0
M  V30 1253 C 119.473 -0.253074 2.0585 0
M  V30 1254 C 119.898 -1.43202 1.21962 0
M  V30 1255 O 119.256 -1.79783 0.234073 0
M  V30 1256 C 119.304 -0.643193 3.54817 0
M  V30 1257 O 118.408 -1.74286 3.73762 0
M  V30 1258 H 117.749 -0.0413583 0.662711 0
M  V30 1259 H 120.279 0.501574 1.98357 0
M  V30 1260 H 120.289 -0.919526 3.97503 0
M  V30 1261 H 118.964 0.218966 4.15323 0
M  V30 1262 H 117.541 -1.46356 3.42979 0
M  V30 1263 N 119.726 -1.57421 0.075193 0
M  V30 1264 C 120.973 -1.93618 -0.593146 0
M  V30 1265 C 121.301 -0.955484 -1.69413 0
M  V30 1266 O 120.556 0.0283251 -1.9568 0
M  V30 1267 C 120.855 -3.36428 -1.20626 0
M  V30 1268 C 120.521 -4.50307 -0.231078 0
M  V30 1269 C 119.183 -4.81186 0.0371936 0
M  V30 1270 C 121.535 -5.19374 0.435888 0
M  V30 1271 C 118.863 -5.78466 0.979461 0
M  V30 1272 C 121.215 -6.17665 1.3665 0
M  V30 1273 C 119.879 -6.46958 1.6432 0
M  V30 1274 H 119.149 -0.708499 -0.217047 0
M  V30 1275 H 121.796 -1.90937 0.146793 0
M  V30 1276 H 120.101 -3.35592 -2.02201 0
M  V30 1277 H 121.798 -3.61727 -1.73073 0
M  V30 1278 H 118.388 -4.26227 -0.450357 0
M  V30 1279 H 122.572 -4.95711 0.241748 0
M  V30 1280 H 117.828 -5.99487 1.20106 0
M  V30 1281 H 122.002 -6.70284 1.88924 0
M  V30 1282 H 119.629 -7.2215 2.37494 0
M  V30 1283 N 121.204 0.198386 -1.56346 0
M  V30 1284 C 122.152 1.26538 -1.95169 0
M  V30 1285 C 123.146 1.47295 -0.836685 0
M  V30 1286 O 124.352 1.48195 -1.02167 0
M  V30 1287 H 120.727 0.424744 -0.620561 0
M  V30 1288 H 122.698 0.910904 -2.84157 0
M  V30 1289 C 121.447 2.6035 -2.30463 0
M  V30 1290 H 120.77 2.45192 -3.15786 0
M  V30 1291 H 122.21 3.33762 -2.61494 0
M  V30 1292 C 120.669 3.17096 -1.13806 0
M  V30 1293 O 121.199 3.99588 -0.41135 0
M  V30 1294 N 119.405 2.75795 -0.915736 0
M  V30 1295 H 118.952 2.08816 -1.50843 0
M  V30 1296 H 118.91 3.14101 -0.136979 0
M  V30 1297 N 122.682 1.50554 0.465978 0
M  V30 1298 C 123.612 1.72722 1.57128 0
M  V30 1299 C 124.593 0.576294 1.6004 0
M  V30 1300 O 125.778 0.81598 1.76225 0
M  V30 1301 C 122.908 1.82605 2.95419 0
M  V30 1302 C 121.862 2.97835 3.07373 0
M  V30 1303 C 121.188 2.92867 4.47363 0
M  V30 1304 C 122.488 4.38265 2.84114 0
M  V30 1305 H 124.182 2.65267 1.38829 0
M  V30 1306 H 121.728 1.2765 0.666441 0
M  V30 1307 H 123.681 1.96698 3.72677 0
M  V30 1308 H 122.405 0.866858 3.14886 0
M  V30 1309 H 121.064 2.83401 2.3255 0
M  V30 1310 H 120.712 1.94783 4.63755 0
M  V30 1311 H 120.412 3.70227 4.56296 0
M  V30 1312 H 121.936 3.09015 5.26633 0
M  V30 1313 H 123.35 4.53198 3.51118 0
M  V30 1314 H 121.747 5.17115 3.04487 0
M  V30 1315 H 122.817 4.50281 1.7993 0
M  V30 1316 N 124.16 -0.719506 1.40217 0
M  V30 1317 C 125.408 -1.47641 1.3801 0
M  V30 1318 C 125.729 -1.94992 -0.018145 0
M  V30 1319 O 124.999 -1.70073 -0.972207 0
M  V30 1320 H 123.579 -0.547744 0.507923 0
M  V30 1321 H 126.241 -0.853187 1.75233 0
M  V30 1322 H 125.337 -2.35112 2.05253 0
M  V30 1323 N 125.638 -1.25649 -0.95132 0
M  V30 1324 C 126.866 -1.13343 -1.73092 0
M  V30 1325 C 127.281 0.312434 -1.86197 0
M  V30 1326 O 126.638 1.21465 -1.36207 0
M  V30 1327 C 126.689 -1.78602 -3.14299 0
M  V30 1328 O 126.41 -3.17537 -3.01831 0
M  V30 1329 C 127.911 -1.72119 -4.08522 0
M  V30 1330 H 125.131 -0.395181 -0.542285 0
M  V30 1331 H 127.675 -1.66076 -1.19328 0
M  V30 1332 H 125.83 -1.29832 -3.64996 0
M  V30 1333 H 126.244 -3.49676 -3.90931 0
M  V30 1334 H 127.718 -2.22435 -5.052 0
M  V30 1335 H 128.195 -0.685635 -4.33815 0
M  V30 1336 H 128.801 -2.20393 -3.63741 0
M  V30 1337 N 127.117 1.15442 -1.07289 0
M  V30 1338 C 128.528 1.67803 -0.818475 0
M  V30 1339 C 128.879 1.8489 0.656507 0
M  V30 1340 O 128.004 1.55176 1.50829 0
M  V30 1341 C 128.599 3.04805 -1.47917 0
M  V30 1342 C 127.158 3.54245 -1.27229 0
M  V30 1343 C 126.305 2.29986 -1.54925 0
M  V30 1344 H 129.256 0.996646 -1.23502 0
M  V30 1345 H 129.277 3.69702 -0.90005 0
M  V30 1346 H 128.789 2.92336 -2.55267 0
M  V30 1347 H 126.89 3.71956 -0.21899 0
M  V30 1348 H 127.003 4.35723 -1.99203 0
M  V30 1349 H 125.367 2.35496 -0.970242 0
M  V30 1350 H 126.15 2.20105 -2.63455 0
M  V30 1351 N 128.595 0.856903 1.32268 0
M  V30 1352 C 129.545 0.274899 2.26337 0
M  V30 1353 C 130.529 -0.580543 1.50062 0
M  V30 1354 O 131.721 -0.429559 1.71708 0
M  V30 1355 C 128.85 -0.533841 3.39124 0
M  V30 1356 C 127.936 0.334114 4.22782 0
M  V30 1357 N 128.327 1.42143 4.85416 0
M  V30 1358 C 126.625 0.124256 4.45827 0
M  V30 1359 C 127.326 1.95559 5.47843 0
M  V30 1360 N 126.302 1.25444 5.28928 0
M  V30 1361 H 130.104 1.10612 2.72291 0
M  V30 1362 H 127.618 0.703258 1.46383 0
M  V30 1363 H 129.615 -0.96722 4.05525 0
M  V30 1364 H 128.275 -1.36283 2.94715 0
M  V30 1365 H 129.286 1.80436 4.85451 0
M  V30 1366 H 125.963 -0.669837 4.12092 0
M  V30 1367 H 127.353 2.86714 6.07655 0
M  V30 1368 N 130.073 -1.45103 0.615059 0
M  V30 1369 C 131.35 -1.95549 0.0448276 0
M  V30 1370 C 131.73 -1.55737 -1.4251 0
M  V30 1371 O 131.078 -0.823556 -2.13143 0
M  V30 1372 C 131.288 -3.48098 0.250785 0
M  V30 1373 C 132.636 -4.24384 0.135509 0
M  V30 1374 O 133.66 -3.55738 0.181299 0
M  V30 1375 O 132.519 -5.46493 0.0268878 0
M  V30 1376 H 129.613 -0.8264 -0.0314845 0
M  V30 1377 H 132.159 -1.55232 0.685642 0
M  V30 1378 H 130.931 -3.7007 1.27139 0
M  V30 1379 H 130.554 -3.95323 -0.424937 0
M  V30 1380 N 131.551 -0.354651 -1.53558 0
M  V30 1381 C 132.797 0.231422 -2.02079 0
M  V30 1382 C 133.152 1.47308 -1.23767 0
M  V30 1383 O 132.445 1.8891 -0.319947 0
M  V30 1384 C 132.639 0.587121 -3.52545 0
M  V30 1385 C 132.468 -0.618513 -4.45426 0
M  V30 1386 C 131.238 -1.12724 -4.92566 0
M  V30 1387 C 133.436 -1.48039 -4.92533 0
M  V30 1388 N 131.418 -2.29404 -5.69427 0
M  V30 1389 C 132.789 -2.49397 -5.67628 0
M  V30 1390 C 134.844 -1.50454 -4.74624 0
M  V30 1391 C 133.547 -3.53013 -6.26717 0
M  V30 1392 C 135.573 -2.52958 -5.34571 0
M  V30 1393 C 134.935 -3.5304 -6.09543 0
M  V30 1394 H 131.034 0.0476909 -0.780544 0
M  V30 1395 H 133.618 -0.496727 -1.88257 0
M  V30 1396 H 131.789 1.28436 -3.6655 0
M  V30 1397 H 133.521 1.15734 -3.87799 0
M  V30 1398 H 130.276 -0.693577 -4.68494 0
M  V30 1399 H 130.7 -2.88347 -6.12524 0
M  V30 1400 H 135.342 -0.744356 -4.16196 0
M  V30 1401 H 133.06 -4.2992 -6.84247 0
M  V30 1402 H 136.646 -2.55667 -5.22614 0
M  V30 1403 H 135.526 -4.31056 -6.55103 0
M  V30 1404 N 133.029 1.57378 -0.0835403 0
M  V30 1405 C 134.306 1.85363 0.624507 0
M  V30 1406 C 134.686 0.978239 1.87066 0
M  V30 1407 O 134.034 0.0475908 2.2845 0
M  V30 1408 C 134.244 3.35795 0.950947 0
M  V30 1409 C 135.592 4.03581 1.31939 0
M  V30 1410 O 136.616 3.40609 1.04232 0
M  V30 1411 O 135.475 5.14672 1.83779 0
M  V30 1412 H 132.569 0.766162 0.311329 0
M  V30 1413 H 135.115 1.69307 -0.115362 0
M  V30 1414 H 133.887 3.91244 0.0663899 0
M  V30 1415 H 133.51 3.57154 1.74719 0
M  V30 1416 N 134.507 -0.190092 1.56449 0
M  V30 1417 C 135.417 -1.25591 1.98152 0
M  V30 1418 C 136.433 -1.49519 0.889944 0
M  V30 1419 O 137.609 -1.62036 1.19609 0
M  V30 1420 C 134.674 -2.57916 2.3169 0
M  V30 1421 C 133.735 -2.42015 3.5458 0
M  V30 1422 C 132.968 -3.6803 3.8651 0
M  V30 1423 O 133.191 -4.72413 3.1966 0
M  V30 1424 O 132.125 -3.6326 4.79923 0
M  V30 1425 H 135.951 -0.931988 2.89046 0
M  V30 1426 H 133.536 -0.395488 1.4407 0
M  V30 1427 H 135.418 -3.36008 2.54316 0
M  V30 1428 H 134.093 -2.89925 1.43963 0
M  V30 1429 H 133 -1.62017 3.37196 0
M  V30 1430 H 134.333 -2.14937 4.4279 0
M  V30 1431 N 135.985 -1.50799 -0.457987 0
M  V30 1432 C 137.234 -1.6168 -1.20593 0
M  V30 1433 C 137.547 -0.32888 -1.92815 0
M  V30 1434 O 138.753 -0.316773 -2.69646 0
M  V30 1435 C 137.209 -2.8545 -2.19195 0
M  V30 1436 C 136.817 -4.21168 -1.52715 0
M  V30 1437 C 138.561 -3.05681 -2.94549 0
M  V30 1438 C 136.468 -5.3611 -2.4968 0
M  V30 1439 H 135.398 -0.602134 -0.453818 0
M  V30 1440 H 138.049 -1.77245 -0.475031 0
M  V30 1441 H 136.431 -2.63472 -2.95632 0
M  V30 1442 H 137.605 -4.53449 -0.819775 0
M  V30 1443 H 135.92 -4.06648 -0.895922 0
M  V30 1444 H 138.517 -3.88727 -3.67145 0
M  V30 1445 H 138.86 -2.17929 -3.54701 0
M  V30 1446 H 139.393 -3.27901 -2.25223 0
M  V30 1447 H 136.132 -6.26057 -1.94249 0
M  V30 1448 H 135.652 -5.0823 -3.18532 0
M  V30 1449 H 137.331 -5.6722 -3.11241 0
M  V30 1450 N 137.463 0.71206 -1.40597 0
M  V30 1451 C 138.712 1.46754 -1.38369 0
M  V30 1452 C 139.025 1.95598 0.0097839 0
M  V30 1453 O 140.231 2.71059 0.154677 0
M  V30 1454 C 138.687 2.65289 -2.43207 0
M  V30 1455 C 138.295 2.23301 -3.88382 0
M  V30 1456 C 140.039 3.43008 -2.50091 0
M  V30 1457 C 137.946 3.38696 -4.84808 0
M  V30 1458 H 136.876 0.55118 -0.514506 0
M  V30 1459 H 139.527 0.774616 -1.66349 0
M  V30 1460 H 137.909 3.36769 -2.08332 0
M  V30 1461 H 139.083 1.59218 -4.32419 0
M  V30 1462 H 137.398 1.58618 -3.85006 0
M  V30 1463 H 139.995 4.28881 -3.1932 0
M  V30 1464 H 140.338 3.87065 -1.53253 0
M  V30 1465 H 140.871 2.78574 -2.83974 0
M  V30 1466 H 137.61 2.99668 -5.82992 0
M  V30 1467 H 137.13 4.01683 -4.45433 0
M  V30 1468 H 138.809 4.04712 -5.04794 0
M  V30 1469 N 138.941 1.26152 0.944643 0
M  V30 1470 C 140.188 1.11492 1.69044 0
M  V30 1471 C 140.516 -0.342366 1.91463 0
M  V30 1472 O 139.771 -1.26812 1.49054 0
M  V30 1473 C 140.07 1.82541 3.07268 0
M  V30 1474 C 139.736 3.32445 3.04616 0
M  V30 1475 C 138.398 3.73337 3.036 0
M  V30 1476 C 140.75 4.28171 2.97185 0
M  V30 1477 C 138.078 5.08348 2.92915 0
M  V30 1478 C 140.43 5.63218 2.88041 0
M  V30 1479 C 139.094 6.03426 2.85366 0
M  V30 1480 H 138.364 0.407977 0.618576 0
M  V30 1481 H 141.011 1.56551 1.10291 0
M  V30 1482 H 139.316 1.29941 3.69625 0
M  V30 1483 H 141.013 1.68642 3.63815 0
M  V30 1484 H 137.603 2.99915 3.06185 0
M  V30 1485 H 141.787 3.97563 2.97081 0
M  V30 1486 H 137.043 5.38667 2.89219 0
M  V30 1487 H 141.217 6.37078 2.81254 0
M  V30 1488 H 138.844 7.07999 2.76842 0
M  V30 1489 N 140.419 -1.14872 1.07899 0
M  V30 1490 C 141.329 -2.2341 0.715915 0
M  V30 1491 C 142.345 -1.71808 -0.275306 0
M  V30 1492 O 143.521 -2.01039 -0.120545 0
M  V30 1493 C 140.586 -3.46474 0.125168 0
M  V30 1494 C 139.647 -4.13039 1.17034 0
M  V30 1495 C 138.88 -5.30229 0.607688 0
M  V30 1496 O 139.103 -5.675 -0.574497 0
M  V30 1497 O 138.037 -5.86444 1.35526 0
M  V30 1498 H 141.863 -2.56808 1.62121 0
M  V30 1499 H 139.448 -1.22702 0.852322 0
M  V30 1500 H 141.33 -4.20917 -0.201729 0
M  V30 1501 H 140.005 -3.14811 -0.753364 0
M  V30 1502 H 138.912 -3.40493 1.54968 0
M  V30 1503 H 140.245 -4.48796 2.02097 0
M  V30 1504 N 141.898 -0.863906 -1.31812 0
M  V30 1505 C 143.146 -0.470904 -1.96537 0
M  V30 1506 C 143.467 0.978771 -1.68657 0
M  V30 1507 O 142.737 1.6853 -0.998717 0
M  V30 1508 H 141.317 -0.171148 -0.72713 0
M  V30 1509 H 143.979 -1.10236 -1.60729 0
M  V30 1510 H 143.075 -0.623616 -3.05806 0
M  V30 1511 N 143.376 1.44774 -0.622745 0
M  V30 1512 C 144.308 2.28856 0.125485 0
M  V30 1513 C 145.321 1.40811 0.817069 0
M  V30 1514 O 146.51 1.65044 0.679918 0
M  V30 1515 C 143.61 3.16963 1.19949 0
M  V30 1516 C 142.783 4.33374 0.592064 0
M  V30 1517 C 141.842 5.02577 1.55893 0
M  V30 1518 O 140.868 5.58873 1.07933 0
M  V30 1519 N 142.07 5.03256 2.89334 0
M  V30 1520 H 144.835 2.93713 -0.596068 0
M  V30 1521 H 142.396 1.55129 -0.463303 0
M  V30 1522 H 144.388 3.60123 1.84644 0
M  V30 1523 H 142.958 2.53913 1.82337 0
M  V30 1524 H 142.178 3.93509 -0.233322 0
M  V30 1525 H 143.466 5.08527 0.166738 0
M  V30 1526 H 142.864 4.58836 3.30887 0
M  V30 1527 H 141.421 5.50232 3.49412 0
M  V30 1528 N 144.854 0.36279 1.53368 0
M  V30 1529 C 146.27 0.0116182 1.59596 0
M  V30 1530 C 146.47 -1.47012 1.37803 0
M  V30 1531 O 145.526 -2.23136 1.18181 0
M  V30 1532 C 146.839 0.465052 2.97082 0
M  V30 1533 C 148.387 0.419033 3.10182 0
M  V30 1534 C 148.862 0.848235 4.50077 0
M  V30 1535 N 150.353 0.803183 4.56183 0
M  V30 1536 C 151.088 1.107 5.62613 0
M  V30 1537 N 150.584 1.47996 6.76808 0
M  V30 1538 N 152.377 1.02998 5.52583 0
M  V30 1539 H 144.528 1.32775 1.65785 0
M  V30 1540 H 146.791 0.542518 0.777417 0
M  V30 1541 H 146.497 1.49892 3.18159 0
M  V30 1542 H 146.371 -0.149786 3.76902 0
M  V30 1543 H 148.758 -0.605696 2.88817 0
M  V30 1544 H 148.839 1.06933 2.32377 0
M  V30 1545 H 148.483 1.87107 4.7218 0
M  V30 1546 H 148.413 0.175218 5.26308 0
M  V30 1547 H 150.904 0.52838 3.74188 0
M  V30 1548 H 151.217 1.69613 7.53957 0
M  V30 1549 H 149.562 1.51859 6.78206 0
M  V30 1550 H 152.753 0.737817 4.62249 0
M  V30 1551 H 152.926 1.2701 6.35431 0
M  V30 1552 N 146.332 -1.57332 0.0918853 0
M  V30 1553 C 147.262 -2.16872 -0.865371 0
M  V30 1554 C 148.243 -1.10118 -1.29646 0
M  V30 1555 O 149.428 -1.38242 -1.36392 0
M  V30 1556 C 146.558 -2.74649 -2.12569 0
M  V30 1557 C 145.512 -3.86747 -1.83333 0
M  V30 1558 C 144.838 -4.31212 -3.16166 0
M  V30 1559 C 146.138 -5.10089 -1.1228 0
M  V30 1560 H 147.832 -2.97114 -0.369307 0
M  V30 1561 H 145.378 -1.42918 -0.176194 0
M  V30 1562 H 147.331 -3.14952 -2.7997 0
M  V30 1563 H 146.055 -1.91657 -2.64452 0
M  V30 1564 H 144.714 -3.46978 -1.18331 0
M  V30 1565 H 144.362 -3.45115 -3.6593 0
M  V30 1566 H 144.062 -5.06788 -2.97388 0
M  V30 1567 H 145.586 -4.74146 -3.84731 0
M  V30 1568 H 147 -5.47582 -1.69785 0
M  V30 1569 H 145.397 -5.91073 -1.03693 0
M  V30 1570 H 146.467 -4.84786 -0.105041 0
M  V30 1571 N 147.81 0.181792 -1.56548 0
M  V30 1572 C 148.74 1.22765 -1.98623 0
M  V30 1573 C 149.721 1.46747 -0.860189 0
M  V30 1574 O 150.906 1.58259 -1.12551 0
M  V30 1575 C 148.036 2.56894 -2.33715 0
M  V30 1576 C 146.99 2.475 -3.49182 0
M  V30 1577 C 146.316 3.86023 -3.69986 0
M  V30 1578 C 147.616 1.98866 -4.82959 0
M  V30 1579 H 149.31 0.877942 -2.86239 0
M  V30 1580 H 146.856 0.42088 -1.37712 0
M  V30 1581 H 148.809 3.30253 -2.61746 0
M  V30 1582 H 147.533 2.93632 -1.42997 0
M  V30 1583 H 146.192 1.76596 -3.21262 0
M  V30 1584 H 145.84 4.20136 -2.76576 0
M  V30 1585 H 145.54 3.80609 -4.47672 0
M  V30 1586 H 147.064 4.60984 -4.00407 0
M  V30 1587 H 148.478 2.61992 -5.09934 0
M  V30 1588 H 146.875 2.04424 -5.64208 0
M  V30 1589 H 147.945 0.942465 -4.75653 0
M  V30 1590 N 149.288 1.51039 0.449983 0
M  V30 1591 C 150.236 1.71995 1.5659 0
M  V30 1592 C 151.23 0.586029 1.5894 0
M  V30 1593 O 152.436 0.76709 1.62837 0
M  V30 1594 H 148.811 0.543233 0.520001 0
M  V30 1595 H 150.782 2.65562 1.36085 0
M  V30 1596 C 149.531 1.8506 2.9436 0
M  V30 1597 H 148.854 2.71712 2.93279 0
M  V30 1598 H 150.294 2.0374 3.71842 0
M  V30 1599 C 148.753 0.607277 3.31382 0
M  V30 1600 O 149.283 -0.243903 4.00959 0
M  V30 1601 N 147.489 0.455073 2.87015 0
M  V30 1602 H 147.036 1.14879 2.30566 0
M  V30 1603 H 146.994 -0.375611 3.12148 0
M  V30 1604 N 150.766 -0.704594 1.40972 0
M  V30 1605 C 151.714 -1.83994 1.42299 0
M  V30 1606 C 152.708 -1.66684 0.302111 0
M  V30 1607 O 153.914 -1.73655 0.473697 0
M  V30 1608 H 150.289 -0.606171 0.44504 0
M  V30 1609 H 152.26 -1.79992 2.38003 0
M  V30 1610 C 151.009 -3.21946 1.31323 0
M  V30 1611 H 150.332 -3.35878 2.16855 0
M  V30 1612 H 151.772 -4.01491 1.36311 0
M  V30 1613 C 150.231 -3.36891 0.0245977 0
M  V30 1614 O 150.761 -3.90687 -0.934153 0
M  V30 1615 N 148.967 -2.90559 -0.0485243 0
M  V30 1616 H 148.514 -2.46968 0.732419 0
M  V30 1617 H 148.472 -3.00937 -0.910171 0
M  V30 1618 N 152.244 -1.26651 -0.937939 0
M  V30 1619 C 153.174 -1.10993 -2.05433 0
M  V30 1620 C 154.155 -0.0142161 -1.70094 0
M  V30 1621 O 155.34 -0.186837 -1.93299 0
M  V30 1622 C 152.47 -0.745561 -3.39203 0
M  V30 1623 C 151.424 -1.79337 -3.88616 0
M  V30 1624 C 150.75 -1.28324 -5.19073 0
M  V30 1625 C 152.05 -3.19553 -4.13138 0
M  V30 1626 H 153.744 -2.0438 -2.1879 0
M  V30 1627 H 151.29 -0.984041 -1.05131 0
M  V30 1628 H 153.243 -0.622888 -4.16771 0
M  V30 1629 H 151.967 0.22401 -3.25831 0
M  V30 1630 H 150.626 -1.90477 -3.13231 0
M  V30 1631 H 150.274 -0.303414 -5.02084 0
M  V30 1632 H 149.974 -1.98369 -5.53103 0
M  V30 1633 H 151.498 -1.1733 -5.99221 0
M  V30 1634 H 152.912 -3.11471 -4.81309 0
M  V30 1635 H 151.309 -3.87218 -4.58457 0
M  V30 1636 H 152.379 -3.65368 -3.18801 0
M  V30 1637 N 153.722 1.14298 -1.08507 0
M  V30 1638 C 154.652 2.21542 -0.737646 0
M  V30 1639 C 155.633 1.67773 0.280377 0
M  V30 1640 O 156.818 1.93616 0.150521 0
M  V30 1641 C 153.948 3.46988 -0.147259 0
M  V30 1642 C 152.902 4.13789 -1.09374 0
M  V30 1643 C 152.228 5.33449 -0.365524 0
M  V30 1644 C 153.528 4.62208 -2.4323 0
M  V30 1645 H 155.222 2.5086 -1.6343 0
M  V30 1646 H 152.768 1.20576 -0.787243 0
M  V30 1647 H 154.721 4.21262 0.107808 0
M  V30 1648 H 153.445 3.17037 0.784538 0
M  V30 1649 H 152.104 3.4147 -1.33393 0
M  V30 1650 H 151.752 4.99759 0.57011 0
M  V30 1651 H 151.452 5.79088 -0.996512 0
M  V30 1652 H 152.976 6.10485 -0.118534 0
M  V30 1653 H 154.39 5.27952 -2.23472 0
M  V30 1654 H 152.787 5.18553 -3.02031 0
M  V30 1655 H 153.857 3.77224 -3.04681 0
M  V30 1656 N 155.201 0.870884 1.31352 0
M  V30 1657 C 156.426 0.495957 2.01383 0
M  V30 1658 C 156.851 -0.904324 1.64935 0
M  V30 1659 O 156.209 -1.59687 0.858466 0
M  V30 1660 C 156.257 0.661433 3.54482 0
M  V30 1661 O 155.361 -0.298851 4.11316 0
M  V30 1662 H 154.702 0.197158 0.634054 0
M  V30 1663 H 157.232 1.17455 1.67527 0
M  V30 1664 H 157.242 0.555072 4.04207 0
M  V30 1665 H 155.917 1.68246 3.8035 0
M  V30 1666 H 154.494 -0.147368 3.72609 0
M  V30 1667 N 156.679 -1.44442 0.630414 0
M  V30 1668 C 157.928 -2.01267 0.132073 0
M  V30 1669 C 158.241 -1.50172 -1.25331 0
M  V30 1670 O 159.447 -1.9912 -1.84562 0
M  V30 1671 C 157.903 -3.59422 0.185362 0
M  V30 1672 C 157.511 -4.19514 1.57201 0
M  V30 1673 C 159.255 -4.23724 -0.256553 0
M  V30 1674 C 157.162 -5.69891 1.58045 0
M  V30 1675 H 156.092 -0.752619 0.0456092 0
M  V30 1676 H 158.743 -1.65666 0.789106 0
M  V30 1677 H 157.125 -3.92318 -0.538759 0
M  V30 1678 H 158.299 -3.98156 2.31966 0
M  V30 1679 H 156.614 -3.67496 1.95795 0
M  V30 1680 H 159.211 -5.34019 -0.269767 0
M  V30 1681 H 159.554 -3.96013 -1.28372 0
M  V30 1682 H 160.087 -3.95629 0.41505 0
M  V30 1683 H 156.826 -6.02336 2.58597 0
M  V30 1684 H 156.346 -5.93373 0.875725 0
M  V30 1685 H 158.025 -6.33515 1.31408 0
M  V30 1686 N 158.157 -0.370918 -1.53173 0
M  V30 1687 C 159.067 0.480823 -2.2962 0
M  V30 1688 C 160.083 1.08789 -1.35798 0
M  V30 1689 O 161.259 1.09768 -1.68858 0
M  V30 1690 C 158.324 1.60227 -3.07454 0
M  V30 1691 C 157.385 1.0222 -4.16953 0
M  V30 1692 C 156.618 2.0902 -4.91066 0
M  V30 1693 O 156.841 3.30222 -4.65091 0
M  V30 1694 O 155.775 1.71778 -5.76867 0
M  V30 1695 H 159.601 -0.141421 -3.03371 0
M  V30 1696 H 157.186 -0.135146 -1.48787 0
M  V30 1697 H 159.068 2.25417 -3.56041 0
M  V30 1698 H 157.743 2.20982 -2.36535 0
M  V30 1699 H 156.65 0.334064 -3.72605 0
M  V30 1700 H 157.983 0.459131 -4.90054 0
M  V30 1701 N 159.635 1.57281 -0.100228 0
M  V30 1702 C 160.881 1.94826 0.563101 0
M  V30 1703 C 161.214 0.982475 1.67514 0
M  V30 1704 O 160.489 0.0164069 1.94493 0
M  V30 1705 C 160.772 3.42453 1.11346 0
M  V30 1706 C 160.625 4.498 0.00612081 0
M  V30 1707 C 161.944 3.91506 2.01024 0
M  V30 1708 H 159.063 0.708428 0.203221 0
M  V30 1709 H 161.705 1.8922 -0.171979 0
M  V30 1710 H 159.855 3.47361 1.7399 0
M  V30 1711 H 161.527 4.57 -0.628357 0
M  V30 1712 H 159.77 4.28756 -0.659581 0
M  V30 1713 H 160.441 5.50306 0.432109 0
M  V30 1714 H 162.917 3.88784 1.48278 0
M  V30 1715 H 161.793 4.95358 2.36457 0
M  V30 1716 H 162.054 3.31099 2.92961 0
M  V30 1717 N 161.113 -0.173488 1.56642 0
M  V30 1718 C 162.524 -0.736155 1.71574 0
M  V30 1719 C 162.875 -1.82888 0.710389 0
M  V30 1720 O 162 -2.16017 -0.1287 0
M  V30 1721 C 162.595 -1.34211 3.11083 0
M  V30 1722 C 161.154 -1.85162 3.27707 0
M  V30 1723 C 160.301 -0.729765 2.67525 0
M  V30 1724 H 163.252 0.0518786 1.58615 0
M  V30 1725 H 163.273 -2.21178 3.09613 0
M  V30 1726 H 162.785 -0.546579 3.84232 0
M  V30 1727 H 160.886 -2.67366 2.59512 0
M  V30 1728 H 160.999 -1.99855 4.35425 0
M  V30 1729 H 159.363 -1.14965 2.27278 0
M  V30 1730 H 160.146 0.0538806 3.43258 0
M  V30 1731 N 162.591 -1.51276 -0.441967 0
M  V30 1732 C 163.837 -1.63958 -1.19355 0
M  V30 1733 C 164.17 -0.352543 -1.90973 0
M  V30 1734 O 163.445 0.647627 -1.83401 0
M  V30 1735 C 163.728 -2.83979 -2.21422 0
M  V30 1736 C 163.581 -4.22646 -1.53918 0
M  V30 1737 C 164.9 -2.99521 -3.22451 0
M  V30 1738 H 162.019 -0.596709 -0.432559 0
M  V30 1739 H 164.661 -1.83748 -0.483398 0
M  V30 1740 H 162.811 -2.67237 -2.81987 0
M  V30 1741 H 164.483 -4.51045 -0.967256 0
M  V30 1742 H 162.726 -4.25558 -0.841615 0
M  V30 1743 H 163.397 -5.02609 -2.28229 0
M  V30 1744 H 165.873 -3.14944 -2.71937 0
M  V30 1745 H 164.749 -3.85072 -3.91166 0
M  V30 1746 H 165.01 -2.11391 -3.88287 0
M  V30 1747 N 164.069 0.697108 -1.41344 0
M  V30 1748 C 165.318 1.45279 -1.39918 0
M  V30 1749 C 165.631 1.95597 -0.0109624 0
M  V30 1750 O 166.837 2.71208 0.125919 0
M  V30 1751 C 165.293 2.62695 -2.46007 0
M  V30 1752 C 164.901 2.19169 -3.90729 0
M  V30 1753 C 166.645 3.40336 -2.53715 0
M  V30 1754 C 164.552 3.33535 -4.88373 0
M  V30 1755 H 163.482 0.545692 -0.520323 0
M  V30 1756 H 166.133 0.756929 -1.67161 0
M  V30 1757 H 164.515 3.34541 -2.11892 0
M  V30 1758 H 165.689 1.54623 -4.34083 0
M  V30 1759 H 164.004 1.54525 -3.86666 0
M  V30 1760 H 166.601 4.2547 -3.2385 0
M  V30 1761 H 166.944 3.85418 -1.5735 0
M  V30 1762 H 167.477 2.75546 -2.86913 0
M  V30 1763 H 164.216 2.93468 -5.86137 0
M  V30 1764 H 163.736 3.96936 -4.49668 0
M  V30 1765 H 165.415 3.99335 -5.09059 0
M  V30 1766 N 165.547 1.27147 0.931209 0
M  V30 1767 C 166.51 1.09615 2.01289 0
M  V30 1768 C 167.51 0.0412581 1.60747 0
M  V30 1769 O 168.7 0.285545 1.71844 0
M  V30 1770 C 165.832 0.669447 3.34262 0
M  V30 1771 H 167.025 2.05662 2.18273 0
M  V30 1772 H 164.578 1.09885 1.11153 0
M  V30 1773 H 165.313 -0.292572 3.22978 0
M  V30 1774 H 165.098 1.43127 3.65044 0
M  V30 1775 H 166.588 0.568921 4.13706 0
M  V30 1776 N 167.025 -1.13721 1.09112 0
M  V30 1777 C 167.988 -2.17222 0.731241 0
M  V30 1778 C 168.988 -1.59035 -0.237566 0
M  V30 1779 O 170.178 -1.74192 -0.0161704 0
M  V30 1780 C 167.31 -3.40804 0.0808443 0
M  V30 1781 H 168.503 -2.50573 1.64783 0
M  V30 1782 H 166.056 -1.28493 0.889897 0
M  V30 1783 H 166.791 -3.1304 -0.847127 0
M  V30 1784 H 166.576 -3.84306 0.777896 0
M  V30 1785 H 168.066 -4.1731 -0.155657 0
M  V30 1786 N 168.503 -0.877838 -1.30888 0
M  V30 1787 C 169.749 -0.493426 -1.96706 0
M  V30 1788 C 170.082 0.953504 -1.6918 0
M  V30 1789 O 169.357 1.67266 -0.992594 0
M  V30 1790 C 169.64 -0.760429 -3.51979 0
M  V30 1791 C 169.493 -2.25747 -3.89048 0
M  V30 1792 C 170.812 -0.232148 -4.39487 0
M  V30 1793 H 167.931 -0.180746 -0.714493 0
M  V30 1794 H 170.573 -1.10052 -1.54882 0
M  V30 1795 H 168.723 -0.243715 -3.87735 0
M  V30 1796 H 170.395 -2.84204 -3.63354 0
M  V30 1797 H 168.638 -2.72694 -3.37373 0
M  V30 1798 H 169.309 -2.39491 -4.97341 0
M  V30 1799 H 171.785 -0.674314 -4.106 0
M  V30 1800 H 170.661 -0.448355 -5.47066 0
M  V30 1801 H 170.922 0.866297 -4.33529 0
M  V30 1802 N 169.982 1.44106 -0.638065 0
M  V30 1803 C 170.93 2.3248 0.0748149 0
M  V30 1804 C 171.924 1.47746 0.828702 0
M  V30 1805 O 173.13 1.64049 0.740816 0
M  V30 1806 H 169.505 0.750771 0.0429686 0
M  V30 1807 H 171.476 2.90348 -0.688504 0
M  V30 1808 C 170.225 3.31843 1.03805 0
M  V30 1809 H 169.548 3.97059 0.467375 0
M  V30 1810 H 170.988 3.96345 1.50622 0
M  V30 1811 C 169.447 2.61291 2.1267 0
M  V30 1812 O 169.977 2.41702 3.20847 0
M  V30 1813 N 168.183 2.20915 1.88798 0
M  V30 1814 H 167.73 2.37047 1.00829 0
M  V30 1815 H 167.688 1.74038 2.61836 0
M  V30 1816 N 171.46 0.379036 1.52974 0
M  V30 1817 C 172.708 -0.206014 2.01047 0
M  V30 1818 C 173.029 -1.48175 1.26765 0
M  V30 1819 O 172.299 -1.92085 0.384743 0
M  V30 1820 H 170.879 -0.0791184 0.742798 0
M  V30 1821 H 173.541 0.508366 1.88153 0
M  V30 1822 H 172.637 -0.423501 3.09213 0
M  V30 1823 N 172.938 -1.57226 0.108567 0
M  V30 1824 C 174.349 -1.8195 -0.418464 0
M  V30 1825 C 174.7 -1.02508 -1.67292 0
M  V30 1826 O 173.825 -0.258496 -2.14851 0
M  V30 1827 C 174.42 -3.30028 -0.765979 0
M  V30 1828 C 172.979 -3.55469 -1.23769 0
M  V30 1829 C 172.126 -2.7625 -0.241106 0
M  V30 1830 H 175.077 -1.55149 0.33384 0
M  V30 1831 H 175.098 -3.44086 -1.62434 0
M  V30 1832 H 174.61 -3.87821 0.147219 0
M  V30 1833 H 172.711 -3.03022 -2.16814 0
M  V30 1834 H 172.824 -4.6408 -1.19022 0
M  V30 1835 H 171.188 -2.44133 -0.72602 0
M  V30 1836 H 171.971 -3.36797 0.665007 0
M  V30 1837 N 174.416 0.165178 -1.56732 0
M  V30 1838 C 175.662 0.882112 -1.82611 0
M  V30 1839 C 175.995 1.81628 -0.687378 0
M  V30 1840 O 175.27 1.92009 0.310267 0
M  V30 1841 C 175.553 1.67245 -3.18906 0
M  V30 1842 C 175.406 0.760987 -4.43316 0
M  V30 1843 C 176.725 2.63884 -3.52212 0
M  V30 1844 H 173.844 0.319242 -0.664269 0
M  V30 1845 H 176.486 0.148052 -1.89422 0
M  V30 1846 H 174.636 2.29824 -3.1323 0
M  V30 1847 H 176.308 0.147596 -4.61064 0
M  V30 1848 H 174.551 0.0694102 -4.33744 0
M  V30 1849 H 175.222 1.34962 -5.35247 0
M  V30 1850 H 177.698 2.11429 -3.58381 0
M  V30 1851 H 176.574 3.16245 -4.48643 0
M  V30 1852 H 176.835 3.44377 -2.77231 0
M  V30 1853 N 175.894 1.51508 0.433938 0
M  V30 1854 C 177.122 1.68157 1.20543 0
M  V30 1855 C 177.537 0.380362 1.84929 0
M  V30 1856 O 176.894 -0.641446 1.70856 0
M  V30 1857 C 176.945 2.79965 2.28696 0
M  V30 1858 O 176.666 4.05045 1.66943 0
M  V30 1859 C 178.167 3.07912 3.18912 0
M  V30 1860 H 175.387 0.56421 0.363191 0
M  V30 1861 H 177.931 1.97941 0.513754 0
M  V30 1862 H 176.086 2.5277 2.93574 0
M  V30 1863 H 176.5 4.67165 2.38448 0
M  V30 1864 H 177.974 3.89719 3.90926 0
M  V30 1865 H 178.451 2.20456 3.79863 0
M  V30 1866 H 179.057 3.36779 2.59731 0
M  V30 1867 N 177.372 -0.689602 1.41712 0
M  V30 1868 C 178.32 -1.82475 1.44242 0
M  V30 1869 C 179.314 -1.66354 0.319774 0
M  V30 1870 O 180.52 -1.73143 0.492089 0
M  V30 1871 H 176.895 -0.601416 0.451445 0
M  V30 1872 H 178.866 -1.77458 2.39899 0
M  V30 1873 C 177.615 -3.20535 1.3473 0
M  V30 1874 H 176.938 -3.33559 2.20405 0
M  V30 1875 H 178.378 -4.00023 1.40562 0
M  V30 1876 C 176.837 -3.36846 0.0603281 0
M  V30 1877 O 177.367 -3.91656 -0.892663 0
M  V30 1878 N 175.573 -2.90595 -0.0177039 0
M  V30 1879 H 175.12 -2.46178 0.758572 0
M  V30 1880 H 175.078 -3.01886 -0.878201 0
M  V30 1881 N 178.85 -1.27639 -0.924453 0
M  V30 1882 C 179.8 -1.07295 -2.01176 0
M  V30 1883 C 180.784 5.77352e-05 -1.609 0
M  V30 1884 O 181.976 -0.218855 -1.75642 0
M  V30 1885 C 179.105 -0.725592 -3.35544 0
M  V30 1886 C 178.191 -1.83691 -3.82254 0
M  V30 1887 N 178.582 -3.07697 -4.01443 0
M  V30 1888 C 176.88 -1.72433 -4.11319 0
M  V30 1889 C 177.581 -3.80037 -4.40394 0
M  V30 1890 N 176.557 -3.0782 -4.48049 0
M  V30 1891 H 180.359 -2.01399 -2.14046 0
M  V30 1892 H 177.873 -1.18401 -1.11153 0
M  V30 1893 H 179.87 -0.560959 -4.13109 0
M  V30 1894 H 178.53 0.207782 -3.24034 0
M  V30 1895 H 179.541 -3.43424 -3.8766 0
M  V30 1896 H 176.218 -0.862005 -4.08504 0
M  V30 1897 H 177.608 -4.86632 -4.63291 0
M  V30 1898 N 180.328 1.1314 -1.09713 0
M  V30 1899 C 181.739 1.66029 -0.853885 0
M  V30 1900 C 182.09 1.86241 0.617142 0
M  V30 1901 O 181.215 1.5834 1.47503 0
M  V30 1902 C 181.81 3.01599 -1.5435 0
M  V30 1903 C 180.369 3.51467 -1.34714 0
M  V30 1904 C 179.516 2.26648 -1.59769 0
M  V30 1905 H 182.467 0.970226 -1.25588 0
M  V30 1906 H 182.488 3.67709 -0.978267 0
M  V30 1907 H 182 2.86856 -2.6141 0
M  V30 1908 H 180.101 3.71408 -0.297838 0
M  V30 1909 H 180.214 4.314 -2.08401 0
M  V30 1910 H 178.578 2.33385 -1.01998 0
M  V30 1911 H 179.361 2.14467 -2.68065 0
M  V30 1912 N 181.806 0.884767 1.30421 0
M  V30 1913 C 182.716 0.355398 2.31892 0
M  V30 1914 C 183.732 -0.542261 1.65335 0
M  V30 1915 O 184.908 -0.435432 1.96637 0
M  V30 1916 C 181.973 -0.421661 3.44126 0
M  V30 1917 C 181.034 0.505727 4.26311 0
M  V30 1918 C 180.267 -0.234343 5.33185 0
M  V30 1919 O 180.49 -1.46045 5.51386 0
M  V30 1920 O 179.424 0.415443 6.00465 0
M  V30 1921 H 183.25 1.19685 2.79122 0
M  V30 1922 H 180.835 0.648596 1.34587 0
M  V30 1923 H 182.717 -0.861641 4.12497 0
M  V30 1924 H 181.392 -1.23942 2.99032 0
M  V30 1925 H 180.299 0.994513 3.60639 0
M  V30 1926 H 181.632 1.28948 4.75009 0
M  V30 1927 N 183.284 -1.43765 0.645699 0
M  V30 1928 C 184.533 -2.01116 0.153412 0
M  V30 1929 C 184.846 -1.51493 -1.23731 0
M  V30 1930 O 186.052 -2.01067 -1.8244 0
M  V30 1931 C 184.508 -3.59206 0.223473 0
M  V30 1932 C 184.116 -4.17823 1.61642 0
M  V30 1933 C 185.86 -4.23972 -0.211597 0
M  V30 1934 C 183.767 -5.68183 1.64081 0
M  V30 1935 H 182.697 -0.752093 0.0535891 0
M  V30 1936 H 185.348 -1.6482 0.806633 0
M  V30 1937 H 183.73 -3.92867 -0.497118 0
M  V30 1938 H 184.904 -3.95674 2.36176 0
M  V30 1939 H 183.219 -3.65399 1.99681 0
M  V30 1940 H 185.816 -5.34275 -0.213112 0
M  V30 1941 H 186.159 -3.97352 -1.24165 0
M  V30 1942 H 186.692 -3.95166 0.456988 0
M  V30 1943 H 183.431 -5.99559 2.64971 0
M  V30 1944 H 182.951 -5.9241 0.938611 0
M  V30 1945 H 184.63 -6.32085 1.3812 0
M  V30 1946 N 184.763 -0.387143 -1.52771 0
M  V30 1947 C 186.174 0.0873634 -1.86495 0
M  V30 1948 C 186.525 1.46336 -1.30691 0
M  V30 1949 O 185.65 2.068 -0.637409 0
M  V30 1950 C 186.245 0.165305 -3.38396 0
M  V30 1951 C 184.804 0.584101 -3.7184 0
M  V30 1952 C 183.951 -0.255279 -2.76122 0
M  V30 1953 H 186.902 -0.605104 -1.46711 0
M  V30 1954 H 186.923 0.984848 -3.67534 0
M  V30 1955 H 186.435 -0.836301 -3.78982 0
M  V30 1956 H 184.536 1.59315 -3.36823 0
M  V30 1957 H 184.649 0.343749 -4.77865 0
M  V30 1958 H 183.013 0.279126 -2.53166 0
M  V30 1959 H 183.796 -1.25482 -3.19545 0
M  V30 1960 N 186.241 1.57166 -0.116904 0
M  V30 1961 C 187.487 1.95412 0.542405 0
M  V30 1962 C 187.82 1.00019 1.66463 0
M  V30 1963 O 187.095 0.0370346 1.94465 0
M  V30 1964 C 187.378 3.43615 1.07708 0
M  V30 1965 C 187.231 4.49781 -0.0415868 0
M  V30 1966 C 188.55 3.93616 1.96861 0
M  V30 1967 H 185.669 0.710543 0.195696 0
M  V30 1968 H 188.311 1.89027 -0.192038 0
M  V30 1969 H 186.461 3.49187 1.70296 0
M  V30 1970 H 188.133 4.56308 -0.676793 0
M  V30 1971 H 186.376 4.28033 -0.705019 0
M  V30 1972 H 187.047 5.50733 0.373717 0
M  V30 1973 H 189.523 3.90335 1.44146 0
M  V30 1974 H 188.399 4.97838 2.3119 0
M  V30 1975 H 188.66 3.34188 2.89432 0
M  V30 1976 N 187.719 -0.156864 1.56817 0
M  V30 1977 C 188.652 -1.22316 1.9265 0
M  V30 1978 C 189.63 -1.42059 0.791076 0
M  V30 1979 O 190.814 -1.56831 1.04576 0
M  V30 1980 C 187.941 -2.58375 2.18998 0
M  V30 1981 C 186.987 -2.55284 3.41661 0
M  V30 1982 S 187.82 -2.02946 4.95553 0
M  V30 1983 C 188.976 -3.40753 5.25013 0
M  V30 1984 H 189.209 -0.917403 2.82791 0
M  V30 1985 H 186.742 -0.362059 1.50095 0
M  V30 1986 H 188.7 -3.36677 2.34859 0
M  V30 1987 H 187.361 -2.86145 1.29538 0
M  V30 1988 H 186.554 -3.55418 3.57343 0
M  V30 1989 H 186.156 -1.85086 3.24991 0
M  V30 1990 H 188.448 -4.36819 5.17876 0
M  V30 1991 H 189.391 -3.29933 6.26538 0
M  V30 1992 H 189.799 -3.37433 4.52548 0
M  V30 1993 N 189.197 -1.51736 -0.425897 0
M  V30 1994 C 190.422 -1.69082 -1.20108 0
M  V30 1995 C 190.847 -0.392398 -1.83962 0
M  V30 1996 O 190.205 0.64858 -1.69302 0
M  V30 1997 C 190.253 -2.81604 -2.25237 0
M  V30 1998 O 189.357 -2.46004 -3.30992 0
M  V30 1999 H 188.698 -0.563408 -0.35138 0
M  V30 2000 H 191.228 -1.98358 -0.501512 0
M  V30 2001 H 191.238 -3.06025 -2.69838 0
M  V30 2002 H 189.913 -3.75817 -1.78142 0
M  V30 2003 H 188.49 -2.32195 -2.91787 0
M  V30 2004 N 190.675 0.682077 -1.42076 0
M  V30 2005 C 191.952 1.43755 -1.32642 0
M  V30 2006 C 192.332 2.11063 0.0396611 0
M  V30 2007 O 191.68 2.02701 1.05474 0
M  V30 2008 C 191.89 2.44596 -2.48946 0
M  V30 2009 C 193.238 3.09454 -2.9073 0
M  V30 2010 O 194.262 2.54922 -2.48783 0
M  V30 2011 O 193.121 4.08253 -3.63307 0
M  V30 2012 H 190.215 0.640857 -0.522715 0
M  V30 2013 H 192.761 0.711415 -1.54068 0
M  V30 2014 H 191.533 1.93609 -3.40046 0
M  V30 2015 H 191.156 3.24701 -2.29467 0
M  V30 2016 N 192.153 1.28127 0.917671 0
M  V30 2017 C 193.402 1.14432 1.66097 0
M  V30 2018 C 193.715 -0.307247 1.93172 0
M  V30 2019 O 194.921 -0.565259 2.65551 0
M  V30 2020 C 193.377 2.00015 2.99202 0
M  V30 2021 C 192.985 3.49889 2.79789 0
M  V30 2022 C 194.729 1.94996 3.77064 0
M  V30 2023 C 192.636 4.27636 4.08511 0
M  V30 2024 H 191.566 0.424662 0.62304 0
M  V30 2025 H 194.217 1.52628 1.01868 0
M  V30 2026 H 192.599 1.54672 3.64544 0
M  V30 2027 H 193.773 4.03162 2.23152 0
M  V30 2028 H 192.088 3.56392 2.15345 0
M  V30 2029 H 194.685 2.50354 4.72469 0
M  V30 2030 H 195.028 0.925819 4.05875 0
M  V30 2031 H 195.561 2.38287 3.18534 0
M  V30 2032 H 192.3 5.30615 3.84874 0
M  V30 2033 H 191.82 3.79137 4.64774 0
M  V30 2034 H 193.499 4.37346 4.76799 0
M  V30 2035 N 193.631 -1.12557 1.10312 0
M  V30 2036 C 194.877 -1.84311 0.846011 0
M  V30 2037 C 195.21 -1.83805 -0.626859 0
M  V30 2038 O 194.485 -1.28268 -1.46211 0
M  V30 2039 C 194.768 -3.32048 1.39341 0
M  V30 2040 C 194.621 -3.41016 2.93305 0
M  V30 2041 C 195.94 -4.27764 1.03468 0
M  V30 2042 H 193.059 -0.669192 0.30879 0
M  V30 2043 H 195.701 -1.32057 1.36605 0
M  V30 2044 H 193.851 -3.76678 0.951087 0
M  V30 2045 H 195.523 -3.05031 3.46055 0
M  V30 2046 H 193.766 -2.81603 3.29973 0
M  V30 2047 H 194.437 -4.44948 3.26689 0
M  V30 2048 H 196.913 -3.91253 1.41633 0
M  V30 2049 H 195.789 -5.29549 1.44463 0
M  V30 2050 H 196.05 -4.42064 -0.0560404 0
M  V30 2051 N 195.109 -0.891671 -1.2995 0
M  V30 2052 C 196.039 -0.379797 -2.30391 0
M  V30 2053 C 197.02 0.540919 -1.6127 0
M  V30 2054 O 198.205 0.453352 -1.88834 0
M  V30 2055 C 195.335 0.400654 -3.44981 0
M  V30 2056 C 194.289 -0.428905 -4.25846 0
M  V30 2057 C 193.615 0.478557 -5.32554 0
M  V30 2058 C 194.915 -1.67458 -4.94727 0
M  V30 2059 H 196.609 -1.21914 -2.73454 0
M  V30 2060 H 194.155 -0.587675 -1.31462 0
M  V30 2061 H 196.108 0.769434 -4.14316 0
M  V30 2062 H 194.832 1.27371 -3.0074 0
M  V30 2063 H 193.491 -0.779911 -3.58208 0
M  V30 2064 H 193.139 1.34951 -4.84559 0
M  V30 2065 H 192.839 -0.0727433 -5.87555 0
M  V30 2066 H 194.363 0.843705 -6.04743 0
M  V30 2067 H 195.777 -1.376 -5.56542 0
M  V30 2068 H 194.174 -2.16659 -5.59624 0
M  V30 2069 H 195.244 -2.41518 -4.20473 0
M  V30 2070 N 196.587 1.43421 -0.653314 0
M  V30 2071 C 197.55 2.29182 0.0287951 0
M  V30 2072 C 198.55 1.42213 0.750465 0
M  V30 2073 O 199.74 1.63843 0.591701 0
M  V30 2074 C 196.872 3.24278 1.05151 0
M  V30 2075 H 198.065 2.90985 -0.725786 0
M  V30 2076 H 195.618 1.50702 -0.414545 0
M  V30 2077 H 196.353 2.6737 1.83532 0
M  V30 2078 H 196.138 3.88396 0.537687 0
M  V30 2079 H 197.628 3.88647 1.52786 0
M  V30 2080 N 198.065 0.39524 1.52563 0
M  V30 2081 C 199.028 -0.425001 2.25225 0
M  V30 2082 C 200.028 -0.985266 1.27079 0
M  V30 2083 O 201.218 -0.866332 1.5113 0
M  V30 2084 C 198.35 -1.59686 3.01186 0
M  V30 2085 H 199.543 0.211233 2.99155 0
M  V30 2086 H 197.096 0.147472 1.55603 0
M  V30 2087 H 197.831 -2.27035 2.31572 0
M  V30 2088 H 197.616 -1.20176 3.73229 0
M  V30 2089 H 199.106 -2.17743 3.5634 0
M  V30 2090 N 199.544 -1.57102 0.125237 0
M  V30 2091 C 200.454 -2.19191 -0.8362 0
M  V30 2092 C 201.47 -1.16985 -1.28805 0
M  V30 2093 O 202.646 -1.49479 -1.34974 0
M  V30 2094 C 199.711 -2.78407 -2.06617 0
M  V30 2095 C 198.772 -3.9567 -1.66565 0
M  V30 2096 C 198.005 -4.52052 -2.83698 0
M  V30 2097 O 198.228 -4.07326 -3.99302 0
M  V30 2098 O 197.162 -5.42645 -2.60423 0
M  V30 2099 H 200.988 -3.01816 -0.337776 0
M  V30 2100 H 198.573 -1.4906 -0.100695 0
M  V30 2101 H 200.455 -3.16129 -2.7864 0
M  V30 2102 H 199.13 -1.9881 -2.55453 0
M  V30 2103 H 198.037 -3.62705 -0.916296 0
M  V30 2104 H 199.37 -4.76722 -1.22464 0
M  V30 2105 N 201.022 0.148545 -1.56898 0
M  V30 2106 C 202.247 0.880385 -1.87787 0
M  V30 2107 C 202.672 1.74018 -0.714093 0
M  V30 2108 O 202.03 1.78153 0.336343 0
M  V30 2109 C 202.078 1.71422 -3.17249 0
M  V30 2110 O 201.182 2.8183 -3.01074 0
M  V30 2111 H 200.523 0.245301 -0.617028 0
M  V30 2112 H 203.053 0.139826 -2.04122 0
M  V30 2113 H 203.063 2.10954 -3.49231 0
M  V30 2114 H 201.738 1.08284 -4.01556 0
M  V30 2115 H 200.315 2.45715 -2.80497 0
M  V30 2116 N 202.5 1.5196 0.417844 0
M  V30 2117 C 203.463 1.74065 1.49111 0
M  V30 2118 C 204.463 0.610537 1.48758 0
M  V30 2119 O 205.653 0.87832 1.50437 0
M  V30 2120 C 202.785 1.81502 2.88565 0
M  V30 2121 H 203.978 2.69869 1.30807 0
M  V30 2122 H 201.531 1.42244 0.647785 0
M  V30 2123 H 202.266 0.875813 3.1225 0
M  V30 2124 H 202.051 2.63651 2.90225 0
M  V30 2125 H 203.541 2.00376 3.66387 0
M  V30 2126 N 203.978 -0.674533 1.42435 0
M  V30 2127 C 205.206 -1.46283 1.46317 0
M  V30 2128 C 205.621 -1.88653 0.0745836 0
M  V30 2129 O 204.978 -1.58151 -0.91074 0
M  V30 2130 C 205.029 -2.71178 2.3905 0
M  V30 2131 O 204.75 -2.30586 3.72507 0
M  V30 2132 C 206.251 -3.64738 2.51955 0
M  V30 2133 H 203.471 -0.450104 0.497642 0
M  V30 2134 H 206.015 -0.828792 1.86953 0
M  V30 2135 H 204.17 -3.3077 2.01667 0
M  V30 2136 H 204.584 -3.11241 4.22172 0
M  V30 2137 H 206.058 -4.49096 3.20962 0
M  V30 2138 H 206.535 -4.10656 1.55752 0
M  V30 2139 H 207.141 -3.11038 2.90061 0
M  V30 2140 N 205.456 -1.28612 -0.910864 0
M  V30 2141 C 206.703 -1.15934 -1.66029 0
M  V30 2142 C 207.031 0.291483 -1.92303 0
M  V30 2143 O 206.286 1.22816 -1.52364 0
M  V30 2144 C 206.585 -1.90624 -3.0232 0
M  V30 2145 C 206.251 -3.40405 -2.95695 0
M  V30 2146 C 204.913 -3.81255 -2.93595 0
M  V30 2147 C 207.265 -4.359 -2.85728 0
M  V30 2148 C 204.593 -5.15936 -2.79334 0
M  V30 2149 C 206.945 -5.70657 -2.73007 0
M  V30 2150 C 205.609 -6.10779 -2.69267 0
M  V30 2151 H 204.879 -0.424234 -0.607541 0
M  V30 2152 H 207.526 -1.5942 -1.06101 0
M  V30 2153 H 205.831 -1.39696 -3.6605 0
M  V30 2154 H 207.528 -1.78228 -3.59215 0
M  V30 2155 H 204.118 -3.07927 -2.98125 0
M  V30 2156 H 208.302 -4.053 -2.86436 0
M  V30 2157 H 203.558 -5.46146 -2.74835 0
M  V30 2158 H 207.732 -6.44311 -2.64264 0
M  V30 2159 H 205.359 -7.1509 -2.57974 0
M  V30 2160 N 206.934 1.1197 -1.10907 0
M  V30 2161 C 207.866 2.17592 -0.720175 0
M  V30 2162 C 208.879 1.60938 0.245495 0
M  V30 2163 O 210.068 1.78476 0.0292245 0
M  V30 2164 C 207.168 3.38873 -0.0427917 0
M  V30 2165 C 206.341 4.25006 -1.03388 0
M  V30 2166 C 205.4 5.24774 -0.387075 0
M  V30 2167 O 204.426 5.59631 -1.03934 0
M  V30 2168 N 205.628 5.74208 0.852407 0
M  V30 2169 H 208.393 2.51567 -1.62893 0
M  V30 2170 H 205.954 1.27439 -0.998543 0
M  V30 2171 H 207.946 4.02703 0.401501 0
M  V30 2172 H 206.516 3.03007 0.768456 0
M  V30 2173 H 205.736 3.57716 -1.65629 0
M  V30 2174 H 207.024 4.79397 -1.70458 0
M  V30 2175 H 206.422 5.48062 1.40161 0
M  V30 2176 H 204.979 6.39901 1.23977 0
M  V30 2177 N 208.412 0.89855 1.29475 0
M  V30 2178 C 209.689 0.443416 1.90508 0
M  V30 2179 C 210.069 -1.07685 1.81569 0
M  V30 2180 O 209.417 -1.9182 1.24166 0
M  V30 2181 C 209.627 0.956708 3.35631 0
M  V30 2182 C 210.975 0.999728 4.12663 0
M  V30 2183 O 211.999 0.904299 3.4453 0
M  V30 2184 O 210.858 1.14289 5.34416 0
M  V30 2185 H 207.952 0.138025 0.815401 0
M  V30 2186 H 210.498 0.98834 1.37949 0
M  V30 2187 H 209.27 2.00067 3.36287 0
M  V30 2188 H 208.893 0.391728 3.95666 0
M  V30 2189 N 209.89 -1.43072 0.660911 0
M  V30 2190 C 211.138 -2.01323 0.177094 0
M  V30 2191 C 211.459 -1.5245 -1.2159 0
M  V30 2192 O 210.729 -0.740322 -1.81373 0
M  V30 2193 H 209.309 -0.744382 0.0624804 0
M  V30 2194 H 211.971 -1.75179 0.854305 0
M  V30 2195 H 211.067 -3.11649 0.167641 0
M  V30 2196 N 211.368 -0.403325 -1.52352 0
M  V30 2197 C 212.779 0.0675782 -1.86578 0
M  V30 2198 C 213.13 1.44941 -1.32236 0
M  V30 2199 O 212.255 2.06112 -0.659307 0
M  V30 2200 C 212.85 0.129404 -3.38553 0
M  V30 2201 C 211.409 0.544629 -3.72439 0
M  V30 2202 C 210.556 -0.284551 -2.75836 0
M  V30 2203 H 213.507 -0.620631 -1.46061 0
M  V30 2204 H 213.528 0.94581 -3.68558 0
M  V30 2205 H 213.04 -0.87645 -3.78074 0
M  V30 2206 H 211.141 1.55734 -3.38493 0
M  V30 2207 H 211.254 0.293046 -4.78203 0
M  V30 2208 H 209.618 0.252258 -2.53448 0
M  V30 2209 H 210.401 -1.28865 -3.18196 0
M  V30 2210 N 212.846 1.57033 -0.133567 0
M  V30 2211 C 213.796 2.12641 0.822671 0
M  V30 2212 C 214.78 1.05081 1.21847 0
M  V30 2213 O 215.972 1.31287 1.18713 0
M  V30 2214 C 213.101 2.74094 2.06706 0
M  V30 2215 C 212.187 3.88757 1.69497 0
M  V30 2216 N 212.578 4.95194 1.03037 0
M  V30 2217 C 210.876 3.99213 1.98859 0
M  V30 2218 C 211.577 5.75414 0.852873 0
M  V30 2219 N 210.553 5.25726 1.3825 0
M  V30 2220 H 214.355 2.92308 0.305537 0
M  V30 2221 H 211.869 1.62256 0.0684276 0
M  V30 2222 H 213.866 3.12285 2.76195 0
M  V30 2223 H 212.526 1.95896 2.5895 0
M  V30 2224 H 213.537 5.13247 0.692669 0
M  V30 2225 H 210.214 3.32075 2.53047 0
M  V30 2226 H 211.604 6.71089 0.330091 0
M  V30 2227 N 214.325 -0.140222 1.56975 0
M  V30 2228 C 215.572 -0.851687 1.83719 0
M  V30 2229 C 215.9 -1.80862 0.715485 0
M  V30 2230 O 215.155 -1.93464 -0.294956 0
M  V30 2231 C 215.454 -1.65386 3.16832 0
M  V30 2232 C 215.12 -0.843112 4.42947 0
M  V30 2233 C 213.782 -0.619464 4.77196 0
M  V30 2234 C 216.134 -0.276582 5.20466 0
M  V30 2235 C 213.462 0.181312 5.8642 0
M  V30 2236 C 215.814 0.51127 6.30531 0
M  V30 2237 C 214.478 0.745432 6.63325 0
M  V30 2238 H 213.748 -0.311654 0.672274 0
M  V30 2239 H 216.395 -0.115006 1.91154 0
M  V30 2240 H 214.7 -2.46084 3.04877 0
M  V30 2241 H 216.397 -2.20793 3.34741 0
M  V30 2242 H 212.987 -1.0275 4.16101 0
M  V30 2243 H 217.171 -0.436632 4.94376 0
M  V30 2244 H 212.427 0.372165 6.10266 0
M  V30 2245 H 216.601 0.957354 6.89788 0
M  V30 2246 H 214.228 1.36778 7.47794 0
M  V30 2247 N 215.803 -1.52179 -0.40978 0
M  V30 2248 C 217.214 -1.58377 -0.988615 0
M  V30 2249 C 217.565 -0.423879 -1.91566 0
M  V30 2250 O 216.69 0.455844 -2.11544 0
M  V30 2251 C 217.285 -2.87044 -1.79976 0
M  V30 2252 C 215.844 -2.95722 -2.32863 0
M  V30 2253 C 214.991 -2.53309 -1.12828 0
M  V30 2254 H 217.942 -1.57558 -0.190039 0
M  V30 2255 H 217.963 -2.7236 -2.65707 0
M  V30 2256 H 217.475 -3.71444 -1.12478 0
M  V30 2257 H 215.576 -2.15814 -3.03735 0
M  V30 2258 H 215.689 -3.99951 -2.63773 0
M  V30 2259 H 214.053 -2.07142 -1.48204 0
M  V30 2260 H 214.836 -3.40082 -0.46897 0
M  V30 2261 N 217.281 0.66697 -1.42791 0
M  V30 2262 C 218.506 1.46004 -1.47301 0
M  V30 2263 C 218.931 1.87894 -0.0880317 0
M  V30 2264 O 218.289 1.56502 0.915253 0
M  V30 2265 C 218.337 2.68031 -2.41229 0
M  V30 2266 O 217.441 3.6659 -1.88906 0
M  V30 2267 H 216.782 0.43832 -0.49877 0
M  V30 2268 H 219.312 0.817391 -1.87563 0
M  V30 2269 H 219.322 3.1601 -2.58073 0
M  V30 2270 H 217.997 2.36883 -3.41847 0
M  V30 2271 H 216.574 3.25661 -1.81656 0
M  V30 2272 N 218.759 1.29093 0.90403 0
M  V30 2273 C 220.007 1.16583 1.65085 0
M  V30 2274 C 220.328 -0.283933 1.92922 0
M  V30 2275 O 219.598 -1.19509 1.55224 0
M  V30 2276 H 218.178 0.428467 0.611903 0
M  V30 2277 H 220.84 1.61959 1.08422 0
M  V30 2278 H 219.936 1.71266 2.6091 0
M  V30 2279 N 220.237 -1.11381 1.11499 0
M  V30 2280 C 221.486 -1.82494 0.858993 0
M  V30 2281 C 221.799 -1.85605 -0.617278 0
M  V30 2282 O 223.005 -2.52824 -0.989552 0
M  V30 2283 C 221.461 -3.27745 1.48699 0
M  V30 2284 C 221.069 -3.32961 2.99735 0
M  V30 2285 C 222.813 -4.03754 1.31085 0
M  V30 2286 C 220.72 -4.72612 3.55516 0
M  V30 2287 H 219.65 -0.683802 0.317696 0
M  V30 2288 H 222.301 -1.25331 1.34031 0
M  V30 2289 H 220.683 -3.84844 0.933339 0
M  V30 2290 H 221.857 -2.85741 3.61509 0
M  V30 2291 H 220.172 -2.70433 3.16631 0
M  V30 2292 H 222.769 -5.06891 1.70192 0
M  V30 2293 H 223.112 -4.15527 0.253496 0
M  V30 2294 H 223.645 -3.53043 1.83318 0
M  V30 2295 H 220.384 -4.66036 4.60967 0
M  V30 2296 H 219.904 -5.2024 2.98513 0
M  V30 2297 H 221.583 -5.4157 3.53992 0
M  V30 2298 N 221.715 -0.905404 -1.28997 0
M  V30 2299 C 222.961 -0.535039 -1.95615 0
M  V30 2300 C 223.294 0.917404 -1.71165 0
M  V30 2301 O 222.569 1.65123 -1.02785 0
M  V30 2302 C 222.852 -0.834918 -3.50287 0
M  V30 2303 C 222.705 -2.33948 -3.84172 0
M  V30 2304 C 224.024 -0.325318 -4.38896 0
M  V30 2305 H 221.143 -0.195861 -0.710498 0
M  V30 2306 H 223.785 -1.13313 -1.52513 0
M  V30 2307 H 221.935 -0.325904 -3.87131 0
M  V30 2308 H 223.607 -2.91847 -3.57243 0
M  V30 2309 H 221.85 -2.79789 -3.31513 0
M  V30 2310 H 222.521 -2.49987 -4.92149 0
M  V30 2311 H 224.997 -0.761256 -4.09077 0
M  V30 2312 H 223.873 -0.564295 -5.45992 0
M  V30 2313 H 224.134 0.774144 -4.35269 0
M  V30 2314 N 223.193 1.4272 -0.668489 0
M  V30 2315 C 224.604 1.84793 -0.266151 0
M  V30 2316 C 224.955 1.55959 1.19043 0
M  V30 2317 O 224.08 1.01622 1.91055 0
M  V30 2318 C 224.675 3.35436 -0.476271 0
M  V30 2319 C 223.234 3.76182 -0.128113 0
M  V30 2320 C 222.381 2.66344 -0.771777 0
M  V30 2321 H 225.332 1.32656 -0.871098 0
M  V30 2322 H 225.353 3.79515 0.273561 0
M  V30 2323 H 224.865 3.5639 -1.53647 0
M  V30 2324 H 222.966 3.60836 0.928891 0
M  V30 2325 H 223.079 4.75766 -0.564231 0
M  V30 2326 H 221.443 2.53885 -0.203652 0
M  V30 2327 H 222.226 2.90123 -1.83531 0
M  V30 2328 N 224.671 0.411399 1.52136 0
M  V30 2329 C 225.919 -0.163322 2.01439 0
M  V30 2330 C 226.24 -1.45453 1.29879 0
M  V30 2331 O 225.51 -1.91225 0.4254 0
M  V30 2332 H 224.09 -0.0633447 0.744309 0
M  V30 2333 H 226.752 0.548161 1.87033 0
M  V30 2334 H 225.848 -0.357817 3.10042 0
M  V30 2335 N 226.149 -1.5696 0.141893 0
M  V30 2336 C 227.426 -1.87553 -0.555281 0
M  V30 2337 C 227.806 -1.04699 -1.83306 0
M  V30 2338 O 227.154 -0.132346 -2.28116 0
M  V30 2339 C 227.364 -3.39093 -0.825664 0
M  V30 2340 C 228.712 -4.08199 -1.16869 0
M  V30 2341 O 229.736 -3.44242 -0.915185 0
M  V30 2342 O 228.595 -5.21139 -1.6455 0
M  V30 2343 H 225.689 -0.777188 -0.282679 0
M  V30 2344 H 228.235 -1.68763 0.17812 0
M  V30 2345 H 227.007 -3.91221 0.0788633 0
M  V30 2346 H 226.63 -3.63393 -1.61343 0
M  V30 2347 N 227.627 0.131896 -1.57047 0
M  V30 2348 C 228.875 0.840269 -1.83804 0
M  V30 2349 C 229.196 1.81017 -0.72512 0
M  V30 2350 O 228.466 1.94272 0.251995 0
M  V30 2351 H 227.046 0.313294 -0.678127 0
M  V30 2352 H 229.708 0.122294 -1.94516 0
M  V30 2353 H 228.804 1.39335 -2.79271 0
M  V30 2354 N 229.106 1.52395 0.401703 0
M  V30 2355 C 230.069 1.75636 1.47257 0
M  V30 2356 C 231.069 0.62628 1.48103 0
M  V30 2357 O 232.259 0.894227 1.49497 0
M  V30 2358 C 229.391 1.84553 2.86624 0
M  V30 2359 H 230.584 2.71241 1.27938 0
M  V30 2360 H 228.137 1.42923 0.632662 0
M  V30 2361 H 228.872 0.908882 3.11303 0
M  V30 2362 H 228.657 2.66715 2.87412 0
M  V30 2363 H 230.147 2.04251 3.64241 0
M  V30 2364 N 230.584 -0.659388 1.43143 0
M  V30 2365 C 231.534 -1.7655 1.44271 0
M  V30 2366 C 232.518 -1.57847 0.311961 0
M  V30 2367 O 233.71 -1.68064 0.555306 0
M  V30 2368 C 230.839 -3.15104 1.36251 0
M  V30 2369 C 229.925 -3.39377 2.54331 0
M  V30 2370 N 230.316 -3.34153 3.79704 0
M  V30 2371 C 228.614 -3.70072 2.48922 0
M  V30 2372 C 229.315 -3.58337 4.58225 0
M  V30 2373 N 228.291 -3.79851 3.88863 0
M  V30 2374 H 232.093 -1.70928 2.39083 0
M  V30 2375 H 229.607 -0.860823 1.37708 0
M  V30 2376 H 231.604 -3.94389 1.35141 0
M  V30 2377 H 230.264 -3.21913 0.424531 0
M  V30 2378 H 231.275 -3.13704 4.1208 0
M  V30 2379 H 227.952 -3.84034 1.63781 0
M  V30 2380 H 229.342 -3.60129 5.67236 0
M  V30 2381 N 232.062 -1.29571 -0.897171 0
M  V30 2382 C 233.308 -1.17863 -1.65034 0
M  V30 2383 C 233.641 0.268729 -1.92332 0
M  V30 2384 O 232.916 1.19378 -1.53555 0
M  V30 2385 C 233.199 -1.995 -2.99786 0
M  V30 2386 C 233.052 -3.5239 -2.79538 0
M  V30 2387 C 234.371 -1.82335 -4.00552 0
M  V30 2388 H 231.49 -0.429528 -0.598895 0
M  V30 2389 H 234.132 -1.59072 -1.03905 0
M  V30 2390 H 232.282 -1.64485 -3.51962 0
M  V30 2391 H 233.954 -3.97401 -2.34244 0
M  V30 2392 H 232.197 -3.77187 -2.14273 0
M  V30 2393 H 232.868 -4.04787 -3.75302 0
M  V30 2394 H 235.344 -2.12924 -3.57495 0
M  V30 2395 H 234.22 -2.41801 -4.92771 0
M  V30 2396 H 234.481 -0.779209 -4.35179 0
M  V30 2397 N 233.54 1.10788 -1.12088 0
M  V30 2398 C 234.786 1.82942 -0.875226 0
M  V30 2399 C 235.119 1.84779 0.597538 0
M  V30 2400 O 234.394 1.30578 1.44152 0
M  V30 2401 C 234.677 3.29789 -1.44606 0
M  V30 2402 C 234.53 3.36307 -2.98693 0
M  V30 2403 C 235.849 4.26064 -1.10261 0
M  V30 2404 H 232.968 0.664195 -0.319397 0
M  V30 2405 H 235.61 1.29867 -1.38689 0
M  V30 2406 H 233.76 3.75118 -1.01089 0
M  V30 2407 H 235.432 2.99487 -3.50864 0
M  V30 2408 H 233.675 2.76318 -3.34411 0
M  V30 2409 H 234.346 4.39694 -3.33726 0
M  V30 2410 H 236.822 3.88951 -1.4784 0
M  V30 2411 H 235.698 5.27183 -1.52869 0
M  V30 2412 H 235.959 4.42098 -0.0142953 0
M  V30 2413 N 235.018 0.912232 1.28515 0
M  V30 2414 C 236.264 0.554851 1.95686 0
M  V30 2415 C 236.619 -0.89138 1.70506 0
M  V30 2416 O 235.912 -1.62529 1.01464 0
M  V30 2417 C 236.106 0.798392 3.48368 0
M  V30 2418 C 235.935 2.26674 3.88393 0
M  V30 2419 C 234.705 2.91657 4.12631 0
M  V30 2420 C 236.903 3.24303 3.99164 0
M  V30 2421 N 234.885 4.28805 4.39317 0
M  V30 2422 C 236.256 4.4661 4.30046 0
M  V30 2423 C 238.311 3.19723 3.81683 0
M  V30 2424 C 237.014 5.64915 4.45268 0
M  V30 2425 C 239.04 4.37325 3.98121 0
M  V30 2426 C 238.402 5.58406 4.29375 0
M  V30 2427 H 234.501 0.252876 0.739985 0
M  V30 2428 H 237.085 1.17565 1.55199 0
M  V30 2429 H 235.256 0.20688 3.87849 0
M  V30 2430 H 236.988 0.405193 4.02666 0
M  V30 2431 H 233.743 2.42393 4.06869 0
M  V30 2432 H 234.167 4.99712 4.56746 0
M  V30 2433 H 238.809 2.27191 3.56573 0
M  V30 2434 H 236.527 6.57927 4.6921 0
M  V30 2435 H 240.113 4.35282 3.86033 0
M  V30 2436 H 238.993 6.47889 4.41825 0
M  V30 2437 N 236.496 -1.42363 0.676048 0
M  V30 2438 C 237.907 -1.84649 0.275948 0
M  V30 2439 C 238.258 -1.56588 -1.18214 0
M  V30 2440 O 237.383 -1.02634 -1.90513 0
M  V30 2441 C 237.978 -3.35178 0.494053 0
M  V30 2442 C 236.537 -3.76109 0.148061 0
M  V30 2443 C 235.684 -2.65931 0.785891 0
M  V30 2444 H 238.635 -1.32192 0.878121 0
M  V30 2445 H 238.656 -3.79655 -0.25343 0
M  V30 2446 H 238.168 -3.55571 1.55535 0
M  V30 2447 H 236.269 -3.61323 -0.909742 0
M  V30 2448 H 236.382 -4.7546 0.589454 0
M  V30 2449 H 234.746 -2.53773 0.217113 0
M  V30 2450 H 235.529 -2.89146 1.85067 0
M  V30 2451 N 237.974 -0.419461 -1.51915 0
M  V30 2452 C 238.924 0.418496 -2.24126 0
M  V30 2453 C 239.908 1.00495 -1.25656 0
M  V30 2454 O 241.1 0.926058 -1.50842 0
M  V30 2455 C 238.229 1.52899 -3.07371 0
M  V30 2456 C 237.315 0.952797 -4.13258 0
M  V30 2457 N 237.706 0.104175 -5.05693 0
M  V30 2458 C 236.004 1.22224 -4.28926 0
M  V30 2459 C 236.705 -0.21752 -5.81293 0
M  V30 2460 N 235.681 0.394293 -5.42168 0
M  V30 2461 H 239.483 -0.236048 -2.92951 0
M  V30 2462 H 236.997 -0.230481 -1.60756 0
M  V30 2463 H 238.994 2.14199 -3.57665 0
M  V30 2464 H 237.654 2.18605 -2.40088 0
M  V30 2465 H 238.665 -0.260924 -5.17242 0
M  V30 2466 H 235.342 1.87812 -3.72871 0
M  V30 2467 H 236.732 -0.906992 -6.6575 0
M  V30 2468 N 239.452 1.56882 -0.150215 0
M  V30 2469 C 240.698 1.96518 0.500834 0
M  V30 2470 C 241.031 1.03527 1.64304 0
M  V30 2471 O 240.306 0.0782751 1.94342 0
M  V30 2472 C 240.589 3.45822 1.00395 0
M  V30 2473 C 240.442 4.49591 -0.136983 0
M  V30 2474 C 241.761 3.97704 1.88467 0
M  V30 2475 H 238.88 0.714535 0.18058 0
M  V30 2476 H 241.522 1.88577 -0.232091 0
M  V30 2477 H 239.672 3.5272 1.62851 0
M  V30 2478 H 241.344 4.5477 -0.77343 0
M  V30 2479 H 239.587 4.26441 -0.795652 0
M  V30 2480 H 240.258 5.51402 0.256815 0
M  V30 2481 H 242.734 3.93304 1.35834 0
M  V30 2482 H 241.61 5.0263 2.20578 0
M  V30 2483 H 241.871 3.40252 2.82279 0
M  V30 2484 N 240.93 -0.123565 1.57115 0
M  V30 2485 C 241.86 -1.15309 2.03042 0
M  V30 2486 C 242.841 -1.43454 0.914061 0
M  V30 2487 O 244.026 -1.53973 1.18347 0
M  V30 2488 C 241.156 -2.48043 2.43089 0
M  V30 2489 C 240.11 -2.3437 3.58127 0
M  V30 2490 C 239.436 -3.72026 3.84059 0
M  V30 2491 C 240.736 -1.80804 4.90007 0
M  V30 2492 H 242.43 -0.771102 2.893 0
M  V30 2493 H 239.976 -0.369479 1.39179 0
M  V30 2494 H 241.929 -3.20311 2.73823 0
M  V30 2495 H 240.653 -2.88122 1.53796 0
M  V30 2496 H 239.312 -1.64551 3.27595 0
M  V30 2497 H 238.96 -4.09582 2.91979 0
M  V30 2498 H 238.66 -3.63732 4.6149 0
M  V30 2499 H 240.184 -4.45806 4.1724 0
M  V30 2500 H 241.598 -2.42886 5.19307 0
M  V30 2501 H 239.995 -1.83343 5.71407 0
M  V30 2502 H 241.065 -0.76528 4.78823 0
M  V30 2503 N 242.408 -1.52605 -0.393616 0
M  V30 2504 C 243.656 -1.67093 -1.13685 0
M  V30 2505 C 243.977 -0.411011 -1.90619 0
M  V30 2506 O 243.247 0.574491 -1.87287 0
M  V30 2507 H 241.827 -0.615923 -0.422668 0
M  V30 2508 H 244.489 -1.89704 -0.447039 0
M  V30 2509 H 243.585 -2.51922 -1.84232 0
M  V30 2510 N 243.887 0.651787 -1.4349 0
M  V30 2511 C 245.112 1.44434 -1.48841 0
M  V30 2512 C 245.537 1.8779 -0.107955 0
M  V30 2513 O 244.895 1.57464 0.898602 0
M  V30 2514 C 244.943 2.65458 -2.44059 0
M  V30 2515 O 244.047 3.64566 -1.92784 0
M  V30 2516 H 243.388 0.433005 -0.503391 0
M  V30 2517 H 245.918 0.797451 -1.88419 0
M  V30 2518 H 245.928 3.13255 -2.6141 0
M  V30 2519 H 244.603 2.33244 -3.4434 0
M  V30 2520 H 243.18 3.23716 -1.851 0
M  V30 2521 N 245.365 1.30045 0.890287 0
M  V30 2522 C 246.313 1.15873 2.01683 0
M  V30 2523 C 247.307 0.0719403 1.69247 0
M  V30 2524 O 248.513 0.232414 1.78493 0
M  V30 2525 H 244.888 0.358203 0.661207 0
M  V30 2526 H 246.859 2.11229 2.10772 0
M  V30 2527 C 245.608 0.861842 3.36849 0
M  V30 2528 H 244.931 1.69016 3.62317 0
M  V30 2529 H 246.371 0.802762 4.16331 0
M  V30 2530 C 244.83 -0.435132 3.34078 0
M  V30 2531 O 245.36 -1.4583 3.74295 0
M  V30 2532 N 243.566 -0.444377 2.87182 0
M  V30 2533 H 243.113 0.388723 2.5465 0
M  V30 2534 H 243.071 -1.31213 2.85711 0
M  V30 2535 N 246.843 -1.10192 1.12674 0
M  V30 2536 C 248.259 -1.34235 0.863317 0
M  V30 2537 C 248.459 -1.95062 -0.505277 0
M  V30 2538 O 247.515 -2.19192 -1.25345 0
M  V30 2539 C 248.828 -2.2616 1.98172 0
M  V30 2540 C 250.376 -2.3969 2.0129 0
M  V30 2541 C 250.851 -3.34946 3.1237 0
M  V30 2542 N 252.342 -3.42515 3.11829 0
M  V30 2543 C 253.077 -4.16199 3.94419 0
M  V30 2544 N 252.573 -4.92747 4.87004 0
M  V30 2545 N 254.366 -4.11843 3.82547 0
M  V30 2546 H 246.517 -0.690798 2.00853 0
M  V30 2547 H 248.78 -0.366774 0.874174 0
M  V30 2548 H 248.486 -1.8868 2.96804 0
M  V30 2549 H 248.36 -3.26488 1.88906 0
M  V30 2550 H 250.747 -2.76438 1.03276 0
M  V30 2551 H 250.828 -1.39169 2.14629 0
M  V30 2552 H 250.472 -2.98923 4.10619 0
M  V30 2553 H 250.402 -4.35353 2.96269 0
M  V30 2554 H 252.893 -2.87926 2.44759 0
M  V30 2555 H 253.206 -5.46376 5.46528 0
M  V30 2556 H 251.551 -4.91862 4.91016 0
M  V30 2557 H 254.742 -3.51136 3.0955 0
M  V30 2558 H 254.915 -4.69007 4.47142 0
M  V30 2559 N 248.321 -0.919034 -1.28029 0
M  V30 2560 C 249.569 -0.553838 -1.94363 0
M  V30 2561 C 249.89 0.906357 -1.72656 0
M  V30 2562 O 249.16 1.64143 -1.0693 0
M  V30 2563 H 247.74 -0.201834 -0.719216 0
M  V30 2564 H 250.402 -1.16954 -1.55909 0
M  V30 2565 H 249.498 -0.752758 -3.02886 0
M  V30 2566 N 249.799 1.42003 -0.683588 0
M  V30 2567 C 251.215 1.55625 -0.353976 0
M  V30 2568 C 251.415 1.66151 1.14 0
M  V30 2569 O 250.471 1.63329 1.92561 0
M  V30 2570 C 251.784 2.80171 -1.092 0
M  V30 2571 C 253.332 2.93954 -1.07518 0
M  V30 2572 C 253.807 4.21372 -1.79471 0
M  V30 2573 N 255.298 4.28303 -1.76381 0
M  V30 2574 C 256.033 5.25729 -2.28904 0
M  V30 2575 N 255.529 6.29254 -2.89846 0
M  V30 2576 N 257.322 5.17586 -2.19228 0
M  V30 2577 H 249.473 1.33415 -1.6527 0
M  V30 2578 H 251.736 0.64282 -0.696769 0
M  V30 2579 H 251.442 2.78561 -2.14701 0
M  V30 2580 H 251.316 3.7133 -0.662862 0
M  V30 2581 H 253.703 2.95086 -0.028475 0
M  V30 2582 H 253.784 2.04002 -1.54328 0
M  V30 2583 H 253.428 4.21001 -2.84114 0
M  V30 2584 H 253.358 5.10275 -1.30104 0
M  V30 2585 H 255.849 3.54119 -1.31939 0
M  V30 2586 H 256.162 6.99964 -3.27522 0
M  V30 2587 H 254.507 6.29791 -2.93919 0
M  V30 2588 H 257.698 4.35631 -1.71299 0
M  V30 2589 H 257.871 5.93348 -2.60466 0
M  V30 2590 N 251.277 0.427512 1.51691 0
M  V30 2591 C 252.507 -0.140986 2.06118 0
M  V30 2592 C 252.915 -1.37854 1.29588 0
M  V30 2593 O 252.258 -1.80411 0.346036 0
M  V30 2594 C 252.32 -0.538276 3.55447 0
M  V30 2595 C 251.984 0.591095 4.53161 0
M  V30 2596 C 252.981 1.46027 4.98971 0
M  V30 2597 C 250.666 0.769028 4.96378 0
M  V30 2598 C 252.66 2.49216 5.8666 0
M  V30 2599 C 250.347 1.80421 5.83859 0
M  V30 2600 C 251.345 2.66417 6.28897 0
M  V30 2601 O 251.033 3.68159 7.14643 0
M  V30 2602 H 250.765 -0.0157455 0.675817 0
M  V30 2603 H 253.319 0.602495 1.96365 0
M  V30 2604 H 251.549 -1.33432 3.6295 0
M  V30 2605 H 253.238 -1.0368 3.92435 0
M  V30 2606 H 254.004 1.33429 4.66285 0
M  V30 2607 H 249.883 0.109273 4.6087 0
M  V30 2608 H 253.427 3.16372 6.21735 0
M  V30 2609 H 249.324 1.93042 6.15959 0
M  V30 2610 H 250.092 3.64622 7.32798 0
M  V30 2611 N 252.755 -1.56801 0.158532 0
M  V30 2612 C 254.002 -1.9649 -0.489679 0
M  V30 2613 C 254.33 -1.04394 -1.6411 0
M  V30 2614 O 253.585 -0.0754401 -1.95555 0
M  V30 2615 C 253.884 -3.4235 -1.02623 0
M  V30 2616 C 253.55 -4.50899 0.00794526 0
M  V30 2617 C 252.212 -4.80312 0.292207 0
M  V30 2618 C 254.564 -5.16333 0.710584 0
M  V30 2619 C 251.892 -5.72461 1.28472 0
M  V30 2620 C 254.244 -6.09553 1.69199 0
M  V30 2621 C 252.908 -6.37339 1.98383 0
M  V30 2622 H 252.178 -0.719009 -0.179186 0
M  V30 2623 H 254.825 -1.8989 0.247798 0
M  V30 2624 H 253.13 -3.45838 -1.84128 0
M  V30 2625 H 254.827 -3.70393 -1.53656 0
M  V30 2626 H 251.417 -4.28015 -0.22379 0
M  V30 2627 H 255.601 -4.93732 0.504174 0
M  V30 2628 H 250.857 -5.92278 1.51714 0
M  V30 2629 H 255.031 -6.59327 2.24189 0
M  V30 2630 H 252.658 -7.08546 2.7544 0
M  V30 2631 N 254.233 0.115231 -1.57178 0
M  V30 2632 C 255.163 1.1423 -2.03651 0
M  V30 2633 C 256.144 1.42967 -0.921655 0
M  V30 2634 O 257.329 1.53343 -1.19162 0
M  V30 2635 C 254.459 2.4675 -2.44401 0
M  V30 2636 C 253.413 2.32467 -3.59365 0
M  V30 2637 C 252.739 3.69984 -3.86026 0
M  V30 2638 C 254.039 1.78203 -4.90959 0
M  V30 2639 H 255.733 0.755749 -2.89705 0
M  V30 2640 H 253.279 0.362093 -1.39373 0
M  V30 2641 H 255.232 3.18854 -2.75517 0
M  V30 2642 H 253.956 2.87302 -1.55322 0
M  V30 2643 H 252.615 1.62811 -3.28463 0
M  V30 2644 H 252.263 4.08028 -2.94147 0
M  V30 2645 H 251.963 3.61279 -4.63412 0
M  V30 2646 H 253.487 4.43587 -4.19599 0
M  V30 2647 H 254.901 2.40128 -5.20587 0
M  V30 2648 H 253.298 1.8031 -5.72371 0
M  V30 2649 H 254.368 0.739876 -4.79222 0
M  V30 2650 N 255.711 1.52812 0.385517 0
M  V30 2651 C 256.641 1.80808 1.47752 0
M  V30 2652 C 257.622 0.660318 1.5676 0
M  V30 2653 O 258.807 0.908246 1.71652 0
M  V30 2654 C 255.937 1.98008 2.85324 0
M  V30 2655 C 254.891 3.13709 2.91154 0
M  V30 2656 C 254.217 3.16169 4.31209 0
M  V30 2657 C 255.517 4.52709 2.60483 0
M  V30 2658 H 257.211 2.72253 1.24573 0
M  V30 2659 H 254.757 1.31003 0.597839 0
M  V30 2660 H 256.71 2.16176 3.61726 0
M  V30 2661 H 255.434 1.03255 3.09848 0
M  V30 2662 H 254.093 2.95329 2.17201 0
M  V30 2663 H 253.741 2.19092 4.52778 0
M  V30 2664 H 253.441 3.93894 4.36029 0
M  V30 2665 H 254.965 3.36496 5.09512 0
M  V30 2666 H 256.379 4.71173 3.26602 0
M  V30 2667 H 254.776 5.32528 2.76648 0
M  V30 2668 H 255.846 4.59186 1.55809 0
M  V30 2669 N 257.189 -0.644168 1.43834 0
M  V30 2670 C 258.417 -1.43147 1.49387 0
M  V30 2671 C 258.832 -1.88452 0.114583 0
M  V30 2672 O 258.189 -1.60047 -0.876989 0
M  V30 2673 C 258.24 -2.66046 2.44748 0
M  V30 2674 O 257.961 -2.22633 3.77314 0
M  V30 2675 C 259.462 -3.59311 2.59635 0
M  V30 2676 H 256.682 -0.439447 0.507077 0
M  V30 2677 H 259.226 -0.78895 1.88669 0
M  V30 2678 H 257.381 -3.26418 2.08638 0
M  V30 2679 H 257.795 -3.02216 4.28679 0
M  V30 2680 H 259.269 -4.42187 3.30416 0
M  V30 2681 H 259.746 -4.07259 1.64427 0
M  V30 2682 H 260.352 -3.04816 2.96593 0
M  V30 2683 N 258.668 -1.30515 -0.883378 0
M  V30 2684 C 259.916 -1.19194 -1.63209 0
M  V30 2685 C 260.237 0.253205 -1.93349 0
M  V30 2686 O 259.507 1.17025 -1.57105 0
M  V30 2687 H 258.087 -0.438148 -0.605009 0
M  V30 2688 H 260.749 -1.63663 -1.05832 0
M  V30 2689 H 259.845 -1.75396 -2.58153 0
M  V30 2690 N 260.146 1.09593 -1.13257 0
M  V30 2691 C 261.078 2.16015 -0.766167 0
M  V30 2692 C 262.091 1.61423 0.211303 0
M  V30 2693 O 263.28 1.78498 -0.00863946 0
M  V30 2694 C 260.38 3.38706 -0.114662 0
M  V30 2695 C 259.553 4.22717 -1.12379 0
M  V30 2696 C 258.612 5.23835 -0.498301 0
M  V30 2697 O 257.638 5.573 -1.15781 0
M  V30 2698 N 258.84 5.75886 0.730417 0
M  V30 2699 H 261.605 2.48055 -1.68193 0
M  V30 2700 H 259.166 1.25292 -1.02535 0
M  V30 2701 H 261.158 4.03464 0.315991 0
M  V30 2702 H 259.728 3.04569 0.704011 0
M  V30 2703 H 258.948 3.54122 -1.73179 0
M  V30 2704 H 260.236 4.75673 -1.80589 0
M  V30 2705 H 259.634 5.50911 1.28504 0
M  V30 2706 H 258.191 6.42387 1.10376 0
M  V30 2707 N 261.624 0.925811 1.2754 0
M  V30 2708 C 262.534 0.428993 2.30644 0
M  V30 2709 C 263.55 -0.489387 1.66976 0
M  V30 2710 O 264.726 -0.372653 1.97922 0
M  V30 2711 C 261.791 -0.311967 3.45294 0
M  V30 2712 C 260.852 0.641098 4.24486 0
M  V30 2713 C 260.085 -0.0645955 5.33661 0
M  V30 2714 O 260.308 -1.28429 5.55754 0
M  V30 2715 O 259.242 0.606265 5.98839 0
M  V30 2716 H 263.068 1.28504 2.75173 0
M  V30 2717 H 260.653 0.691086 1.32455 0
M  V30 2718 H 262.535 -0.729972 4.15029 0
M  V30 2719 H 261.21 -1.14365 3.02824 0
M  V30 2720 H 260.117 1.10874 3.57292 0
M  V30 2721 H 261.45 1.43995 4.70666 0
M  V30 2722 N 263.102 -1.41638 0.69111 0
M  V30 2723 C 264.032 -2.3347 0.037248 0
M  V30 2724 C 265.013 -1.51575 -0.771947 0
M  V30 2725 O 266.198 -1.80126 -0.72582 0
M  V30 2726 C 263.328 -3.35354 -0.903064 0
M  V30 2727 C 262.282 -4.27526 -0.201288 0
M  V30 2728 C 261.608 -5.19747 -1.25565 0
M  V30 2729 C 262.908 -5.13959 0.929689 0
M  V30 2730 H 264.602 -2.88397 0.804227 0
M  V30 2731 H 262.148 -1.38669 0.388189 0
M  V30 2732 H 264.101 -3.98519 -1.36969 0
M  V30 2733 H 262.825 -2.78767 -1.70166 0
M  V30 2734 H 261.484 -3.65779 0.245265 0
M  V30 2735 H 261.132 -4.59479 -2.04666 0
M  V30 2736 H 260.832 -5.8225 -0.791128 0
M  V30 2737 H 262.356 -5.85789 -1.72288 0
M  V30 2738 H 263.77 -5.70718 0.543546 0
M  V30 2739 H 262.167 -5.85379 1.32103 0
M  V30 2740 H 263.237 -4.51389 1.77133 0
M  V30 2741 N 264.58 -0.43555 -1.51462 0
M  V30 2742 C 265.857 0.191364 -1.94662 0
M  V30 2743 C 266.237 1.60254 -1.37411 0
M  V30 2744 O 265.585 2.2152 -0.560458 0
M  V30 2745 C 265.795 0.17091 -3.48581 0
M  V30 2746 C 267.143 0.377357 -4.2292 0
M  V30 2747 O 268.167 0.249104 -3.55328 0
M  V30 2748 O 267.026 0.63247 -5.42828 0
M  V30 2749 H 264.12 0.130932 -0.816569 0
M  V30 2750 H 266.666 -0.4934 -1.62369 0
M  V30 2751 H 265.438 -0.815738 -3.82703 0
M  V30 2752 H 265.061 0.898659 -3.87311 0
M  V30 2753 N 266.058 1.56714 -0.166846 0
M  V30 2754 C 267.021 2.16539 0.751232 0
M  V30 2755 C 268.021 1.11228 1.16125 0
M  V30 2756 O 269.211 1.36765 1.07894 0
M  V30 2757 C 266.343 2.74462 2.02196 0
M  V30 2758 H 267.536 2.99013 0.230499 0
M  V30 2759 H 265.089 1.56081 0.0826982 0
M  V30 2760 H 265.824 1.95709 2.58589 0
M  V30 2761 H 265.609 3.51527 1.73698 0
M  V30 2762 H 267.099 3.20489 2.67725 0
M  V30 2763 N 267.536 -0.106894 1.57237 0
M  V30 2764 C 268.952 -0.46078 1.52804 0
M  V30 2765 C 269.152 -1.81184 0.881746 0
M  V30 2766 O 268.208 -2.48102 0.469224 0
M  V30 2767 C 269.521 -0.434127 2.9755 0
M  V30 2768 C 271.069 -0.516821 3.08704 0
M  V30 2769 C 271.544 -0.520436 4.55033 0
M  V30 2770 N 273.035 -0.58153 4.59535 0
M  V30 2771 C 273.77 -0.605973 5.70189 0
M  V30 2772 N 273.266 -0.587331 6.90306 0
M  V30 2773 N 275.059 -0.649895 5.5833 0
M  V30 2774 H 267.21 0.778203 1.9763 0
M  V30 2775 H 269.473 0.288403 0.903066 0
M  V30 2776 H 269.179 0.491197 3.48253 0
M  V30 2777 H 269.053 -1.25748 3.55622 0
M  V30 2778 H 271.44 -1.43256 2.57995 0
M  V30 2779 H 271.521 0.334449 2.53604 0
M  V30 2780 H 271.165 0.391313 5.0639 0
M  V30 2781 H 271.095 -1.38876 5.07958 0
M  V30 2782 H 273.586 -0.60161 3.73081 0
M  V30 2783 H 273.899 -0.60894 7.70397 0
M  V30 2784 H 272.244 -0.554564 6.92784 0
M  V30 2785 H 275.435 -0.661907 4.63397 0
M  V30 2786 H 275.608 -0.665476 6.44574 0
M  V30 2787 N 269.014 -1.53014 -0.377408 0
M  V30 2788 C 270.242 -1.72515 -1.14219 0
M  V30 2789 C 270.657 -0.448735 -1.8339 0
M  V30 2790 O 270.014 0.577592 -1.73119 0
M  V30 2791 C 270.065 -2.8826 -2.18148 0
M  V30 2792 O 269.786 -4.10962 -1.51795 0
M  V30 2793 C 271.287 -3.19536 -3.07264 0
M  V30 2794 H 268.507 -0.577301 -0.342001 0
M  V30 2795 H 271.051 -1.99712 -0.439935 0
M  V30 2796 H 269.206 -2.63492 -2.83991 0
M  V30 2797 H 269.62 -4.75693 -2.20945 0
M  V30 2798 H 271.094 -4.03959 -3.76193 0
M  V30 2799 H 271.571 -2.34403 -3.71419 0
M  V30 2800 H 272.177 -3.46186 -2.47053 0
M  V30 2801 N 270.492 0.636531 -1.44174 0
M  V30 2802 C 271.455 1.73063 -1.50273 0
M  V30 2803 C 272.455 1.56113 -0.385397 0
M  V30 2804 O 273.645 1.61707 -0.64781 0
M  V30 2805 C 270.777 3.12096 -1.37145 0
M  V30 2806 H 271.97 1.69031 -2.47727 0
M  V30 2807 H 269.523 0.849706 -1.31186 0
M  V30 2808 H 270.258 3.21728 -0.407636 0
M  V30 2809 H 270.043 3.25805 -2.18159 0
M  V30 2810 H 271.533 3.91846 -1.44382 0
M  V30 2811 N 271.97 1.30982 0.876444 0
M  V30 2812 C 272.9 1.20668 1.99903 0
M  V30 2813 C 273.881 0.095354 1.69833 0
M  V30 2814 O 275.066 0.27885 1.92188 0
M  V30 2815 C 272.196 0.90655 3.3526 0
M  V30 2816 C 271.15 1.97675 3.79617 0
M  V30 2817 C 270.476 1.52943 5.1236 0
M  V30 2818 C 271.776 3.389 3.97422 0
M  V30 2819 H 273.47 2.14586 2.0879 0
M  V30 2820 H 271.016 1.03308 1.00317 0
M  V30 2821 H 272.969 0.821025 4.13324 0
M  V30 2822 H 271.693 -0.0682969 3.26529 0
M  V30 2823 H 270.352 2.05205 3.03787 0
M  V30 2824 H 270 0.54262 5.00065 0
M  V30 2825 H 269.7 2.24532 5.43009 0
M  V30 2826 H 271.224 1.45786 5.92941 0
M  V30 2827 H 272.638 3.34081 4.659 0
M  V30 2828 H 271.035 4.0865 4.3946 0
M  V30 2829 H 272.105 3.80163 3.01006 0
M  V30 2830 N 273.449 -1.08991 1.13837 0
M  V30 2831 C 274.726 -1.77863 0.813876 0
M  V30 2832 C 275.106 -1.99375 -0.693746 0
M  V30 2833 O 274.454 -1.59875 -1.63255 0
M  V30 2834 C 274.664 -3.0986 1.60586 0
M  V30 2835 C 276.012 -3.84493 1.8014 0
M  V30 2836 O 277.036 -3.19624 1.57222 0
M  V30 2837 O 275.895 -5.00957 2.18413 0
M  V30 2838 H 272.989 -0.771589 0.297624 0
M  V30 2839 H 275.535 -1.15507 1.24323 0
M  V30 2840 H 274.307 -2.89715 2.63022 0
M  V30 2841 H 273.93 -3.79942 1.17173 0
M  V30 2842 N 274.927 -0.932562 -1.27047 0
M  V30 2843 C 276.157 -0.591173 -1.97961 0
M  V30 2844 C 276.565 0.836219 -1.69717 0
M  V30 2845 O 275.908 1.56801 -0.957036 0
M  V30 2846 C 275.97 -0.743082 -3.51736 0
M  V30 2847 C 275.634 -2.1435 -4.03613 0
M  V30 2848 C 276.631 -3.11815 -4.16014 0
M  V30 2849 C 274.316 -2.46175 -4.37839 0
M  V30 2850 C 276.31 -4.39211 -4.61923 0
M  V30 2851 C 273.997 -3.73806 -4.83438 0
M  V30 2852 C 274.995 -4.70137 -4.95439 0
M  V30 2853 O 274.683 -5.95496 -5.40037 0
M  V30 2854 H 274.415 -0.222375 -0.638377 0
M  V30 2855 H 276.969 -1.25317 -1.62742 0
M  V30 2856 H 275.199 -0.0239739 -3.86693 0
M  V30 2857 H 276.888 -0.40603 -4.03864 0
M  V30 2858 H 277.654 -2.88549 -3.89826 0
M  V30 2859 H 273.533 -1.71936 -4.27737 0
M  V30 2860 H 277.077 -5.14404 -4.71205 0
M  V30 2861 H 272.974 -3.96888 -5.09068 0
M  V30 2862 H 273.742 -5.98554 -5.58279 0
M  V30 2863 N 276.405 1.4127 -0.698611 0
M  V30 2864 C 277.653 2.00782 -0.230409 0
M  V30 2865 C 277.974 1.5562 1.17505 0
M  V30 2866 O 277.244 0.78815 1.79346 0
M  V30 2867 H 275.824 0.742464 -0.0821944 0
M  V30 2868 H 278.486 1.72852 -0.90045 0
M  V30 2869 H 277.582 3.11095 -0.25021 0
M  V30 2870 N 277.883 0.443576 1.51229 0
M  V30 2871 C 278.846 -0.353132 2.26463 0
M  V30 2872 C 279.846 -0.944338 1.3015 0
M  V30 2873 O 281.036 -0.817813 1.5381 0
M  V30 2874 C 278.168 -1.50023 3.06114 0
M  V30 2875 H 279.361 0.3063 2.98332 0
M  V30 2876 H 276.914 0.196902 1.55055 0
M  V30 2877 H 277.649 -2.19553 2.38677 0
M  V30 2878 H 277.434 -1.08241 3.76864 0
M  V30 2879 H 278.924 -2.06296 3.63087 0
M  V30 2880 N 279.361 -1.56624 0.175154 0
M  V30 2881 C 280.607 -1.9729 -0.469506 0
M  V30 2882 C 280.94 -1.06128 -1.62636 0
M  V30 2883 O 280.215 -0.109183 -1.94193 0
M  V30 2884 C 280.498 -3.47375 -0.948804 0
M  V30 2885 C 280.351 -4.49317 0.208491 0
M  V30 2886 C 281.67 -4.00652 -1.82116 0
M  V30 2887 H 278.789 -0.717317 -0.16919 0
M  V30 2888 H 281.431 -1.88184 0.262062 0
M  V30 2889 H 279.581 -3.55267 -1.57219 0
M  V30 2890 H 281.253 -4.53482 0.845682 0
M  V30 2891 H 279.496 -4.25121 0.863395 0
M  V30 2892 H 280.167 -5.51741 -0.169059 0
M  V30 2893 H 282.643 -3.95416 -1.2956 0
M  V30 2894 H 281.519 -5.06075 -2.12554 0
M  V30 2895 H 281.78 -3.44699 -2.7683 0
M  V30 2896 N 280.839 0.0985539 -1.57292 0
M  V30 2897 C 281.787 1.1387 -2.02821 0
M  V30 2898 C 282.781 1.41676 -0.928666 0
M  V30 2899 O 283.987 1.41398 -1.11385 0
M  V30 2900 H 280.362 0.384419 -0.646317 0
M  V30 2901 H 282.333 0.728347 -2.89375 0
M  V30 2902 C 281.082 2.45166 -2.46554 0
M  V30 2903 H 280.405 2.24613 -3.3074 0
M  V30 2904 H 281.845 3.16456 -2.8219 0
M  V30 2905 C 280.304 3.09216 -1.33742 0
M  V30 2906 O 280.834 3.96163 -0.66464 0
M  V30 2907 N 279.04 2.69413 -1.08928 0
M  V30 2908 H 278.587 1.98801 -1.63817 0
M  V30 2909 H 278.545 3.12594 -0.336458 0
M  V30 2910 N 282.317 1.53212 0.369288 0
M  V30 2911 C 283.227 1.82342 1.47609 0
M  V30 2912 C 284.243 0.711532 1.58787 0
M  V30 2913 O 285.419 1.0012 1.74751 0
M  V30 2914 C 282.484 2.00393 2.8292 0
M  V30 2915 C 281.545 3.24297 2.81301 0
M  V30 2916 C 280.778 3.41478 4.10157 0
M  V30 2917 O 281.001 2.63033 5.06132 0
M  V30 2918 O 279.935 4.34817 4.16194 0
M  V30 2919 H 283.761 2.76366 1.25918 0
M  V30 2920 H 281.346 1.38547 0.559034 0
M  V30 2921 H 283.228 2.13859 3.63101 0
M  V30 2922 H 281.903 1.09559 3.04596 0
M  V30 2923 H 280.81 3.16257 1.99831 0
M  V30 2924 H 282.143 4.15041 2.64578 0
M  V30 2925 N 283.795 -0.628877 1.44509 0
M  V30 2926 C 285.041 -1.39045 1.47629 0
M  V30 2927 C 285.374 -1.93892 0.109343 0
M  V30 2928 O 284.649 -1.7379 -0.87334 0
M  V30 2929 C 284.932 -2.55408 2.53848 0
M  V30 2930 C 284.785 -2.05896 3.99909 0
M  V30 2931 C 286.104 -3.5759 2.56549 0
M  V30 2932 H 283.223 -0.504232 0.537512 0
M  V30 2933 H 285.865 -0.710854 1.76201 0
M  V30 2934 H 284.015 -3.13384 2.29615 0
M  V30 2935 H 285.687 -1.52734 4.35282 0
M  V30 2936 H 283.93 -1.37061 4.11578 0
M  V30 2937 H 284.601 -2.89681 4.69882 0
M  V30 2938 H 287.077 -3.09419 2.78207 0
M  V30 2939 H 285.953 -4.36527 3.32769 0
M  V30 2940 H 286.214 -4.11808 1.60832 0
M  V30 2941 N 285.273 -1.31445 -0.869486 0
M  V30 2942 C 286.203 -1.21727 -1.99261 0
M  V30 2943 C 287.184 -0.104359 -1.6978 0
M  V30 2944 O 288.369 -0.289038 -1.92037 0
M  V30 2945 C 285.499 -0.924317 -3.34774 0
M  V30 2946 C 284.453 -1.99685 -3.78563 0
M  V30 2947 C 283.779 -1.55658 -5.11541 0
M  V30 2948 C 285.079 -3.41003 -3.95619 0
M  V30 2949 H 286.773 -2.1569 -2.07649 0
M  V30 2950 H 284.319 -1.03839 -0.997675 0
M  V30 2951 H 286.272 -0.842934 -4.12883 0
M  V30 2952 H 284.996 0.0509793 -3.2656 0
M  V30 2953 H 283.655 -2.06813 -3.02694 0
M  V30 2954 H 283.303 -0.569132 -4.9977 0
M  V30 2955 H 283.003 -2.27409 -5.41811 0
M  V30 2956 H 284.527 -1.48928 -5.92159 0
M  V30 2957 H 285.941 -3.36547 -4.64122 0
M  V30 2958 H 284.338 -4.10975 -4.37286 0
M  V30 2959 H 285.408 -3.81754 -2.98985 0
M  V30 2960 N 286.751 1.08385 -1.14413 0
M  V30 2961 C 287.976 1.85057 -0.936413 0
M  V30 2962 C 288.401 1.81055 0.509971 0
M  V30 2963 O 287.759 1.1958 1.36273 0
M  V30 2964 C 287.807 3.30505 -1.44217 0
M  V30 2965 O 286.911 4.07491 -0.634409 0
M  V30 2966 H 286.252 0.573425 -0.334784 0
M  V30 2967 H 288.782 1.36799 -1.52142 0
M  V30 2968 H 288.792 3.81348 -1.45043 0
M  V30 2969 H 287.467 3.32734 -2.49522 0
M  V30 2970 H 286.044 3.66368 -0.694902 0
M  V30 2971 N 288.23 0.939286 1.26551 0
M  V30 2972 C 289.14 0.453432 2.30176 0
M  V30 2973 C 290.156 -0.471649 1.67486 0
M  V30 2974 O 291.332 -0.35164 1.98306 0
M  V30 2975 C 288.397 -0.275326 3.45605 0
M  V30 2976 C 287.458 0.686084 4.23782 0
M  V30 2977 C 286.691 -0.00798994 5.33699 0
M  V30 2978 O 286.914 -1.22528 5.57085 0
M  V30 2979 O 285.848 0.669746 5.98162 0
M  V30 2980 H 289.674 1.31416 2.73795 0
M  V30 2981 H 287.259 0.705095 1.31715 0
M  V30 2982 H 289.141 -0.685911 4.1578 0
M  V30 2983 H 287.816 -1.11147 3.0402 0
M  V30 2984 H 286.723 1.14658 3.56096 0
M  V30 2985 H 288.056 1.48979 4.69112 0
M  V30 2986 N 289.708 -1.40897 0.706093 0
M  V30 2987 C 290.64 -2.29199 0.00815776 0
M  V30 2988 C 291.653 -1.45336 -0.733582 0
M  V30 2989 O 292.842 -1.68727 -0.582537 0
M  V30 2990 C 289.942 -3.23417 -1.01265 0
M  V30 2991 C 289.115 -4.36089 -0.338387 0
M  V30 2992 C 288.174 -5.10811 -1.26326 0
M  V30 2993 O 287.2 -5.64215 -0.751651 0
M  V30 2994 N 288.402 -5.19269 -2.595 0
M  V30 2995 H 291.167 -2.89738 0.766297 0
M  V30 2996 H 288.728 -1.52164 0.55296 0
M  V30 2997 H 290.72 -3.70276 -1.63334 0
M  V30 2998 H 289.29 -2.64112 -1.67223 0
M  V30 2999 H 288.51 -3.91479 0.462352 0
M  V30 3000 H 289.798 -5.08634 0.130031 0
M  V30 3001 H 289.196 -4.77347 -3.03573 0
M  V30 3002 H 287.753 -5.69667 -3.16737 0
M  V30 3003 N 291.186 -0.45159 -1.50991 0
M  V30 3004 C 292.096 0.358431 -2.31846 0
M  V30 3005 C 293.112 1.01438 -1.41373 0
M  V30 3006 O 294.288 1.00663 -1.74439 0
M  V30 3007 C 291.353 1.43704 -3.15515 0
M  V30 3008 C 290.414 0.799742 -4.21785 0
M  V30 3009 C 289.647 1.82696 -5.01456 0
M  V30 3010 O 289.87 3.05105 -4.81941 0
M  V30 3011 O 288.804 1.40958 -5.85162 0
M  V30 3012 H 292.63 -0.302032 -3.02194 0
M  V30 3013 H 290.215 -0.213825 -1.47862 0
M  V30 3014 H 292.097 2.06227 -3.67489 0
M  V30 3015 H 290.772 2.08133 -2.47916 0
M  V30 3016 H 289.679 0.136084 -3.73852 0
M  V30 3017 H 291.012 0.198718 -4.91799 0
M  V30 3018 N 292.664 1.56529 -0.183458 0
M  V30 3019 C 293.594 2.21549 0.737456 0
M  V30 3020 C 294.575 1.17489 1.23005 0
M  V30 3021 O 295.76 1.45959 1.281 0
M  V30 3022 C 292.89 2.86575 1.96194 0
M  V30 3023 C 291.844 3.96778 1.60473 0
M  V30 3024 C 291.17 4.48911 2.90487 0
M  V30 3025 C 292.47 5.15767 0.823497 0
M  V30 3026 H 294.164 2.98761 0.195453 0
M  V30 3027 H 291.71 1.43702 0.0925686 0
M  V30 3028 H 293.663 3.30739 2.61131 0
M  V30 3029 H 292.387 2.06749 2.52828 0
M  V30 3030 H 291.046 3.53286 0.978997 0
M  V30 3031 H 290.694 3.65862 3.45186 0
M  V30 3032 H 290.394 5.23265 2.67335 0
M  V30 3033 H 291.918 4.95771 3.56432 0
M  V30 3034 H 293.332 5.56549 1.37571 0
M  V30 3035 H 291.729 5.96114 0.690551 0
M  V30 3036 H 292.799 4.84574 -0.177782 0
M  V30 3037 N 294.142 -0.090211 1.57342 0
M  V30 3038 C 295.072 -1.10976 2.05443 0
M  V30 3039 C 296.053 -1.41482 0.944284 0
M  V30 3040 O 297.238 -1.51428 1.21586 0
M  V30 3041 C 294.368 -2.42831 2.48295 0
M  V30 3042 C 293.322 -2.26721 3.63018 0
M  V30 3043 C 292.648 -3.63796 3.91863 0
M  V30 3044 C 293.948 -1.7037 4.93732 0
M  V30 3045 H 295.642 -0.709564 2.9087 0
M  V30 3046 H 293.188 -0.339874 1.39932 0
M  V30 3047 H 295.141 -3.14431 2.80555 0
M  V30 3048 H 293.865 -2.84795 1.59873 0
M  V30 3049 H 292.524 -1.57565 3.31012 0
M  V30 3050 H 292.172 -4.03297 3.00601 0
M  V30 3051 H 291.872 -3.53861 4.69101 0
M  V30 3052 H 293.396 -4.36855 4.26603 0
M  V30 3053 H 294.81 -2.31816 5.24342 0
M  V30 3054 H 293.207 -1.71181 5.75167 0
M  V30 3055 H 294.277 -0.663542 4.80339 0
M  V30 3056 N 295.62 -1.53406 -0.361157 0
M  V30 3057 C 297.031 -1.61442 -0.937728 0
M  V30 3058 C 297.382 -0.48461 -1.90121 0
M  V30 3059 O 296.507 0.388312 -2.12888 0
M  V30 3060 C 297.102 -2.92624 -1.70753 0
M  V30 3061 C 295.661 -3.02981 -2.23337 0
M  V30 3062 C 294.808 -2.5677 -1.04712 0
M  V30 3063 H 297.759 -1.58083 -0.139816 0
M  V30 3064 H 297.78 -2.80675 -2.56908 0
M  V30 3065 H 297.292 -3.74834 -1.00604 0
M  V30 3066 H 295.393 -2.25368 -2.96715 0
M  V30 3067 H 295.506 -4.0814 -2.50916 0
M  V30 3068 H 293.87 -2.11752 -1.41539 0
M  V30 3069 H 294.653 -3.41402 -0.360539 0
M  V30 3070 N 297.098 0.621204 -1.44841 0
M  V30 3071 C 298.514 0.94048 -1.28946 0
M  V30 3072 C 298.714 2.00154 -0.23249 0
M  V30 3073 O 297.77 2.49651 0.378237 0
M  V30 3074 C 299.083 1.39433 -2.66419 0
M  V30 3075 C 300.631 1.50927 -2.74208 0
M  V30 3076 C 301.106 1.99692 -4.12174 0
M  V30 3077 N 302.597 2.06947 -4.144 0
M  V30 3078 C 303.332 2.45871 -5.1801 0
M  V30 3079 N 302.828 2.83862 -6.31977 0
M  V30 3080 N 304.621 2.46092 -5.05366 0
M  V30 3081 H 296.772 -0.0803548 -2.12248 0
M  V30 3082 H 299.035 0.0266913 -0.947624 0
M  V30 3083 H 298.741 0.688925 -3.44887 0
M  V30 3084 H 298.615 2.36347 -2.93973 0
M  V30 3085 H 301.002 2.20561 -1.96053 0
M  V30 3086 H 301.083 0.523627 -2.50383 0
M  V30 3087 H 300.727 1.30649 -4.90809 0
M  V30 3088 H 300.657 2.99146 -4.33381 0
M  V30 3089 H 303.148 1.80232 -3.32152 0
M  V30 3090 H 303.461 3.12405 -7.0684 0
M  V30 3091 H 301.806 2.8159 -6.35399 0
M  V30 3092 H 304.997 2.1581 -4.15384 0
M  V30 3093 H 305.17 2.76102 -5.86235 0
M  V30 3094 N 298.576 1.31904 0.862503 0
M  V30 3095 C 299.539 1.20131 1.95195 0
M  V30 3096 C 300.539 0.126409 1.60302 0
M  V30 3097 O 301.729 0.376234 1.70089 0
M  V30 3098 C 298.861 0.845691 3.30244 0
M  V30 3099 H 300.054 2.16943 2.07064 0
M  V30 3100 H 297.607 1.15622 1.05172 0
M  V30 3101 H 298.342 -0.120957 3.24074 0
M  V30 3102 H 298.127 1.62276 3.56944 0
M  V30 3103 H 299.617 0.787418 4.10109 0
M  V30 3104 N 300.054 -1.07777 1.14986 0
M  V30 3105 C 301.3 -1.80719 0.93339 0
M  V30 3106 C 301.655 -1.8484 -0.534019 0
M  V30 3107 O 300.948 -1.31795 -1.3907 0
M  V30 3108 C 301.142 -3.25495 1.47608 0
M  V30 3109 C 300.971 -3.3548 2.99472 0
M  V30 3110 C 299.741 -3.46293 3.6798 0
M  V30 3111 C 301.939 -3.26596 3.97291 0
M  V30 3112 N 299.921 -3.45136 5.07695 0
M  V30 3113 C 301.292 -3.32506 5.23297 0
M  V30 3114 C 303.347 -3.10376 3.89321 0
M  V30 3115 C 302.05 -3.23866 6.42264 0
M  V30 3116 C 304.076 -3.03069 5.07842 0
M  V30 3117 C 303.438 -3.09587 6.32721 0
M  V30 3118 H 299.537 -0.674814 0.395158 0
M  V30 3119 H 302.121 -1.28681 1.46114 0
M  V30 3120 H 300.292 -3.75963 0.975022 0
M  V30 3121 H 302.024 -3.86535 1.19887 0
M  V30 3122 H 298.779 -3.50456 3.18555 0
M  V30 3123 H 299.203 -3.48097 5.80653 0
M  V30 3124 H 303.845 -3.04194 2.93642 0
M  V30 3125 H 301.563 -3.28807 7.38181 0
M  V30 3126 H 305.149 -2.91629 5.03432 0
M  V30 3127 H 304.029 -3.0397 7.22891 0
M  V30 3128 N 301.532 -0.945985 -1.26051 0
M  V30 3129 C 302.442 -0.465633 -2.29933 0
M  V30 3130 C 303.458 0.462761 -1.67733 0
M  V30 3131 O 304.634 0.341118 -1.9849 0
M  V30 3132 C 301.699 0.256994 -3.45746 0
M  V30 3133 C 300.76 -0.708549 -4.23412 0
M  V30 3134 C 299.993 -0.0203135 -5.33696 0
M  V30 3135 O 300.216 1.19571 -5.57726 0
M  V30 3136 O 299.15 -0.701459 -5.97799 0
M  V30 3137 H 302.976 -1.32866 -2.73094 0
M  V30 3138 H 300.561 -0.712071 -1.31339 0
M  V30 3139 H 302.443 0.663852 -4.16138 0
M  V30 3140 H 301.118 1.09533 -3.04605 0
M  V30 3141 H 300.025 -1.16545 -3.55483 0
M  V30 3142 H 301.358 -1.51465 -4.68315 0
M  V30 3143 N 303.011 1.40521 -0.713556 0
M  V30 3144 C 303.941 2.33381 -0.0743864 0
M  V30 3145 C 304.922 1.52784 0.747735 0
M  V30 3146 O 306.107 1.81258 0.697071 0
M  V30 3147 C 303.237 3.36748 0.849598 0
M  V30 3148 C 302.191 4.27793 0.133247 0
M  V30 3149 C 301.517 5.21679 1.17281 0
M  V30 3150 C 302.817 5.12415 -1.01134 0
M  V30 3151 H 304.511 2.87081 -0.850007 0
M  V30 3152 H 302.057 1.38034 -0.410201 0
M  V30 3153 H 304.01 4.00648 1.30612 0
M  V30 3154 H 302.734 2.81439 1.65709 0
M  V30 3155 H 301.393 3.65342 -0.303426 0
M  V30 3156 H 301.041 4.62677 1.9733 0
M  V30 3157 H 300.741 5.83435 0.698397 0
M  V30 3158 H 302.265 5.88456 1.62947 0
M  V30 3159 H 303.679 5.69781 -0.634274 0
M  V30 3160 H 302.076 5.83203 -1.41399 0
M  V30 3161 H 303.146 4.48514 -1.84292 0
M  V30 3162 N 304.489 0.459591 1.5075 0
M  V30 3163 C 305.452 -0.329093 2.26825 0
M  V30 3164 C 306.452 -0.930481 1.31144 0
M  V30 3165 O 307.642 -0.801453 1.54669 0
M  V30 3166 C 304.774 -1.46768 3.07688 0
M  V30 3167 H 305.967 0.337924 2.9799 0
M  V30 3168 H 303.52 0.213336 1.54837 0
M  V30 3169 H 304.255 -2.17009 2.40993 0
M  V30 3170 H 304.04 -1.04238 3.77991 0
M  V30 3171 H 305.53 -2.02433 3.65254 0
M  V30 3172 N 305.967 -1.56429 0.191757 0
M  V30 3173 C 307.383 -1.58754 -0.164137 0
M  V30 3174 C 307.583 -1.20782 -1.61288 0
M  V30 3175 O 306.639 -0.928999 -2.34789 0
M  V30 3176 C 307.952 -3.00396 0.135195 0
M  V30 3177 C 309.5 -3.1291 0.0750351 0
M  V30 3178 C 309.975 -4.56679 0.347632 0
M  V30 3179 N 311.466 -4.62252 0.296131 0
M  V30 3180 C 312.201 -5.71379 0.480948 0
M  V30 3181 N 311.697 -6.88986 0.725933 0
M  V30 3182 N 313.49 -5.60563 0.415435 0
M  V30 3183 H 305.641 -1.79393 1.13718 0
M  V30 3184 H 307.904 -0.832414 0.453643 0
M  V30 3185 H 307.61 -3.32726 1.13958 0
M  V30 3186 H 307.484 -3.72963 -0.563773 0
M  V30 3187 H 309.871 -2.80394 -0.919948 0
M  V30 3188 H 309.952 -2.42736 0.807029 0
M  V30 3189 H 309.596 -4.89907 1.33992 0
M  V30 3190 H 309.526 -5.25039 -0.405212 0
M  V30 3191 H 312.017 -3.7773 0.113259 0
M  V30 3192 H 312.33 -7.68046 0.855857 0
M  V30 3193 H 310.675 -6.90801 0.762788 0
M  V30 3194 H 313.866 -4.67561 0.224486 0
M  V30 3195 H 314.039 -6.45551 0.562889 0
M  V30 3196 N 307.445 0.0818655 -1.57387 0
M  V30 3197 C 308.693 0.781368 -1.86384 0
M  V30 3198 C 309.014 1.78618 -0.782342 0
M  V30 3199 O 308.284 1.94976 0.190061 0
M  V30 3200 H 306.864 0.291562 -0.687751 0
M  V30 3201 H 309.526 0.060348 -1.94807 0
M  V30 3202 H 308.622 1.3038 -2.83562 0
M  V30 3203 N 308.923 1.53595 0.353017 0
M  V30 3204 C 310.172 1.69603 1.09168 0
M  V30 3205 C 310.485 0.460925 1.90092 0
M  V30 3206 O 311.691 0.501774 2.66823 0
M  V30 3207 C 310.147 2.99872 1.9901 0
M  V30 3208 C 309.755 4.30687 1.23339 0
M  V30 3209 C 311.499 3.25246 2.72792 0
M  V30 3210 C 309.406 5.52036 2.12156 0
M  V30 3211 H 308.336 0.631966 0.411261 0
M  V30 3212 H 310.987 1.80096 0.351802 0
M  V30 3213 H 309.369 2.83212 2.7678 0
M  V30 3214 H 310.543 4.58019 0.505456 0
M  V30 3215 H 308.858 4.11853 0.613663 0
M  V30 3216 H 311.455 4.13095 3.39495 0
M  V30 3217 H 311.798 2.41846 3.38846 0
M  V30 3218 H 312.331 3.42638 2.021 0
M  V30 3219 H 309.07 6.37951 1.50659 0
M  V30 3220 H 308.59 5.28966 2.82764 0
M  V30 3221 H 310.269 5.87313 2.71427 0
M  V30 3222 N 310.401 -0.613514 1.45168 0
M  V30 3223 C 311.364 -1.7065 1.53007 0
M  V30 3224 C 312.364 -1.5548 0.410184 0
M  V30 3225 O 313.554 -1.60656 0.673455 0
M  V30 3226 C 310.686 -3.09875 1.42093 0
M  V30 3227 H 311.879 -1.65068 2.50385 0
M  V30 3228 H 309.432 -0.828728 1.32521 0
M  V30 3229 H 310.167 -3.21039 0.458769 0
M  V30 3230 H 309.952 -3.22293 2.23315 0
M  V30 3231 H 311.442 -3.895 1.50598 0
M  V30 3232 N 311.879 -1.3236 -0.855495 0
M  V30 3233 C 312.789 -1.23221 -1.99634 0
M  V30 3234 C 313.805 -0.145983 -1.73387 0
M  V30 3235 O 314.981 -0.366502 -1.98037 0
M  V30 3236 C 312.046 -0.954782 -3.33294 0
M  V30 3237 C 311.107 -2.12937 -3.72769 0
M  V30 3238 C 310.34 -1.86508 -5.00051 0
M  V30 3239 O 310.563 -0.807231 -5.64659 0
M  V30 3240 O 309.497 -2.72591 -5.36636 0
M  V30 3241 H 313.323 -2.19126 -2.1028 0
M  V30 3242 H 310.908 -1.12241 -0.986018 0
M  V30 3243 H 312.79 -0.816519 -4.13414 0
M  V30 3244 H 311.465 -0.0258854 -3.2369 0
M  V30 3245 H 310.372 -2.3231 -2.93228 0
M  V30 3246 H 311.705 -3.04102 -3.87018 0
M  V30 3247 N 313.357 1.07166 -1.15556 0
M  V30 3248 C 314.304 2.14417 -0.854055 0
M  V30 3249 C 315.274 1.64965 0.193806 0
M  V30 3250 O 316.459 1.90703 0.0609443 0
M  V30 3251 C 313.599 3.43304 -0.351574 0
M  V30 3252 C 312.712 4.06537 -1.46123 0
M  V30 3253 C 311.847 5.23266 -0.914677 0
M  V30 3254 C 310.886 5.78464 -2.00114 0
M  V30 3255 N 310.023 6.86521 -1.47083 0
M  V30 3256 H 314.863 2.39548 -1.77259 0
M  V30 3257 H 312.4 1.17543 -0.884425 0
M  V30 3258 H 314.358 4.17179 -0.0419409 0
M  V30 3259 H 312.988 3.18419 0.530037 0
M  V30 3260 H 312.04 3.30297 -1.88701 0
M  V30 3261 H 313.352 4.43567 -2.28144 0
M  V30 3262 H 312.506 6.04131 -0.557698 0
M  V30 3263 H 311.245 4.87658 -0.0636583 0
M  V30 3264 H 310.25 4.96243 -2.36692 0
M  V30 3265 H 311.475 6.16126 -2.85597 0
M  V30 3266 H 309.421 6.52849 -0.642198 0
M  V30 3267 H 309.338 7.22446 -2.22729 0
M  V30 3268 H 310.606 7.71087 -1.14215 0
M  V30 3269 N 314.835 0.952656 1.25548 0
M  V30 3270 C 316.246 0.647392 1.75116 0
M  V30 3271 C 316.597 -0.837274 1.77438 0
M  V30 3272 O 315.722 -1.65525 1.39393 0
M  V30 3273 C 316.317 1.16845 3.18014 0
M  V30 3274 C 314.876 0.913382 3.6515 0
M  V30 3275 C 314.023 1.31265 2.44264 0
M  V30 3276 H 316.974 1.12968 1.11462 0
M  V30 3277 H 316.995 0.527606 3.76824 0
M  V30 3278 H 316.507 2.24902 3.16292 0
M  V30 3279 H 314.608 -0.152316 3.72289 0
M  V30 3280 H 314.721 1.54845 4.53387 0
M  V30 3281 H 313.085 0.731028 2.43984 0
M  V30 3282 H 313.868 2.40239 2.45234 0
M  V30 3283 N 316.313 -1.40141 0.720998 0
M  V30 3284 C 317.243 -2.33339 0.0867621 0
M  V30 3285 C 318.224 -1.53178 -0.739622 0
M  V30 3286 O 319.409 -1.81625 -0.687449 0
M  V30 3287 C 316.539 -3.37194 -0.831728 0
M  V30 3288 C 315.493 -4.27857 -0.110558 0
M  V30 3289 C 314.819 -5.22294 -1.14513 0
M  V30 3290 C 316.119 -5.11872 1.0385 0
M  V30 3291 H 317.813 -2.86626 0.865219 0
M  V30 3292 H 315.359 -1.37814 0.417516 0
M  V30 3293 H 317.312 -4.01335 -1.28485 0
M  V30 3294 H 316.036 -2.82314 -1.64214 0
M  V30 3295 H 314.695 -3.65176 0.322797 0
M  V30 3296 H 314.343 -4.63717 -1.94874 0
M  V30 3297 H 314.043 -5.83797 -0.667446 0
M  V30 3298 H 315.567 -5.89312 -1.59824 0
M  V30 3299 H 316.981 -5.69436 0.664482 0
M  V30 3300 H 315.378 -5.82445 1.4449 0
M  V30 3301 H 316.448 -4.4753 1.86668 0
M  V30 3302 N 317.792 -0.46758 -1.50504 0
M  V30 3303 C 318.722 0.318381 -2.31319 0
M  V30 3304 C 319.703 0.993564 -1.38066 0
M  V30 3305 O 320.888 0.991411 -1.66987 0
M  V30 3306 C 318.018 1.40275 -3.17711 0
M  V30 3307 C 316.972 0.849373 -4.19487 0
M  V30 3308 C 316.298 2.03177 -4.94594 0
M  V30 3309 C 317.598 -0.136942 -5.2212 0
M  V30 3310 H 319.292 -0.356106 -2.97275 0
M  V30 3311 H 316.838 -0.172703 -1.42961 0
M  V30 3312 H 318.791 1.96004 -3.73042 0
M  V30 3313 H 317.515 2.10596 -2.49634 0
M  V30 3314 H 316.174 0.314076 -3.65252 0
M  V30 3315 H 315.822 2.72187 -4.22993 0
M  V30 3316 H 315.522 1.66774 -5.63436 0
M  V30 3317 H 317.046 2.59403 -5.52759 0
M  V30 3318 H 318.46 0.331056 -5.72343 0
M  V30 3319 H 316.857 -0.41507 -5.98663 0
M  V30 3320 H 317.927 -1.06398 -4.73083 0
M  V30 3321 N 319.27 1.56325 -0.20005 0
M  V30 3322 C 320.233 2.18084 0.705132 0
M  V30 3323 C 321.233 1.13666 1.1374 0
M  V30 3324 O 322.423 1.39023 1.04968 0
M  V30 3325 C 319.555 2.78689 1.96329 0
M  V30 3326 H 320.748 2.99435 0.167023 0
M  V30 3327 H 318.301 1.56221 0.0495725 0
M  V30 3328 H 319.036 2.0115 2.5438 0
M  V30 3329 H 318.821 3.55133 1.66202 0
M  V30 3330 H 320.311 3.26096 2.60866 0
M  V30 3331 N 320.748 -0.0735177 1.57428 0
M  V30 3332 C 322.164 -0.428264 1.53747 0
M  V30 3333 C 322.364 -1.79272 0.91998 0
M  V30 3334 O 321.42 -2.47051 0.521745 0
M  V30 3335 C 322.733 -0.370914 2.98404 0
M  V30 3336 C 324.281 -0.451224 3.0973 0
M  V30 3337 C 324.756 -0.4238 4.56035 0
M  V30 3338 N 326.247 -0.483925 4.60665 0
M  V30 3339 C 326.982 -0.484891 5.71346 0
M  V30 3340 N 326.478 -0.440775 6.91396 0
M  V30 3341 N 328.271 -0.531319 5.59583 0
M  V30 3342 H 320.422 0.819949 1.95935 0
M  V30 3343 H 322.685 0.307493 0.896745 0
M  V30 3344 H 322.391 0.564956 3.47133 0
M  V30 3345 H 322.265 -1.18176 3.5821 0
M  V30 3346 H 324.652 -1.37752 2.60976 0
M  V30 3347 H 324.733 0.388167 2.52838 0
M  V30 3348 H 324.377 0.498638 5.05446 0
M  V30 3349 H 324.307 -1.2807 5.10789 0
M  V30 3350 H 326.798 -0.522338 3.74273 0
M  V30 3351 H 327.111 -0.44539 7.71515 0
M  V30 3352 H 325.456 -0.40749 6.93804 0
M  V30 3353 H 328.647 -0.563464 4.64696 0
M  V30 3354 H 328.82 -0.528603 6.4584 0
M  V30 3355 N 322.226 -1.5378 -0.344866 0
M  V30 3356 C 323.642 -1.44015 -0.687888 0
M  V30 3357 C 323.842 -0.595834 -1.92489 0
M  V30 3358 O 322.898 -0.0863064 -2.52352 0
M  V30 3359 C 324.211 -2.87481 -0.881758 0
M  V30 3360 C 325.759 -2.97247 -0.980459 0
M  V30 3361 C 326.234 -4.41819 -1.20665 0
M  V30 3362 N 327.725 -4.45339 -1.27389 0
M  V30 3363 C 328.46 -5.54333 -1.46639 0
M  V30 3364 N 327.956 -6.73335 -1.63071 0
M  V30 3365 N 329.749 -5.41944 -1.49176 0
M  V30 3366 H 321.9 -2.07169 0.468475 0
M  V30 3367 H 324.163 -0.93643 0.147655 0
M  V30 3368 H 323.869 -3.51672 -0.0443444 0
M  V30 3369 H 323.743 -3.32352 -1.78388 0
M  V30 3370 H 326.13 -2.33197 -1.8084 0
M  V30 3371 H 326.211 -2.5574 -0.0552713 0
M  V30 3372 H 325.855 -5.06449 -0.383652 0
M  V30 3373 H 325.785 -4.80917 -2.14539 0
M  V30 3374 H 328.276 -3.59585 -1.1622 0
M  V30 3375 H 328.589 -7.52165 -1.77391 0
M  V30 3376 H 326.934 -6.76282 -1.60209 0
M  V30 3377 H 330.125 -4.47932 -1.3592 0
M  V30 3378 H 330.298 -6.26946 -1.63837 0
M  V30 3379 N 323.704 0.605807 -1.45491 0
M  V30 3380 C 324.934 1.38934 -1.52908 0
M  V30 3381 C 325.342 1.88513 -0.161086 0
M  V30 3382 O 324.685 1.62962 0.847891 0
M  V30 3383 C 324.747 2.62737 -2.45376 0
M  V30 3384 C 324.411 2.34785 -3.92078 0
M  V30 3385 C 325.408 1.95038 -4.8193 0
M  V30 3386 C 323.093 2.47642 -4.37011 0
M  V30 3387 C 325.087 1.68511 -6.14722 0
M  V30 3388 C 322.774 2.20728 -5.69844 0
M  V30 3389 C 323.772 1.81225 -6.58519 0
M  V30 3390 O 323.46 1.54627 -7.88889 0
M  V30 3391 H 323.192 0.431629 -0.520262 0
M  V30 3392 H 325.746 0.74573 -1.91384 0
M  V30 3393 H 323.976 3.29824 -2.01874 0
M  V30 3394 H 325.665 3.24783 -2.43456 0
M  V30 3395 H 326.431 1.84639 -4.48479 0
M  V30 3396 H 322.31 2.77356 -3.68232 0
M  V30 3397 H 325.854 1.37602 -6.83894 0
M  V30 3398 H 321.751 2.30744 -6.02849 0
M  V30 3399 H 322.519 1.68665 -8.00933 0
M  V30 3400 N 325.182 1.32811 0.848464 0
M  V30 3401 C 326.145 1.22194 1.9391 0
M  V30 3402 C 327.145 0.143404 1.60159 0
M  V30 3403 O 328.335 0.394253 1.6968 0
M  V30 3404 C 325.467 0.88067 3.29328 0
M  V30 3405 H 326.66 2.19127 2.04752 0
M  V30 3406 H 324.213 1.16731 1.0394 0
M  V30 3407 H 324.948 -0.0865776 3.24184 0
M  V30 3408 H 324.733 1.66052 3.55203 0
M  V30 3409 H 326.223 0.830871 4.09251 0
M  V30 3410 N 326.66 -1.06551 1.16123 0
M  V30 3411 C 328.076 -1.3142 0.905585 0
M  V30 3412 C 328.276 -1.96571 -0.442964 0
M  V30 3413 O 327.332 -2.23068 -1.18308 0
M  V30 3414 C 328.645 -2.19741 2.05267 0
M  V30 3415 C 330.193 -2.33165 2.08813 0
M  V30 3416 C 330.668 -3.24838 3.22868 0
M  V30 3417 N 332.159 -3.32421 3.22568 0
M  V30 3418 C 332.894 -4.0344 4.0746 0
M  V30 3419 N 332.39 -4.77003 5.02434 0
M  V30 3420 N 334.183 -3.99464 3.95456 0
M  V30 3421 H 326.334 -0.626548 2.02949 0
M  V30 3422 H 328.597 -0.338777 0.8854 0
M  V30 3423 H 328.303 -1.79142 3.02657 0
M  V30 3424 H 328.177 -3.20313 1.99198 0
M  V30 3425 H 330.564 -2.73013 1.12018 0
M  V30 3426 H 330.645 -1.3227 2.18948 0
M  V30 3427 H 330.289 -2.85708 4.19921 0
M  V30 3428 H 330.219 -4.25707 3.0997 0
M  V30 3429 H 332.71 -2.79994 2.53795 0
M  V30 3430 H 333.023 -5.28712 5.63634 0
M  V30 3431 H 331.368 -4.75992 5.06415 0
M  V30 3432 H 334.559 -3.4111 3.20564 0
M  V30 3433 H 334.732 -4.54544 4.61837 0
M  V30 3434 N 328.138 -0.959301 -1.25041 0
M  V30 3435 C 329.085 -0.482057 -2.2571 0
M  V30 3436 C 330.055 0.467939 -1.59372 0
M  V30 3437 O 331.24 0.380159 -1.86974 0
M  V30 3438 C 328.38 0.229623 -3.44335 0
M  V30 3439 C 327.493 -0.758156 -4.25295 0
M  V30 3440 C 326.628 -0.0234403 -5.31195 0
M  V30 3441 C 325.667 -1.00184 -6.03846 0
M  V30 3442 N 324.804 -0.29769 -7.01469 0
M  V30 3443 H 329.644 -1.34538 -2.65901 0
M  V30 3444 H 327.181 -0.674592 -1.3072 0
M  V30 3445 H 329.139 0.658856 -4.11965 0
M  V30 3446 H 327.769 1.05696 -3.05005 0
M  V30 3447 H 326.821 -1.30586 -3.57284 0
M  V30 3448 H 328.133 -1.50458 -4.75567 0
M  V30 3449 H 327.287 0.464201 -6.04922 0
M  V30 3450 H 326.026 0.755741 -4.81809 0
M  V30 3451 H 325.031 -1.50044 -5.2893 0
M  V30 3452 H 326.256 -1.78133 -6.55321 0
M  V30 3453 H 324.202 0.462668 -6.54366 0
M  V30 3454 H 324.119 -0.983128 -7.4958 0
M  V30 3455 H 325.387 0.16826 -7.79318 0
M  V30 3456 N 329.616 1.39756 -0.72842 0
M  V30 3457 C 330.862 2.00942 -0.273892 0
M  V30 3458 C 331.195 1.57656 1.13394 0
M  V30 3459 O 330.47 0.802434 1.77176 0
M  V30 3460 C 330.753 3.58211 -0.368346 0
M  V30 3461 C 330.606 4.11534 -1.81548 0
M  V30 3462 C 331.925 4.39372 0.253054 0
M  V30 3463 H 329.044 0.730047 -0.100996 0
M  V30 3464 H 331.686 1.66056 -0.923337 0
M  V30 3465 H 329.836 3.88061 0.184588 0
M  V30 3466 H 331.508 3.92431 -2.42478 0
M  V30 3467 H 329.751 3.65341 -2.33898 0
M  V30 3468 H 330.422 5.20682 -1.83288 0
M  V30 3469 H 332.898 4.15527 -0.218224 0
M  V30 3470 H 331.774 5.48677 0.156585 0
M  V30 3471 H 332.035 4.21358 1.33826 0
M  V30 3472 N 331.094 0.475555 1.50254 0
M  V30 3473 C 332.024 -0.30611 2.31485 0
M  V30 3474 C 333.005 -0.986228 1.38591 0
M  V30 3475 O 334.19 -0.982541 1.67511 0
M  V30 3476 C 331.32 -1.38588 3.1845 0
M  V30 3477 C 330.274 -0.827115 4.19932 0
M  V30 3478 C 329.6 -2.00551 4.95665 0
M  V30 3479 C 330.9 0.16463 5.2204 0
M  V30 3480 H 332.594 0.371866 2.97082 0
M  V30 3481 H 330.14 0.180282 1.42867 0
M  V30 3482 H 332.093 -1.94023 3.74076 0
M  V30 3483 H 330.817 -2.09269 2.50747 0
M  V30 3484 H 329.476 -0.294702 3.65414 0
M  V30 3485 H 329.124 -2.6994 4.2443 0
M  V30 3486 H 328.824 -1.63784 5.64313 0
M  V30 3487 H 330.348 -2.56468 5.54127 0
M  V30 3488 H 331.762 -0.300699 5.72511 0
M  V30 3489 H 330.159 0.446813 5.98434 0
M  V30 3490 H 331.229 1.08905 4.72512 0
M  V30 3491 N 332.573 -1.56217 0.208337 0
M  V30 3492 C 333.801 -2.02337 -0.43215 0
M  V30 3493 C 334.216 -1.08834 -1.54275 0
M  V30 3494 O 333.573 -0.0955462 -1.8225 0
M  V30 3495 C 333.624 -3.48072 -0.976138 0
M  V30 3496 O 333.345 -4.38007 0.0901621 0
M  V30 3497 C 334.846 -4.09773 -1.69119 0
M  V30 3498 H 332.066 -0.662385 -0.10718 0
M  V30 3499 H 334.61 -2.01966 0.320923 0
M  V30 3500 H 332.765 -3.49099 -1.67954 0
M  V30 3501 H 333.179 -5.23543 -0.316701 0
M  V30 3502 H 334.653 -5.13556 -2.02397 0
M  V30 3503 H 335.13 -3.53999 -2.59964 0
M  V30 3504 H 335.736 -4.12556 -1.03332 0
M  V30 3505 N 334.051 0.0651679 -1.57465 0
M  V30 3506 C 335.467 0.420105 -1.53972 0
M  V30 3507 C 335.667 1.78782 -0.929474 0
M  V30 3508 O 334.723 2.46771 -0.534839 0
M  V30 3509 C 336.036 0.355084 -2.98596 0
M  V30 3510 C 337.584 0.434792 -3.09965 0
M  V30 3511 C 338.059 0.399609 -4.56253 0
M  V30 3512 N 339.55 0.459488 -4.60915 0
M  V30 3513 C 340.285 0.454584 -5.71595 0
M  V30 3514 N 339.781 0.404102 -6.9162 0
M  V30 3515 N 341.574 0.501635 -5.59857 0
M  V30 3516 H 333.725 -0.830328 -1.95498 0
M  V30 3517 H 335.988 -0.312244 -0.895102 0
M  V30 3518 H 335.694 -0.583357 -3.46828 0
M  V30 3519 H 335.568 1.16275 -3.58831 0
M  V30 3520 H 337.955 1.36366 -2.61703 0
M  V30 3521 H 338.036 -0.40157 -2.52628 0
M  V30 3522 H 337.68 -0.525436 -5.05175 0
M  V30 3523 H 337.61 1.25359 -5.11461 0
M  V30 3524 H 340.101 0.502482 -3.74544 0
M  V30 3525 H 340.414 0.404468 -7.71741 0
M  V30 3526 H 338.759 0.37069 -6.94011 0
M  V30 3527 H 341.95 0.538812 -4.64989 0
M  V30 3528 H 342.123 0.494345 -6.46112 0
M  V30 3529 N 335.529 1.53961 0.336706 0
M  V30 3530 C 336.461 1.78751 1.4346 0
M  V30 3531 C 337.474 0.669019 1.48418 0
M  V30 3532 O 338.663 0.945884 1.51378 0
M  V30 3533 C 335.763 1.87844 2.82078 0
M  V30 3534 C 334.936 3.17854 3.00479 0
M  V30 3535 C 333.995 3.17816 4.19379 0
M  V30 3536 O 333.021 3.91511 4.13168 0
M  V30 3537 N 334.223 2.40669 5.2826 0
M  V30 3538 H 336.988 2.73493 1.22563 0
M  V30 3539 H 334.549 1.53096 0.526625 0
M  V30 3540 H 336.541 1.85261 3.59806 0
M  V30 3541 H 335.111 1.00257 2.96086 0
M  V30 3542 H 334.331 3.33504 2.10163 0
M  V30 3543 H 335.619 4.03718 3.0966 0
M  V30 3544 H 335.017 1.8036 5.36178 0
M  V30 3545 H 333.574 2.43877 6.04456 0
M  V30 3546 N 337.007 -0.598083 1.45811 0
M  V30 3547 C 337.937 -1.71873 1.58057 0
M  V30 3548 C 338.918 -1.64533 0.431615 0
M  V30 3549 O 340.103 -1.82787 0.65595 0
M  V30 3550 C 337.233 -3.10495 1.55597 0
M  V30 3551 C 336.187 -3.32654 2.69305 0
M  V30 3552 C 335.513 -4.71646 2.51902 0
M  V30 3553 C 336.813 -3.21981 4.11248 0
M  V30 3554 H 338.507 -1.61881 2.51863 0
M  V30 3555 H 336.053 -0.777372 1.21214 0
M  V30 3556 H 338.006 -3.88699 1.6276 0
M  V30 3557 H 336.73 -3.2135 0.583255 0
M  V30 3558 H 335.389 -2.56843 2.61586 0
M  V30 3559 H 335.037 -4.79246 1.52748 0
M  V30 3560 H 334.737 -4.87426 3.2816 0
M  V30 3561 H 336.261 -5.52038 2.60933 0
M  V30 3562 H 337.675 -3.90049 4.20161 0
M  V30 3563 H 336.072 -3.49289 4.87972 0
M  V30 3564 H 337.142 -2.1928 4.32486 0
M  V30 3565 N 338.485 -1.33259 -0.841409 0
M  V30 3566 C 339.901 -1.12538 -1.13169 0
M  V30 3567 C 340.101 0.0854037 -2.01319 0
M  V30 3568 O 339.157 0.766417 -2.40587 0
M  V30 3569 C 340.47 -2.41156 -1.79623 0
M  V30 3570 C 342.018 -2.47038 -1.922 0
M  V30 3571 C 342.493 -3.7561 -2.6207 0
M  V30 3572 N 343.984 -3.76667 -2.69585 0
M  V30 3573 C 344.719 -4.72861 -3.2433 0
M  V30 3574 N 344.215 -5.79428 -3.79783 0
M  V30 3575 N 346.008 -4.6034 -3.22558 0
M  V30 3576 H 338.159 -2.10868 -0.254676 0
M  V30 3577 H 340.422 -0.931615 -0.175493 0
M  V30 3578 H 340.128 -3.29747 -1.22311 0
M  V30 3579 H 340.002 -2.53114 -2.79666 0
M  V30 3580 H 342.389 -1.58898 -2.48667 0
M  V30 3581 H 342.47 -2.39022 -0.911148 0
M  V30 3582 H 342.114 -4.64131 -2.06263 0
M  V30 3583 H 342.044 -3.80902 -3.63622 0
M  V30 3584 H 344.535 -2.99648 -2.30259 0
M  V30 3585 H 344.848 -6.48867 -4.19752 0
M  V30 3586 H 343.193 -5.83166 -3.78078 0
M  V30 3587 H 346.384 -3.76244 -2.78492 0
M  V30 3588 H 346.557 -5.35478 -3.64921 0
M  V30 3589 N 339.963 1.05934 -1.16686 0
M  V30 3590 C 341.379 1.30938 -0.912542 0
M  V30 3591 C 341.579 1.96803 0.432533 0
M  V30 3592 O 340.635 2.23693 1.17123 0
M  V30 3593 C 341.948 2.18649 -2.06429 0
M  V30 3594 C 343.496 2.32055 -2.10047 0
M  V30 3595 C 343.971 3.23122 -3.24586 0
M  V30 3596 N 345.462 3.30706 -3.24327 0
M  V30 3597 C 346.197 4.01273 -4.09594 0
M  V30 3598 N 345.693 4.74332 -5.04956 0
M  V30 3599 N 347.486 3.97361 -3.97569 0
M  V30 3600 H 339.637 0.615777 -2.03278 0
M  V30 3601 H 341.9 0.334077 -0.887185 0
M  V30 3602 H 341.606 1.77534 -3.03603 0
M  V30 3603 H 341.48 3.19252 -2.00894 0
M  V30 3604 H 343.867 2.72415 -1.13464 0
M  V30 3605 H 343.948 1.31107 -2.19647 0
M  V30 3606 H 343.592 2.83477 -4.2143 0
M  V30 3607 H 343.522 4.24057 -3.12223 0
M  V30 3608 H 346.013 2.78644 -2.55276 0
M  V30 3609 H 346.326 5.25716 -5.6643 0
M  V30 3610 H 344.671 4.733 -5.08933 0
M  V30 3611 H 347.862 3.39405 -3.22369 0
M  V30 3612 H 348.035 4.52089 -4.64241 0
M  V30 3613 N 341.441 0.965919 1.2453 0
M  V30 3614 C 342.687 0.62776 1.92839 0
M  V30 3615 C 343.02 -0.834694 1.75347 0
M  V30 3616 O 342.295 -1.60031 1.10546 0
M  V30 3617 C 342.578 1.00109 3.45905 0
M  V30 3618 C 342.431 2.52011 3.72573 0
M  V30 3619 C 343.75 0.53435 4.36844 0
M  V30 3620 H 340.869 0.229537 0.700344 0
M  V30 3621 H 343.511 1.2046 1.46933 0
M  V30 3622 H 341.661 0.510238 3.85135 0
M  V30 3623 H 343.333 3.08559 3.42912 0
M  V30 3624 H 341.576 2.95287 3.17786 0
M  V30 3625 H 342.247 2.73183 4.79661 0
M  V30 3626 H 344.723 0.955565 4.04979 0
M  V30 3627 H 343.599 0.824152 5.42678 0
M  V30 3628 H 343.86 -0.565589 4.38467 0
M  V30 3629 N 342.919 -1.39368 0.735821 0
M  V30 3630 C 343.852 -2.28155 0.0451175 0
M  V30 3631 C 344.83 -1.44433 -0.746852 0
M  V30 3632 O 346.014 -1.73823 -0.729237 0
M  V30 3633 C 343.141 -3.253 -0.943266 0
M  V30 3634 C 342.187 -4.25826 -0.239685 0
M  V30 3635 S 343.02 -5.25166 1.04693 0
M  V30 3636 C 344.176 -6.2587 0.0611639 0
M  V30 3637 H 344.409 -2.86388 0.79807 0
M  V30 3638 H 341.942 -1.45104 0.527653 0
M  V30 3639 H 343.9 -3.81789 -1.50824 0
M  V30 3640 H 342.561 -2.66085 -1.66906 0
M  V30 3641 H 341.754 -4.94229 -0.987596 0
M  V30 3642 H 341.356 -3.73141 0.253274 0
M  V30 3643 H 343.648 -6.73007 -0.778941 0
M  V30 3644 H 344.591 -7.04508 0.712362 0
M  V30 3645 H 344.999 -5.63639 -0.311602 0
M  V30 3646 N 344.397 -0.483516 -1.5 0
M  V30 3647 C 345.307 0.309172 -2.32554 0
M  V30 3648 C 346.323 0.984159 -1.43493 0
M  V30 3649 O 347.499 0.969399 -1.76535 0
M  V30 3650 C 344.564 1.36979 -3.18493 0
M  V30 3651 C 343.625 0.710095 -4.23387 0
M  V30 3652 C 342.858 1.72018 -5.05218 0
M  V30 3653 O 343.081 2.94813 -4.88305 0
M  V30 3654 O 342.015 1.28515 -5.8802 0
M  V30 3655 H 345.841 -0.366064 -3.01486 0
M  V30 3656 H 343.426 -0.24514 -1.47375 0
M  V30 3657 H 345.308 1.98385 -3.71781 0
M  V30 3658 H 343.983 2.02828 -2.52275 0
M  V30 3659 H 342.89 0.0567539 -3.74057 0
M  V30 3660 H 344.223 0.0943557 -4.9211 0
M  V30 3661 N 345.875 1.56104 -0.216619 0
M  V30 3662 C 346.838 2.18819 0.681962 0
M  V30 3663 C 347.838 1.14866 1.12528 0
M  V30 3664 O 349.028 1.40128 1.03488 0
M  V30 3665 C 346.16 2.80756 1.93362 0
M  V30 3666 H 347.353 2.99595 0.135254 0
M  V30 3667 H 344.906 1.56265 0.0330003 0
M  V30 3668 H 345.641 2.03837 2.52232 0
M  V30 3669 H 345.426 3.56876 1.62426 0
M  V30 3670 H 346.916 3.28844 2.57393 0
M  V30 3671 N 347.353 -0.0568162 1.57498 0
M  V30 3672 C 348.63 -0.786954 1.79071 0
M  V30 3673 C 349.01 -1.95028 0.80792 0
M  V30 3674 O 348.358 -2.27968 -0.155858 0
M  V30 3675 C 348.568 -1.24594 3.26002 0
M  V30 3676 C 349.916 -1.67323 3.90241 0
M  V30 3677 O 350.94 -1.34124 3.29984 0
M  V30 3678 O 349.799 -2.28842 4.9628 0
M  V30 3679 H 346.893 -0.378262 0.735423 0
M  V30 3680 H 349.439 -0.035734 1.69662 0
M  V30 3681 H 348.211 -0.41423 3.89101 0
M  V30 3682 H 347.834 -2.05803 3.40192 0
M  V30 3683 N 348.832 -1.54138 -0.328536 0
M  V30 3684 C 349.762 -1.86167 -1.40939 0
M  V30 3685 C 350.743 -0.718044 -1.54202 0
M  V30 3686 O 351.928 -0.971328 -1.68163 0
M  V30 3687 C 349.058 -2.08461 -2.77779 0
M  V30 3688 C 348.012 -3.24299 -2.7931 0
M  V30 3689 C 347.338 -3.31955 -4.19178 0
M  V30 3690 C 348.638 -4.62065 -2.43502 0
M  V30 3691 H 350.332 -2.76689 -1.14383 0
M  V30 3692 H 347.878 -1.33132 -0.548806 0
M  V30 3693 H 349.831 -2.29453 -3.53454 0
M  V30 3694 H 348.555 -1.14684 -3.05802 0
M  V30 3695 H 347.214 -3.03187 -2.0609 0
M  V30 3696 H 346.862 -2.35745 -4.44335 0
M  V30 3697 H 346.562 -4.09805 -4.2111 0
M  V30 3698 H 348.086 -3.55175 -4.96672 0
M  V30 3699 H 349.5 -4.8297 -3.08889 0
M  V30 3700 H 347.897 -5.42429 -2.56693 0
M  V30 3701 H 348.967 -4.64652 -1.38659 0
M  V30 3702 N 350.31 0.590341 -1.46126 0
M  V30 3703 C 351.535 1.37991 -1.54833 0
M  V30 3704 C 351.96 1.87163 -0.187506 0
M  V30 3705 O 351.318 1.61133 0.831008 0
M  V30 3706 C 351.366 2.54867 -2.55098 0
M  V30 3707 O 350.47 3.56061 -2.08073 0
M  V30 3708 H 349.811 0.411265 -0.521303 0
M  V30 3709 H 352.341 0.716819 -1.91632 0
M  V30 3710 H 352.351 3.01886 -2.74461 0
M  V30 3711 H 351.026 2.18429 -3.53923 0
M  V30 3712 H 349.603 3.15574 -1.98664 0
M  V30 3713 N 351.788 1.33704 0.83433 0
M  V30 3714 C 352.718 1.26967 1.95963 0
M  V30 3715 C 353.699 0.149337 1.69443 0
M  V30 3716 O 354.884 0.339852 1.91203 0
M  V30 3717 C 352.014 1.01275 3.32206 0
M  V30 3718 C 350.968 2.09652 3.73136 0
M  V30 3719 C 350.294 1.69166 5.07235 0
M  V30 3720 C 351.594 3.51372 3.86439 0
M  V30 3721 H 353.288 2.2112 2.01857 0
M  V30 3722 H 350.834 1.06447 0.969793 0
M  V30 3723 H 352.787 0.952106 4.10503 0
M  V30 3724 H 351.511 0.0356203 3.26581 0
M  V30 3725 H 350.17 2.14766 2.97104 0
M  V30 3726 H 349.818 0.701437 4.98085 0
M  V30 3727 H 349.518 2.41694 5.35591 0
M  V30 3728 H 351.042 1.64576 5.88003 0
M  V30 3729 H 352.456 3.48734 4.55036 0
M  V30 3730 H 350.853 4.22425 4.26236 0
M  V30 3731 H 351.923 3.89546 2.88759 0
M  V30 3732 N 353.266 -1.05314 1.17247 0
M  V30 3733 C 354.514 -1.77941 0.958194 0
M  V30 3734 C 354.835 -1.88089 -0.514556 0
M  V30 3735 O 354.105 -1.39676 -1.37359 0
M  V30 3736 H 352.685 -0.659116 0.351533 0
M  V30 3737 H 355.347 -1.27166 1.47699 0
M  V30 3738 H 354.443 -2.79663 1.38546 0
M  V30 3739 N 354.744 -0.972509 -1.24016 0
M  V30 3740 C 355.674 -0.525548 -2.27509 0
M  V30 3741 C 356.655 0.437262 -1.64384 0
M  V30 3742 O 357.84 0.332343 -1.91335 0
M  V30 3743 C 354.97 0.180448 -3.46831 0
M  V30 3744 C 353.924 -0.698859 -4.22256 0
M  V30 3745 C 353.25 0.138903 -5.3452 0
M  V30 3746 C 354.55 -1.98582 -4.83076 0
M  V30 3747 H 356.244 -1.39058 -2.65148 0
M  V30 3748 H 353.79 -0.67009 -1.27459 0
M  V30 3749 H 355.743 0.504387 -4.18371 0
M  V30 3750 H 354.467 1.07987 -3.08231 0
M  V30 3751 H 353.126 -1.00614 -3.52523 0
M  V30 3752 H 352.774 1.03862 -4.9216 0
M  V30 3753 H 352.474 -0.446259 -5.85903 0
M  V30 3754 H 353.998 0.457404 -6.08884 0
M  V30 3755 H 355.412 -1.72715 -5.46665 0
M  V30 3756 H 353.809 -2.5181 -5.44713 0
M  V30 3757 H 354.879 -2.67769 -4.04262 0
M  V30 3758 N 356.222 1.38976 -0.743202 0
M  V30 3759 C 357.185 2.28901 -0.117014 0
M  V30 3760 C 358.185 1.46698 0.658503 0
M  V30 3761 O 359.375 1.67274 0.486305 0
M  V30 3762 C 356.507 3.30309 0.84315 0
M  V30 3763 H 357.7 2.8578 -0.909373 0
M  V30 3764 H 355.253 1.47761 -0.509547 0
M  V30 3765 H 355.988 2.785 1.66157 0
M  V30 3766 H 355.773 3.91029 0.289594 0
M  V30 3767 H 357.263 3.97577 1.2776 0
M  V30 3768 N 357.7 0.491464 1.49741 0
M  V30 3769 C 358.65 -0.311086 2.25868 0
M  V30 3770 C 359.634 -0.943857 1.30308 0
M  V30 3771 O 360.826 -0.853035 1.55088 0
M  V30 3772 C 357.955 -1.38059 3.14316 0
M  V30 3773 C 357.041 -0.754541 4.17334 0
M  V30 3774 N 357.432 0.137216 5.05614 0
M  V30 3775 C 355.73 -1.01621 4.34269 0
M  V30 3776 C 356.431 0.494614 5.79593 0
M  V30 3777 N 355.407 -0.135169 5.43432 0
M  V30 3778 H 359.209 0.37555 2.91491 0
M  V30 3779 H 356.723 0.306917 1.59473 0
M  V30 3780 H 358.72 -1.96891 3.67477 0
M  V30 3781 H 357.38 -2.06901 2.50244 0
M  V30 3782 H 358.391 0.50741 5.15408 0
M  V30 3783 H 355.068 -1.69808 3.81407 0
M  V30 3784 H 356.458 1.2236 6.60665 0
M  V30 3785 N 359.178 -1.55987 0.224894 0
M  V30 3786 C 360.088 -2.24066 -0.69511 0
M  V30 3787 C 361.104 -1.24939 -1.21104 0
M  V30 3788 O 362.28 -1.5776 -1.25195 0
M  V30 3789 C 359.345 -2.90983 -1.88493 0
M  V30 3790 C 358.406 -4.05462 -1.41064 0
M  V30 3791 C 357.639 -4.69179 -2.54375 0
M  V30 3792 O 357.862 -4.31895 -3.72589 0
M  V30 3793 O 356.796 -5.58108 -2.25386 0
M  V30 3794 H 360.622 -3.03353 -0.145149 0
M  V30 3795 H 358.207 -1.49399 -0.00569476 0
M  V30 3796 H 360.089 -3.33209 -2.57972 0
M  V30 3797 H 358.764 -2.14653 -2.42293 0
M  V30 3798 H 357.671 -3.67798 -0.683774 0
M  V30 3799 H 359.004 -4.83545 -0.918985 0
M  V30 3800 N 360.656 0.0484629 -1.57525 0
M  V30 3801 C 361.619 1.03956 -2.04269 0
M  V30 3802 C 362.619 1.30211 -0.943496 0
M  V30 3803 O 363.809 1.25539 -1.20771 0
M  V30 3804 C 360.941 2.37742 -2.44319 0
M  V30 3805 H 362.134 0.636182 -2.93075 0
M  V30 3806 H 359.687 0.294811 -1.53494 0
M  V30 3807 H 360.422 2.82866 -1.5861 0
M  V30 3808 H 360.207 2.20021 -3.24551 0
M  V30 3809 H 361.697 3.08936 -2.80978 0
M  V30 3810 N 362.134 1.5431 0.320358 0
M  V30 3811 C 363.064 1.86912 1.3995 0
M  V30 3812 C 364.045 0.726211 1.53819 0
M  V30 3813 O 365.23 0.980233 1.67646 0
M  V30 3814 C 362.36 2.09932 2.7667 0
M  V30 3815 C 361.314 3.25776 2.77586 0
M  V30 3816 C 360.64 3.34173 4.17412 0
M  V30 3817 C 361.94 4.6335 2.41048 0
M  V30 3818 H 363.634 2.77292 1.12914 0
M  V30 3819 H 361.18 1.33421 0.541738 0
M  V30 3820 H 363.133 2.31324 3.52232 0
M  V30 3821 H 361.857 1.16304 3.0519 0
M  V30 3822 H 360.516 3.04276 2.04479 0
M  V30 3823 H 360.164 2.38098 4.43078 0
M  V30 3824 H 359.864 4.12033 4.18931 0
M  V30 3825 H 361.388 3.57803 4.94782 0
M  V30 3826 H 362.802 4.84602 3.06324 0
M  V30 3827 H 361.199 5.43782 2.53813 0
M  V30 3828 H 362.269 4.65381 1.36193 0
M  V30 3829 N 363.613 -0.582584 1.46437 0
M  V30 3830 C 364.576 -1.67366 1.56592 0
M  V30 3831 C 365.576 -1.54575 0.443072 0
M  V30 3832 O 366.766 -1.59191 0.707381 0
M  V30 3833 C 363.898 -3.06791 1.48634 0
M  V30 3834 H 365.091 -1.5972 2.5383 0
M  V30 3835 H 362.644 -0.800432 1.34249 0
M  V30 3836 H 363.379 -3.19993 0.526763 0
M  V30 3837 H 363.164 -3.17484 2.30101 0
M  V30 3838 H 364.654 -3.86218 1.58826 0
M  V30 3839 N 365.091 -1.34144 -0.827227 0
M  V30 3840 C 366.054 -1.25264 -1.91942 0
M  V30 3841 C 367.054 -0.168866 -1.59911 0
M  V30 3842 O 368.244 -0.421198 -1.69031 0
M  V30 3843 C 365.376 -0.932952 -3.27885 0
M  V30 3844 H 366.569 -2.22357 -2.0124 0
M  V30 3845 H 364.122 -1.1837 -1.0207 0
M  V30 3846 H 364.857 0.0349917 -3.24281 0
M  V30 3847 H 364.642 -1.71682 -3.52516 0
M  V30 3848 H 366.132 -0.895874 -4.07877 0
M  V30 3849 N 366.569 1.04691 -1.17803 0
M  V30 3850 C 367.818 1.77176 -0.963931 0
M  V30 3851 C 368.131 1.88888 0.508015 0
M  V30 3852 O 369.337 2.58164 0.840465 0
M  V30 3853 C 367.793 3.18518 -1.67555 0
M  V30 3854 C 367.401 3.14919 -3.18637 0
M  V30 3855 C 369.145 3.95424 -1.54402 0
M  V30 3856 C 367.052 4.51081 -3.82466 0
M  V30 3857 H 365.982 0.664116 -0.357023 0
M  V30 3858 H 368.633 1.17303 -1.4111 0
M  V30 3859 H 367.015 3.78748 -1.15613 0
M  V30 3860 H 368.189 2.64178 -3.77554 0
M  V30 3861 H 366.504 2.51512 -3.31859 0
M  V30 3862 H 369.101 4.96106 -1.99456 0
M  V30 3863 H 369.444 4.13343 -0.495329 0
M  V30 3864 H 369.977 3.41754 -2.0359 0
M  V30 3865 H 366.716 4.38368 -4.87354 0
M  V30 3866 H 366.236 5.01951 -3.28337 0
M  V30 3867 H 367.915 5.2001 -3.84965 0
M  V30 3868 N 368.047 0.979072 1.23499 0
M  V30 3869 C 369.324 0.563674 1.87302 0
M  V30 3870 C 369.704 -0.959199 1.88049 0
M  V30 3871 O 369.052 -1.83535 1.36114 0
M  V30 3872 C 369.262 1.16822 3.28867 0
M  V30 3873 C 370.61 1.26014 4.0547 0
M  V30 3874 O 371.634 1.12158 3.38082 0
M  V30 3875 O 370.493 1.48044 5.26066 0
M  V30 3876 H 367.587 0.189602 0.804972 0
M  V30 3877 H 370.133 1.07407 1.31384 0
M  V30 3878 H 368.905 2.21049 3.22883 0
M  V30 3879 H 368.528 0.642564 3.92373 0
M  V30 3880 N 369.525 -1.3858 0.750561 0
M  V30 3881 C 370.455 -2.33102 0.136237 0
M  V30 3882 C 371.436 -1.54713 -0.706965 0
M  V30 3883 O 372.621 -1.83043 -0.648769 0
M  V30 3884 C 369.751 -3.38882 -0.760017 0
M  V30 3885 C 368.705 -4.27995 -0.0197785 0
M  V30 3886 C 368.031 -5.24605 -1.03408 0
M  V30 3887 C 369.331 -5.09554 1.14684 0
M  V30 3888 H 371.025 -2.84726 0.925822 0
M  V30 3889 H 368.571 -1.36898 0.446654 0
M  V30 3890 H 370.524 -4.0397 -1.19943 0
M  V30 3891 H 369.248 -2.85734 -1.58189 0
M  V30 3892 H 367.907 -3.64409 0.400184 0
M  V30 3893 H 367.555 -4.67746 -1.84994 0
M  V30 3894 H 367.255 -5.85081 -0.543464 0
M  V30 3895 H 368.779 -5.9257 -1.47288 0
M  V30 3896 H 370.193 -5.67899 0.785118 0
M  V30 3897 H 368.59 -5.7925 1.56812 0
M  V30 3898 H 369.66 -4.4347 1.96118 0
M  V30 3899 N 371.003 -0.499398 -1.49478 0
M  V30 3900 C 372.251 0.0455996 -2.02049 0
M  V30 3901 C 372.572 1.37633 -1.38138 0
M  V30 3902 O 371.842 1.8842 -0.536166 0
M  V30 3903 H 370.422 0.0198416 -0.746736 0
M  V30 3904 H 373.084 -0.656274 -1.83519 0
M  V30 3905 H 372.18 0.176445 -3.11601 0
M  V30 3906 N 372.481 1.55866 -0.233164 0
M  V30 3907 C 373.414 2.16794 0.712442 0
M  V30 3908 C 374.392 1.1158 1.18273 0
M  V30 3909 O 375.576 1.39897 1.26337 0
M  V30 3910 C 372.703 2.75757 1.96661 0
M  V30 3911 C 371.749 3.93902 1.63533 0
M  V30 3912 S 372.582 5.30223 0.74995 0
M  V30 3913 C 373.738 5.92631 2.01343 0
M  V30 3914 H 373.971 2.96662 0.194617 0
M  V30 3915 H 371.504 1.5439 -0.0177425 0
M  V30 3916 H 373.462 3.10367 2.68668 0
M  V30 3917 H 372.123 1.9586 2.45556 0
M  V30 3918 H 371.316 4.33702 2.56747 0
M  V30 3919 H 370.918 3.60499 0.995804 0
M  V30 3920 H 373.21 6.09312 2.96219 0
M  V30 3921 H 374.153 6.88388 1.65915 0
M  V30 3922 H 374.561 5.21571 2.15925 0
M  V30 3923 N 373.959 -0.0401083 1.57549 0
M  V30 3924 C 374.869 -1.06133 2.0922 0
M  V30 3925 C 375.885 -1.40356 1.0284 0
M  V30 3926 O 377.061 -1.49897 1.34509 0
M  V30 3927 C 374.126 -2.34658 2.55218 0
M  V30 3928 C 373.187 -2.07117 3.76033 0
M  V30 3929 C 372.42 -3.29514 4.19829 0
M  V30 3930 O 372.643 -4.39794 3.63232 0
M  V30 3931 O 371.577 -3.15863 5.12362 0
M  V30 3932 H 375.403 -0.652244 2.96613 0
M  V30 3933 H 372.988 -0.256368 1.47184 0
M  V30 3934 H 374.87 -3.10239 2.85184 0
M  V30 3935 H 373.545 -2.74883 1.70941 0
M  V30 3936 H 372.452 -1.29139 3.51104 0
M  V30 3937 H 373.785 -1.71754 4.61261 0
M  V30 3938 N 375.437 -1.54477 -0.31217 0
M  V30 3939 C 376.662 -1.77526 -1.07235 0
M  V30 3940 C 377.087 -0.527775 -1.80544 0
M  V30 3941 O 376.445 0.52121 -1.73646 0
M  V30 3942 C 376.493 -2.97535 -2.03728 0
M  V30 3943 O 375.597 -2.69878 -3.11833 0
M  V30 3944 H 374.938 -0.58792 -0.30862 0
M  V30 3945 H 377.468 -2.01532 -0.352993 0
M  V30 3946 H 377.478 -3.25198 -2.46395 0
M  V30 3947 H 376.153 -3.87996 -1.49774 0
M  V30 3948 H 374.73 -2.53199 -2.7376 0
M  V30 3949 N 376.915 0.57481 -1.46744 0
M  V30 3950 C 377.825 1.711 -1.60505 0
M  V30 3951 C 378.841 1.67008 -0.488307 0
M  V30 3952 O 380.017 1.86774 -0.753495 0
M  V30 3953 C 377.082 3.07608 -1.59932 0
M  V30 3954 C 376.143 3.22904 -2.82898 0
M  V30 3955 C 375.376 4.529 -2.82343 0
M  V30 3956 O 375.599 5.37278 -1.91542 0
M  V30 3957 O 374.533 4.71611 -3.73987 0
M  V30 3958 H 378.359 1.62436 -2.56609 0
M  V30 3959 H 375.944 0.742779 -1.29627 0
M  V30 3960 H 377.826 3.88877 -1.62336 0
M  V30 3961 H 376.501 3.16692 -0.669898 0
M  V30 3962 H 375.408 2.41099 -2.86046 0
M  V30 3963 H 376.741 3.18715 -3.75076 0
M  V30 3964 N 378.394 1.34581 0.820102 0
M  V30 3965 C 379.326 1.22236 1.93884 0
M  V30 3966 C 380.339 0.148776 1.62119 0
M  V30 3967 O 381.528 0.400877 1.7394 0
M  V30 3968 C 378.628 0.856542 3.27897 0
M  V30 3969 C 377.801 2.02569 3.87666 0
M  V30 3970 C 376.86 1.63782 5.00062 0
M  V30 3971 O 375.886 2.35477 5.18208 0
M  V30 3972 N 377.088 0.553611 5.77854 0
M  V30 3973 H 379.853 2.18615 2.05006 0
M  V30 3974 H 377.414 1.27573 0.99683 0
M  V30 3975 H 379.406 0.578806 4.0054 0
M  V30 3976 H 377.976 -0.0171518 3.12595 0
M  V30 3977 H 377.196 2.468 3.07382 0
M  V30 3978 H 378.484 2.80752 4.24329 0
M  V30 3979 H 377.882 -0.0423528 5.65684 0
M  V30 3980 H 376.439 0.335614 6.50935 0
M  V30 3981 O 379.911 -0.958615 1.29972 0
M  V30 3982 H 380.602 -1.5862 1.11172 0
M  V30 END ATOM
M  V30 BEGIN BOND
M  V30 END BOND
M  V30 END CTAB
M  END
$$$$
