drugbank_target|Q93UV9 Protease (DB02235)
 OpenBabel12092120243D

  0  0  0     0  0            999 V3000
M  V30 BEGIN CTAB
M  V30 COUNTS 9538 9630 0 0 0
M  V30 BEGIN ATOM
M  V30 1 H -0.908 1.98254 -0.117106 0
M  V30 2 N 0 1.576 0 0
M  V30 3 C 0.933 2.03868 1.02534 0
M  V30 4 C 1.911 0.928543 1.3348 0
M  V30 5 O 3.095 1.19667 1.45644 0
M  V30 6 C 0.222 2.43627 2.35294 0
M  V30 7 C -0.732 3.65373 2.2001 0
M  V30 8 S 0.101 5.13292 1.52614 0
M  V30 9 C 1.257 5.56322 2.86805 0
M  V30 10 H 1.49 2.90518 0.631377 0
M  V30 11 H -0.977 1.52953 0.210867 0
M  V30 12 H 0.981 2.67203 3.11629 0
M  V30 13 H -0.358 1.57376 2.7183 0
M  V30 14 H -1.165 3.90944 3.18086 0
M  V30 15 H -1.563 3.418 1.51819 0
M  V30 16 H 0.729 5.58782 3.83104 0
M  V30 17 H 1.672 6.56266 2.65933 0
M  V30 18 H 2.08 4.83886 2.90714 0
M  V30 19 N 1.4781 -0.272755 1.55222 0
M  V30 20 C 2.8941 -0.619959 1.47067 0
M  V30 21 C 3.0941 -1.895 0.684978 0
M  V30 22 O 2.1501 -2.51675 0.203931 0
M  V30 23 C 3.4631 -0.746693 2.91282 0
M  V30 24 C 5.0111 -0.840731 3.01497 0
M  V30 25 C 5.4861 -0.99924 4.46967 0
M  V30 26 N 6.9771 -1.06476 4.50796 0
M  V30 27 C 7.7121 -1.20621 5.6057 0
M  V30 28 N 7.2081 -1.31483 6.80209 0
M  V30 29 N 9.0011 -1.23733 5.48312 0
M  V30 30 H 1.1521 0.564606 2.04758 0
M  V30 31 H 3.4151 0.191177 0.928523 0
M  V30 32 H 3.1211 0.119753 3.51496 0
M  V30 33 H 2.9951 -1.6269 3.40311 0
M  V30 34 H 5.3821 -1.69764 2.41379 0
M  V30 35 H 5.4631 0.0640874 2.5572 0
M  V30 36 H 5.1071 -0.146984 5.07687 0
M  V30 37 H 5.0371 -1.91871 4.90401 0
M  V30 38 H 7.5281 -0.993196 3.64615 0
M  V30 39 H 7.8411 -1.42111 7.59621 0
M  V30 40 H 6.1861 -1.28487 6.8302 0
M  V30 41 H 9.3771 -1.14877 4.53785 0
M  V30 42 H 9.5501 -1.34412 6.33906 0
M  V30 43 N 2.9562 -1.48159 -0.537278 0
M  V30 44 C 3.9032 -1.62138 -1.64256 0
M  V30 45 C 4.8732 -0.463668 -1.59497 0
M  V30 46 O 6.0582 -0.686241 -1.78032 0
M  V30 47 C 3.1982 -1.66028 -3.02537 0
M  V30 48 C 2.3112 -2.92855 -3.17585 0
M  V30 49 C 1.4462 -2.87952 -4.46382 0
M  V30 50 C 0.4852 -4.09516 -4.54932 0
M  V30 51 N -0.3778 -4.02733 -5.75109 0
M  V30 52 H 4.4622 -2.56529 -1.51647 0
M  V30 53 H 1.9992 -1.27224 -0.738414 0
M  V30 54 H 3.9572 -1.66265 -3.82638 0
M  V30 55 H 2.5872 -0.751331 -3.13934 0
M  V30 56 H 1.6392 -3.02395 -2.30784 0
M  V30 57 H 2.9512 -3.82822 -3.19764 0
M  V30 58 H 2.1052 -2.8655 -5.34765 0
M  V30 59 H 0.8442 -1.95702 -4.46712 0
M  V30 60 H -0.1508 -4.11201 -3.64957 0
M  V30 61 H 1.0742 -5.02917 -4.56346 0
M  V30 62 H -0.9798 -3.13299 -5.76351 0
M  V30 63 H -1.0628 -4.86397 -5.78752 0
M  V30 64 H 0.2052 -4.05379 -6.65799 0
M  V30 65 N 4.4343 0.785586 -1.36625 0
M  V30 66 C 5.3813 1.89838 -1.31264 0
M  V30 67 C 6.3513 1.65115 -0.180633 0
M  V30 68 O 7.5363 1.87222 -0.36777 0
M  V30 69 C 4.6763 3.26706 -1.11163 0
M  V30 70 C 3.7893 3.63476 -2.33472 0
M  V30 71 C 2.9243 4.89481 -2.06353 0
M  V30 72 C 1.9633 5.18941 -3.24602 0
M  V30 73 N 1.1003 6.36131 -2.97123 0
M  V30 74 H 5.9403 1.93756 -2.26413 0
M  V30 75 H 3.4773 0.947454 -1.12524 0
M  V30 76 H 5.4353 4.05639 -0.975337 0
M  V30 77 H 4.0653 3.222 -0.196674 0
M  V30 78 H 3.1173 2.79636 -2.57891 0
M  V30 79 H 4.4293 3.81193 -3.21704 0
M  V30 80 H 3.5833 5.76288 -1.89675 0
M  V30 81 H 2.3223 4.73841 -1.15437 0
M  V30 82 H 1.3273 4.30615 -3.41834 0
M  V30 83 H 2.5523 5.36498 -4.16349 0
M  V30 84 H 0.4983 6.21875 -2.08823 0
M  V30 85 H 0.4153 6.54198 -3.78894 0
M  V30 86 H 1.6833 7.2591 -2.84033 0
M  V30 87 N 5.9124 1.20967 1.01018 0
M  V30 88 C 6.8594 0.964281 2.09691 0
M  V30 89 C 7.8294 -0.107853 1.65749 0
M  V30 90 O 9.0144 0.0381987 1.90762 0
M  V30 91 C 6.1544 0.52943 3.41015 0
M  V30 92 C 5.2674 1.67043 3.98398 0
M  V30 93 C 4.4024 1.18525 5.17808 0
M  V30 94 C 3.4414 2.29892 5.67288 0
M  V30 95 N 2.5784 1.82546 6.77954 0
M  V30 96 H 7.4184 1.89463 2.30017 0
M  V30 97 H 4.9554 0.944289 1.1279 0
M  V30 98 H 6.9134 0.258588 4.16398 0
M  V30 99 H 5.5434 -0.363919 3.20742 0
M  V30 100 H 4.5954 2.05603 3.20049 0
M  V30 101 H 5.9074 2.50877 4.31117 0
M  V30 102 H 5.0614 0.870762 6.00419 0
M  V30 103 H 3.8004 0.316887 4.86669 0
M  V30 104 H 2.8054 2.6215 4.83278 0
M  V30 105 H 4.0304 3.17216 6.00459 0
M  V30 106 H 1.9764 0.980454 6.48632 0
M  V30 107 H 1.8934 2.59956 7.09901 0
M  V30 108 H 3.1614 1.54115 7.64113 0
M  V30 109 N 7.3905 -1.2043 1.01659 0
M  V30 110 C 8.3375 -2.23215 0.586822 0
M  V30 111 C 9.3075 -1.61382 -0.393085 0
M  V30 112 O 10.4925 -1.88544 -0.292525 0
M  V30 113 C 7.6325 -3.45032 -0.0687464 0
M  V30 114 C 6.7455 -4.21296 0.955724 0
M  V30 115 C 5.8805 -5.30507 0.271208 0
M  V30 116 C 4.9195 -5.98515 1.28244 0
M  V30 117 N 4.0565 -6.99316 0.62459 0
M  V30 118 H 8.8965 -2.59336 1.46796 0
M  V30 119 H 6.4335 -1.27431 0.734836 0
M  V30 120 H 8.3915 -4.1459 -0.465965 0
M  V30 121 H 7.0215 -3.09604 -0.913529 0
M  V30 122 H 6.0735 -3.50803 1.4711 0
M  V30 123 H 7.3855 -4.6803 1.72479 0
M  V30 124 H 6.5395 -6.06428 -0.18151 0
M  V30 125 H 5.2785 -4.8481 -0.530163 0
M  V30 126 H 4.2835 -5.21355 1.74554 0
M  V30 127 H 5.5085 -6.46298 2.08509 0
M  V30 128 H 3.4545 -6.55812 -0.156914 0
M  V30 129 H 3.3715 -7.44178 1.33172 0
M  V30 130 H 4.6395 -7.79255 0.195462 0
M  V30 131 N 8.8686 -0.792821 -1.36206 0
M  V30 132 C 10.1146 -0.36733 -1.99446 0
M  V30 133 C 10.4476 1.05917 -1.62774 0
M  V30 134 O 9.7226 1.7324 -0.88421 0
M  V30 135 C 10.0056 -0.535044 -3.56103 0
M  V30 136 C 9.8586 -2.00548 -4.02617 0
M  V30 137 C 11.1776 0.0478191 -4.40074 0
M  V30 138 H 8.2966 -0.134941 -0.724541 0
M  V30 139 H 10.9386 -0.999794 -1.61568 0
M  V30 140 H 9.0886 0.00336329 -3.885 0
M  V30 141 H 10.7606 -2.60521 -3.80692 0
M  V30 142 H 9.0036 -2.50686 -3.54032 0
M  V30 143 H 9.6746 -2.07377 -5.11565 0
M  V30 144 H 12.1506 -0.411822 -4.14057 0
M  V30 145 H 11.0266 -0.0995336 -5.4881 0
M  V30 146 H 11.2876 1.14025 -4.27142 0
M  V30 147 N 10.3467 1.47872 -0.545128 0
M  V30 148 C 11.5937 2.02493 -0.0165858 0
M  V30 149 C 11.9217 1.42073 1.32836 0
M  V30 150 O 11.1767 0.561459 1.87473 0
M  V30 151 C 11.4757 3.57131 0.13867 0
M  V30 152 C 11.1417 4.36411 -1.13384 0
M  V30 153 C 9.8037 4.57792 -1.48256 0
M  V30 154 C 12.1557 4.82223 -1.97764 0
M  V30 155 C 9.4837 5.22233 -2.67376 0
M  V30 156 C 11.8357 5.47977 -3.16076 0
M  V30 157 C 10.4997 5.67593 -3.51275 0
M  V30 158 H 9.7697 0.740975 -0.00606918 0
M  V30 159 H 12.4167 1.77683 -0.714207 0
M  V30 160 H 10.7217 3.80865 0.919172 0
M  V30 161 H 12.4187 3.97031 0.562782 0
M  V30 162 H 9.0087 4.2004 -0.852297 0
M  V30 163 H 13.1927 4.65493 -1.72132 0
M  V30 164 H 8.4487 5.35616 -2.94831 0
M  V30 165 H 12.6227 5.8244 -3.81755 0
M  V30 166 H 10.2497 6.17298 -4.43675 0
M  V30 167 N 11.8248 0.280983 1.55075 0
M  V30 168 C 12.7548 -0.597469 2.25727 0
M  V30 169 C 13.7358 -1.15417 1.24952 0
M  V30 170 O 14.9208 -1.18722 1.53684 0
M  V30 171 C 12.0508 -1.7789 2.98283 0
M  V30 172 C 11.0048 -1.35347 4.06036 0
M  V30 173 C 10.3308 -2.61846 4.66198 0
M  V30 174 C 11.6308 -0.499354 5.19907 0
M  V30 175 H 13.3248 -0.00824265 2.99399 0
M  V30 176 H 10.8708 -0.0025244 1.44 0
M  V30 177 H 12.8238 -2.39937 3.46422 0
M  V30 178 H 11.5478 -2.39405 2.22155 0
M  V30 179 H 10.2068 -0.756156 3.58717 0
M  V30 180 H 9.8548 -3.21632 3.86732 0
M  V30 181 H 9.5548 -2.3409 5.38958 0
M  V30 182 H 11.0788 -3.24732 5.1709 0
M  V30 183 H 12.4928 -1.02498 5.64063 0
M  V30 184 H 10.8898 -0.316424 5.99265 0
M  V30 185 H 11.9598 0.480459 4.82514 0
M  V30 186 N 13.3029 -1.57598 0.00835791 0
M  V30 187 C 14.5279 -1.95617 -0.689103 0
M  V30 188 C 14.9529 -0.883753 -1.66046 0
M  V30 189 O 14.3109 0.157352 -1.80616 0
M  V30 190 C 14.3589 -3.32736 -1.38994 0
M  V30 191 O 13.4629 -3.27631 -2.50463 0
M  V30 192 H 12.8039 -0.638379 -0.182668 0
M  V30 193 H 15.3339 -2.045 0.064036 0
M  V30 194 H 15.3439 -3.68494 -1.75147 0
M  V30 195 H 14.0189 -4.1034 -0.677778 0
M  V30 196 H 12.5959 -3.03561 -2.16576 0
M  V30 197 N 14.781 0.264519 -1.55364 0
M  V30 198 C 16.027 0.99646 -1.76631 0
M  V30 199 C 16.36 1.85632 -0.570478 0
M  V30 200 O 15.635 1.89647 0.43175 0
M  V30 201 C 15.918 1.87187 -3.07625 0
M  V30 202 C 15.771 1.04138 -4.37579 0
M  V30 203 C 17.09 2.85749 -3.34717 0
M  V30 204 H 14.209 0.360841 -0.642622 0
M  V30 205 H 16.851 0.268218 -1.88097 0
M  V30 206 H 15.001 2.49279 -2.9798 0
M  V30 207 H 16.673 0.440517 -4.59192 0
M  V30 208 H 14.916 0.345115 -4.32425 0
M  V30 209 H 15.587 1.68729 -5.2558 0
M  V30 210 H 18.063 2.33793 -3.4421 0
M  V30 211 H 16.939 3.44136 -4.27623 0
M  V30 212 H 17.2 3.61311 -2.54768 0
M  V30 213 N 16.2591 1.48442 0.529413 0
M  V30 214 C 17.1891 1.65902 1.64313 0
M  V30 215 C 18.1701 0.507897 1.6234 0
M  V30 216 O 19.3551 0.740503 1.79528 0
M  V30 217 C 16.4851 1.69911 3.02898 0
M  V30 218 C 15.4391 2.8453 3.19729 0
M  V30 219 C 14.7651 2.73629 4.59381 0
M  V30 220 C 16.0651 4.25821 3.02447 0
M  V30 221 H 17.7591 2.5914 1.49955 0
M  V30 222 H 15.3051 1.24709 0.719982 0
M  V30 223 H 17.2581 1.80715 3.80684 0
M  V30 224 H 15.9821 0.732524 3.18279 0
M  V30 225 H 14.6411 2.73283 2.44361 0
M  V30 226 H 14.2891 1.74938 4.71599 0
M  V30 227 H 13.9891 3.50541 4.71588 0
M  V30 228 H 15.5131 2.86401 5.39265 0
M  V30 229 H 16.9271 4.37898 3.70024 0
M  V30 230 H 15.3241 5.03735 3.26146 0
M  V30 231 H 16.3941 4.42244 1.98867 0
M  V30 232 N 17.7372 -0.778329 1.37039 0
M  V30 233 C 18.9622 -1.57248 1.35233 0
M  V30 234 C 19.3872 -1.87999 -0.0615568 0
M  V30 235 O 18.7452 -1.48734 -1.03672 0
M  V30 236 C 18.7932 -2.86353 2.19167 0
M  V30 237 O 17.8972 -3.80442 1.59178 0
M  V30 238 H 17.2382 -0.476569 0.462362 0
M  V30 239 H 19.7682 -0.963853 1.80474 0
M  V30 240 H 19.7782 -3.35519 2.32145 0
M  V30 241 H 18.4532 -2.63299 3.21942 0
M  V30 242 H 17.0302 -3.39067 1.55203 0
M  V30 243 N 19.2153 -1.21501 -1.00376 0
M  V30 244 C 20.1783 -0.976927 -2.07337 0
M  V30 245 C 21.1783 0.0525322 -1.60714 0
M  V30 246 O 22.3683 -0.184869 -1.73216 0
M  V30 247 C 19.5003 -0.473423 -3.37597 0
M  V30 248 H 20.6933 -1.92587 -2.29892 0
M  V30 249 H 18.2463 -1.03217 -1.17371 0
M  V30 250 H 18.9813 0.480379 -3.20722 0
M  V30 251 H 18.7663 -1.216 -3.72768 0
M  V30 252 H 20.2563 -0.32675 -4.1632 0
M  V30 253 N 20.6934 1.19889 -1.02296 0
M  V30 254 C 21.6564 2.21116 -0.603351 0
M  V30 255 C 22.6564 1.5738 0.329884 0
M  V30 256 O 23.8464 1.73802 0.117702 0
M  V30 257 C 20.9784 3.40696 0.117992 0
M  V30 258 H 22.1714 2.59754 -1.49893 0
M  V30 259 H 19.7244 1.33463 -0.813468 0
M  V30 260 H 20.4594 3.07569 1.0282 0
M  V30 261 H 20.2444 3.88188 -0.552511 0
M  V30 262 H 21.7344 4.15692 0.398696 0
M  V30 263 N 22.1715 0.800033 1.35784 0
M  V30 264 C 23.1345 0.211565 2.28221 0
M  V30 265 C 24.1345 -0.59728 1.49296 0
M  V30 266 O 25.3245 -0.416721 1.69142 0
M  V30 267 C 22.4565 -0.705846 3.33513 0
M  V30 268 H 23.6495 1.02677 2.81776 0
M  V30 269 H 21.2025 0.570211 1.45528 0
M  V30 270 H 21.9375 -1.54498 2.85133 0
M  V30 271 H 21.7225 -0.127655 3.91892 0
M  V30 272 H 23.2125 -1.11211 4.02519 0
M  V30 273 N 23.6496 -1.47581 0.552962 0
M  V30 274 C 24.8986 -2.01684 0.0251995 0
M  V30 275 C 25.2116 -1.43317 -1.33115 0
M  V30 276 O 26.4176 -1.89057 -1.94858 0
M  V30 277 C 24.8736 -3.599 -0.00542052 0
M  V30 278 C 24.4816 -4.27257 1.34742 0
M  V30 279 C 26.2256 -4.21768 -0.4808 0
M  V30 280 C 24.1326 -5.77467 1.27614 0
M  V30 281 H 23.0626 -0.753979 0.00565033 0
M  V30 282 H 25.7136 -1.69616 0.70018 0
M  V30 283 H 24.0956 -3.88911 -0.745961 0
M  V30 284 H 25.2696 -4.09893 2.10534 0
M  V30 285 H 23.5846 -3.77358 1.76039 0
M  V30 286 H 26.1816 -5.31838 -0.55246 0
M  V30 287 H 26.5246 -3.88651 -1.49184 0
M  V30 288 H 27.0576 -3.97273 0.204752 0
M  V30 289 H 23.7966 -6.15196 2.26304 0
M  V30 290 H 23.3166 -5.9718 0.55996 0
M  V30 291 H 24.9956 -6.3959 0.976421 0
M  V30 292 N 25.1277 -0.289203 -1.54924 0
M  V30 293 C 26.0577 0.58549 -2.2604 0
M  V30 294 C 27.0387 1.14753 -1.25562 0
M  V30 295 O 28.2237 1.17906 -1.54311 0
M  V30 296 C 25.3537 1.76305 -2.99222 0
M  V30 297 C 24.3077 1.33191 -4.06748 0
M  V30 298 C 23.6337 2.5937 -4.6758 0
M  V30 299 C 24.9337 0.471775 -5.20165 0
M  V30 300 H 26.6277 -0.00763532 -2.99399 0
M  V30 301 H 24.1737 -0.00511229 -1.43999 0
M  V30 302 H 26.1267 2.38097 -3.47689 0
M  V30 303 H 24.8507 2.38223 -2.23422 0
M  V30 304 H 23.5097 0.737121 -3.59113 0
M  V30 305 H 23.1577 3.19576 -3.88433 0
M  V30 306 H 22.8577 2.31228 -5.40192 0
M  V30 307 H 24.3817 3.21985 -5.18804 0
M  V30 308 H 25.7957 0.995056 -5.64599 0
M  V30 309 H 24.1927 0.284639 -5.99425 0
M  V30 310 H 25.2627 -0.506041 -4.82252 0
M  V30 311 N 26.6058 1.57591 -0.0167156 0
M  V30 312 C 27.8308 1.9598 0.67872 0
M  V30 313 C 28.2558 0.892546 1.65575 0
M  V30 314 O 27.6138 -0.147772 1.80697 0
M  V30 315 C 27.6618 3.33468 1.37227 0
M  V30 316 O 26.7658 3.28954 2.48722 0
M  V30 317 H 26.1068 0.639339 0.17928 0
M  V30 318 H 28.6368 2.04463 -0.0748802 0
M  V30 319 H 28.6468 3.69417 1.7319 0
M  V30 320 H 27.3218 4.10694 0.656007 0
M  V30 321 H 25.8988 3.04705 2.14963 0
M  V30 322 N 28.0839 -0.256276 1.55502 0
M  V30 323 C 29.3119 -1.00342 1.8094 0
M  V30 324 C 29.7269 -1.79307 0.59114 0
M  V30 325 O 29.0839 -1.77114 -0.440081 0
M  V30 326 C 29.1349 -1.94875 3.04476 0
M  V30 327 O 28.8559 -1.19107 4.21598 0
M  V30 328 C 30.3569 -2.81266 3.42644 0
M  V30 329 H 27.5769 -0.295685 0.602338 0
M  V30 330 H 30.1209 -0.281998 2.02546 0
M  V30 331 H 28.2759 -2.62457 2.84947 0
M  V30 332 H 28.6899 -1.82969 4.91551 0
M  V30 333 H 30.1639 -3.43362 4.32211 0
M  V30 334 H 30.6409 -3.51897 2.62802 0
M  V30 335 H 31.2469 -2.1915 3.64491 0
M  V30 336 N 29.562 -1.4872 -0.521534 0
M  V30 337 C 30.808 -1.574 -1.27879 0
M  V30 338 C 31.141 -0.250817 -1.92573 0
M  V30 339 O 30.416 0.743934 -1.79711 0
M  V30 340 C 30.699 -2.71843 -2.36164 0
M  V30 341 C 30.552 -4.13893 -1.76105 0
M  V30 342 C 31.871 -2.82008 -3.37875 0
M  V30 343 H 28.99 -0.572941 -0.463581 0
M  V30 344 H 31.632 -1.80927 -0.580119 0
M  V30 345 H 29.782 -2.51914 -2.95756 0
M  V30 346 H 31.454 -4.45284 -1.20499 0
M  V30 347 H 29.697 -4.20498 -1.06601 0
M  V30 348 H 30.368 -4.89804 -2.5455 0
M  V30 349 H 32.844 -3.00086 -2.88249 0
M  V30 350 H 31.72 -3.63796 -4.11028 0
M  V30 351 H 31.981 -1.90511 -3.98946 0
M  V30 352 N 31.0401 0.771051 -1.3745 0
M  V30 353 C 32.0031 1.86598 -1.33093 0
M  V30 354 C 33.0031 1.59076 -0.234845 0
M  V30 355 O 34.1931 1.67145 -0.490732 0
M  V30 356 C 31.3251 3.23747 -1.06773 0
M  V30 357 H 32.5181 1.91873 -2.30488 0
M  V30 358 H 30.0711 0.970876 -1.2249 0
M  V30 359 H 30.8061 3.24148 -0.099129 0
M  V30 360 H 30.5911 3.45115 -1.86112 0
M  V30 361 H 32.0811 4.03824 -1.06377 0
M  V30 362 N 32.5182 1.22032 0.997298 0
M  V30 363 C 33.4482 1.01065 2.10495 0
M  V30 364 C 34.4292 -0.0669542 1.69968 0
M  V30 365 O 35.6142 0.0943987 1.9397 0
M  V30 366 C 32.7442 0.582874 3.42374 0
M  V30 367 C 31.6982 1.60592 3.96729 0
M  V30 368 C 31.0242 1.03412 5.24605 0
M  V30 369 C 32.3242 2.99478 4.27914 0
M  V30 370 H 34.0182 1.93708 2.28292 0
M  V30 371 H 31.5642 0.932761 1.09707 0
M  V30 372 H 33.5172 0.423332 4.19268 0
M  V30 373 H 32.2412 -0.379213 3.24391 0
M  V30 374 H 30.9002 1.75316 3.21963 0
M  V30 375 H 30.5482 0.063518 5.0296 0
M  V30 376 H 30.2482 1.71754 5.61938 0
M  V30 377 H 31.7722 0.886066 6.04137 0
M  V30 378 H 33.1862 2.88153 4.95622 0
M  V30 379 H 31.5832 3.64903 4.76409 0
M  V30 380 H 32.6532 3.49742 3.3587 0
M  V30 381 N 33.9963 -1.19345 1.0293 0
M  V30 382 C 35.2213 -1.93538 0.745511 0
M  V30 383 C 35.6463 -1.75007 -0.689511 0
M  V30 384 O 35.0043 -1.05265 -1.47611 0
M  V30 385 C 35.0523 -3.43336 1.10239 0
M  V30 386 O 34.1563 -4.11806 0.221289 0
M  V30 387 H 33.4973 -0.604193 0.275404 0
M  V30 388 H 36.0273 -1.5141 1.37609 0
M  V30 389 H 36.0373 -3.94004 1.05947 0
M  V30 390 H 34.7123 -3.56146 2.14786 0
M  V30 391 H 33.2893 -3.715 0.322842 0
M  V30 392 N 35.4744 -0.807222 -1.35358 0
M  V30 393 C 36.4224 -0.20614 -2.31685 0
M  V30 394 C 37.4164 0.644445 -1.56663 0
M  V30 395 O 38.6224 0.537538 -1.71786 0
M  V30 396 H 34.9974 -0.0479006 -0.750473 0
M  V30 397 H 36.9684 -1.03369 -2.79924 0
M  V30 398 C 35.7174 0.630212 -3.41941 0
M  V30 399 H 35.0404 -0.0149558 -3.99797 0
M  V30 400 H 36.4804 1.01716 -4.11619 0
M  V30 401 C 34.9394 1.79601 -2.85035 0
M  V30 402 O 35.4694 2.89351 -2.78637 0
M  V30 403 N 33.6754 1.60774 -2.42074 0
M  V30 404 H 33.2224 0.715009 -2.47478 0
M  V30 405 H 33.1804 2.38933 -2.04349 0
M  V30 406 N 36.9525 1.47285 -0.560781 0
M  V30 407 C 38.3635 1.86258 -0.128343 0
M  V30 408 C 38.7145 1.46699 1.30284 0
M  V30 409 O 37.8395 0.871698 1.98067 0
M  V30 410 C 38.4345 3.38044 -0.22614 0
M  V30 411 C 36.9935 3.76096 0.151283 0
M  V30 412 C 36.1405 2.71335 -0.572084 0
M  V30 413 H 39.0915 1.38752 -0.770297 0
M  V30 414 H 39.1125 3.76441 0.554322 0
M  V30 415 H 38.6245 3.66806 -1.26788 0
M  V30 416 H 36.7255 3.52951 1.19399 0
M  V30 417 H 36.8385 4.78641 -0.209765 0
M  V30 418 H 35.2025 2.54696 -0.0147653 0
M  V30 419 H 35.9855 3.02938 -1.61504 0
M  V30 420 N 38.4306 0.297415 1.54768 0
M  V30 421 C 39.6556 -0.318435 2.04941 0
M  V30 422 C 40.0806 -1.4701 1.17345 0
M  V30 423 O 39.4386 -1.80436 0.176758 0
M  V30 424 C 39.4866 -0.755749 3.52592 0
M  V30 425 O 38.5906 -1.86088 3.68028 0
M  V30 426 H 37.9316 -0.062421 0.661059 0
M  V30 427 H 40.4616 0.438215 1.99852 0
M  V30 428 H 40.4716 -1.04552 3.94376 0
M  V30 429 H 39.1466 0.0867233 4.1581 0
M  V30 430 H 37.7236 -1.57193 3.38149 0
M  V30 431 N 39.9087 -1.5758 0.0250728 0
M  V30 432 C 40.8717 -2.08896 -0.943139 0
M  V30 433 C 41.8717 -1.00321 -1.25668 0
M  V30 434 O 43.0617 -1.26495 -1.19769 0
M  V30 435 C 40.1937 -2.55143 -2.26086 0
M  V30 436 H 41.3867 -2.95723 -0.498775 0
M  V30 437 H 38.9397 -1.54703 -0.222888 0
M  V30 438 H 39.6747 -1.71633 -2.75159 0
M  V30 439 H 39.4597 -3.34461 -2.04641 0
M  V30 440 H 40.9497 -2.95083 -2.95492 0
M  V30 441 N 41.3868 0.248026 -1.55636 0
M  V30 442 C 42.6348 0.974295 -1.77065 0
M  V30 443 C 42.9558 1.85897 -0.588849 0
M  V30 444 O 42.2258 1.91868 0.395407 0
M  V30 445 H 40.8058 0.362733 -0.653019 0
M  V30 446 H 43.4678 0.266244 -1.93073 0
M  V30 447 H 42.5638 1.59667 -2.68166 0
M  V30 448 N 42.8649 1.48995 0.513639 0
M  V30 449 C 44.1129 1.57531 1.26604 0
M  V30 450 C 44.4339 0.258236 1.93283 0
M  V30 451 O 43.7039 -0.721502 1.8213 0
M  V30 452 H 42.2839 0.580387 0.470276 0
M  V30 453 H 44.9459 1.85552 0.596373 0
M  V30 454 H 44.0419 2.36486 2.03669 0
M  V30 455 N 44.343 -0.763751 1.37857 0
M  V30 456 C 45.306 -1.85889 1.34081 0
M  V30 457 C 46.306 -1.58949 0.243277 0
M  V30 458 O 47.496 -1.66882 0.499589 0
M  V30 459 C 44.628 -3.23176 1.08489 0
M  V30 460 H 45.821 -1.90648 2.31502 0
M  V30 461 H 43.374 -0.964367 1.23003 0
M  V30 462 H 44.109 -3.24091 0.116318 0
M  V30 463 H 43.894 -3.44124 1.8794 0
M  V30 464 H 45.384 -4.03254 1.08517 0
M  V30 465 N 45.8211 -1.22559 -0.990812 0
M  V30 466 C 47.2371 -0.985996 -1.255 0
M  V30 467 C 47.4371 0.319173 -1.98956 0
M  V30 468 O 46.4931 1.04127 -2.3003 0
M  V30 469 C 47.8061 -2.18607 -2.06474 0
M  V30 470 C 49.3541 -2.22985 -2.19651 0
M  V30 471 C 49.8291 -3.4255 -3.04012 0
M  V30 472 N 51.3201 -3.42725 -3.11599 0
M  V30 473 C 52.0551 -4.31892 -3.7717 0
M  V30 474 N 51.5511 -5.31279 -4.44651 0
M  V30 475 N 53.3441 -4.19662 -3.73952 0
M  V30 476 H 45.4951 -2.06469 -0.49841 0
M  V30 477 H 47.7581 -0.904853 -0.282747 0
M  V30 478 H 47.4641 -3.13267 -1.59865 0
M  V30 479 H 47.3381 -2.18838 -3.07229 0
M  V30 480 H 49.7251 -1.28871 -2.65474 0
M  V30 481 H 49.8061 -2.26791 -1.18319 0
M  V30 482 H 49.4501 -4.36965 -2.58889 0
M  V30 483 H 49.3801 -3.35984 -4.0549 0
M  V30 484 H 51.8711 -2.70807 -2.63575 0
M  V30 485 H 52.1841 -5.95593 -4.92431 0
M  V30 486 H 50.5291 -5.3519 -4.43392 0
M  V30 487 H 53.7201 -3.41268 -3.20396 0
M  V30 488 H 53.8931 -4.89358 -4.24774 0
M  V30 489 N 47.2992 1.18797 -1.03562 0
M  V30 490 C 48.2472 2.24297 -0.615905 0
M  V30 491 C 49.2412 1.65643 0.354808 0
M  V30 492 O 50.4472 1.78618 0.22265 0
M  V30 493 H 46.8222 0.729909 -0.180934 0
M  V30 494 H 48.7932 2.5701 -1.5162 0
M  V30 495 C 47.5422 3.47698 0.0104735 0
M  V30 496 H 46.8652 3.93125 -0.727509 0
M  V30 497 H 48.3052 4.23159 0.266995 0
M  V30 498 C 46.7642 3.12489 1.25905 0
M  V30 499 O 47.2942 3.25761 2.35038 0
M  V30 500 N 45.5002 2.6686 1.15039 0
M  V30 501 H 45.0472 2.56261 0.262328 0
M  V30 502 H 45.0052 2.43674 1.98672 0
M  V30 503 N 48.7773 0.814389 1.34928 0
M  V30 504 C 50.0243 0.398423 1.98542 0
M  V30 505 C 50.3523 -1.03638 1.64589 0
M  V30 506 O 49.6073 -1.73509 0.90516 0
M  V30 507 C 49.9063 0.537781 3.53331 0
M  V30 508 C 49.5723 1.93704 4.07172 0
M  V30 509 C 48.2343 2.31984 4.21589 0
M  V30 510 C 50.5863 2.85213 4.36237 0
M  V30 511 C 47.9143 3.61125 4.62391 0
M  V30 512 C 50.2663 4.13809 4.78482 0
M  V30 513 C 48.9303 4.52077 4.91104 0
M  V30 514 H 48.2003 0.145793 0.726516 0
M  V30 515 H 50.8473 1.03669 1.61012 0
M  V30 516 H 49.1523 -0.183906 3.91368 0
M  V30 517 H 50.8493 0.196588 4.00518 0
M  V30 518 H 47.4393 1.62966 3.96409 0
M  V30 519 H 51.6233 2.56885 4.24645 0
M  V30 520 H 46.8793 3.90612 4.70353 0
M  V30 521 H 51.0533 4.84811 4.99932 0
M  V30 522 H 48.6803 5.52196 5.22478 0
M  V30 523 N 50.2554 -1.46986 0.568584 0
M  V30 524 C 51.5324 -1.95592 -0.0174074 0
M  V30 525 C 51.9124 -1.51124 -1.47393 0
M  V30 526 O 51.2604 -0.755329 -2.15655 0
M  V30 527 C 51.4704 -3.48719 0.139913 0
M  V30 528 C 52.8184 -4.246 0.000426376 0
M  V30 529 O 53.8424 -3.56135 0.0680316 0
M  V30 530 O 52.7014 -5.46302 -0.146988 0
M  V30 531 H 49.7954 -0.82498 -0.0577599 0
M  V30 532 H 52.3414 -1.57335 0.635909 0
M  V30 533 H 51.1134 -3.73927 1.15301 0
M  V30 534 H 50.7364 -3.93771 -0.550491 0
M  V30 535 N 51.7335 -0.305618 -1.54608 0
M  V30 536 C 52.6635 0.561482 -2.26649 0
M  V30 537 C 53.6445 1.13415 -1.26772 0
M  V30 538 O 54.8295 1.16262 -1.55553 0
M  V30 539 C 51.9595 1.73122 -3.01075 0
M  V30 540 C 50.9135 1.2887 -4.08138 0
M  V30 541 C 50.2395 2.54396 -4.70305 0
M  V30 542 C 51.5395 0.416578 -5.20636 0
M  V30 543 H 53.2335 -0.0393902 -2.99374 0
M  V30 544 H 50.7795 -0.020385 -1.43986 0
M  V30 545 H 52.7325 2.34396 -3.50195 0
M  V30 546 H 51.4565 2.3584 -2.25936 0
M  V30 547 H 50.1155 0.698991 -3.59875 0
M  V30 548 H 49.7635 3.15439 -3.918 0
M  V30 549 H 49.4635 2.25486 -5.42614 0
M  V30 550 H 50.9875 3.16464 -5.2219 0
M  V30 551 H 52.4015 0.935116 -5.65622 0
M  V30 552 H 50.7985 0.221046 -5.99693 0
M  V30 553 H 51.8685 -0.557162 -4.81688 0
M  V30 554 N 53.2116 1.57565 -0.0334293 0
M  V30 555 C 54.4886 1.83282 0.683163 0
M  V30 556 C 54.8686 0.91823 1.90084 0
M  V30 557 O 54.2166 -0.025113 2.28486 0
M  V30 558 C 54.4266 3.32599 1.0573 0
M  V30 559 C 55.7746 3.99179 1.44711 0
M  V30 560 O 56.7986 3.3712 1.15015 0
M  V30 561 O 55.6576 5.08565 2.0006 0
M  V30 562 H 52.7516 0.755869 0.335546 0
M  V30 563 H 55.2976 1.69589 -0.0614402 0
M  V30 564 H 54.0696 3.90834 0.190828 0
M  V30 565 H 53.6926 3.51415 1.85993 0
M  V30 566 N 54.6897 -0.239769 1.55765 0
M  V30 567 C 55.9367 -0.966801 1.7793 0
M  V30 568 C 56.2647 -1.85046 0.599015 0
M  V30 569 O 55.5197 -1.91197 -0.417395 0
M  V30 570 C 55.8187 -1.852 3.05672 0
M  V30 571 C 55.4847 -1.1231 4.36689 0
M  V30 572 C 54.1467 -0.921689 4.72291 0
M  V30 573 C 56.4987 -0.607019 5.17653 0
M  V30 574 C 53.8267 -0.191996 5.86386 0
M  V30 575 C 56.1787 0.109241 6.32506 0
M  V30 576 C 54.8427 0.322073 6.66723 0
M  V30 577 H 54.1127 -0.353778 0.651093 0
M  V30 578 H 56.7597 -0.23634 1.90036 0
M  V30 579 H 55.0647 -2.64975 2.8861 0
M  V30 580 H 56.7617 -2.41635 3.20021 0
M  V30 581 H 53.3517 -1.29004 4.08725 0
M  V30 582 H 57.5357 -0.750153 4.90598 0
M  V30 583 H 52.7917 -0.0166949 6.11398 0
M  V30 584 H 56.9657 0.516737 6.9448 0
M  V30 585 H 54.5927 0.88944 7.54979 0
M  V30 586 N 56.1678 -1.49265 -0.50573 0
M  V30 587 C 57.1148 -1.65585 -1.6078 0
M  V30 588 C 58.0848 -0.497396 -1.58478 0
M  V30 589 O 59.2698 -0.72385 -1.76536 0
M  V30 590 C 56.4098 -1.72408 -2.98948 0
M  V30 591 C 55.5228 -2.99525 -3.11301 0
M  V30 592 C 54.6578 -2.97356 -4.40174 0
M  V30 593 C 53.6968 -4.19074 -4.46143 0
M  V30 594 N 52.8338 -4.14841 -5.66437 0
M  V30 595 H 57.6738 -2.59688 -1.46172 0
M  V30 596 H 55.2108 -1.28761 -0.711261 0
M  V30 597 H 57.1688 -1.74344 -3.79025 0
M  V30 598 H 55.7988 -0.817753 -3.1227 0
M  V30 599 H 54.8508 -3.07222 -2.24318 0
M  V30 600 H 56.1628 -3.89518 -3.11572 0
M  V30 601 H 55.3168 -2.97829 -5.28567 0
M  V30 602 H 54.0558 -2.05133 -4.42461 0
M  V30 603 H 53.0608 -4.1885 -3.56153 0
M  V30 604 H 54.2858 -5.12483 -4.45575 0
M  V30 605 H 52.2318 -3.25453 -5.69575 0
M  V30 606 H 52.1488 -4.98564 -5.68304 0
M  V30 607 H 53.4168 -4.1941 -6.57051 0
M  V30 608 N 57.6459 0.756429 -1.3826 0
M  V30 609 C 58.8939 1.51248 -1.34047 0
M  V30 610 C 59.2149 1.94875 0.0698372 0
M  V30 611 O 58.4849 1.67436 1.01696 0
M  V30 612 H 57.0649 0.561018 -0.493222 0
M  V30 613 H 59.7269 0.899347 -1.7291 0
M  V30 614 H 58.8229 2.40472 -1.98947 0
M  V30 615 N 59.124 1.23083 0.984299 0
M  V30 616 C 60.373 1.05466 1.71929 0
M  V30 617 C 60.686 -0.409211 1.91272 0
M  V30 618 O 61.892 -0.705226 2.62181 0
M  V30 619 C 60.348 1.83874 3.09384 0
M  V30 620 C 59.956 3.34566 2.97943 0
M  V30 621 C 61.7 1.74734 3.8687 0
M  V30 622 C 59.607 4.05381 4.30605 0
M  V30 623 H 58.537 0.391039 0.644674 0
M  V30 624 H 61.188 1.47013 1.09815 0
M  V30 625 H 59.57 1.35131 3.72231 0
M  V30 626 H 60.744 3.90767 2.44209 0
M  V30 627 H 59.059 3.44476 2.33934 0
M  V30 628 H 61.656 2.24957 4.85076 0
M  V30 629 H 61.999 0.709372 4.10212 0
M  V30 630 H 62.532 2.21067 3.30717 0
M  V30 631 H 59.271 5.09467 4.1246 0
M  V30 632 H 58.791 3.53967 4.84218 0
M  V30 633 H 60.47 4.11458 4.99311 0
M  V30 634 N 60.6021 -1.18246 1.0419 0
M  V30 635 C 61.5341 -2.2142 0.592088 0
M  V30 636 C 62.5471 -1.59233 -0.338909 0
M  V30 637 O 63.7361 -1.78002 -0.133231 0
M  V30 638 C 60.8361 -3.38546 -0.154854 0
M  V30 639 C 60.0091 -4.3031 0.784328 0
M  V30 640 C 59.0681 -5.26138 0.0804583 0
M  V30 641 O 58.0941 -5.64738 0.711292 0
M  V30 642 N 59.2961 -5.68261 -1.18574 0
M  V30 643 H 62.0611 -2.60636 1.47949 0
M  V30 644 H 59.6221 -1.33044 0.922544 0
M  V30 645 H 61.6141 -3.99678 -0.635606 0
M  V30 646 H 60.1841 -2.98012 -0.943811 0
M  V30 647 H 59.4041 -3.66764 1.44491 0
M  V30 648 H 60.6921 -4.8852 1.42218 0
M  V30 649 H 60.0901 -5.38957 -1.71876 0
M  V30 650 H 58.6471 -6.31584 -1.61074 0
M  V30 651 N 62.0802 -0.821533 -1.34494 0
M  V30 652 C 63.3082 -0.421884 -2.02553 0
M  V30 653 C 63.7232 0.971745 -1.61872 0
M  V30 654 O 63.0802 1.62864 -0.823496 0
M  V30 655 C 63.1312 -0.51285 -3.57844 0
M  V30 656 O 62.8522 -1.85155 -3.97051 0
M  V30 657 C 64.3532 -0.107921 -4.43169 0
M  V30 658 H 61.5732 -0.169482 -0.649243 0
M  V30 659 H 64.1172 -1.1093 -1.71798 0
M  V30 660 H 62.2722 0.126474 -3.87193 0
M  V30 661 H 62.6862 -1.82482 -4.91732 0
M  V30 662 H 64.1602 -0.222657 -5.51551 0
M  V30 663 H 64.6372 0.948401 -4.28838 0
M  V30 664 H 65.2432 -0.720989 -4.19144 0
M  V30 665 N 63.5583 1.46682 -0.576371 0
M  V30 666 C 64.7863 2.06798 -0.0649635 0
M  V30 667 C 65.2013 1.42612 1.23723 0
M  V30 668 O 64.5583 0.529203 1.74659 0
M  V30 669 C 64.6093 3.6132 0.114202 0
M  V30 670 O 64.3303 4.23104 -1.13644 0
M  V30 671 C 65.8313 4.38349 0.66069 0
M  V30 672 H 63.0513 0.668778 -0.0545616 0
M  V30 673 H 65.5953 1.88404 -0.795237 0
M  V30 674 H 63.7503 3.79162 0.794673 0
M  V30 675 H 64.1643 5.15894 -0.946253 0
M  V30 676 H 65.6383 5.47081 0.73526 0
M  V30 677 H 66.1153 4.05953 1.67627 0
M  V30 678 H 66.7213 4.25297 0.0152951 0
M  V30 679 N 65.0364 0.313813 1.54444 0
M  V30 680 C 66.2644 -0.293918 2.04802 0
M  V30 681 C 66.6794 -1.46537 1.19047 0
M  V30 682 O 66.0364 -1.81182 0.218939 0
M  V30 683 C 66.0874 -0.737806 3.53891 0
M  V30 684 O 65.8084 0.387038 4.36387 0
M  V30 685 C 67.3094 -1.40936 4.203 0
M  V30 686 H 64.5294 -0.0620057 0.668129 0
M  V30 687 H 67.0734 0.457169 1.99324 0
M  V30 688 H 65.2284 -1.43889 3.59687 0
M  V30 689 H 65.6424 0.0391274 5.24485 0
M  V30 690 H 67.1164 -1.67099 5.26101 0
M  V30 691 H 67.5934 -2.35355 3.70816 0
M  V30 692 H 68.1994 -0.751117 4.18615 0
M  V30 693 N 66.5145 -1.57545 0.0417849 0
M  V30 694 C 67.7915 -1.83642 -0.673433 0
M  V30 695 C 68.1715 -0.928298 -1.89594 0
M  V30 696 O 67.5195 0.0129955 -2.28496 0
M  V30 697 C 67.7295 -3.33155 -1.03964 0
M  V30 698 C 69.0775 -3.99941 -1.42592 0
M  V30 699 O 70.1015 -3.37725 -1.13226 0
M  V30 700 O 68.9605 -5.09619 -1.9736 0
M  V30 701 H 66.0545 -0.757638 -0.331533 0
M  V30 702 H 68.6005 -1.69554 0.070433 0
M  V30 703 H 67.3725 -3.9093 -0.170098 0
M  V30 704 H 66.9955 -3.52396 -1.84126 0
M  V30 705 N 67.9926 0.231505 -1.5589 0
M  V30 706 C 68.9556 1.27028 -1.90779 0
M  V30 707 C 69.9556 1.40308 -0.785507 0
M  V30 708 O 71.1456 1.38744 -1.05336 0
M  V30 709 C 68.2776 2.64566 -2.14983 0
M  V30 710 H 69.4706 0.973017 -2.83677 0
M  V30 711 H 67.0236 0.471486 -1.49019 0
M  V30 712 H 67.7586 2.99406 -1.24604 0
M  V30 713 H 67.5436 2.56305 -2.96732 0
M  V30 714 H 69.0336 3.39543 -2.43105 0
M  V30 715 N 69.4707 1.49531 0.497807 0
M  V30 716 C 70.4177 1.66436 1.59899 0
M  V30 717 C 71.3877 0.505793 1.58212 0
M  V30 718 O 72.5727 0.733202 1.7615 0
M  V30 719 C 69.7127 1.7399 2.98029 0
M  V30 720 C 68.8257 3.01172 3.09708 0
M  V30 721 C 67.9607 2.99686 4.38591 0
M  V30 722 C 66.9997 4.21434 4.43914 0
M  V30 723 N 66.1367 4.1784 5.64229 0
M  V30 724 H 70.9767 2.60459 1.44793 0
M  V30 725 H 68.5137 1.29137 0.704423 0
M  V30 726 H 70.4717 1.76352 3.78095 0
M  V30 727 H 69.1017 0.834301 3.11832 0
M  V30 728 H 68.1537 3.08408 2.22685 0
M  V30 729 H 69.4657 3.91165 3.09502 0
M  V30 730 H 68.6197 3.00628 5.2698 0
M  V30 731 H 67.3587 2.07477 4.41367 0
M  V30 732 H 66.3637 4.20733 3.53926 0
M  V30 733 H 67.5887 5.14839 4.42851 0
M  V30 734 H 65.5347 3.28469 5.67841 0
M  V30 735 H 65.4517 5.01571 5.65652 0
M  V30 736 H 66.7197 4.22889 6.54817 0
M  V30 737 N 70.9488 -0.749086 1.3866 0
M  V30 738 C 72.1968 -1.50535 1.34847 0
M  V30 739 C 72.5178 -1.94909 -0.0595016 0
M  V30 740 O 71.7878 -1.67973 -1.00806 0
M  V30 741 H 70.3678 -0.558395 0.49619 0
M  V30 742 H 73.0298 -0.890165 1.73384 0
M  V30 743 H 72.1258 -2.39413 2.00219 0
M  V30 744 N 72.4269 -1.23603 -0.977757 0
M  V30 745 C 73.6739 -1.06971 -1.71941 0
M  V30 746 C 74.0019 0.393009 -1.90488 0
M  V30 747 O 73.2569 1.30719 -1.4564 0
M  V30 748 C 73.5559 -1.7433 -3.11999 0
M  V30 749 C 73.2219 -3.24252 -3.13323 0
M  V30 750 C 71.8839 -3.65156 -3.13392 0
M  V30 751 C 74.2359 -4.20141 -3.08433 0
M  V30 752 C 71.5639 -5.00403 -3.0629 0
M  V30 753 C 73.9159 -5.55384 -3.02873 0
M  V30 754 C 72.5799 -5.95647 -3.01265 0
M  V30 755 H 71.8499 -0.391433 -0.629175 0
M  V30 756 H 74.4969 -1.53572 -1.14403 0
M  V30 757 H 72.8019 -1.20096 -3.7294 0
M  V30 758 H 74.4989 -1.58936 -3.68158 0
M  V30 759 H 71.0889 -2.91692 -3.14029 0
M  V30 760 H 75.2729 -3.89547 -3.07517 0
M  V30 761 H 70.5289 -5.3081 -3.03399 0
M  V30 762 H 74.7029 -6.29398 -2.98046 0
M  V30 763 H 72.3299 -7.0041 -2.95516 0
M  V30 764 N 73.905 1.17692 -1.04816 0
M  V30 765 C 75.13 1.92327 -0.776207 0
M  V30 766 C 75.555 1.76082 0.661581 0
M  V30 767 O 74.913 1.076 1.45917 0
M  V30 768 C 74.961 3.41539 -1.15687 0
M  V30 769 O 74.065 4.11402 -0.286775 0
M  V30 770 H 73.406 0.599735 -0.284981 0
M  V30 771 H 75.936 1.49201 -1.4 0
M  V30 772 H 75.946 3.92269 -1.12202 0
M  V30 773 H 74.621 3.52684 -2.20425 0
M  V30 774 H 73.198 3.70939 -0.381903 0
M  V30 775 N 75.3831 0.828654 1.34056 0
M  V30 776 C 76.3301 0.252567 2.29414 0
M  V30 777 C 77.3001 -0.62588 1.53857 0
M  V30 778 O 78.4851 -0.566312 1.82202 0
M  V30 779 C 75.6251 -0.574831 3.40279 0
M  V30 780 C 74.7381 0.326499 4.30764 0
M  V30 781 C 73.8731 -0.511016 5.28736 0
M  V30 782 C 72.9121 0.389342 6.1086 0
M  V30 783 N 72.0491 -0.409439 7.00905 0
M  V30 784 H 76.8891 1.07108 2.78086 0
M  V30 785 H 74.4261 0.539677 1.36843 0
M  V30 786 H 76.3841 -1.06992 4.03248 0
M  V30 787 H 75.0141 -1.35841 2.92826 0
M  V30 788 H 74.0661 0.939837 3.68607 0
M  V30 789 H 75.3781 1.01857 4.88289 0
M  V30 790 H 74.5321 -1.07035 5.97184 0
M  V30 791 H 73.2711 -1.23657 4.71763 0
M  V30 792 H 72.2761 0.960769 5.4134 0
M  V30 793 H 73.5011 1.1131 6.69916 0
M  V30 794 H 71.4471 -1.11856 6.46393 0
M  V30 795 H 71.3641 0.224126 7.55668 0
M  V30 796 H 72.6321 -0.951336 7.73673 0
M  V30 797 N 76.8612 -1.46375 0.584142 0
M  V30 798 C 77.7932 -2.28443 -0.186119 0
M  V30 799 C 78.8062 -1.38596 -0.854115 0
M  V30 800 O 79.9952 -1.63183 -0.723438 0
M  V30 801 C 77.0952 -3.13671 -1.28311 0
M  V30 802 C 76.2682 -4.31652 -0.706758 0
M  V30 803 C 75.3272 -4.98267 -1.69163 0
M  V30 804 O 74.3532 -5.55815 -1.22712 0
M  V30 805 N 75.5552 -4.95408 -3.02575 0
M  V30 806 H 78.3202 -2.9519 0.517986 0
M  V30 807 H 75.8812 -1.56303 0.42201 0
M  V30 808 H 77.8732 -3.55101 -1.94128 0
M  V30 809 H 76.4432 -2.48989 -1.89005 0
M  V30 810 H 75.6632 -3.93989 0.128908 0
M  V30 811 H 76.9512 -5.07906 -0.301506 0
M  V30 812 H 76.3492 -4.49902 -3.42936 0
M  V30 813 H 74.9062 -5.40774 -3.63877 0
M  V30 814 N 78.3393 -0.321999 -1.54275 0
M  V30 815 C 79.5873 0.280489 -2.00144 0
M  V30 816 C 79.9083 1.52777 -1.21178 0
M  V30 817 O 79.1783 1.9338 -0.313187 0
M  V30 818 H 77.7583 0.106632 -0.73935 0
M  V30 819 H 80.4203 -0.438184 -1.8991 0
M  V30 820 H 79.5163 0.537972 -3.07428 0
M  V30 821 N 79.8174 1.5752 -0.0501392 0
M  V30 822 C 80.7494 2.08413 0.95376 0
M  V30 823 C 81.7624 1.01175 1.27544 0
M  V30 824 O 82.9514 1.28744 1.23641 0
M  V30 825 C 80.0514 2.51138 2.27559 0
M  V30 826 C 79.2244 3.817 2.13598 0
M  V30 827 C 78.2834 4.10749 3.28895 0
M  V30 828 O 77.3094 4.80685 3.04845 0
M  V30 829 N 78.5114 3.62579 4.5334 0
M  V30 830 H 81.2764 2.95165 0.519383 0
M  V30 831 H 78.8374 1.61327 0.136127 0
M  V30 832 H 80.8294 2.67648 3.03557 0
M  V30 833 H 79.3994 1.6964 2.62567 0
M  V30 834 H 78.6194 3.74782 1.22197 0
M  V30 835 H 79.9074 4.67201 2.01496 0
M  V30 836 H 79.3054 3.06039 4.75769 0
M  V30 837 H 77.8624 3.84329 5.26436 0
M  V30 838 N 81.2955 -0.223234 1.56011 0
M  V30 839 C 82.5235 -0.964812 1.83027 0
M  V30 840 C 82.9385 -1.78013 0.62904 0
M  V30 841 O 82.2955 -1.78008 -0.402414 0
M  V30 842 C 82.3465 -1.88373 3.08542 0
M  V30 843 O 82.0675 -1.10137 4.2403 0
M  V30 844 C 83.5685 -2.73934 3.48533 0
M  V30 845 H 80.7885 -0.282842 0.608475 0
M  V30 846 H 83.3325 -0.238971 2.03099 0
M  V30 847 H 81.4875 -2.56354 2.9045 0
M  V30 848 H 81.9015 -1.72501 4.95322 0
M  V30 849 H 83.3755 -3.34117 4.39397 0
M  V30 850 H 83.8525 -3.46244 2.70207 0
M  V30 851 H 84.4585 -2.11369 3.69057 0
M  V30 852 N 82.7736 -1.49793 -0.48987 0
M  V30 853 C 84.0216 -1.59525 -1.24081 0
M  V30 854 C 84.3426 -0.288953 -1.92847 0
M  V30 855 O 83.6126 0.692436 -1.83254 0
M  V30 856 H 82.1926 -0.587796 -0.460983 0
M  V30 857 H 84.8546 -1.86477 -0.566778 0
M  V30 858 H 83.9506 -2.39696 -1.99881 0
M  V30 859 N 84.2517 0.741722 -1.39055 0
M  V30 860 C 85.2147 1.83733 -1.37021 0
M  V30 861 C 86.2147 1.58542 -0.268534 0
M  V30 862 O 87.4047 1.66067 -0.526076 0
M  V30 863 C 84.5367 3.2141 -1.13617 0
M  V30 864 H 85.7297 1.86941 -2.34506 0
M  V30 865 H 83.2827 0.944676 -1.24521 0
M  V30 866 H 84.0177 3.23865 -0.167863 0
M  V30 867 H 83.8027 3.4109 -1.93391 0
M  V30 868 H 85.2927 4.01477 -1.14918 0
M  V30 869 N 85.7298 1.2412 0.971189 0
M  V30 870 C 86.6928 1.03156 2.04674 0
M  V30 871 C 87.6928 -0.00990322 1.60797 0
M  V30 872 O 88.8828 0.230729 1.72665 0
M  V30 873 C 86.0148 0.562765 3.36223 0
M  V30 874 H 87.2078 1.98614 2.24705 0
M  V30 875 H 84.7608 1.06293 1.14593 0
M  V30 876 H 85.4958 -0.395176 3.21883 0
M  V30 877 H 85.2808 1.31441 3.69413 0
M  V30 878 H 86.7708 0.437015 4.15307 0
M  V30 879 N 87.2079 -1.17134 1.05439 0
M  V30 880 C 88.1709 -2.19439 0.661764 0
M  V30 881 C 89.1709 -1.58199 -0.288042 0
M  V30 882 O 90.3609 -1.74053 -0.0715803 0
M  V30 883 C 87.4929 -3.40889 -0.0276209 0
M  V30 884 H 88.6859 -2.55688 1.56728 0
M  V30 885 H 86.2389 -1.31259 0.848567 0
M  V30 886 H 86.9739 -3.10187 -0.94629 0
M  V30 887 H 86.7589 -3.86586 0.655238 0
M  V30 888 H 88.2489 -4.16603 -0.288342 0
M  V30 889 N 88.686 -0.835752 -1.33615 0
M  V30 890 C 89.933 -0.429959 -1.97883 0
M  V30 891 C 90.261 1.01006 -1.66217 0
M  V30 892 O 89.516 1.72047 -0.93265 0
M  V30 893 C 89.815 -0.593925 -3.52431 0
M  V30 894 C 89.481 -2.00158 -4.04039 0
M  V30 895 C 88.143 -2.38662 -4.17844 0
M  V30 896 C 90.495 -2.92117 -4.31644 0
M  V30 897 C 87.823 -3.68435 -4.56588 0
M  V30 898 C 90.175 -4.21368 -4.71838 0
M  V30 899 C 88.839 -4.59833 -4.83849 0
M  V30 900 H 88.109 -0.157333 -0.724104 0
M  V30 901 H 90.756 -1.06217 -1.59343 0
M  V30 902 H 89.061 0.121619 -3.91611 0
M  V30 903 H 90.758 -0.260282 -4.00154 0
M  V30 904 H 87.348 -1.69252 -3.93766 0
M  V30 905 H 91.532 -2.63608 -4.20505 0
M  V30 906 H 86.788 -3.98046 -4.64079 0
M  V30 907 H 90.962 -4.92703 -4.92155 0
M  V30 908 H 88.589 -5.60438 -5.13627 0
M  V30 909 N 90.1641 1.46063 -0.591896 0
M  V30 910 C 91.0941 2.33172 0.123673 0
M  V30 911 C 92.0751 1.45897 0.87453 0
M  V30 912 O 93.2601 1.74698 0.848181 0
M  V30 913 C 90.3901 3.28336 1.13194 0
M  V30 914 C 89.3441 4.25124 0.495324 0
M  V30 915 C 88.6701 5.09863 1.61071 0
M  V30 916 C 89.9701 5.19143 -0.573425 0
M  V30 917 H 91.6641 2.93252 -0.603646 0
M  V30 918 H 89.2101 1.41014 -0.291741 0
M  V30 919 H 91.1631 3.88137 1.64097 0
M  V30 920 H 89.8871 2.66383 1.88965 0
M  V30 921 H 88.5461 3.66599 0.00729452 0
M  V30 922 H 88.1941 4.44288 2.35832 0
M  V30 923 H 87.8941 5.75417 1.19035 0
M  V30 924 H 89.4181 5.72529 2.12233 0
M  V30 925 H 90.8321 5.73106 -0.1491 0
M  V30 926 H 89.2291 5.93089 -0.914636 0
M  V30 927 H 90.2991 4.62519 -1.45617 0
M  V30 928 N 91.6422 0.330177 1.54103 0
M  V30 929 C 92.8882 -0.270806 2.00984 0
M  V30 930 C 93.2212 -1.51265 1.21789 0
M  V30 931 O 92.4962 -1.92142 0.301927 0
M  V30 932 C 92.7792 -0.598339 3.55094 0
M  V30 933 C 92.6322 0.654674 4.4501 0
M  V30 934 C 93.9512 -1.41334 4.16789 0
M  V30 935 H 91.0702 -0.0969531 0.730595 0
M  V30 936 H 93.7122 0.448066 1.84641 0
M  V30 937 H 91.8622 -1.21078 3.69151 0
M  V30 938 H 93.5342 1.29285 4.42813 0
M  V30 939 H 91.7772 1.28224 4.14416 0
M  V30 940 H 92.4482 0.380944 5.50684 0
M  V30 941 H 94.9242 -0.895597 4.06347 0
M  V30 942 H 93.8002 -1.61127 5.24718 0
M  V30 943 H 94.0612 -2.41146 3.70541 0
M  V30 944 N 93.1203 -1.57491 0.0584922 0
M  V30 945 C 94.0303 -2.15448 -0.928414 0
M  V30 946 C 95.0463 -1.11416 -1.3365 0
M  V30 947 O 96.2223 -1.4362 -1.41193 0
M  V30 948 C 93.2873 -2.69393 -2.18239 0
M  V30 949 C 92.3483 -3.88249 -1.83196 0
M  V30 950 C 91.5813 -4.39613 -3.02616 0
M  V30 951 O 91.8043 -3.90023 -4.16219 0
M  V30 952 O 90.7383 -5.31111 -2.83204 0
M  V30 953 H 94.5643 -3.00112 -0.465483 0
M  V30 954 H 92.1493 -1.48499 -0.163826 0
M  V30 955 H 94.0313 -3.04026 -2.91798 0
M  V30 956 H 92.7063 -1.87796 -2.63656 0
M  V30 957 H 91.6133 -3.58492 -1.06931 0
M  V30 958 H 92.9463 -4.71098 -1.42573 0
M  V30 959 N 94.5984 0.214957 -1.56127 0
M  V30 960 C 95.8234 0.95924 -1.83884 0
M  V30 961 C 96.2484 1.7689 -0.639644 0
M  V30 962 O 95.6064 1.76566 0.411601 0
M  V30 963 C 95.6544 1.84723 -3.09693 0
M  V30 964 O 94.7584 2.94346 -2.8885 0
M  V30 965 H 94.0994 0.27125 -0.606069 0
M  V30 966 H 96.6294 0.226276 -2.03345 0
M  V30 967 H 96.6394 2.25576 -3.39969 0
M  V30 968 H 95.3144 1.25218 -3.96602 0
M  V30 969 H 93.8914 2.57391 -2.69823 0
M  V30 970 N 96.0765 1.50051 0.48192 0
M  V30 971 C 96.9865 1.7089 1.60728 0
M  V30 972 C 98.0025 0.591788 1.63627 0
M  V30 973 O 99.1785 0.868817 1.81696 0
M  V30 974 C 96.2435 1.78855 2.97005 0
M  V30 975 C 95.3045 3.02537 3.04581 0
M  V30 976 C 94.5375 3.10112 4.34357 0
M  V30 977 O 94.7605 2.24765 5.24249 0
M  V30 978 O 93.6945 4.02747 4.47301 0
M  V30 979 H 97.5205 2.66264 1.46072 0
M  V30 980 H 95.1055 1.34018 0.660264 0
M  V30 981 H 96.9875 1.86336 3.77964 0
M  V30 982 H 95.6625 0.866628 3.11883 0
M  V30 983 H 94.5695 3.00563 2.22739 0
M  V30 984 H 95.9025 3.94272 2.94636 0
M  V30 985 N 97.5546 -0.734337 1.39446 0
M  V30 986 C 98.5026 -1.86971 1.38364 0
M  V30 987 C 99.4966 -1.67288 0.266687 0
M  V30 988 O 100.703 -1.74621 0.436755 0
M  V30 989 H 97.0776 -0.615474 0.432082 0
M  V30 990 H 99.0486 -1.85 2.34132 0
M  V30 991 C 97.7976 -3.2466 1.24465 0
M  V30 992 H 97.1206 -3.40402 2.09682 0
M  V30 993 H 98.5606 -4.04292 1.27764 0
M  V30 994 C 97.0196 -3.36867 -0.0468674 0
M  V30 995 O 97.5496 -3.88618 -1.01681 0
M  V30 996 N 95.7556 -2.90391 -0.110145 0
M  V30 997 H 95.3026 -2.48466 0.679868 0
M  V30 998 H 95.2606 -2.98939 -0.973799 0
M  V30 999 N 99.0327 -1.24633 -0.964593 0
M  V30 1000 C 100.279 -1.08949 -1.71049 0
M  V30 1001 C 100.612 0.370302 -1.90637 0
M  V30 1002 O 99.8867 1.27349 -1.47011 0
M  V30 1003 C 100.17 -1.83329 -3.0994 0
M  V30 1004 C 100.023 -3.37077 -2.97824 0
M  V30 1005 C 101.342 -1.60846 -4.09654 0
M  V30 1006 H 98.4607 -0.397178 -0.620821 0
M  V30 1007 H 101.103 -1.5334 -1.12191 0
M  V30 1008 H 99.2527 -1.45597 -3.60186 0
M  V30 1009 H 100.925 -3.84425 -2.5498 0
M  V30 1010 H 99.1677 -3.65298 -2.33965 0
M  V30 1011 H 99.8387 -3.84324 -3.96231 0
M  V30 1012 H 102.315 -1.93674 -3.68279 0
M  V30 1013 H 101.191 -2.1534 -5.04896 0
M  V30 1014 H 101.452 -0.547434 -4.38698 0
M  V30 1015 N 100.511 1.16574 -1.06058 0
M  V30 1016 C 101.458 2.20883 -0.669263 0
M  V30 1017 C 102.428 1.62729 0.332918 0
M  V30 1018 O 103.613 1.895 0.222346 0
M  V30 1019 C 100.753 3.45049 -0.0593572 0
M  V30 1020 C 99.8658 4.17458 -1.11143 0
M  V30 1021 C 99.0008 5.29135 -0.467916 0
M  V30 1022 C 98.0398 5.93343 -1.50369 0
M  V30 1023 N 97.1768 6.96516 -0.883706 0
M  V30 1024 H 102.017 2.53709 -1.5632 0
M  V30 1025 H 99.5538 1.24616 -0.781625 0
M  V30 1026 H 101.512 4.16033 0.311771 0
M  V30 1027 H 100.142 3.12781 0.797992 0
M  V30 1028 H 99.1938 3.45101 -1.60029 0
M  V30 1029 H 100.506 4.61307 -1.89731 0
M  V30 1030 H 99.6598 6.06684 -0.0436871 0
M  V30 1031 H 98.3988 4.86443 0.349864 0
M  V30 1032 H 97.4038 5.14517 -1.93784 0
M  V30 1033 H 98.6288 6.38114 -2.32352 0
M  V30 1034 H 96.5748 6.55943 -0.086595 0
M  V30 1035 H 96.4918 7.38723 -1.607 0
M  V30 1036 H 97.7598 7.77993 -0.484543 0
M  V30 1037 N 101.989 0.842826 1.3317 0
M  V30 1038 C 102.919 0.294028 2.31641 0
M  V30 1039 C 103.9 -0.600401 1.59151 0
M  V30 1040 O 105.085 -0.523124 1.87022 0
M  V30 1041 C 102.215 -0.528416 3.43257 0
M  V30 1042 C 101.169 0.27056 4.27144 0
M  V30 1043 C 100.495 -0.675881 5.30411 0
M  V30 1044 C 101.795 1.48981 5.00602 0
M  V30 1045 H 103.489 1.11681 2.77791 0
M  V30 1046 H 101.035 0.538478 1.33553 0
M  V30 1047 H 102.988 -0.922674 4.11175 0
M  V30 1048 H 101.712 -1.38445 2.95805 0
M  V30 1049 H 100.371 0.646427 3.60856 0
M  V30 1050 H 100.019 -1.52842 4.79216 0
M  V30 1051 H 99.7189 -0.145374 5.8742 0
M  V30 1052 H 101.243 -1.06757 6.01195 0
M  V30 1053 H 102.657 1.16849 5.61266 0
M  V30 1054 H 101.054 1.95739 5.6728 0
M  V30 1055 H 102.124 2.25746 4.29147 0
M  V30 1056 N 103.467 -1.45747 0.599634 0
M  V30 1057 C 104.878 -1.85853 0.177681 0
M  V30 1058 C 105.229 -1.50102 -1.26348 0
M  V30 1059 O 104.354 -0.923905 -1.95686 0
M  V30 1060 C 104.949 -3.37326 0.315688 0
M  V30 1061 C 103.508 -3.76365 -0.0515144 0
M  V30 1062 C 102.655 -2.69722 0.643822 0
M  V30 1063 H 105.606 -1.36661 0.806814 0
M  V30 1064 H 105.627 -3.77778 -0.454321 0
M  V30 1065 H 105.139 -3.63315 1.36468 0
M  V30 1066 H 103.24 -3.55993 -1.09999 0
M  V30 1067 H 103.353 -4.77916 0.336594 0
M  V30 1068 H 101.717 -2.54567 0.0822881 0
M  V30 1069 H 102.5 -2.98549 1.6948 0
M  V30 1070 N 104.945 -0.338344 -1.53925 0
M  V30 1071 C 105.892 0.520845 -2.24846 0
M  V30 1072 C 106.862 1.09976 -1.24477 0
M  V30 1073 O 108.047 1.13735 -1.53196 0
M  V30 1074 C 105.187 1.6685 -3.02084 0
M  V30 1075 C 104.3 1.11739 -4.17299 0
M  V30 1076 C 103.435 2.23193 -4.82036 0
M  V30 1077 C 102.474 1.65407 -5.89328 0
M  V30 1078 N 101.611 2.70582 -6.47866 0
M  V30 1079 H 106.451 -0.0904881 -2.97863 0
M  V30 1080 H 103.988 -0.0564282 -1.46992 0
M  V30 1081 H 105.946 2.34407 -3.45122 0
M  V30 1082 H 104.576 2.2509 -2.31375 0
M  V30 1083 H 103.628 0.332919 -3.7894 0
M  V30 1084 H 104.94 0.654677 -4.94485 0
M  V30 1085 H 104.094 2.98626 -5.28117 0
M  V30 1086 H 102.833 2.72807 -4.04262 0
M  V30 1087 H 101.838 0.884779 -5.42634 0
M  V30 1088 H 103.063 1.16652 -6.69006 0
M  V30 1089 H 101.009 3.1946 -5.72959 0
M  V30 1090 H 100.926 2.28917 -7.20509 0
M  V30 1091 H 102.194 3.45799 -6.98601 0
M  V30 1092 N 106.423 1.57458 -0.0668435 0
M  V30 1093 C 107.671 1.92919 0.602214 0
M  V30 1094 C 107.992 0.947215 1.70449 0
M  V30 1095 O 107.262 -0.00544117 1.95899 0
M  V30 1096 H 105.842 0.71217 0.22544 0
M  V30 1097 H 108.504 1.94508 -0.123535 0
M  V30 1098 H 107.6 2.94589 1.03073 0
M  V30 1099 N 107.901 -0.206675 1.56239 0
M  V30 1100 C 108.831 -1.25909 1.96645 0
M  V30 1101 C 109.812 -1.48097 0.836734 0
M  V30 1102 O 110.997 -1.6003 1.10019 0
M  V30 1103 C 108.127 -2.6058 2.29599 0
M  V30 1104 C 107.081 -2.53024 3.452 0
M  V30 1105 C 106.407 -3.91861 3.63798 0
M  V30 1106 C 107.707 -2.06524 4.79734 0
M  V30 1107 H 109.401 -0.923369 2.84806 0
M  V30 1108 H 106.947 -0.442735 1.37025 0
M  V30 1109 H 108.9 -3.34375 2.56459 0
M  V30 1110 H 107.624 -2.95869 1.38307 0
M  V30 1111 H 106.283 -1.81684 3.18412 0
M  V30 1112 H 105.931 -4.24483 2.69857 0
M  V30 1113 H 105.631 -3.87683 4.4156 0
M  V30 1114 H 107.155 -4.67296 3.93022 0
M  V30 1115 H 108.569 -2.70072 5.05702 0
M  V30 1116 H 106.966 -2.13374 5.60885 0
M  V30 1117 H 108.036 -1.01802 4.74093 0
M  V30 1118 N 109.379 -1.50304 -0.473955 0
M  V30 1119 C 110.311 -1.65109 -1.58971 0
M  V30 1120 C 111.324 -0.532676 -1.53839 0
M  V30 1121 O 112.513 -0.805751 -1.59279 0
M  V30 1122 C 109.613 -1.61684 -2.97845 0
M  V30 1123 C 108.786 -2.8951 -3.27876 0
M  V30 1124 C 107.845 -2.78768 -4.4629 0
M  V30 1125 O 106.871 -3.52722 -4.46739 0
M  V30 1126 N 108.073 -1.9213 -5.47783 0
M  V30 1127 H 110.838 -2.61347 -1.46689 0
M  V30 1128 H 108.399 -1.47732 -0.662324 0
M  V30 1129 H 110.391 -1.52114 -3.75024 0
M  V30 1130 H 108.961 -0.731925 -3.03911 0
M  V30 1131 H 108.181 -3.13228 -2.39336 0
M  V30 1132 H 109.469 -3.74199 -3.4475 0
M  V30 1133 H 108.867 -1.31353 -5.50239 0
M  V30 1134 H 107.424 -1.88466 -6.23958 0
M  V30 1135 N 110.857 0.726932 -1.39834 0
M  V30 1136 C 111.804 1.841 -1.39197 0
M  V30 1137 C 112.774 1.642 -0.250502 0
M  V30 1138 O 113.959 1.85494 -0.446846 0
M  V30 1139 C 111.099 3.21697 -1.24919 0
M  V30 1140 C 110.212 3.53247 -2.48678 0
M  V30 1141 C 109.347 4.80289 -2.26928 0
M  V30 1142 C 108.386 5.04707 -3.4632 0
M  V30 1143 N 107.523 6.22956 -3.23836 0
M  V30 1144 H 112.363 1.83979 -2.34427 0
M  V30 1145 H 109.9 0.898876 -1.16442 0
M  V30 1146 H 111.858 4.01137 -1.1465 0
M  V30 1147 H 110.488 3.21076 -0.333153 0
M  V30 1148 H 109.54 2.68447 -2.69519 0
M  V30 1149 H 110.852 3.67205 -3.37582 0
M  V30 1150 H 110.006 5.67725 -2.13947 0
M  V30 1151 H 108.745 4.68519 -1.35431 0
M  V30 1152 H 107.75 4.1573 -3.5979 0
M  V30 1153 H 108.975 5.18357 -4.38729 0
M  V30 1154 H 106.921 6.12459 -2.35011 0
M  V30 1155 H 106.838 6.37539 -4.063 0
M  V30 1156 H 108.106 7.1321 -3.14566 0
M  V30 1157 N 112.336 1.25143 0.95797 0
M  V30 1158 C 113.283 1.05235 2.05412 0
M  V30 1159 C 114.253 -0.0374561 1.66058 0
M  V30 1160 O 115.438 0.119073 1.90428 0
M  V30 1161 C 112.578 0.673589 3.38462 0
M  V30 1162 C 111.691 1.8379 3.90954 0
M  V30 1163 C 110.826 1.40381 5.12315 0
M  V30 1164 C 109.865 2.53746 5.57027 0
M  V30 1165 N 109.002 2.11136 6.69601 0
M  V30 1166 H 113.842 1.99048 2.21774 0
M  V30 1167 H 111.379 0.991277 1.08683 0
M  V30 1168 H 113.337 0.434964 4.14926 0
M  V30 1169 H 111.967 -0.227554 3.21997 0
M  V30 1170 H 111.019 2.18992 3.11041 0
M  V30 1171 H 112.331 2.68937 4.20089 0
M  V30 1172 H 111.485 1.12464 5.96185 0
M  V30 1173 H 110.224 0.523015 4.84887 0
M  V30 1174 H 109.229 2.82412 4.71724 0
M  V30 1175 H 110.454 3.42398 5.86464 0
M  V30 1176 H 108.4 1.25468 6.4389 0
M  V30 1177 H 108.317 2.89832 6.98236 0
M  V30 1178 H 109.585 1.86385 7.56889 0
M  V30 1179 N 113.814 -1.1601 1.06675 0
M  V30 1180 C 114.744 -2.22688 0.702307 0
M  V30 1181 C 115.725 -1.67306 -0.307032 0
M  V30 1182 O 116.91 -1.93352 -0.181305 0
M  V30 1183 C 114.04 -3.47178 0.092038 0
M  V30 1184 C 112.994 -4.15477 1.02777 0
M  V30 1185 C 112.32 -5.33963 0.28061 0
M  V30 1186 C 113.62 -4.66019 2.35846 0
M  V30 1187 H 115.314 -2.53429 1.59419 0
M  V30 1188 H 112.86 -1.21813 0.767961 0
M  V30 1189 H 114.813 -4.21037 -0.174814 0
M  V30 1190 H 113.537 -3.15749 -0.834877 0
M  V30 1191 H 112.196 -3.43549 1.27944 0
M  V30 1192 H 111.844 -4.98788 -0.649545 0
M  V30 1193 H 111.544 -5.806 0.904258 0
M  V30 1194 H 113.068 -6.10596 0.021396 0
M  V30 1195 H 114.482 -5.3144 2.15045 0
M  V30 1196 H 112.879 -5.23293 2.93743 0
M  V30 1197 H 113.949 -3.82023 2.98641 0
M  V30 1198 N 115.292 -0.849877 -1.32721 0
M  V30 1199 C 116.202 -0.293791 -2.32753 0
M  V30 1200 C 117.218 0.585906 -1.63839 0
M  V30 1201 O 118.394 0.487413 -1.95413 0
M  V30 1202 C 115.459 0.512752 -3.42887 0
M  V30 1203 C 114.52 -0.39252 -4.27502 0
M  V30 1204 C 113.753 0.375625 -5.32377 0
M  V30 1205 O 113.976 1.60613 -5.4732 0
M  V30 1206 O 112.91 -0.256094 -6.01355 0
M  V30 1207 H 116.736 -1.12242 -2.82197 0
M  V30 1208 H 114.321 -0.612685 -1.36259 0
M  V30 1209 H 116.203 0.970704 -4.10067 0
M  V30 1210 H 114.878 1.31826 -2.95641 0
M  V30 1211 H 113.785 -0.898547 -3.63149 0
M  V30 1212 H 115.118 -1.16309 -4.7826 0
M  V30 1213 N 116.77 1.45427 -0.607355 0
M  V30 1214 C 117.998 2.06614 -0.108814 0
M  V30 1215 C 118.413 1.45204 1.2067 0
M  V30 1216 O 117.77 0.566132 1.73497 0
M  V30 1217 C 117.821 3.61481 0.0375347 0
M  V30 1218 O 117.542 4.20598 -1.22593 0
M  V30 1219 C 119.043 4.39652 0.567561 0
M  V30 1220 H 116.263 0.66747 -0.0687351 0
M  V30 1221 H 118.807 1.86675 -0.835022 0
M  V30 1222 H 116.962 3.80762 0.714068 0
M  V30 1223 H 117.376 5.1377 -1.05547 0
M  V30 1224 H 118.85 5.48518 0.61905 0
M  V30 1225 H 119.327 4.09417 1.58978 0
M  V30 1226 H 119.933 4.25234 -0.0749202 0
M  V30 1227 N 118.248 0.346503 1.53744 0
M  V30 1228 C 119.494 -0.249473 2.0126 0
M  V30 1229 C 119.827 -1.49965 1.23386 0
M  V30 1230 O 119.102 -1.91811 0.32229 0
M  V30 1231 C 119.385 -0.560643 3.55709 0
M  V30 1232 C 119.238 0.701836 4.44291 0
M  V30 1233 C 120.557 -1.36905 4.18264 0
M  V30 1234 H 117.676 -0.0891987 0.731582 0
M  V30 1235 H 120.318 0.467624 1.84156 0
M  V30 1236 H 118.468 -1.17156 3.70414 0
M  V30 1237 H 120.14 1.33974 4.41417 0
M  V30 1238 H 118.383 1.32612 4.13033 0
M  V30 1239 H 119.054 0.43933 5.50249 0
M  V30 1240 H 121.53 -0.852448 4.07275 0
M  V30 1241 H 120.406 -1.55553 5.26398 0
M  V30 1242 H 120.667 -2.37203 3.73078 0
M  V30 1243 N 119.726 -1.57421 0.075193 0
M  V30 1244 C 121.137 -1.81021 -0.456964 0
M  V30 1245 C 121.488 -0.98936 -1.69429 0
M  V30 1246 O 120.613 -0.212865 -2.15351 0
M  V30 1247 C 121.208 -3.28329 -0.83581 0
M  V30 1248 C 119.767 -3.52764 -1.31281 0
M  V30 1249 C 118.914 -2.75676 -0.299648 0
M  V30 1250 H 121.865 -1.55822 0.300856 0
M  V30 1251 H 121.886 -3.40564 -1.69696 0
M  V30 1252 H 121.398 -3.88046 0.0649238 0
M  V30 1253 H 119.499 -2.98355 -2.23193 0
M  V30 1254 H 119.612 -4.61451 -1.28839 0
M  V30 1255 H 117.976 -2.42538 -0.777641 0
M  V30 1256 H 118.759 -3.38132 0.593417 0
M  V30 1257 N 121.204 0.198386 -1.56346 0
M  V30 1258 C 122.167 1.22952 -1.93431 0
M  V30 1259 C 123.167 1.38611 -0.815092 0
M  V30 1260 O 124.357 1.36479 -1.08255 0
M  V30 1261 C 121.489 2.59946 -2.20546 0
M  V30 1262 H 122.682 0.912626 -2.85677 0
M  V30 1263 H 120.235 0.43977 -1.49986 0
M  V30 1264 H 120.97 2.96696 -1.30927 0
M  V30 1265 H 120.755 2.49953 -3.02102 0
M  V30 1266 H 122.245 3.3431 -2.50253 0
M  V30 1267 N 122.682 1.50554 0.465978 0
M  V30 1268 C 123.63 1.70324 1.58406 0
M  V30 1269 C 124.624 0.569139 1.59553 0
M  V30 1270 O 125.83 0.749776 1.63641 0
M  V30 1271 H 122.205 0.537688 0.525734 0
M  V30 1272 H 124.176 2.64104 1.38894 0
M  V30 1273 C 122.925 1.81928 2.96307 0
M  V30 1274 H 122.248 2.68586 2.96144 0
M  V30 1275 H 123.688 1.99784 3.73982 0
M  V30 1276 C 122.147 0.572095 3.32007 0
M  V30 1277 O 122.677 -0.286416 4.00678 0
M  V30 1278 N 120.883 0.424606 2.87481 0
M  V30 1279 H 120.43 1.12427 2.31771 0
M  V30 1280 H 120.388 -0.408697 3.11732 0
M  V30 1281 N 124.16 -0.719506 1.40217 0
M  V30 1282 C 125.108 -1.85493 1.40339 0
M  V30 1283 C 126.102 -1.66995 0.284415 0
M  V30 1284 O 127.308 -1.74148 0.455252 0
M  V30 1285 H 123.683 -0.610857 0.438586 0
M  V30 1286 H 125.654 -1.82506 2.36081 0
M  V30 1287 C 124.403 -3.23321 1.27901 0
M  V30 1288 H 123.726 -3.38159 2.1328 0
M  V30 1289 H 125.166 -4.02914 1.32045 0
M  V30 1290 C 123.625 -3.36898 -0.0111355 0
M  V30 1291 O 124.155 -3.89674 -0.975538 0
M  V30 1292 N 122.361 -2.90492 -0.0793393 0
M  V30 1293 H 121.908 -2.47731 0.706183 0
M  V30 1294 H 121.866 -2.99955 -0.942038 0
M  V30 1295 N 125.638 -1.25649 -0.95132 0
M  V30 1296 C 126.585 -1.06323 -2.04851 0
M  V30 1297 C 127.555 0.0286491 -1.66075 0
M  V30 1298 O 128.74 -0.12917 -1.90362 0
M  V30 1299 C 125.88 -0.691529 -3.381 0
M  V30 1300 C 124.993 -1.85861 -3.89974 0
M  V30 1301 C 124.128 -1.43096 -5.11563 0
M  V30 1302 C 123.167 -2.56696 -5.55674 0
M  V30 1303 N 122.304 -2.14684 -6.68472 0
M  V30 1304 H 127.144 -2.00222 -2.20715 0
M  V30 1305 H 124.681 -0.997027 -1.08156 0
M  V30 1306 H 126.639 -0.456963 -4.1469 0
M  V30 1307 H 125.269 0.210474 -3.22113 0
M  V30 1308 H 124.321 -2.20639 -3.09875 0
M  V30 1309 H 125.633 -2.71161 -4.18657 0
M  V30 1310 H 124.787 -1.15624 -5.9558 0
M  V30 1311 H 123.526 -0.548722 -4.84603 0
M  V30 1312 H 122.531 -2.84909 -4.7022 0
M  V30 1313 H 123.756 -3.45503 -5.8464 0
M  V30 1314 H 121.702 -1.28881 -6.43215 0
M  V30 1315 H 121.619 -2.9353 -6.96689 0
M  V30 1316 H 122.887 -1.90397 -7.5589 0
M  V30 1317 N 127.117 1.15442 -1.07289 0
M  V30 1318 C 128.047 2.22312 -0.714107 0
M  V30 1319 C 129.028 1.67467 0.298155 0
M  V30 1320 O 130.213 1.93445 0.171048 0
M  V30 1321 C 127.343 3.47124 -0.110448 0
M  V30 1322 C 126.297 4.14926 -1.04979 0
M  V30 1323 C 125.623 5.33807 -0.308924 0
M  V30 1324 C 126.923 4.64762 -2.38314 0
M  V30 1325 H 128.617 2.5258 -1.6076 0
M  V30 1326 H 126.163 1.21404 -0.77441 0
M  V30 1327 H 128.116 4.21124 0.152482 0
M  V30 1328 H 126.84 3.16187 0.81812 0
M  V30 1329 H 125.499 3.42866 -1.29764 0
M  V30 1330 H 125.147 4.99126 0.623084 0
M  V30 1331 H 124.847 5.80113 -0.935036 0
M  V30 1332 H 126.371 6.10576 -0.0537771 0
M  V30 1333 H 127.785 5.30292 -2.1786 0
M  V30 1334 H 126.182 5.21728 -2.96514 0
M  V30 1335 H 127.252 3.80434 -3.00663 0
M  V30 1336 N 128.595 0.856903 1.32268 0
M  V30 1337 C 129.545 0.274899 2.26337 0
M  V30 1338 C 130.529 -0.580543 1.50062 0
M  V30 1339 O 131.721 -0.429559 1.71708 0
M  V30 1340 C 128.85 -0.533841 3.39124 0
M  V30 1341 C 127.936 0.334114 4.22782 0
M  V30 1342 N 128.327 1.42143 4.85416 0
M  V30 1343 C 126.625 0.124256 4.45827 0
M  V30 1344 C 127.326 1.95559 5.47843 0
M  V30 1345 N 126.302 1.25444 5.28928 0
M  V30 1346 H 130.104 1.10612 2.72291 0
M  V30 1347 H 127.618 0.703258 1.46383 0
M  V30 1348 H 129.615 -0.96722 4.05525 0
M  V30 1349 H 128.275 -1.36283 2.94715 0
M  V30 1350 H 129.286 1.80436 4.85451 0
M  V30 1351 H 125.963 -0.669837 4.12092 0
M  V30 1352 H 127.353 2.86714 6.07655 0
M  V30 1353 N 130.073 -1.45103 0.615059 0
M  V30 1354 C 131.322 -2.01396 0.110718 0
M  V30 1355 C 131.635 -1.48834 -1.26916 0
M  V30 1356 O 132.841 -1.97152 -1.86664 0
M  V30 1357 C 131.297 -3.59599 0.14723 0
M  V30 1358 C 130.905 -4.21158 1.52743 0
M  V30 1359 C 132.649 -4.23428 -0.30148 0
M  V30 1360 C 130.556 -5.71535 1.51992 0
M  V30 1361 H 129.486 -0.753061 0.0376241 0
M  V30 1362 H 132.137 -1.66494 0.77149 0
M  V30 1363 H 130.519 -3.91724 -0.580339 0
M  V30 1364 H 131.693 -4.00594 2.2773 0
M  V30 1365 H 130.008 -3.69552 1.91886 0
M  V30 1366 H 132.605 -5.33703 -0.326392 0
M  V30 1367 H 132.948 -3.94629 -1.32565 0
M  V30 1368 H 133.481 -3.96047 0.373065 0
M  V30 1369 H 130.22 -6.05044 2.52193 0
M  V30 1370 H 129.74 -5.94268 0.81274 0
M  V30 1371 H 131.419 -6.34873 1.24681 0
M  V30 1372 N 131.551 -0.354651 -1.53558 0
M  V30 1373 C 132.8 0.239504 -2.00273 0
M  V30 1374 C 133.113 1.50759 -1.24623 0
M  V30 1375 O 134.319 2.17968 -1.61871 0
M  V30 1376 C 132.775 0.477341 -3.5672 0
M  V30 1377 C 132.383 -0.775488 -4.41237 0
M  V30 1378 C 134.127 1.02975 -4.11821 0
M  V30 1379 C 132.034 -0.507838 -5.89216 0
M  V30 1380 H 130.964 0.0932743 -0.748208 0
M  V30 1381 H 133.615 -0.471701 -1.77334 0
M  V30 1382 H 131.997 1.24953 -3.7577 0
M  V30 1383 H 133.171 -1.54963 -4.33962 0
M  V30 1384 H 131.486 -1.25033 -3.97185 0
M  V30 1385 H 134.083 1.24513 -5.2 0
M  V30 1386 H 134.426 1.98862 -3.65731 0
M  V30 1387 H 134.959 0.317994 -3.96527 0
M  V30 1388 H 131.698 -1.43674 -6.39561 0
M  V30 1389 H 131.218 0.228011 -5.99366 0
M  V30 1390 H 132.897 -0.129238 -6.46871 0
M  V30 1391 N 133.029 1.57378 -0.0835403 0
M  V30 1392 C 133.961 2.10389 0.909338 0
M  V30 1393 C 134.974 1.03858 1.25369 0
M  V30 1394 O 136.163 1.31338 1.20882 0
M  V30 1395 C 133.263 2.55908 2.2218 0
M  V30 1396 C 132.436 3.86145 2.05453 0
M  V30 1397 C 131.495 4.17633 3.20108 0
M  V30 1398 O 130.521 4.87043 2.94581 0
M  V30 1399 N 131.723 3.72113 4.45547 0
M  V30 1400 H 134.488 2.962 0.456657 0
M  V30 1401 H 132.049 1.61579 0.101877 0
M  V30 1402 H 134.041 2.74027 2.97811 0
M  V30 1403 H 132.611 1.75171 2.58909 0
M  V30 1404 H 131.831 3.7729 1.1422 0
M  V30 1405 H 133.119 4.7137 1.91541 0
M  V30 1406 H 132.517 3.16062 4.69171 0
M  V30 1407 H 131.074 3.95409 5.18165 0
M  V30 1408 N 134.507 -0.190092 1.56449 0
M  V30 1409 C 135.754 -0.909705 1.80916 0
M  V30 1410 C 136.082 -1.83047 0.657583 0
M  V30 1411 O 135.337 -1.92428 -0.356356 0
M  V30 1412 C 135.636 -1.75382 3.1141 0
M  V30 1413 C 135.302 -0.983606 4.40041 0
M  V30 1414 C 133.964 -0.770967 4.74984 0
M  V30 1415 C 136.316 -0.442024 5.19322 0
M  V30 1416 C 133.644 -0.0053448 5.867 0
M  V30 1417 C 135.996 0.310412 6.31838 0
M  V30 1418 C 134.66 0.534023 6.6536 0
M  V30 1419 H 133.93 -0.332885 0.662019 0
M  V30 1420 H 136.577 -0.175762 1.90692 0
M  V30 1421 H 134.882 -2.55659 2.96893 0
M  V30 1422 H 136.579 -2.31331 3.27547 0
M  V30 1423 H 133.169 -1.15936 4.12622 0
M  V30 1424 H 137.353 -0.593693 4.92736 0
M  V30 1425 H 132.609 0.177825 6.11141 0
M  V30 1426 H 136.783 0.737419 6.92485 0
M  V30 1427 H 134.41 1.12918 7.51767 0
M  V30 1428 N 135.985 -1.50799 -0.457987 0
M  V30 1429 C 136.933 -1.71162 -1.575 0
M  V30 1430 C 137.927 -0.577592 -1.59249 0
M  V30 1431 O 139.133 -0.758443 -1.63241 0
M  V30 1432 H 135.508 -0.540468 -0.522875 0
M  V30 1433 H 137.479 -2.64837 -1.37492 0
M  V30 1434 C 136.228 -1.83496 -2.95338 0
M  V30 1435 H 135.551 -2.70153 -2.94716 0
M  V30 1436 H 136.991 -2.01765 -3.72917 0
M  V30 1437 C 135.45 -0.589694 -3.31699 0
M  V30 1438 O 135.98 0.265163 -4.00824 0
M  V30 1439 N 134.186 -0.439845 -2.87252 0
M  V30 1440 H 133.733 -1.13655 -2.31172 0
M  V30 1441 H 133.691 0.392159 -3.11945 0
M  V30 1442 N 137.463 0.71206 -1.40597 0
M  V30 1443 C 138.711 1.46907 -1.38791 0
M  V30 1444 C 139.032 1.94998 0.00780391 0
M  V30 1445 O 138.302 1.70587 0.963174 0
M  V30 1446 H 136.882 0.545043 -0.51082 0
M  V30 1447 H 139.544 0.843882 -1.75683 0
M  V30 1448 H 138.64 2.34021 -2.06496 0
M  V30 1449 N 138.941 1.26152 0.944643 0
M  V30 1450 C 140.352 1.10454 1.50522 0
M  V30 1451 C 140.703 -0.31635 1.93633 0
M  V30 1452 O 139.828 -1.20746 1.79581 0
M  V30 1453 C 140.423 1.99891 2.73549 0
M  V30 1454 C 138.982 1.88348 3.25886 0
M  V30 1455 C 138.129 1.93447 1.9868 0
M  V30 1456 H 141.08 1.39292 0.760489 0
M  V30 1457 H 141.101 1.54477 3.47732 0
M  V30 1458 H 140.613 3.03297 2.42141 0
M  V30 1459 H 138.714 0.878636 3.62092 0
M  V30 1460 H 138.827 2.73696 3.93227 0
M  V30 1461 H 137.191 1.37456 2.14425 0
M  V30 1462 H 137.974 2.98476 1.69607 0
M  V30 1463 N 140.419 -1.14872 1.07899 0
M  V30 1464 C 141.668 -1.85135 0.800499 0
M  V30 1465 C 141.981 -1.83547 -0.676014 0
M  V30 1466 O 143.187 -2.49548 -1.06948 0
M  V30 1467 C 141.643 -3.3231 1.38197 0
M  V30 1468 C 141.251 -3.42329 2.8899 0
M  V30 1469 C 142.995 -4.0772 1.18174 0
M  V30 1470 C 140.902 -4.83684 3.403 0
M  V30 1471 H 139.832 -0.693563 0.29578 0
M  V30 1472 H 142.483 -1.29532 1.29976 0
M  V30 1473 H 140.865 -3.87618 0.810431 0
M  V30 1474 H 142.039 -2.97097 3.52236 0
M  V30 1475 H 140.354 -2.80369 3.07867 0
M  V30 1476 H 142.951 -5.12049 1.5398 0
M  V30 1477 H 143.294 -4.16124 0.12117 0
M  V30 1478 H 143.827 -3.58696 1.71994 0
M  V30 1479 H 140.566 -4.80465 4.45907 0
M  V30 1480 H 140.086 -5.29474 2.81811 0
M  V30 1481 H 141.765 -5.52558 3.36584 0
M  V30 1482 N 141.898 -0.863906 -1.31812 0
M  V30 1483 C 142.828 -0.330843 -2.31144 0
M  V30 1484 C 143.809 0.575005 -1.60087 0
M  V30 1485 O 144.994 0.493304 -1.8783 0
M  V30 1486 C 142.124 0.47374 -3.44054 0
M  V30 1487 C 141.078 -0.338481 -4.26659 0
M  V30 1488 C 140.404 0.591412 -5.31419 0
M  V30 1489 C 141.704 -1.56926 -4.98168 0
M  V30 1490 H 143.398 -1.16086 -2.75979 0
M  V30 1491 H 140.944 -0.559657 -1.32679 0
M  V30 1492 H 142.897 0.857143 -4.12591 0
M  V30 1493 H 141.621 1.33721 -2.9797 0
M  V30 1494 H 140.28 -0.703754 -3.59782 0
M  V30 1495 H 139.928 1.45199 -4.81587 0
M  V30 1496 H 139.628 0.0519022 -5.87577 0
M  V30 1497 H 141.152 0.97179 -6.02817 0
M  V30 1498 H 142.566 -1.25764 -5.59336 0
M  V30 1499 H 140.963 -2.04739 -5.64094 0
M  V30 1500 H 142.033 -2.32544 -4.25501 0
M  V30 1501 N 143.376 1.44774 -0.622745 0
M  V30 1502 C 144.286 2.34433 0.0886031 0
M  V30 1503 C 145.302 1.52131 0.844529 0
M  V30 1504 O 146.478 1.84886 0.798691 0
M  V30 1505 C 143.543 3.29986 1.0635 0
M  V30 1506 C 142.604 4.28195 0.307873 0
M  V30 1507 C 141.837 5.19183 1.23633 0
M  V30 1508 O 142.06 5.13918 2.47476 0
M  V30 1509 O 140.994 5.97515 0.725189 0
M  V30 1510 H 144.82 2.96693 -0.648599 0
M  V30 1511 H 142.405 1.44408 -0.382957 0
M  V30 1512 H 144.287 3.88825 1.6246 0
M  V30 1513 H 142.962 2.70269 1.78146 0
M  V30 1514 H 141.869 3.72927 -0.296064 0
M  V30 1515 H 143.202 4.90808 -0.3699 0
M  V30 1516 N 144.854 0.36279 1.53368 0
M  V30 1517 C 145.764 -0.492994 2.29362 0
M  V30 1518 C 146.78 -1.09507 1.35219 0
M  V30 1519 O 147.956 -1.10662 1.68273 0
M  V30 1520 C 145.021 -1.61855 3.066 0
M  V30 1521 C 144.082 -1.04429 4.16405 0
M  V30 1522 C 143.315 -2.11621 4.89951 0
M  V30 1523 O 143.538 -3.32684 4.63333 0
M  V30 1524 O 142.472 -1.74835 5.75948 0
M  V30 1525 H 146.298 0.125331 3.03441 0
M  V30 1526 H 143.883 0.127253 1.48857 0
M  V30 1527 H 145.765 -2.27302 3.54841 0
M  V30 1528 H 144.44 -2.22233 2.3536 0
M  V30 1529 H 143.347 -0.353819 3.72423 0
M  V30 1530 H 144.68 -0.485113 4.89804 0
M  V30 1531 N 146.332 -1.57332 0.0918853 0
M  V30 1532 C 147.56 -1.98574 -0.581048 0
M  V30 1533 C 147.975 -0.970903 -1.61923 0
M  V30 1534 O 147.332 0.0399054 -1.82456 0
M  V30 1535 C 147.383 -3.39872 -1.23164 0
M  V30 1536 O 147.104 -4.37469 -0.234989 0
M  V30 1537 C 148.605 -3.96099 -1.99049 0
M  V30 1538 H 145.825 -0.65261 -0.156018 0
M  V30 1539 H 148.369 -2.0379 0.170225 0
M  V30 1540 H 146.524 -3.35679 -1.93386 0
M  V30 1541 H 146.938 -5.19751 -0.70418 0
M  V30 1542 H 148.412 -4.97127 -2.39934 0
M  V30 1543 H 148.889 -3.3374 -2.85507 0
M  V30 1544 H 149.495 -4.03755 -1.3365 0
M  V30 1545 N 147.81 0.181792 -1.56548 0
M  V30 1546 C 148.757 1.22521 -1.95595 0
M  V30 1547 C 149.727 1.4454 -0.818373 0
M  V30 1548 O 150.912 1.57454 -1.07763 0
M  V30 1549 C 148.052 2.56193 -2.31212 0
M  V30 1550 C 147.165 2.41641 -3.58097 0
M  V30 1551 C 146.3 3.68108 -3.82975 0
M  V30 1552 C 145.339 3.48445 -5.03242 0
M  V30 1553 N 144.476 4.66956 -5.24306 0
M  V30 1554 H 149.316 0.885226 -2.84548 0
M  V30 1555 H 146.853 0.425718 -1.40805 0
M  V30 1556 H 148.811 3.34088 -2.49882 0
M  V30 1557 H 147.441 2.88208 -1.45382 0
M  V30 1558 H 146.493 1.54976 -3.474 0
M  V30 1559 H 147.805 2.23052 -4.46149 0
M  V30 1560 H 146.959 4.54441 -4.01956 0
M  V30 1561 H 145.698 3.89666 -2.93278 0
M  V30 1562 H 144.703 2.60499 -4.8417 0
M  V30 1563 H 145.928 3.2832 -5.9446 0
M  V30 1564 H 143.874 4.88752 -4.37559 0
M  V30 1565 H 143.791 4.51242 -6.06561 0
M  V30 1566 H 145.059 5.54602 -5.47756 0
M  V30 1567 N 149.288 1.51039 0.449983 0
M  V30 1568 C 150.22 1.67617 1.56324 0
M  V30 1569 C 151.233 0.557083 1.52972 0
M  V30 1570 O 152.422 0.830989 1.57977 0
M  V30 1571 C 149.522 1.66402 2.95235 0
M  V30 1572 C 148.695 2.9469 3.23229 0
M  V30 1573 C 147.754 2.85832 4.41799 0
M  V30 1574 O 146.78 3.59785 4.41071 0
M  V30 1575 N 147.982 2.00821 5.44657 0
M  V30 1576 H 150.747 2.63648 1.42512 0
M  V30 1577 H 148.308 1.48767 0.638737 0
M  V30 1578 H 150.3 1.58062 3.72557 0
M  V30 1579 H 148.87 0.780182 3.02708 0
M  V30 1580 H 148.09 3.16996 2.34323 0
M  V30 1581 H 149.378 3.79636 3.38754 0
M  V30 1582 H 148.776 1.40091 5.48079 0
M  V30 1583 H 147.333 1.98368 6.20881 0
M  V30 1584 N 150.766 -0.704594 1.40972 0
M  V30 1585 C 151.698 -1.82974 1.38033 0
M  V30 1586 C 152.711 -1.60305 0.283931 0
M  V30 1587 O 153.9 -1.69975 0.545042 0
M  V30 1588 C 151 -3.19578 1.12795 0
M  V30 1589 C 150.173 -3.69352 2.34302 0
M  V30 1590 C 149.232 -4.84601 2.05058 0
M  V30 1591 O 148.258 -4.96682 2.7802 0
M  V30 1592 N 149.46 -5.71194 1.03528 0
M  V30 1593 H 152.225 -1.85991 2.35005 0
M  V30 1594 H 149.786 -0.886567 1.35468 0
M  V30 1595 H 151.778 -3.9429 0.911987 0
M  V30 1596 H 150.348 -3.11642 0.24452 0
M  V30 1597 H 149.568 -2.85649 2.71659 0
M  V30 1598 H 150.856 -3.99345 3.1528 0
M  V30 1599 H 150.254 -5.64054 0.431217 0
M  V30 1600 H 148.811 -6.45843 0.879205 0
M  V30 1601 N 152.244 -1.26651 -0.937939 0
M  V30 1602 C 153.174 -1.10993 -2.05433 0
M  V30 1603 C 154.155 -0.0142161 -1.70094 0
M  V30 1604 O 155.34 -0.186837 -1.93299 0
M  V30 1605 C 152.47 -0.745561 -3.39203 0
M  V30 1606 C 151.424 -1.79337 -3.88616 0
M  V30 1607 C 150.75 -1.28324 -5.19073 0
M  V30 1608 C 152.05 -3.19553 -4.13138 0
M  V30 1609 H 153.744 -2.0438 -2.1879 0
M  V30 1610 H 151.29 -0.984041 -1.05131 0
M  V30 1611 H 153.243 -0.622888 -4.16771 0
M  V30 1612 H 151.967 0.22401 -3.25831 0
M  V30 1613 H 150.626 -1.90477 -3.13231 0
M  V30 1614 H 150.274 -0.303414 -5.02084 0
M  V30 1615 H 149.974 -1.98369 -5.53103 0
M  V30 1616 H 151.498 -1.1733 -5.99221 0
M  V30 1617 H 152.912 -3.11471 -4.81309 0
M  V30 1618 H 151.309 -3.87218 -4.58457 0
M  V30 1619 H 152.379 -3.65368 -3.18801 0
M  V30 1620 N 153.722 1.14298 -1.08507 0
M  V30 1621 C 154.632 2.23027 -0.727753 0
M  V30 1622 C 155.648 1.71952 0.26619 0
M  V30 1623 O 156.824 2.011 0.109882 0
M  V30 1624 C 153.889 3.46403 -0.143541 0
M  V30 1625 C 152.95 4.12413 -1.19223 0
M  V30 1626 C 152.183 5.29899 -0.635798 0
M  V30 1627 O 152.406 5.67796 0.544393 0
M  V30 1628 O 151.34 5.85717 -1.38634 0
M  V30 1629 H 155.166 2.55945 -1.63481 0
M  V30 1630 H 152.751 1.22248 -0.858817 0
M  V30 1631 H 154.633 4.21018 0.179404 0
M  V30 1632 H 153.308 3.15206 0.736659 0
M  V30 1633 H 152.215 3.39667 -1.56772 0
M  V30 1634 H 153.548 4.47718 -2.04474 0
M  V30 1635 N 155.201 0.870884 1.31352 0
M  V30 1636 C 156.148 0.325425 2.28494 0
M  V30 1637 C 157.118 -0.576615 1.5577 0
M  V30 1638 O 158.303 -0.508059 1.83911 0
M  V30 1639 C 155.443 -0.466283 3.41935 0
M  V30 1640 C 154.556 0.463378 4.29508 0
M  V30 1641 C 153.691 -0.342544 5.30094 0
M  V30 1642 C 152.73 0.583486 6.09313 0
M  V30 1643 N 151.867 -0.186244 7.01853 0
M  V30 1644 H 156.707 1.15901 2.74538 0
M  V30 1645 H 154.244 0.58294 1.35056 0
M  V30 1646 H 156.202 -0.941085 4.06447 0
M  V30 1647 H 154.832 -1.26456 2.97 0
M  V30 1648 H 153.884 1.05663 3.65431 0
M  V30 1649 H 155.196 1.1734 4.84802 0
M  V30 1650 H 154.35 -0.879816 6.00287 0
M  V30 1651 H 153.089 -1.08585 4.75458 0
M  V30 1652 H 152.094 1.13251 5.3801 0
M  V30 1653 H 153.319 1.32566 6.66035 0
M  V30 1654 H 151.265 -0.912348 6.49625 0
M  V30 1655 H 151.182 0.464422 7.54572 0
M  V30 1656 H 152.45 -0.704716 7.76308 0
M  V30 1657 N 156.679 -1.44442 0.630414 0
M  V30 1658 C 157.907 -2.06414 0.141671 0
M  V30 1659 C 158.322 -1.47105 -1.18345 0
M  V30 1660 O 157.679 -0.593662 -1.72574 0
M  V30 1661 C 157.73 -3.61494 0.0199784 0
M  V30 1662 O 157.451 -4.18594 1.29269 0
M  V30 1663 C 158.952 -4.40499 -0.497544 0
M  V30 1664 H 156.172 -0.666292 0.0793452 0
M  V30 1665 H 158.716 -1.85323 0.864614 0
M  V30 1666 H 156.871 -3.8185 -0.653402 0
M  V30 1667 H 157.285 -5.12026 1.13707 0
M  V30 1668 H 158.759 -5.49433 -0.531708 0
M  V30 1669 H 159.236 -4.11895 -1.52445 0
M  V30 1670 H 159.842 -4.25061 0.142562 0
M  V30 1671 N 158.157 -0.370918 -1.53173 0
M  V30 1672 C 159.405 0.216673 -2.00935 0
M  V30 1673 C 159.726 1.48845 -1.25977 0
M  V30 1674 O 158.996 1.92286 -0.374551 0
M  V30 1675 H 157.576 0.0830565 -0.742368 0
M  V30 1676 H 160.238 -0.49838 -1.8842 0
M  V30 1677 H 159.334 0.439893 -3.08984 0
M  V30 1678 N 159.635 1.57281 -0.100228 0
M  V30 1679 C 160.598 2.13158 0.842398 0
M  V30 1680 C 161.598 1.06202 1.20738 0
M  V30 1681 O 162.788 1.32066 1.13597 0
M  V30 1682 C 159.92 2.65639 2.13655 0
M  V30 1683 H 161.113 2.97766 0.357114 0
M  V30 1684 H 158.666 1.5559 0.148823 0
M  V30 1685 H 159.401 1.84566 2.66657 0
M  V30 1686 H 159.186 3.43844 1.88451 0
M  V30 1687 H 160.676 3.08846 2.81077 0
M  V30 1688 N 161.113 -0.173488 1.56642 0
M  V30 1689 C 162.06 -1.21482 1.96242 0
M  V30 1690 C 163.03 -1.44104 0.826027 0
M  V30 1691 O 164.215 -1.5688 1.08597 0
M  V30 1692 C 161.355 -2.54964 2.32567 0
M  V30 1693 C 160.468 -2.39739 3.59373 0
M  V30 1694 C 159.603 -3.66072 3.84921 0
M  V30 1695 C 158.642 -3.45771 5.05083 0
M  V30 1696 N 157.779 -4.64169 5.26775 0
M  V30 1697 H 162.619 -0.870123 2.85014 0
M  V30 1698 H 160.156 -0.418245 1.41029 0
M  V30 1699 H 162.114 -3.32758 2.5165 0
M  V30 1700 H 160.744 -2.87433 1.46908 0
M  V30 1701 H 159.796 -1.53131 3.48217 0
M  V30 1702 H 161.108 -2.20683 4.47326 0
M  V30 1703 H 160.262 -4.52303 4.0436 0
M  V30 1704 H 159.001 -3.88105 2.9534 0
M  V30 1705 H 158.006 -2.57927 4.85545 0
M  V30 1706 H 159.231 -3.25163 5.96193 0
M  V30 1707 H 157.177 -4.86425 4.40144 0
M  V30 1708 H 157.094 -4.48019 6.08946 0
M  V30 1709 H 158.362 -5.51689 5.5069 0
M  V30 1710 N 162.591 -1.51276 -0.441967 0
M  V30 1711 C 163.84 -1.6295 -1.18871 0
M  V30 1712 C 164.153 -0.349312 -1.92456 0
M  V30 1713 O 165.359 -0.345355 -2.69295 0
M  V30 1714 C 163.815 -2.87759 -2.16155 0
M  V30 1715 C 163.423 -4.22764 -1.48239 0
M  V30 1716 C 165.167 -3.08788 -2.91291 0
M  V30 1717 C 163.074 -5.38728 -2.4398 0
M  V30 1718 H 162.004 -0.606913 -0.447406 0
M  V30 1719 H 164.655 -1.77739 -0.456205 0
M  V30 1720 H 163.037 -2.66593 -2.92821 0
M  V30 1721 H 164.211 -4.54293 -0.771635 0
M  V30 1722 H 162.526 -4.07575 -0.852741 0
M  V30 1723 H 165.123 -3.92599 -3.63002 0
M  V30 1724 H 165.466 -2.21679 -3.5237 0
M  V30 1725 H 165.999 -3.30272 -2.21733 0
M  V30 1726 H 162.738 -6.28082 -1.87598 0
M  V30 1727 H 162.258 -5.1158 -3.13123 0
M  V30 1728 H 163.937 -5.70489 -3.05207 0
M  V30 1729 N 164.069 0.697108 -1.41344 0
M  V30 1730 C 164.999 1.82353 -1.45841 0
M  V30 1731 C 165.98 1.67115 -0.317247 0
M  V30 1732 O 167.165 1.86871 -0.528474 0
M  V30 1733 C 164.295 3.20476 -1.33838 0
M  V30 1734 C 163.249 3.50415 -2.4575 0
M  V30 1735 C 162.575 4.87878 -2.18813 0
M  V30 1736 C 163.875 3.49546 -3.88091 0
M  V30 1737 H 165.569 1.78846 -2.40113 0
M  V30 1738 H 163.115 0.859028 -1.15571 0
M  V30 1739 H 165.068 3.98988 -1.35596 0
M  V30 1740 H 163.792 3.24604 -0.360498 0
M  V30 1741 H 162.451 2.74253 -2.43271 0
M  V30 1742 H 162.099 4.8863 -1.19371 0
M  V30 1743 H 161.799 5.08875 -2.93803 0
M  V30 1744 H 163.323 5.68702 -2.22284 0
M  V30 1745 H 164.737 4.18066 -3.92293 0
M  V30 1746 H 163.134 3.82075 -4.62751 0
M  V30 1747 H 164.204 2.48552 -4.16353 0
M  V30 1748 N 165.547 1.27147 0.931209 0
M  V30 1749 C 166.824 1.0401 1.65654 0
M  V30 1750 C 167.204 -0.426297 2.06751 0
M  V30 1751 O 166.552 -1.40879 1.79904 0
M  V30 1752 C 166.762 1.99834 2.86125 0
M  V30 1753 C 168.11 2.29007 3.57549 0
M  V30 1754 O 169.134 1.97779 2.96246 0
M  V30 1755 O 167.993 2.82222 4.67989 0
M  V30 1756 H 165.087 0.396239 0.725895 0
M  V30 1757 H 167.633 1.38397 0.982056 0
M  V30 1758 H 166.405 2.98744 2.52721 0
M  V30 1759 H 166.028 1.65987 3.61295 0
M  V30 1760 N 167.025 -1.13721 1.09112 0
M  V30 1761 C 168.255 -1.88499 0.845671 0
M  V30 1762 C 168.663 -1.79218 -0.606432 0
M  V30 1763 O 168.006 -1.1544 -1.42896 0
M  V30 1764 C 168.068 -3.38954 1.19793 0
M  V30 1765 C 167.732 -3.72018 2.65428 0
M  V30 1766 C 168.729 -3.7153 3.63677 0
M  V30 1767 C 166.414 -4.01775 3.01467 0
M  V30 1768 C 168.408 -4.00336 4.95994 0
M  V30 1769 C 166.095 -4.30243 4.33975 0
M  V30 1770 C 167.093 -4.29508 5.31048 0
M  V30 1771 O 166.781 -4.5728 6.61173 0
M  V30 1772 H 166.513 -0.603702 0.304171 0
M  V30 1773 H 169.067 -1.44903 1.45576 0
M  V30 1774 H 167.297 -3.83039 0.530871 0
M  V30 1775 H 168.986 -3.95052 0.932146 0
M  V30 1776 H 169.752 -3.4862 3.37179 0
M  V30 1777 H 165.631 -4.01496 2.26544 0
M  V30 1778 H 169.175 -3.99678 5.71755 0
M  V30 1779 H 165.072 -4.52625 4.60219 0
M  V30 1780 H 165.84 -4.74964 6.66597 0
M  V30 1781 N 168.503 -0.877838 -1.30888 0
M  V30 1782 C 169.752 -0.488793 -1.95688 0
M  V30 1783 C 170.065 0.965485 -1.70111 0
M  V30 1784 O 171.271 1.46104 -2.28836 0
M  V30 1785 C 169.727 -0.823201 -3.50359 0
M  V30 1786 C 169.335 -2.29477 -3.84765 0
M  V30 1787 C 171.079 -0.503009 -4.21509 0
M  V30 1788 C 168.986 -2.57118 -5.32583 0
M  V30 1789 H 167.916 -0.179062 -0.732429 0
M  V30 1790 H 170.567 -1.07183 -1.48943 0
M  V30 1791 H 168.949 -0.169331 -3.95638 0
M  V30 1792 H 170.123 -2.99236 -3.5042 0
M  V30 1793 H 168.438 -2.58178 -3.267 0
M  V30 1794 H 171.035 -0.68665 -5.30273 0
M  V30 1795 H 171.378 0.557109 -4.12555 0
M  V30 1796 H 171.911 -1.11376 -3.8189 0
M  V30 1797 H 168.65 -3.61843 -5.4658 0
M  V30 1798 H 168.17 -1.91961 -5.68253 0
M  V30 1799 H 169.849 -2.42251 -5.99936 0
M  V30 1800 N 169.982 1.44106 -0.638065 0
M  V30 1801 C 171.393 1.85316 -0.226894 0
M  V30 1802 C 171.744 1.53399 1.22324 0
M  V30 1803 O 170.869 0.975463 1.93167 0
M  V30 1804 C 171.464 3.3637 -0.405013 0
M  V30 1805 C 170.023 3.76369 -0.0482902 0
M  V30 1806 C 169.17 2.67921 -0.715108 0
M  V30 1807 H 172.121 1.34474 -0.842764 0
M  V30 1808 H 172.142 3.7885 0.354 0
M  V30 1809 H 171.654 3.59569 -1.46053 0
M  V30 1810 H 169.755 3.58784 1.00522 0
M  V30 1811 H 169.868 4.76856 -0.463187 0
M  V30 1812 H 168.232 2.54259 -0.149753 0
M  V30 1813 H 169.015 2.93951 -1.77335 0
M  V30 1814 N 171.46 0.379036 1.52974 0
M  V30 1815 C 172.737 -0.263479 1.93817 0
M  V30 1816 C 173.117 -1.65244 1.31368 0
M  V30 1817 O 172.465 -2.23448 0.477856 0
M  V30 1818 C 172.675 -0.300166 3.47707 0
M  V30 1819 C 174.023 -0.534061 4.21228 0
M  V30 1820 O 175.047 -0.38081 3.54159 0
M  V30 1821 O 173.906 -0.833501 5.40106 0
M  V30 1822 H 171 -0.161149 0.811147 0
M  V30 1823 H 173.546 0.432798 1.64088 0
M  V30 1824 H 172.318 0.673138 3.85467 0
M  V30 1825 H 171.941 -1.04179 3.83709 0
M  V30 1826 N 172.938 -1.57226 0.108567 0
M  V30 1827 C 174.168 -1.9889 -0.559142 0
M  V30 1828 C 174.576 -0.986889 -1.61422 0
M  V30 1829 O 173.919 0.0298705 -1.83676 0
M  V30 1830 C 173.981 -3.36952 -1.25315 0
M  V30 1831 C 173.645 -4.55679 -0.347248 0
M  V30 1832 C 174.642 -5.18281 0.409996 0
M  V30 1833 C 172.327 -5.0162 -0.261367 0
M  V30 1834 C 174.321 -6.25203 1.24096 0
M  V30 1835 C 172.008 -6.08405 0.573238 0
M  V30 1836 C 173.006 -6.70063 1.32304 0
M  V30 1837 O 172.694 -7.74788 2.14381 0
M  V30 1838 H 172.426 -0.658343 -0.153492 0
M  V30 1839 H 174.98 -2.04532 0.188584 0
M  V30 1840 H 173.21 -3.28032 -2.04773 0
M  V30 1841 H 174.899 -3.62974 -1.81673 0
M  V30 1842 H 175.665 -4.8371 0.353457 0
M  V30 1843 H 171.544 -4.53381 -0.834656 0
M  V30 1844 H 175.088 -6.73259 1.82669 0
M  V30 1845 H 170.985 -6.42406 0.631208 0
M  V30 1846 H 171.753 -7.91837 2.07209 0
M  V30 1847 N 174.416 0.165178 -1.56732 0
M  V30 1848 C 175.379 1.18822 -1.95995 0
M  V30 1849 C 176.379 1.3685 -0.84431 0
M  V30 1850 O 177.569 1.34152 -1.11126 0
M  V30 1851 C 174.701 2.5521 -2.26011 0
M  V30 1852 H 175.894 0.851825 -2.87548 0
M  V30 1853 H 173.447 0.407857 -1.50885 0
M  V30 1854 H 174.182 2.93852 -1.37191 0
M  V30 1855 H 173.967 2.43489 -3.07336 0
M  V30 1856 H 175.457 3.28927 -2.57288 0
M  V30 1857 N 175.894 1.51508 0.433938 0
M  V30 1858 C 177.124 1.67914 1.20369 0
M  V30 1859 C 177.532 0.377461 1.85397 0
M  V30 1860 O 176.875 -0.654255 1.71654 0
M  V30 1861 C 176.937 2.74045 2.32679 0
M  V30 1862 C 176.601 4.16543 1.87991 0
M  V30 1863 C 177.598 5.01211 1.38145 0
M  V30 1864 C 175.283 4.6266 1.95579 0
M  V30 1865 C 177.277 6.30056 0.964774 0
M  V30 1866 C 174.964 5.91501 1.53523 0
M  V30 1867 C 175.962 6.75027 1.04055 0
M  V30 1868 O 175.65 8.01459 0.625964 0
M  V30 1869 H 175.382 0.566578 0.368735 0
M  V30 1870 H 177.936 1.98709 0.51999 0
M  V30 1871 H 176.166 2.38572 3.04336 0
M  V30 1872 H 177.855 2.79295 2.94532 0
M  V30 1873 H 178.621 4.66783 1.31675 0
M  V30 1874 H 174.5 3.97767 2.33029 0
M  V30 1875 H 178.044 6.95202 0.57796 0
M  V30 1876 H 173.941 6.25442 1.59665 0
M  V30 1877 H 174.709 8.15043 0.751509 0
M  V30 1878 N 177.372 -0.689602 1.41712 0
M  V30 1879 C 178.621 -1.44534 1.40686 0
M  V30 1880 C 178.934 -1.95588 0.0213352 0
M  V30 1881 O 180.14 -2.71271 -0.111534 0
M  V30 1882 C 178.596 -2.61387 2.47396 0
M  V30 1883 C 178.204 -2.17094 3.91885 0
M  V30 1884 C 179.948 -3.38986 2.55517 0
M  V30 1885 C 177.855 -3.3094 4.90135 0
M  V30 1886 H 176.785 -0.542925 0.52321 0
M  V30 1887 H 179.436 -0.748054 1.6756 0
M  V30 1888 H 177.818 -3.33412 2.13664 0
M  V30 1889 H 178.992 -1.52318 4.34897 0
M  V30 1890 H 177.307 -1.52473 3.8748 0
M  V30 1891 H 179.904 -4.23747 3.26102 0
M  V30 1892 H 180.247 -3.84578 1.59391 0
M  V30 1893 H 180.78 -2.74021 2.8837 0
M  V30 1894 H 177.519 -2.90355 5.87685 0
M  V30 1895 H 177.039 -3.94546 4.51767 0
M  V30 1896 H 178.718 -3.9663 5.11169 0
M  V30 1897 N 178.85 -1.27639 -0.924453 0
M  V30 1898 C 180.096 -1.14336 -1.67497 0
M  V30 1899 C 180.429 0.309465 -1.91718 0
M  V30 1900 O 179.704 1.22608 -1.50989 0
M  V30 1901 C 179.987 -1.93096 -3.0395 0
M  V30 1902 C 179.84 -3.46381 -2.8695 0
M  V30 1903 C 181.159 -1.73798 -4.0433 0
M  V30 1904 H 178.278 -0.416728 -0.607871 0
M  V30 1905 H 180.92 -1.56832 -1.07256 0
M  V30 1906 H 179.07 -1.56982 -3.55372 0
M  V30 1907 H 180.742 -3.92343 -2.42621 0
M  V30 1908 H 178.985 -3.72557 -2.22225 0
M  V30 1909 H 179.656 -3.96735 -3.83804 0
M  V30 1910 H 182.132 -2.05293 -3.61931 0
M  V30 1911 H 181.008 -2.31294 -4.97789 0
M  V30 1912 H 181.269 -0.686725 -4.36734 0
M  V30 1913 N 180.328 1.1314 -1.09713 0
M  V30 1914 C 181.238 2.22242 -0.751367 0
M  V30 1915 C 182.254 1.72224 0.247938 0
M  V30 1916 O 183.43 2.01205 0.0885463 0
M  V30 1917 C 180.495 3.46231 -0.180274 0
M  V30 1918 C 179.556 4.11125 -1.2359 0
M  V30 1919 C 178.789 5.29195 -0.691966 0
M  V30 1920 O 179.012 5.68342 0.48414 0
M  V30 1921 O 177.946 5.84214 -1.44838 0
M  V30 1922 H 181.772 2.54197 -1.66186 0
M  V30 1923 H 179.357 1.21331 -0.871735 0
M  V30 1924 H 181.239 4.21185 0.134739 0
M  V30 1925 H 179.914 3.1597 0.703185 0
M  V30 1926 H 178.821 3.37985 -1.60366 0
M  V30 1927 H 180.154 4.45524 -2.09211 0
M  V30 1928 N 181.806 0.884767 1.30421 0
M  V30 1929 C 183.036 0.517293 2.00019 0
M  V30 1930 C 183.444 -0.898632 1.66497 0
M  V30 1931 O 182.787 -1.60245 0.898181 0
M  V30 1932 C 182.849 0.612025 3.54252 0
M  V30 1933 C 182.513 1.99222 4.1129 0
M  V30 1934 C 183.51 2.9616 4.273 0
M  V30 1935 C 181.195 2.29755 4.46674 0
M  V30 1936 C 183.189 4.21764 4.77906 0
M  V30 1937 C 180.876 3.55606 4.96979 0
M  V30 1938 C 181.874 4.51425 5.12547 0
M  V30 1939 O 181.562 5.75043 5.61766 0
M  V30 1940 H 181.294 0.198529 0.64619 0
M  V30 1941 H 183.848 1.1919 1.67281 0
M  V30 1942 H 182.078 -0.119561 3.86515 0
M  V30 1943 H 183.767 0.255859 4.05093 0
M  V30 1944 H 184.533 2.73882 4.00267 0
M  V30 1945 H 180.412 1.55942 4.33824 0
M  V30 1946 H 183.956 4.96561 4.89972 0
M  V30 1947 H 179.853 3.7772 5.23448 0
M  V30 1948 H 180.621 5.77422 5.80109 0
M  V30 1949 N 183.284 -1.43765 0.645699 0
M  V30 1950 C 184.194 -2.34544 -0.0512957 0
M  V30 1951 C 185.21 -1.53455 -0.82022 0
M  V30 1952 O 186.386 -1.86133 -0.769176 0
M  V30 1953 C 183.451 -3.31636 -1.01087 0
M  V30 1954 C 182.512 -4.2863 -0.239712 0
M  V30 1955 C 181.745 -5.21084 -1.15358 0
M  V30 1956 O 181.968 -5.1779 -2.39269 0
M  V30 1957 O 180.902 -5.98593 -0.630038 0
M  V30 1958 H 184.728 -2.95624 0.695718 0
M  V30 1959 H 182.313 -1.43781 0.405882 0
M  V30 1960 H 184.195 -3.9136 -1.56254 0
M  V30 1961 H 182.87 -2.73069 -1.73824 0
M  V30 1962 H 181.777 -3.72408 0.355356 0
M  V30 1963 H 183.11 -4.90157 0.447936 0
M  V30 1964 N 184.763 -0.387143 -1.52771 0
M  V30 1965 C 186.011 0.195349 -2.01154 0
M  V30 1966 C 186.332 1.475 -1.27549 0
M  V30 1967 O 185.602 1.91878 -0.394924 0
M  V30 1968 H 184.182 0.075178 -0.743207 0
M  V30 1969 H 186.844 -0.518337 -1.87881 0
M  V30 1970 H 185.94 0.407096 -3.09434 0
M  V30 1971 N 186.241 1.57166 -0.116904 0
M  V30 1972 C 187.518 1.86645 0.585049 0
M  V30 1973 C 187.898 1.0177 1.84949 0
M  V30 1974 O 187.246 0.0960379 2.28298 0
M  V30 1975 C 187.456 3.37736 0.879507 0
M  V30 1976 C 188.804 4.06289 1.23348 0
M  V30 1977 O 189.828 3.42743 0.969836 0
M  V30 1978 O 188.687 5.18455 1.7282 0
M  V30 1979 H 185.781 0.772593 0.295007 0
M  V30 1980 H 188.327 1.69025 -0.151249 0
M  V30 1981 H 187.099 3.91296 -0.0166136 0
M  V30 1982 H 186.722 3.6078 1.67103 0
M  V30 1983 N 187.719 -0.156864 1.56817 0
M  V30 1984 C 188.965 -0.872416 1.83076 0
M  V30 1985 C 189.298 -1.81261 0.697001 0
M  V30 1986 O 188.573 -1.92171 -0.30008 0
M  V30 1987 C 188.856 -1.65551 3.19789 0
M  V30 1988 C 188.709 -0.737467 4.43713 0
M  V30 1989 C 190.028 -2.62012 3.53606 0
M  V30 1990 H 187.147 -0.315715 0.665953 0
M  V30 1991 H 189.789 -0.138004 1.89498 0
M  V30 1992 H 187.939 -2.28159 3.14445 0
M  V30 1993 H 189.611 -0.123143 4.61136 0
M  V30 1994 H 187.854 -0.0464067 4.33775 0
M  V30 1995 H 188.525 -1.32122 5.35955 0
M  V30 1996 H 191.001 -2.09525 3.59497 0
M  V30 1997 H 189.877 -3.13861 4.50314 0
M  V30 1998 H 190.138 -3.42902 2.79053 0
M  V30 1999 N 189.197 -1.51736 -0.425897 0
M  V30 2000 C 190.144 -1.73875 -1.51776 0
M  V30 2001 C 191.114 -0.580702 -1.55618 0
M  V30 2002 O 192.299 -0.81641 -1.72451 0
M  V30 2003 C 189.439 -1.88012 -2.89388 0
M  V30 2004 C 188.552 -3.15606 -2.94986 0
M  V30 2005 C 187.687 -3.20271 -4.23793 0
M  V30 2006 C 186.726 -4.42134 -4.23302 0
M  V30 2007 N 185.863 -4.44284 -5.43651 0
M  V30 2008 H 190.703 -2.67071 -1.32201 0
M  V30 2009 H 188.24 -1.32351 -0.642008 0
M  V30 2010 H 190.198 -1.9419 -3.69251 0
M  V30 2011 H 188.828 -0.98213 -3.07496 0
M  V30 2012 H 187.88 -3.18681 -2.07717 0
M  V30 2013 H 189.192 -4.05486 -2.90486 0
M  V30 2014 H 188.346 -3.25428 -5.12036 0
M  V30 2015 H 187.085 -2.28299 -4.30965 0
M  V30 2016 H 186.09 -4.3714 -3.3345 0
M  V30 2017 H 187.315 -5.35382 -4.17783 0
M  V30 2018 H 185.261 -3.55188 -5.51523 0
M  V30 2019 H 185.178 -5.27988 -5.41078 0
M  V30 2020 H 186.446 -4.53649 -6.33895 0
M  V30 2021 N 190.675 0.682077 -1.42076 0
M  V30 2022 C 191.9 1.47558 -1.45744 0
M  V30 2023 C 192.325 1.87977 -0.0680981 0
M  V30 2024 O 191.683 1.55522 0.9318 0
M  V30 2025 C 191.731 2.70575 -2.38373 0
M  V30 2026 O 190.835 3.68573 -1.85007 0
M  V30 2027 H 190.176 0.443585 -0.494093 0
M  V30 2028 H 192.706 0.837238 -1.86686 0
M  V30 2029 H 192.716 3.18729 -2.54707 0
M  V30 2030 H 191.391 2.40495 -3.39315 0
M  V30 2031 H 189.968 3.2757 -1.78192 0
M  V30 2032 N 192.153 1.28127 0.917671 0
M  V30 2033 C 193.116 1.11744 2.00115 0
M  V30 2034 C 194.116 0.0583052 1.60694 0
M  V30 2035 O 195.306 0.303755 1.71531 0
M  V30 2036 C 192.438 0.704862 3.33533 0
M  V30 2037 H 193.631 2.07966 2.16079 0
M  V30 2038 H 191.184 1.11058 1.09981 0
M  V30 2039 H 191.919 -0.258299 3.2327 0
M  V30 2040 H 191.704 1.4699 3.63505 0
M  V30 2041 H 193.194 0.612768 4.1308 0
M  V30 2042 N 193.631 -1.12557 1.10312 0
M  V30 2043 C 194.859 -1.87864 0.866873 0
M  V30 2044 C 195.274 -1.79588 -0.582557 0
M  V30 2045 O 194.631 -1.16887 -1.40156 0
M  V30 2046 C 194.682 -3.37125 1.30496 0
M  V30 2047 O 194.403 -3.45201 2.69755 0
M  V30 2048 C 195.904 -4.29373 1.10243 0
M  V30 2049 H 193.124 -0.594452 0.311236 0
M  V30 2050 H 195.668 -1.42429 1.46745 0
M  V30 2051 H 193.823 -3.80109 0.748081 0
M  V30 2052 H 194.237 -4.38056 2.88457 0
M  V30 2053 H 195.711 -5.32394 1.45811 0
M  V30 2054 H 196.188 -4.39181 0.0409492 0
M  V30 2055 H 196.794 -3.92169 1.64571 0
M  V30 2056 N 195.109 -0.891671 -1.2995 0
M  V30 2057 C 196.334 -0.527932 -2.00568 0
M  V30 2058 C 196.759 0.877969 -1.66353 0
M  V30 2059 O 196.117 1.58301 -0.883762 0
M  V30 2060 C 196.165 -0.717745 -3.53385 0
M  V30 2061 O 195.269 0.233376 -4.11739 0
M  V30 2062 H 194.61 -0.20722 -0.630837 0
M  V30 2063 H 197.14 -1.20105 -1.65638 0
M  V30 2064 H 197.15 -0.619307 -4.03272 0
M  V30 2065 H 195.825 -1.74276 -3.77625 0
M  V30 2066 H 194.402 0.0880706 -3.72796 0
M  V30 2067 N 196.587 1.43421 -0.653314 0
M  V30 2068 C 197.815 2.06163 -0.174491 0
M  V30 2069 C 198.23 1.48969 1.1599 0
M  V30 2070 O 197.587 0.621042 1.71608 0
M  V30 2071 C 197.638 3.61417 -0.0774865 0
M  V30 2072 O 197.359 4.16485 -1.35912 0
M  V30 2073 C 198.86 4.41235 0.427402 0
M  V30 2074 H 196.08 0.664946 -0.0899353 0
M  V30 2075 H 198.624 1.83924 -0.893988 0
M  V30 2076 H 196.779 3.82841 0.59257 0
M  V30 2077 H 197.193 5.10153 -1.21839 0
M  V30 2078 H 198.667 5.5021 0.44423 0
M  V30 2079 H 199.144 4.14268 1.45873 0
M  V30 2080 H 199.75 4.2478 -0.210167 0
M  V30 2081 N 198.065 0.39524 1.52563 0
M  V30 2082 C 199.314 -0.186321 2.00838 0
M  V30 2083 C 199.627 -1.47402 1.28577 0
M  V30 2084 O 200.833 -2.13599 1.67593 0
M  V30 2085 C 199.289 -0.382595 3.57861 0
M  V30 2086 C 198.897 0.892202 4.39026 0
M  V30 2087 C 200.641 -0.9202 4.14406 0
M  V30 2088 C 198.548 0.66388 5.87662 0
M  V30 2089 H 197.478 -0.0734041 0.750418 0
M  V30 2090 H 200.129 0.518552 1.76021 0
M  V30 2091 H 198.511 -1.14946 3.7895 0
M  V30 2092 H 199.685 1.66414 4.29701 0
M  V30 2093 H 198 1.35519 3.9373 0
M  V30 2094 H 200.597 -1.10683 5.23119 0
M  V30 2095 H 200.94 -1.89096 3.70875 0
M  V30 2096 H 201.473 -0.212751 3.97231 0
M  V30 2097 H 198.212 1.6058 6.35527 0
M  V30 2098 H 197.732 -0.0690193 5.9976 0
M  V30 2099 H 199.411 0.300699 6.46301 0
M  V30 2100 N 199.544 -1.57102 0.125237 0
M  V30 2101 C 200.454 -2.19191 -0.8362 0
M  V30 2102 C 201.47 -1.16985 -1.28805 0
M  V30 2103 O 202.646 -1.49479 -1.34974 0
M  V30 2104 C 199.711 -2.78407 -2.06617 0
M  V30 2105 C 198.772 -3.9567 -1.66565 0
M  V30 2106 C 198.005 -4.52052 -2.83698 0
M  V30 2107 O 198.228 -4.07326 -3.99302 0
M  V30 2108 O 197.162 -5.42645 -2.60423 0
M  V30 2109 H 200.988 -3.01816 -0.337776 0
M  V30 2110 H 198.573 -1.4906 -0.100695 0
M  V30 2111 H 200.455 -3.16129 -2.7864 0
M  V30 2112 H 199.13 -1.9881 -2.55453 0
M  V30 2113 H 198.037 -3.62705 -0.916296 0
M  V30 2114 H 199.37 -4.76722 -1.22464 0
M  V30 2115 N 201.022 0.148545 -1.56898 0
M  V30 2116 C 201.972 1.1886 -1.94567 0
M  V30 2117 C 202.956 1.3863 -0.816735 0
M  V30 2118 O 204.148 1.40218 -1.08018 0
M  V30 2119 C 201.277 2.52262 -2.32849 0
M  V30 2120 C 200.363 2.36092 -3.52309 0
M  V30 2121 N 200.754 1.89674 -4.6889 0
M  V30 2122 C 199.052 2.66848 -3.57363 0
M  V30 2123 C 199.753 1.86511 -5.50989 0
M  V30 2124 N 198.729 2.29766 -4.92655 0
M  V30 2125 H 202.531 0.821793 -2.82177 0
M  V30 2126 H 200.045 0.356615 -1.58436 0
M  V30 2127 H 202.042 3.27447 -2.58039 0
M  V30 2128 H 200.702 2.89727 -1.46589 0
M  V30 2129 H 201.713 1.59663 -4.92674 0
M  V30 2130 H 198.39 3.08198 -2.81639 0
M  V30 2131 H 199.78 1.52128 -6.54452 0
M  V30 2132 N 202.5 1.5196 0.417844 0
M  V30 2133 C 203.746 1.65836 1.16732 0
M  V30 2134 C 204.079 0.382881 1.90388 0
M  V30 2135 O 203.354 -0.618368 1.84408 0
M  V30 2136 C 203.637 2.87466 2.16876 0
M  V30 2137 C 203.49 4.25041 1.47174 0
M  V30 2138 C 204.809 3.04613 3.17646 0
M  V30 2139 H 201.928 0.603515 0.423011 0
M  V30 2140 H 204.57 1.84494 0.454105 0
M  V30 2141 H 202.72 2.71689 2.777 0
M  V30 2142 H 204.392 4.52527 0.895376 0
M  V30 2143 H 202.635 4.26843 0.773806 0
M  V30 2144 H 203.306 5.06176 2.20204 0
M  V30 2145 H 205.782 3.1923 2.66892 0
M  V30 2146 H 204.658 3.91247 3.8499 0
M  V30 2147 H 204.919 2.17541 3.84874 0
M  V30 2148 N 203.978 -0.674533 1.42435 0
M  V30 2149 C 204.888 -1.81751 1.48337 0
M  V30 2150 C 205.904 -1.69975 0.372099 0
M  V30 2151 O 207.08 -1.91521 0.62304 0
M  V30 2152 C 204.145 -3.17895 1.38361 0
M  V30 2153 C 203.206 -3.41625 2.59982 0
M  V30 2154 C 202.439 -4.71274 2.50473 0
M  V30 2155 O 202.662 -5.49197 1.54075 0
M  V30 2156 O 201.596 -4.96254 3.4061 0
M  V30 2157 H 205.422 -1.79728 2.44809 0
M  V30 2158 H 203.007 -0.830312 1.24202 0
M  V30 2159 H 204.889 -3.99136 1.35161 0
M  V30 2160 H 203.564 -3.20555 0.450144 0
M  V30 2161 H 202.471 -2.60231 2.68757 0
M  V30 2162 H 203.804 -3.43796 3.52229 0
M  V30 2163 N 205.456 -1.28612 -0.910864 0
M  V30 2164 C 206.681 -1.1891 -1.69927 0
M  V30 2165 C 207.106 0.248372 -1.86453 0
M  V30 2166 O 206.464 1.17961 -1.37676 0
M  V30 2167 C 206.512 -1.89578 -3.06745 0
M  V30 2168 O 205.616 -1.20521 -3.94396 0
M  V30 2169 H 204.957 -0.412632 -0.520222 0
M  V30 2170 H 207.487 -1.69985 -1.1387 0
M  V30 2171 H 207.497 -1.97597 -3.56958 0
M  V30 2172 H 206.172 -2.94136 -2.94035 0
M  V30 2173 H 204.749 -1.20684 -3.52831 0
M  V30 2174 N 206.934 1.1197 -1.10907 0
M  V30 2175 C 208.18 1.8386 -0.855773 0
M  V30 2176 C 208.513 1.84134 0.617103 0
M  V30 2177 O 207.788 1.29041 1.45529 0
M  V30 2178 C 208.071 3.31305 -1.411 0
M  V30 2179 C 207.924 3.39456 -2.9511 0
M  V30 2180 C 209.243 4.2721 -1.05736 0
M  V30 2181 H 206.362 0.667545 -0.312334 0
M  V30 2182 H 209.004 1.31331 -1.37303 0
M  V30 2183 H 207.154 3.76169 -0.97105 0
M  V30 2184 H 208.826 3.03191 -3.47668 0
M  V30 2185 H 207.069 2.79849 -3.31462 0
M  V30 2186 H 207.74 4.43209 -3.29044 0
M  V30 2187 H 210.216 3.90497 -1.43706 0
M  V30 2188 H 209.092 5.28775 -1.47269 0
M  V30 2189 H 209.353 4.42088 0.0325958 0
M  V30 2190 N 208.412 0.89855 1.29475 0
M  V30 2191 C 209.322 0.379974 2.31502 0
M  V30 2192 C 210.338 -0.524695 1.659 0
M  V30 2193 O 211.514 -0.414551 1.97087 0
M  V30 2194 C 208.579 -0.385138 3.44554 0
M  V30 2195 C 207.64 0.550914 4.2575 0
M  V30 2196 C 206.873 -0.177778 5.33404 0
M  V30 2197 O 207.096 -1.40189 5.52904 0
M  V30 2198 O 206.03 0.479106 5.9999 0
M  V30 2199 H 209.856 1.22639 2.77837 0
M  V30 2200 H 207.441 0.662834 1.33891 0
M  V30 2201 H 209.323 -0.817841 4.13388 0
M  V30 2202 H 207.998 -1.20763 3.0033 0
M  V30 2203 H 206.905 1.03271 3.59564 0
M  V30 2204 H 208.238 1.33979 4.73614 0
M  V30 2205 N 209.89 -1.43072 0.660911 0
M  V30 2206 C 211.301 -1.84932 0.256348 0
M  V30 2207 C 211.652 -1.55325 -1.19868 0
M  V30 2208 O 210.777 -1.00607 -1.91591 0
M  V30 2209 C 211.372 -3.35684 0.458475 0
M  V30 2210 C 209.931 -3.76245 0.108161 0
M  V30 2211 C 209.078 -2.66749 0.757641 0
M  V30 2212 H 212.029 -1.33116 0.864051 0
M  V30 2213 H 212.05 -3.79365 -0.293683 0
M  V30 2214 H 211.562 -3.572 1.51755 0
M  V30 2215 H 209.663 -3.60338 -0.948014 0
M  V30 2216 H 209.776 -4.76058 0.538992 0
M  V30 2217 H 208.14 -2.53989 0.190185 0
M  V30 2218 H 208.923 -2.91092 1.81989 0
M  V30 2219 N 211.368 -0.403325 -1.52352 0
M  V30 2220 C 212.598 0.17376 -2.05868 0
M  V30 2221 C 213.006 1.39898 -1.27378 0
M  V30 2222 O 212.349 1.80939 -0.31729 0
M  V30 2223 C 212.411 0.594756 -3.54546 0
M  V30 2224 C 212.075 -0.518926 -4.54044 0
M  V30 2225 C 213.072 -1.3807 -5.01231 0
M  V30 2226 C 210.757 -0.689961 -4.97539 0
M  V30 2227 C 212.751 -2.39852 -5.90551 0
M  V30 2228 C 210.438 -1.71109 -5.86656 0
M  V30 2229 C 211.436 -2.56378 -6.33056 0
M  V30 2230 O 211.124 -3.56743 -7.20409 0
M  V30 2231 H 210.856 0.0264951 -0.675481 0
M  V30 2232 H 213.41 -0.571179 -1.97299 0
M  V30 2233 H 211.64 1.39189 -3.60782 0
M  V30 2234 H 213.329 1.0991 -3.90736 0
M  V30 2235 H 214.095 -1.25994 -4.68349 0
M  V30 2236 H 209.974 -0.035939 -4.60986 0
M  V30 2237 H 213.518 -3.06441 -6.26689 0
M  V30 2238 H 209.415 -1.83218 -6.18952 0
M  V30 2239 H 210.183 -3.52918 -7.38506 0
M  V30 2240 N 212.846 1.57033 -0.133567 0
M  V30 2241 C 213.776 2.1909 0.807567 0
M  V30 2242 C 214.757 1.13517 1.26681 0
M  V30 2243 O 215.942 1.41809 1.32679 0
M  V30 2244 C 213.072 2.80188 2.05212 0
M  V30 2245 C 212.026 3.91471 1.73015 0
M  V30 2246 C 211.352 4.39443 3.04622 0
M  V30 2247 C 212.652 5.12886 0.987168 0
M  V30 2248 H 214.346 2.97988 0.290403 0
M  V30 2249 H 211.892 1.43335 0.138239 0
M  V30 2250 H 213.845 3.22264 2.71521 0
M  V30 2251 H 212.569 1.98601 2.59278 0
M  V30 2252 H 211.228 3.49993 1.0909 0
M  V30 2253 H 210.876 3.54695 3.56651 0
M  V30 2254 H 210.576 5.14495 2.83847 0
M  V30 2255 H 212.1 4.8418 3.72024 0
M  V30 2256 H 213.514 5.51891 1.55208 0
M  V30 2257 H 211.911 5.93615 0.87985 0
M  V30 2258 H 212.981 4.84894 -0.0235286 0
M  V30 2259 N 214.325 -0.140222 1.56975 0
M  V30 2260 C 215.736 -0.699596 1.73097 0
M  V30 2261 C 216.087 -1.8134 0.749022 0
M  V30 2262 O 215.212 -2.16241 -0.0828503 0
M  V30 2263 C 215.807 -1.27582 3.1386 0
M  V30 2264 C 214.366 -1.78169 3.31561 0
M  V30 2265 C 213.513 -0.672855 2.69013 0
M  V30 2266 H 216.464 0.0855115 1.58469 0
M  V30 2267 H 216.485 -2.14561 3.14235 0
M  V30 2268 H 215.997 -0.464955 3.85305 0
M  V30 2269 H 214.098 -2.61801 2.65124 0
M  V30 2270 H 214.211 -1.90574 4.39566 0
M  V30 2271 H 212.575 -1.10118 2.29665 0
M  V30 2272 H 213.358 0.126679 3.43066 0
M  V30 2273 N 215.803 -1.52179 -0.40978 0
M  V30 2274 C 217.052 -1.65434 -1.15388 0
M  V30 2275 C 217.365 -0.390056 -1.91671 0
M  V30 2276 O 218.571 -0.402399 -2.68501 0
M  V30 2277 C 217.027 -2.92279 -2.10003 0
M  V30 2278 C 216.635 -4.25813 -1.39239 0
M  V30 2279 C 218.379 -3.14897 -2.84675 0
M  V30 2280 C 216.286 -5.43782 -2.32498 0
M  V30 2281 H 215.216 -0.616267 -0.434432 0
M  V30 2282 H 217.867 -1.78666 -0.418401 0
M  V30 2283 H 216.249 -2.72744 -2.871 0
M  V30 2284 H 217.423 -4.55828 -0.675099 0
M  V30 2285 H 215.738 -4.09292 -0.766097 0
M  V30 2286 H 218.335 -4.0021 -3.54593 0
M  V30 2287 H 218.678 -2.29103 -3.47588 0
M  V30 2288 H 219.211 -3.34901 -2.14677 0
M  V30 2289 H 215.95 -6.3192 -1.74233 0
M  V30 2290 H 215.47 -5.18106 -3.02201 0
M  V30 2291 H 217.149 -5.76834 -2.93038 0
M  V30 2292 N 217.281 0.66697 -1.42791 0
M  V30 2293 C 218.511 1.45294 -1.46878 0
M  V30 2294 C 218.919 1.89027 -0.0809861 0
M  V30 2295 O 218.262 1.59219 0.916246 0
M  V30 2296 C 218.324 2.72908 -2.34012 0
M  V30 2297 C 217.988 2.51203 -3.81767 0
M  V30 2298 C 218.985 2.15302 -4.73224 0
M  V30 2299 C 216.67 2.65954 -4.26115 0
M  V30 2300 C 218.664 1.94431 -6.07022 0
M  V30 2301 C 216.351 2.44699 -5.59969 0
M  V30 2302 C 217.349 2.08992 -6.5024 0
M  V30 2303 O 217.037 1.87948 -7.81621 0
M  V30 2304 H 216.769 0.453306 -0.501487 0
M  V30 2305 H 219.323 0.826232 -1.88049 0
M  V30 2306 H 217.553 3.38089 -1.87703 0
M  V30 2307 H 219.242 3.34816 -2.29462 0
M  V30 2308 H 220.008 2.03495 -4.40244 0
M  V30 2309 H 215.887 2.92724 -3.56137 0
M  V30 2310 H 219.431 1.66484 -6.77443 0
M  V30 2311 H 215.328 2.56105 -5.9252 0
M  V30 2312 H 216.096 2.02483 -7.93059 0
M  V30 2313 N 218.759 1.29093 0.90403 0
M  V30 2314 C 220.175 1.07011 1.1841 0
M  V30 2315 C 220.375 -0.181358 2.00682 0
M  V30 2316 O 219.431 -0.880331 2.36657 0
M  V30 2317 C 220.744 2.32311 1.90924 0
M  V30 2318 C 222.292 2.37587 2.03768 0
M  V30 2319 C 222.767 3.62679 2.79693 0
M  V30 2320 N 224.258 3.63376 2.87249 0
M  V30 2321 C 224.993 4.56848 3.46522 0
M  V30 2322 N 224.489 5.60648 4.06996 0
M  V30 2323 N 226.282 4.44426 3.44154 0
M  V30 2324 H 218.433 2.09412 0.354993 0
M  V30 2325 H 220.696 0.922181 0.219742 0
M  V30 2326 H 220.402 3.23536 1.37905 0
M  V30 2327 H 220.276 2.39483 2.91424 0
M  V30 2328 H 222.663 1.46853 2.55965 0
M  V30 2329 H 222.744 2.34403 1.02415 0
M  V30 2330 H 222.388 4.53762 2.28173 0
M  V30 2331 H 222.318 3.63119 3.81381 0
M  V30 2332 H 224.809 2.88321 2.44293 0
M  V30 2333 H 225.122 6.28101 4.50232 0
M  V30 2334 H 223.467 5.64463 4.05471 0
M  V30 2335 H 226.658 3.62529 2.96126 0
M  V30 2336 H 226.831 5.17457 3.90054 0
M  V30 2337 N 220.237 -1.11381 1.11499 0
M  V30 2338 C 221.486 -1.82494 0.858993 0
M  V30 2339 C 221.799 -1.85605 -0.617278 0
M  V30 2340 O 223.005 -2.52824 -0.989552 0
M  V30 2341 C 221.461 -3.27745 1.48699 0
M  V30 2342 C 221.069 -3.32961 2.99735 0
M  V30 2343 C 222.813 -4.03754 1.31085 0
M  V30 2344 C 220.72 -4.72612 3.55516 0
M  V30 2345 H 219.65 -0.683802 0.317696 0
M  V30 2346 H 222.301 -1.25331 1.34031 0
M  V30 2347 H 220.683 -3.84844 0.933339 0
M  V30 2348 H 221.857 -2.85741 3.61509 0
M  V30 2349 H 220.172 -2.70433 3.16631 0
M  V30 2350 H 222.769 -5.06891 1.70192 0
M  V30 2351 H 223.112 -4.15527 0.253496 0
M  V30 2352 H 223.645 -3.53043 1.83318 0
M  V30 2353 H 220.384 -4.66036 4.60967 0
M  V30 2354 H 219.904 -5.2024 2.98513 0
M  V30 2355 H 221.583 -5.4157 3.53992 0
M  V30 2356 N 221.715 -0.905404 -1.28997 0
M  V30 2357 C 222.992 -0.453513 -1.9027 0
M  V30 2358 C 223.372 1.06721 -1.82137 0
M  V30 2359 O 222.72 1.91159 -1.25182 0
M  V30 2360 C 222.93 -0.974494 -3.35119 0
M  V30 2361 C 224.278 -1.0216 -4.12127 0
M  V30 2362 O 225.302 -0.922557 -3.44046 0
M  V30 2363 O 224.161 -1.17121 -5.33802 0
M  V30 2364 H 221.255 -0.142347 -0.814657 0
M  V30 2365 H 223.801 -0.995642 -1.37423 0
M  V30 2366 H 222.573 -2.01848 -3.35221 0
M  V30 2367 H 222.196 -0.412706 -3.95452 0
M  V30 2368 N 223.193 1.4272 -0.668489 0
M  V30 2369 C 224.604 1.84793 -0.266151 0
M  V30 2370 C 224.955 1.55959 1.19043 0
M  V30 2371 O 224.08 1.01622 1.91055 0
M  V30 2372 C 224.675 3.35436 -0.476271 0
M  V30 2373 C 223.234 3.76182 -0.128113 0
M  V30 2374 C 222.381 2.66344 -0.771777 0
M  V30 2375 H 225.332 1.32656 -0.871098 0
M  V30 2376 H 225.353 3.79515 0.273561 0
M  V30 2377 H 224.865 3.5639 -1.53647 0
M  V30 2378 H 222.966 3.60836 0.928891 0
M  V30 2379 H 223.079 4.75766 -0.564231 0
M  V30 2380 H 221.443 2.53885 -0.203652 0
M  V30 2381 H 222.226 2.90123 -1.83531 0
M  V30 2382 N 224.671 0.411399 1.52136 0
M  V30 2383 C 225.603 -0.448386 2.24771 0
M  V30 2384 C 226.616 -1.00828 1.27818 0
M  V30 2385 O 227.805 -0.906841 1.53749 0
M  V30 2386 C 224.905 -1.63636 2.96777 0
M  V30 2387 C 224.078 -1.19995 4.20618 0
M  V30 2388 C 223.137 -2.25509 4.75428 0
M  V30 2389 O 222.163 -1.86007 5.3795 0
M  V30 2390 N 223.365 -3.577 4.57199 0
M  V30 2391 H 226.13 0.174025 2.99194 0
M  V30 2392 H 223.691 0.238897 1.60128 0
M  V30 2393 H 225.683 -2.33793 3.30338 0
M  V30 2394 H 224.253 -2.16465 2.25526 0
M  V30 2395 H 223.473 -0.326421 3.92846 0
M  V30 2396 H 224.761 -0.885365 5.01038 0
M  V30 2397 H 224.159 -3.92543 4.07341 0
M  V30 2398 H 222.716 -4.23827 4.95191 0
M  V30 2399 N 226.149 -1.5696 0.141893 0
M  V30 2400 C 227.079 -2.19516 -0.795936 0
M  V30 2401 C 228.06 -1.14187 -1.26077 0
M  V30 2402 O 229.245 -1.42511 -1.31925 0
M  V30 2403 C 226.375 -2.81272 -2.03723 0
M  V30 2404 C 225.329 -3.92384 -1.70936 0
M  V30 2405 C 224.655 -4.41052 -3.02287 0
M  V30 2406 C 225.955 -5.13403 -0.959954 0
M  V30 2407 H 227.649 -2.98138 -0.274596 0
M  V30 2408 H 225.195 -1.43406 -0.130636 0
M  V30 2409 H 227.148 -3.237 -2.69808 0
M  V30 2410 H 225.872 -1.99973 -2.58221 0
M  V30 2411 H 224.531 -3.50566 -1.07232 0
M  V30 2412 H 224.179 -3.56582 -3.54765 0
M  V30 2413 H 223.879 -5.15993 -2.81114 0
M  V30 2414 H 225.403 -4.86146 -3.69451 0
M  V30 2415 H 226.817 -5.52706 -1.52279 0
M  V30 2416 H 225.214 -5.94073 -0.848357 0
M  V30 2417 H 226.284 -4.84875 0.0492434 0
M  V30 2418 N 227.627 0.131896 -1.57047 0
M  V30 2419 C 228.874 0.841932 -1.84168 0
M  V30 2420 C 229.202 1.8048 -0.725066 0
M  V30 2421 O 228.457 1.93618 0.284692 0
M  V30 2422 C 228.756 1.63703 -3.17704 0
M  V30 2423 C 228.422 0.81961 -4.43388 0
M  V30 2424 C 227.084 0.594148 -4.77518 0
M  V30 2425 C 229.436 0.248977 -5.20605 0
M  V30 2426 C 226.764 -0.212409 -5.86315 0
M  V30 2427 C 229.116 -0.544701 -6.30251 0
M  V30 2428 C 227.78 -0.780599 -6.6292 0
M  V30 2429 H 227.05 0.308085 -0.673917 0
M  V30 2430 H 229.697 0.104867 -1.91213 0
M  V30 2431 H 228.002 2.44464 -3.06177 0
M  V30 2432 H 229.699 2.19015 -3.35907 0
M  V30 2433 H 226.289 1.00542 -4.16641 0
M  V30 2434 H 230.473 0.410408 -4.946 0
M  V30 2435 H 225.729 -0.404524 -6.1006 0
M  V30 2436 H 229.903 -0.993922 -6.89271 0
M  V30 2437 H 227.53 -1.40742 -7.47058 0
M  V30 2438 N 229.106 1.52395 0.401703 0
M  V30 2439 C 230.334 1.70676 1.16949 0
M  V30 2440 C 230.749 0.419503 1.8408 0
M  V30 2441 O 230.106 -0.605061 1.72178 0
M  V30 2442 C 230.157 2.84753 2.22706 0
M  V30 2443 O 229.878 4.08495 1.58314 0
M  V30 2444 C 231.379 3.14608 3.12309 0
M  V30 2445 H 228.599 0.571787 0.351142 0
M  V30 2446 H 231.143 1.98987 0.471652 0
M  V30 2447 H 229.298 2.58941 2.88147 0
M  V30 2448 H 229.712 4.72117 2.28485 0
M  V30 2449 H 231.186 3.97923 3.82572 0
M  V30 2450 H 231.663 2.28464 3.75101 0
M  V30 2451 H 232.269 3.42212 2.52529 0
M  V30 2452 N 230.584 -0.659388 1.43143 0
M  V30 2453 C 231.531 -1.77249 1.47822 0
M  V30 2454 C 232.501 -1.62818 0.328558 0
M  V30 2455 O 233.686 -1.83151 0.534838 0
M  V30 2456 C 230.826 -3.15371 1.40126 0
M  V30 2457 C 229.939 -3.4098 2.65249 0
M  V30 2458 C 229.074 -4.68915 2.49584 0
M  V30 2459 C 228.113 -4.87608 3.70006 0
M  V30 2460 N 227.25 -6.06796 3.53189 0
M  V30 2461 H 232.09 -1.72584 2.42938 0
M  V30 2462 H 229.627 -0.842297 1.20598 0
M  V30 2463 H 231.585 -3.9521 1.33659 0
M  V30 2464 H 230.215 -3.19121 0.485964 0
M  V30 2465 H 229.267 -2.55282 2.8202 0
M  V30 2466 H 230.579 -3.50681 3.54717 0
M  V30 2467 H 229.733 -5.56871 2.4079 0
M  V30 2468 H 228.472 -4.61524 1.5763 0
M  V30 2469 H 227.477 -3.9809 3.79215 0
M  V30 2470 H 228.702 -4.96834 4.62961 0
M  V30 2471 H 226.648 -6.00549 2.63965 0
M  V30 2472 H 226.565 -6.17428 4.36255 0
M  V30 2473 H 227.833 -6.9739 3.48236 0
M  V30 2474 N 232.062 -1.29571 -0.897171 0
M  V30 2475 C 233.31 -1.17456 -1.64464 0
M  V30 2476 C 233.631 0.273698 -1.9307 0
M  V30 2477 O 232.901 1.18684 -1.55855 0
M  V30 2478 H 231.481 -0.431706 -0.609622 0
M  V30 2479 H 234.143 -1.62531 -1.07562 0
M  V30 2480 H 233.239 -1.72648 -2.59998 0
M  V30 2481 N 233.54 1.10788 -1.12088 0
M  V30 2482 C 234.503 2.15207 -0.788577 0
M  V30 2483 C 235.503 1.59609 0.195317 0
M  V30 2484 O 236.693 1.74174 -0.0300193 0
M  V30 2485 C 233.825 3.4047 -0.171174 0
M  V30 2486 H 235.018 2.46116 -1.71368 0
M  V30 2487 H 232.571 1.26089 -0.923652 0
M  V30 2488 H 233.306 3.15176 0.763832 0
M  V30 2489 H 233.091 3.82109 -0.879514 0
M  V30 2490 H 234.581 4.17576 0.04496 0
M  V30 2491 N 235.018 0.912232 1.28515 0
M  V30 2492 C 236.243 0.559774 1.99703 0
M  V30 2493 C 236.668 -0.851393 1.67729 0
M  V30 2494 O 236.026 -1.56875 0.908834 0
M  V30 2495 C 236.074 0.773874 3.52198 0
M  V30 2496 O 235.178 -0.167842 4.12058 0
M  V30 2497 H 234.519 0.21723 0.627461 0
M  V30 2498 H 237.049 1.22725 1.63706 0
M  V30 2499 H 237.059 0.683386 4.02236 0
M  V30 2500 H 235.734 1.80261 3.74805 0
M  V30 2501 H 234.311 -0.0287509 3.72889 0
M  V30 2502 N 236.496 -1.42363 0.676048 0
M  V30 2503 C 237.406 -2.346 -0.00153389 0
M  V30 2504 C 238.422 -1.5516 -0.787485 0
M  V30 2505 O 239.598 -1.87723 -0.729521 0
M  V30 2506 C 236.663 -3.33705 -0.940298 0
M  V30 2507 C 235.724 -4.29042 -0.148739 0
M  V30 2508 C 234.957 -5.23413 -1.04279 0
M  V30 2509 O 235.18 -5.22749 -2.28232 0
M  V30 2510 O 234.114 -5.99795 -0.502925 0
M  V30 2511 H 237.94 -2.94082 0.758268 0
M  V30 2512 H 235.525 -1.42888 0.436289 0
M  V30 2513 H 237.407 -3.94586 -1.47917 0
M  V30 2514 H 236.082 -2.76695 -1.67993 0
M  V30 2515 H 234.989 -3.71571 0.43427 0
M  V30 2516 H 236.322 -4.89097 0.551805 0
M  V30 2517 N 237.974 -0.419461 -1.51915 0
M  V30 2518 C 238.904 0.391813 -2.30189 0
M  V30 2519 C 239.885 1.03699 -1.34836 0
M  V30 2520 O 241.07 1.04403 -1.63748 0
M  V30 2521 C 238.2 1.50312 -3.13087 0
M  V30 2522 C 237.154 0.9824 -4.16573 0
M  V30 2523 C 236.48 2.18809 -4.8788 0
M  V30 2524 C 237.78 0.0292356 -5.22292 0
M  V30 2525 H 239.474 -0.26135 -2.98257 0
M  V30 2526 H 237.02 -0.127134 -1.43438 0
M  V30 2527 H 238.973 2.07773 -3.66617 0
M  V30 2528 H 237.697 2.18431 -2.42807 0
M  V30 2529 H 236.356 0.430119 -3.64068 0
M  V30 2530 H 236.004 2.85507 -4.14119 0
M  V30 2531 H 235.704 1.84615 -5.57845 0
M  V30 2532 H 237.228 2.76858 -5.44226 0
M  V30 2533 H 238.642 0.512976 -5.71 0
M  V30 2534 H 237.039 -0.2244 -5.9968 0
M  V30 2535 H 238.109 -0.912931 -4.76228 0
M  V30 2536 N 239.452 1.56882 -0.150215 0
M  V30 2537 C 240.698 1.96518 0.500834 0
M  V30 2538 C 241.031 1.03527 1.64304 0
M  V30 2539 O 240.306 0.0782751 1.94342 0
M  V30 2540 C 240.589 3.45822 1.00395 0
M  V30 2541 C 240.442 4.49591 -0.136983 0
M  V30 2542 C 241.761 3.97704 1.88467 0
M  V30 2543 H 238.88 0.714535 0.18058 0
M  V30 2544 H 241.522 1.88577 -0.232091 0
M  V30 2545 H 239.672 3.5272 1.62851 0
M  V30 2546 H 241.344 4.5477 -0.77343 0
M  V30 2547 H 239.587 4.26441 -0.795652 0
M  V30 2548 H 240.258 5.51402 0.256815 0
M  V30 2549 H 242.734 3.93304 1.35834 0
M  V30 2550 H 241.61 5.0263 2.20578 0
M  V30 2551 H 241.871 3.40252 2.82279 0
M  V30 2552 N 240.93 -0.123565 1.57115 0
M  V30 2553 C 241.877 -1.15177 2.00007 0
M  V30 2554 C 242.847 -1.41403 0.871454 0
M  V30 2555 O 244.032 -1.53346 1.13533 0
M  V30 2556 C 241.172 -2.47436 2.40561 0
M  V30 2557 C 240.285 -2.28184 3.66819 0
M  V30 2558 C 239.42 -3.53641 3.96373 0
M  V30 2559 C 238.459 -3.29528 5.15827 0
M  V30 2560 N 237.596 -4.47175 5.41275 0
M  V30 2561 H 242.436 -0.779008 2.87638 0
M  V30 2562 H 239.973 -0.373166 1.42288 0
M  V30 2563 H 241.931 -3.24584 2.62109 0
M  V30 2564 H 240.561 -2.82614 1.55978 0
M  V30 2565 H 239.613 -1.41976 3.52912 0
M  V30 2566 H 240.925 -2.0634 4.5412 0
M  V30 2567 H 240.079 -4.39209 4.18545 0
M  V30 2568 H 238.818 -3.78512 3.07538 0
M  V30 2569 H 237.823 -2.42349 4.93505 0
M  V30 2570 H 239.048 -3.06031 6.06236 0
M  V30 2571 H 236.994 -4.72175 4.55397 0
M  V30 2572 H 236.911 -4.28419 6.22891 0
M  V30 2573 H 238.179 -5.3389 5.67963 0
M  V30 2574 N 242.408 -1.52605 -0.393616 0
M  V30 2575 C 243.371 -1.76415 -1.46323 0
M  V30 2576 C 244.371 -0.634126 -1.47768 0
M  V30 2577 O 245.561 -0.902142 -1.4902 0
M  V30 2578 C 242.693 -1.8607 -2.85641 0
M  V30 2579 H 243.886 -2.71916 -1.26498 0
M  V30 2580 H 241.439 -1.43257 -0.625073 0
M  V30 2581 H 242.174 -0.925378 -3.10817 0
M  V30 2582 H 241.959 -2.68235 -2.85993 0
M  V30 2583 H 243.449 -2.06179 -3.63153 0
M  V30 2584 N 243.887 0.651787 -1.4349 0
M  V30 2585 C 245.133 1.41376 -1.45398 0
M  V30 2586 C 245.466 1.94041 -0.0784823 0
M  V30 2587 O 244.741 1.72379 0.900878 0
M  V30 2588 C 245.024 2.59414 -2.49752 0
M  V30 2589 C 244.877 2.12232 -3.96582 0
M  V30 2590 C 246.196 3.61626 -2.50827 0
M  V30 2591 H 243.315 0.512719 -0.529422 0
M  V30 2592 H 245.957 0.738796 -1.75048 0
M  V30 2593 H 244.107 3.16997 -2.246 0
M  V30 2594 H 245.779 1.59639 -4.32797 0
M  V30 2595 H 244.022 1.43592 -4.09346 0
M  V30 2596 H 244.693 2.9712 -4.65214 0
M  V30 2597 H 247.169 3.13805 -2.7325 0
M  V30 2598 H 246.045 4.41766 -3.25783 0
M  V30 2599 H 246.306 4.14314 -1.5426 0
M  V30 2600 N 245.365 1.30045 0.890287 0
M  V30 2601 C 246.328 1.15963 1.977 0
M  V30 2602 C 247.328 0.0923777 1.60534 0
M  V30 2603 O 248.518 0.340071 1.70848 0
M  V30 2604 C 245.65 0.775451 3.31963 0
M  V30 2605 H 246.843 2.12502 2.11619 0
M  V30 2606 H 244.396 1.13366 1.07601 0
M  V30 2607 H 245.131 -0.189671 3.23745 0
M  V30 2608 H 244.916 1.54668 3.60306 0
M  V30 2609 H 246.406 0.700251 4.11687 0
M  V30 2610 N 246.843 -1.10192 1.12674 0
M  V30 2611 C 247.773 -2.18652 0.819362 0
M  V30 2612 C 248.754 -1.68698 -0.217915 0
M  V30 2613 O 249.939 -1.94041 -0.0785581 0
M  V30 2614 C 247.069 -3.46202 0.27594 0
M  V30 2615 C 246.023 -4.09444 1.24656 0
M  V30 2616 C 245.349 -5.31725 0.563258 0
M  V30 2617 C 246.649 -4.52863 2.60217 0
M  V30 2618 H 248.343 -2.44622 1.72628 0
M  V30 2619 H 245.889 -1.17571 0.831451 0
M  V30 2620 H 247.842 -4.21372 0.0486149 0
M  V30 2621 H 246.566 -3.1973 -0.666331 0
M  V30 2622 H 245.225 -3.36284 1.45974 0
M  V30 2623 H 244.873 -5.0153 -0.384235 0
M  V30 2624 H 244.573 -5.74991 1.21075 0
M  V30 2625 H 246.097 -6.09624 0.34503 0
M  V30 2626 H 247.511 -5.19294 2.42913 0
M  V30 2627 H 245.908 -5.06986 3.21068 0
M  V30 2628 H 246.978 -3.65656 3.18471 0
M  V30 2629 N 248.321 -0.919034 -1.28029 0
M  V30 2630 C 249.598 -0.473668 -1.89778 0
M  V30 2631 C 249.978 1.04783 -1.83259 0
M  V30 2632 O 249.326 1.8982 -1.27202 0
M  V30 2633 C 249.536 -1.00998 -3.34066 0
M  V30 2634 C 250.884 -1.06525 -4.1102 0
M  V30 2635 O 251.908 -0.958996 -3.43048 0
M  V30 2636 O 250.767 -1.22776 -5.3253 0
M  V30 2637 H 247.861 -0.15098 -0.813101 0
M  V30 2638 H 250.407 -1.01016 -1.36359 0
M  V30 2639 H 249.179 -2.05392 -3.33061 0
M  V30 2640 H 248.802 -0.454626 -3.94992 0
M  V30 2641 N 249.799 1.42003 -0.683588 0
M  V30 2642 C 251.027 2.05746 -0.218182 0
M  V30 2643 C 251.442 1.51396 1.12804 0
M  V30 2644 O 250.799 0.657303 1.70252 0
M  V30 2645 C 250.85 3.61171 -0.154131 0
M  V30 2646 O 250.571 4.13508 -1.44716 0
M  V30 2647 C 252.072 4.42042 0.333713 0
M  V30 2648 H 249.292 0.662888 -0.10402 0
M  V30 2649 H 251.836 1.81987 -0.9328 0
M  V30 2650 H 249.991 3.84012 0.511231 0
M  V30 2651 H 250.405 5.07453 -1.32632 0
M  V30 2652 H 251.879 5.51028 0.327423 0
M  V30 2653 H 252.356 4.17269 1.37053 0
M  V30 2654 H 252.962 4.24239 -0.300222 0
M  V30 2655 N 251.277 0.427512 1.51691 0
M  V30 2656 C 252.224 -0.388867 2.275 0
M  V30 2657 C 253.194 -1.02532 1.30677 0
M  V30 2658 O 254.379 -1.0461 1.59566 0
M  V30 2659 C 251.519 -1.48954 3.11298 0
M  V30 2660 C 250.632 -0.872194 4.23104 0
M  V30 2661 C 249.767 -1.94709 4.94228 0
M  V30 2662 C 248.806 -1.30766 5.97969 0
M  V30 2663 N 247.943 -2.32349 6.62539 0
M  V30 2664 H 252.783 0.263997 2.96828 0
M  V30 2665 H 250.32 0.142033 1.46413 0
M  V30 2666 H 252.278 -2.13887 3.58201 0
M  V30 2667 H 250.908 -2.11217 2.44105 0
M  V30 2668 H 249.96 -0.111419 3.80237 0
M  V30 2669 H 251.272 -0.365264 4.97461 0
M  V30 2670 H 250.426 -2.67327 5.44629 0
M  V30 2671 H 249.165 -2.48773 4.1948 0
M  V30 2672 H 248.17 -0.566902 5.4687 0
M  V30 2673 H 249.395 -0.774483 6.74669 0
M  V30 2674 H 247.341 -2.85511 5.90609 0
M  V30 2675 H 247.258 -1.8652 7.3263 0
M  V30 2676 H 248.526 -3.04481 7.17574 0
M  V30 2677 N 252.755 -1.56801 0.158532 0
M  V30 2678 C 253.687 -2.14488 -0.807923 0
M  V30 2679 C 254.7 -1.09721 -1.20271 0
M  V30 2680 O 255.889 -1.36956 -1.14478 0
M  V30 2681 C 252.989 -2.66217 -2.09718 0
M  V30 2682 C 252.162 -3.95507 -1.86796 0
M  V30 2683 C 251.221 -4.3243 -2.99818 0
M  V30 2684 O 250.247 -5.00543 -2.71008 0
M  V30 2685 N 251.449 -3.92947 -4.27285 0
M  V30 2686 H 254.214 -2.98042 -0.314816 0
M  V30 2687 H 251.775 -1.61881 -0.0246692 0
M  V30 2688 H 253.767 -2.87924 -2.84398 0
M  V30 2689 H 252.337 -1.87324 -2.50257 0
M  V30 2690 H 251.557 -3.82309 -0.96089 0
M  V30 2691 H 252.845 -4.79972 -1.68833 0
M  V30 2692 H 252.243 -3.38087 -4.53557 0
M  V30 2693 H 250.8 -4.19681 -4.9871 0
M  V30 2694 N 254.233 0.115231 -1.57178 0
M  V30 2695 C 255.18 1.14115 -2.00615 0
M  V30 2696 C 256.15 1.40939 -0.878941 0
M  V30 2697 O 257.335 1.52741 -1.14345 0
M  V30 2698 C 254.475 2.46156 -2.4187 0
M  V30 2699 C 253.588 2.26236 -3.68024 0
M  V30 2700 C 252.723 3.51534 -3.98243 0
M  V30 2701 C 251.762 3.26787 -5.17568 0
M  V30 2702 N 250.899 4.44298 -5.43639 0
M  V30 2703 H 255.739 0.763743 -2.88047 0
M  V30 2704 H 253.276 0.365615 -1.42484 0
M  V30 2705 H 255.234 3.23189 -2.63827 0
M  V30 2706 H 253.864 2.81783 -1.57475 0
M  V30 2707 H 252.916 1.40102 -3.5366 0
M  V30 2708 H 254.228 2.03929 -4.55208 0
M  V30 2709 H 253.382 4.36984 -4.20868 0
M  V30 2710 H 252.121 3.76876 -3.09541 0
M  V30 2711 H 251.126 2.39729 -4.94783 0
M  V30 2712 H 252.351 3.02812 -6.0785 0
M  V30 2713 H 250.297 4.69754 -4.57895 0
M  V30 2714 H 250.214 4.25109 -6.25154 0
M  V30 2715 H 251.482 5.3087 -5.70786 0
M  V30 2716 N 255.711 1.52812 0.385517 0
M  V30 2717 C 256.659 1.78482 1.49155 0
M  V30 2718 C 257.653 0.652914 1.56312 0
M  V30 2719 O 258.859 0.835464 1.59436 0
M  V30 2720 H 255.234 0.5648 0.496493 0
M  V30 2721 H 257.205 2.71095 1.24699 0
M  V30 2722 C 255.954 1.97378 2.86247 0
M  V30 2723 H 255.277 2.83907 2.81491 0
M  V30 2724 H 256.717 2.19327 3.62866 0
M  V30 2725 C 255.176 0.74728 3.28508 0
M  V30 2726 O 255.706 -0.0736232 4.01633 0
M  V30 2727 N 253.912 0.576396 2.84826 0
M  V30 2728 H 253.459 1.24555 2.25486 0
M  V30 2729 H 253.417 -0.24288 3.1346 0
M  V30 2730 N 257.189 -0.644168 1.43834 0
M  V30 2731 C 258.136 -1.75671 1.49694 0
M  V30 2732 C 259.106 -1.6246 0.345809 0
M  V30 2733 O 260.291 -1.82573 0.554234 0
M  V30 2734 C 257.431 -3.13867 1.43463 0
M  V30 2735 C 256.544 -3.38147 2.6885 0
M  V30 2736 C 255.679 -4.66241 2.54544 0
M  V30 2737 C 254.718 -4.83657 3.75157 0
M  V30 2738 N 253.855 -6.03016 3.59605 0
M  V30 2739 H 258.695 -1.69998 2.44754 0
M  V30 2740 H 256.232 -0.829458 1.21484 0
M  V30 2741 H 258.19 -3.9377 1.37843 0
M  V30 2742 H 256.82 -3.18588 0.519783 0
M  V30 2743 H 255.872 -2.52276 2.84712 0
M  V30 2744 H 257.184 -3.46899 3.58417 0
M  V30 2745 H 256.338 -5.54285 2.46683 0
M  V30 2746 H 255.077 -4.59826 1.62516 0
M  V30 2747 H 254.082 -3.94046 3.83416 0
M  V30 2748 H 255.307 -4.91896 4.68204 0
M  V30 2749 H 253.253 -5.97715 2.7032 0
M  V30 2750 H 253.17 -6.12766 4.42779 0
M  V30 2751 H 254.438 -6.93657 3.55613 0
M  V30 2752 N 258.668 -1.30515 -0.883378 0
M  V30 2753 C 259.578 -1.18959 -2.02203 0
M  V30 2754 C 260.594 -0.109172 -1.73657 0
M  V30 2755 O 261.77 -0.324413 -1.9877 0
M  V30 2756 C 258.835 -0.883871 -3.35244 0
M  V30 2757 C 257.896 -2.04982 -3.77201 0
M  V30 2758 C 257.129 -1.75859 -5.03894 0
M  V30 2759 O 257.352 -0.687276 -5.66244 0
M  V30 2760 O 256.286 -2.61146 -5.42297 0
M  V30 2761 H 260.112 -2.14616 -2.1488 0
M  V30 2762 H 257.697 -1.10124 -1.0096 0
M  V30 2763 H 259.579 -0.728644 -4.15053 0
M  V30 2764 H 258.254 0.0427798 -3.23672 0
M  V30 2765 H 257.161 -2.26038 -2.9809 0
M  V30 2766 H 258.494 -2.95825 -3.93381 0
M  V30 2767 N 260.146 1.09593 -1.13257 0
M  V30 2768 C 261.392 1.82003 -0.89458 0
M  V30 2769 C 261.725 1.85402 0.577906 0
M  V30 2770 O 261 1.32099 1.42759 0
M  V30 2771 C 261.283 3.28237 -1.48096 0
M  V30 2772 C 261.136 3.3312 -3.02244 0
M  V30 2773 C 262.455 4.24871 -1.14774 0
M  V30 2774 H 259.574 0.66077 -0.326424 0
M  V30 2775 H 262.216 1.28389 -1.40058 0
M  V30 2776 H 260.366 3.74024 -1.05062 0
M  V30 2777 H 262.038 2.95748 -3.54021 0
M  V30 2778 H 260.281 2.72756 -3.37323 0
M  V30 2779 H 260.952 4.3613 -3.38371 0
M  V30 2780 H 263.428 3.87361 -1.51957 0
M  V30 2781 H 262.304 5.25532 -1.58452 0
M  V30 2782 H 262.565 4.42058 -0.0611849 0
M  V30 2783 N 261.624 0.925811 1.2754 0
M  V30 2784 C 262.556 0.380753 2.26015 0
M  V30 2785 C 263.569 -0.487485 1.5533 0
M  V30 2786 O 264.758 -0.300413 1.75954 0
M  V30 2787 C 261.858 -0.473259 3.35579 0
M  V30 2788 C 261.031 0.375249 4.35787 0
M  V30 2789 C 260.09 -0.415809 5.24555 0
M  V30 2790 O 259.116 0.175834 5.68928 0
M  V30 2791 N 260.318 -1.71607 5.54555 0
M  V30 2792 H 263.083 1.22725 2.73421 0
M  V30 2793 H 260.644 0.793037 1.41147 0
M  V30 2794 H 262.636 -1.00949 3.91907 0
M  V30 2795 H 261.206 -1.2205 2.87789 0
M  V30 2796 H 260.426 1.09279 3.7875 0
M  V30 2797 H 261.714 0.955399 4.99749 0
M  V30 2798 H 261.112 -2.2191 5.20358 0
M  V30 2799 H 259.669 -2.19887 6.1359 0
M  V30 2800 N 263.102 -1.41638 0.69111 0
M  V30 2801 C 264.032 -2.3347 0.037248 0
M  V30 2802 C 265.013 -1.51575 -0.771947 0
M  V30 2803 O 266.198 -1.80126 -0.72582 0
M  V30 2804 C 263.328 -3.35354 -0.903064 0
M  V30 2805 C 262.282 -4.27526 -0.201288 0
M  V30 2806 C 261.608 -5.19747 -1.25565 0
M  V30 2807 C 262.908 -5.13959 0.929689 0
M  V30 2808 H 264.602 -2.88397 0.804227 0
M  V30 2809 H 262.148 -1.38669 0.388189 0
M  V30 2810 H 264.101 -3.98519 -1.36969 0
M  V30 2811 H 262.825 -2.78767 -1.70166 0
M  V30 2812 H 261.484 -3.65779 0.245265 0
M  V30 2813 H 261.132 -4.59479 -2.04666 0
M  V30 2814 H 260.832 -5.8225 -0.791128 0
M  V30 2815 H 262.356 -5.85789 -1.72288 0
M  V30 2816 H 263.77 -5.70718 0.543546 0
M  V30 2817 H 262.167 -5.85379 1.32103 0
M  V30 2818 H 263.237 -4.51389 1.77133 0
M  V30 2819 N 264.58 -0.43555 -1.51462 0
M  V30 2820 C 265.996 -0.0877501 -1.59359 0
M  V30 2821 C 266.196 1.4027 -1.4466 0
M  V30 2822 O 265.252 2.17243 -1.28693 0
M  V30 2823 C 266.565 -0.606264 -2.94525 0
M  V30 2824 C 268.113 -0.566548 -3.0783 0
M  V30 2825 C 268.588 -1.06201 -4.45517 0
M  V30 2826 N 270.079 -1.01992 -4.51832 0
M  V30 2827 C 270.814 -1.37417 -5.5669 0
M  V30 2828 N 270.31 -1.80119 -6.68976 0
M  V30 2829 N 272.103 -1.29245 -5.47039 0
M  V30 2830 H 264.254 -1.40533 -1.59261 0
M  V30 2831 H 266.517 -0.578992 -0.750648 0
M  V30 2832 H 266.223 -1.64901 -3.10645 0
M  V30 2833 H 266.097 -0.0302097 -3.77188 0
M  V30 2834 H 268.484 0.467208 -2.91378 0
M  V30 2835 H 268.565 -1.17898 -2.2701 0
M  V30 2836 H 268.209 -2.09422 -4.62715 0
M  V30 2837 H 268.139 -0.426127 -5.24873 0
M  V30 2838 H 270.63 -0.706308 -3.71241 0
M  V30 2839 H 270.943 -2.05392 -7.45006 0
M  V30 2840 H 269.288 -1.84044 -6.70189 0
M  V30 2841 H 272.479 -0.957522 -4.58202 0
M  V30 2842 H 272.652 -1.57182 -6.28648 0
M  V30 2843 N 266.058 1.56714 -0.166846 0
M  V30 2844 C 267.306 1.96358 0.478305 0
M  V30 2845 C 267.627 1.0537 1.6408 0
M  V30 2846 O 266.897 0.119154 1.95537 0
M  V30 2847 H 265.477 0.725065 0.179692 0
M  V30 2848 H 268.139 1.93329 -0.246985 0
M  V30 2849 H 267.235 3.00547 0.841292 0
M  V30 2850 N 267.536 -0.106894 1.57237 0
M  V30 2851 C 268.785 -0.811163 1.8467 0
M  V30 2852 C 269.098 -1.80469 0.754342 0
M  V30 2853 O 270.304 -2.55601 0.915439 0
M  V30 2854 C 268.76 -1.49337 3.27454 0
M  V30 2855 C 268.368 -0.540217 4.44731 0
M  V30 2856 C 270.112 -2.18206 3.64124 0
M  V30 2857 C 268.019 -1.22634 5.78545 0
M  V30 2858 H 266.949 -0.306679 0.688813 0
M  V30 2859 H 269.6 -0.0639887 1.83388 0
M  V30 2860 H 267.982 -2.2876 3.23241 0
M  V30 2861 H 269.156 0.221659 4.60267 0
M  V30 2862 H 267.471 0.042146 4.16379 0
M  V30 2863 H 270.068 -2.70253 4.61376 0
M  V30 2864 H 270.411 -2.96562 2.92158 0
M  V30 2865 H 270.944 -1.45658 3.70174 0
M  V30 2866 H 267.683 -0.483832 6.53712 0
M  V30 2867 H 267.203 -1.95993 5.66874 0
M  V30 2868 H 268.882 -1.75615 6.2271 0
M  V30 2869 N 269.014 -1.53014 -0.377408 0
M  V30 2870 C 269.924 -1.81557 -1.48574 0
M  V30 2871 C 270.94 -0.703102 -1.59162 0
M  V30 2872 O 272.116 -0.99192 -1.75279 0
M  V30 2873 C 269.181 -1.9889 -2.83978 0
M  V30 2874 C 268.242 -3.22801 -2.83016 0
M  V30 2875 C 267.475 -3.39298 -4.11962 0
M  V30 2876 O 267.698 -2.60345 -5.0752 0
M  V30 2877 O 266.632 -4.32604 -4.18494 0
M  V30 2878 H 270.458 -2.75695 -1.27382 0
M  V30 2879 H 268.043 -1.38248 -0.566373 0
M  V30 2880 H 269.925 -2.11931 -3.6423 0
M  V30 2881 H 268.6 -1.07942 -3.05172 0
M  V30 2882 H 267.507 -3.15193 -2.01505 0
M  V30 2883 H 268.84 -4.13632 -2.66775 0
M  V30 2884 N 270.492 0.636531 -1.44174 0
M  V30 2885 C 271.424 1.7618 -1.46606 0
M  V30 2886 C 272.437 1.58768 -0.360091 0
M  V30 2887 O 273.626 1.67181 -0.625518 0
M  V30 2888 C 270.726 3.13833 -1.27915 0
M  V30 2889 C 269.899 3.57753 -2.51658 0
M  V30 2890 C 268.958 4.74265 -2.27945 0
M  V30 2891 O 267.984 4.82852 -3.01401 0
M  V30 2892 N 269.186 5.65604 -1.30662 0
M  V30 2893 H 271.951 1.74567 -2.43612 0
M  V30 2894 H 269.512 0.820924 -1.39544 0
M  V30 2895 H 271.504 3.8949 -1.09907 0
M  V30 2896 H 270.074 3.10121 -0.39293 0
M  V30 2897 H 269.294 2.72362 -2.84978 0
M  V30 2898 H 270.582 3.83847 -3.33974 0
M  V30 2899 H 269.98 5.61354 -0.699844 0
M  V30 2900 H 268.537 6.40913 -1.18634 0
M  V30 2901 N 271.97 1.30982 0.876444 0
M  V30 2902 C 273.219 1.19658 1.62373 0
M  V30 2903 C 273.532 -0.245636 1.94052 0
M  V30 2904 O 274.738 -0.48049 2.67214 0
M  V30 2905 C 273.194 2.09433 2.92687 0
M  V30 2906 C 272.802 3.58613 2.68516 0
M  V30 2907 C 274.546 2.06893 3.70669 0
M  V30 2908 C 272.453 4.40416 3.94699 0
M  V30 2909 H 271.383 0.444268 0.609214 0
M  V30 2910 H 274.034 1.55791 0.969605 0
M  V30 2911 H 272.416 1.66191 3.59439 0
M  V30 2912 H 273.59 4.10058 2.10212 0
M  V30 2913 H 271.905 3.63063 2.03898 0
M  V30 2914 H 274.502 2.65258 4.64265 0
M  V30 2915 H 274.845 1.05448 4.02724 0
M  V30 2916 H 275.378 2.48301 3.10792 0
M  V30 2917 H 272.117 5.42591 3.67798 0
M  V30 2918 H 271.637 3.93731 4.52477 0
M  V30 2919 H 273.316 4.52294 4.62644 0
M  V30 2920 N 273.449 -1.08991 1.13837 0
M  V30 2921 C 274.412 -2.13925 0.822715 0
M  V30 2922 C 275.412 -1.599 -0.1699 0
M  V30 2923 O 276.602 -1.74104 0.0577251 0
M  V30 2924 C 273.734 -3.40155 0.225318 0
M  V30 2925 H 274.927 -2.43358 1.75262 0
M  V30 2926 H 272.48 -1.24603 0.943594 0
M  V30 2927 H 273.215 -3.16352 -0.713594 0
M  V30 2928 H 273 -3.80661 0.940193 0
M  V30 2929 H 274.49 -4.17594 0.0214784 0
M  V30 2930 N 274.927 -0.932562 -1.27047 0
M  V30 2931 C 275.859 -0.392734 -2.2581 0
M  V30 2932 C 276.872 0.479241 -1.55586 0
M  V30 2933 O 278.061 0.291078 -1.76111 0
M  V30 2934 C 275.161 0.455456 -3.35826 0
M  V30 2935 C 274.334 -0.398355 -4.35582 0
M  V30 2936 C 273.393 0.387985 -5.24768 0
M  V30 2937 O 272.419 -0.206003 -5.68827 0
M  V30 2938 N 273.621 1.68664 -5.55457 0
M  V30 2939 H 276.386 -1.24173 -2.72766 0
M  V30 2940 H 273.947 -0.800511 -1.40725 0
M  V30 2941 H 275.939 0.988692 -3.92437 0
M  V30 2942 H 274.509 1.20522 -2.88432 0
M  V30 2943 H 273.729 -1.11286 -3.78165 0
M  V30 2944 H 275.017 -0.981889 -4.99236 0
M  V30 2945 H 274.415 2.19147 -5.21528 0
M  V30 2946 H 272.972 2.1663 -6.14748 0
M  V30 2947 N 276.405 1.4127 -0.698611 0
M  V30 2948 C 277.652 2.0118 -0.230865 0
M  V30 2949 C 277.98 1.55338 1.17049 0
M  V30 2950 O 277.235 0.756775 1.80475 0
M  V30 2951 C 277.534 3.56592 -0.240192 0
M  V30 2952 C 277.2 4.21955 -1.58948 0
M  V30 2953 C 275.862 4.39524 -1.95887 0
M  V30 2954 C 278.214 4.58576 -2.47704 0
M  V30 2955 C 275.542 4.90992 -3.2116 0
M  V30 2956 C 277.894 5.11435 -3.72313 0
M  V30 2957 C 276.558 5.27215 -4.0939 0
M  V30 2958 H 275.828 0.736169 -0.0844796 0
M  V30 2959 H 278.475 1.69124 -0.8983 0
M  V30 2960 H 276.78 3.88456 0.510797 0
M  V30 2961 H 278.477 4.00758 0.139296 0
M  V30 2962 H 275.067 4.08657 -1.29219 0
M  V30 2963 H 279.251 4.44654 -2.20445 0
M  V30 2964 H 274.507 5.01393 -3.49878 0
M  V30 2965 H 278.681 5.38752 -4.4127 0
M  V30 2966 H 276.308 5.66859 -5.06533 0
M  V30 2967 N 277.883 0.443576 1.51229 0
M  V30 2968 C 278.846 -0.353132 2.26463 0
M  V30 2969 C 279.846 -0.944338 1.3015 0
M  V30 2970 O 281.036 -0.817813 1.5381 0
M  V30 2971 C 278.168 -1.50023 3.06114 0
M  V30 2972 H 279.361 0.3063 2.98332 0
M  V30 2973 H 276.914 0.196902 1.55055 0
M  V30 2974 H 277.649 -2.19553 2.38677 0
M  V30 2975 H 277.434 -1.08241 3.76864 0
M  V30 2976 H 278.924 -2.06296 3.63087 0
M  V30 2977 N 279.361 -1.56624 0.175154 0
M  V30 2978 C 280.61 -1.96173 -0.468921 0
M  V30 2979 C 280.923 -1.06401 -1.64128 0
M  V30 2980 O 282.129 -1.35648 -2.35185 0
M  V30 2981 C 280.585 -3.48833 -0.885633 0
M  V30 2982 C 280.193 -4.47237 0.261343 0
M  V30 2983 C 281.937 -3.97194 -1.49791 0
M  V30 2984 C 279.844 -5.9114 -0.175214 0
M  V30 2985 H 278.774 -0.732455 -0.178958 0
M  V30 2986 H 281.425 -1.81591 0.263997 0
M  V30 2987 H 279.807 -3.58848 -1.67464 0
M  V30 2988 H 280.981 -4.4894 1.03871 0
M  V30 2989 H 279.296 -4.08956 0.783827 0
M  V30 2990 H 281.893 -5.02167 -1.83665 0
M  V30 2991 H 282.236 -3.40351 -2.39722 0
M  V30 2992 H 282.769 -3.90212 -0.773267 0
M  V30 2993 H 279.508 -6.51865 0.689414 0
M  V30 2994 H 279.028 -5.92735 -0.91786 0
M  V30 2995 H 280.707 -6.44044 -0.617792 0
M  V30 2996 N 280.839 0.0985539 -1.57292 0
M  V30 2997 C 282.064 0.820196 -1.90493 0
M  V30 2998 C 282.489 1.71658 -0.769094 0
M  V30 2999 O 281.847 1.79133 0.279495 0
M  V30 3000 C 281.895 1.61242 -3.22542 0
M  V30 3001 O 280.999 2.72108 -3.09888 0
M  V30 3002 H 280.34 0.225547 -0.62452 0
M  V30 3003 H 282.87 0.0748159 -2.04463 0
M  V30 3004 H 282.88 1.99737 -3.55766 0
M  V30 3005 H 281.555 0.954535 -4.04798 0
M  V30 3006 H 280.132 2.36667 -2.88172 0
M  V30 3007 N 282.317 1.53212 0.369288 0
M  V30 3008 C 283.265 1.80054 1.47253 0
M  V30 3009 C 284.259 0.669456 1.55611 0
M  V30 3010 O 285.465 0.852328 1.58541 0
M  V30 3011 H 281.84 0.570034 0.490475 0
M  V30 3012 H 283.811 2.72403 1.21817 0
M  V30 3013 C 282.56 2.00403 2.84137 0
M  V30 3014 H 281.883 2.86876 2.78464 0
M  V30 3015 H 283.323 2.23164 3.60519 0
M  V30 3016 C 281.782 0.782081 3.27697 0
M  V30 3017 O 282.312 -0.0310205 4.01688 0
M  V30 3018 N 280.518 0.606573 2.84199 0
M  V30 3019 H 280.065 1.26939 2.24152 0
M  V30 3020 H 280.023 -0.20962 3.137 0
M  V30 3021 N 283.795 -0.628877 1.44509 0
M  V30 3022 C 285.072 -1.38733 1.37886 0
M  V30 3023 C 285.452 -2.11065 0.0387008 0
M  V30 3024 O 284.8 -2.06476 -0.97878 0
M  V30 3025 C 285.01 -2.35188 2.57852 0
M  V30 3026 C 286.358 -2.9845 3.02014 0
M  V30 3027 O 287.382 -2.45513 2.58073 0
M  V30 3028 O 286.241 -3.94487 3.78209 0
M  V30 3029 H 283.335 -0.621015 0.54614 0
M  V30 3030 H 285.881 -0.653744 1.56602 0
M  V30 3031 H 284.653 -1.80855 3.46998 0
M  V30 3032 H 284.276 -3.1596 2.4136 0
M  V30 3033 N 285.273 -1.31445 -0.869486 0
M  V30 3034 C 286.519 -1.21337 -1.62496 0
M  V30 3035 C 286.852 0.227872 -1.92858 0
M  V30 3036 O 286.127 1.16094 -1.56053 0
M  V30 3037 C 286.41 -2.05814 -2.95487 0
M  V30 3038 C 286.263 -3.5824 -2.72 0
M  V30 3039 C 287.582 -1.9079 -3.96594 0
M  V30 3040 H 284.701 -0.442135 -0.589649 0
M  V30 3041 H 287.343 -1.6124 -1.00507 0
M  V30 3042 H 285.493 -1.71913 -3.48394 0
M  V30 3043 H 287.165 -4.0228 -2.25762 0
M  V30 3044 H 285.408 -3.81647 -2.06224 0
M  V30 3045 H 286.079 -4.12657 -3.66631 0
M  V30 3046 H 288.555 -2.20459 -3.52898 0
M  V30 3047 H 287.431 -2.52199 -4.87531 0
M  V30 3048 H 287.692 -0.871341 -4.33428 0
M  V30 3049 N 286.751 1.08385 -1.14413 0
M  V30 3050 C 287.681 2.17321 -0.854044 0
M  V30 3051 C 288.662 1.69024 0.191049 0
M  V30 3052 O 289.847 1.94141 0.0476779 0
M  V30 3053 C 286.977 3.45719 -0.330983 0
M  V30 3054 C 285.931 4.07409 -1.31155 0
M  V30 3055 C 285.257 5.30762 -0.64778 0
M  V30 3056 C 286.557 4.48665 -2.67388 0
M  V30 3057 H 288.251 2.41845 -1.76498 0
M  V30 3058 H 285.797 1.16233 -0.850051 0
M  V30 3059 H 287.75 4.21241 -0.115645 0
M  V30 3060 H 286.474 3.2075 0.615381 0
M  V30 3061 H 285.133 3.33919 -1.51306 0
M  V30 3062 H 284.781 5.02078 0.304398 0
M  V30 3063 H 284.481 5.72992 -1.30207 0
M  V30 3064 H 286.005 6.08998 -0.441972 0
M  V30 3065 H 287.419 5.15364 -2.51143 0
M  V30 3066 H 285.816 5.01814 -3.29093 0
M  V30 3067 H 286.886 3.60543 -3.24248 0
M  V30 3068 N 288.23 0.939286 1.26551 0
M  V30 3069 C 289.46 0.601663 1.97645 0
M  V30 3070 C 289.868 -0.827206 1.70159 0
M  V30 3071 O 289.211 -1.56291 0.965338 0
M  V30 3072 C 289.273 0.761725 3.51337 0
M  V30 3073 C 288.937 2.16487 4.0247 0
M  V30 3074 C 289.934 3.14016 4.14355 0
M  V30 3075 C 287.619 2.48494 4.36527 0
M  V30 3076 C 289.613 4.41654 4.59587 0
M  V30 3077 C 287.3 3.76364 4.81449 0
M  V30 3078 C 288.298 4.72758 4.92939 0
M  V30 3079 O 287.986 5.98352 5.36871 0
M  V30 3080 H 287.718 0.225758 0.637189 0
M  V30 3081 H 290.272 1.26178 1.62075 0
M  V30 3082 H 288.502 0.0444808 3.86674 0
M  V30 3083 H 290.191 0.427442 4.03643 0
M  V30 3084 H 290.957 2.90613 3.8829 0
M  V30 3085 H 286.836 1.74202 4.26819 0
M  V30 3086 H 290.38 5.16896 4.68471 0
M  V30 3087 H 286.277 3.99582 5.06956 0
M  V30 3088 H 287.045 6.01507 5.55096 0
M  V30 3089 N 289.708 -1.40897 0.706093 0
M  V30 3090 C 290.957 -2.00284 0.238574 0
M  V30 3091 C 291.27 -1.56604 -1.17194 0
M  V30 3092 O 292.476 -2.08624 -1.73748 0
M  V30 3093 C 290.932 -3.57934 0.375623 0
M  V30 3094 C 290.54 -4.10591 1.79217 0
M  V30 3095 C 292.284 -4.24488 -0.0315857 0
M  V30 3096 C 290.191 -5.60712 1.88032 0
M  V30 3097 H 289.121 -0.749144 0.0854398 0
M  V30 3098 H 291.772 -1.61251 0.875813 0
M  V30 3099 H 290.154 -3.94622 -0.330042 0
M  V30 3100 H 291.328 -3.85301 2.52745 0
M  V30 3101 H 289.643 -3.56601 2.15 0
M  V30 3102 H 292.24 -5.34698 0.0136842 0
M  V30 3103 H 292.583 -4.02261 -1.072 0
M  V30 3104 H 293.116 -3.92873 0.624181 0
M  V30 3105 H 289.855 -5.87781 2.90161 0
M  V30 3106 H 289.375 -5.87896 1.18903 0
M  V30 3107 H 291.054 -6.25658 1.64805 0
M  V30 3108 N 291.186 -0.45159 -1.50991 0
M  V30 3109 C 292.414 0.108334 -2.06616 0
M  V30 3110 C 292.829 1.35224 -1.31757 0
M  V30 3111 O 292.186 1.78475 -0.381174 0
M  V30 3112 C 292.237 0.41619 -3.59096 0
M  V30 3113 O 291.958 -0.778361 -4.3113 0
M  V30 3114 C 293.459 1.02523 -4.31282 0
M  V30 3115 H 290.679 0.00159995 -0.670998 0
M  V30 3116 H 293.223 -0.634771 -1.94399 0
M  V30 3117 H 291.378 1.10921 -3.71181 0
M  V30 3118 H 291.792 -0.511181 -5.22003 0
M  V30 3119 H 293.266 1.19053 -5.39009 0
M  V30 3120 H 293.743 2.01013 -3.905 0
M  V30 3121 H 294.349 0.371173 -4.23677 0
M  V30 3122 N 292.664 1.56529 -0.183458 0
M  V30 3123 C 293.627 2.17324 0.728223 0
M  V30 3124 C 294.627 1.12453 1.14939 0
M  V30 3125 O 295.817 1.37902 1.06437 0
M  V30 3126 C 292.949 2.76591 1.99274 0
M  V30 3127 H 294.142 2.99241 0.198772 0
M  V30 3128 H 291.695 1.5616 0.0661391 0
M  V30 3129 H 292.43 1.98441 2.56499 0
M  V30 3130 H 292.215 3.5335 1.69959 0
M  V30 3131 H 293.705 3.23311 2.6431 0
M  V30 3132 N 294.142 -0.090211 1.57342 0
M  V30 3133 C 295.089 -1.10909 2.02405 0
M  V30 3134 C 296.059 -1.39523 0.901252 0
M  V30 3135 O 297.244 -1.50903 1.1676 0
M  V30 3136 C 294.384 -2.42277 2.45755 0
M  V30 3137 C 293.497 -2.20352 3.71576 0
M  V30 3138 C 292.632 -3.45154 4.03785 0
M  V30 3139 C 291.671 -3.18512 5.22701 0
M  V30 3140 N 290.808 -4.35593 5.50639 0
M  V30 3141 H 295.648 -0.71782 2.89225 0
M  V30 3142 H 293.185 -0.342901 1.43048 0
M  V30 3143 H 295.143 -3.18951 2.68935 0
M  V30 3144 H 293.773 -2.79242 1.61938 0
M  V30 3145 H 292.825 -1.34458 3.55844 0
M  V30 3146 H 294.137 -1.96661 4.58395 0
M  V30 3147 H 293.291 -4.30233 4.27767 0
M  V30 3148 H 292.03 -3.71904 3.15498 0
M  V30 3149 H 291.035 -2.31827 4.98534 0
M  V30 3150 H 292.26 -2.93103 6.12591 0
M  V30 3151 H 290.206 -4.6241 4.6531 0
M  V30 3152 H 290.123 -4.1511 6.31838 0
M  V30 3153 H 291.391 -5.21723 5.7916 0
M  V30 3154 N 295.62 -1.53406 -0.361157 0
M  V30 3155 C 297.031 -1.61442 -0.937728 0
M  V30 3156 C 297.382 -0.48461 -1.90121 0
M  V30 3157 O 296.507 0.388312 -2.12888 0
M  V30 3158 C 297.102 -2.92624 -1.70753 0
M  V30 3159 C 295.661 -3.02981 -2.23337 0
M  V30 3160 C 294.808 -2.5677 -1.04712 0
M  V30 3161 H 297.759 -1.58083 -0.139816 0
M  V30 3162 H 297.78 -2.80675 -2.56908 0
M  V30 3163 H 297.292 -3.74834 -1.00604 0
M  V30 3164 H 295.393 -2.25368 -2.96715 0
M  V30 3165 H 295.506 -4.0814 -2.50916 0
M  V30 3166 H 293.87 -2.11752 -1.41539 0
M  V30 3167 H 294.653 -3.41402 -0.360539 0
M  V30 3168 N 297.098 0.621204 -1.44841 0
M  V30 3169 C 298.008 1.7612 -1.5498 0
M  V30 3170 C 299.024 1.68477 -0.434927 0
M  V30 3171 O 300.2 1.89076 -0.693693 0
M  V30 3172 C 297.265 3.1254 -1.50065 0
M  V30 3173 C 296.326 3.31741 -2.72482 0
M  V30 3174 C 295.559 4.61653 -2.67792 0
M  V30 3175 O 295.782 5.431 -1.74352 0
M  V30 3176 O 294.716 4.83271 -3.58794 0
M  V30 3177 H 298.542 1.70518 -2.51311 0
M  V30 3178 H 296.127 0.783643 -1.27198 0
M  V30 3179 H 298.009 3.93844 -1.49882 0
M  V30 3180 H 296.684 3.18663 -0.568806 0
M  V30 3181 H 295.591 2.50077 -2.7823 0
M  V30 3182 H 296.924 3.30486 -3.64746 0
M  V30 3183 N 298.576 1.31904 0.862503 0
M  V30 3184 C 299.806 1.24817 1.64634 0
M  V30 3185 C 300.214 -0.187579 1.88268 0
M  V30 3186 O 299.557 -1.13253 1.44635 0
M  V30 3187 C 299.619 1.92996 3.03303 0
M  V30 3188 C 299.283 3.42336 3.02746 0
M  V30 3189 C 300.28 4.37956 2.80162 0
M  V30 3190 C 297.965 3.84147 3.2363 0
M  V30 3191 C 299.959 5.73361 2.78453 0
M  V30 3192 C 297.646 5.19663 3.21549 0
M  V30 3193 C 298.644 6.14081 2.98988 0
M  V30 3194 O 298.332 7.47118 2.96766 0
M  V30 3195 H 298.064 0.432222 0.519769 0
M  V30 3196 H 300.618 1.7445 1.08427 0
M  V30 3197 H 298.848 1.37922 3.61268 0
M  V30 3198 H 300.537 1.79723 3.63943 0
M  V30 3199 H 301.303 4.06981 2.63802 0
M  V30 3200 H 297.182 3.11083 3.40218 0
M  V30 3201 H 300.726 6.4703 2.60763 0
M  V30 3202 H 296.623 5.5027 3.37451 0
M  V30 3203 H 297.391 7.56382 3.12775 0
M  V30 3204 N 300.054 -1.07777 1.14986 0
M  V30 3205 C 301.001 -2.14867 0.842672 0
M  V30 3206 C 301.971 -1.6486 -0.202552 0
M  V30 3207 O 303.156 -1.90668 -0.0710568 0
M  V30 3208 C 300.296 -3.43486 0.333363 0
M  V30 3209 C 299.409 -4.07306 1.43965 0
M  V30 3210 C 298.544 -5.23744 0.886914 0
M  V30 3211 C 297.583 -5.79517 1.97043 0
M  V30 3212 N 296.72 -6.87291 1.4344 0
M  V30 3213 H 301.56 -2.40485 1.75986 0
M  V30 3214 H 299.097 -1.1801 0.878179 0
M  V30 3215 H 301.055 -4.17195 0.0198163 0
M  V30 3216 H 299.685 -3.18133 -0.546916 0
M  V30 3217 H 298.737 -3.31293 1.86946 0
M  V30 3218 H 300.049 -4.44771 2.25788 0
M  V30 3219 H 299.203 -6.04419 0.525651 0
M  V30 3220 H 297.942 -4.87685 0.0377957 0
M  V30 3221 H 296.947 -4.97491 2.34057 0
M  V30 3222 H 298.172 -6.17632 2.82325 0
M  V30 3223 H 296.118 -6.5318 0.607567 0
M  V30 3224 H 296.035 -7.23617 2.18895 0
M  V30 3225 H 297.303 -7.71682 1.10124 0
M  V30 3226 N 301.532 -0.945985 -1.26051 0
M  V30 3227 C 302.778 -0.597002 -1.93814 0
M  V30 3228 C 303.111 0.862484 -1.73997 0
M  V30 3229 O 302.386 1.61769 -1.07986 0
M  V30 3230 C 302.669 -0.945937 -3.47454 0
M  V30 3231 C 302.522 -2.46052 -3.76535 0
M  V30 3232 C 303.841 -0.464785 -4.37639 0
M  V30 3233 H 300.96 -0.218366 -0.703907 0
M  V30 3234 H 303.602 -1.18107 -1.48831 0
M  V30 3235 H 301.752 -0.448902 -3.85898 0
M  V30 3236 H 303.424 -3.03065 -3.47778 0
M  V30 3237 H 301.667 -2.90194 -3.22444 0
M  V30 3238 H 302.338 -2.65517 -4.83947 0
M  V30 3239 H 304.814 -0.891016 -4.06448 0
M  V30 3240 H 303.69 -0.737712 -5.4392 0
M  V30 3241 H 303.951 0.635274 -4.37512 0
M  V30 3242 N 303.011 1.40521 -0.713556 0
M  V30 3243 C 303.944 2.28198 -0.00881422 0
M  V30 3244 C 304.922 1.43227 0.769735 0
M  V30 3245 O 306.106 1.72641 0.756799 0
M  V30 3246 C 303.233 3.23758 0.994899 0
M  V30 3247 C 302.279 4.25391 0.3074 0
M  V30 3248 S 303.112 5.26765 -0.963247 0
M  V30 3249 C 304.268 6.25888 0.0384143 0
M  V30 3250 H 304.501 2.87622 -0.752407 0
M  V30 3251 H 302.034 1.45925 -0.504502 0
M  V30 3252 H 303.992 3.79341 1.56879 0
M  V30 3253 H 302.653 2.63396 1.71118 0
M  V30 3254 H 301.846 4.92596 1.0661 0
M  V30 3255 H 301.448 3.73497 -0.193879 0
M  V30 3256 H 303.74 6.71683 0.885912 0
M  V30 3257 H 304.683 7.05552 -0.60019 0
M  V30 3258 H 305.091 5.63072 0.401233 0
M  V30 3259 N 304.489 0.459591 1.5075 0
M  V30 3260 C 305.437 -0.354678 2.2988 0
M  V30 3261 C 306.431 -1.00086 1.36672 0
M  V30 3262 O 307.637 -0.933277 1.53915 0
M  V30 3263 H 304.012 -0.13321 0.740107 0
M  V30 3264 H 305.983 0.333269 2.96533 0
M  V30 3265 C 304.732 -1.43073 3.169 0
M  V30 3266 H 304.055 -0.942882 3.88523 0
M  V30 3267 H 305.495 -1.97328 3.75284 0
M  V30 3268 C 303.954 -2.42633 2.33732 0
M  V30 3269 O 304.484 -3.47658 2.01238 0
M  V30 3270 N 302.69 -2.14066 1.9653 0
M  V30 3271 H 302.237 -1.28685 2.23155 0
M  V30 3272 H 302.195 -2.80917 1.41185 0
M  V30 3273 N 305.967 -1.56429 0.191757 0
M  V30 3274 C 307.244 -1.89224 -0.495332 0
M  V30 3275 C 307.624 -1.10478 -1.79883 0
M  V30 3276 O 306.972 -0.204852 -2.2758 0
M  V30 3277 C 307.182 -3.41548 -0.717367 0
M  V30 3278 C 308.53 -4.11711 -1.03823 0
M  V30 3279 O 309.554 -3.4698 -0.805204 0
M  V30 3280 O 308.413 -5.2611 -1.47887 0
M  V30 3281 H 305.507 -0.785788 -0.25781 0
M  V30 3282 H 308.053 -1.68111 0.231721 0
M  V30 3283 H 306.825 -3.90772 0.203287 0
M  V30 3284 H 306.448 -3.68342 -1.497 0
M  V30 3285 N 307.445 0.0818655 -1.57387 0
M  V30 3286 C 308.691 0.784074 -1.8703 0
M  V30 3287 C 309.024 1.77729 -0.782689 0
M  V30 3288 O 308.299 1.93384 0.208051 0
M  V30 3289 C 308.582 1.50105 -3.27323 0
M  V30 3290 C 308.435 0.524925 -4.46727 0
M  V30 3291 C 309.754 2.44843 -3.65705 0
M  V30 3292 H 306.873 0.283582 -0.680257 0
M  V30 3293 H 309.515 0.0474352 -1.89941 0
M  V30 3294 H 307.665 2.12897 -3.24972 0
M  V30 3295 H 309.337 -0.0970111 -4.61198 0
M  V30 3296 H 307.58 -0.160606 -4.33503 0
M  V30 3297 H 308.251 1.064 -5.41648 0
M  V30 3298 H 310.727 1.92135 -3.69085 0
M  V30 3299 H 309.603 2.92018 -4.64776 0
M  V30 3300 H 309.864 3.29197 -2.95096 0
M  V30 3301 N 308.923 1.53595 0.353017 0
M  V30 3302 C 309.886 1.80232 1.41594 0
M  V30 3303 C 310.886 0.673081 1.46035 0
M  V30 3304 O 312.076 0.941335 1.46576 0
M  V30 3305 C 309.208 1.93578 2.80607 0
M  V30 3306 H 310.401 2.75174 1.19244 0
M  V30 3307 H 307.954 1.44864 0.586872 0
M  V30 3308 H 308.689 1.00746 3.08254 0
M  V30 3309 H 308.474 2.75724 2.78781 0
M  V30 3310 H 309.964 2.15735 3.57558 0
M  V30 3311 N 310.401 -0.613514 1.45168 0
M  V30 3312 C 311.817 -0.933629 1.29443 0
M  V30 3313 C 312.017 -2.00028 0.243101 0
M  V30 3314 O 311.073 -2.49848 -0.364992 0
M  V30 3315 C 312.386 -1.38018 2.67155 0
M  V30 3316 C 313.934 -1.49471 2.75004 0
M  V30 3317 C 314.409 -1.97503 4.13227 0
M  V30 3318 N 315.9 -2.04746 4.15491 0
M  V30 3319 C 316.635 -2.43121 5.19307 0
M  V30 3320 N 316.131 -2.80506 6.33473 0
M  V30 3321 N 317.924 -2.43408 5.06664 0
M  V30 3322 H 310.075 0.0916097 2.12202 0
M  V30 3323 H 312.338 -0.0216655 0.947752 0
M  V30 3324 H 312.044 -0.670625 3.45247 0
M  V30 3325 H 311.918 -2.34784 2.95222 0
M  V30 3326 H 314.305 -2.19519 1.9722 0
M  V30 3327 H 314.386 -0.510342 2.50657 0
M  V30 3328 H 314.03 -1.28045 4.91495 0
M  V30 3329 H 313.96 -2.96843 4.34962 0
M  V30 3330 H 316.451 -1.78468 3.33103 0
M  V30 3331 H 316.764 -3.08652 7.08487 0
M  V30 3332 H 315.109 -2.78216 6.36884 0
M  V30 3333 H 318.3 -2.13604 4.16523 0
M  V30 3334 H 318.473 -2.72989 5.87691 0
M  V30 3335 N 311.879 -1.3236 -0.855495 0
M  V30 3336 C 313.127 -1.22629 -1.60644 0
M  V30 3337 C 313.448 0.212136 -1.93843 0
M  V30 3338 O 312.718 1.13666 -1.59552 0
M  V30 3339 H 311.298 -0.450882 -0.595579 0
M  V30 3340 H 313.96 -1.65871 -1.02337 0
M  V30 3341 H 313.056 -1.80832 -2.54374 0
M  V30 3342 N 313.357 1.07166 -1.15556 0
M  V30 3343 C 314.606 1.79181 -0.926132 0
M  V30 3344 C 314.919 1.87768 0.547967 0
M  V30 3345 O 316.125 2.56323 0.895036 0
M  V30 3346 C 314.581 3.22 -1.60761 0
M  V30 3347 C 314.189 3.21607 -3.11886 0
M  V30 3348 C 315.933 3.9861 -1.4598 0
M  V30 3349 C 313.84 4.59092 -3.72812 0
M  V30 3350 H 312.77 0.67154 -0.342856 0
M  V30 3351 H 315.421 1.2027 -1.3859 0
M  V30 3352 H 313.803 3.81115 -1.07553 0
M  V30 3353 H 314.977 2.72127 -3.71865 0
M  V30 3354 H 313.292 2.58495 -3.2645 0
M  V30 3355 H 315.889 5.00225 -1.88888 0
M  V30 3356 H 316.232 4.143 -0.407541 0
M  V30 3357 H 316.765 3.45996 -1.96295 0
M  V30 3358 H 313.504 4.48606 -4.77946 0
M  V30 3359 H 313.024 5.08803 -3.17616 0
M  V30 3360 H 314.703 5.28059 -3.73848 0
M  V30 3361 N 314.835 0.952656 1.25548 0
M  V30 3362 C 316.081 0.607272 1.93494 0
M  V30 3363 C 316.414 -0.853245 1.74452 0
M  V30 3364 O 315.689 -1.61194 1.08843 0
M  V30 3365 C 315.972 0.96435 3.46947 0
M  V30 3366 C 315.825 2.48045 3.75225 0
M  V30 3367 C 317.144 0.487987 4.37386 0
M  V30 3368 H 314.263 0.222096 0.702739 0
M  V30 3369 H 316.905 1.18895 1.48203 0
M  V30 3370 H 315.055 0.469361 3.85654 0
M  V30 3371 H 316.727 3.04905 3.46166 0
M  V30 3372 H 314.97 2.919 3.209 0
M  V30 3373 H 315.641 2.6808 4.82532 0
M  V30 3374 H 318.117 0.912558 4.0597 0
M  V30 3375 H 316.993 0.766547 5.43521 0
M  V30 3376 H 317.254 -0.612063 4.37843 0
M  V30 3377 N 316.313 -1.40141 0.720998 0
M  V30 3378 C 317.26 -2.30688 0.071919 0
M  V30 3379 C 318.23 -1.48476 -0.744584 0
M  V30 3380 O 319.415 -1.77201 -0.707423 0
M  V30 3381 C 316.555 -3.34724 -0.839855 0
M  V30 3382 C 315.668 -4.31998 -0.0122438 0
M  V30 3383 C 314.803 -5.23102 -0.923995 0
M  V30 3384 C 313.842 -6.12033 -0.0907969 0
M  V30 3385 N 312.979 -6.95537 -0.957718 0
M  V30 3386 H 317.819 -2.85628 0.849755 0
M  V30 3387 H 315.356 -1.40653 0.430726 0
M  V30 3388 H 317.314 -3.93618 -1.38279 0
M  V30 3389 H 315.944 -2.81274 -1.58381 0
M  V30 3390 H 314.996 -3.74841 0.64794 0
M  V30 3391 H 316.308 -4.94772 0.632595 0
M  V30 3392 H 315.462 -5.86953 -1.53527 0
M  V30 3393 H 314.201 -4.60615 -1.60264 0
M  V30 3394 H 313.206 -5.47207 0.533377 0
M  V30 3395 H 314.431 -6.76581 0.584428 0
M  V30 3396 H 312.377 -6.35633 -1.62192 0
M  V30 3397 H 312.294 -7.55099 -0.36904 0
M  V30 3398 H 313.562 -7.63832 -1.555 0
M  V30 3399 N 317.792 -0.46758 -1.50504 0
M  V30 3400 C 318.755 0.317059 -2.26996 0
M  V30 3401 C 319.755 0.923513 -1.31635 0
M  V30 3402 O 320.945 0.793239 -1.55091 0
M  V30 3403 C 318.077 1.45134 -3.08462 0
M  V30 3404 H 319.27 -0.353723 -2.97807 0
M  V30 3405 H 316.823 -0.221545 -1.54722 0
M  V30 3406 H 317.558 2.15728 -2.4214 0
M  V30 3407 H 317.343 1.02232 -3.78538 0
M  V30 3408 H 318.833 2.00493 -3.66323 0
M  V30 3409 N 319.27 1.56325 -0.20005 0
M  V30 3410 C 320.547 1.89484 0.48529 0
M  V30 3411 C 320.927 1.1143 1.79294 0
M  V30 3412 O 320.275 0.216919 2.27468 0
M  V30 3413 C 320.485 3.41923 0.699243 0
M  V30 3414 C 321.833 4.12256 1.01638 0
M  V30 3415 O 322.857 3.47402 0.786792 0
M  V30 3416 O 321.716 5.26887 1.45095 0
M  V30 3417 H 318.81 0.787144 0.253639 0
M  V30 3418 H 321.356 1.67985 -0.240633 0
M  V30 3419 H 320.128 3.90658 -0.224008 0
M  V30 3420 H 319.751 3.69131 1.47744 0
M  V30 3421 N 320.748 -0.0735177 1.57428 0
M  V30 3422 C 321.994 -0.774145 1.87443 0
M  V30 3423 C 322.327 -1.77311 0.792103 0
M  V30 3424 O 321.602 -1.93492 -0.197793 0
M  V30 3425 C 321.885 -1.48367 3.28115 0
M  V30 3426 C 321.738 -0.501227 4.46999 0
M  V30 3427 C 323.057 -2.429 3.66998 0
M  V30 3428 H 320.176 -0.279971 0.681752 0
M  V30 3429 H 322.818 -0.0373616 1.89963 0
M  V30 3430 H 320.968 -2.11171 3.26097 0
M  V30 3431 H 322.64 0.121468 4.6114 0
M  V30 3432 H 320.883 0.183593 4.33411 0
M  V30 3433 H 321.554 -1.03526 5.42205 0
M  V30 3434 H 324.03 -1.90175 3.70098 0
M  V30 3435 H 322.906 -2.89549 4.66318 0
M  V30 3436 H 323.167 -3.27628 2.96837 0
M  V30 3437 N 322.226 -1.5378 -0.344866 0
M  V30 3438 C 323.189 -1.80981 -1.40637 0
M  V30 3439 C 324.189 -0.680816 -1.45676 0
M  V30 3440 O 325.379 -0.949095 -1.46075 0
M  V30 3441 C 322.511 -1.95063 -2.79577 0
M  V30 3442 H 323.704 -2.75803 -1.17783 0
M  V30 3443 H 321.257 -1.45173 -0.579181 0
M  V30 3444 H 321.992 -1.02379 -3.07716 0
M  V30 3445 H 321.777 -2.77198 -2.77315 0
M  V30 3446 H 323.267 -2.17629 -3.56409 0
M  V30 3447 N 323.704 0.605807 -1.45491 0
M  V30 3448 C 324.636 1.73031 -1.5031 0
M  V30 3449 C 325.649 1.57968 -0.393687 0
M  V30 3450 O 326.838 1.65817 -0.660839 0
M  V30 3451 C 323.938 3.11049 -1.34543 0
M  V30 3452 C 323.111 3.52334 -2.59189 0
M  V30 3453 C 322.17 4.69323 -2.37954 0
M  V30 3454 O 321.196 4.7635 -3.11575 0
M  V30 3455 N 322.398 5.62705 -1.4263 0
M  V30 3456 H 325.163 1.6936 -2.4726 0
M  V30 3457 H 322.724 0.79114 -1.41254 0
M  V30 3458 H 324.716 3.87071 -1.18144 0
M  V30 3459 H 323.286 3.09217 -0.458623 0
M  V30 3460 H 322.506 2.66256 -2.90691 0
M  V30 3461 H 323.794 3.76677 -3.42041 0
M  V30 3462 H 323.192 5.59744 -0.818758 0
M  V30 3463 H 321.749 6.38252 -1.32202 0
M  V30 3464 N 325.182 1.32811 0.848464 0
M  V30 3465 C 326.407 1.26882 1.6406 0
M  V30 3466 C 326.832 -0.15913 1.87426 0
M  V30 3467 O 326.19 -1.11258 1.43148 0
M  V30 3468 C 326.238 2.03997 2.97351 0
M  V30 3469 O 325.342 1.39201 3.88197 0
M  V30 3470 H 324.683 0.436982 0.499943 0
M  V30 3471 H 327.213 1.75224 1.0563 0
M  V30 3472 H 327.223 2.14403 3.47124 0
M  V30 3473 H 325.898 3.0783 2.79666 0
M  V30 3474 H 324.475 1.37381 3.46671 0
M  V30 3475 N 326.66 -1.06551 1.16123 0
M  V30 3476 C 327.885 -1.83544 0.965735 0
M  V30 3477 C 328.31 -1.81843 -0.481102 0
M  V30 3478 O 327.668 -1.21732 -1.34354 0
M  V30 3479 C 327.716 -3.28169 1.49457 0
M  V30 3480 O 326.82 -4.0643 0.699157 0
M  V30 3481 H 326.161 -0.568026 0.343864 0
M  V30 3482 H 328.691 -1.34362 1.54299 0
M  V30 3483 H 328.701 -3.78992 1.51092 0
M  V30 3484 H 327.376 -3.28722 2.54784 0
M  V30 3485 H 325.953 -3.65216 0.7531 0
M  V30 3486 N 328.138 -0.959301 -1.25041 0
M  V30 3487 C 329.368 -0.63303 -1.96663 0
M  V30 3488 C 329.776 0.800031 -1.71453 0
M  V30 3489 O 329.119 1.54736 -0.99008 0
M  V30 3490 C 329.181 -0.817523 -3.50081 0
M  V30 3491 C 328.845 -2.22863 -3.98975 0
M  V30 3492 C 329.842 -3.20569 -4.09306 0
M  V30 3493 C 327.527 -2.55407 -4.32519 0
M  V30 3494 C 329.521 -4.4891 -4.52503 0
M  V30 3495 C 327.208 -3.83976 -4.754 0
M  V30 3496 C 328.206 -4.8054 -4.85356 0
M  V30 3497 O 327.894 -6.06817 -5.27284 0
M  V30 3498 H 327.626 -0.235866 -0.633516 0
M  V30 3499 H 330.18 -1.2874 -1.60047 0
M  V30 3500 H 328.41 -0.105992 -3.86555 0
M  V30 3501 H 330.099 -0.491604 -4.02912 0
M  V30 3502 H 330.865 -2.96753 -3.83618 0
M  V30 3503 H 326.744 -1.8097 -4.23994 0
M  V30 3504 H 330.288 -5.24283 -4.60188 0
M  V30 3505 H 326.185 -4.07596 -5.00535 0
M  V30 3506 H 326.953 -6.10262 -5.45457 0
M  V30 3507 N 329.616 1.39756 -0.72842 0
M  V30 3508 C 330.864 2.00248 -0.272946 0
M  V30 3509 C 331.185 1.58077 1.14178 0
M  V30 3510 O 330.455 0.826014 1.77634 0
M  V30 3511 H 329.035 0.740554 -0.0979247 0
M  V30 3512 H 331.697 1.70903 -0.936912 0
M  V30 3513 H 330.793 3.10495 -0.316142 0
M  V30 3514 N 331.094 0.475555 1.50254 0
M  V30 3515 C 332.024 -0.30611 2.31485 0
M  V30 3516 C 333.005 -0.986228 1.38591 0
M  V30 3517 O 334.19 -0.982541 1.67511 0
M  V30 3518 C 331.32 -1.38588 3.1845 0
M  V30 3519 C 330.274 -0.827115 4.19932 0
M  V30 3520 C 329.6 -2.00551 4.95665 0
M  V30 3521 C 330.9 0.16463 5.2204 0
M  V30 3522 H 332.594 0.371866 2.97082 0
M  V30 3523 H 330.14 0.180282 1.42867 0
M  V30 3524 H 332.093 -1.94023 3.74076 0
M  V30 3525 H 330.817 -2.09269 2.50747 0
M  V30 3526 H 329.476 -0.294702 3.65414 0
M  V30 3527 H 329.124 -2.6994 4.2443 0
M  V30 3528 H 328.824 -1.63784 5.64313 0
M  V30 3529 H 330.348 -2.56468 5.54127 0
M  V30 3530 H 331.762 -0.300699 5.72511 0
M  V30 3531 H 330.159 0.446813 5.98434 0
M  V30 3532 H 331.229 1.08905 4.72512 0
M  V30 3533 N 332.573 -1.56217 0.208337 0
M  V30 3534 C 333.803 -2.02043 -0.431523 0
M  V30 3535 C 334.211 -1.08755 -1.54819 0
M  V30 3536 O 333.554 -0.0870009 -1.83494 0
M  V30 3537 C 333.616 -3.44239 -1.03633 0
M  V30 3538 C 333.28 -4.56965 -0.0567502 0
M  V30 3539 C 334.277 -5.14624 0.738773 0
M  V30 3540 C 331.962 -5.02266 0.0581736 0
M  V30 3541 C 333.956 -6.16045 1.63605 0
M  V30 3542 C 331.643 -6.03528 0.959001 0
M  V30 3543 C 332.641 -6.60293 1.7465 0
M  V30 3544 O 332.329 -7.59586 2.6322 0
M  V30 3545 H 332.061 -0.666772 -0.111313 0
M  V30 3546 H 334.615 -2.02919 0.318277 0
M  V30 3547 H 332.845 -3.40391 -1.83497 0
M  V30 3548 H 334.534 -3.73793 -1.58221 0
M  V30 3549 H 335.3 -4.80483 0.660364 0
M  V30 3550 H 331.179 -4.57771 -0.544633 0
M  V30 3551 H 334.723 -6.60279 2.25116 0
M  V30 3552 H 330.62 -6.37092 1.03848 0
M  V30 3553 H 331.388 -7.77057 2.57148 0
M  V30 3554 N 334.051 0.0651679 -1.57465 0
M  V30 3555 C 335.299 0.761555 -1.87202 0
M  V30 3556 C 335.62 1.77778 -0.801243 0
M  V30 3557 O 334.89 1.95166 0.16937 0
M  V30 3558 H 333.47 0.284251 -0.690804 0
M  V30 3559 H 336.132 0.0396827 -1.9486 0
M  V30 3560 H 335.228 1.27365 -2.84929 0
M  V30 3561 N 335.529 1.53961 0.336706 0
M  V30 3562 C 336.461 1.78751 1.4346 0
M  V30 3563 C 337.474 0.669019 1.48418 0
M  V30 3564 O 338.663 0.945884 1.51378 0
M  V30 3565 C 335.763 1.87844 2.82078 0
M  V30 3566 C 334.936 3.17854 3.00479 0
M  V30 3567 C 333.995 3.17816 4.19379 0
M  V30 3568 O 333.021 3.91511 4.13168 0
M  V30 3569 N 334.223 2.40669 5.2826 0
M  V30 3570 H 336.988 2.73493 1.22563 0
M  V30 3571 H 334.549 1.53096 0.526625 0
M  V30 3572 H 336.541 1.85261 3.59806 0
M  V30 3573 H 335.111 1.00257 2.96086 0
M  V30 3574 H 334.331 3.33504 2.10163 0
M  V30 3575 H 335.619 4.03718 3.0966 0
M  V30 3576 H 335.017 1.8036 5.36178 0
M  V30 3577 H 333.574 2.43877 6.04456 0
M  V30 3578 N 337.007 -0.598083 1.45811 0
M  V30 3579 C 338.255 -1.35413 1.50026 0
M  V30 3580 C 338.576 -1.94444 0.147177 0
M  V30 3581 O 337.846 -1.77701 -0.824571 0
M  V30 3582 H 336.426 -0.502727 0.552517 0
M  V30 3583 H 339.088 -0.701606 1.81834 0
M  V30 3584 H 338.184 -2.16871 2.2444 0
M  V30 3585 N 338.485 -1.33259 -0.841409 0
M  V30 3586 C 339.417 -1.19136 -1.95804 0
M  V30 3587 C 340.43 -0.122965 -1.62335 0
M  V30 3588 O 341.619 -0.373154 -1.74556 0
M  V30 3589 C 338.719 -0.804268 -3.29218 0
M  V30 3590 C 337.892 -1.96376 -3.90839 0
M  V30 3591 C 336.951 -1.55806 -5.02604 0
M  V30 3592 O 335.977 -2.27203 -5.21888 0
M  V30 3593 N 337.179 -0.461609 -5.78662 0
M  V30 3594 H 339.944 -2.15326 -2.08458 0
M  V30 3595 H 337.505 -1.25971 -1.017 0
M  V30 3596 H 339.497 -0.51501 -4.0141 0
M  V30 3597 H 338.067 0.0668809 -3.12528 0
M  V30 3598 H 337.287 -2.41879 -3.11269 0
M  V30 3599 H 338.575 -2.73966 -4.28742 0
M  V30 3600 H 337.973 0.132343 -5.65545 0
M  V30 3601 H 336.53 -0.232013 -6.51387 0
M  V30 3602 N 339.963 1.05934 -1.16686 0
M  V30 3603 C 341.212 1.78188 -0.945085 0
M  V30 3604 C 341.525 1.88338 0.528021 0
M  V30 3605 O 342.731 2.57258 0.867799 0
M  V30 3606 C 341.187 3.20277 -1.64167 0
M  V30 3607 C 340.795 3.18281 -3.15279 0
M  V30 3608 C 342.539 3.97039 -1.502 0
M  V30 3609 C 340.446 4.55112 -3.7766 0
M  V30 3610 H 339.376 0.667866 -0.349959 0
M  V30 3611 H 342.027 1.18794 -1.39858 0
M  V30 3612 H 340.409 3.79952 -1.11589 0
M  V30 3613 H 341.583 2.68167 -3.74731 0
M  V30 3614 H 339.898 2.55018 -3.29173 0
M  V30 3615 H 342.495 4.98194 -1.94183 0
M  V30 3616 H 342.838 4.13845 -0.451461 0
M  V30 3617 H 343.371 3.43894 -1.99954 0
M  V30 3618 H 340.11 4.43512 -4.82677 0
M  V30 3619 H 339.63 5.05406 -3.22994 0
M  V30 3620 H 341.309 5.24064 -3.79428 0
M  V30 3621 N 341.441 0.965919 1.2453 0
M  V30 3622 C 342.687 0.62776 1.92839 0
M  V30 3623 C 343.02 -0.834694 1.75347 0
M  V30 3624 O 342.295 -1.60031 1.10546 0
M  V30 3625 C 342.578 1.00109 3.45905 0
M  V30 3626 C 342.431 2.52011 3.72573 0
M  V30 3627 C 343.75 0.53435 4.36844 0
M  V30 3628 H 340.869 0.229537 0.700344 0
M  V30 3629 H 343.511 1.2046 1.46933 0
M  V30 3630 H 341.661 0.510238 3.85135 0
M  V30 3631 H 343.333 3.08559 3.42912 0
M  V30 3632 H 341.576 2.95287 3.17786 0
M  V30 3633 H 342.247 2.73183 4.79661 0
M  V30 3634 H 344.723 0.955565 4.04979 0
M  V30 3635 H 343.599 0.824152 5.42678 0
M  V30 3636 H 343.86 -0.565589 4.38467 0
M  V30 3637 N 342.919 -1.39368 0.735821 0
M  V30 3638 C 343.882 -2.2896 0.104874 0
M  V30 3639 C 344.882 -1.46347 -0.666274 0
M  V30 3640 O 346.072 -1.67014 -0.49517 0
M  V30 3641 C 343.204 -3.29857 -0.860656 0
M  V30 3642 H 344.397 -2.86259 0.894205 0
M  V30 3643 H 341.95 -1.48029 0.501704 0
M  V30 3644 H 342.685 -2.77615 -1.67631 0
M  V30 3645 H 342.47 -3.9087 -0.310327 0
M  V30 3646 H 343.96 -3.96893 -1.29867 0
M  V30 3647 N 344.397 -0.483516 -1.5 0
M  V30 3648 C 345.643 0.0672592 -2.02688 0
M  V30 3649 C 345.976 1.38247 -1.36387 0
M  V30 3650 O 345.251 1.88131 -0.493675 0
M  V30 3651 C 345.534 0.238109 -3.59312 0
M  V30 3652 C 345.387 -1.099 -4.36168 0
M  V30 3653 C 346.706 0.986916 -4.28892 0
M  V30 3654 H 343.825 0.0229696 -0.736642 0
M  V30 3655 H 346.467 -0.631527 -1.79197 0
M  V30 3656 H 344.617 0.8333 -3.79458 0
M  V30 3657 H 346.289 -1.73172 -4.27562 0
M  V30 3658 H 344.532 -1.69261 -3.99416 0
M  V30 3659 H 345.203 -0.932954 -5.44059 0
M  V30 3660 H 347.679 0.482302 -4.13295 0
M  V30 3661 H 346.555 1.07527 -5.38265 0
M  V30 3662 H 346.816 2.0265 -3.92919 0
M  V30 3663 N 345.875 1.56104 -0.216619 0
M  V30 3664 C 346.838 2.18819 0.681962 0
M  V30 3665 C 347.838 1.14866 1.12528 0
M  V30 3666 O 349.028 1.40128 1.03488 0
M  V30 3667 C 346.16 2.80756 1.93362 0
M  V30 3668 H 347.353 2.99595 0.135254 0
M  V30 3669 H 344.906 1.56265 0.0330003 0
M  V30 3670 H 345.641 2.03837 2.52232 0
M  V30 3671 H 345.426 3.56876 1.62426 0
M  V30 3672 H 346.916 3.28844 2.57393 0
M  V30 3673 N 347.353 -0.0568162 1.57498 0
M  V30 3674 C 348.63 -0.786954 1.79071 0
M  V30 3675 C 349.01 -1.95028 0.80792 0
M  V30 3676 O 348.358 -2.27968 -0.155858 0
M  V30 3677 C 348.568 -1.24594 3.26002 0
M  V30 3678 C 349.916 -1.67323 3.90241 0
M  V30 3679 O 350.94 -1.34124 3.29984 0
M  V30 3680 O 349.799 -2.28842 4.9628 0
M  V30 3681 H 346.893 -0.378262 0.735423 0
M  V30 3682 H 349.439 -0.035734 1.69662 0
M  V30 3683 H 348.211 -0.41423 3.89101 0
M  V30 3684 H 347.834 -2.05803 3.40192 0
M  V30 3685 N 348.832 -1.54138 -0.328536 0
M  V30 3686 C 350.06 -1.76062 -1.08673 0
M  V30 3687 C 350.475 -0.506852 -1.81869 0
M  V30 3688 O 349.832 0.522223 -1.74869 0
M  V30 3689 C 349.883 -2.95054 -2.08866 0
M  V30 3690 O 349.604 -4.15583 -1.38644 0
M  V30 3691 C 351.105 -3.2915 -2.96943 0
M  V30 3692 H 348.325 -0.587889 -0.323461 0
M  V30 3693 H 350.869 -2.0101 -0.376175 0
M  V30 3694 H 349.024 -2.72394 -2.75464 0
M  V30 3695 H 349.438 -4.82481 -2.05699 0
M  V30 3696 H 350.912 -4.15723 -3.63151 0
M  V30 3697 H 351.389 -2.461 -3.63774 0
M  V30 3698 H 351.995 -3.53871 -2.35914 0
M  V30 3699 N 350.31 0.590341 -1.46126 0
M  V30 3700 C 351.558 1.34616 -1.50742 0
M  V30 3701 C 351.879 1.94363 -0.157486 0
M  V30 3702 O 351.149 1.78136 0.815136 0
M  V30 3703 H 349.729 0.499789 -0.555175 0
M  V30 3704 H 352.391 0.691953 -1.82203 0
M  V30 3705 H 351.487 2.15678 -2.25587 0
M  V30 3706 N 351.788 1.33704 0.83433 0
M  V30 3707 C 352.718 1.26967 1.95963 0
M  V30 3708 C 353.699 0.149337 1.69443 0
M  V30 3709 O 354.884 0.339852 1.91203 0
M  V30 3710 C 352.014 1.01275 3.32206 0
M  V30 3711 C 350.968 2.09652 3.73136 0
M  V30 3712 C 350.294 1.69166 5.07235 0
M  V30 3713 C 351.594 3.51372 3.86439 0
M  V30 3714 H 353.288 2.2112 2.01857 0
M  V30 3715 H 350.834 1.06447 0.969793 0
M  V30 3716 H 352.787 0.952106 4.10503 0
M  V30 3717 H 351.511 0.0356203 3.26581 0
M  V30 3718 H 350.17 2.14766 2.97104 0
M  V30 3719 H 349.818 0.701437 4.98085 0
M  V30 3720 H 349.518 2.41694 5.35591 0
M  V30 3721 H 351.042 1.64576 5.88003 0
M  V30 3722 H 352.456 3.48734 4.55036 0
M  V30 3723 H 350.853 4.22425 4.26236 0
M  V30 3724 H 351.923 3.89546 2.88759 0
M  V30 3725 N 353.266 -1.05314 1.17247 0
M  V30 3726 C 354.543 -1.75184 0.87005 0
M  V30 3727 C 354.923 -2.01481 -0.629965 0
M  V30 3728 O 354.271 -1.64988 -1.58086 0
M  V30 3729 C 354.481 -3.04594 1.70363 0
M  V30 3730 C 355.829 -3.78567 1.92281 0
M  V30 3731 O 356.853 -3.14461 1.67311 0
M  V30 3732 O 355.712 -4.93755 2.3424 0
M  V30 3733 H 352.806 -0.761729 0.322021 0
M  V30 3734 H 355.352 -1.11493 1.27935 0
M  V30 3735 H 354.124 -2.81201 2.72106 0
M  V30 3736 H 353.747 -3.76022 1.29202 0
M  V30 3737 N 354.744 -0.972509 -1.24016 0
M  V30 3738 C 355.972 -0.654803 -1.96265 0
M  V30 3739 C 356.387 0.776708 -1.72083 0
M  V30 3740 O 355.744 1.52171 -1.00748 0
M  V30 3741 C 355.795 -0.92592 -3.49441 0
M  V30 3742 O 355.516 -2.30116 -3.72798 0
M  V30 3743 C 357.017 -0.623068 -4.38899 0
M  V30 3744 H 354.237 -0.243907 -0.6251 0
M  V30 3745 H 356.781 -1.30175 -1.57717 0
M  V30 3746 H 354.936 -0.325108 -3.86033 0
M  V30 3747 H 355.35 -2.38483 -4.67147 0
M  V30 3748 H 356.824 -0.863189 -5.45209 0
M  V30 3749 H 357.301 0.442754 -4.36963 0
M  V30 3750 H 357.907 -1.204 -4.07902 0
M  V30 3751 N 356.222 1.38976 -0.743202 0
M  V30 3752 C 357.47 1.99948 -0.29417 0
M  V30 3753 C 357.791 1.59279 1.12495 0
M  V30 3754 O 357.061 0.844808 1.76748 0
M  V30 3755 H 355.641 0.739473 -0.105774 0
M  V30 3756 H 358.303 1.699 -0.954986 0
M  V30 3757 H 357.399 3.10142 -0.349056 0
M  V30 3758 N 357.7 0.491464 1.49741 0
M  V30 3759 C 359.116 0.146835 1.58923 0
M  V30 3760 C 359.316 -1.34804 1.49767 0
M  V30 3761 O 358.372 -2.12317 1.36667 0
M  V30 3762 C 359.685 0.715157 2.92072 0
M  V30 3763 C 361.233 0.680407 3.05515 0
M  V30 3764 C 361.708 1.22663 4.41269 0
M  V30 3765 N 363.199 1.18691 4.47735 0
M  V30 3766 C 363.934 1.57984 5.51207 0
M  V30 3767 N 363.43 2.04824 6.6183 0
M  V30 3768 N 365.223 1.49459 5.41866 0
M  V30 3769 H 357.374 1.46347 1.53936 0
M  V30 3770 H 359.637 0.606453 0.728642 0
M  V30 3771 H 359.343 1.76317 3.04311 0
M  V30 3772 H 359.217 0.17018 3.76816 0
M  V30 3773 H 361.604 -0.358743 2.92911 0
M  V30 3774 H 361.685 1.26242 2.22478 0
M  V30 3775 H 361.329 2.26451 4.54623 0
M  V30 3776 H 361.259 0.620637 5.2293 0
M  V30 3777 H 363.75 0.843605 3.68364 0
M  V30 3778 H 364.063 2.32901 7.3687 0
M  V30 3779 H 362.408 2.08791 6.62896 0
M  V30 3780 H 365.599 1.12692 4.54333 0
M  V30 3781 H 365.772 1.80406 6.22381 0
M  V30 3782 N 359.178 -1.55987 0.224894 0
M  V30 3783 C 360.126 -2.21808 -0.700283 0
M  V30 3784 C 361.12 -1.19854 -1.19714 0
M  V30 3785 O 362.326 -1.37925 -1.15658 0
M  V30 3786 H 358.701 -0.711226 -0.244258 0
M  V30 3787 H 360.672 -2.98152 -0.121749 0
M  V30 3788 C 359.421 -2.91444 -1.8962 0
M  V30 3789 H 358.744 -3.69655 -1.52299 0
M  V30 3790 H 360.184 -3.40894 -2.52125 0
M  V30 3791 C 358.643 -1.94098 -2.75368 0
M  V30 3792 O 359.173 -1.46004 -3.74227 0
M  V30 3793 N 357.379 -1.61675 -2.41474 0
M  V30 3794 H 356.926 -2.00979 -1.61137 0
M  V30 3795 H 356.884 -0.968036 -2.99126 0
M  V30 3796 N 360.656 0.0484629 -1.57525 0
M  V30 3797 C 361.933 0.777447 -1.79486 0
M  V30 3798 C 362.313 1.94597 -0.818251 0
M  V30 3799 O 361.661 2.28047 0.143767 0
M  V30 3800 C 361.871 1.22864 -3.26658 0
M  V30 3801 C 363.219 1.65251 -3.91123 0
M  V30 3802 O 364.243 1.32372 -3.3069 0
M  V30 3803 O 363.102 2.26207 -4.97486 0
M  V30 3804 H 360.196 0.374357 -0.737419 0
M  V30 3805 H 362.742 0.0267359 -1.69679 0
M  V30 3806 H 361.514 0.393589 -3.89316 0
M  V30 3807 H 361.137 2.03996 -3.41279 0
M  V30 3808 N 362.134 1.5431 0.320358 0
M  V30 3809 C 363.359 1.76954 1.08175 0
M  V30 3810 C 363.784 0.518193 1.80821 0
M  V30 3811 O 363.142 -0.530411 1.73368 0
M  V30 3812 C 363.19 2.96451 2.05303 0
M  V30 3813 O 362.294 2.68221 3.13259 0
M  V30 3814 H 361.635 0.586275 0.311733 0
M  V30 3815 H 364.165 2.01342 0.363676 0
M  V30 3816 H 364.175 3.23887 2.48116 0
M  V30 3817 H 362.85 3.87196 1.51829 0
M  V30 3818 H 361.427 2.51744 2.75099 0
M  V30 3819 N 363.613 -0.582584 1.46437 0
M  V30 3820 C 364.838 -1.37168 1.55563 0
M  V30 3821 C 365.263 -1.87061 0.19743 0
M  V30 3822 O 364.621 -1.61572 -0.822451 0
M  V30 3823 C 364.669 -2.53511 2.56446 0
M  V30 3824 O 363.773 -3.54953 2.09958 0
M  V30 3825 H 363.114 -0.408494 0.523477 0
M  V30 3826 H 365.644 -0.706646 1.9201 0
M  V30 3827 H 365.654 -3.00426 2.76058 0
M  V30 3828 H 364.329 -2.16549 3.55076 0
M  V30 3829 H 362.906 -3.14516 2.00334 0
M  V30 3830 N 365.091 -1.34144 -0.827227 0
M  V30 3831 C 366.024 -1.19707 -1.94282 0
M  V30 3832 C 367.002 -0.0897256 -1.62352 0
M  V30 3833 O 368.186 -0.254095 -1.8678 0
M  V30 3834 C 365.313 -0.838646 -3.28153 0
M  V30 3835 C 364.359 -1.95514 -3.79047 0
M  V30 3836 S 365.192 -3.56793 -3.99323 0
M  V30 3837 C 366.348 -3.22983 -5.36127 0
M  V30 3838 H 366.581 -2.1414 -2.06231 0
M  V30 3839 H 364.114 -1.19121 -0.982321 0
M  V30 3840 H 366.072 -0.638637 -4.05502 0
M  V30 3841 H 364.733 0.0872776 -3.13979 0
M  V30 3842 H 363.926 -1.658 -4.75948 0
M  V30 3843 H 363.528 -2.11241 -3.08631 0
M  V30 3844 H 365.82 -2.74531 -6.19386 0
M  V30 3845 H 366.763 -4.19008 -5.70822 0
M  V30 3846 H 367.171 -2.59276 -5.01434 0
M  V30 3847 N 366.569 1.04691 -1.17803 0
M  V30 3848 C 367.519 2.10856 -0.867391 0
M  V30 3849 C 368.503 1.601 0.160206 0
M  V30 3850 O 369.695 1.76948 -0.042947 0
M  V30 3851 C 366.824 3.411 -0.388012 0
M  V30 3852 C 365.91 3.9864 -1.44732 0
M  V30 3853 N 366.301 4.30075 -2.66212 0
M  V30 3854 C 364.599 4.26439 -1.30637 0
M  V30 3855 C 365.3 4.76033 -3.34317 0
M  V30 3856 N 364.276 4.76462 -2.61696 0
M  V30 3857 H 368.078 2.33029 -1.79094 0
M  V30 3858 H 365.592 1.22386 -1.0675 0
M  V30 3859 H 367.589 4.16641 -0.146994 0
M  V30 3860 H 366.249 3.20357 0.529271 0
M  V30 3861 H 367.26 4.19917 -3.03134 0
M  V30 3862 H 363.937 4.15056 -0.451129 0
M  V30 3863 H 365.327 5.09427 -4.38103 0
M  V30 3864 N 368.047 0.979072 1.23499 0
M  V30 3865 C 368.957 0.526431 2.28617 0
M  V30 3866 C 369.973 -0.418126 1.68901 0
M  V30 3867 O 371.149 -0.288372 1.99325 0
M  V30 3868 C 368.214 -0.165235 3.46306 0
M  V30 3869 C 367.275 0.82056 4.21385 0
M  V30 3870 C 366.508 0.161807 5.33455 0
M  V30 3871 O 366.731 -1.04742 5.60701 0
M  V30 3872 O 365.665 0.859708 5.95729 0
M  V30 3873 H 369.491 1.4006 2.69475 0
M  V30 3874 H 367.076 0.746643 1.29405 0
M  V30 3875 H 368.958 -0.553287 4.17752 0
M  V30 3876 H 367.633 -1.01419 3.07402 0
M  V30 3877 H 366.54 1.25929 3.52268 0
M  V30 3878 H 367.873 1.63828 4.64135 0
M  V30 3879 N 369.525 -1.3858 0.750561 0
M  V30 3880 C 370.488 -2.28836 0.129152 0
M  V30 3881 C 371.488 -1.47045 -0.650714 0
M  V30 3882 O 372.678 -1.6753 -0.477428 0
M  V30 3883 C 369.81 -3.30751 -0.825622 0
M  V30 3884 H 371.003 -2.85294 0.924516 0
M  V30 3885 H 368.556 -1.47489 0.517376 0
M  V30 3886 H 369.291 -2.79378 -1.64677 0
M  V30 3887 H 369.076 -3.91177 -0.268852 0
M  V30 3888 H 370.566 -3.98249 -1.2565 0
M  V30 3889 N 371.003 -0.499398 -1.49478 0
M  V30 3890 C 372.25 0.0456899 -2.02448 0
M  V30 3891 C 372.578 1.37142 -1.37921 0
M  V30 3892 O 371.833 1.89111 -0.503544 0
M  V30 3893 C 372.132 0.248424 -3.56536 0
M  V30 3894 C 371.798 -0.999107 -4.39692 0
M  V30 3895 C 370.46 -1.34108 -4.62135 0
M  V30 3896 C 372.812 -1.82842 -4.88076 0
M  V30 3897 C 370.14 -2.51191 -5.30208 0
M  V30 3898 C 372.492 -2.99076 -5.57437 0
M  V30 3899 C 371.156 -3.33655 -5.78127 0
M  V30 3900 H 370.426 0.0167191 -0.740811 0
M  V30 3901 H 373.073 -0.65923 -1.79795 0
M  V30 3902 H 371.378 1.03586 -3.77859 0
M  V30 3903 H 373.075 0.684605 -3.95113 0
M  V30 3904 H 369.665 -0.722729 -4.22463 0
M  V30 3905 H 373.849 -1.57737 -4.70566 0
M  V30 3906 H 369.105 -2.78221 -5.44429 0
M  V30 3907 H 373.279 -3.63664 -5.93904 0
M  V30 3908 H 370.906 -4.24483 -6.30649 0
M  V30 3909 N 372.481 1.55866 -0.233164 0
M  V30 3910 C 373.897 1.59133 0.121988 0
M  V30 3911 C 374.097 1.25016 1.58029 0
M  V30 3912 O 373.153 0.990922 2.32243 0
M  V30 3913 C 374.466 2.99932 -0.214792 0
M  V30 3914 C 376.014 3.12601 -0.157971 0
M  V30 3915 C 376.489 4.55597 -0.46859 0
M  V30 3916 N 377.98 4.61305 -0.418585 0
M  V30 3917 C 378.715 5.69903 -0.63227 0
M  V30 3918 N 378.211 6.86819 -0.90835 0
M  V30 3919 N 380.004 5.59264 -0.563913 0
M  V30 3920 H 372.155 1.76315 -1.18434 0
M  V30 3921 H 374.418 0.820093 -0.475553 0
M  V30 3922 H 374.124 3.29588 -1.22739 0
M  V30 3923 H 373.998 3.74327 0.464691 0
M  V30 3924 H 376.385 2.82735 0.845283 0
M  V30 3925 H 376.466 2.40511 -0.871102 0
M  V30 3926 H 376.11 4.86182 -1.46934 0
M  V30 3927 H 376.04 5.25928 0.265865 0
M  V30 3928 H 378.531 3.77297 -0.213368 0
M  V30 3929 H 378.844 7.65507 -1.05919 0
M  V30 3930 H 377.189 6.88536 -0.945673 0
M  V30 3931 H 380.38 4.66802 -0.348372 0
M  V30 3932 H 380.553 6.43831 -0.733847 0
M  V30 3933 N 373.959 -0.0401083 1.57549 0
M  V30 3934 C 375.207 -0.731677 1.8839 0
M  V30 3935 C 375.528 -1.76481 0.829425 0
M  V30 3936 O 374.798 -1.95411 -0.1383 0
M  V30 3937 H 373.378 -0.273225 0.695239 0
M  V30 3938 H 376.04 -0.00867725 1.94898 0
M  V30 3939 H 375.136 -1.22816 2.86919 0
M  V30 3940 N 375.437 -1.54477 -0.31217 0
M  V30 3941 C 376.384 -1.84655 -1.38461 0
M  V30 3942 C 377.354 -0.694536 -1.50882 0
M  V30 3943 O 378.539 -0.942081 -1.6592 0
M  V30 3944 C 375.679 -2.0896 -2.74645 0
M  V30 3945 C 374.792 -3.36618 -2.70763 0
M  V30 3946 C 373.927 -3.50824 -3.98868 0
M  V30 3947 C 372.966 -4.72315 -3.89339 0
M  V30 3948 N 372.103 -4.83387 -5.09197 0
M  V30 3949 H 376.943 -2.76142 -1.12026 0
M  V30 3950 H 374.48 -1.36748 -0.542065 0
M  V30 3951 H 376.438 -2.21045 -3.53829 0
M  V30 3952 H 375.068 -1.20752 -2.99364 0
M  V30 3953 H 374.12 -3.33211 -1.83506 0
M  V30 3954 H 375.432 -4.25917 -2.59608 0
M  V30 3955 H 374.586 -3.62513 -4.86486 0
M  V30 3956 H 373.325 -2.59638 -4.12843 0
M  V30 3957 H 372.33 -4.6067 -3.00105 0
M  V30 3958 H 373.555 -5.64897 -3.76919 0
M  V30 3959 H 371.501 -3.9512 -5.23657 0
M  V30 3960 H 371.418 -5.66669 -5.00422 0
M  V30 3961 H 372.686 -4.9942 -5.98498 0
M  V30 3962 N 376.915 0.57481 -1.46744 0
M  V30 3963 C 378.164 1.32898 -1.51727 0
M  V30 3964 C 378.477 1.948 -0.176692 0
M  V30 3965 O 379.683 2.71299 -0.104385 0
M  V30 3966 C 378.139 2.40901 -2.67385 0
M  V30 3967 C 377.747 1.85266 -4.07898 0
M  V30 3968 C 379.491 3.17609 -2.81646 0
M  V30 3969 C 377.398 2.90945 -5.14883 0
M  V30 3970 H 376.328 0.499631 -0.564699 0
M  V30 3971 H 378.979 0.612536 -1.72975 0
M  V30 3972 H 377.361 3.15379 -2.39483 0
M  V30 3973 H 378.535 1.17278 -4.45626 0
M  V30 3974 H 376.85 1.21199 -3.98371 0
M  V30 3975 H 379.447 3.96493 -3.58744 0
M  V30 3976 H 379.79 3.70696 -1.89448 0
M  V30 3977 H 380.323 2.50239 -3.09233 0
M  V30 3978 H 377.062 2.42736 -6.089 0
M  V30 3979 H 376.582 3.57398 -4.81691 0
M  V30 3980 H 378.261 3.54755 -5.41071 0
M  V30 3981 N 378.394 1.34581 0.820102 0
M  V30 3982 C 379.622 1.3018 1.60813 0
M  V30 3983 C 380.037 -0.123551 1.88395 0
M  V30 3984 O 379.394 -1.07148 1.47735 0
M  V30 3985 C 379.445 2.09312 2.94739 0
M  V30 3986 O 379.166 3.46288 2.68358 0
M  V30 3987 C 380.667 2.1234 3.89136 0
M  V30 3988 H 377.887 0.447726 0.499782 0
M  V30 3989 H 380.431 1.77237 1.02017 0
M  V30 3990 H 378.586 1.65889 3.50085 0
M  V30 3991 H 379 3.87227 3.53774 0
M  V30 3992 H 380.474 2.72126 4.80262 0
M  V30 3993 H 380.951 1.11854 4.24718 0
M  V30 3994 H 381.557 2.55864 3.39726 0
M  V30 3995 N 379.872 -1.04064 1.18357 0
M  V30 3996 C 380.835 -2.10243 0.912707 0
M  V30 3997 C 381.835 -1.60477 -0.101928 0
M  V30 3998 O 383.025 -1.73703 0.131517 0
M  V30 3999 C 380.157 -3.38893 0.369387 0
M  V30 4000 H 381.35 -2.35706 1.85426 0
M  V30 4001 H 378.903 -1.20489 0.995594 0
M  V30 4002 H 379.638 -3.19094 -0.578776 0
M  V30 4003 H 379.423 -3.76331 1.1008 0
M  V30 4004 H 380.913 -4.17128 0.198575 0
M  V30 4005 N 381.35 -0.985608 -1.22978 0
M  V30 4006 C 382.28 -0.549649 -2.26939 0
M  V30 4007 C 383.261 0.419803 -1.64838 0
M  V30 4008 O 384.446 0.31203 -1.91677 0
M  V30 4009 C 381.576 0.143652 -3.47003 0
M  V30 4010 C 380.53 -0.743606 -4.21491 0
M  V30 4011 C 379.856 0.0822027 -5.34637 0
M  V30 4012 C 381.156 -2.03694 -4.80943 0
M  V30 4013 H 382.85 -1.41862 -2.63658 0
M  V30 4014 H 380.396 -0.683571 -1.26741 0
M  V30 4015 H 382.349 0.459985 -4.18882 0
M  V30 4016 H 381.073 1.04711 -3.09359 0
M  V30 4017 H 379.732 -1.04347 -3.51436 0
M  V30 4018 H 379.38 0.986359 -4.93234 0
M  V30 4019 H 379.08 -0.508377 -5.85397 0
M  V30 4020 H 380.604 0.392797 -6.09335 0
M  V30 4021 H 382.018 -1.78504 -5.44802 0
M  V30 4022 H 380.415 -2.57573 -5.42011 0
M  V30 4023 H 381.485 -2.72042 -4.01399 0
M  V30 4024 N 382.828 1.3818 -0.7579 0
M  V30 4025 C 384.058 2.04004 -0.326463 0
M  V30 4026 C 384.466 1.57286 1.05156 0
M  V30 4027 O 383.809 0.743144 1.67997 0
M  V30 4028 C 383.871 3.58444 -0.275402 0
M  V30 4029 C 383.535 4.28237 -1.59569 0
M  V30 4030 C 384.532 4.53312 -2.54566 0
M  V30 4031 C 382.217 4.66341 -1.86631 0
M  V30 4032 C 384.211 5.15531 -3.74842 0
M  V30 4033 C 381.898 5.28283 -3.0718 0
M  V30 4034 C 382.896 5.52814 -4.01106 0
M  V30 4035 O 382.584 6.13465 -5.19534 0
M  V30 4036 H 382.316 0.662026 -0.136739 0
M  V30 4037 H 384.87 1.7777 -1.02893 0
M  V30 4038 H 383.1 3.83667 0.483337 0
M  V30 4039 H 384.789 4.05701 0.127099 0
M  V30 4040 H 385.555 4.24299 -2.34936 0
M  V30 4041 H 381.434 4.46591 -1.14358 0
M  V30 4042 H 384.978 5.34594 -4.48168 0
M  V30 4043 H 380.875 5.56719 -3.26702 0
M  V30 4044 H 381.643 6.31951 -5.20173 0
M  V30 4045 N 384.306 0.507319 1.49211 0
M  V30 4046 C 385.269 -0.256763 2.27757 0
M  V30 4047 C 386.269 -0.888287 1.34038 0
M  V30 4048 O 387.459 -0.751841 1.5714 0
M  V30 4049 C 384.591 -1.36905 3.12202 0
M  V30 4050 H 385.784 0.432557 2.96764 0
M  V30 4051 H 383.337 0.262488 1.5408 0
M  V30 4052 H 384.072 -2.09233 2.47775 0
M  V30 4053 H 383.857 -0.921599 3.81115 0
M  V30 4054 H 385.347 -1.9071 3.7151 0
M  V30 4055 N 385.784 -1.5574 0.241426 0
M  V30 4056 C 386.714 -2.24133 -0.654722 0
M  V30 4057 C 387.695 -1.21974 -1.1856 0
M  V30 4058 O 388.88 -1.50612 -1.22595 0
M  V30 4059 C 386.01 -2.93659 -1.85423 0
M  V30 4060 C 384.964 -4.0246 -1.45636 0
M  V30 4061 C 384.29 -4.59383 -2.73626 0
M  V30 4062 C 385.59 -5.18468 -0.631506 0
M  V30 4063 H 387.284 -2.99281 -0.0844353 0
M  V30 4064 H 384.83 -1.43947 -0.0391707 0
M  V30 4065 H 386.783 -3.40203 -2.48676 0
M  V30 4066 H 385.507 -2.15991 -2.44981 0
M  V30 4067 H 384.166 -3.56676 -0.847202 0
M  V30 4068 H 383.814 -3.78422 -3.3137 0
M  V30 4069 H 383.514 -5.32826 -2.4773 0
M  V30 4070 H 385.038 -5.08658 -3.37786 0
M  V30 4071 H 386.452 -5.61272 -1.1682 0
M  V30 4072 H 384.849 -5.98266 -0.468831 0
M  V30 4073 H 385.919 -4.8358 0.357506 0
M  V30 4074 N 387.262 0.0317525 -1.57568 0
M  V30 4075 C 388.51 0.721676 -1.88776 0
M  V30 4076 C 388.831 1.76039 -0.838772 0
M  V30 4077 O 388.101 1.95482 0.127935 0
M  V30 4078 H 386.681 0.269534 -0.696678 0
M  V30 4079 H 389.343 -0.00165879 -1.949 0
M  V30 4080 H 388.439 1.21293 -2.87566 0
M  V30 4081 N 388.74 1.54641 0.303973 0
M  V30 4082 C 390.156 1.45788 0.649463 0
M  V30 4083 C 390.356 0.64666 1.90842 0
M  V30 4084 O 389.412 0.153183 2.52035 0
M  V30 4085 C 390.725 2.89718 0.805227 0
M  V30 4086 C 392.273 2.99742 0.901305 0
M  V30 4087 C 392.748 4.44863 1.08909 0
M  V30 4088 N 394.239 4.48559 1.15536 0
M  V30 4089 C 394.974 5.58026 1.3189 0
M  V30 4090 N 394.47 6.77422 1.45161 0
M  V30 4091 N 396.263 5.45708 1.34755 0
M  V30 4092 H 388.414 2.05854 -0.523237 0
M  V30 4093 H 390.677 0.932186 -0.172431 0
M  V30 4094 H 390.383 3.51666 -0.0489108 0
M  V30 4095 H 390.257 3.36964 1.69513 0
M  V30 4096 H 392.644 2.3791 1.74593 0
M  V30 4097 H 392.725 2.55797 -0.0125531 0
M  V30 4098 H 392.369 5.07288 0.249241 0
M  V30 4099 H 392.299 4.86436 2.01713 0
M  V30 4100 H 394.79 3.6254 1.06646 0
M  V30 4101 H 395.103 7.56604 1.57387 0
M  V30 4102 H 393.448 6.80292 1.42223 0
M  V30 4103 H 396.639 4.51378 1.23996 0
M  V30 4104 H 396.812 6.3107 1.47157 0
M  V30 4105 N 390.218 -0.567019 1.47046 0
M  V30 4106 C 391.446 -1.35027 1.56765 0
M  V30 4107 C 391.861 -1.8758 0.214316 0
M  V30 4108 O 391.218 -1.64471 -0.790919 0
M  V30 4109 C 391.269 -2.52698 2.58507 0
M  V30 4110 O 390.99 -2.0232 3.88585 0
M  V30 4111 C 392.491 -3.45043 2.78316 0
M  V30 4112 H 389.711 -0.41195 0.529658 0
M  V30 4113 H 392.255 -0.687832 1.92585 0
M  V30 4114 H 390.41 -3.149 2.25648 0
M  V30 4115 H 390.824 -2.79068 4.44096 0
M  V30 4116 H 392.298 -4.2405 3.53391 0
M  V30 4117 H 392.775 -3.97971 1.85784 0
M  V30 4118 H 393.381 -2.88665 3.12334 0
M  V30 4119 N 391.696 -1.35014 -0.812953 0
M  V30 4120 C 392.644 -1.27435 -1.94585 0
M  V30 4121 C 393.638 -0.170494 -1.6854 0
M  V30 4122 O 394.844 -0.336085 -1.76835 0
M  V30 4123 H 391.219 -0.396144 -0.639198 0
M  V30 4124 H 393.19 -2.23158 -1.98098 0
M  V30 4125 C 391.939 -1.05677 -3.31252 0
M  V30 4126 H 391.262 -1.89853 -3.51846 0
M  V30 4127 H 392.702 -1.04413 -4.10943 0
M  V30 4128 C 391.161 0.239615 -3.36047 0
M  V30 4129 O 391.691 1.23759 -3.8216 0
M  V30 4130 N 389.897 0.276186 -2.89285 0
M  V30 4131 H 389.444 -0.53653 -2.51951 0
M  V30 4132 H 389.402 1.14332 -2.92875 0
M  V30 4133 N 393.175 1.03435 -1.18907 0
M  V30 4134 C 394.123 2.13703 -0.918353 0
M  V30 4135 C 395.117 1.68947 0.123767 0
M  V30 4136 O 396.323 1.79983 -0.0249701 0
M  V30 4137 H 392.698 0.698112 -0.279542 0
M  V30 4138 H 394.669 2.33731 -1.85506 0
M  V30 4139 C 393.418 3.44542 -0.467532 0
M  V30 4140 H 392.741 3.79394 -1.26095 0
M  V30 4141 H 394.181 4.22812 -0.317164 0
M  V30 4142 C 392.64 3.26829 0.817588 0
M  V30 4143 O 393.17 3.54975 1.88031 0
M  V30 4144 N 391.376 2.80139 0.772677 0
M  V30 4145 H 390.923 2.57434 -0.0923883 0
M  V30 4146 H 390.881 2.68668 1.63294 0
M  V30 4147 N 394.653 0.992116 1.22453 0
M  V30 4148 C 395.616 0.546883 2.2258 0
M  V30 4149 C 396.616 -0.369829 1.56489 0
M  V30 4150 O 397.806 -0.161896 1.73446 0
M  V30 4151 C 394.938 -0.204659 3.40285 0
M  V30 4152 H 396.131 1.43234 2.63484 0
M  V30 4153 H 393.684 0.779239 1.3549 0
M  V30 4154 H 394.419 -1.10614 3.04853 0
M  V30 4155 H 394.204 0.45354 3.89468 0
M  V30 4156 H 395.694 -0.504358 4.14543 0
M  V30 4157 N 396.131 -1.37776 0.765217 0
M  V30 4158 C 397.079 -2.32209 0.134798 0
M  V30 4159 C 398.073 -1.54607 -0.692315 0
M  V30 4160 O 399.279 -1.70052 -0.590109 0
M  V30 4161 H 395.654 -0.751591 0.0248005 0
M  V30 4162 H 397.625 -2.8297 0.947119 0
M  V30 4163 C 396.374 -3.39841 -0.735063 0
M  V30 4164 H 395.697 -3.99654 -0.107991 0
M  V30 4165 H 397.137 -4.08296 -1.14326 0
M  V30 4166 C 395.596 -2.79378 -1.88281 0
M  V30 4167 O 396.126 -2.69608 -2.97783 0
M  V30 4168 N 394.332 -2.37016 -1.68142 0
M  V30 4169 H 393.879 -2.45162 -0.790772 0
M  V30 4170 H 393.837 -1.96905 -2.45104 0
M  V30 4171 N 397.609 -0.515225 -1.4894 0
M  V30 4172 C 398.886 0.0879088 -1.95402 0
M  V30 4173 C 399.266 1.52745 -1.45712 0
M  V30 4174 O 398.614 2.18238 -0.677093 0
M  V30 4175 C 398.824 -0.0141055 -3.48997 0
M  V30 4176 C 400.172 0.152646 -4.24326 0
M  V30 4177 O 401.196 0.0604025 -3.56149 0
M  V30 4178 O 400.055 0.34384 -5.45417 0
M  V30 4179 H 397.149 0.0874636 -0.822362 0
M  V30 4180 H 399.695 -0.578775 -1.59525 0
M  V30 4181 H 398.467 -1.01745 -3.77841 0
M  V30 4182 H 398.09 0.692091 -3.9153 0
M  V30 4183 N 399.087 1.5561 -0.249682 0
M  V30 4184 C 400.315 2.03411 0.378352 0
M  V30 4185 C 400.73 1.12886 1.51335 0
M  V30 4186 O 400.087 0.143833 1.81932 0
M  V30 4187 C 400.138 3.50537 0.88351 0
M  V30 4188 O 399.859 4.37614 -0.20626 0
M  V30 4189 C 401.36 4.14113 1.58195 0
M  V30 4190 H 398.58 0.664994 0.08958 0
M  V30 4191 H 401.124 2.01044 -0.374357 0
M  V30 4192 H 399.279 3.5343 1.58639 0
M  V30 4193 H 399.693 5.24199 0.177782 0
M  V30 4194 H 401.167 5.18741 1.8871 0
M  V30 4195 H 401.644 3.60767 2.50487 0
M  V30 4196 H 402.25 4.15151 0.923573 0
M  V30 4197 N 400.565 -0.0233959 1.57583 0
M  V30 4198 C 401.513 -1.04063 2.08023 0
M  V30 4199 C 402.507 -1.37084 0.995204 0
M  V30 4200 O 403.713 -1.35923 1.18004 0
M  V30 4201 H 400.088 -0.353144 0.663922 0
M  V30 4202 H 402.059 -0.589453 2.9252 0
M  V30 4203 C 400.808 -2.33123 2.57971 0
M  V30 4204 H 400.131 -2.08577 3.4108 0
M  V30 4205 H 401.571 -3.02632 2.96967 0
M  V30 4206 C 400.03 -3.02483 1.48342 0
M  V30 4207 O 400.56 -3.92541 0.852898 0
M  V30 4208 N 398.766 -2.63909 1.21658 0
M  V30 4209 H 398.313 -1.90758 1.73116 0
M  V30 4210 H 398.271 -3.10633 0.485218 0
M  V30 4211 N 402.043 -1.548 -0.295768 0
M  V30 4212 C 403.291 -1.73985 -1.02828 0
M  V30 4213 C 403.612 -0.531406 -1.87619 0
M  V30 4214 O 402.882 0.454221 -1.90561 0
M  V30 4215 H 401.462 -0.641556 -0.382642 0
M  V30 4216 H 404.124 -1.92163 -0.325489 0
M  V30 4217 H 403.22 -2.63129 -1.67838 0
M  V30 4218 N 403.521 0.559213 -1.47345 0
M  V30 4219 C 404.471 1.66192 -1.5609 0
M  V30 4220 C 405.455 1.55323 -0.419957 0
M  V30 4221 O 406.647 1.63839 -0.669762 0
M  V30 4222 C 403.776 3.0497 -1.57634 0
M  V30 4223 C 402.862 3.2105 -2.77106 0
M  V30 4224 N 403.253 3.07203 -4.01821 0
M  V30 4225 C 401.551 3.52046 -2.73825 0
M  V30 4226 C 402.252 3.25919 -4.81821 0
M  V30 4227 N 401.228 3.52161 -4.14106 0
M  V30 4228 H 405.03 1.54052 -2.5029 0
M  V30 4229 H 402.544 0.763914 -1.43311 0
M  V30 4230 H 404.541 3.84142 -1.61989 0
M  V30 4231 H 403.201 3.18224 -0.645281 0
M  V30 4232 H 404.212 2.84572 -4.32711 0
M  V30 4233 H 400.889 3.71839 -1.89848 0
M  V30 4234 H 402.279 3.20198 -5.90697 0
M  V30 4235 N 404.999 1.35443 0.805782 0
M  V30 4236 C 406.247 1.28507 1.55982 0
M  V30 4237 C 406.568 -0.140046 1.94496 0
M  V30 4238 O 405.838 -1.07666 1.63661 0
M  V30 4239 H 404.418 0.472676 0.578434 0
M  V30 4240 H 407.08 1.69555 0.961098 0
M  V30 4241 H 406.176 1.90148 2.47488 0
M  V30 4242 N 406.477 -1.02803 1.19454 0
M  V30 4243 C 407.705 -1.79841 1.02297 0
M  V30 4244 C 408.12 -1.83879 -0.428259 0
M  V30 4245 O 407.477 -1.28345 -1.29745 0
M  V30 4246 C 407.528 -3.24852 1.58598 0
M  V30 4247 O 407.249 -3.21097 2.98041 0
M  V30 4248 C 408.75 -4.18485 1.46236 0
M  V30 4249 H 405.97 -0.565936 0.360496 0
M  V30 4250 H 408.514 -1.2948 1.58288 0
M  V30 4251 H 406.669 -3.72401 1.06753 0
M  V30 4252 H 407.083 -4.12033 3.24545 0
M  V30 4253 H 408.557 -5.18121 1.90407 0
M  V30 4254 H 409.034 -4.37254 0.41301 0
M  V30 4255 H 409.64 -3.76811 1.97215 0
M  V30 4256 N 407.956 -0.998596 -1.21925 0
M  V30 4257 C 408.906 -0.524743 -2.21879 0
M  V30 4258 C 409.89 0.41017 -1.55584 0
M  V30 4259 O 411.082 0.236063 -1.75419 0
M  V30 4260 C 408.211 0.153636 -3.42956 0
M  V30 4261 C 407.297 -0.801918 -4.16449 0
M  V30 4262 N 407.688 -1.95211 -4.66611 0
M  V30 4263 C 405.986 -0.618972 -4.41684 0
M  V30 4264 C 406.687 -2.55234 -5.22715 0
M  V30 4265 N 405.663 -1.83451 -5.1171 0
M  V30 4266 H 409.465 -1.40189 -2.58311 0
M  V30 4267 H 406.979 -0.86159 -1.3766 0
M  V30 4268 H 408.976 0.510534 -4.13762 0
M  V30 4269 H 407.636 1.02684 -3.08036 0
M  V30 4270 H 408.647 -2.33271 -4.62391 0
M  V30 4271 H 405.324 0.207694 -4.16983 0
M  V30 4272 H 406.714 -3.52471 -5.72026 0
M  V30 4273 N 409.434 1.37368 -0.772513 0
M  V30 4274 C 410.68 1.99969 -0.337681 0
M  V30 4275 C 411.013 1.61184 1.08321 0
M  V30 4276 O 410.288 0.858395 1.74533 0
M  V30 4277 C 410.571 3.56858 -0.482121 0
M  V30 4278 C 410.424 4.0555 -1.94549 0
M  V30 4279 C 411.743 4.39955 0.113143 0
M  V30 4280 H 408.862 0.726464 -0.124171 0
M  V30 4281 H 411.504 1.63034 -0.975699 0
M  V30 4282 H 409.654 3.88452 0.0610361 0
M  V30 4283 H 411.326 3.84518 -2.54841 0
M  V30 4284 H 409.569 3.57715 -2.45403 0
M  V30 4285 H 410.24 5.14587 -1.9976 0
M  V30 4286 H 412.716 4.14623 -0.35031 0
M  V30 4287 H 411.592 5.48897 -0.0180514 0
M  V30 4288 H 411.853 4.25403 1.20354 0
M  V30 4289 N 410.912 0.523116 1.48665 0
M  V30 4290 C 411.875 -0.232592 2.28017 0
M  V30 4291 C 412.875 -0.874021 1.34972 0
M  V30 4292 O 414.065 -0.735132 1.57929 0
M  V30 4293 C 411.197 -1.33586 3.13636 0
M  V30 4294 H 412.39 0.464008 2.96289 0
M  V30 4295 H 409.943 0.278816 1.53793 0
M  V30 4296 H 410.678 -2.06593 2.4998 0
M  V30 4297 H 410.463 -0.881125 3.82071 0
M  V30 4298 H 411.953 -1.86759 3.73511 0
M  V30 4299 N 412.39 -1.55475 0.257931 0
M  V30 4300 C 413.638 -1.98813 -0.363009 0
M  V30 4301 C 413.959 -1.14757 -1.57657 0
M  V30 4302 O 413.229 -0.232956 -1.9451 0
M  V30 4303 H 411.809 -0.734308 -0.137113 0
M  V30 4304 H 414.471 -1.9156 0.359281 0
M  V30 4305 H 413.567 -3.04941 -0.664634 0
M  V30 4306 N 413.868 0.0150385 -1.57593 0
M  V30 4307 C 415.093 0.718067 -1.94573 0
M  V30 4308 C 415.518 1.6734 -0.859005 0
M  V30 4309 O 414.876 1.80362 0.184147 0
M  V30 4310 C 414.924 1.43918 -3.30636 0
M  V30 4311 O 414.028 2.55299 -3.23876 0
M  V30 4312 H 413.369 0.192125 -0.635597 0
M  V30 4313 H 415.899 -0.0336708 -2.04572 0
M  V30 4314 H 415.909 1.80598 -3.65853 0
M  V30 4315 H 414.584 0.738619 -4.09289 0
M  V30 4316 H 413.161 2.21058 -3.00312 0
M  V30 4317 N 415.346 1.54954 0.287554 0
M  V30 4318 C 416.592 1.75132 1.02257 0
M  V30 4319 C 416.925 0.542858 1.86458 0
M  V30 4320 O 416.2 -0.459856 1.88986 0
M  V30 4321 C 416.483 3.04812 1.91733 0
M  V30 4322 C 416.336 4.35985 1.10622 0
M  V30 4323 C 417.655 3.30438 2.90687 0
M  V30 4324 H 414.774 0.637194 0.370341 0
M  V30 4325 H 417.416 1.87678 0.296111 0
M  V30 4326 H 415.566 2.94247 2.53675 0
M  V30 4327 H 417.238 4.58487 0.508636 0
M  V30 4328 H 415.481 4.31865 0.409271 0
M  V30 4329 H 416.152 5.23017 1.76513 0
M  V30 4330 H 418.628 3.40701 2.38877 0
M  V30 4331 H 417.504 4.22467 3.50447 0
M  V30 4332 H 417.765 2.49377 3.65053 0
M  V30 4333 N 416.824 -0.551391 1.4764 0
M  V30 4334 C 417.754 -1.66757 1.63445 0
M  V30 4335 C 418.735 -1.63077 0.483742 0
M  V30 4336 O 419.92 -1.80607 0.71377 0
M  V30 4337 C 417.05 -3.05387 1.65396 0
M  V30 4338 C 416.004 -3.23918 2.79752 0
M  V30 4339 C 415.33 -4.63393 2.66779 0
M  V30 4340 C 416.63 -3.08735 4.21284 0
M  V30 4341 H 418.324 -1.53786 2.56886 0
M  V30 4342 H 415.87 -0.738415 1.23626 0
M  V30 4343 H 417.823 -3.83325 1.75043 0
M  V30 4344 H 416.547 -3.19332 0.685195 0
M  V30 4345 H 415.206 -2.48391 2.69625 0
M  V30 4346 H 414.854 -4.74144 1.67918 0
M  V30 4347 H 414.554 -4.7674 3.43501 0
M  V30 4348 H 416.078 -5.43458 2.78364 0
M  V30 4349 H 417.492 -3.76484 4.32357 0
M  V30 4350 H 415.889 -3.33588 4.98838 0
M  V30 4351 H 416.959 -2.0541 4.39243 0
M  V30 4352 N 418.302 -1.35869 -0.798587 0
M  V30 4353 C 419.55 -1.29332 -1.55298 0
M  V30 4354 C 419.871 0.129729 -1.94568 0
M  V30 4355 O 419.141 1.06796 -1.6423 0
M  V30 4356 H 417.721 -0.475737 -0.57592 0
M  V30 4357 H 420.383 -1.70062 -0.952093 0
M  V30 4358 H 419.479 -1.91458 -2.46476 0
M  V30 4359 N 419.78 1.02168 -1.19998 0
M  V30 4360 C 420.728 2.12717 -0.940967 0
M  V30 4361 C 421.722 1.69069 0.105841 0
M  V30 4362 O 422.928 1.79946 -0.0440583 0
M  V30 4363 H 419.303 0.695108 -0.28693 0
M  V30 4364 H 421.274 2.3175 -1.87975 0
M  V30 4365 C 420.023 3.44027 -0.504049 0
M  V30 4366 H 419.346 3.78036 -1.30112 0
M  V30 4367 H 420.786 4.22452 -0.361991 0
M  V30 4368 C 419.245 3.27678 0.782878 0
M  V30 4369 O 419.775 3.56949 1.84256 0
M  V30 4370 N 417.981 2.80943 0.742921 0
M  V30 4371 H 417.528 2.57322 -0.119687 0
M  V30 4372 H 417.486 2.70385 1.60435 0
M  V30 4373 N 421.258 1.00505 1.21394 0
M  V30 4374 C 422.506 0.686415 1.90086 0
M  V30 4375 C 422.827 -0.785264 1.7849 0
M  V30 4376 O 422.097 -1.56387 1.17983 0
M  V30 4377 H 420.677 0.2509 0.703604 0
M  V30 4378 H 423.339 1.27417 1.47482 0
M  V30 4379 H 422.435 0.959621 2.96981 0
M  V30 4380 N 422.737 -1.36956 0.779787 0
M  V30 4381 C 423.962 -2.04283 0.358224 0
M  V30 4382 C 424.387 -1.58422 -1.01411 0
M  V30 4383 O 423.745 -0.748179 -1.65142 0
M  V30 4384 C 423.793 -3.58152 0.419479 0
M  V30 4385 O 422.897 -4.08342 -0.577142 0
M  V30 4386 H 422.238 -0.645967 0.153698 0
M  V30 4387 H 424.768 -1.75108 1.05822 0
M  V30 4388 H 424.778 -4.07041 0.279636 0
M  V30 4389 H 423.453 -3.90886 1.42061 0
M  V30 4390 H 422.03 -3.70751 -0.399755 0
M  V30 4391 N 424.215 -0.530993 -1.48385 0
M  V30 4392 C 425.443 -0.00134122 -2.069 0
M  V30 4393 C 425.858 1.2805 -1.3874 0
M  V30 4394 O 425.215 1.76204 -0.475244 0
M  V30 4395 C 425.266 0.225256 -3.60798 0
M  V30 4396 O 424.987 -1.0058 -4.26398 0
M  V30 4397 C 426.488 0.795172 -4.3611 0
M  V30 4398 H 423.708 -0.0339704 -0.67014 0
M  V30 4399 H 426.252 -0.736926 -1.90761 0
M  V30 4400 H 424.407 0.910891 -3.76539 0
M  V30 4401 H 424.821 -0.787165 -5.1856 0
M  V30 4402 H 426.295 0.903143 -5.44562 0
M  V30 4403 H 426.772 1.80031 -4.00606 0
M  V30 4404 H 427.378 0.146069 -4.25049 0
M  V30 4405 N 425.693 1.55336 -0.266172 0
M  V30 4406 C 426.641 2.23587 0.641228 0
M  V30 4407 C 427.635 1.22986 1.16494 0
M  V30 4408 O 428.841 1.40943 1.1196 0
M  V30 4409 H 425.216 0.717452 0.225315 0
M  V30 4410 H 427.187 2.9837 0.0426561 0
M  V30 4411 C 425.936 2.96369 1.81826 0
M  V30 4412 H 425.259 3.73563 1.42445 0
M  V30 4413 H 426.699 3.47459 2.42998 0
M  V30 4414 C 425.158 2.0133 2.70125 0
M  V30 4415 O 425.688 1.55875 3.70224 0
M  V30 4416 N 423.894 1.6802 2.37102 0
M  V30 4417 H 423.441 2.05181 1.55751 0
M  V30 4418 H 423.399 1.047 2.96454 0
M  V30 4419 N 427.171 -0.0066808 1.57599 0
M  V30 4420 C 428.118 -1.00024 2.08 0
M  V30 4421 C 429.088 -1.34549 0.973943 0
M  V30 4422 O 430.273 -1.44502 1.24595 0
M  V30 4423 C 427.413 -2.2891 2.58252 0
M  V30 4424 C 426.526 -2.00346 3.82734 0
M  V30 4425 C 425.661 -3.23265 4.21513 0
M  V30 4426 C 424.7 -2.90357 5.3885 0
M  V30 4427 N 423.837 -4.05793 5.72954 0
M  V30 4428 H 428.677 -0.563499 2.92624 0
M  V30 4429 H 426.214 -0.266592 1.44664 0
M  V30 4430 H 428.172 -3.04247 2.85464 0
M  V30 4431 H 426.802 -2.70265 1.76512 0
M  V30 4432 H 425.854 -1.15406 3.62471 0
M  V30 4433 H 427.166 -1.72086 4.68175 0
M  V30 4434 H 426.32 -4.06953 4.49971 0
M  V30 4435 H 425.059 -3.54657 3.34768 0
M  V30 4436 H 424.064 -2.05075 5.10122 0
M  V30 4437 H 425.289 -2.60219 6.27266 0
M  V30 4438 H 423.235 -4.37094 4.89167 0
M  V30 4439 H 423.152 -3.81034 6.52954 0
M  V30 4440 H 424.42 -4.90289 6.06001 0
M  V30 4441 N 428.649 -1.55105 -0.279332 0
M  V30 4442 C 429.897 -1.75066 -1.00977 0
M  V30 4443 C 430.218 -0.551276 -1.87045 0
M  V30 4444 O 429.488 0.433984 -1.91032 0
M  V30 4445 H 428.068 -0.645578 -0.375816 0
M  V30 4446 H 430.73 -1.92497 -0.305089 0
M  V30 4447 H 429.826 -2.64894 -1.65038 0
M  V30 4448 N 430.127 0.543554 -1.4793 0
M  V30 4449 C 431.06 1.66556 -1.55995 0
M  V30 4450 C 432.038 1.57315 -0.411205 0
M  V30 4451 O 433.222 1.7798 -0.620922 0
M  V30 4452 C 430.349 3.04883 -1.47527 0
M  V30 4453 C 429.395 3.32526 -2.67074 0
M  V30 4454 S 430.228 3.20282 -4.29162 0
M  V30 4455 C 431.384 4.61079 -4.23269 0
M  V30 4456 H 431.617 1.59462 -2.50917 0
M  V30 4457 H 429.15 0.725456 -1.36296 0
M  V30 4458 H 431.108 3.84665 -1.43328 0
M  V30 4459 H 429.769 3.09429 -0.539665 0
M  V30 4460 H 428.962 4.33403 -2.5725 0
M  V30 4461 H 428.564 2.60389 -2.68466 0
M  V30 4462 H 430.856 5.52318 -3.92365 0
M  V30 4463 H 431.799 4.75959 -5.24279 0
M  V30 4464 H 432.207 4.39766 -3.5393 0
M  V30 4465 N 431.605 1.3629 0.791371 0
M  V30 4466 C 432.568 1.30309 1.88553 0
M  V30 4467 C 433.568 0.211204 1.59407 0
M  V30 4468 O 434.758 0.465865 1.67855 0
M  V30 4469 C 431.89 1.01956 3.25297 0
M  V30 4470 H 433.083 2.27614 1.95273 0
M  V30 4471 H 430.636 1.21035 0.988953 0
M  V30 4472 H 431.371 0.050998 3.2426 0
M  V30 4473 H 431.156 1.80968 3.4784 0
M  V30 4474 H 432.646 1.0037 4.05359 0
M  V30 4475 N 433.083 -1.0153 1.20538 0
M  V30 4476 C 434.494 -1.56598 1.01657 0
M  V30 4477 C 434.845 -1.91505 -0.426668 0
M  V30 4478 O 433.97 -1.72375 -1.30827 0
M  V30 4479 C 434.565 -2.84542 1.83905 0
M  V30 4480 C 433.124 -3.36133 1.69386 0
M  V30 4481 C 432.271 -2.09427 1.81757 0
M  V30 4482 H 435.222 -0.838974 1.34711 0
M  V30 4483 H 435.243 -3.56004 1.34319 0
M  V30 4484 H 434.755 -2.59105 2.8894 0
M  V30 4485 H 432.856 -3.66528 0.669933 0
M  V30 4486 H 432.969 -4.08248 2.50739 0
M  V30 4487 H 431.333 -2.21941 1.24957 0
M  V30 4488 H 432.116 -1.86414 2.88279 0
M  V30 4489 N 434.561 -1.01147 -1.20859 0
M  V30 4490 C 435.493 -0.535546 -2.22855 0
M  V30 4491 C 436.506 0.379323 -1.58319 0
M  V30 4492 O 437.695 0.178489 -1.77605 0
M  V30 4493 C 434.795 0.240962 -3.38042 0
M  V30 4494 C 433.968 -0.674562 -4.32167 0
M  V30 4495 C 433.027 0.053467 -5.26173 0
M  V30 4496 O 432.053 -0.567339 -5.66366 0
M  V30 4497 N 433.255 1.32997 -5.65059 0
M  V30 4498 H 436.02 -1.41268 -2.64317 0
M  V30 4499 H 433.581 -0.888386 -1.35349 0
M  V30 4500 H 435.573 0.737115 -3.97931 0
M  V30 4501 H 434.143 1.01935 -2.95513 0
M  V30 4502 H 433.363 -1.35111 -3.70322 0
M  V30 4503 H 434.651 -1.2974 -4.91981 0
M  V30 4504 H 434.049 1.85536 -5.34409 0
M  V30 4505 H 432.606 1.77095 -6.2728 0
M  V30 4506 N 436.039 1.36541 -0.78704 0
M  V30 4507 C 437.002 2.28413 -0.189778 0
M  V30 4508 C 438.002 1.48719 0.611499 0
M  V30 4509 O 439.192 1.68737 0.432842 0
M  V30 4510 C 436.324 3.32824 0.737638 0
M  V30 4511 H 437.517 2.82743 -0.999831 0
M  V30 4512 H 435.07 1.46065 -0.556298 0
M  V30 4513 H 435.805 2.83646 1.57212 0
M  V30 4514 H 435.59 3.91752 0.165044 0
M  V30 4515 H 437.08 4.0144 1.15047 0
M  V30 4516 N 437.518 0.538854 1.48102 0
M  V30 4517 C 438.466 -0.232325 2.31437 0
M  V30 4518 C 439.46 -0.927004 1.41785 0
M  V30 4519 O 440.666 -0.850378 1.58646 0
M  V30 4520 H 437.041 -0.0937916 0.746128 0
M  V30 4521 H 439.012 0.489986 2.9435 0
M  V30 4522 C 437.761 -1.26074 3.24038 0
M  V30 4523 H 437.084 -0.735609 3.92974 0
M  V30 4524 H 438.524 -1.77157 3.85216 0
M  V30 4525 C 436.983 -2.29902 2.46265 0
M  V30 4526 O 437.513 -3.36502 2.19384 0
M  V30 4527 N 435.719 -2.03348 2.07601 0
M  V30 4528 H 435.266 -1.16675 2.29662 0
M  V30 4529 H 435.224 -2.73038 1.55877 0
M  V30 4530 N 438.996 -1.55193 0.274407 0
M  V30 4531 C 439.926 -2.25471 -0.607032 0
M  V30 4532 C 440.907 -1.24461 -1.15946 0
M  V30 4533 O 442.092 -1.53179 -1.19373 0
M  V30 4534 C 439.222 -2.97526 -1.79153 0
M  V30 4535 C 438.176 -4.05459 -1.37067 0
M  V30 4536 C 437.502 -4.65084 -2.6382 0
M  V30 4537 C 438.802 -5.19691 -0.521389 0
M  V30 4538 H 440.496 -2.99393 -0.0209343 0
M  V30 4539 H 438.042 -1.43997 -0.00862866 0
M  V30 4540 H 439.995 -3.45402 -2.41404 0
M  V30 4541 H 438.719 -2.21138 -2.40344 0
M  V30 4542 H 437.378 -3.58393 -0.771355 0
M  V30 4543 H 437.026 -3.85365 -3.23268 0
M  V30 4544 H 436.726 -5.37961 -2.36372 0
M  V30 4545 H 438.25 -5.15708 -3.26921 0
M  V30 4546 H 439.664 -5.63623 -1.04889 0
M  V30 4547 H 438.061 -5.99126 -0.341825 0
M  V30 4548 H 439.131 -4.82713 0.46 0
M  V30 4549 N 440.474 -0.00167713 -1.576 0
M  V30 4550 C 441.72 0.683832 -1.90923 0
M  V30 4551 C 442.053 1.7333 -0.875799 0
M  V30 4552 O 441.328 1.94215 0.10525 0
M  V30 4553 C 441.611 1.32543 -3.3482 0
M  V30 4554 C 441.464 0.287387 -4.48881 0
M  V30 4555 C 442.783 2.25114 -3.78169 0
M  V30 4556 H 439.902 0.247125 -0.694333 0
M  V30 4557 H 442.544 -0.0533149 -1.89925 0
M  V30 4558 H 440.694 1.95372 -3.35801 0
M  V30 4559 H 442.366 -0.341346 -4.60035 0
M  V30 4560 H 440.609 -0.39017 -4.32042 0
M  V30 4561 H 441.28 0.775393 -5.46527 0
M  V30 4562 H 443.756 1.723 -3.7875 0
M  V30 4563 H 442.632 2.66971 -4.79602 0
M  V30 4564 H 442.893 3.13092 -3.12131 0
M  V30 4565 N 441.952 1.55251 0.271103 0
M  V30 4566 C 443.199 1.75946 1.00245 0
M  V30 4567 C 443.527 0.561611 1.86215 0
M  V30 4568 O 442.782 -0.455832 1.90317 0
M  V30 4569 C 443.081 3.01879 1.91321 0
M  V30 4570 C 442.747 4.34337 1.21086 0
M  V30 4571 C 441.409 4.70338 1.01666 0
M  V30 4572 C 443.761 5.16325 0.71119 0
M  V30 4573 C 441.089 5.8588 0.310099 0
M  V30 4574 C 443.441 6.32597 0.0182157 0
M  V30 4575 C 442.105 6.67236 -0.18768 0
M  V30 4576 H 441.375 0.643833 0.366824 0
M  V30 4577 H 444.022 1.89521 0.27458 0
M  V30 4578 H 442.327 2.83212 2.70736 0
M  V30 4579 H 444.024 3.15088 2.48033 0
M  V30 4580 H 440.614 4.06043 1.37213 0
M  V30 4581 H 444.798 4.88987 0.848844 0
M  V30 4582 H 440.054 6.1124 0.139873 0
M  V30 4583 H 444.228 6.9538 -0.376711 0
M  V30 4584 H 441.855 7.56618 -0.73715 0
M  V30 4585 N 443.43 -0.535701 1.48216 0
M  V30 4586 C 444.362 -1.65662 1.58394 0
M  V30 4587 C 445.375 -1.5591 0.468607 0
M  V30 4588 O 446.564 -1.62475 0.7392 0
M  V30 4589 C 443.664 -3.04276 1.4923 0
M  V30 4590 C 442.837 -3.39567 2.75705 0
M  V30 4591 C 441.896 -4.57436 2.60075 0
M  V30 4592 O 440.922 -4.60942 3.33948 0
M  V30 4593 N 442.124 -5.55259 1.69315 0
M  V30 4594 H 444.889 -1.5737 2.55058 0
M  V30 4595 H 442.45 -0.722845 1.44867 0
M  V30 4596 H 444.442 -3.80994 1.36477 0
M  V30 4597 H 443.012 -3.06677 0.605632 0
M  V30 4598 H 442.232 -2.52083 3.03064 0
M  V30 4599 H 443.52 -3.59929 3.59623 0
M  V30 4600 H 442.918 -5.552 1.08489 0
M  V30 4601 H 441.475 -6.31218 1.62504 0
M  V30 4602 N 444.908 -1.36708 -0.784132 0
M  V30 4603 C 446.133 -1.34565 -1.5782 0
M  V30 4604 C 446.558 0.0695257 -1.87971 0
M  V30 4605 O 445.916 1.04302 -1.48293 0
M  V30 4606 C 445.964 -2.17952 -2.87279 0
M  V30 4607 O 445.068 -1.57563 -3.81114 0
M  V30 4608 H 444.409 -0.460337 -0.478524 0
M  V30 4609 H 446.939 -1.80064 -0.971495 0
M  V30 4610 H 446.949 -2.30721 -3.365 0
M  V30 4611 H 445.624 -3.20823 -2.64661 0
M  V30 4612 H 444.201 -1.53764 -3.39722 0
M  V30 4613 N 446.386 1.0089 -1.21074 0
M  V30 4614 C 447.635 1.74019 -1.01981 0
M  V30 4615 C 447.948 1.90408 0.447665 0
M  V30 4616 O 449.154 2.60707 0.757906 0
M  V30 4617 C 447.61 3.13026 -1.77603 0
M  V30 4618 C 447.218 3.04623 -3.28495 0
M  V30 4619 C 448.962 3.90312 -1.66904 0
M  V30 4620 C 446.869 4.38685 -3.96623 0
M  V30 4621 H 445.799 0.652422 -0.377971 0
M  V30 4622 H 448.45 1.12755 -1.44771 0
M  V30 4623 H 446.832 3.74878 -1.27604 0
M  V30 4624 H 448.006 2.52032 -3.85767 0
M  V30 4625 H 446.321 2.40827 -3.39693 0
M  V30 4626 H 448.918 4.8951 -2.15138 0
M  V30 4627 H 449.261 4.11558 -0.62658 0
M  V30 4628 H 449.794 3.35104 -2.14359 0
M  V30 4629 H 446.533 4.22641 -5.01054 0
M  V30 4630 H 446.053 4.91252 -3.4414 0
M  V30 4631 H 447.732 5.075 -4.01314 0
M  V30 4632 N 447.864 1.01787 1.20321 0
M  V30 4633 C 448.797 0.533882 2.21867 0
M  V30 4634 C 449.775 -0.419361 1.57099 0
M  V30 4635 O 450.959 -0.339062 1.85426 0
M  V30 4636 C 448.086 -0.222899 3.37966 0
M  V30 4637 C 447.132 0.680091 4.21043 0
M  V30 4638 S 447.965 2.14997 4.90445 0
M  V30 4639 C 449.121 1.40339 6.09964 0
M  V30 4640 H 449.354 1.39429 2.62577 0
M  V30 4641 H 446.887 0.826867 1.30393 0
M  V30 4642 H 448.845 -0.653425 4.05266 0
M  V30 4643 H 447.506 -1.0589 2.95713 0
M  V30 4644 H 446.699 0.0964704 5.03908 0
M  V30 4645 H 446.301 1.04845 3.59004 0
M  V30 4646 H 448.593 0.68407 6.74038 0
M  V30 4647 H 449.536 2.20823 6.72787 0
M  V30 4648 H 449.944 0.905716 5.57187 0
M  V30 4649 N 449.342 -1.36122 0.79427 0
M  V30 4650 C 450.619 -1.93398 0.292685 0
M  V30 4651 C 450.999 -1.72567 -1.21589 0
M  V30 4652 O 450.347 -1.08745 -2.00965 0
M  V30 4653 C 450.557 -3.42099 0.690614 0
M  V30 4654 C 451.905 -4.19231 0.673105 0
M  V30 4655 O 452.929 -3.50559 0.631389 0
M  V30 4656 O 451.788 -5.41732 0.720362 0
M  V30 4657 H 448.882 -0.823712 0.0736693 0
M  V30 4658 H 451.428 -1.45273 0.87714 0
M  V30 4659 H 450.2 -3.50938 1.73085 0
M  V30 4660 H 449.823 -3.97519 0.0803036 0
M  V30 4661 N 450.82 -0.546701 -1.47814 0
M  V30 4662 C 452.045 -0.021268 -2.07389 0
M  V30 4663 C 452.47 1.25822 -1.39822 0
M  V30 4664 O 451.828 1.75111 -0.46968 0
M  V30 4665 C 451.876 0.168502 -3.60206 0
M  V30 4666 O 450.98 1.23347 -3.93522 0
M  V30 4667 H 450.321 -0.0466108 -0.662362 0
M  V30 4668 H 452.851 -0.759387 -1.89985 0
M  V30 4669 H 452.861 0.385982 -4.0617 0
M  V30 4670 H 451.536 -0.766075 -4.08784 0
M  V30 4671 H 450.113 0.997319 -3.59316 0
M  V30 4672 N 452.299 1.55045 -0.282633 0
M  V30 4673 C 453.547 1.99365 0.331334 0
M  V30 4674 C 453.868 1.1725 1.55812 0
M  V30 4675 O 453.138 0.263871 1.94115 0
M  V30 4676 H 451.718 0.736397 0.125414 0
M  V30 4677 H 454.38 1.90964 -0.389711 0
M  V30 4678 H 453.476 3.0596 0.616036 0
M  V30 4679 N 453.777 0.010035 1.57597 0
M  V30 4680 C 455.025 -0.671371 1.90623 0
M  V30 4681 C 455.346 -1.73753 0.885151 0
M  V30 4682 O 454.616 -1.95752 -0.0760611 0
M  V30 4683 H 453.196 -0.250968 0.703579 0
M  V30 4684 H 455.858 0.0533325 1.94827 0
M  V30 4685 H 454.954 -1.13626 2.90681 0
M  V30 4686 N 455.255 -1.55392 -0.262866 0
M  V30 4687 C 456.503 -1.76127 -0.991147 0
M  V30 4688 C 456.824 -0.571083 -1.8645 0
M  V30 4689 O 456.094 0.413698 -1.91482 0
M  V30 4690 H 454.674 -0.649528 -0.368948 0
M  V30 4691 H 457.336 -1.9281 -0.284655 0
M  V30 4692 H 456.432 -2.6663 -1.62219 0
M  V30 4693 N 456.733 0.527833 -1.48498 0
M  V30 4694 C 457.663 1.64136 -1.66077 0
M  V30 4695 C 458.644 1.62286 -0.509625 0
M  V30 4696 O 459.829 1.79449 -0.742413 0
M  V30 4697 C 456.959 3.02717 -1.70234 0
M  V30 4698 C 455.913 3.19426 -2.8487 0
M  V30 4699 C 455.239 4.5909 -2.74118 0
M  V30 4700 C 456.539 3.01993 -4.26142 0
M  V30 4701 H 458.233 1.4968 -2.593 0
M  V30 4702 H 455.779 0.718654 -1.24785 0
M  V30 4703 H 457.732 3.80491 -1.8112 0
M  V30 4704 H 456.456 3.18201 -0.735911 0
M  V30 4705 H 455.115 2.4407 -2.73542 0
M  V30 4706 H 454.763 4.71413 -1.7544 0
M  V30 4707 H 454.463 4.71214 -3.51042 0
M  V30 4708 H 455.987 5.3896 -2.86974 0
M  V30 4709 H 457.401 3.69558 -4.38292 0
M  V30 4710 H 455.798 3.2561 -5.04082 0
M  V30 4711 H 456.868 1.98396 -4.42456 0
M  V30 4712 N 458.211 1.37122 0.776871 0
M  V30 4713 C 459.459 1.31787 1.53221 0
M  V30 4714 C 459.78 -0.0987589 1.9475 0
M  V30 4715 O 459.05 -1.0417 1.65908 0
M  V30 4716 H 457.63 0.484839 0.568278 0
M  V30 4717 H 460.292 1.71556 0.924917 0
M  V30 4718 H 459.388 1.95355 2.43398 0
M  V30 4719 N 459.689 -1.00246 1.21608 0
M  V30 4720 C 460.937 -1.73717 1.0328 0
M  V30 4721 C 461.258 -1.90102 -0.434318 0
M  V30 4722 O 460.528 -1.45376 -1.31311 0
M  V30 4723 H 459.108 -0.643613 0.379172 0
M  V30 4724 H 461.77 -1.20787 1.52959 0
M  V30 4725 H 460.866 -2.73535 1.50283 0
M  V30 4726 N 461.167 -1.02423 -1.1978 0
M  V30 4727 C 462.097 -0.62157 -2.25075 0
M  V30 4728 C 463.078 0.367148 -1.6609 0
M  V30 4729 O 464.263 0.250892 -1.92573 0
M  V30 4730 C 461.393 0.0331826 -3.47284 0
M  V30 4731 C 460.347 -0.877323 -4.18912 0
M  V30 4732 C 459.673 -0.0879296 -5.34628 0
M  V30 4733 C 460.973 -2.18892 -4.74219 0
M  V30 4734 H 462.667 -1.50179 -2.59011 0
M  V30 4735 H 460.213 -0.723547 -1.24502 0
M  V30 4736 H 462.166 0.326488 -4.20133 0
M  V30 4737 H 460.89 0.948164 -3.12534 0
M  V30 4738 H 459.549 -1.15475 -3.47938 0
M  V30 4739 H 459.197 0.828941 -4.96123 0
M  V30 4740 H 458.897 -0.694359 -5.83483 0
M  V30 4741 H 460.421 0.198743 -6.10276 0
M  V30 4742 H 461.835 -1.95746 -5.38847 0
M  V30 4743 H 460.232 -2.74686 -5.33542 0
M  V30 4744 H 461.302 -2.84674 -3.92541 0
M  V30 4745 N 462.645 1.35699 -0.801477 0
M  V30 4746 C 464.056 1.81415 -0.441073 0
M  V30 4747 C 464.407 1.66595 1.03636 0
M  V30 4748 O 463.532 1.19369 1.80499 0
M  V30 4749 C 464.127 3.29369 -0.793819 0
M  V30 4750 C 462.686 3.73248 -0.486083 0
M  V30 4751 C 461.833 2.57775 -1.02213 0
M  V30 4752 H 464.784 1.23749 -0.993572 0
M  V30 4753 H 464.805 3.80395 -0.0894158 0
M  V30 4754 H 464.317 3.40123 -1.86917 0
M  V30 4755 H 462.418 3.68046 0.580735 0
M  V30 4756 H 462.531 4.68222 -1.01513 0
M  V30 4757 H 460.895 2.50788 -0.444712 0
M  V30 4758 H 461.678 2.71309 -2.10348 0
M  V30 4759 N 464.123 0.554532 1.47522 0
M  V30 4760 C 465.348 0.0322661 2.07375 0
M  V30 4761 C 465.773 -1.25079 1.40488 0
M  V30 4762 O 465.131 -1.74859 0.47896 0
M  V30 4763 C 465.179 -0.149397 3.6029 0
M  V30 4764 O 464.283 -1.21259 3.9417 0
M  V30 4765 H 463.624 0.0501228 0.662106 0
M  V30 4766 H 466.154 0.769452 1.8958 0
M  V30 4767 H 466.164 -0.364437 4.06369 0
M  V30 4768 H 464.839 0.787743 4.08372 0
M  V30 4769 H 463.416 -0.97825 3.5984 0
M  V30 4770 N 465.601 -1.54893 0.290851 0
M  V30 4771 C 466.549 -2.24579 -0.605576 0
M  V30 4772 C 467.543 -1.24824 -1.14522 0
M  V30 4773 O 468.749 -1.42706 -1.09704 0
M  V30 4774 H 465.124 -0.720946 -0.213872 0
M  V30 4775 H 467.095 -2.984 0.0048173 0
M  V30 4776 C 465.844 -2.99224 -1.77088 0
M  V30 4777 H 465.167 -3.75782 -1.36484 0
M  V30 4778 H 466.607 -3.51281 -2.3744 0
M  V30 4779 C 465.066 -2.05602 -2.66888 0
M  V30 4780 O 465.596 -1.61745 -3.67698 0
M  V30 4781 N 463.802 -1.71771 -2.34399 0
M  V30 4782 H 463.349 -2.07633 -1.52468 0
M  V30 4783 H 463.307 -1.09403 -2.94751 0
M  V30 4784 N 467.08 -0.0183926 -1.57589 0
M  V30 4785 C 468.01 0.965596 -2.12599 0
M  V30 4786 C 468.991 1.34641 -1.0395 0
M  V30 4787 O 470.176 1.42693 -1.31729 0
M  V30 4788 C 467.306 2.25149 -2.64434 0
M  V30 4789 C 466.26 2.01175 -3.77773 0
M  V30 4790 C 465.586 3.35937 -4.15994 0
M  V30 4791 C 466.886 1.35953 -5.04296 0
M  V30 4792 H 468.58 0.507504 -2.95067 0
M  V30 4793 H 466.126 0.242671 -1.41941 0
M  V30 4794 H 468.079 2.94357 -3.01549 0
M  V30 4795 H 466.803 2.73105 -1.79112 0
M  V30 4796 H 465.462 1.34388 -3.4108 0
M  V30 4797 H 465.11 3.81631 -3.27669 0
M  V30 4798 H 464.81 3.20705 -4.92364 0
M  V30 4799 H 466.334 4.0643 -4.55683 0
M  V30 4800 H 467.748 1.95144 -5.39065 0
M  V30 4801 H 466.145 1.31152 -5.85593 0
M  V30 4802 H 467.215 0.331071 -4.83768 0
M  V30 4803 N 468.558 1.5553 0.254621 0
M  V30 4804 C 469.49 1.86104 1.33783 0
M  V30 4805 C 470.503 0.746752 1.44663 0
M  V30 4806 O 471.692 1.0248 1.46151 0
M  V30 4807 C 468.792 2.02532 2.71724 0
M  V30 4808 C 467.965 3.33335 2.83208 0
M  V30 4809 C 467.024 3.396 4.01943 0
M  V30 4810 O 466.05 4.12862 3.91834 0
M  V30 4811 N 467.252 2.68332 5.1476 0
M  V30 4812 H 470.017 2.79605 1.07893 0
M  V30 4813 H 467.578 1.55672 0.444732 0
M  V30 4814 H 469.57 2.04074 3.4948 0
M  V30 4815 H 468.14 1.15811 2.90356 0
M  V30 4816 H 467.36 3.44176 1.92189 0
M  V30 4817 H 468.648 4.19565 2.87824 0
M  V30 4818 H 468.046 2.08528 5.25864 0
M  V30 4819 H 466.603 2.75575 5.90679 0
M  V30 4820 N 470.036 -0.519951 1.48776 0
M  V30 4821 C 471.264 -1.29971 1.60982 0
M  V30 4822 C 471.679 -1.86803 0.273885 0
M  V30 4823 O 471.036 -1.66904 -0.738193 0
M  V30 4824 C 471.087 -2.44346 2.66415 0
M  V30 4825 O 470.808 -1.89855 3.94825 0
M  V30 4826 C 472.309 -3.36014 2.89153 0
M  V30 4827 H 469.529 -0.394891 0.542496 0
M  V30 4828 H 472.073 -0.626214 1.94676 0
M  V30 4829 H 470.228 -3.07562 2.35552 0
M  V30 4830 H 470.642 -2.64798 4.5275 0
M  V30 4831 H 472.116 -4.12593 3.66703 0
M  V30 4832 H 472.593 -3.91859 1.98351 0
M  V30 4833 H 473.199 -2.78582 3.21359 0
M  V30 4834 N 471.514 -1.37532 -0.769588 0
M  V30 4835 C 472.444 -1.36172 -1.89682 0
M  V30 4836 C 473.425 -0.23001 -1.68538 0
M  V30 4837 O 474.61 -0.43069 -1.89364 0
M  V30 4838 C 471.74 -1.1701 -3.26995 0
M  V30 4839 C 470.694 -2.27216 -3.62708 0
M  V30 4840 C 470.02 -1.93174 -4.98586 0
M  V30 4841 C 471.32 -3.6941 -3.69234 0
M  V30 4842 H 473.014 -2.30499 -1.91078 0
M  V30 4843 H 470.56 -1.10953 -0.917902 0
M  V30 4844 H 472.513 -1.14688 -4.05493 0
M  V30 4845 H 471.237 -0.191395 -3.26039 0
M  V30 4846 H 469.896 -2.28697 -2.86519 0
M  V30 4847 H 469.544 -0.938281 -4.94171 0
M  V30 4848 H 469.244 -2.66973 -5.23449 0
M  V30 4849 H 470.768 -1.92443 -5.79481 0
M  V30 4850 H 472.182 -3.70047 -4.37879 0
M  V30 4851 H 470.579 -4.4228 -4.05597 0
M  V30 4852 H 471.649 -4.0288 -2.69844 0
M  V30 4853 N 472.992 0.995999 -1.22138 0
M  V30 4854 C 474.239 1.7351 -1.04406 0
M  V30 4855 C 474.567 1.89884 0.421244 0
M  V30 4856 O 473.822 1.43683 1.32867 0
M  V30 4857 C 474.121 3.14553 -1.6968 0
M  V30 4858 C 473.787 3.18102 -3.19565 0
M  V30 4859 C 472.449 3.18778 -3.60464 0
M  V30 4860 C 474.801 3.14636 -4.15516 0
M  V30 4861 C 472.129 3.13684 -4.95801 0
M  V30 4862 C 474.481 3.11084 -5.50826 0
M  V30 4863 C 473.145 3.10074 -5.91109 0
M  V30 4864 H 472.415 0.634916 -0.38205 0
M  V30 4865 H 475.062 1.1667 -1.51857 0
M  V30 4866 H 473.367 3.74682 -1.14546 0
M  V30 4867 H 475.064 3.70477 -1.53454 0
M  V30 4868 H 471.654 3.18324 -2.86998 0
M  V30 4869 H 475.838 3.13266 -3.84939 0
M  V30 4870 H 471.094 3.11245 -5.26247 0
M  V30 4871 H 475.268 3.07357 -6.24904 0
M  V30 4872 H 472.895 3.05882 -6.95946 0
M  V30 4873 N 474.47 1.03057 1.19235 0
M  V30 4874 C 475.695 0.74757 1.93458 0
M  V30 4875 C 476.12 -0.687648 1.7508 0
M  V30 4876 O 475.478 -1.47499 1.05422 0
M  V30 4877 C 475.526 1.10604 3.43219 0
M  V30 4878 O 474.63 0.225671 4.11782 0
M  V30 4879 H 473.971 0.276047 0.603899 0
M  V30 4880 H 476.501 1.3777 1.51263 0
M  V30 4881 H 476.511 1.06366 3.93891 0
M  V30 4882 H 475.186 2.15165 3.55917 0
M  V30 4883 H 473.763 0.326795 3.71465 0
M  V30 4884 N 475.948 -1.35272 0.808662 0
M  V30 4885 C 476.88 -2.28507 0.178149 0
M  V30 4886 C 477.893 -1.50377 -0.623754 0
M  V30 4887 O 479.082 -1.72583 -0.455774 0
M  V30 4888 C 476.182 -3.30038 -0.769959 0
M  V30 4889 C 475.355 -4.37398 -0.0139749 0
M  V30 4890 C 474.414 -5.18775 -0.880875 0
M  V30 4891 O 473.44 -5.68236 -0.331059 0
M  V30 4892 N 474.642 -5.37087 -2.20267 0
M  V30 4893 H 477.407 -2.83255 0.979106 0
M  V30 4894 H 474.968 -1.47643 0.664308 0
M  V30 4895 H 476.96 -3.81371 -1.35418 0
M  V30 4896 H 475.53 -2.75789 -1.47171 0
M  V30 4897 H 474.75 -3.86971 0.751468 0
M  V30 4898 H 476.038 -5.06268 0.506965 0
M  V30 4899 H 475.436 -4.9855 -2.67328 0
M  V30 4900 H 473.993 -5.91593 -2.73608 0
M  V30 4901 N 477.426 -0.562348 -1.47226 0
M  V30 4902 C 478.389 0.172056 -2.28553 0
M  V30 4903 C 479.389 0.837928 -1.37242 0
M  V30 4904 O 480.579 0.693001 -1.59822 0
M  V30 4905 C 477.711 1.25223 -3.17068 0
M  V30 4906 H 478.904 -0.542401 -2.94954 0
M  V30 4907 H 476.457 -0.319493 -1.53 0
M  V30 4908 H 477.192 1.99892 -2.55369 0
M  V30 4909 H 476.977 0.779515 -3.84273 0
M  V30 4910 H 478.467 1.76791 -3.78332 0
M  V30 4911 N 478.904 1.54736 -0.299062 0
M  V30 4912 C 480.134 2.04215 0.312992 0
M  V30 4913 C 480.542 1.17596 1.48215 0
M  V30 4914 O 479.885 0.193835 1.82674 0
M  V30 4915 C 479.947 3.49696 0.833862 0
M  V30 4916 C 479.611 4.56518 -0.20977 0
M  V30 4917 C 480.608 5.09442 -1.03756 0
M  V30 4918 C 478.293 5.01073 -0.35091 0
M  V30 4919 C 480.287 6.05459 -1.99244 0
M  V30 4920 C 477.974 5.9691 -1.30924 0
M  V30 4921 C 478.972 6.48987 -2.1285 0
M  V30 4922 O 478.66 7.42947 -3.07059 0
M  V30 4923 H 478.392 0.672128 0.0722494 0
M  V30 4924 H 480.946 2.00718 -0.436043 0
M  V30 4925 H 479.176 3.5051 1.63339 0
M  V30 4926 H 480.865 3.82381 1.36159 0
M  V30 4927 H 481.631 4.75816 -0.939376 0
M  V30 4928 H 477.51 4.60168 0.276813 0
M  V30 4929 H 481.054 6.46031 -2.63229 0
M  V30 4930 H 476.951 6.29953 -1.40815 0
M  V30 4931 H 477.719 7.60743 -3.02015 0
M  V30 4932 N 480.382 0.0267497 1.57577 0
M  V30 4933 C 481.607 -0.666227 1.96408 0
M  V30 4934 C 482.032 -1.65004 0.903071 0
M  V30 4935 O 481.39 -1.80787 -0.136263 0
M  V30 4936 C 481.438 -1.35101 3.34335 0
M  V30 4937 O 480.542 -2.46623 3.30531 0
M  V30 4938 H 479.883 -0.175206 0.640468 0
M  V30 4939 H 482.413 0.0878977 2.04411 0
M  V30 4940 H 482.423 -1.70834 3.70513 0
M  V30 4941 H 481.098 -0.629844 4.11103 0
M  V30 4942 H 479.675 -2.13019 3.06068 0
M  V30 4943 N 481.861 -1.55662 -0.24637 0
M  V30 4944 C 482.824 -1.89558 -1.28842 0
M  V30 4945 C 483.824 -0.772082 -1.41052 0
M  V30 4946 O 485.014 -1.04007 -1.39743 0
M  V30 4947 C 482.146 -2.12449 -2.66605 0
M  V30 4948 H 483.339 -2.82735 -1.00004 0
M  V30 4949 H 480.892 -1.48562 -0.485684 0
M  V30 4950 H 481.627 -1.21742 -3.00582 0
M  V30 4951 H 481.412 -2.94273 -2.59125 0
M  V30 4952 H 482.902 -2.39854 -3.41847 0
M  V30 4953 N 483.339 0.512053 -1.4905 0
M  V30 4954 C 484.587 1.26436 -1.57665 0
M  V30 4955 C 484.908 1.93255 -0.260293 0
M  V30 4956 O 484.178 1.82206 0.719564 0
M  V30 4957 H 482.758 0.469658 -0.580888 0
M  V30 4958 H 485.42 0.594398 -1.85615 0
M  V30 4959 H 484.516 2.03417 -2.36702 0
M  V30 4960 N 484.817 1.37938 0.762283 0
M  V30 4961 C 485.78 1.34279 1.85747 0
M  V30 4962 C 486.78 0.244969 1.58923 0
M  V30 4963 O 487.97 0.501365 1.66829 0
M  V30 4964 C 485.102 1.08833 3.23061 0
M  V30 4965 H 486.295 2.31705 1.90401 0
M  V30 4966 H 483.848 1.23105 0.963057 0
M  V30 4967 H 484.583 0.119767 3.24079 0
M  V30 4968 H 484.368 1.88306 3.43923 0
M  V30 4969 H 485.858 1.08946 4.03138 0
M  V30 4970 N 486.295 -0.989507 1.22664 0
M  V30 4971 C 487.711 -1.25395 0.987331 0
M  V30 4972 C 487.911 -1.9899 -0.317056 0
M  V30 4973 O 486.967 -2.30141 -1.03882 0
M  V30 4974 C 488.28 -2.06242 2.18826 0
M  V30 4975 C 489.828 -2.19413 2.23219 0
M  V30 4976 C 490.303 -3.03648 3.42873 0
M  V30 4977 N 491.794 -3.11234 3.43056 0
M  V30 4978 C 492.529 -3.7671 4.32293 0
M  V30 4979 N 492.025 -4.44085 5.31752 0
M  V30 4980 N 493.818 -3.73505 4.2006 0
M  V30 4981 H 485.969 -0.496212 2.06522 0
M  V30 4982 H 488.232 -0.281784 0.905153 0
M  V30 4983 H 487.938 -1.59531 3.13437 0
M  V30 4984 H 487.812 -3.06996 2.19165 0
M  V30 4985 H 490.199 -2.65336 1.29154 0
M  V30 4986 H 490.28 -1.18078 2.26917 0
M  V30 4987 H 489.924 -2.58424 4.37241 0
M  V30 4988 H 489.854 -4.05132 3.36416 0
M  V30 4989 H 492.345 -2.63287 2.71088 0
M  V30 4990 H 492.658 -4.91797 5.96117 0
M  V30 4991 H 491.003 -4.42822 5.35662 0
M  V30 4992 H 494.194 -3.20033 3.41609 0
M  V30 4993 H 494.367 -4.24253 4.8981 0
M  V30 4994 N 487.773 -1.03688 -1.18687 0
M  V30 4995 C 489.022 -0.733235 -1.879 0
M  V30 4996 C 489.335 0.741745 -1.8099 0
M  V30 4997 O 490.541 1.15875 -2.4553 0
M  V30 4998 C 488.997 -1.26127 -3.37076 0
M  V30 4999 C 488.605 -2.76461 -3.52524 0
M  V30 5000 C 490.349 -1.03398 -4.11715 0
M  V30 5001 C 488.256 -3.22642 -4.95637 0
M  V30 5002 H 487.186 -0.270584 -0.703776 0
M  V30 5003 H 489.837 -1.25222 -1.34133 0
M  V30 5004 H 488.219 -0.670165 -3.90288 0
M  V30 5005 H 489.393 -3.41296 -3.09602 0
M  V30 5006 H 487.708 -2.97559 -2.91286 0
M  V30 5007 H 490.305 -1.3542 -5.17267 0
M  V30 5008 H 490.648 0.0289246 -4.1629 0
M  V30 5009 H 491.181 -1.5895 -3.64664 0
M  V30 5010 H 487.92 -4.28296 -4.96228 0
M  V30 5011 H 487.44 -2.62539 -5.39289 0
M  V30 5012 H 489.119 -3.16444 -5.64333 0
M  V30 5013 N 489.251 1.34841 -0.815825 0
M  V30 5014 C 490.201 2.27075 -0.205169 0
M  V30 5015 C 491.185 1.48205 0.626414 0
M  V30 5016 O 492.377 1.70306 0.482157 0
M  V30 5017 C 489.506 3.37322 0.637871 0
M  V30 5018 C 488.592 4.23609 -0.203948 0
M  V30 5019 N 488.983 4.89558 -1.27149 0
M  V30 5020 C 487.281 4.45998 0.0128971 0
M  V30 5021 C 487.982 5.53597 -1.7862 0
M  V30 5022 N 486.958 5.32535 -1.0912 0
M  V30 5023 H 490.76 2.75563 -1.02187 0
M  V30 5024 H 488.274 1.48477 -0.657912 0
M  V30 5025 H 490.271 4.02359 1.09146 0
M  V30 5026 H 488.931 2.90385 1.45281 0
M  V30 5027 H 489.942 4.9077 -1.65423 0
M  V30 5028 H 486.619 4.09837 0.79624 0
M  V30 5029 H 488.009 6.16184 -2.67892 0
M  V30 5030 N 490.729 0.570148 1.46925 0
M  V30 5031 C 491.957 0.0561966 2.06824 0
M  V30 5032 C 492.372 -1.24326 1.42086 0
M  V30 5033 O 491.729 -1.74882 0.521794 0
M  V30 5034 C 491.78 -0.129517 3.61268 0
M  V30 5035 O 491.501 1.1185 4.23581 0
M  V30 5036 C 493.002 -0.679266 4.38065 0
M  V30 5037 H 490.222 0.0517261 0.669003 0
M  V30 5038 H 492.766 0.787243 1.8874 0
M  V30 5039 H 490.921 -0.810739 3.78822 0
M  V30 5040 H 491.335 0.924375 5.1629 0
M  V30 5041 H 492.809 -0.758445 5.46765 0
M  V30 5042 H 493.286 -1.69346 4.05239 0
M  V30 5043 H 493.892 -0.0333237 4.25287 0
M  V30 5044 N 492.207 -1.54576 0.307264 0
M  V30 5045 C 493.155 -2.25208 -0.581723 0
M  V30 5046 C 494.149 -1.26031 -1.13192 0
M  V30 5047 O 495.355 -1.43862 -1.08184 0
M  V30 5048 H 491.73 -0.723173 -0.206214 0
M  V30 5049 H 493.701 -2.98378 0.0364663 0
M  V30 5050 C 492.45 -3.01086 -1.73904 0
M  V30 5051 H 491.773 -3.77208 -1.32491 0
M  V30 5052 H 493.213 -3.5378 -2.33701 0
M  V30 5053 C 491.672 -2.08422 -2.64692 0
M  V30 5054 O 492.202 -1.65636 -3.65961 0
M  V30 5055 N 490.408 -1.74247 -2.32564 0
M  V30 5056 H 489.955 -2.09238 -1.50257 0
M  V30 5057 H 489.913 -1.12524 -2.93574 0
M  V30 5058 N 493.685 -0.035106 -1.57561 0
M  V30 5059 C 494.91 0.655802 -1.96759 0
M  V30 5060 C 495.335 1.64523 -0.911809 0
M  V30 5061 O 494.693 1.80857 0.126673 0
M  V30 5062 C 494.741 1.33326 -3.35047 0
M  V30 5063 O 493.845 2.44866 -3.31835 0
M  V30 5064 H 493.186 0.171807 -0.641388 0
M  V30 5065 H 495.716 -0.0987369 -2.04362 0
M  V30 5066 H 495.726 1.68867 -3.71413 0
M  V30 5067 H 494.401 0.608033 -4.11431 0
M  V30 5068 H 492.978 2.11392 -3.07193 0
M  V30 5069 N 495.163 1.55791 0.238111 0
M  V30 5070 C 496.409 1.79211 0.962035 0
M  V30 5071 C 496.764 0.605463 1.82625 0
M  V30 5072 O 496.057 -0.40104 1.87356 0
M  V30 5073 C 496.251 3.05869 1.84875 0
M  V30 5074 C 496.08 4.36739 1.07186 0
M  V30 5075 C 494.85 4.99346 0.773424 0
M  V30 5076 C 497.048 5.1237 0.445168 0
M  V30 5077 N 495.03 6.13894 -0.0266037 0
M  V30 5078 C 496.401 6.19613 -0.219023 0
M  V30 5079 C 498.456 4.96622 0.356522 0
M  V30 5080 C 497.159 7.1282 -0.963358 0
M  V30 5081 C 499.185 5.90214 -0.374304 0
M  V30 5082 C 498.547 6.96872 -1.0271 0
M  V30 5083 H 494.646 0.707627 0.332849 0
M  V30 5084 H 497.23 1.93284 0.234368 0
M  V30 5085 H 495.401 2.93108 2.54837 0
M  V30 5086 H 497.133 3.17547 2.5089 0
M  V30 5087 H 493.888 4.60948 1.08738 0
M  V30 5088 H 494.312 6.75727 -0.414968 0
M  V30 5089 H 498.954 4.14232 0.846878 0
M  V30 5090 H 496.672 7.94704 -1.46529 0
M  V30 5091 H 500.258 5.80106 -0.443678 0
M  V30 5092 H 499.138 7.68045 -1.58358 0
M  V30 5093 N 496.642 -0.504142 1.49319 0
M  V30 5094 C 497.89 -1.25598 1.58334 0
M  V30 5095 C 498.211 -1.93114 0.270538 0
M  V30 5096 O 497.481 -1.82585 -0.709891 0
M  V30 5097 H 496.061 -0.466571 0.58337 0
M  V30 5098 H 498.723 -0.584547 1.85928 0
M  V30 5099 H 497.819 -2.02159 2.37778 0
M  V30 5100 N 498.12 -1.38341 -0.754957 0
M  V30 5101 C 499.083 -1.35262 -1.85032 0
M  V30 5102 C 500.083 -0.253393 -1.58791 0
M  V30 5103 O 501.273 -0.510205 -1.66561 0
M  V30 5104 C 498.405 -1.10544 -3.22479 0
M  V30 5105 H 499.598 -2.32712 -1.8917 0
M  V30 5106 H 497.151 -1.23614 -0.956515 0
M  V30 5107 H 497.886 -0.136952 -3.24011 0
M  V30 5108 H 497.671 -1.90127 -3.4292 0
M  V30 5109 H 499.161 -1.11082 -4.02555 0
M  V30 5110 N 499.598 0.982988 -1.23187 0
M  V30 5111 C 500.561 2.05649 -1.01198 0
M  V30 5112 C 501.561 1.6078 0.0252464 0
M  V30 5113 O 502.751 1.72878 -0.214243 0
M  V30 5114 C 499.883 3.36744 -0.530656 0
M  V30 5115 H 501.076 2.2659 -1.96461 0
M  V30 5116 H 498.629 1.15602 -1.05195 0
M  V30 5117 H 499.364 3.21492 0.425873 0
M  V30 5118 H 499.149 3.7065 -1.2791 0
M  V30 5119 H 500.639 4.15705 -0.397366 0
M  V30 5120 N 501.076 1.04316 1.18135 0
M  V30 5121 C 502.322 0.749128 1.88457 0
M  V30 5122 C 502.655 -0.72149 1.803 0
M  V30 5123 O 501.93 -1.52676 1.205 0
M  V30 5124 C 502.213 1.21905 3.38838 0
M  V30 5125 C 502.066 2.75195 3.55792 0
M  V30 5126 C 503.385 0.811085 4.32561 0
M  V30 5127 H 500.504 0.273611 0.684329 0
M  V30 5128 H 503.146 1.29561 1.38975 0
M  V30 5129 H 501.296 0.754137 3.8111 0
M  V30 5130 H 502.968 3.29743 3.22595 0
M  V30 5131 H 501.211 3.14899 2.98364 0
M  V30 5132 H 501.882 3.03135 4.61317 0
M  V30 5133 H 504.358 1.21118 3.98082 0
M  V30 5134 H 503.234 1.16761 5.36338 0
M  V30 5135 H 503.495 -0.285596 4.41177 0
M  V30 5136 N 502.554 -1.34406 0.822964 0
M  V30 5137 C 503.502 -2.31428 0.233165 0
M  V30 5138 C 504.496 -1.57404 -0.626118 0
M  V30 5139 O 505.702 -1.72402 -0.517453 0
M  V30 5140 H 502.077 -0.749863 0.0566557 0
M  V30 5141 H 504.048 -2.78699 1.06628 0
M  V30 5142 C 502.797 -3.42653 -0.590264 0
M  V30 5143 H 502.12 -3.99753 0.0616129 0
M  V30 5144 H 503.56 -4.12778 -0.969054 0
M  V30 5145 C 502.019 -2.87112 -1.76262 0
M  V30 5146 O 502.549 -2.81995 -2.8608 0
M  V30 5147 N 500.755 -2.43934 -1.57938 0
M  V30 5148 H 500.302 -2.48296 -0.686078 0
M  V30 5149 H 500.26 -2.07123 -2.36532 0
M  V30 5150 N 504.032 -0.577932 -1.46621 0
M  V30 5151 C 505.28 -0.061566 -2.02006 0
M  V30 5152 C 505.601 1.30117 -1.4524 0
M  V30 5153 O 504.871 1.85313 -0.63529 0
M  V30 5154 H 503.451 -0.0197692 -0.746738 0
M  V30 5155 H 506.113 -0.752631 -1.79782 0
M  V30 5156 H 505.209 0.0110238 -3.12098 0
M  V30 5157 N 505.51 1.54411 -0.315457 0
M  V30 5158 C 506.473 2.22713 0.54142 0
M  V30 5159 C 507.473 1.2179 1.04995 0
M  V30 5160 O 508.663 1.46426 0.943667 0
M  V30 5161 C 505.795 2.92485 1.75116 0
M  V30 5162 H 506.988 2.99849 -0.0555508 0
M  V30 5163 H 504.541 1.56159 -0.0664453 0
M  V30 5164 H 505.276 2.19466 2.38758 0
M  V30 5165 H 505.061 3.66483 1.39401 0
M  V30 5166 H 506.551 3.44548 2.35959 0
M  V30 5167 N 506.988 0.0434614 1.5754 0
M  V30 5168 C 508.218 -0.640905 1.96408 0
M  V30 5169 C 508.626 -1.65365 0.919297 0
M  V30 5170 O 507.969 -1.83395 -0.105795 0
M  V30 5171 C 508.031 -1.39141 3.31482 0
M  V30 5172 C 507.695 -0.535375 4.53853 0
M  V30 5173 C 508.692 0.195335 5.19533 0
M  V30 5174 C 506.377 -0.468564 5.0011 0
M  V30 5175 C 508.371 0.981377 6.298 0
M  V30 5176 C 506.058 0.321171 6.10255 0
M  V30 5177 C 507.056 1.04484 6.74961 0
M  V30 5178 O 506.744 1.8216 7.8299 0
M  V30 5179 H 506.476 -0.180584 0.651433 0
M  V30 5180 H 509.03 0.103848 2.05137 0
M  V30 5181 H 507.26 -2.18162 3.19284 0
M  V30 5182 H 508.949 -1.96526 3.55151 0
M  V30 5183 H 509.715 0.15314 4.84758 0
M  V30 5184 H 505.594 -1.02142 4.49542 0
M  V30 5185 H 509.138 1.54674 6.80237 0
M  V30 5186 H 505.035 0.365032 6.44467 0
M  V30 5187 H 505.803 1.74289 7.99728 0
M  V30 5188 N 508.466 -1.55915 -0.229846 0
M  V30 5189 C 509.694 -1.82617 -0.972562 0
M  V30 5190 C 510.109 -0.621488 -1.78278 0
M  V30 5191 O 509.466 0.409956 -1.77836 0
M  V30 5192 C 509.517 -3.0774 -1.89679 0
M  V30 5193 O 509.238 -4.23559 -1.11934 0
M  V30 5194 C 510.739 -3.47368 -2.75409 0
M  V30 5195 H 507.959 -0.60727 -0.285419 0
M  V30 5196 H 510.503 -2.02996 -0.247579 0
M  V30 5197 H 508.658 -2.89361 -2.57583 0
M  V30 5198 H 509.072 -4.94586 -1.74599 0
M  V30 5199 H 510.546 -4.37977 -3.35977 0
M  V30 5200 H 511.023 -2.68737 -3.47386 0
M  V30 5201 H 511.629 -3.68158 -2.12931 0
M  V30 5202 N 509.944 0.496216 -1.49584 0
M  V30 5203 C 511.172 1.27394 -1.63029 0
M  V30 5204 C 511.587 1.86344 -0.303569 0
M  V30 5205 O 510.944 1.68057 0.711547 0
M  V30 5206 C 510.995 2.40077 -2.70269 0
M  V30 5207 O 510.716 1.83549 -3.97796 0
M  V30 5208 C 512.217 3.31372 -2.94462 0
M  V30 5209 H 509.437 0.386211 -0.54871 0
M  V30 5210 H 511.981 0.595163 -1.95648 0
M  V30 5211 H 510.136 3.03775 -2.40415 0
M  V30 5212 H 510.55 2.57561 -4.56905 0
M  V30 5213 H 512.024 4.06707 -3.73221 0
M  V30 5214 H 512.501 3.88654 -2.0456 0
M  V30 5215 H 513.107 2.73435 -3.25751 0
M  V30 5216 N 511.423 1.38739 0.74761 0
M  V30 5217 C 512.7 1.25791 1.49786 0
M  V30 5218 C 513.08 -0.138075 2.10648 0
M  V30 5219 O 512.428 -1.14815 1.9756 0
M  V30 5220 C 512.638 2.37265 2.55942 0
M  V30 5221 C 513.986 2.75978 3.22679 0
M  V30 5222 O 515.01 2.36621 2.6625 0
M  V30 5223 O 513.869 3.43867 4.24756 0
M  V30 5224 H 510.963 0.492251 0.664543 0
M  V30 5225 H 513.509 1.50582 0.782511 0
M  V30 5226 H 512.281 3.30644 2.0926 0
M  V30 5227 H 511.904 2.14071 3.35051 0
M  V30 5228 N 512.901 -0.976442 1.23707 0
M  V30 5229 C 514.126 -1.75875 1.09922 0
M  V30 5230 C 514.551 -1.84911 -0.34489 0
M  V30 5231 O 513.909 -1.31363 -1.24954 0
M  V30 5232 C 513.957 -3.16179 1.73388 0
M  V30 5233 O 513.061 -4.00124 0.99871 0
M  V30 5234 H 512.402 -0.540954 0.385052 0
M  V30 5235 H 514.932 -1.22546 1.6384 0
M  V30 5236 H 514.942 -3.66741 1.78788 0
M  V30 5237 H 513.617 -3.08917 2.78466 0
M  V30 5238 H 512.194 -3.58624 1.02193 0
M  V30 5239 N 514.379 -1.04941 -1.1758 0
M  V30 5240 C 515.795 -0.770282 -1.39781 0
M  V30 5241 C 515.995 0.636417 -1.91186 0
M  V30 5242 O 515.051 1.39923 -2.10185 0
M  V30 5243 C 516.364 -1.82376 -2.3908 0
M  V30 5244 C 517.912 -1.84569 -2.52791 0
M  V30 5245 C 518.387 -2.88933 -3.55361 0
M  V30 5246 N 519.878 -2.8788 -3.62877 0
M  V30 5247 C 520.613 -3.65282 -4.41992 0
M  V30 5248 N 520.109 -4.52461 -5.24643 0
M  V30 5249 N 521.902 -3.53732 -4.36841 0
M  V30 5250 H 514.053 -1.95705 -0.825438 0
M  V30 5251 H 516.316 -0.847284 -0.425222 0
M  V30 5252 H 516.022 -2.83323 -2.08376 0
M  V30 5253 H 515.896 -1.66327 -3.38549 0
M  V30 5254 H 518.283 -0.842879 -2.82807 0
M  V30 5255 H 518.364 -2.04696 -1.53406 0
M  V30 5256 H 518.008 -3.89398 -3.26085 0
M  V30 5257 H 517.938 -2.66059 -4.54445 0
M  V30 5258 H 520.429 -2.24666 -3.03864 0
M  V30 5259 H 520.742 -5.08211 -5.82187 0
M  V30 5260 H 519.087 -4.56524 -5.24033 0
M  V30 5261 H 522.278 -2.85021 -3.71323 0
M  V30 5262 H 522.451 -4.14302 -4.98255 0
M  V30 5263 N 515.857 1.33968 -0.830081 0
M  V30 5264 C 516.805 2.31301 -0.245435 0
M  V30 5265 C 517.799 1.57734 0.617762 0
M  V30 5266 O 519.005 1.72674 0.508303 0
M  V30 5267 H 515.38 0.749552 -0.0606316 0
M  V30 5268 H 517.351 2.78129 -1.08105 0
M  V30 5269 C 516.1 3.42961 0.572084 0
M  V30 5270 H 515.423 3.99714 -0.0828118 0
M  V30 5271 H 516.863 4.13286 0.94715 0
M  V30 5272 C 515.322 2.88043 1.74737 0
M  V30 5273 O 515.852 2.83508 2.8458 0
M  V30 5274 N 514.058 2.44768 1.56642 0
M  V30 5275 H 513.605 2.48656 0.672901 0
M  V30 5276 H 513.563 2.08375 2.3543 0
M  V30 5277 N 517.335 0.585699 1.46312 0
M  V30 5278 C 518.581 0.0725284 2.0267 0
M  V30 5279 C 518.914 -1.28523 1.45586 0
M  V30 5280 O 518.189 -1.84283 0.622101 0
M  V30 5281 C 518.472 0.0099788 3.60099 0
M  V30 5282 C 518.325 1.39685 4.27561 0
M  V30 5283 C 519.644 -0.689117 4.34671 0
M  V30 5284 H 516.763 0.0278307 0.736474 0
M  V30 5285 H 519.405 0.753472 1.74421 0
M  V30 5286 H 517.555 -0.56992 3.84297 0
M  V30 5287 H 519.227 2.02215 4.14617 0
M  V30 5288 H 517.47 1.96374 3.86807 0
M  V30 5289 H 518.141 1.30553 5.36339 0
M  V30 5290 H 520.617 -0.196446 4.15636 0
M  V30 5291 H 519.493 -0.701921 5.44393 0
M  V30 5292 H 519.754 -1.75101 4.05946 0
M  V30 5293 N 518.813 -1.54241 0.323641 0
M  V30 5294 C 520.09 -1.92741 -0.333181 0
M  V30 5295 C 520.47 -1.25326 -1.69872 0
M  V30 5296 O 519.818 -0.396991 -2.25025 0
M  V30 5297 C 520.028 -3.46399 -0.425322 0
M  V30 5298 C 521.376 -4.19029 -0.68557 0
M  V30 5299 O 522.4 -3.52555 -0.50824 0
M  V30 5300 O 521.259 -5.36751 -1.02767 0
M  V30 5301 H 518.353 -0.804811 -0.190286 0
M  V30 5302 H 520.899 -1.65542 0.373361 0
M  V30 5303 H 519.671 -3.87643 0.533737 0
M  V30 5304 H 519.294 -3.79704 -1.17944 0
M  V30 5305 N 520.291 -0.0518155 -1.57515 0
M  V30 5306 C 521.568 0.661727 -1.84067 0
M  V30 5307 C 521.948 1.88999 -0.940351 0
M  V30 5308 O 521.296 2.285 -0.00155404 0
M  V30 5309 C 521.506 1.01841 -3.3381 0
M  V30 5310 C 522.854 1.40043 -4.00841 0
M  V30 5311 O 523.878 1.11073 -3.38439 0
M  V30 5312 O 522.737 1.94111 -5.10865 0
M  V30 5313 H 519.831 0.326702 -0.759733 0
M  V30 5314 H 522.377 -0.0812277 -1.69505 0
M  V30 5315 H 521.149 0.145202 -3.91031 0
M  V30 5316 H 520.772 1.81879 -3.53562 0
M  V30 5317 N 521.769 1.56035 0.221574 0
M  V30 5318 C 522.999 1.82864 0.961468 0
M  V30 5319 C 523.407 0.628703 1.78449 0
M  V30 5320 O 522.75 -0.412109 1.79018 0
M  V30 5321 C 522.812 3.03425 1.92804 0
M  V30 5322 C 522.476 4.38429 1.28954 0
M  V30 5323 C 523.473 5.15441 0.679431 0
M  V30 5324 C 521.158 4.85151 1.30131 0
M  V30 5325 C 523.152 6.37337 0.0896148 0
M  V30 5326 C 520.839 6.06989 0.707651 0
M  V30 5327 C 521.837 6.82923 0.102855 0
M  V30 5328 O 521.525 8.02456 -0.48157 0
M  V30 5329 H 521.257 0.611883 0.28736 0
M  V30 5330 H 523.811 2.0397 0.241932 0
M  V30 5331 H 522.041 2.78138 2.68656 0
M  V30 5332 H 523.73 3.17127 2.53348 0
M  V30 5333 H 524.496 4.80452 0.662661 0
M  V30 5334 H 520.375 4.26021 1.76145 0
M  V30 5335 H 523.919 6.96547 -0.383069 0
M  V30 5336 H 519.816 6.41451 0.721834 0
M  V30 5337 H 520.584 8.17636 -0.375887 0
M  V30 5338 N 523.247 -0.488276 1.49845 0
M  V30 5339 C 524.493 -1.24341 1.6021 0
M  V30 5340 C 524.826 -1.91967 0.293651 0
M  V30 5341 O 524.101 -1.81323 -0.703718 0
M  V30 5342 C 524.384 -2.3005 2.77036 0
M  V30 5343 C 524.237 -1.66842 4.17713 0
M  V30 5344 C 525.556 -3.31509 2.89464 0
M  V30 5345 H 522.675 -0.450704 0.583125 0
M  V30 5346 H 525.317 -0.539673 1.82174 0
M  V30 5347 H 523.467 -2.90071 2.58439 0
M  V30 5348 H 525.139 -1.1055 4.47858 0
M  V30 5349 H 523.382 -0.972079 4.22768 0
M  V30 5350 H 524.053 -2.43576 4.95353 0
M  V30 5351 H 526.529 -2.81493 3.06433 0
M  V30 5352 H 525.405 -4.02822 3.72861 0
M  V30 5353 H 525.666 -3.94603 1.99351 0
M  V30 5354 N 524.725 -1.39134 -0.740242 0
M  V30 5355 C 526.141 -1.20623 -1.0451 0
M  V30 5356 C 526.341 -0.0641651 -2.01398 0
M  V30 5357 O 525.397 0.585843 -2.4561 0
M  V30 5358 C 526.71 -2.53815 -1.6124 0
M  V30 5359 C 528.258 -2.60615 -1.73346 0
M  V30 5360 C 528.733 -3.94015 -2.33486 0
M  V30 5361 N 530.224 -3.95627 -2.40902 0
M  V30 5362 C 530.959 -4.95616 -2.88361 0
M  V30 5363 N 530.455 -6.06003 -3.35756 0
M  V30 5364 N 532.248 -4.82998 -2.87523 0
M  V30 5365 H 524.399 -2.12176 -0.0975576 0
M  V30 5366 H 526.662 -0.942066 -0.105904 0
M  V30 5367 H 526.368 -3.37911 -0.975144 0
M  V30 5368 H 526.242 -2.73162 -2.6012 0
M  V30 5369 H 528.629 -1.76906 -2.36195 0
M  V30 5370 H 528.71 -2.45123 -0.731336 0
M  V30 5371 H 528.354 -4.78153 -1.71267 0
M  V30 5372 H 528.284 -4.06825 -3.34366 0
M  V30 5373 H 530.775 -3.15903 -2.07398 0
M  V30 5374 H 531.088 -6.78215 -3.70464 0
M  V30 5375 H 529.433 -6.09604 -3.33778 0
M  V30 5376 H 532.624 -3.95866 -2.49816 0
M  V30 5377 H 532.797 -5.61072 -3.24196 0
M  V30 5378 N 526.204 0.969867 -1.24223 0
M  V30 5379 C 527.151 2.06407 -1.0327 0
M  V30 5380 C 528.121 1.66014 0.0533 0
M  V30 5381 O 529.306 1.90533 -0.100896 0
M  V30 5382 C 526.446 3.3909 -0.641262 0
M  V30 5383 C 525.559 3.9269 -1.80051 0
M  V30 5384 C 524.694 5.13631 -1.35486 0
M  V30 5385 C 523.733 5.59423 -2.48419 0
M  V30 5386 N 522.87 6.71586 -2.04737 0
M  V30 5387 H 527.71 2.23663 -1.96923 0
M  V30 5388 H 525.247 1.09624 -0.980862 0
M  V30 5389 H 527.205 4.15323 -0.395351 0
M  V30 5390 H 525.835 3.21765 0.258269 0
M  V30 5391 H 524.887 3.13116 -2.16014 0
M  V30 5392 H 526.199 4.22636 -2.64916 0
M  V30 5393 H 525.353 5.97231 -1.0677 0
M  V30 5394 H 524.092 4.85364 -0.476722 0
M  V30 5395 H 523.097 4.74398 -2.77897 0
M  V30 5396 H 524.322 5.89705 -3.36786 0
M  V30 5397 H 522.268 6.45058 -1.19318 0
M  V30 5398 H 522.185 7.0097 -2.83156 0
M  V30 5399 H 523.453 7.58633 -1.79154 0
M  V30 5400 N 527.682 1.05563 1.17022 0
M  V30 5401 C 528.63 0.653887 2.2322 0
M  V30 5402 C 529.624 -0.326642 1.66221 0
M  V30 5403 O 530.83 -0.192301 1.7897 0
M  V30 5404 H 527.205 0.193297 0.726733 0
M  V30 5405 H 529.176 1.5596 2.54399 0
M  V30 5406 C 527.925 0.0485434 3.47666 0
M  V30 5407 H 527.248 0.79413 3.91834 0
M  V30 5408 H 528.688 -0.195133 4.23551 0
M  V30 5409 C 527.147 -1.20583 3.14581 0
M  V30 5410 O 527.677 -2.29475 3.29703 0
M  V30 5411 N 525.883 -1.10493 2.68774 0
M  V30 5412 H 525.43 -0.218795 2.56669 0
M  V30 5413 H 525.388 -1.94507 2.47011 0
M  V30 5414 N 529.16 -1.33526 0.837174 0
M  V30 5415 C 530.437 -1.92369 0.354065 0
M  V30 5416 C 530.817 -1.76348 -1.16038 0
M  V30 5417 O 530.165 -1.15083 -1.97403 0
M  V30 5418 C 530.375 -3.39728 0.799101 0
M  V30 5419 C 531.723 -4.16877 0.806139 0
M  V30 5420 O 532.747 -3.48373 0.742597 0
M  V30 5421 O 531.606 -5.39166 0.892345 0
M  V30 5422 H 528.7 -0.820952 0.0998378 0
M  V30 5423 H 531.246 -1.42409 0.922913 0
M  V30 5424 H 530.018 -3.45254 1.84162 0
M  V30 5425 H 529.641 -3.97062 0.206731 0
M  V30 5426 N 530.638 -0.59345 -1.46 0
M  V30 5427 C 531.571 0.182196 -2.27472 0
M  V30 5428 C 532.549 0.886901 -1.36282 0
M  V30 5429 O 533.733 0.898627 -1.65701 0
M  V30 5430 C 530.86 1.26236 -3.14296 0
M  V30 5431 C 529.906 0.662331 -4.21326 0
M  V30 5432 S 530.739 -0.519017 -5.32979 0
M  V30 5433 C 531.895 0.562086 -6.23371 0
M  V30 5434 H 532.128 -0.509056 -2.92909 0
M  V30 5435 H 529.661 -0.380607 -1.49635 0
M  V30 5436 H 531.619 1.88075 -3.64881 0
M  V30 5437 H 530.28 1.92562 -2.48151 0
M  V30 5438 H 529.473 1.47461 -4.81945 0
M  V30 5439 H 529.075 0.119381 -3.73809 0
M  V30 5440 H 531.367 1.44494 -6.61912 0
M  V30 5441 H 532.31 -0.00760776 -7.081 0
M  V30 5442 H 532.718 0.871061 -5.57739 0
M  V30 5443 N 532.116 1.54067 -0.331816 0
M  V30 5444 C 533.344 2.05131 0.269996 0
M  V30 5445 C 533.759 1.20749 1.45138 0
M  V30 5446 O 533.116 0.240069 1.80914 0
M  V30 5447 C 533.167 3.54728 0.696456 0
M  V30 5448 O 532.888 4.35906 -0.43794 0
M  V30 5449 C 534.389 4.21916 1.36021 0
M  V30 5450 H 531.609 0.668807 0.0542042 0
M  V30 5451 H 534.153 1.98777 -0.4804 0
M  V30 5452 H 532.308 3.61342 1.39681 0
M  V30 5453 H 532.722 5.24404 -0.100334 0
M  V30 5454 H 534.196 5.28015 1.60947 0
M  V30 5455 H 534.673 3.73538 2.31011 0
M  V30 5456 H 535.279 4.19463 0.702212 0
M  V30 5457 N 533.594 0.0601682 1.57485 0
M  V30 5458 C 534.843 -0.611101 1.9222 0
M  V30 5459 C 535.156 -1.71469 0.941159 0
M  V30 5460 O 536.362 -2.44473 1.18089 0
M  V30 5461 C 534.818 -1.13832 3.41424 0
M  V30 5462 C 534.426 -0.0663596 4.47951 0
M  V30 5463 C 536.17 -1.78432 3.85178 0
M  V30 5464 C 534.077 -0.606965 5.88277 0
M  V30 5465 H 533.007 -0.232033 0.71741 0
M  V30 5466 H 535.658 0.130518 1.83035 0
M  V30 5467 H 534.04 -1.93254 3.45643 0
M  V30 5468 H 535.214 0.707682 4.55333 0
M  V30 5469 H 533.529 0.482715 4.13593 0
M  V30 5470 H 536.126 -2.1989 4.87394 0
M  V30 5471 H 536.469 -2.63966 3.21913 0
M  V30 5472 H 537.002 -1.05651 3.83514 0
M  V30 5473 H 533.741 0.21095 6.5516 0
M  V30 5474 H 533.261 -1.34879 5.84438 0
M  V30 5475 H 534.94 -1.08704 6.37803 0
M  V30 5476 N 535.072 -1.5615 -0.213296 0
M  V30 5477 C 536.002 -1.96109 -1.26742 0
M  V30 5478 C 536.983 -0.830448 -1.48451 0
M  V30 5479 O 538.168 -1.09339 -1.60495 0
M  V30 5480 C 535.298 -2.28492 -2.61551 0
M  V30 5481 C 534.252 -3.44124 -2.54485 0
M  V30 5482 C 533.578 -3.62134 -3.93399 0
M  V30 5483 C 534.878 -4.78855 -2.08556 0
M  V30 5484 H 536.572 -2.84412 -0.935434 0
M  V30 5485 H 534.118 -1.36836 -0.44854 0
M  V30 5486 H 536.071 -2.55039 -3.3546 0
M  V30 5487 H 534.795 -1.37052 -2.96453 0
M  V30 5488 H 533.454 -3.17639 -1.83033 0
M  V30 5489 H 533.102 -2.68055 -4.25623 0
M  V30 5490 H 532.802 -4.39913 -3.89551 0
M  V30 5491 H 534.326 -3.91038 -4.68958 0
M  V30 5492 H 535.74 -5.04552 -2.72213 0
M  V30 5493 H 534.137 -5.59975 -2.1575 0
M  V30 5494 H 535.207 -4.73657 -1.03811 0
M  V30 5495 N 536.55 0.480323 -1.50102 0
M  V30 5496 C 537.797 1.23307 -1.60629 0
M  V30 5497 C 538.125 1.92135 -0.302375 0
M  V30 5498 O 537.38 1.82321 0.711154 0
M  V30 5499 C 537.679 2.30708 -2.72963 0
M  V30 5500 C 537.345 1.79195 -4.13763 0
M  V30 5501 C 536.007 1.64867 -4.52076 0
M  V30 5502 C 538.359 1.40878 -5.018 0
M  V30 5503 C 535.687 1.10631 -5.76175 0
M  V30 5504 C 538.039 0.880872 -6.26437 0
M  V30 5505 C 536.703 0.724146 -6.6356 0
M  V30 5506 H 535.973 0.451211 -0.587784 0
M  V30 5507 H 538.62 0.53051 -1.84005 0
M  V30 5508 H 536.925 3.06834 -2.43639 0
M  V30 5509 H 538.622 2.88692 -2.78313 0
M  V30 5510 H 535.212 1.91313 -3.83533 0
M  V30 5511 H 539.396 1.50786 -4.7284 0
M  V30 5512 H 534.652 0.972263 -6.0362 0
M  V30 5513 H 538.826 0.575269 -6.9402 0
M  V30 5514 H 536.453 0.301722 -7.59601 0
M  V30 5515 N 538.028 1.39524 0.732853 0
M  V30 5516 C 538.991 1.38189 1.82857 0
M  V30 5517 C 539.991 0.278624 1.58368 0
M  V30 5518 O 541.181 0.536639 1.65728 0
M  V30 5519 C 538.313 1.15661 3.2068 0
M  V30 5520 H 539.506 2.35692 1.85444 0
M  V30 5521 H 537.059 1.2512 0.936728 0
M  V30 5522 H 537.794 0.188482 3.23752 0
M  V30 5523 H 537.579 1.95559 3.39852 0
M  V30 5524 H 539.069 1.17472 4.00737 0
M  V30 5525 N 539.506 -0.963266 1.24736 0
M  V30 5526 C 540.469 -2.04013 1.04457 0
M  V30 5527 C 541.469 -1.608 0.000335555 0
M  V30 5528 O 542.659 -1.72515 0.241719 0
M  V30 5529 C 539.791 -3.35858 0.584162 0
M  V30 5530 H 540.984 -2.23436 2.00041 0
M  V30 5531 H 538.537 -1.13914 1.07021 0
M  V30 5532 H 539.272 -3.22128 -0.374673 0
M  V30 5533 H 539.057 -3.68568 1.3379 0
M  V30 5534 H 540.547 -4.1502 0.463451 0
M  V30 5535 N 540.985 -1.06182 -1.16461 0
M  V30 5536 C 542.233 -0.776326 -1.86595 0
M  V30 5537 C 542.554 0.69921 -1.82033 0
M  V30 5538 O 541.824 1.50579 -1.2531 0
M  V30 5539 H 540.404 -0.284184 -0.690832 0
M  V30 5540 H 543.066 -1.34308 -1.41235 0
M  V30 5541 H 542.162 -1.10022 -2.92064 0
M  V30 5542 N 542.463 1.3308 -0.844243 0
M  V30 5543 C 543.411 2.31028 -0.269954 0
M  V30 5544 C 544.405 1.58381 0.600997 0
M  V30 5545 O 545.611 1.73203 0.48996 0
M  V30 5546 H 541.986 0.748866 -0.0685782 0
M  V30 5547 H 543.957 2.76967 -1.11049 0
M  V30 5548 C 542.706 3.43549 0.535676 0
M  V30 5549 H 542.029 3.99604 -0.125202 0
M  V30 5550 H 543.469 4.14267 0.903262 0
M  V30 5551 C 541.928 2.8988 1.71672 0
M  V30 5552 O 542.458 2.86511 2.81557 0
M  V30 5553 N 540.664 2.46416 1.54037 0
M  V30 5554 H 540.211 2.49356 0.64649 0
M  V30 5555 H 540.169 2.1086 2.33207 0
M  V30 5556 N 543.941 0.601185 1.45683 0
M  V30 5557 C 544.851 -0.123395 2.34275 0
M  V30 5558 C 545.867 -0.86702 1.5086 0
M  V30 5559 O 547.043 -0.826049 1.8368 0
M  V30 5560 C 544.108 -1.11237 3.2837 0
M  V30 5561 C 543.169 -0.371405 4.2769 0
M  V30 5562 C 542.402 -1.31327 5.1729 0
M  V30 5563 O 542.625 -2.55078 5.10188 0
M  V30 5564 O 541.559 -0.813811 5.96373 0
M  V30 5565 H 545.385 0.604483 2.97623 0
M  V30 5566 H 542.97 0.361477 1.44961 0
M  V30 5567 H 544.852 -1.68214 3.8637 0
M  V30 5568 H 543.527 -1.82139 2.67595 0
M  V30 5569 H 542.434 0.24067 3.73325 0
M  V30 5570 H 543.767 0.296998 4.91303 0
M  V30 5571 N 545.419 -1.53889 0.339982 0
M  V30 5572 C 546.667 -2.00458 -0.257112 0
M  V30 5573 C 546.988 -1.22953 -1.51353 0
M  V30 5574 O 546.258 -0.335734 -1.93002 0
M  V30 5575 H 544.838 -0.740544 -0.0979965 0
M  V30 5576 H 547.5 -1.89386 0.460317 0
M  V30 5577 H 546.596 -3.08035 -0.502057 0
M  V30 5578 N 546.897 -0.0685191 -1.57451 0
M  V30 5579 C 548.308 0.464634 -1.80826 0
M  V30 5580 C 548.659 1.69847 -0.982169 0
M  V30 5581 O 547.784 2.15439 -0.203734 0
M  V30 5582 C 548.379 0.849721 -3.27971 0
M  V30 5583 C 546.938 1.32776 -3.52204 0
M  V30 5584 C 546.085 0.311332 -2.75547 0
M  V30 5585 H 549.036 -0.294248 -1.55948 0
M  V30 5586 H 549.057 1.71138 -3.39841 0
M  V30 5587 H 548.569 -0.0484736 -3.8807 0
M  V30 5588 H 546.67 2.24456 -2.97406 0
M  V30 5589 H 546.783 1.30794 -4.60901 0
M  V30 5590 H 545.147 0.787915 -2.42206 0
M  V30 5591 H 545.93 -0.579078 -3.38381 0
M  V30 5592 N 548.375 1.56261 0.205012 0
M  V30 5593 C 549.323 1.94631 1.27364 0
M  V30 5594 C 550.317 0.830434 1.47649 0
M  V30 5595 O 551.523 1.01538 1.48627 0
M  V30 5596 H 547.898 0.618755 0.427371 0
M  V30 5597 H 549.869 2.83768 0.922941 0
M  V30 5598 C 548.618 2.29358 2.61324 0
M  V30 5599 H 547.941 3.14744 2.46528 0
M  V30 5600 H 549.381 2.60076 3.34868 0
M  V30 5601 C 547.84 1.12461 3.17575 0
M  V30 5602 O 548.37 0.394407 3.99759 0
M  V30 5603 N 546.576 0.904036 2.7618 0
M  V30 5604 H 546.123 1.49956 2.09454 0
M  V30 5605 H 546.081 0.123662 3.14157 0
M  V30 5606 N 549.853 -0.472356 1.50355 0
M  V30 5607 C 551.101 -1.22211 1.60962 0
M  V30 5608 C 551.422 -1.92497 0.311439 0
M  V30 5609 O 550.692 -1.8405 -0.671002 0
M  V30 5610 H 549.272 -0.454092 0.593135 0
M  V30 5611 H 551.934 -0.544977 1.87126 0
M  V30 5612 H 551.03 -1.9707 2.42012 0
M  V30 5613 N 551.331 -1.39911 -0.725443 0
M  V30 5614 C 552.579 -1.37382 -1.48224 0
M  V30 5615 C 552.9 0.0264107 -1.94982 0
M  V30 5616 O 552.17 0.979408 -1.6966 0
M  V30 5617 H 550.75 -0.505596 -0.549892 0
M  V30 5618 H 553.412 -1.7487 -0.860608 0
M  V30 5619 H 552.508 -2.04254 -2.3598 0
M  V30 5620 N 552.809 0.956637 -1.25245 0
M  V30 5621 C 554.037 1.73571 -1.12608 0
M  V30 5622 C 554.452 1.86063 0.320324 0
M  V30 5623 O 553.809 1.35691 1.22042 0
M  V30 5624 C 553.86 3.15053 -1.77268 0
M  V30 5625 O 553.581 3.03174 -3.16255 0
M  V30 5626 C 555.082 4.09248 -1.70386 0
M  V30 5627 H 552.302 0.543955 -0.392879 0
M  V30 5628 H 554.846 1.20031 -1.65568 0
M  V30 5629 H 553.001 3.65543 -1.28284 0
M  V30 5630 H 553.415 3.9241 -3.48015 0
M  V30 5631 H 554.889 5.06138 -2.20291 0
M  V30 5632 H 555.366 4.34102 -0.667239 0
M  V30 5633 H 555.972 3.64672 -2.18849 0
M  V30 5634 N 554.287 1.06798 1.15896 0
M  V30 5635 C 555.536 0.782796 1.8589 0
M  V30 5636 C 555.849 -0.693498 1.82893 0
M  V30 5637 O 557.055 -1.09325 2.48516 0
M  V30 5638 C 555.511 1.3502 3.33613 0
M  V30 5639 C 555.119 2.8571 3.45071 0
M  V30 5640 C 556.863 1.14278 4.08829 0
M  V30 5641 C 554.77 3.35669 4.86909 0
M  V30 5642 H 553.7 0.289149 0.696354 0
M  V30 5643 H 556.351 1.28734 1.30766 0
M  V30 5644 H 554.733 0.773407 3.88374 0
M  V30 5645 H 555.907 3.49385 3.00445 0
M  V30 5646 H 554.222 3.05178 2.83294 0
M  V30 5647 H 556.819 1.49087 5.13495 0
M  V30 5648 H 557.162 0.0814575 4.1622 0
M  V30 5649 H 557.695 1.68563 3.60321 0
M  V30 5650 H 554.434 4.41302 4.84698 0
M  V30 5651 H 553.954 2.76745 5.32139 0
M  V30 5652 H 555.633 3.31296 5.55745 0
M  V30 5653 N 555.766 -1.3263 0.851289 0
M  V30 5654 C 556.991 -2.02097 0.466006 0
M  V30 5655 C 557.416 -1.63574 -0.928709 0
M  V30 5656 O 556.774 -0.834665 -1.60944 0
M  V30 5657 C 556.822 -3.55425 0.608737 0
M  V30 5658 O 555.926 -4.10827 -0.359878 0
M  V30 5659 H 555.267 -0.636911 0.187724 0
M  V30 5660 H 557.797 -1.69253 1.14955 0
M  V30 5661 H 557.807 -4.04986 0.495006 0
M  V30 5662 H 556.482 -3.82806 1.62581 0
M  V30 5663 H 555.059 -3.72349 -0.202666 0
M  V30 5664 N 557.244 -0.608902 -1.45362 0
M  V30 5665 C 558.207 0.0992563 -2.28985 0
M  V30 5666 C 559.207 0.793841 -1.39838 0
M  V30 5667 O 560.397 0.641804 -1.61946 0
M  V30 5668 C 557.529 1.15073 -3.20891 0
M  V30 5669 H 558.722 -0.635964 -2.93079 0
M  V30 5670 H 556.275 -0.368007 -1.51906 0
M  V30 5671 H 557.01 1.91667 -2.616 0
M  V30 5672 H 556.795 0.656867 -3.86559 0
M  V30 5673 H 558.285 1.64665 -3.83765 0
M  V30 5674 N 558.722 1.53707 -0.348139 0
M  V30 5675 C 560.133 1.86213 0.134797 0
M  V30 5676 C 560.484 1.26925 1.49614 0
M  V30 5677 O 559.609 0.584573 2.08355 0
M  V30 5678 C 560.204 3.37866 0.251371 0
M  V30 5679 C 558.763 3.70233 0.678543 0
M  V30 5680 C 557.91 2.76683 -0.184925 0
M  V30 5681 H 560.861 1.48204 -0.567571 0
M  V30 5682 H 560.882 3.64908 1.07806 0
M  V30 5683 H 560.394 3.80988 -0.739581 0
M  V30 5684 H 558.495 3.32659 1.67835 0
M  V30 5685 H 558.608 4.76836 0.465251 0
M  V30 5686 H 556.972 2.52374 0.343465 0
M  V30 5687 H 557.755 3.22635 -1.1731 0
M  V30 5688 N 560.2 0.0768682 1.57412 0
M  V30 5689 C 561.448 -0.589918 1.93299 0
M  V30 5690 C 561.769 -1.69842 0.958049 0
M  V30 5691 O 561.039 -1.95899 0.00703261 0
M  V30 5692 H 559.619 -0.220901 0.713591 0
M  V30 5693 H 562.281 0.135917 1.94425 0
M  V30 5694 H 561.377 -1.01195 2.95239 0
M  V30 5695 N 561.678 -1.56367 -0.196722 0
M  V30 5696 C 562.906 -1.84639 -0.933608 0
M  V30 5697 C 563.321 -0.659164 -1.76919 0
M  V30 5698 O 562.678 0.372142 -1.78665 0
M  V30 5699 C 562.729 -3.11694 -1.83109 0
M  V30 5700 O 562.45 -4.25838 -1.02924 0
M  V30 5701 C 563.951 -3.53132 -2.67979 0
M  V30 5702 H 561.171 -0.613188 -0.272473 0
M  V30 5703 H 563.715 -2.03475 -0.204465 0
M  V30 5704 H 561.87 -2.94759 -2.51387 0
M  V30 5705 H 562.284 -4.98178 -1.64069 0
M  V30 5706 H 563.758 -4.45005 -3.26611 0
M  V30 5707 H 564.235 -2.76045 -3.41608 0
M  V30 5708 H 564.841 -3.72592 -2.05074 0
M  V30 5709 N 563.156 0.464375 -1.50603 0
M  V30 5710 C 564.119 1.54393 -1.69397 0
M  V30 5711 C 565.119 1.50566 -0.564504 0
M  V30 5712 O 566.309 1.53066 -0.831645 0
M  V30 5713 C 563.441 2.9401 -1.72543 0
M  V30 5714 H 564.634 1.39044 -2.65719 0
M  V30 5715 H 562.187 0.69122 -1.40185 0
M  V30 5716 H 562.922 3.14795 -0.77938 0
M  V30 5717 H 562.707 2.98195 -2.54602 0
M  V30 5718 H 564.197 3.72375 -1.89015 0
M  V30 5719 N 564.634 1.40294 0.718013 0
M  V30 5720 C 565.581 1.40367 1.8321 0
M  V30 5721 C 566.551 0.260952 1.64037 0
M  V30 5722 O 567.736 0.458648 1.85205 0
M  V30 5723 C 564.876 1.26965 3.20895 0
M  V30 5724 C 563.989 2.50922 3.51656 0
M  V30 5725 C 563.124 2.29981 4.78834 0
M  V30 5726 C 562.163 3.49527 5.02491 0
M  V30 5727 N 561.3 3.27796 6.20882 0
M  V30 5728 H 566.14 2.35593 1.82482 0
M  V30 5729 H 563.677 1.17012 0.891444 0
M  V30 5730 H 565.635 1.17202 4.00399 0
M  V30 5731 H 564.265 0.353591 3.20858 0
M  V30 5732 H 563.317 2.71223 2.66725 0
M  V30 5733 H 564.629 3.39913 3.65048 0
M  V30 5734 H 563.783 2.17558 5.66351 0
M  V30 5735 H 562.522 1.38411 4.67647 0
M  V30 5736 H 561.527 3.6243 4.1343 0
M  V30 5737 H 562.752 4.42021 5.15553 0
M  V30 5738 H 560.698 2.38906 6.1095 0
M  V30 5739 H 560.615 4.10351 6.34939 0
M  V30 5740 H 561.883 3.19101 7.11193 0
M  V30 5741 N 566.112 -0.949982 1.2575 0
M  V30 5742 C 567.06 -2.06869 1.06339 0
M  V30 5743 C 568.054 -1.69399 -0.00708901 0
M  V30 5744 O 569.26 -1.79383 0.148897 0
M  V30 5745 H 565.635 -0.677197 0.326969 0
M  V30 5746 H 567.606 -2.20396 2.01167 0
M  V30 5747 C 566.355 -3.40503 0.703769 0
M  V30 5748 H 565.678 -3.69807 1.51931 0
M  V30 5749 H 567.118 -4.19623 0.607677 0
M  V30 5750 C 565.577 -3.31685 -0.5905 0
M  V30 5751 O 566.107 -3.67085 -1.63131 0
M  V30 5752 N 564.313 -2.84797 -0.577859 0
M  V30 5753 H 563.86 -2.56186 0.26951 0
M  V30 5754 H 563.818 -2.79279 -1.44398 0
M  V30 5755 N 567.59 -1.07411 -1.15328 0
M  V30 5756 C 568.553 -0.698914 -2.18284 0
M  V30 5757 C 569.553 0.261149 -1.58665 0
M  V30 5758 O 570.743 0.0420277 -1.74149 0
M  V30 5759 C 567.875 -0.0302427 -3.40887 0
M  V30 5760 H 569.068 -1.61045 -2.52991 0
M  V30 5761 H 566.621 -0.870724 -1.298 0
M  V30 5762 H 567.356 0.893505 -3.11748 0
M  V30 5763 H 567.141 -0.720759 -3.85419 0
M  V30 5764 H 568.631 0.21759 -4.17033 0
M  V30 5765 N 569.068 1.32177 -0.85831 0
M  V30 5766 C 570.317 1.96392 -0.459689 0
M  V30 5767 C 570.63 1.68659 0.990632 0
M  V30 5768 O 571.836 2.26641 1.49485 0
M  V30 5769 C 570.292 3.51542 -0.7711 0
M  V30 5770 C 569.9 3.8813 -2.2374 0
M  V30 5771 C 571.644 4.2221 -0.44038 0
M  V30 5772 C 569.551 5.36341 -2.49183 0
M  V30 5773 H 568.481 0.735007 -0.168169 0
M  V30 5774 H 571.132 1.50518 -1.0496 0
M  V30 5775 H 569.514 3.95846 -0.11058 0
M  V30 5776 H 570.688 3.54824 -2.94001 0
M  V30 5777 H 569.003 3.30497 -2.533 0
M  V30 5778 H 571.6 5.31234 -0.607855 0
M  V30 5779 H 571.943 4.11683 0.618291 0
M  V30 5780 H 572.476 3.83502 -1.05695 0
M  V30 5781 H 569.215 5.51892 -3.53689 0
M  V30 5782 H 568.735 5.7104 -1.83504 0
M  V30 5783 H 570.414 6.03466 -2.33318 0
M  V30 5784 N 570.547 0.616602 1.45037 0
M  V30 5785 C 571.775 0.121968 2.0654 0
M  V30 5786 C 572.19 -1.19743 1.45969 0
M  V30 5787 O 571.547 -1.73133 0.577168 0
M  V30 5788 C 571.598 -0.0145171 3.61497 0
M  V30 5789 O 571.319 1.25269 4.19809 0
M  V30 5790 C 572.82 -0.539555 4.40004 0
M  V30 5791 H 570.04 0.0729837 0.667019 0
M  V30 5792 H 572.584 0.846891 1.8614 0
M  V30 5793 H 570.739 -0.689809 3.81209 0
M  V30 5794 H 571.153 1.08816 5.13088 0
M  V30 5795 H 572.627 -0.584112 5.48901 0
M  V30 5796 H 573.104 -1.56368 4.10421 0
M  V30 5797 H 573.71 0.101995 4.25178 0
M  V30 5798 N 572.025 -1.5352 0.356285 0
M  V30 5799 C 573.271 -2.01414 -0.236653 0
M  V30 5800 C 573.604 -1.24339 -1.49176 0
M  V30 5801 O 572.879 -0.334496 -1.91602 0
M  V30 5802 C 573.162 -3.56059 -0.537982 0
M  V30 5803 C 573.015 -4.43835 0.730112 0
M  V30 5804 C 574.334 -4.19127 -1.34239 0
M  V30 5805 H 571.453 -0.732135 -0.0845386 0
M  V30 5806 H 574.095 -1.83854 0.479341 0
M  V30 5807 H 572.245 -3.71153 -1.14795 0
M  V30 5808 H 573.917 -4.40555 1.36782 0
M  V30 5809 H 572.16 -4.1218 1.3524 0
M  V30 5810 H 572.831 -5.49958 0.474358 0
M  V30 5811 H 575.307 -4.07809 -0.826498 0
M  V30 5812 H 574.183 -5.27378 -1.52198 0
M  V30 5813 H 574.444 -3.74581 -2.34822 0
M  V30 5814 N 573.503 -0.0852151 -1.57369 0
M  V30 5815 C 574.751 0.579658 -1.93609 0
M  V30 5816 C 575.072 1.69332 -0.967043 0
M  V30 5817 O 574.342 1.95892 -0.0174215 0
M  V30 5818 H 572.922 0.217113 -0.714752 0
M  V30 5819 H 575.584 -0.146226 -1.94351 0
M  V30 5820 H 574.68 0.996276 -2.95771 0
M  V30 5821 N 574.981 1.5647 0.188427 0
M  V30 5822 C 575.944 1.9421 1.21718 0
M  V30 5823 C 576.944 0.823901 1.38089 0
M  V30 5824 O 578.134 1.09122 1.35787 0
M  V30 5825 C 575.266 2.22197 2.58537 0
M  V30 5826 H 576.459 2.86252 0.894418 0
M  V30 5827 H 574.012 1.50263 0.430211 0
M  V30 5828 H 574.747 1.32814 2.95856 0
M  V30 5829 H 574.532 3.03688 2.48025 0
M  V30 5830 H 576.022 2.52376 3.3271 0
M  V30 5831 N 576.459 -0.456382 1.50847 0
M  V30 5832 C 577.687 -1.23026 1.66349 0
M  V30 5833 C 578.102 -1.85473 0.352868 0
M  V30 5834 O 577.459 -1.69885 -0.666739 0
M  V30 5835 C 577.51 -2.32827 2.76539 0
M  V30 5836 O 577.231 -1.72938 4.02522 0
M  V30 5837 C 578.732 -3.23448 3.03144 0
M  V30 5838 H 575.952 -0.371527 0.558756 0
M  V30 5839 H 578.496 -0.543082 1.97157 0
M  V30 5840 H 576.651 -2.97294 2.48384 0
M  V30 5841 H 577.065 -2.45357 4.63573 0
M  V30 5842 H 578.539 -3.96669 3.83872 0
M  V30 5843 H 579.016 -3.83094 2.14793 0
M  V30 5844 H 579.622 -2.64702 3.32886 0
M  V30 5845 N 577.937 -1.40673 -0.710563 0
M  V30 5846 C 578.847 -1.43663 -1.85467 0
M  V30 5847 C 579.863 -0.328721 -1.70867 0
M  V30 5848 O 581.039 -0.574098 -1.93044 0
M  V30 5849 C 578.104 -1.30226 -3.21313 0
M  V30 5850 C 577.165 -2.51204 -3.48131 0
M  V30 5851 C 576.398 -2.38398 -4.77495 0
M  V30 5852 O 576.621 -1.40048 -5.5294 0
M  V30 5853 O 575.555 -3.2787 -5.04762 0
M  V30 5854 H 579.381 -2.40156 -1.859 0
M  V30 5855 H 576.966 -1.22049 -0.861652 0
M  V30 5856 H 578.848 -1.2496 -4.02446 0
M  V30 5857 H 577.523 -0.368419 -3.21597 0
M  V30 5858 H 576.43 -2.62048 -2.66987 0
M  V30 5859 H 577.763 -3.43366 -3.52648 0
M  V30 5860 N 579.415 0.9433 -1.26252 0
M  V30 5861 C 580.363 2.06302 -1.07434 0
M  V30 5862 C 581.357 1.694 -0.00189471 0
M  V30 5863 O 582.563 1.79302 -0.158408 0
M  V30 5864 H 578.938 0.675453 -0.330556 0
M  V30 5865 H 580.909 2.19326 -2.02333 0
M  V30 5866 C 579.658 3.40125 -0.721817 0
M  V30 5867 H 578.981 3.68996 -1.5389 0
M  V30 5868 H 580.421 4.19295 -0.629922 0
M  V30 5869 C 578.88 3.31993 0.572902 0
M  V30 5870 O 579.41 3.67945 1.61182 0
M  V30 5871 N 577.616 2.85099 0.562748 0
M  V30 5872 H 577.163 2.5604 -0.283092 0
M  V30 5873 H 577.121 2.80041 1.42915 0
M  V30 5874 N 580.893 1.08022 1.14757 0
M  V30 5875 C 581.823 0.728248 2.21853 0
M  V30 5876 C 582.804 -0.287486 1.67653 0
M  V30 5877 O 583.989 -0.158727 1.9355 0
M  V30 5878 C 581.119 0.132549 3.47047 0
M  V30 5879 C 580.073 1.07619 4.14249 0
M  V30 5880 C 579.399 0.342907 5.33599 0
M  V30 5881 C 580.699 2.41268 4.63235 0
M  V30 5882 H 582.393 1.62365 2.51551 0
M  V30 5883 H 579.939 0.782125 1.20908 0
M  V30 5884 H 581.892 -0.125665 4.21213 0
M  V30 5885 H 580.616 -0.797971 3.16702 0
M  V30 5886 H 579.275 1.31944 3.42033 0
M  V30 5887 H 578.923 -0.59129 4.99513 0
M  V30 5888 H 578.623 0.971955 5.79506 0
M  V30 5889 H 580.147 0.0926538 6.1053 0
M  V30 5890 H 581.561 2.21232 5.28894 0
M  V30 5891 H 579.958 2.9983 5.19829 0
M  V30 5892 H 581.028 3.03079 3.78512 0
M  V30 5893 N 582.371 -1.3172 0.865308 0
M  V30 5894 C 583.787 -1.4958 0.556596 0
M  V30 5895 C 583.987 -1.79763 -0.910353 0
M  V30 5896 O 583.043 -1.87351 -1.6928 0
M  V30 5897 C 584.356 -2.63277 1.45279 0
M  V30 5898 C 585.904 -2.77161 1.45433 0
M  V30 5899 C 586.379 -3.93949 2.33598 0
M  V30 5900 N 587.87 -4.01228 2.31453 0
M  V30 5901 C 588.605 -4.90855 2.96393 0
M  V30 5902 N 588.101 -5.85416 3.70486 0
M  V30 5903 N 589.894 -4.84063 2.85726 0
M  V30 5904 H 582.045 -1.10396 1.81456 0
M  V30 5905 H 584.308 -0.54507 0.775631 0
M  V30 5906 H 584.014 -2.47734 2.49641 0
M  V30 5907 H 583.888 -3.59309 1.14792 0
M  V30 5908 H 586.275 -2.9212 0.41831 0
M  V30 5909 H 586.356 -1.8181 1.79941 0
M  V30 5910 H 586 -3.79748 3.37274 0
M  V30 5911 H 585.93 -4.88598 1.96417 0
M  V30 5912 H 588.421 -3.3357 1.77593 0
M  V30 5913 H 588.734 -6.50525 4.17178 0
M  V30 5914 H 587.079 -5.85409 3.74594 0
M  V30 5915 H 590.27 -4.09163 2.27384 0
M  V30 5916 H 590.443 -5.53708 3.36617 0
M  V30 5917 N 583.85 -0.624285 -1.44708 0
M  V30 5918 C 585.26 -0.2092 -1.85524 0
M  V30 5919 C 585.611 1.23783 -1.52225 0
M  V30 5920 O 584.736 1.94089 -0.956986 0
M  V30 5921 C 585.332 -0.372897 -3.36742 0
M  V30 5922 C 583.891 -0.012374 -3.76398 0
M  V30 5923 C 583.038 -0.68951 -2.68591 0
M  V30 5924 H 585.989 -0.829894 -1.35272 0
M  V30 5925 H 586.01 0.390134 -3.78495 0
M  V30 5926 H 585.522 -1.42615 -3.60947 0
M  V30 5927 H 583.623 1.03941 -3.57809 0
M  V30 5928 H 583.736 -0.417663 -4.77276 0
M  V30 5929 H 582.1 -0.125484 -2.54391 0
M  V30 5930 H 582.883 -1.74522 -2.9563 0
M  V30 5931 N 585.328 1.53329 -0.364422 0
M  V30 5932 C 586.553 2.06132 0.229033 0
M  V30 5933 C 586.978 1.23625 1.41769 0
M  V30 5934 O 586.336 0.255038 1.79497 0
M  V30 5935 C 586.384 3.55544 0.60174 0
M  V30 5936 O 585.488 3.75771 1.69912 0
M  V30 5937 H 584.829 0.663148 0.0336213 0
M  V30 5938 H 587.359 1.97758 -0.524689 0
M  V30 5939 H 587.369 3.98549 0.873073 0
M  V30 5940 H 586.044 4.15039 -0.267421 0
M  V30 5941 H 584.621 3.44663 1.42343 0
M  V30 5942 N 586.806 0.0935595 1.57322 0
M  V30 5943 C 588.053 -0.570509 1.94297 0
M  V30 5944 C 588.381 -1.68286 0.97519 0
M  V30 5945 O 587.636 -1.95699 -0.00548655 0
M  V30 5946 C 587.935 -1.16692 3.37813 0
M  V30 5947 C 587.601 -0.178509 4.50547 0
M  V30 5948 C 586.263 0.0933475 4.81109 0
M  V30 5949 C 588.615 0.496472 5.1883 0
M  V30 5950 C 585.943 1.0469 5.77284 0
M  V30 5951 C 588.295 1.43849 6.16028 0
M  V30 5952 C 586.959 1.71859 6.44997 0
M  V30 5953 H 586.229 -0.208764 0.710984 0
M  V30 5954 H 588.876 0.169066 1.90752 0
M  V30 5955 H 587.181 -1.98271 3.37929 0
M  V30 5956 H 588.878 -1.6884 3.63722 0
M  V30 5957 H 585.468 -0.400584 4.26724 0
M  V30 5958 H 589.652 0.299584 4.95395 0
M  V30 5959 H 584.908 1.27094 5.98044 0
M  V30 5960 H 589.082 1.96734 6.68034 0
M  V30 5961 H 586.709 2.45906 7.19329 0
M  V30 5962 N 588.284 -1.56567 -0.180126 0
M  V30 5963 C 589.532 -1.81133 -0.896392 0
M  V30 5964 C 589.853 -0.669114 -1.83161 0
M  V30 5965 O 589.123 0.311616 -1.93406 0
M  V30 5966 H 587.703 -0.668172 -0.333999 0
M  V30 5967 H 590.365 -1.94048 -0.182051 0
M  V30 5968 H 589.461 -2.74854 -1.47857 0
M  V30 5969 N 589.762 0.448376 -1.51087 0
M  V30 5970 C 590.987 1.22605 -1.6728 0
M  V30 5971 C 591.412 1.84524 -0.365045 0
M  V30 5972 O 590.77 1.6832 0.673642 0
M  V30 5973 C 590.818 2.29393 -2.78229 0
M  V30 5974 O 589.922 3.34608 -2.41063 0
M  V30 5975 H 589.263 0.359705 -0.558129 0
M  V30 5976 H 591.793 0.530903 -1.97592 0
M  V30 5977 H 591.803 2.74352 -3.01986 0
M  V30 5978 H 590.478 1.83701 -3.73131 0
M  V30 5979 H 589.055 2.95202 -2.27838 0
M  V30 5980 N 591.24 1.41047 0.703093 0
M  V30 5981 C 592.47 1.43133 1.48985 0
M  V30 5982 C 592.878 0.0328537 1.89171 0
M  V30 5983 O 592.221 -0.956469 1.56835 0
M  V30 5984 C 592.283 2.26991 2.78775 0
M  V30 5985 C 591.947 3.7525 2.60837 0
M  V30 5986 C 592.944 4.67591 2.27276 0
M  V30 5987 C 590.629 4.19208 2.76712 0
M  V30 5988 C 592.623 6.01877 2.09817 0
M  V30 5989 C 590.31 5.53561 2.5887 0
M  V30 5990 C 591.308 6.4471 2.25472 0
M  V30 5991 O 590.996 7.76584 2.07778 0
M  V30 5992 H 590.728 0.489788 0.465922 0
M  V30 5993 H 593.282 1.85886 0.873822 0
M  V30 5994 H 591.512 1.79038 3.42757 0
M  V30 5995 H 593.201 2.20867 3.40547 0
M  V30 5996 H 593.967 4.34923 2.14633 0
M  V30 5997 H 589.846 3.48572 3.01693 0
M  V30 5998 H 593.39 6.72986 1.83671 0
M  V30 5999 H 589.287 5.85811 2.71102 0
M  V30 6000 H 590.055 7.87649 2.22601 0
M  V30 6001 N 592.718 -0.936591 1.26751 0
M  V30 6002 C 593.681 -2.01752 1.08761 0
M  V30 6003 C 594.681 -1.60763 0.0344435 0
M  V30 6004 O 595.871 -1.71963 0.278258 0
M  V30 6005 C 593.003 -3.34543 0.655271 0
M  V30 6006 H 594.196 -2.19143 2.04735 0
M  V30 6007 H 591.749 -1.11618 1.09413 0
M  V30 6008 H 592.484 -3.22851 -0.30626 0
M  V30 6009 H 592.269 -3.65647 1.41578 0
M  V30 6010 H 593.759 -4.13944 0.551378 0
M  V30 6011 N 594.196 -1.08629 -1.14182 0
M  V30 6012 C 595.473 -0.73002 -1.81466 0
M  V30 6013 C 595.853 0.785996 -1.95922 0
M  V30 6014 O 595.201 1.70535 -1.52086 0
M  V30 6015 C 595.411 -1.45957 -3.17014 0
M  V30 6016 C 596.759 -1.62008 -3.92477 0
M  V30 6017 O 597.783 -1.42141 -3.26611 0
M  V30 6018 O 596.642 -1.94806 -5.106 0
M  V30 6019 H 593.736 -0.261307 -0.784632 0
M  V30 6020 H 596.282 -1.188 -1.2118 0
M  V30 6021 H 595.054 -2.49221 -3.01669 0
M  V30 6022 H 594.677 -0.993222 -3.84995 0
M  V30 6023 N 595.674 1.31259 -0.872281 0
M  V30 6024 C 596.622 2.30404 -0.318897 0
M  V30 6025 C 597.616 1.5962 0.567267 0
M  V30 6026 O 598.822 1.74204 0.453111 0
M  V30 6027 H 595.197 0.747243 -0.0844474 0
M  V30 6028 H 597.168 2.74549 -1.16899 0
M  V30 6029 C 595.917 3.44608 0.462683 0
M  V30 6030 H 595.24 3.99248 -0.209936 0
M  V30 6031 H 596.68 4.1609 0.815187 0
M  V30 6032 C 595.139 2.93456 1.65485 0
M  V30 6033 O 595.669 2.92418 2.75417 0
M  V30 6034 N 593.875 2.49628 1.48776 0
M  V30 6035 H 593.422 2.50671 0.593452 0
M  V30 6036 H 593.38 2.15759 2.28682 0
M  V30 6037 N 597.152 0.631951 1.44375 0
M  V30 6038 C 598.401 0.134214 2.01253 0
M  V30 6039 C 598.714 -1.25171 1.50305 0
M  V30 6040 O 599.92 -1.8435 1.99317 0
M  V30 6041 C 598.376 0.189187 3.59402 0
M  V30 6042 C 597.984 1.57647 4.19346 0
M  V30 6043 C 599.728 -0.252044 4.23751 0
M  V30 6044 C 597.635 1.58651 5.69722 0
M  V30 6045 H 596.565 0.0464101 0.75257 0
M  V30 6046 H 599.216 0.790868 1.65582 0
M  V30 6047 H 597.598 -0.534584 3.92375 0
M  V30 6048 H 598.772 2.32389 3.97909 0
M  V30 6049 H 597.087 1.96186 3.67288 0
M  V30 6050 H 599.684 -0.264084 5.34047 0
M  V30 6051 H 600.027 -1.27951 3.96149 0
M  V30 6052 H 600.56 0.41926 3.95584 0
M  V30 6053 H 597.299 2.59237 6.0206 0
M  V30 6054 H 596.819 0.882039 5.93279 0
M  V30 6055 H 598.498 1.32082 6.33375 0
M  V30 6056 N 598.631 -1.53133 0.372548 0
M  V30 6057 C 599.579 -2.27473 -0.485681 0
M  V30 6058 C 600.573 -1.30719 -1.07745 0
M  V30 6059 O 601.779 -1.48321 -1.01985 0
M  V30 6060 H 598.154 -0.731269 -0.175356 0
M  V30 6061 H 600.125 -2.97955 0.162986 0
M  V30 6062 C 598.874 -3.08191 -1.60978 0
M  V30 6063 H 598.197 -3.82488 -1.16373 0
M  V30 6064 H 599.637 -3.63373 -2.18485 0
M  V30 6065 C 598.096 -2.19461 -2.55614 0
M  V30 6066 O 598.626 -1.81008 -3.58607 0
M  V30 6067 N 596.832 -1.83955 -2.24965 0
M  V30 6068 H 596.379 -2.15423 -1.41247 0
M  V30 6069 H 596.337 -1.24874 -2.88538 0
M  V30 6070 N 600.109 -0.101901 -1.5727 0
M  V30 6071 C 601.059 0.865346 -2.1094 0
M  V30 6072 C 602.043 1.2394 -1.02605 0
M  V30 6073 O 603.235 1.21334 -1.28868 0
M  V30 6074 C 600.364 2.12187 -2.69874 0
M  V30 6075 C 599.45 1.77295 -3.85263 0
M  V30 6076 N 599.841 1.12993 -4.93017 0
M  V30 6077 C 598.139 2.06862 -3.95126 0
M  V30 6078 C 598.84 0.968631 -5.73579 0
M  V30 6079 N 597.816 1.48814 -5.22834 0
M  V30 6080 H 601.618 0.364368 -2.91633 0
M  V30 6081 H 599.132 0.101104 -1.62085 0
M  V30 6082 H 601.129 2.82431 -3.06657 0
M  V30 6083 H 599.789 2.62844 -1.90639 0
M  V30 6084 H 600.8 0.795935 -5.11747 0
M  V30 6085 H 597.477 2.59686 -3.26909 0
M  V30 6086 H 598.867 0.465231 -6.70287 0
M  V30 6087 N 601.587 1.56661 0.17182 0
M  V30 6088 C 602.833 1.82235 0.889845 0
M  V30 6089 C 603.166 0.679673 1.81918 0
M  V30 6090 O 602.441 -0.318404 1.91876 0
M  V30 6091 C 602.724 3.18195 1.68595 0
M  V30 6092 C 602.577 4.42989 0.779773 0
M  V30 6093 C 603.896 3.5109 2.65375 0
M  V30 6094 H 601.015 0.66291 0.322056 0
M  V30 6095 H 603.657 1.89358 0.15608 0
M  V30 6096 H 601.807 3.12253 2.3115 0
M  V30 6097 H 603.479 4.60997 0.16714 0
M  V30 6098 H 601.722 4.33711 0.0877964 0
M  V30 6099 H 602.393 5.3467 1.3723 0
M  V30 6100 H 604.869 3.57482 2.12946 0
M  V30 6101 H 603.745 4.47298 3.18144 0
M  V30 6102 H 604.006 2.75768 3.45549 0
M  V30 6103 N 603.065 -0.440357 1.51323 0
M  V30 6104 C 604.028 -1.51679 1.71832 0
M  V30 6105 C 605.028 -1.49648 0.588386 0
M  V30 6106 O 606.218 -1.51724 0.855891 0
M  V30 6107 C 603.35 -2.91228 1.77199 0
M  V30 6108 H 604.543 -1.34799 2.67898 0
M  V30 6109 H 602.096 -0.66883 1.41267 0
M  V30 6110 H 602.831 -3.13516 0.829363 0
M  V30 6111 H 602.616 -2.94107 2.59314 0
M  V30 6112 H 604.106 -3.69321 1.94915 0
M  V30 6113 N 604.543 -1.41418 -0.695603 0
M  V30 6114 C 605.475 -1.39195 -1.82092 0
M  V30 6115 C 606.488 -0.294132 -1.60121 0
M  V30 6116 O 607.677 -0.555854 -1.69625 0
M  V30 6117 C 604.777 -1.14828 -3.18854 0
M  V30 6118 C 603.95 -2.36649 -3.67853 0
M  V30 6119 C 603.009 -2.08139 -4.83285 0
M  V30 6120 O 602.035 -2.81177 -4.94902 0
M  V30 6121 N 603.237 -1.07162 -5.70523 0
M  V30 6122 H 606.002 -2.36185 -1.84491 0
M  V30 6123 H 603.563 -1.3603 -0.877923 0
M  V30 6124 H 605.555 -0.937075 -3.93702 0
M  V30 6125 H 604.125 -0.264358 -3.1148 0
M  V30 6126 H 603.345 -2.73472 -2.83913 0
M  V30 6127 H 604.633 -3.17816 -3.97329 0
M  V30 6128 H 604.031 -0.467124 -5.63768 0
M  V30 6129 H 602.588 -0.920311 -6.4527 0
M  V30 6130 N 606.021 0.929856 -1.27246 0
M  V30 6131 C 607.268 1.67731 -1.13457 0
M  V30 6132 C 607.596 1.9185 0.319998 0
M  V30 6133 O 606.851 1.50524 1.25064 0
M  V30 6134 C 607.15 3.05116 -1.86115 0
M  V30 6135 C 606.816 3.00715 -3.35978 0
M  V30 6136 C 605.478 2.99222 -3.76855 0
M  V30 6137 C 607.83 2.92168 -4.3161 0
M  V30 6138 C 605.158 2.86962 -5.11732 0
M  V30 6139 C 607.51 2.81449 -5.66542 0
M  V30 6140 C 606.174 2.78305 -6.06715 0
M  V30 6141 H 605.444 0.613772 -0.415168 0
M  V30 6142 H 608.091 1.08456 -1.57827 0
M  V30 6143 H 606.396 3.68083 -1.34246 0
M  V30 6144 H 608.093 3.61822 -1.72876 0
M  V30 6145 H 604.683 3.02664 -3.03468 0
M  V30 6146 H 608.867 2.92421 -4.01003 0
M  V30 6147 H 604.123 2.82913 -5.42006 0
M  V30 6148 H 608.297 2.738 -6.40317 0
M  V30 6149 H 605.924 2.68561 -7.11181 0
M  V30 6150 N 607.499 1.09233 1.13605 0
M  V30 6151 C 608.724 0.849067 1.89224 0
M  V30 6152 C 609.149 -0.593875 1.78479 0
M  V30 6153 O 608.507 -1.41703 1.13092 0
M  V30 6154 C 608.555 1.28642 3.36873 0
M  V30 6155 O 607.659 0.44363 4.10007 0
M  V30 6156 H 607 0.30767 0.588417 0
M  V30 6157 H 609.53 1.45595 1.43748 0
M  V30 6158 H 609.54 1.27096 3.87699 0
M  V30 6159 H 608.215 2.33729 3.44011 0
M  V30 6160 H 606.792 0.523241 3.69211 0
M  V30 6161 N 608.977 -1.30795 0.87923 0
M  V30 6162 C 610.202 -2.01063 0.508769 0
M  V30 6163 C 610.627 -1.65508 -0.893803 0
M  V30 6164 O 609.985 -0.868616 -1.59138 0
M  V30 6165 C 610.033 -3.54054 0.683991 0
M  V30 6166 O 609.137 -4.11498 -0.272654 0
M  V30 6167 H 608.478 -0.632786 0.201191 0
M  V30 6168 H 611.008 -1.66776 1.18519 0
M  V30 6169 H 611.018 -4.03845 0.580798 0
M  V30 6170 H 609.693 -3.79271 1.70665 0
M  V30 6171 H 608.27 -3.72695 -0.12364 0
M  V30 6172 N 610.455 -0.639598 -1.44038 0
M  V30 6173 C 611.871 -0.305953 -1.5664 0
M  V30 6174 C 612.071 1.19055 -1.62567 0
M  V30 6175 O 611.127 1.97492 -1.57331 0
M  V30 6176 C 612.44 -1.00533 -2.83397 0
M  V30 6177 C 613.988 -0.984278 -2.97121 0
M  V30 6178 C 614.463 -1.66428 -4.26691 0
M  V30 6179 N 615.954 -1.63127 -4.33525 0
M  V30 6180 C 616.689 -2.12629 -5.32519 0
M  V30 6181 N 616.185 -2.70359 -6.3787 0
M  V30 6182 N 617.978 -2.03208 -5.24083 0
M  V30 6183 H 610.129 -1.6109 -1.38434 0
M  V30 6184 H 612.392 -0.676672 -0.663942 0
M  V30 6185 H 612.098 -2.06034 -2.85032 0
M  V30 6186 H 611.972 -0.548362 -3.73193 0
M  V30 6187 H 614.359 0.0622792 -2.95034 0
M  V30 6188 H 614.44 -1.47981 -2.08651 0
M  V30 6189 H 614.084 -2.71034 -4.29538 0
M  V30 6190 H 614.014 -1.14351 -5.14034 0
M  V30 6191 H 616.505 -1.20987 -3.58009 0
M  V30 6192 H 616.818 -3.05842 -7.09704 0
M  V30 6193 H 615.163 -2.74414 -6.38531 0
M  V30 6194 H 618.354 -1.57823 -4.40692 0
M  V30 6195 H 618.527 -2.42097 -6.01077 0
M  V30 6196 N 611.933 1.52934 -0.380664 0
M  V30 6197 C 613.181 2.01069 0.203874 0
M  V30 6198 C 613.502 1.26922 1.4804 0
M  V30 6199 O 612.772 0.386787 1.92044 0
M  V30 6200 H 611.352 0.742882 0.0783279 0
M  V30 6201 H 614.014 1.88099 -0.510368 0
M  V30 6202 H 613.11 3.09258 0.42021 0
M  V30 6203 N 613.412 0.11024 1.57214 0
M  V30 6204 C 614.823 -0.416527 1.81994 0
M  V30 6205 C 615.174 -1.67183 1.02686 0
M  V30 6206 O 614.299 -2.14823 0.260782 0
M  V30 6207 C 614.894 -0.762466 3.30109 0
M  V30 6208 C 613.453 -1.23391 3.556 0
M  V30 6209 C 612.6 -0.238166 2.76275 0
M  V30 6210 H 615.551 0.335491 1.55113 0
M  V30 6211 H 615.572 -1.62068 3.44259 0
M  V30 6212 H 615.084 0.151346 3.87805 0
M  V30 6213 H 613.185 -2.16492 3.03253 0
M  V30 6214 H 613.298 -1.18528 4.64207 0
M  V30 6215 H 611.662 -0.723421 2.4421 0
M  V30 6216 H 612.445 0.668591 3.36727 0
M  V30 6217 N 614.89 -1.56749 -0.16351 0
M  V30 6218 C 616.118 -1.86577 -0.894233 0
M  V30 6219 C 616.533 -0.696543 -1.75481 0
M  V30 6220 O 615.89 0.334161 -1.79415 0
M  V30 6221 C 615.941 -3.15508 -1.76456 0
M  V30 6222 O 615.662 -4.27926 -0.938685 0
M  V30 6223 C 617.163 -3.58737 -2.60428 0
M  V30 6224 H 614.383 -0.618829 -0.259405 0
M  V30 6225 H 616.927 -2.03863 -0.161259 0
M  V30 6226 H 615.082 -3.00025 -2.45079 0
M  V30 6227 H 615.496 -5.01546 -1.53465 0
M  V30 6228 H 616.97 -4.51832 -3.17099 0
M  V30 6229 H 617.447 -2.83229 -3.35675 0
M  V30 6230 H 618.053 -3.76858 -1.97125 0
M  V30 6231 N 616.368 0.432326 -1.51554 0
M  V30 6232 C 617.315 1.52512 -1.7323 0
M  V30 6233 C 618.285 1.55863 -0.5741 0
M  V30 6234 O 619.47 1.72796 -0.809093 0
M  V30 6235 C 616.61 2.90183 -1.86783 0
M  V30 6236 C 615.723 2.96322 -3.14352 0
M  V30 6237 C 614.858 4.25147 -3.18471 0
M  V30 6238 C 613.897 4.25172 -4.40335 0
M  V30 6239 N 613.034 5.45529 -4.41975 0
M  V30 6240 H 617.874 1.33332 -2.66508 0
M  V30 6241 H 615.411 0.647613 -1.32077 0
M  V30 6242 H 617.369 3.70071 -1.92623 0
M  V30 6243 H 615.999 3.0791 -0.969087 0
M  V30 6244 H 615.051 2.09066 -3.17798 0
M  V30 6245 H 616.363 2.92203 -4.04251 0
M  V30 6246 H 615.517 5.13411 -3.23255 0
M  V30 6247 H 614.256 4.31929 -2.2647 0
M  V30 6248 H 613.261 3.353 -4.35723 0
M  V30 6249 H 614.486 4.20049 -5.33606 0
M  V30 6250 H 612.432 5.53024 -3.52847 0
M  V30 6251 H 612.349 5.43311 -5.25689 0
M  V30 6252 H 613.617 6.35812 -4.50958 0
M  V30 6253 N 617.846 1.41785 0.688094 0
M  V30 6254 C 619.123 1.32031 1.44316 0
M  V30 6255 C 619.503 -0.0486079 2.11044 0
M  V30 6256 O 618.851 -1.06332 2.02252 0
M  V30 6257 C 619.061 2.47906 2.45649 0
M  V30 6258 C 620.409 2.89415 3.10683 0
M  V30 6259 O 621.433 2.477 2.55975 0
M  V30 6260 O 620.292 3.61573 4.09789 0
M  V30 6261 H 617.386 0.519994 0.643067 0
M  V30 6262 H 619.932 1.53765 0.71794 0
M  V30 6263 H 618.704 3.39222 1.95048 0
M  V30 6264 H 618.327 2.28089 3.25671 0
M  V30 6265 N 619.324 -0.923095 1.27737 0
M  V30 6266 C 620.572 -1.66797 1.14119 0
M  V30 6267 C 620.893 -1.92479 -0.312541 0
M  V30 6268 O 620.163 -1.53432 -1.218 0
M  V30 6269 H 618.743 -0.618196 0.419336 0
M  V30 6270 H 621.405 -1.10815 1.60331 0
M  V30 6271 H 620.501 -2.63424 1.67374 0
M  V30 6272 N 620.802 -1.09834 -1.13024 0
M  V30 6273 C 622.218 -0.828875 -1.36388 0
M  V30 6274 C 622.418 0.554756 -1.93713 0
M  V30 6275 O 621.474 1.30882 -2.15931 0
M  V30 6276 C 622.787 -1.92352 -2.3113 0
M  V30 6277 C 624.335 -1.95124 -2.44735 0
M  V30 6278 C 624.81 -3.03745 -3.42787 0
M  V30 6279 N 626.301 -3.03012 -3.5034 0
M  V30 6280 C 627.036 -3.83699 -4.26101 0
M  V30 6281 N 626.532 -4.74306 -5.04981 0
M  V30 6282 N 628.325 -3.71942 -4.21445 0
M  V30 6283 H 620.476 -1.99029 -0.74169 0
M  V30 6284 H 622.739 -0.864557 -0.388903 0
M  V30 6285 H 622.445 -2.91906 -1.96172 0
M  V30 6286 H 622.319 -1.80536 -3.3119 0
M  V30 6287 H 624.706 -0.962069 -2.78977 0
M  V30 6288 H 624.787 -2.11018 -1.44586 0
M  V30 6289 H 624.431 -4.02878 -3.09276 0
M  V30 6290 H 624.361 -2.85094 -4.42752 0
M  V30 6291 H 626.852 -2.37352 -2.94062 0
M  V30 6292 H 627.165 -5.32446 -5.60108 0
M  V30 6293 H 625.51 -4.78339 -5.04199 0
M  V30 6294 H 628.701 -3.00513 -3.589 0
M  V30 6295 H 628.874 -4.35062 -4.80235 0
M  V30 6296 N 622.28 1.30327 -0.886154 0
M  V30 6297 C 623.529 1.95373 -0.501243 0
M  V30 6298 C 623.842 1.70722 0.954634 0
M  V30 6299 O 625.048 2.29761 1.44644 0
M  V30 6300 C 623.504 3.49828 -0.845493 0
M  V30 6301 C 623.112 3.83296 -2.31922 0
M  V30 6302 C 624.856 4.2118 -0.529838 0
M  V30 6303 C 622.763 5.30935 -2.60504 0
M  V30 6304 H 621.693 0.731274 -0.183722 0
M  V30 6305 H 624.344 1.48258 -1.08129 0
M  V30 6306 H 622.726 3.95522 -0.19452 0
M  V30 6307 H 623.9 3.48508 -3.01461 0
M  V30 6308 H 622.215 3.2505 -2.60253 0
M  V30 6309 H 624.812 5.29825 -0.720401 0
M  V30 6310 H 625.155 4.12902 0.530828 0
M  V30 6311 H 625.688 3.81173 -1.13806 0
M  V30 6312 H 622.427 5.44265 -3.65316 0
M  V30 6313 H 621.947 5.67019 -1.95575 0
M  V30 6314 H 623.626 5.98381 -2.46066 0
M  V30 6315 N 623.758 0.647228 1.43697 0
M  V30 6316 C 624.705 -0.0480092 2.3075 0
M  V30 6317 C 625.675 -0.820705 1.44408 0
M  V30 6318 O 626.86 -0.798515 1.73287 0
M  V30 6319 C 624 -1.01259 3.2991 0
M  V30 6320 C 623.113 -0.236629 4.31351 0
M  V30 6321 C 622.248 -1.19447 5.17596 0
M  V30 6322 C 621.287 -0.408595 6.10735 0
M  V30 6323 N 620.424 -1.31772 6.89623 0
M  V30 6324 H 625.264 0.700238 2.89656 0
M  V30 6325 H 622.801 0.357082 1.427 0
M  V30 6326 H 624.759 -1.58538 3.85903 0
M  V30 6327 H 623.389 -1.72778 2.72667 0
M  V30 6328 H 622.441 0.452353 3.77701 0
M  V30 6329 H 623.753 0.374731 4.9739 0
M  V30 6330 H 622.907 -1.83809 5.78186 0
M  V30 6331 H 621.646 -1.83975 4.51669 0
M  V30 6332 H 620.651 0.24841 5.49239 0
M  V30 6333 H 621.876 0.232188 6.78703 0
M  V30 6334 H 619.822 -1.94991 6.2635 0
M  V30 6335 H 619.739 -0.760779 7.52162 0
M  V30 6336 H 621.007 -1.94967 7.54724 0
M  V30 6337 N 625.236 -1.5273 0.388769 0
M  V30 6338 C 626.647 -1.86505 -0.0853788 0
M  V30 6339 C 626.998 -1.30847 -1.46197 0
M  V30 6340 O 626.123 -0.639609 -2.06732 0
M  V30 6341 C 626.718 -3.38414 -0.161703 0
M  V30 6342 C 625.277 -3.71902 -0.580144 0
M  V30 6343 C 624.424 -2.76095 0.258218 0
M  V30 6344 H 627.375 -1.46647 0.606665 0
M  V30 6345 H 627.396 -3.67638 -0.980936 0
M  V30 6346 H 626.908 -3.78893 0.840333 0
M  V30 6347 H 625.009 -3.36992 -1.58957 0
M  V30 6348 H 625.122 -4.77902 -0.338663 0
M  V30 6349 H 623.486 -2.53195 -0.276432 0
M  V30 6350 H 624.269 -3.19411 1.25822 0
M  V30 6351 N 626.714 -0.118576 -1.57153 0
M  V30 6352 C 627.991 0.583062 -1.86708 0
M  V30 6353 C 628.371 1.84841 -1.01967 0
M  V30 6354 O 627.719 2.28288 -0.0984673 0
M  V30 6355 C 627.929 0.875912 -3.3783 0
M  V30 6356 C 629.277 1.22916 -4.0642 0
M  V30 6357 O 630.301 0.966188 -3.42846 0
M  V30 6358 O 629.16 1.72269 -5.18638 0
M  V30 6359 H 626.254 0.294185 -0.772906 0
M  V30 6360 H 628.8 -0.153048 -1.69008 0
M  V30 6361 H 627.572 -0.0207776 -3.91294 0
M  V30 6362 H 627.195 1.66719 -3.60958 0
M  V30 6363 N 628.193 1.56834 0.155195 0
M  V30 6364 C 629.439 1.83169 0.870467 0
M  V30 6365 C 629.772 0.698929 1.81187 0
M  V30 6366 O 629.047 -0.298035 1.92203 0
M  V30 6367 C 629.33 3.19965 1.65211 0
M  V30 6368 C 629.183 4.43792 0.732744 0
M  V30 6369 C 630.502 3.53885 2.61636 0
M  V30 6370 H 627.621 0.666288 0.315006 0
M  V30 6371 H 630.263 1.89513 0.135988 0
M  V30 6372 H 628.413 3.14687 2.27825 0
M  V30 6373 H 630.085 4.61148 0.118236 0
M  V30 6374 H 628.328 4.3378 0.0417906 0
M  V30 6375 H 628.999 5.36095 1.31552 0
M  V30 6376 H 631.475 3.5972 2.09143 0
M  V30 6377 H 630.351 4.50648 3.13381 0
M  V30 6378 H 630.612 2.79418 3.42605 0
M  V30 6379 N 629.671 -0.424282 1.51781 0
M  V30 6380 C 630.604 -1.53633 1.68737 0
M  V30 6381 C 631.582 -1.53549 0.534915 0
M  V30 6382 O 632.766 -1.72483 0.760391 0
M  V30 6383 C 629.893 -2.92195 1.71288 0
M  V30 6384 C 628.939 -3.10251 2.92654 0
M  V30 6385 S 629.772 -2.85166 4.53256 0
M  V30 6386 C 630.928 -4.25986 4.58571 0
M  V30 6387 H 631.161 -1.39018 2.62795 0
M  V30 6388 H 628.694 -0.614854 1.41629 0
M  V30 6389 H 630.652 -3.72059 1.73443 0
M  V30 6390 H 629.313 -3.04162 0.783847 0
M  V30 6391 H 628.506 -4.1159 2.90877 0
M  V30 6392 H 628.108 -2.38231 2.88308 0
M  V30 6393 H 630.4 -5.19392 4.35015 0
M  V30 6394 H 631.343 -4.32792 5.60444 0
M  V30 6395 H 631.751 -4.1025 3.87757 0
M  V30 6396 N 631.149 -1.42148 -0.680565 0
M  V30 6397 C 632.112 -1.4488 -1.77602 0
M  V30 6398 C 633.112 -0.337209 -1.57224 0
M  V30 6399 O 634.302 -0.597778 -1.63622 0
M  V30 6400 C 631.434 -1.27483 -3.16166 0
M  V30 6401 H 632.627 -2.42412 -1.76568 0
M  V30 6402 H 630.18 -1.28511 -0.889645 0
M  V30 6403 H 630.915 -0.30851 -3.22829 0
M  V30 6404 H 630.7 -2.08037 -3.3236 0
M  V30 6405 H 632.19 -1.32265 -3.96101 0
M  V30 6406 N 632.627 0.916307 -1.28225 0
M  V30 6407 C 634.038 1.48024 -1.13779 0
M  V30 6408 C 634.389 1.94289 0.273139 0
M  V30 6409 O 633.514 1.82226 1.16716 0
M  V30 6410 C 634.109 2.69029 -2.05935 0
M  V30 6411 C 632.668 3.2161 -1.95561 0
M  V30 6412 C 631.815 1.94321 -1.97825 0
M  V30 6413 H 634.766 0.729272 -1.40951 0
M  V30 6414 H 634.787 3.44204 -1.62184 0
M  V30 6415 H 634.299 2.35325 -3.08616 0
M  V30 6416 H 632.4 3.60045 -0.959076 0
M  V30 6417 H 632.513 3.87032 -2.82388 0
M  V30 6418 H 630.877 2.1131 -1.42198 0
M  V30 6419 H 631.66 1.62917 -3.0218 0
M  V30 6420 N 634.105 1.10431 1.1244 0
M  V30 6421 C 635.353 0.845045 1.83585 0
M  V30 6422 C 635.674 -0.631168 1.84503 0
M  V30 6423 O 634.944 -1.45825 1.30813 0
M  V30 6424 H 633.524 0.309628 0.679809 0
M  V30 6425 H 636.186 1.39458 1.36153 0
M  V30 6426 H 635.282 1.20786 2.8778 0
M  V30 6427 N 635.583 -1.29855 0.893053 0
M  V30 6428 C 636.811 -1.99976 0.530788 0
M  V30 6429 C 637.226 -1.66889 -0.882799 0
M  V30 6430 O 636.583 -0.910352 -1.58173 0
M  V30 6431 C 636.634 -3.54547 0.705587 0
M  V30 6432 O 636.355 -3.86458 2.06353 0
M  V30 6433 C 637.856 -4.41937 0.347387 0
M  V30 6434 H 635.076 -0.639129 0.204339 0
M  V30 6435 H 637.62 -1.65549 1.20057 0
M  V30 6436 H 635.775 -3.87311 0.0830685 0
M  V30 6437 H 636.189 -4.81146 2.08803 0
M  V30 6438 H 637.663 -5.4954 0.520557 0
M  V30 6439 H 638.14 -4.33339 -0.715139 0
M  V30 6440 H 638.746 -4.14633 0.946567 0
M  V30 6441 N 637.061 -0.65484 -1.43351 0
M  V30 6442 C 638.308 -0.168892 -2.01794 0
M  V30 6443 C 638.636 1.2177 -1.51665 0
M  V30 6444 O 637.891 1.82717 -0.70092 0
M  V30 6445 C 638.19 -0.130424 -3.57162 0
M  V30 6446 C 637.856 -1.45898 -4.26643 0
M  V30 6447 C 636.518 -1.82279 -4.4534 0
M  V30 6448 C 638.87 -2.33485 -4.65976 0
M  V30 6449 C 636.198 -3.0591 -5.00635 0
M  V30 6450 C 638.55 -3.5641 -5.22642 0
M  V30 6451 C 637.214 -3.92985 -5.39555 0
M  V30 6452 H 636.484 -0.061802 -0.738418 0
M  V30 6453 H 639.131 -0.845869 -1.71806 0
M  V30 6454 H 637.436 0.630008 -3.86702 0
M  V30 6455 H 639.133 0.262465 -4.0014 0
M  V30 6456 H 635.723 -1.16591 -4.12437 0
M  V30 6457 H 639.907 -2.06668 -4.51223 0
M  V30 6458 H 635.163 -3.34295 -5.11915 0
M  V30 6459 H 639.337 -4.24495 -5.52066 0
M  V30 6460 H 636.964 -4.88862 -5.82167 0
M  V30 6461 N 638.539 1.52521 -0.396863 0
M  V30 6462 C 639.788 2.00857 0.184184 0
M  V30 6463 C 640.101 1.28733 1.47265 0
M  V30 6464 O 641.307 1.67821 2.13421 0
M  V30 6465 C 639.763 3.57901 0.378787 0
M  V30 6466 C 639.371 4.38931 -0.896873 0
M  V30 6467 C 641.115 4.14504 0.915789 0
M  V30 6468 C 639.022 5.87591 -0.670133 0
M  V30 6469 H 637.952 0.750496 0.0726055 0
M  V30 6470 H 640.603 1.75965 -0.520425 0
M  V30 6471 H 638.985 3.79072 1.14543 0
M  V30 6472 H 640.159 4.29524 -1.66872 0
M  V30 6473 H 638.474 3.93586 -1.35938 0
M  V30 6474 H 641.071 5.23236 1.10126 0
M  V30 6475 H 641.414 3.71076 1.88701 0
M  V30 6476 H 641.947 3.97253 0.208523 0
M  V30 6477 H 638.686 6.35355 -1.61257 0
M  V30 6478 H 638.206 5.99767 0.0626368 0
M  V30 6479 H 639.885 6.46268 -0.307577 0
M  V30 6480 N 640.017 0.126909 1.57088 0
M  V30 6481 C 640.947 -0.816847 2.18746 0
M  V30 6482 C 641.928 -1.27161 1.12979 0
M  V30 6483 O 643.113 -1.33279 1.41246 0
M  V30 6484 C 640.243 -2.06398 2.79315 0
M  V30 6485 C 639.197 -1.74673 3.90735 0
M  V30 6486 C 638.523 -3.06482 4.38147 0
M  V30 6487 C 639.823 -1.0089 5.12463 0
M  V30 6488 H 641.517 -0.303032 2.97863 0
M  V30 6489 H 639.063 -0.144314 1.43275 0
M  V30 6490 H 641.016 -2.72885 3.2111 0
M  V30 6491 H 639.74 -2.60118 1.975 0
M  V30 6492 H 638.399 -1.10572 3.49527 0
M  V30 6493 H 638.047 -3.58152 3.5318 0
M  V30 6494 H 637.747 -2.86025 5.13287 0
M  V30 6495 H 639.271 -3.74073 4.82599 0
M  V30 6496 H 640.685 -1.57546 5.51228 0
M  V30 6497 H 639.082 -0.905006 5.93237 0
M  V30 6498 H 640.152 0.00297335 4.849 0
M  V30 6499 N 641.495 -1.56914 -0.146875 0
M  V30 6500 C 642.72 -1.87881 -0.878386 0
M  V30 6501 C 643.145 -0.715945 -1.73942 0
M  V30 6502 O 642.503 0.334447 -1.78189 0
M  V30 6503 C 642.551 -3.17431 -1.71084 0
M  V30 6504 O 641.655 -3.01374 -2.81509 0
M  V30 6505 H 640.996 -0.617289 -0.244644 0
M  V30 6506 H 643.526 -2.04136 -0.137654 0
M  V30 6507 H 643.536 -3.49455 -2.10582 0
M  V30 6508 H 642.211 -4.01671 -1.07856 0
M  V30 6509 H 640.788 -2.80758 -2.45416 0
M  V30 6510 N 642.974 0.416227 -1.52004 0
M  V30 6511 C 643.937 1.48926 -1.74223 0
M  V30 6512 C 644.937 1.48693 -0.612119 0
M  V30 6513 O 646.127 1.50343 -0.879921 0
M  V30 6514 C 643.259 2.88372 -1.81809 0
M  V30 6515 H 644.452 1.3052 -2.70008 0
M  V30 6516 H 642.005 0.646271 -1.42313 0
M  V30 6517 H 642.74 3.12157 -0.879135 0
M  V30 6518 H 642.525 2.89944 -2.6396 0
M  V30 6519 H 644.015 3.66173 -2.00766 0
M  V30 6520 N 644.452 1.42507 0.673017 0
M  V30 6521 C 645.868 1.25472 0.986355 0
M  V30 6522 C 646.068 0.160181 2.00862 0
M  V30 6523 O 645.124 -0.467993 2.48125 0
M  V30 6524 C 646.437 2.61219 1.48947 0
M  V30 6525 C 647.985 2.68589 1.60715 0
M  V30 6526 C 648.46 4.04707 2.14422 0
M  V30 6527 N 649.951 4.0667 2.21752 0
M  V30 6528 C 650.686 5.0881 2.64386 0
M  V30 6529 N 650.182 6.21332 3.0646 0
M  V30 6530 N 651.975 4.96166 2.64151 0
M  V30 6531 H 644.126 2.124 -0.00378532 0
M  V30 6532 H 646.389 0.946046 0.0608367 0
M  V30 6533 H 646.095 3.42179 0.812812 0
M  V30 6534 H 645.969 2.85261 2.46791 0
M  V30 6535 H 648.356 1.87974 2.27486 0
M  V30 6536 H 648.437 2.48333 0.613552 0
M  V30 6537 H 648.081 4.8578 1.48258 0
M  V30 6538 H 648.011 4.22315 3.14575 0
M  V30 6539 H 650.502 3.25438 1.92089 0
M  V30 6540 H 650.815 6.95118 3.37684 0
M  V30 6541 H 649.16 6.24835 3.04313 0
M  V30 6542 H 652.351 4.07334 2.30644 0
M  V30 6543 H 652.524 5.759 2.97057 0
M  V30 6544 N 645.93 -0.909495 1.28709 0
M  V30 6545 C 647.155 -1.69801 1.1909 0
M  V30 6546 C 647.58 -1.86479 -0.246388 0
M  V30 6547 O 646.938 -1.37802 -1.17815 0
M  V30 6548 C 646.986 -3.06543 1.89904 0
M  V30 6549 O 646.09 -3.94268 1.2094 0
M  V30 6550 H 645.431 -0.519783 0.413185 0
M  V30 6551 H 647.961 -1.13689 1.70106 0
M  V30 6552 H 647.971 -3.56748 1.97977 0
M  V30 6553 H 646.646 -2.93722 2.94449 0
M  V30 6554 H 645.223 -3.52702 1.2106 0
M  V30 6555 N 647.408 -1.11026 -1.11852 0
M  V30 6556 C 648.633 -0.879064 -1.87849 0
M  V30 6557 C 649.058 0.565406 -1.79401 0
M  V30 6558 O 648.416 1.39886 -1.15333 0
M  V30 6559 C 648.464 -1.33985 -3.34784 0
M  V30 6560 O 647.568 -0.508803 -4.09249 0
M  V30 6561 H 646.909 -0.316992 -0.583448 0
M  V30 6562 H 649.439 -1.47863 -1.41413 0
M  V30 6563 H 649.449 -1.33248 -3.85628 0
M  V30 6564 H 648.124 -2.39172 -3.40249 0
M  V30 6565 H 646.701 -0.581913 -3.68332 0
M  V30 6566 N 648.886 1.2938 -0.899927 0
M  V30 6567 C 649.816 2.30144 -0.39446 0
M  V30 6568 C 650.797 1.61611 0.530639 0
M  V30 6569 O 651.982 1.89119 0.441319 0
M  V30 6570 C 649.112 3.45229 0.37868 0
M  V30 6571 C 648.066 4.25564 -0.456012 0
M  V30 6572 C 647.392 5.32848 0.444637 0
M  V30 6573 C 648.692 4.93651 -1.70605 0
M  V30 6574 H 650.386 2.72673 -1.23653 0
M  V30 6575 H 647.932 1.31086 -0.596034 0
M  V30 6576 H 649.885 4.14797 0.743037 0
M  V30 6577 H 648.609 3.01545 1.25453 0
M  V30 6578 H 647.268 3.57704 -0.802704 0
M  V30 6579 H 646.916 4.85408 1.31863 0
M  V30 6580 H 646.616 5.87497 -0.110154 0
M  V30 6581 H 648.14 6.05268 0.805182 0
M  V30 6582 H 649.554 5.55655 -1.41141 0
M  V30 6583 H 647.951 5.58233 -2.20217 0
M  V30 6584 H 649.021 4.18926 -2.4419 0
M  V30 6585 N 650.364 0.662433 1.43002 0
M  V30 6586 C 651.327 -0.0142016 2.29196 0
M  V30 6587 C 652.327 -0.741394 1.42688 0
M  V30 6588 O 653.517 -0.581257 1.64216 0
M  V30 6589 C 650.649 -1.03084 3.24941 0
M  V30 6590 H 651.842 0.7443 2.90517 0
M  V30 6591 H 649.395 0.424133 1.50435 0
M  V30 6592 H 650.13 -1.81826 2.68533 0
M  V30 6593 H 649.915 -0.512946 3.8873 0
M  V30 6594 H 651.405 -1.50308 3.89612 0
M  V30 6595 N 651.842 -1.52309 0.404946 0
M  V30 6596 C 653.253 -1.86585 -0.0655926 0
M  V30 6597 C 653.604 -1.3239 -1.44801 0
M  V30 6598 O 652.729 -0.6615 -2.06042 0
M  V30 6599 C 653.324 -3.38566 -0.125801 0
M  V30 6600 C 651.883 -3.72497 -0.540666 0
M  V30 6601 C 651.03 -2.75806 0.287487 0
M  V30 6602 H 653.981 -1.45995 0.622185 0
M  V30 6603 H 654.002 -3.68658 -0.941888 0
M  V30 6604 H 653.514 -3.77981 0.880473 0
M  V30 6605 H 651.615 -3.38659 -1.55373 0
M  V30 6606 H 651.728 -4.78234 -0.287956 0
M  V30 6607 H 650.092 -2.53474 -0.249561 0
M  V30 6608 H 650.875 -3.18059 1.29203 0
M  V30 6609 N 653.32 -0.135238 -1.57019 0
M  V30 6610 C 654.597 0.563227 -1.87316 0
M  V30 6611 C 654.977 1.83749 -1.03921 0
M  V30 6612 O 654.325 2.2817 -0.122675 0
M  V30 6613 C 654.535 0.840031 -3.3874 0
M  V30 6614 C 655.883 1.18598 -4.077 0
M  V30 6615 O 656.907 0.92977 -3.43851 0
M  V30 6616 O 655.766 1.66758 -5.20436 0
M  V30 6617 H 652.86 0.285971 -0.775983 0
M  V30 6618 H 655.406 -0.170965 -1.68837 0
M  V30 6619 H 654.178 -0.0622785 -3.9125 0
M  V30 6620 H 653.801 1.62882 -3.62706 0
M  V30 6621 N 654.798 1.5699 0.138552 0
M  V30 6622 C 656.023 1.88344 0.86841 0
M  V30 6623 C 656.448 0.725159 1.7356 0
M  V30 6624 O 655.806 -0.324992 1.78363 0
M  V30 6625 C 655.854 3.18334 1.69398 0
M  V30 6626 O 654.958 3.02863 2.79907 0
M  V30 6627 H 654.299 0.618577 0.241367 0
M  V30 6628 H 656.829 2.04207 0.126826 0
M  V30 6629 H 656.839 3.50567 2.08726 0
M  V30 6630 H 655.514 4.02238 1.05725 0
M  V30 6631 H 654.091 2.82056 2.43924 0
M  V30 6632 N 656.276 -0.40816 1.52223 0
M  V30 6633 C 657.501 -1.18127 1.70472 0
M  V30 6634 C 657.926 -1.83491 0.41384 0
M  V30 6635 O 657.284 -1.70047 -0.628778 0
M  V30 6636 C 657.332 -2.21935 2.84213 0
M  V30 6637 O 656.436 -3.28099 2.4985 0
M  V30 6638 H 655.777 -0.344781 0.56747 0
M  V30 6639 H 658.307 -0.478328 1.9893 0
M  V30 6640 H 658.317 -2.66248 3.09153 0
M  V30 6641 H 656.992 -1.73744 3.7787 0
M  V30 6642 H 655.569 -2.89058 2.35584 0
M  V30 6643 N 657.755 -1.42862 -0.66545 0
M  V30 6644 C 659.002 -1.4383 -1.42546 0
M  V30 6645 C 659.33 -0.0581114 -1.94413 0
M  V30 6646 O 658.585 0.935002 -1.71919 0
M  V30 6647 C 658.884 -2.4175 -2.63233 0
M  V30 6648 C 658.55 -3.87915 -2.29854 0
M  V30 6649 C 657.212 -4.27726 -2.20463 0
M  V30 6650 C 659.564 -4.80074 -2.02924 0
M  V30 6651 C 656.892 -5.57666 -1.82279 0
M  V30 6652 C 659.244 -6.10366 -1.66242 0
M  V30 6653 C 657.908 -6.49167 -1.55367 0
M  V30 6654 H 657.178 -0.52631 -0.521612 0
M  V30 6655 H 659.825 -1.75863 -0.757914 0
M  V30 6656 H 658.13 -2.03077 -3.35063 0
M  V30 6657 H 659.827 -2.39759 -3.21429 0
M  V30 6658 H 656.417 -3.564 -2.3807 0
M  V30 6659 H 660.601 -4.50097 -2.09108 0
M  V30 6660 H 655.857 -5.8658 -1.72436 0
M  V30 6661 H 660.031 -6.81258 -1.44432 0
M  V30 6662 H 657.658 -7.49761 -1.2555 0
M  V30 6663 N 659.233 0.902656 -1.29189 0
M  V30 6664 C 660.479 1.6555 -1.18172 0
M  V30 6665 C 660.834 1.90569 0.264788 0
M  V30 6666 O 660.127 1.50292 1.1884 0
M  V30 6667 C 660.321 3.011 -1.92545 0
M  V30 6668 C 660.15 2.89312 -3.4428 0
M  V30 6669 C 658.92 2.90239 -4.1363 0
M  V30 6670 C 661.118 2.6656 -4.3983 0
M  V30 6671 N 659.1 2.69156 -5.5175 0
M  V30 6672 C 660.471 2.54429 -5.6539 0
M  V30 6673 C 662.526 2.51644 -4.29627 0
M  V30 6674 C 661.229 2.289 -6.81907 0
M  V30 6675 C 663.255 2.27498 -5.45892 0
M  V30 6676 C 662.617 2.16129 -6.70423 0
M  V30 6677 H 658.716 0.611519 -0.48741 0
M  V30 6678 H 661.3 1.06514 -1.62981 0
M  V30 6679 H 659.471 3.58202 -1.50154 0
M  V30 6680 H 661.203 3.65471 -1.73818 0
M  V30 6681 H 657.958 3.01412 -3.65305 0
M  V30 6682 H 658.382 2.61676 -6.24383 0
M  V30 6683 H 663.024 2.59178 -3.34045 0
M  V30 6684 H 660.742 2.20104 -7.77547 0
M  V30 6685 H 664.328 2.16805 -5.39895 0
M  V30 6686 H 663.208 1.97703 -7.5887 0
M  V30 6687 N 660.711 1.11618 1.11262 0
M  V30 6688 C 661.674 0.779447 2.15539 0
M  V30 6689 C 662.674 -0.202081 1.59525 0
M  V30 6690 O 663.864 0.0226356 1.74185 0
M  V30 6691 C 660.996 0.15674 3.40539 0
M  V30 6692 H 662.189 1.70324 2.4684 0
M  V30 6693 H 659.742 0.918298 1.26479 0
M  V30 6694 H 660.477 -0.777186 3.1485 0
M  V30 6695 H 660.262 0.863308 3.82478 0
M  V30 6696 H 661.752 -0.062661 4.17553 0
M  V30 6697 N 662.189 -1.289 0.906776 0
M  V30 6698 C 663.137 -2.29477 0.379873 0
M  V30 6699 C 664.131 -1.61068 -0.524747 0
M  V30 6700 O 665.337 -1.75344 -0.406765 0
M  V30 6701 H 661.712 -0.744742 0.10423 0
M  V30 6702 H 663.683 -2.71353 1.24137 0
M  V30 6703 C 662.432 -3.45713 -0.371154 0
M  V30 6704 H 661.755 -3.98551 0.315716 0
M  V30 6705 H 663.195 -4.18105 -0.704581 0
M  V30 6706 C 661.654 -2.9774 -1.57646 0
M  V30 6707 O 662.184 -2.99618 -2.67567 0
M  V30 6708 N 660.39 -2.53485 -1.42105 0
M  V30 6709 H 659.937 -2.52156 -0.526783 0
M  V30 6710 H 659.895 -2.21747 -2.22881 0
M  V30 6711 N 663.667 -0.670007 -1.42649 0
M  V30 6712 C 664.617 0.0339546 -2.27975 0
M  V30 6713 C 665.601 0.778295 -1.40824 0
M  V30 6714 O 666.793 0.657997 -1.64315 0
M  V30 6715 C 663.922 0.987899 -3.28779 0
M  V30 6716 C 663.008 0.241153 -4.23414 0
M  V30 6717 N 663.399 -0.751392 -5.00188 0
M  V30 6718 C 661.697 0.480269 -4.43407 0
M  V30 6719 C 662.398 -1.19615 -5.69269 0
M  V30 6720 N 661.374 -0.527045 -5.41039 0
M  V30 6721 H 665.176 -0.727425 -2.84756 0
M  V30 6722 H 662.69 -0.498673 -1.54554 0
M  V30 6723 H 664.687 1.50716 -3.88703 0
M  V30 6724 H 663.347 1.74916 -2.73559 0
M  V30 6725 H 664.358 -1.13075 -5.05405 0
M  V30 6726 H 661.035 1.2214 -3.99234 0
M  V30 6727 H 662.425 -2.01836 -6.40868 0
M  V30 6728 N 665.145 1.52092 -0.413018 0
M  V30 6729 C 666.422 1.94356 0.22024 0
M  V30 6730 C 666.802 1.35017 1.62277 0
M  V30 6731 O 666.15 0.527511 2.22328 0
M  V30 6732 C 666.36 3.48289 0.222638 0
M  V30 6733 C 667.708 4.22313 0.440098 0
M  V30 6734 O 668.732 3.54919 0.301826 0
M  V30 6735 O 667.591 5.41829 0.712984 0
M  V30 6736 H 664.685 0.814536 0.14304 0
M  V30 6737 H 667.231 1.63083 -0.469242 0
M  V30 6738 H 666.003 3.83872 -0.758836 0
M  V30 6739 H 665.626 3.85934 0.956057 0
M  V30 6740 N 666.623 0.143563 1.56945 0
M  V30 6741 C 667.848 -0.518701 2.00809 0
M  V30 6742 C 668.273 -1.5785 1.02298 0
M  V30 6743 O 667.631 -1.813 -0.0017839 0
M  V30 6744 C 667.679 -1.09929 3.43436 0
M  V30 6745 O 666.783 -2.21425 3.47915 0
M  V30 6746 H 666.124 -0.127215 0.6517 0
M  V30 6747 H 668.654 0.239283 2.03196 0
M  V30 6748 H 668.664 -1.4288 3.82164 0
M  V30 6749 H 667.339 -0.323162 4.14643 0
M  V30 6750 H 665.916 -1.89728 3.21026 0
M  V30 6751 N 668.101 -1.57061 -0.130224 0
M  V30 6752 C 669.048 -1.99517 -1.16024 0
M  V30 6753 C 670.018 -0.865452 -1.41771 0
M  V30 6754 O 671.203 -1.12882 -1.53826 0
M  V30 6755 C 668.343 -2.3951 -2.48453 0
M  V30 6756 C 667.456 -3.65848 -2.29737 0
M  V30 6757 C 666.591 -3.9487 -3.55318 0
M  V30 6758 C 665.63 -5.14426 -3.31711 0
M  V30 6759 N 664.767 -5.39375 -4.49466 0
M  V30 6760 H 669.607 -2.87305 -0.791194 0
M  V30 6761 H 667.144 -1.42129 -0.379195 0
M  V30 6762 H 669.102 -2.60731 -3.25692 0
M  V30 6763 H 667.732 -1.54779 -2.83272 0
M  V30 6764 H 666.784 -3.52307 -1.4347 0
M  V30 6765 H 668.096 -4.53241 -2.08263 0
M  V30 6766 H 667.25 -4.16679 -4.4098 0
M  V30 6767 H 665.989 -3.05931 -3.79813 0
M  V30 6768 H 664.994 -4.92473 -2.44439 0
M  V30 6769 H 666.219 -6.04933 -3.08598 0
M  V30 6770 H 664.165 -4.53391 -4.74102 0
M  V30 6771 H 664.082 -6.21069 -4.31055 0
M  V30 6772 H 665.35 -5.65694 -5.36293 0
M  V30 6773 N 669.579 0.400081 -1.52437 0
M  V30 6774 C 670.809 1.16598 -1.70553 0
M  V30 6775 C 671.217 1.8451 -0.418665 0
M  V30 6776 O 670.56 1.73069 0.615855 0
M  V30 6777 C 670.622 2.26517 -2.7916 0
M  V30 6778 C 670.286 1.78666 -4.20628 0
M  V30 6779 C 671.283 1.26946 -5.04163 0
M  V30 6780 C 668.968 1.85225 -4.66902 0
M  V30 6781 C 670.962 0.824187 -6.32049 0
M  V30 6782 C 668.649 1.40309 -5.94774 0
M  V30 6783 C 669.647 0.889922 -6.77178 0
M  V30 6784 O 669.335 0.447281 -8.02655 0
M  V30 6785 H 669.067 0.356023 -0.574651 0
M  V30 6786 H 671.621 0.475598 -1.99818 0
M  V30 6787 H 669.851 2.98946 -2.45292 0
M  V30 6788 H 671.54 2.88237 -2.85787 0
M  V30 6789 H 672.306 1.21244 -4.69601 0
M  V30 6790 H 668.185 2.24111 -4.02859 0
M  V30 6791 H 671.729 0.422958 -6.96317 0
M  V30 6792 H 667.626 1.45693 -6.28843 0
M  V30 6793 H 668.394 0.569768 -8.16514 0
M  V30 6794 N 671.057 1.43213 0.657864 0
M  V30 6795 C 672.02 1.47687 1.75275 0
M  V30 6796 C 673.02 0.362179 1.56668 0
M  V30 6797 O 674.21 0.623734 1.62651 0
M  V30 6798 C 671.342 1.32497 3.14098 0
M  V30 6799 H 672.535 2.4519 1.7269 0
M  V30 6800 H 670.088 1.2991 0.869087 0
M  V30 6801 H 670.823 0.359831 3.22298 0
M  V30 6802 H 670.608 2.13299 3.29008 0
M  V30 6803 H 672.098 1.38549 3.93946 0
M  V30 6804 N 672.536 -0.895792 1.29666 0
M  V30 6805 C 673.766 -1.67757 1.20586 0
M  V30 6806 C 674.174 -1.87729 -0.235432 0
M  V30 6807 O 673.517 -1.41706 -1.16898 0
M  V30 6808 C 673.579 -3.08117 1.85215 0
M  V30 6809 C 673.243 -3.1136 3.3452 0
M  V30 6810 C 674.24 -2.91217 4.30684 0
M  V30 6811 C 671.925 -3.33302 3.75786 0
M  V30 6812 C 673.919 -2.92955 5.66089 0
M  V30 6813 C 671.606 -3.3467 5.11311 0
M  V30 6814 C 672.604 -3.14519 6.06273 0
M  V30 6815 O 672.292 -3.15684 7.39323 0
M  V30 6816 H 672.024 -0.530601 0.418854 0
M  V30 6817 H 674.578 -1.12831 1.71634 0
M  V30 6818 H 672.808 -3.64661 1.28683 0
M  V30 6819 H 674.497 -3.68399 1.70403 0
M  V30 6820 H 675.263 -2.74074 4.00136 0
M  V30 6821 H 671.142 -3.48025 3.02324 0
M  V30 6822 H 674.686 -2.77145 6.40185 0
M  V30 6823 H 670.583 -3.51346 5.41504 0
M  V30 6824 H 671.351 -3.31924 7.48177 0
M  V30 6825 N 674.014 -1.12206 -1.10668 0
M  V30 6826 C 674.947 -0.731468 -2.16159 0
M  V30 6827 C 675.925 0.276216 -1.60237 0
M  V30 6828 O 677.109 0.17074 -1.87725 0
M  V30 6829 C 674.236 -0.0822882 -3.386 0
M  V30 6830 C 673.282 -1.05641 -4.1321 0
M  V30 6831 S 674.115 -2.58281 -4.69096 0
M  V30 6832 C 675.271 -1.94686 -5.94851 0
M  V30 6833 H 675.504 -1.62504 -2.48957 0
M  V30 6834 H 673.037 -0.940906 -1.22419 0
M  V30 6835 H 674.995 0.285896 -4.09503 0
M  V30 6836 H 673.656 0.788358 -3.04046 0
M  V30 6837 H 672.849 -0.549764 -5.00993 0
M  V30 6838 H 672.451 -1.36741 -3.48106 0
M  V30 6839 H 674.743 -1.28815 -6.65141 0
M  V30 6840 H 675.686 -2.80499 -6.50174 0
M  V30 6841 H 676.094 -1.40369 -5.46769 0
M  V30 6842 N 675.492 1.28418 -0.913599 0
M  V30 6843 C 676.74 1.94596 -0.545594 0
M  V30 6844 C 677.061 1.7227 0.913668 0
M  V30 6845 O 676.331 1.06233 1.64595 0
M  V30 6846 H 674.911 0.720065 -0.198783 0
M  V30 6847 H 677.573 1.56404 -1.16292 0
M  V30 6848 H 676.669 3.03202 -0.739911 0
M  V30 6849 N 676.97 0.677563 1.42291 0
M  V30 6850 C 678.218 0.200578 2.01102 0
M  V30 6851 C 678.539 -1.19803 1.53858 0
M  V30 6852 O 677.809 -1.80496 0.761439 0
M  V30 6853 H 676.389 0.0711634 0.743603 0
M  V30 6854 H 679.051 0.874691 1.7417 0
M  V30 6855 H 678.147 0.204 3.11433 0
M  V30 6856 N 678.448 -1.51871 0.421078 0
M  V30 6857 C 679.676 -2.06356 -0.14994 0
M  V30 6858 C 680.091 -1.29006 -1.37851 0
M  V30 6859 O 679.448 -0.345139 -1.79207 0
M  V30 6860 C 679.499 -3.58185 -0.488454 0
M  V30 6861 O 679.22 -4.32611 0.691341 0
M  V30 6862 C 680.721 -4.29129 -1.11191 0
M  V30 6863 H 677.941 -0.67083 -0.0151186 0
M  V30 6864 H 680.485 -1.95638 0.595476 0
M  V30 6865 H 678.64 -3.68871 -1.18376 0
M  V30 6866 H 679.054 -5.22927 0.405906 0
M  V30 6867 H 680.528 -5.36501 -1.29889 0
M  V30 6868 H 681.005 -3.86371 -2.0884 0
M  V30 6869 H 681.611 -4.22843 -0.456458 0
M  V30 6870 N 679.926 -0.151884 -1.56866 0
M  V30 6871 C 681.151 0.508044 -2.01081 0
M  V30 6872 C 681.576 1.57306 -1.03134 0
M  V30 6873 O 680.934 1.81298 -0.0078309 0
M  V30 6874 C 680.982 1.08106 -3.44014 0
M  V30 6875 O 680.086 2.19577 -3.49084 0
M  V30 6876 H 679.427 0.123757 -0.652365 0
M  V30 6877 H 681.957 -0.250055 -2.03066 0
M  V30 6878 H 681.967 1.40851 -3.82916 0
M  V30 6879 H 680.642 0.301168 -4.14808 0
M  V30 6880 H 679.219 1.88023 -3.22027 0
M  V30 6881 N 681.404 1.57128 0.121893 0
M  V30 6882 C 682.337 1.95327 1.17995 0
M  V30 6883 C 683.315 0.822524 1.40262 0
M  V30 6884 O 684.499 1.08044 1.54463 0
M  V30 6885 C 681.626 2.24699 2.53432 0
M  V30 6886 C 680.672 3.47263 2.4761 0
M  V30 6887 S 681.505 4.99951 1.91857 0
M  V30 6888 C 682.661 5.32473 3.28973 0
M  V30 6889 H 682.894 2.84765 0.854182 0
M  V30 6890 H 680.427 1.50864 0.328534 0
M  V30 6891 H 682.385 2.423 3.31362 0
M  V30 6892 H 681.046 1.3588 2.83188 0
M  V30 6893 H 680.239 3.65171 3.4737 0
M  V30 6894 H 679.841 3.29034 1.778 0
M  V30 6895 H 682.133 5.27478 4.25175 0
M  V30 6896 H 683.076 6.33732 3.15895 0
M  V30 6897 H 683.484 4.59952 3.27268 0
M  V30 6898 N 682.882 -0.391992 1.52647 0
M  V30 6899 C 683.845 -1.46135 1.7657 0
M  V30 6900 C 684.845 -1.47701 0.635698 0
M  V30 6901 O 686.035 -1.48924 0.903728 0
M  V30 6902 C 683.167 -2.85443 1.86374 0
M  V30 6903 H 684.36 -1.26208 2.72051 0
M  V30 6904 H 681.913 -0.623549 1.43323 0
M  V30 6905 H 682.648 -3.10718 0.928685 0
M  V30 6906 H 682.433 -2.85708 2.68539 0
M  V30 6907 H 683.923 -3.62933 2.06566 0
M  V30 6908 N 684.36 -1.4356 -0.65026 0
M  V30 6909 C 685.588 -1.48779 -1.43779 0
M  V30 6910 C 686.003 -0.106593 -1.88499 0
M  V30 6911 O 685.36 0.883766 -1.59674 0
M  V30 6912 C 685.411 -2.43618 -2.67081 0
M  V30 6913 O 685.132 -3.76367 -2.24231 0
M  V30 6914 C 686.633 -2.5811 -3.60409 0
M  V30 6915 H 683.853 -0.50521 -0.441593 0
M  V30 6916 H 686.397 -1.88332 -0.796941 0
M  V30 6917 H 684.552 -2.07253 -3.273 0
M  V30 6918 H 684.966 -4.27394 -3.0403 0
M  V30 6919 H 686.44 -3.28539 -4.43583 0
M  V30 6920 H 686.917 -1.627 -4.07953 0
M  V30 6921 H 687.523 -2.95298 -3.0607 0
M  V30 6922 N 685.838 0.888903 -1.30139 0
M  V30 6923 C 687.249 1.45578 -1.16893 0
M  V30 6924 C 687.6 1.94825 0.231866 0
M  V30 6925 O 686.725 1.84661 1.12824 0
M  V30 6926 C 687.32 2.646 -2.11595 0
M  V30 6927 C 685.879 3.17389 -2.02339 0
M  V30 6928 C 685.026 1.90081 -2.01902 0
M  V30 6929 H 687.977 0.69921 -1.42467 0
M  V30 6930 H 687.998 3.40687 -1.69449 0
M  V30 6931 H 687.51 2.28726 -3.13538 0
M  V30 6932 H 685.611 3.5793 -1.03523 0
M  V30 6933 H 685.724 3.80955 -2.90534 0
M  V30 6934 H 684.088 2.08246 -1.46648 0
M  V30 6935 H 684.871 1.5647 -3.05568 0
M  V30 6936 N 687.317 1.12792 1.10072 0
M  V30 6937 C 688.566 0.880232 1.81479 0
M  V30 6938 C 688.879 -0.595575 1.86312 0
M  V30 6939 O 690.085 -0.959979 2.53962 0
M  V30 6940 C 688.541 1.52514 3.25987 0
M  V30 6941 C 688.149 3.036 3.29441 0
M  V30 6942 C 689.893 1.35788 4.02196 0
M  V30 6943 C 687.8 3.61007 4.68431 0
M  V30 6944 H 686.73 0.325654 0.680048 0
M  V30 6945 H 689.381 1.35485 1.23758 0
M  V30 6946 H 687.763 0.978188 3.83728 0
M  V30 6947 H 688.937 3.64819 2.81502 0
M  V30 6948 H 687.252 3.19765 2.66719 0
M  V30 6949 H 689.849 1.76096 5.0487 0
M  V30 6950 H 690.192 0.301972 4.15203 0
M  V30 6951 H 690.725 1.87426 3.50879 0
M  V30 6952 H 687.464 4.66375 4.60625 0
M  V30 6953 H 686.984 3.04564 5.16721 0
M  V30 6954 H 688.663 3.60289 5.37402 0
M  V30 6955 N 688.795 -1.27931 0.920396 0
M  V30 6956 C 690.041 -1.94977 0.557832 0
M  V30 6957 C 690.374 -1.72224 -0.897365 0
M  V30 6958 O 689.649 -1.04705 -1.63912 0
M  V30 6959 C 689.932 -3.49289 0.875741 0
M  V30 6960 C 689.785 -3.81416 2.38416 0
M  V30 6961 C 691.104 -4.38486 0.376517 0
M  V30 6962 H 688.223 -0.708164 0.20414 0
M  V30 6963 H 690.865 -1.5118 1.15085 0
M  V30 6964 H 689.015 -3.86724 0.371062 0
M  V30 6965 H 690.687 -3.53813 2.95997 0
M  V30 6966 H 688.93 -3.28225 2.83639 0
M  V30 6967 H 689.601 -4.89198 2.55713 0
M  V30 6968 H 692.077 -4.08161 0.808945 0
M  V30 6969 H 690.953 -5.45296 0.627976 0
M  V30 6970 H 691.214 -4.36143 -0.723293 0
M  V30 6971 N 690.273 -0.685099 -1.4193 0
M  V30 6972 C 691.236 -0.0222632 -2.29189 0
M  V30 6973 C 692.236 0.7186 -1.4385 0
M  V30 6974 O 693.426 0.555058 -1.6512 0
M  V30 6975 C 690.558 0.979013 -3.2654 0
M  V30 6976 H 691.751 -0.790424 -2.89296 0
M  V30 6977 H 689.304 -0.448012 -1.49742 0
M  V30 6978 H 690.039 1.77531 -2.71392 0
M  V30 6979 H 689.824 0.451037 -3.89497 0
M  V30 6980 H 691.314 1.44091 -3.91954 0
M  V30 6981 N 691.751 1.51645 -0.429126 0
M  V30 6982 C 692.999 2.01616 0.139802 0
M  V30 6983 C 693.32 1.31568 1.43927 0
M  V30 6984 O 692.59 0.447688 1.90716 0
M  V30 6985 H 691.17 0.744998 0.054654 0
M  V30 6986 H 693.832 1.8638 -0.569952 0
M  V30 6987 H 692.928 3.10439 0.321609 0
M  V30 6988 N 693.229 0.160201 1.56784 0
M  V30 6989 C 694.177 -0.791402 2.18723 0
M  V30 6990 C 695.171 -1.24567 1.14801 0
M  V30 6991 O 696.377 -1.21262 1.33025 0
M  V30 6992 H 692.752 -0.273458 0.700517 0
M  V30 6993 H 694.723 -0.244931 2.97393 0
M  V30 6994 C 693.472 -2.01509 2.83354 0
M  V30 6995 H 692.795 -1.67454 3.63041 0
M  V30 6996 H 694.235 -2.66006 3.30177 0
M  V30 6997 C 692.694 -2.83159 1.82545 0
M  V30 6998 O 693.224 -3.79944 1.30405 0
M  V30 6999 N 691.43 -2.47953 1.51552 0
M  V30 7000 H 690.977 -1.69309 1.94144 0
M  V30 7001 H 690.935 -3.02873 0.843519 0
M  V30 7002 N 694.707 -1.5719 -0.113559 0
M  V30 7003 C 695.953 -1.85412 -0.821597 0
M  V30 7004 C 696.286 -0.746722 -1.7927 0
M  V30 7005 O 695.561 0.246971 -1.92926 0
M  V30 7006 C 695.844 -3.24233 -1.56669 0
M  V30 7007 C 695.697 -4.45578 -0.614823 0
M  V30 7008 C 697.016 -3.60697 -2.52161 0
M  V30 7009 H 694.135 -0.674406 -0.29723 0
M  V30 7010 H 696.777 -1.89807 -0.085694 0
M  V30 7011 H 694.927 -3.20617 -2.19401 0
M  V30 7012 H 696.599 -4.613 0.00407137 0
M  V30 7013 H 694.842 -4.33738 0.0732332 0
M  V30 7014 H 695.513 -5.39395 -1.17292 0
M  V30 7015 H 697.989 -3.65139 -1.99532 0
M  V30 7016 H 696.865 -4.58798 -3.01323 0
M  V30 7017 H 697.126 -2.88403 -3.35076 0
M  V30 7018 N 696.185 0.383891 -1.52853 0
M  V30 7019 C 697.148 1.45197 -1.77343 0
M  V30 7020 C 698.148 1.47362 -0.643522 0
M  V30 7021 O 699.338 1.48443 -0.911613 0
M  V30 7022 C 696.47 2.8445 -1.87885 0
M  V30 7023 H 697.663 1.24764 -2.72716 0
M  V30 7024 H 695.216 0.615939 -1.43652 0
M  V30 7025 H 695.951 3.10222 -0.94515 0
M  V30 7026 H 695.736 2.8428 -2.70051 0
M  V30 7027 H 697.226 3.61832 -2.08488 0
M  V30 7028 N 697.663 1.43903 0.642637 0
M  V30 7029 C 698.595 1.45857 1.768 0
M  V30 7030 C 699.608 0.353358 1.58919 0
M  V30 7031 O 700.797 0.618426 1.67445 0
M  V30 7032 C 697.897 1.26583 3.14372 0
M  V30 7033 C 697.07 2.50139 3.58817 0
M  V30 7034 C 696.129 2.25933 4.75227 0
M  V30 7035 O 695.155 2.99351 4.84125 0
M  V30 7036 N 696.357 1.28263 5.66153 0
M  V30 7037 H 699.122 2.42869 1.75598 0
M  V30 7038 H 696.683 1.39194 0.826832 0
M  V30 7039 H 698.675 1.08255 3.89953 0
M  V30 7040 H 697.245 0.37978 3.10284 0
M  V30 7041 H 696.465 2.83821 2.73568 0
M  V30 7042 H 697.753 3.32344 3.8526 0
M  V30 7043 H 697.151 0.676041 5.61646 0
M  V30 7044 H 695.708 1.15916 6.4141 0
M  V30 7045 N 699.141 -0.881989 1.30609 0
M  V30 7046 C 700.071 -2.00413 1.1982 0
M  V30 7047 C 701.052 -1.69871 0.0881538 0
M  V30 7048 O 702.237 -1.92304 0.2707 0
M  V30 7049 C 699.367 -3.35641 0.89233 0
M  V30 7050 C 698.321 -3.80451 1.96064 0
M  V30 7051 C 697.647 -5.13003 1.5077 0
M  V30 7052 C 698.947 -3.98855 3.37213 0
M  V30 7053 H 700.641 -2.09698 2.13699 0
M  V30 7054 H 698.187 -1.00754 1.02882 0
M  V30 7055 H 700.14 -4.13669 0.803497 0
M  V30 7056 H 698.864 -3.26497 -0.0821381 0
M  V30 7057 H 697.523 -3.04654 2.03916 0
M  V30 7058 H 697.171 -5.0029 0.521417 0
M  V30 7059 H 696.871 -5.43956 2.22229 0
M  V30 7060 H 698.395 -5.93554 1.43271 0
M  V30 7061 H 699.809 -4.67312 3.32103 0
M  V30 7062 H 698.206 -4.41188 4.06784 0
M  V30 7063 H 699.276 -3.02614 3.78883 0
M  V30 7064 N 700.619 -1.13374 -1.09472 0
M  V30 7065 C 702.035 -0.871846 -1.33682 0
M  V30 7066 C 702.235 0.492847 -1.9538 0
M  V30 7067 O 701.291 1.23946 -2.19985 0
M  V30 7068 C 702.604 -1.99608 -2.24893 0
M  V30 7069 C 704.152 -2.02812 -2.38404 0
M  V30 7070 C 704.627 -3.14497 -3.3295 0
M  V30 7071 N 706.118 -3.14004 -3.40523 0
M  V30 7072 C 706.853 -3.97061 -4.13679 0
M  V30 7073 N 706.349 -4.90131 -4.89636 0
M  V30 7074 N 708.142 -3.85162 -4.09398 0
M  V30 7075 H 700.293 -2.01288 -0.677995 0
M  V30 7076 H 702.556 -0.876492 -0.361201 0
M  V30 7077 H 702.262 -2.98 -1.86786 0
M  V30 7078 H 702.136 -1.90981 -3.25278 0
M  V30 7079 H 704.523 -1.05034 -2.75775 0
M  V30 7080 H 704.604 -2.15511 -1.37799 0
M  V30 7081 H 704.248 -4.12514 -2.96302 0
M  V30 7082 H 704.178 -2.99035 -4.33458 0
M  V30 7083 H 706.669 -2.46587 -2.86362 0
M  V30 7084 H 706.982 -5.49996 -5.42885 0
M  V30 7085 H 705.327 -4.94138 -4.88726 0
M  V30 7086 H 708.518 -3.11779 -3.49158 0
M  V30 7087 H 708.691 -4.5012 -4.6615 0
M  V30 7088 N 702.098 1.27442 -0.927168 0
M  V30 7089 C 703.008 2.30599 -0.431448 0
M  V30 7090 C 704.024 1.67028 0.48761 0
M  V30 7091 O 705.2 1.97962 0.370546 0
M  V30 7092 C 702.265 3.45327 0.308292 0
M  V30 7093 C 701.326 4.24418 -0.645615 0
M  V30 7094 C 700.559 5.33667 0.0589164 0
M  V30 7095 O 700.782 5.5589 1.27838 0
M  V30 7096 O 699.716 5.98774 -0.612638 0
M  V30 7097 H 703.542 2.75036 -1.28797 0
M  V30 7098 H 701.127 1.32382 -0.692495 0
M  V30 7099 H 703.009 4.15107 0.725555 0
M  V30 7100 H 701.684 3.02945 1.14043 0
M  V30 7101 H 700.591 3.57174 -1.11255 0
M  V30 7102 H 701.924 4.70512 -1.44496 0
M  V30 7103 N 703.576 0.692616 1.41565 0
M  V30 7104 C 704.526 0.00231847 2.28 0
M  V30 7105 C 705.51 -0.755793 1.42044 0
M  V30 7106 O 706.702 -0.631772 1.65341 0
M  V30 7107 C 703.831 -0.935468 3.30309 0
M  V30 7108 C 702.917 -0.173761 4.23744 0
M  V30 7109 N 703.308 0.830872 4.98929 0
M  V30 7110 C 701.606 -0.409666 4.44115 0
M  V30 7111 C 702.307 1.28656 5.67294 0
M  V30 7112 N 701.283 0.613053 5.40132 0
M  V30 7113 H 705.085 0.772635 2.83562 0
M  V30 7114 H 702.599 0.523198 1.53741 0
M  V30 7115 H 704.596 -1.44513 3.91052 0
M  V30 7116 H 703.256 -1.70542 2.76307 0
M  V30 7117 H 704.267 1.21101 5.03542 0
M  V30 7118 H 700.944 -1.15773 4.01127 0
M  V30 7119 H 702.334 2.12006 6.37576 0
M  V30 7120 N 705.054 -1.51416 0.437162 0
M  V30 7121 C 706.301 -2.02086 -0.129364 0
M  V30 7122 C 706.629 -1.32133 -1.42728 0
M  V30 7123 O 705.884 -0.424916 -1.91031 0
M  V30 7124 C 706.183 -3.55203 -0.39564 0
M  V30 7125 C 705.849 -4.43447 0.81644 0
M  V30 7126 C 704.511 -4.67285 1.14884 0
M  V30 7127 C 706.863 -4.95219 1.62503 0
M  V30 7128 C 704.191 -5.40141 2.29052 0
M  V30 7129 C 706.543 -5.69327 2.7577 0
M  V30 7130 C 705.207 -5.91429 3.09464 0
M  V30 7131 H 704.477 -0.739486 -0.0473375 0
M  V30 7132 H 707.124 -1.82368 0.584321 0
M  V30 7133 H 705.429 -3.73252 -1.19121 0
M  V30 7134 H 707.126 -3.91944 -0.847399 0
M  V30 7135 H 703.716 -4.2509 0.547422 0
M  V30 7136 H 707.9 -4.76686 1.38144 0
M  V30 7137 H 703.156 -5.55468 2.55471 0
M  V30 7138 H 707.33 -6.08433 3.38795 0
M  V30 7139 H 704.957 -6.47662 3.98042 0
M  V30 7140 N 706.532 -0.168513 -1.56696 0
M  V30 7141 C 707.778 0.477865 -1.9709 0
M  V30 7142 C 708.111 1.63084 -1.05438 0
M  V30 7143 O 707.386 1.94238 -0.10095 0
M  V30 7144 C 707.669 0.963521 -3.4697 0
M  V30 7145 C 707.522 -0.189443 -4.49401 0
M  V30 7146 C 708.841 1.83813 -3.99876 0
M  V30 7147 H 705.96 0.172229 -0.716593 0
M  V30 7148 H 708.602 -0.254083 -1.88293 0
M  V30 7149 H 706.752 1.58724 -3.54597 0
M  V30 7150 H 708.424 -0.826451 -4.53836 0
M  V30 7151 H 706.667 -0.845366 -4.25483 0
M  V30 7152 H 707.338 0.192446 -5.51664 0
M  V30 7153 H 709.814 1.31235 -3.94863 0
M  V30 7154 H 708.69 2.14697 -5.0517 0
M  V30 7155 H 708.951 2.78289 -3.43523 0
M  V30 7156 N 708.01 1.57248 0.105221 0
M  V30 7157 C 708.957 2.01338 1.12835 0
M  V30 7158 C 709.927 0.887897 1.40377 0
M  V30 7159 O 711.112 1.15315 1.5201 0
M  V30 7160 C 708.252 2.43432 2.44611 0
M  V30 7161 C 707.365 3.69457 2.23888 0
M  V30 7162 C 706.5 4.00473 3.48991 0
M  V30 7163 C 705.539 5.19638 3.23485 0
M  V30 7164 N 704.676 5.46457 4.40828 0
M  V30 7165 H 709.516 2.88527 0.745386 0
M  V30 7166 H 707.053 1.42714 0.356535 0
M  V30 7167 H 709.011 2.65879 3.21503 0
M  V30 7168 H 707.641 1.59266 2.80774 0
M  V30 7169 H 706.693 3.54545 1.37847 0
M  V30 7170 H 708.005 4.56497 2.01026 0
M  V30 7171 H 707.159 4.23642 4.34295 0
M  V30 7172 H 705.898 3.11935 3.74897 0
M  V30 7173 H 704.903 4.96299 2.36574 0
M  V30 7174 H 706.128 6.09766 2.98935 0
M  V30 7175 H 704.074 4.60876 4.66829 0
M  V30 7176 H 703.991 6.27849 4.2112 0
M  V30 7177 H 705.259 5.74155 5.27225 0
M  V30 7178 N 709.488 -0.375779 1.53054 0
M  V30 7179 C 710.436 -1.48015 1.79428 0
M  V30 7180 C 711.43 -1.55893 0.662854 0
M  V30 7181 O 712.636 -1.58901 0.845599 0
M  V30 7182 H 709.011 -0.492887 0.56795 0
M  V30 7183 H 710.982 -1.22971 2.71884 0
M  V30 7184 C 709.731 -2.84984 1.99197 0
M  V30 7185 H 709.054 -2.79677 2.85693 0
M  V30 7186 H 710.494 -3.61462 2.21633 0
M  V30 7187 C 708.953 -3.28025 0.768183 0
M  V30 7188 O 709.483 -4.01671 -0.0480482 0
M  V30 7189 N 707.689 -2.84454 0.594521 0
M  V30 7190 H 707.236 -2.24688 1.25988 0
M  V30 7191 H 707.194 -3.13609 -0.222916 0
M  V30 7192 N 710.966 -1.44241 -0.634997 0
M  V30 7193 C 712.382 -1.28043 -0.952742 0
M  V30 7194 C 712.582 -0.21338 -2.00367 0
M  V30 7195 O 711.638 0.402042 -2.49279 0
M  V30 7196 C 712.951 -2.65076 -1.41968 0
M  V30 7197 C 714.499 -2.72755 -1.53537 0
M  V30 7198 C 714.974 -4.10249 -2.03616 0
M  V30 7199 N 716.465 -4.12406 -2.10892 0
M  V30 7200 C 717.2 -5.15641 -2.50803 0
M  V30 7201 N 716.696 -6.29239 -2.89879 0
M  V30 7202 N 718.489 -5.02995 -2.50903 0
M  V30 7203 H 710.64 -2.12315 0.060098 0
M  V30 7204 H 712.903 -0.947326 -0.0357325 0
M  V30 7205 H 712.609 -3.44213 -0.721804 0
M  V30 7206 H 712.483 -2.91704 -2.39141 0
M  V30 7207 H 714.87 -1.93939 -2.22422 0
M  V30 7208 H 714.951 -2.49872 -0.547496 0
M  V30 7209 H 714.595 -4.8954 -1.35327 0
M  V30 7210 H 714.525 -4.30507 -3.03268 0
M  V30 7211 H 717.016 -3.30417 -1.83393 0
M  V30 7212 H 717.329 -7.03827 -3.19135 0
M  V30 7213 H 715.674 -6.32683 -2.8764 0
M  V30 7214 H 718.865 -4.13306 -2.19763 0
M  V30 7215 H 719.038 -5.83574 -2.81683 0
M  V30 7216 N 712.444 0.87505 -1.31075 0
M  V30 7217 C 713.692 1.62447 -1.20231 0
M  V30 7218 C 714.013 1.93506 0.240888 0
M  V30 7219 O 713.283 1.57847 1.16022 0
M  V30 7220 H 711.863 0.602207 -0.441991 0
M  V30 7221 H 714.525 1.04788 -1.64334 0
M  V30 7222 H 713.621 2.57031 -1.77036 0
M  V30 7223 N 713.922 1.13953 1.08869 0
M  V30 7224 C 715.171 0.899431 1.80536 0
M  V30 7225 C 715.484 -0.575781 1.86933 0
M  V30 7226 O 716.69 -0.932988 2.54966 0
M  V30 7227 C 715.146 1.55963 3.24351 0
M  V30 7228 C 714.754 3.07077 3.26202 0
M  V30 7229 C 716.498 1.40046 4.00733 0
M  V30 7230 C 714.405 3.65955 4.64576 0
M  V30 7231 H 713.335 0.332849 0.676556 0
M  V30 7232 H 715.986 1.3679 1.22314 0
M  V30 7233 H 714.368 1.01883 3.82669 0
M  V30 7234 H 715.542 3.67785 2.77617 0
M  V30 7235 H 713.857 3.22576 2.63312 0
M  V30 7236 H 716.454 1.81441 5.02974 0
M  V30 7237 H 716.797 0.345993 4.1486 0
M  V30 7238 H 717.33 1.91137 3.48872 0
M  V30 7239 H 714.069 4.71234 4.55652 0
M  V30 7240 H 713.589 3.10027 5.13462 0
M  V30 7241 H 715.268 3.65968 5.33551 0
M  V30 7242 N 715.4 -1.26948 0.933913 0
M  V30 7243 C 716.628 -1.98186 0.59414 0
M  V30 7244 C 717.043 -1.69614 -0.829257 0
M  V30 7245 O 716.4 -0.960213 -1.55197 0
M  V30 7246 C 716.451 -3.52123 0.818026 0
M  V30 7247 O 716.172 -3.79698 2.18543 0
M  V30 7248 C 717.673 -4.40608 0.48781 0
M  V30 7249 H 714.893 -0.632305 0.224569 0
M  V30 7250 H 717.437 -1.61646 1.25263 0
M  V30 7251 H 715.592 -3.86851 0.206246 0
M  V30 7252 H 716.006 -4.7426 2.24005 0
M  V30 7253 H 717.48 -5.47606 0.695126 0
M  V30 7254 H 717.957 -4.35394 -0.576913 0
M  V30 7255 H 718.563 -4.11411 1.078 0
M  V30 7256 N 716.879 -0.700114 -1.41195 0
M  V30 7257 C 718.29 -0.307249 -1.84154 0
M  V30 7258 C 718.641 1.15539 -1.58572 0
M  V30 7259 O 717.766 1.88744 -1.05852 0
M  V30 7260 C 718.361 -0.550872 -3.34292 0
M  V30 7261 C 716.92 -0.211877 -3.75803 0
M  V30 7262 C 716.067 -0.830915 -2.64558 0
M  V30 7263 H 719.018 -0.900431 -1.30683 0
M  V30 7264 H 719.039 0.188954 -3.80031 0
M  V30 7265 H 718.551 -1.61548 -3.5288 0
M  V30 7266 H 716.652 0.848283 -3.62815 0
M  V30 7267 H 716.765 -0.67007 -4.74391 0
M  V30 7268 H 715.129 -0.260155 -2.53368 0
M  V30 7269 H 715.912 -1.89948 -2.85963 0
M  V30 7270 N 718.357 1.51182 -0.445186 0
M  V30 7271 C 719.304 2.27939 0.362291 0
M  V30 7272 C 720.274 1.31864 1.01 0
M  V30 7273 O 721.459 1.60776 1.02741 0
M  V30 7274 C 718.599 3.13016 1.45311 0
M  V30 7275 C 717.712 4.24093 0.822757 0
M  V30 7276 C 716.847 4.96467 1.88928 0
M  V30 7277 C 715.886 5.99454 1.23778 0
M  V30 7278 N 715.023 6.65206 2.24602 0
M  V30 7279 H 719.863 2.965 -0.29862 0
M  V30 7280 H 717.4 1.46237 -0.15911 0
M  V30 7281 H 719.358 3.60673 2.09692 0
M  V30 7282 H 717.988 2.46553 2.08354 0
M  V30 7283 H 717.04 3.80341 0.0670364 0
M  V30 7284 H 718.352 4.97853 0.307184 0
M  V30 7285 H 717.506 5.47712 2.60953 0
M  V30 7286 H 716.245 4.22355 2.4386 0
M  V30 7287 H 715.25 5.47494 0.503042 0
M  V30 7288 H 716.475 6.75527 0.695694 0
M  V30 7289 H 714.421 5.93901 2.78599 0
M  V30 7290 H 714.338 7.34756 1.77958 0
M  V30 7291 H 715.606 7.21078 2.96085 0
M  V30 7292 N 719.835 0.176821 1.56605 0
M  V30 7293 C 721.246 -0.338963 1.83597 0
M  V30 7294 C 721.597 -1.62677 1.09684 0
M  V30 7295 O 720.722 -2.13524 0.351661 0
M  V30 7296 C 721.317 -0.62177 3.33046 0
M  V30 7297 C 719.876 -1.08198 3.60514 0
M  V30 7298 C 719.023 -0.120774 2.77037 0
M  V30 7299 H 721.974 0.400978 1.53551 0
M  V30 7300 H 721.995 -1.47321 3.50823 0
M  V30 7301 H 721.507 0.315692 3.86814 0
M  V30 7302 H 719.608 -2.03435 3.12162 0
M  V30 7303 H 719.721 -0.987329 4.68816 0
M  V30 7304 H 718.085 -0.619192 2.47059 0
M  V30 7305 H 718.868 0.810806 3.33588 0
M  V30 7306 N 721.313 -1.57302 -0.09688 0
M  V30 7307 C 722.538 -1.9058 -0.818169 0
M  V30 7308 C 722.963 -0.770921 -1.71576 0
M  V30 7309 O 722.321 0.277588 -1.79162 0
M  V30 7310 C 722.369 -3.22714 -1.60898 0
M  V30 7311 O 721.473 -3.10178 -2.71779 0
M  V30 7312 H 720.814 -0.624759 -0.224882 0
M  V30 7313 H 723.344 -2.04471 -0.07264 0
M  V30 7314 H 723.354 -3.55978 -1.99358 0
M  V30 7315 H 722.029 -4.04899 -0.950227 0
M  V30 7316 H 720.606 -2.88424 -2.3636 0
M  V30 7317 N 722.791 0.367657 -1.53252 0
M  V30 7318 C 723.721 1.45632 -1.8252 0
M  V30 7319 C 724.702 1.55979 -0.678568 0
M  V30 7320 O 725.887 1.70581 -0.928217 0
M  V30 7321 C 723.017 2.82994 -2.01325 0
M  V30 7322 C 721.971 2.87473 -3.17086 0
M  V30 7323 C 721.297 4.2749 -3.21179 0
M  V30 7324 C 722.597 2.55182 -4.55719 0
M  V30 7325 H 724.291 1.21387 -2.73689 0
M  V30 7326 H 721.837 0.58251 -1.31692 0
M  V30 7327 H 723.79 3.59179 -2.20383 0
M  V30 7328 H 722.514 3.08622 -1.06864 0
M  V30 7329 H 721.173 2.13739 -2.97844 0
M  V30 7330 H 720.821 4.5019 -2.24361 0
M  V30 7331 H 720.521 4.31403 -3.98955 0
M  V30 7332 H 722.045 5.0555 -3.42419 0
M  V30 7333 H 723.459 3.21081 -4.74953 0
M  V30 7334 H 721.856 2.70414 -5.3572 0
M  V30 7335 H 722.926 1.5044 -4.60973 0
M  V30 7336 N 724.269 1.44576 0.627338 0
M  V30 7337 C 725.199 1.54562 1.75022 0
M  V30 7338 C 726.18 0.398378 1.65369 0
M  V30 7339 O 727.365 0.61899 1.84071 0
M  V30 7340 C 724.495 1.49309 3.13567 0
M  V30 7341 C 723.449 2.62549 3.38012 0
M  V30 7342 C 722.775 2.42348 4.76625 0
M  V30 7343 C 724.075 4.04678 3.30202 0
M  V30 7344 H 725.769 2.4855 1.66922 0
M  V30 7345 H 723.315 1.19624 0.801636 0
M  V30 7346 H 725.268 1.54895 3.919 0
M  V30 7347 H 723.992 0.518392 3.2246 0
M  V30 7348 H 722.651 2.56358 2.62061 0
M  V30 7349 H 722.299 1.43062 4.82226 0
M  V30 7350 H 721.999 3.18273 4.93939 0
M  V30 7351 H 723.523 2.49758 5.57183 0
M  V30 7352 H 724.937 4.12217 3.98435 0
M  V30 7353 H 723.334 4.80836 3.5905 0
M  V30 7354 H 724.404 4.2798 2.27949 0
M  V30 7355 N 725.747 -0.868086 1.31537 0
M  V30 7356 C 726.694 -1.97548 1.19346 0
M  V30 7357 C 727.664 -1.65913 0.0787922 0
M  V30 7358 O 728.849 -1.89129 0.251985 0
M  V30 7359 C 725.989 -3.32922 0.908692 0
M  V30 7360 C 725.102 -3.77141 2.10687 0
M  V30 7361 C 724.237 -5.01241 1.75873 0
M  V30 7362 C 723.276 -5.37914 2.92088 0
M  V30 7363 N 722.413 -6.53192 2.57457 0
M  V30 7364 H 727.253 -2.07307 2.14074 0
M  V30 7365 H 724.79 -1.01483 1.06487 0
M  V30 7366 H 726.748 -4.10867 0.724138 0
M  V30 7367 H 725.378 -3.228 -0.0017611 0
M  V30 7368 H 724.43 -2.94961 2.40213 0
M  V30 7369 H 725.742 -4.00248 2.97663 0
M  V30 7370 H 724.896 -5.86858 1.53891 0
M  V30 7371 H 723.635 -4.80041 0.86091 0
M  V30 7372 H 722.64 -4.50814 3.14717 0
M  V30 7373 H 723.865 -5.61077 3.82582 0
M  V30 7374 H 721.811 -6.33536 1.702 0
M  V30 7375 H 721.728 -6.76252 3.37963 0
M  V30 7376 H 722.996 -7.41997 2.38873 0
M  V30 7377 N 727.225 -1.14528 -1.08264 0
M  V30 7378 C 728.188 -0.83632 -2.13397 0
M  V30 7379 C 729.188 0.159715 -1.60005 0
M  V30 7380 O 730.378 -0.0688098 -1.74064 0
M  V30 7381 C 727.51 -0.246973 -3.40004 0
M  V30 7382 H 728.703 -1.76808 -2.42237 0
M  V30 7383 H 726.256 -0.951509 -1.24 0
M  V30 7384 H 726.991 0.693436 -3.168 0
M  V30 7385 H 726.776 -0.964412 -3.80055 0
M  V30 7386 H 728.266 -0.0480679 -4.17572 0
M  V30 7387 N 728.703 1.26451 -0.940633 0
M  V30 7388 C 729.666 2.24651 -0.454378 0
M  V30 7389 C 730.666 1.54826 0.434222 0
M  V30 7390 O 731.856 1.72628 0.233477 0
M  V30 7391 C 728.988 3.39148 0.345192 0
M  V30 7392 H 730.181 2.69182 -1.32217 0
M  V30 7393 H 727.734 1.38596 -0.722547 0
M  V30 7394 H 728.469 3.00018 1.23125 0
M  V30 7395 H 728.254 3.9101 -0.292107 0
M  V30 7396 H 729.744 4.12103 0.675341 0
M  V30 7397 N 730.181 0.707592 1.40822 0
M  V30 7398 C 731.111 0.0644925 2.33411 0
M  V30 7399 C 732.092 -0.754205 1.52466 0
M  V30 7400 O 733.277 -0.704749 1.80961 0
M  V30 7401 C 730.407 -0.863865 3.36385 0
M  V30 7402 C 729.361 -0.15138 4.27732 0
M  V30 7403 C 728.687 -1.19491 5.21177 0
M  V30 7404 C 729.987 0.989607 5.12839 0
M  V30 7405 H 731.681 0.837829 2.87438 0
M  V30 7406 H 729.227 0.404346 1.38207 0
M  V30 7407 H 731.18 -1.32309 4.0009 0
M  V30 7408 H 729.904 -1.66901 2.80734 0
M  V30 7409 H 728.563 0.287937 3.65467 0
M  V30 7410 H 728.211 -1.9929 4.61836 0
M  V30 7411 H 727.911 -0.723123 5.83134 0
M  V30 7412 H 729.435 -1.6544 5.8776 0
M  V30 7413 H 730.849 0.610114 5.70044 0
M  V30 7414 H 729.246 1.38926 5.83798 0
M  V30 7415 H 730.316 1.82389 4.49291 0
M  V30 7416 N 731.66 -1.50943 0.453197 0
M  V30 7417 C 732.909 -2.01402 -0.10951 0
M  V30 7418 C 733.222 -1.3411 -1.42386 0
M  V30 7419 O 734.428 -1.75626 -2.07045 0
M  V30 7420 C 732.884 -3.5906 -0.245693 0
M  V30 7421 C 732.492 -4.353 1.05916 0
M  V30 7422 C 734.236 -4.17617 -0.761318 0
M  V30 7423 C 732.143 -5.84699 0.887752 0
M  V30 7424 H 731.073 -0.752674 -0.0447013 0
M  V30 7425 H 733.724 -1.73913 0.585375 0
M  V30 7426 H 732.106 -3.83062 -1.00395 0
M  V30 7427 H 733.28 -4.23034 1.82698 0
M  V30 7428 H 731.595 -3.88269 1.50452 0
M  V30 7429 H 734.192 -5.26963 -0.906306 0
M  V30 7430 H 734.535 -3.77824 -1.74799 0
M  V30 7431 H 735.068 -3.97753 -0.0609416 0
M  V30 7432 H 731.807 -6.28933 1.84726 0
M  V30 7433 H 731.327 -5.99587 0.160006 0
M  V30 7434 H 733.006 -6.44682 0.547223 0
M  V30 7435 N 733.138 -0.185124 -1.56509 0
M  V30 7436 C 734.101 0.72591 -2.17401 0
M  V30 7437 C 735.101 1.14819 -1.12575 0
M  V30 7438 O 736.291 1.0629 -1.38015 0
M  V30 7439 C 733.423 1.98979 -2.76803 0
M  V30 7440 H 734.616 0.195588 -2.99262 0
M  V30 7441 H 732.169 0.0644772 -1.56167 0
M  V30 7442 H 732.904 2.56287 -1.98714 0
M  V30 7443 H 732.689 1.69583 -3.53531 0
M  V30 7444 H 734.179 2.63966 -3.23592 0
M  V30 7445 N 734.616 1.57351 0.0885366 0
M  V30 7446 C 735.864 1.86051 0.789262 0
M  V30 7447 C 736.185 0.774763 1.78948 0
M  V30 7448 O 735.455 -0.198324 1.94894 0
M  V30 7449 H 734.035 0.686508 0.294475 0
M  V30 7450 H 736.697 1.94779 0.0686055 0
M  V30 7451 H 735.793 2.83007 1.31581 0
M  V30 7452 N 736.094 -0.359525 1.53444 0
M  V30 7453 C 737.057 -1.42357 1.7963 0
M  V30 7454 C 738.057 -1.46319 0.666884 0
M  V30 7455 O 739.247 -1.46974 0.935113 0
M  V30 7456 C 736.379 -2.81425 1.92387 0
M  V30 7457 H 737.572 -1.20409 2.74666 0
M  V30 7458 H 735.125 -0.593007 1.44614 0
M  V30 7459 H 735.86 -3.08679 0.994384 0
M  V30 7460 H 735.645 -2.79947 2.74539 0
M  V30 7461 H 737.135 -3.5847 2.14218 0
M  V30 7462 N 737.572 -1.44907 -0.619662 0
M  V30 7463 C 738.535 -1.52282 -1.71297 0
M  V30 7464 C 739.535 -0.40359 -1.55653 0
M  V30 7465 O 740.725 -0.666638 -1.6094 0
M  V30 7466 C 737.857 -1.40778 -3.10474 0
M  V30 7467 H 739.05 -2.49683 -1.66128 0
M  V30 7468 H 736.603 -1.32168 -0.834339 0
M  V30 7469 H 737.338 -0.445156 -3.2123 0
M  V30 7470 H 737.123 -2.21947 -3.23237 0
M  V30 7471 H 738.613 -1.48946 -3.90135 0
M  V30 7472 N 739.05 0.861098 -1.31996 0
M  V30 7473 C 740.327 1.59788 -1.12814 0
M  V30 7474 C 740.707 2.08753 0.313882 0
M  V30 7475 O 740.055 1.87258 1.30946 0
M  V30 7476 C 740.265 2.74901 -2.15012 0
M  V30 7477 C 741.613 3.44643 -2.48004 0
M  V30 7478 O 742.637 2.85119 -2.13508 0
M  V30 7479 O 741.496 4.52044 -3.07113 0
M  V30 7480 H 738.59 0.703408 -0.434909 0
M  V30 7481 H 741.136 0.905788 -1.43505 0
M  V30 7482 H 739.908 2.36198 -3.11971 0
M  V30 7483 H 739.531 3.51792 -1.85279 0
M  V30 7484 N 740.528 1.15101 1.07655 0
M  V30 7485 C 741.777 0.918528 1.79572 0
M  V30 7486 C 742.09 -0.555922 1.87534 0
M  V30 7487 O 743.296 -0.905893 2.55941 0
M  V30 7488 C 741.752 1.59394 3.22679 0
M  V30 7489 C 741.36 3.1052 3.22927 0
M  V30 7490 C 743.104 1.44289 3.99225 0
M  V30 7491 C 741.011 3.70862 4.60668 0
M  V30 7492 H 739.941 0.340006 0.672987 0
M  V30 7493 H 742.592 1.38079 1.20857 0
M  V30 7494 H 740.974 1.05936 3.81567 0
M  V30 7495 H 742.148 3.70708 2.737 0
M  V30 7496 H 740.463 3.25351 2.59876 0
M  V30 7497 H 743.06 1.86766 5.01022 0
M  V30 7498 H 743.403 0.389975 4.14469 0
M  V30 7499 H 743.936 1.94826 3.46825 0
M  V30 7500 H 740.675 4.7604 4.50628 0
M  V30 7501 H 740.195 3.15456 5.10145 0
M  V30 7502 H 741.874 3.71607 5.29639 0
M  V30 7503 N 742.006 -1.2595 0.947325 0
M  V30 7504 C 743.254 -1.93081 0.596996 0
M  V30 7505 C 743.575 -1.74632 -0.867672 0
M  V30 7506 O 742.845 -1.1056 -1.6172 0
M  V30 7507 H 741.425 -0.714542 0.217805 0
M  V30 7508 H 744.087 -1.53265 1.20398 0
M  V30 7509 H 743.183 -3.01134 0.82004 0
M  V30 7510 N 743.484 -0.715051 -1.40445 0
M  V30 7511 C 744.414 -0.0768699 -2.33373 0
M  V30 7512 C 745.395 0.746109 -1.52863 0
M  V30 7513 O 746.58 0.695142 -1.81332 0
M  V30 7514 C 743.71 0.846014 -3.36838 0
M  V30 7515 C 742.664 0.128694 -4.27806 0
M  V30 7516 C 741.99 1.16726 -5.21804 0
M  V30 7517 C 743.29 -1.01679 -5.12307 0
M  V30 7518 H 744.984 -0.853061 -2.8699 0
M  V30 7519 H 742.53 -0.41167 -1.3799 0
M  V30 7520 H 744.483 1.30185 -4.00786 0
M  V30 7521 H 743.207 1.6541 -2.81615 0
M  V30 7522 H 741.866 -0.307314 -3.6531 0
M  V30 7523 H 741.514 1.96838 -4.62887 0
M  V30 7524 H 741.214 0.692188 -5.83509 0
M  V30 7525 H 742.738 1.62321 -5.88629 0
M  V30 7526 H 744.152 -0.640337 -5.69713 0
M  V30 7527 H 742.549 -1.4202 -5.83053 0
M  V30 7528 H 743.619 -1.84769 -4.48317 0
M  V30 7529 N 744.962 1.50701 -0.461195 0
M  V30 7530 C 746.21 2.01867 0.0970051 0
M  V30 7531 C 746.531 1.34591 1.41104 0
M  V30 7532 O 745.801 0.488041 1.89723 0
M  V30 7533 H 744.381 0.74599 0.0388392 0
M  V30 7534 H 747.043 1.85129 -0.609357 0
M  V30 7535 H 746.139 3.11051 0.255688 0
M  V30 7536 N 746.441 0.193421 1.56409 0
M  V30 7537 C 747.671 -0.450783 2.01622 0
M  V30 7538 C 748.079 -1.5585 1.07273 0
M  V30 7539 O 747.422 -1.83569 0.0694875 0
M  V30 7540 C 747.484 -1.06913 3.43235 0
M  V30 7541 C 747.148 -0.100352 4.5689 0
M  V30 7542 C 748.145 0.689633 5.15306 0
M  V30 7543 C 745.83 0.0102436 5.02299 0
M  V30 7544 C 747.824 1.5772 6.17579 0
M  V30 7545 C 745.511 0.901368 6.04416 0
M  V30 7546 C 746.509 1.68341 6.61929 0
M  V30 7547 O 746.197 2.5596 7.62063 0
M  V30 7548 H 745.929 -0.117671 0.66568 0
M  V30 7549 H 748.483 0.2989 2.03214 0
M  V30 7550 H 746.713 -1.86736 3.38624 0
M  V30 7551 H 748.402 -1.61781 3.72266 0
M  V30 7552 H 749.168 0.614485 4.81092 0
M  V30 7553 H 745.047 -0.58829 4.57231 0
M  V30 7554 H 748.591 2.18805 6.62397 0
M  V30 7555 H 744.488 0.977637 6.38054 0
M  V30 7556 H 745.256 2.49721 7.79475 0
M  V30 7557 N 747.919 -1.57396 -0.0801906 0
M  V30 7558 C 749.33 -1.75642 -0.633002 0
M  V30 7559 C 749.681 -0.817708 -1.78348 0
M  V30 7560 O 748.806 0.000233743 -2.164 0
M  V30 7561 C 749.401 -3.18502 -1.15507 0
M  V30 7562 C 747.96 -3.38121 -1.65381 0
M  V30 7563 C 747.107 -2.71386 -0.569661 0
M  V30 7564 H 750.058 -1.58027 0.145949 0
M  V30 7565 H 750.079 -3.22198 -2.02408 0
M  V30 7566 H 749.591 -3.86799 -0.317515 0
M  V30 7567 H 747.692 -2.74926 -2.51488 0
M  V30 7568 H 747.805 -4.46521 -1.73654 0
M  V30 7569 H 746.169 -2.33702 -1.0127 0
M  V30 7570 H 746.952 -3.42332 0.257561 0
M  V30 7571 N 749.397 0.351382 -1.53633 0
M  V30 7572 C 750.345 1.45142 -1.8176 0
M  V30 7573 C 751.339 1.54819 -0.687571 0
M  V30 7574 O 752.545 1.57536 -0.870772 0
M  V30 7575 H 748.92 0.483789 -0.575719 0
M  V30 7576 H 750.891 1.1863 -2.73806 0
M  V30 7577 C 749.64 2.81779 -2.03706 0
M  V30 7578 H 748.963 2.75097 -2.90107 0
M  V30 7579 H 750.403 3.5789 -2.27356 0
M  V30 7580 C 748.862 3.26762 -0.820271 0
M  V30 7581 O 749.392 4.01697 -0.0158603 0
M  V30 7582 N 747.598 2.83472 -0.639699 0
M  V30 7583 H 747.145 2.22655 -1.29547 0
M  V30 7584 H 747.103 3.13924 0.172995 0
M  V30 7585 N 750.875 1.45233 0.611969 0
M  V30 7586 C 752.123 1.48727 1.36838 0
M  V30 7587 C 752.444 0.128616 1.94575 0
M  V30 7588 O 751.714 -0.84149 1.76906 0
M  V30 7589 H 750.294 0.547695 0.507976 0
M  V30 7590 H 752.956 1.81156 0.718925 0
M  V30 7591 H 752.052 2.2236 2.19003 0
M  V30 7592 N 752.353 -0.854086 1.3245 0
M  V30 7593 C 753.301 -1.98411 1.21391 0
M  V30 7594 C 754.295 -1.68984 0.118586 0
M  V30 7595 O 755.501 -1.77784 0.281549 0
M  V30 7596 H 751.876 -0.651077 0.376301 0
M  V30 7597 H 753.847 -2.04867 2.16961 0
M  V30 7598 C 752.596 -3.34345 0.954407 0
M  V30 7599 H 751.919 -3.57518 1.78944 0
M  V30 7600 H 753.359 -4.13959 0.917269 0
M  V30 7601 C 751.818 -3.35151 -0.342838 0
M  V30 7602 O 752.348 -3.78174 -1.35452 0
M  V30 7603 N 750.554 -2.88298 -0.365012 0
M  V30 7604 H 750.101 -2.53481 0.4588 0
M  V30 7605 H 750.059 -2.8922 -1.23284 0
M  V30 7606 N 753.831 -1.1567 -1.07043 0
M  V30 7607 C 754.763 -0.814095 -2.14255 0
M  V30 7608 C 755.776 0.175293 -1.61854 0
M  V30 7609 O 756.965 -0.0483984 -1.78434 0
M  V30 7610 C 754.065 -0.190082 -3.38367 0
M  V30 7611 C 753.238 -1.21768 -4.20109 0
M  V30 7612 C 752.297 -0.614863 -5.22595 0
M  V30 7613 O 751.323 -1.28167 -5.54583 0
M  V30 7614 N 752.525 0.601955 -5.77371 0
M  V30 7615 H 755.29 -1.73677 -2.44247 0
M  V30 7616 H 752.851 -1.05301 -1.22977 0
M  V30 7617 H 754.843 0.22604 -4.04068 0
M  V30 7618 H 753.413 0.635992 -3.06062 0
M  V30 7619 H 752.633 -1.81025 -3.50177 0
M  V30 7620 H 753.921 -1.9114 -4.71533 0
M  V30 7621 H 753.319 1.162 -5.53637 0
M  V30 7622 H 751.876 0.96039 -6.44686 0
M  V30 7623 N 755.309 1.25446 -0.953992 0
M  V30 7624 C 756.557 1.92762 -0.607227 0
M  V30 7625 C 756.878 1.7509 0.858399 0
M  V30 7626 O 756.148 1.11416 1.61132 0
M  V30 7627 H 754.728 0.713377 -0.221591 0
M  V30 7628 H 757.39 1.52625 -1.21209 0
M  V30 7629 H 756.486 3.00695 -0.835998 0
M  V30 7630 N 756.787 0.722489 1.40064 0
M  V30 7631 C 758.033 0.27422 2.01543 0
M  V30 7632 C 758.388 -1.12224 1.5628 0
M  V30 7633 O 757.681 -1.75179 0.776063 0
M  V30 7634 C 757.875 0.300682 3.56133 0
M  V30 7635 C 757.704 1.69818 4.16404 0
M  V30 7636 C 756.474 2.30747 4.49537 0
M  V30 7637 C 758.672 2.64962 4.40794 0
M  V30 7638 N 756.654 3.62781 4.9524 0
M  V30 7639 C 758.025 3.81712 4.88565 0
M  V30 7640 C 760.08 2.62885 4.22842 0
M  V30 7641 C 758.783 4.96703 5.20268 0
M  V30 7642 C 760.809 3.77009 4.55652 0
M  V30 7643 C 760.171 4.92492 5.03618 0
M  V30 7644 H 756.27 0.146328 0.768188 0
M  V30 7645 H 758.854 0.94577 1.70186 0
M  V30 7646 H 757.025 -0.340461 3.86905 0
M  V30 7647 H 758.757 -0.164951 4.04364 0
M  V30 7648 H 755.512 1.82783 4.36907 0
M  V30 7649 H 755.936 4.30533 5.22465 0
M  V30 7650 H 760.578 1.74803 3.84972 0
M  V30 7651 H 758.296 5.85425 5.57049 0
M  V30 7652 H 761.882 3.76685 4.43396 0
M  V30 7653 H 760.762 5.79336 5.28525 0
M  V30 7654 N 758.265 -1.50454 0.469181 0
M  V30 7655 C 759.513 -2.01916 -0.0862982 0
M  V30 7656 C 759.834 -1.35337 -1.40388 0
M  V30 7657 O 759.104 -0.498096 -1.89462 0
M  V30 7658 H 757.684 -0.746185 -0.0348825 0
M  V30 7659 H 760.346 -1.84804 0.619167 0
M  V30 7660 H 759.442 -3.11182 -0.239189 0
M  V30 7661 N 759.743 -0.201713 -1.56304 0
M  V30 7662 C 761.159 0.154025 -1.58855 0
M  V30 7663 C 761.359 1.60516 -1.21807 0
M  V30 7664 O 760.415 2.34193 -0.94393 0
M  V30 7665 C 761.728 -0.154319 -3.00304 0
M  V30 7666 C 763.276 -0.0949578 -3.12856 0
M  V30 7667 C 763.751 -0.376703 -4.56448 0
M  V30 7668 N 765.242 -0.325558 -4.62054 0
M  V30 7669 C 765.977 -0.51732 -5.71062 0
M  V30 7670 N 765.473 -0.769789 -6.8851 0
M  V30 7671 N 767.266 -0.45112 -5.60287 0
M  V30 7672 H 759.417 -1.14858 -1.78666 0
M  V30 7673 H 761.68 -0.458934 -0.829508 0
M  V30 7674 H 761.386 -1.16074 -3.31994 0
M  V30 7675 H 761.26 0.540014 -3.73314 0
M  V30 7676 H 763.647 0.902075 -2.80974 0
M  V30 7677 H 763.728 -0.822468 -2.42217 0
M  V30 7678 H 763.372 -1.37108 -4.89044 0
M  V30 7679 H 763.302 0.371772 -5.25286 0
M  V30 7680 H 765.793 -0.137308 -3.7765 0
M  V30 7681 H 766.106 -0.904744 -7.67486 0
M  V30 7682 H 764.451 -0.806758 -6.90302 0
M  V30 7683 H 767.642 -0.254253 -4.67409 0
M  V30 7684 H 767.815 -0.603982 -6.45179 0
M  V30 7685 N 761.222 1.57436 0.0718424 0
M  V30 7686 C 762.468 1.87525 0.772149 0
M  V30 7687 C 762.801 0.79399 1.77227 0
M  V30 7688 O 762.076 -0.195733 1.93513 0
M  V30 7689 C 762.359 3.28272 1.48018 0
M  V30 7690 C 762.212 4.47052 0.49647 0
M  V30 7691 C 763.531 3.67256 2.42509 0
M  V30 7692 H 760.65 0.682049 0.279245 0
M  V30 7693 H 763.292 1.89967 0.03534 0
M  V30 7694 H 761.442 3.26321 2.10824 0
M  V30 7695 H 763.114 4.61127 -0.126375 0
M  V30 7696 H 761.357 4.33392 -0.188205 0
M  V30 7697 H 762.028 5.42315 1.02949 0
M  V30 7698 H 764.504 3.70301 1.89781 0
M  V30 7699 H 763.38 4.66626 2.89053 0
M  V30 7700 H 763.641 2.97186 3.27312 0
M  V30 7701 N 762.7 -0.34323 1.53817 0
M  V30 7702 C 763.928 -1.10348 1.75017 0
M  V30 7703 C 764.343 -1.82345 0.489475 0
M  V30 7704 O 763.7 -1.74362 -0.538886 0
M  V30 7705 C 763.751 -2.11672 2.93048 0
M  V30 7706 O 763.472 -1.42603 4.14241 0
M  V30 7707 C 764.973 -3.0007 3.26301 0
M  V30 7708 H 762.193 -0.329056 0.584776 0
M  V30 7709 H 764.737 -0.395339 2.00642 0
M  V30 7710 H 762.892 -2.78051 2.69753 0
M  V30 7711 H 763.306 -2.10294 4.80496 0
M  V30 7712 H 764.78 -3.67101 4.12239 0
M  V30 7713 H 765.257 -3.66105 2.42618 0
M  V30 7714 H 765.863 -2.3928 3.51604 0
M  V30 7715 N 764.178 -1.45556 -0.604258 0
M  V30 7716 C 765.108 -1.57327 -1.72541 0
M  V30 7717 C 766.089 -0.424637 -1.64714 0
M  V30 7718 O 767.274 -0.648196 -1.83063 0
M  V30 7719 C 764.404 -1.54279 -3.11152 0
M  V30 7720 C 763.358 -2.67893 -3.33792 0
M  V30 7721 C 762.684 -2.499 -4.72709 0
M  V30 7722 C 763.984 -4.0988 -3.23722 0
M  V30 7723 H 765.678 -2.51175 -1.62947 0
M  V30 7724 H 763.224 -1.20884 -0.782504 0
M  V30 7725 H 765.177 -1.6111 -3.89386 0
M  V30 7726 H 763.901 -0.569627 -3.21594 0
M  V30 7727 H 762.56 -2.60495 -2.57949 0
M  V30 7728 H 762.208 -1.50715 -4.79889 0
M  V30 7729 H 761.908 -3.26091 -4.88813 0
M  V30 7730 H 763.432 -2.5859 -5.5314 0
M  V30 7731 H 764.846 -4.18503 -3.91826 0
M  V30 7732 H 763.243 -4.86487 -3.51355 0
M  V30 7733 H 764.313 -4.31553 -2.21111 0
M  V30 7734 N 765.656 0.84705 -1.32902 0
M  V30 7735 C 766.933 1.58583 -1.14503 0
M  V30 7736 C 767.313 2.09075 0.291724 0
M  V30 7737 O 766.661 1.88636 1.28952 0
M  V30 7738 C 766.871 2.72605 -2.17916 0
M  V30 7739 C 768.219 3.41993 -2.51646 0
M  V30 7740 O 769.243 2.82838 -2.1652 0
M  V30 7741 O 768.102 4.48761 -3.1189 0
M  V30 7742 H 765.196 0.698756 -0.442345 0
M  V30 7743 H 767.742 0.890516 -1.44457 0
M  V30 7744 H 766.514 2.32876 -3.14459 0
M  V30 7745 H 766.137 3.49807 -1.89 0
M  V30 7746 N 767.134 1.16236 1.06428 0
M  V30 7747 C 768.081 0.86769 2.13869 0
M  V30 7748 C 769.051 -0.183298 1.65086 0
M  V30 7749 O 770.236 -0.0488002 1.90738 0
M  V30 7750 C 767.376 0.373427 3.43074 0
M  V30 7751 C 766.489 1.48708 4.05598 0
M  V30 7752 C 765.624 0.947977 5.22673 0
M  V30 7753 C 764.663 2.03793 5.77178 0
M  V30 7754 N 763.8 1.51451 6.85571 0
M  V30 7755 H 768.64 1.78781 2.38414 0
M  V30 7756 H 766.177 0.891892 1.16977 0
M  V30 7757 H 768.135 0.0685035 4.17144 0
M  V30 7758 H 766.765 -0.509752 3.1875 0
M  V30 7759 H 765.817 1.908 3.29089 0
M  V30 7760 H 767.129 2.30964 4.42105 0
M  V30 7761 H 766.283 0.596154 6.03764 0
M  V30 7762 H 765.022 0.0947081 4.87608 0
M  V30 7763 H 764.027 2.39847 4.94726 0
M  V30 7764 H 765.252 2.89514 6.14295 0
M  V30 7765 H 763.198 0.683755 6.52427 0
M  V30 7766 H 763.115 2.27325 7.21013 0
M  V30 7767 H 764.383 1.19123 7.70344 0
M  V30 7768 N 768.612 -1.24939 0.960631 0
M  V30 7769 C 769.837 -1.9742 0.635608 0
M  V30 7770 C 770.262 -1.70857 -0.786737 0
M  V30 7771 O 769.62 -0.968063 -1.53291 0
M  V30 7772 C 769.668 -3.48987 0.907771 0
M  V30 7773 O 768.772 -4.12399 -0.0104053 0
M  V30 7774 H 768.113 -0.61871 0.241027 0
M  V30 7775 H 770.643 -1.58901 1.28886 0
M  V30 7776 H 770.653 -3.99334 0.836453 0
M  V30 7777 H 769.328 -3.6765 1.94439 0
M  V30 7778 H 767.905 -3.72727 0.113631 0
M  V30 7779 N 770.09 -0.729906 -1.39679 0
M  V30 7780 C 771.02 -0.101618 -2.33279 0
M  V30 7781 C 772.001 0.729854 -1.53646 0
M  V30 7782 O 773.186 0.67587 -1.82059 0
M  V30 7783 C 770.316 0.81024 -3.37716 0
M  V30 7784 C 769.27 0.0833126 -4.27919 0
M  V30 7785 C 768.596 1.11185 -5.23012 0
M  V30 7786 C 769.896 -1.07107 -5.112 0
M  V30 7787 H 771.59 -0.883452 -2.86069 0
M  V30 7788 H 769.136 -0.426283 -1.37546 0
M  V30 7789 H 771.089 1.25927 -4.02145 0
M  V30 7790 H 769.813 1.62413 -2.83354 0
M  V30 7791 H 768.472 -0.346043 -3.64963 0
M  V30 7792 H 768.12 1.91917 -4.64948 0
M  V30 7793 H 767.82 0.63026 -5.8421 0
M  V30 7794 H 769.344 1.56068 -5.90318 0
M  V30 7795 H 770.758 -0.700726 -5.69002 0
M  V30 7796 H 769.155 -1.48196 -5.81514 0
M  V30 7797 H 770.225 -1.89513 -4.46332 0
M  V30 7798 N 771.568 1.50203 -0.477153 0
M  V30 7799 C 772.516 2.30278 0.327826 0
M  V30 7800 C 773.51 1.37831 0.984839 0
M  V30 7801 O 774.716 1.54994 0.915251 0
M  V30 7802 H 771.091 0.741612 0.124564 0
M  V30 7803 H 773.062 2.96124 -0.367853 0
M  V30 7804 C 771.811 3.18548 1.39365 0
M  V30 7805 H 771.134 3.89596 0.897475 0
M  V30 7806 H 772.574 3.77561 1.92934 0
M  V30 7807 C 771.033 2.36548 2.39889 0
M  V30 7808 O 771.563 2.05282 3.45286 0
M  V30 7809 N 769.769 1.99015 2.11758 0
M  V30 7810 H 769.316 2.24641 1.26071 0
M  V30 7811 H 769.274 1.44454 2.7925 0
M  V30 7812 N 773.046 0.209999 1.56195 0
M  V30 7813 C 774.292 -0.425442 1.98287 0
M  V30 7814 C 774.625 -1.60232 1.09724 0
M  V30 7815 O 773.9 -1.93902 0.152414 0
M  V30 7816 C 774.183 -0.871189 3.49403 0
M  V30 7817 C 774.036 0.308527 4.48741 0
M  V30 7818 C 775.355 -1.73146 4.04609 0
M  V30 7819 H 772.474 -0.153169 0.720908 0
M  V30 7820 H 775.116 0.303916 1.87554 0
M  V30 7821 H 773.266 -1.49266 3.58681 0
M  V30 7822 H 774.938 0.946487 4.51486 0
M  V30 7823 H 773.181 0.957878 4.23092 0
M  V30 7824 H 773.852 -0.0461143 5.51981 0
M  V30 7825 H 776.328 -1.2072 3.98203 0
M  V30 7826 H 775.204 -2.01228 5.10684 0
M  V30 7827 H 775.465 -2.69083 3.5078 0
M  V30 7828 N 774.524 -1.57472 -0.0634922 0
M  V30 7829 C 775.487 -2.03268 -1.059 0
M  V30 7830 C 776.487 -0.931028 -1.31105 0
M  V30 7831 O 777.677 -1.19567 -1.26686 0
M  V30 7832 C 774.809 -2.42039 -2.40062 0
M  V30 7833 H 776.002 -2.92454 -0.664119 0
M  V30 7834 H 773.555 -1.53206 -0.309444 0
M  V30 7835 H 774.29 -1.55904 -2.84367 0
M  V30 7836 H 774.075 -3.22437 -2.23108 0
M  V30 7837 H 775.565 -2.78017 -3.11603 0
M  V30 7838 N 776.003 0.335068 -1.53997 0
M  V30 7839 C 777.233 1.0926 -1.75345 0
M  V30 7840 C 777.641 1.82568 -0.496545 0
M  V30 7841 O 776.984 1.75525 0.541897 0
M  V30 7842 C 777.046 2.14473 -2.88516 0
M  V30 7843 C 776.71 1.60665 -4.27827 0
M  V30 7844 C 777.707 1.05448 -5.09094 0
M  V30 7845 C 775.392 1.65255 -4.74337 0
M  V30 7846 C 777.386 0.555372 -6.34976 0
M  V30 7847 C 775.073 1.14956 -6.0019 0
M  V30 7848 C 776.071 0.601907 -6.80343 0
M  V30 7849 O 775.759 0.106445 -8.0383 0
M  V30 7850 H 775.491 0.331329 -0.589234 0
M  V30 7851 H 778.045 0.39042 -2.01655 0
M  V30 7852 H 776.275 2.88274 -2.5775 0
M  V30 7853 H 777.964 2.75857 -2.97755 0
M  V30 7854 H 778.73 1.01218 -4.74321 0
M  V30 7855 H 774.609 2.06822 -4.12002 0
M  V30 7856 H 778.153 0.127245 -6.97484 0
M  V30 7857 H 774.05 1.18891 -6.34457 0
M  V30 7858 H 774.818 0.222944 -8.18196 0
M  V30 7859 N 777.481 1.45874 0.596531 0
M  V30 7860 C 778.727 1.5069 1.35722 0
M  V30 7861 C 779.06 0.152506 1.936 0
M  V30 7862 O 778.335 -0.834411 1.75692 0
M  V30 7863 C 778.618 2.59474 2.4969 0
M  V30 7864 C 778.471 4.04396 1.96937 0
M  V30 7865 C 779.79 2.64451 3.51787 0
M  V30 7866 H 776.909 0.548611 0.492133 0
M  V30 7867 H 779.551 1.77741 0.671428 0
M  V30 7868 H 777.701 2.36539 3.08191 0
M  V30 7869 H 779.373 4.38576 1.43 0
M  V30 7870 H 777.616 4.14529 1.27859 0
M  V30 7871 H 778.287 4.76218 2.79143 0
M  V30 7872 H 780.763 2.85031 3.03145 0
M  V30 7873 H 779.639 3.42411 4.29006 0
M  V30 7874 H 779.9 1.69965 4.08123 0
M  V30 7875 N 778.959 -0.83999 1.33349 0
M  V30 7876 C 779.907 -1.97113 1.23488 0
M  V30 7877 C 780.901 -1.68849 0.136503 0
M  V30 7878 O 782.107 -1.77476 0.300389 0
M  V30 7879 H 778.482 -0.647049 0.383185 0
M  V30 7880 H 780.453 -2.02554 2.19122 0
M  V30 7881 C 779.202 -3.33314 0.989815 0
M  V30 7882 H 778.525 -3.556 1.82726 0
M  V30 7883 H 779.965 -4.12963 0.961123 0
M  V30 7884 C 778.424 -3.35496 -0.307272 0
M  V30 7885 O 778.954 -3.79589 -1.31434 0
M  V30 7886 N 777.16 -2.88669 -0.334414 0
M  V30 7887 H 776.707 -2.5298 0.485659 0
M  V30 7888 H 776.665 -2.90512 -1.20209 0
M  V30 7889 N 780.437 -1.16799 -1.0581 0
M  V30 7890 C 781.347 -0.893492 -2.16919 0
M  V30 7891 C 782.363 0.136061 -1.73467 0
M  V30 7892 O 783.539 -0.0417348 -2.01357 0
M  V30 7893 C 780.604 -0.403763 -3.44341 0
M  V30 7894 C 779.665 -1.49914 -4.02274 0
M  V30 7895 C 778.898 -1.03269 -5.23614 0
M  V30 7896 O 779.121 0.115647 -5.70283 0
M  V30 7897 O 778.055 -1.8231 -5.73626 0
M  V30 7898 H 781.881 -1.82274 -2.42919 0
M  V30 7899 H 779.466 -0.948361 -1.1544 0
M  V30 7900 H 781.348 -0.137874 -4.21174 0
M  V30 7901 H 780.023 0.497413 -3.19855 0
M  V30 7902 H 778.93 -1.81883 -3.26909 0
M  V30 7903 H 780.263 -2.3758 -4.31064 0
M  V30 7904 N 781.915 1.24427 -0.967243 0
M  V30 7905 C 783.14 1.9708 -0.646069 0
M  V30 7906 C 783.565 1.71272 0.777665 0
M  V30 7907 O 782.923 0.976179 1.52776 0
M  V30 7908 C 782.971 3.48501 -0.926266 0
M  V30 7909 O 782.075 4.12398 -0.0114653 0
M  V30 7910 H 781.416 0.617423 -0.244304 0
M  V30 7911 H 783.946 1.58215 -1.29727 0
M  V30 7912 H 783.956 3.98885 -0.857619 0
M  V30 7913 H 782.631 3.66613 -1.96386 0
M  V30 7914 H 781.208 3.72661 -0.133396 0
M  V30 7915 N 783.393 0.737304 1.3929 0
M  V30 7916 C 784.618 0.295237 2.05288 0
M  V30 7917 C 785.043 -1.06235 1.55228 0
M  V30 7918 O 784.401 -1.67365 0.697043 0
M  V30 7919 C 784.449 0.309146 3.59272 0
M  V30 7920 O 783.553 -0.702437 4.06374 0
M  V30 7921 H 782.894 0.133762 0.650387 0
M  V30 7922 H 785.424 1.00387 1.78279 0
M  V30 7923 H 785.434 0.154336 4.07708 0
M  V30 7924 H 784.109 1.29974 3.95069 0
M  V30 7925 H 782.686 -0.513574 3.69346 0
M  V30 7926 N 784.871 -1.49948 0.485112 0
M  V30 7927 C 786.096 -2.073 -0.0645059 0
M  V30 7928 C 786.521 -1.345 -1.31497 0
M  V30 7929 O 785.879 -0.39687 -1.76903 0
M  V30 7930 C 785.927 -3.59201 -0.317304 0
M  V30 7931 O 785.031 -3.88085 -1.39514 0
M  V30 7932 H 784.372 -0.663723 0.0191822 0
M  V30 7933 H 786.902 -1.92963 0.680179 0
M  V30 7934 H 786.912 -4.04227 -0.553604 0
M  V30 7935 H 785.587 -4.11602 0.596387 0
M  V30 7936 H 784.164 -3.54885 -1.14504 0
M  V30 7937 N 786.349 -0.21828 -1.56081 0
M  V30 7938 C 787.279 0.687922 -2.23136 0
M  V30 7939 C 788.26 1.20357 -1.202 0
M  V30 7940 O 789.445 1.24817 -1.48776 0
M  V30 7941 C 786.575 1.89762 -2.90874 0
M  V30 7942 C 785.529 1.51595 -4.00254 0
M  V30 7943 C 784.855 2.80415 -4.55271 0
M  V30 7944 C 786.155 0.708404 -5.17474 0
M  V30 7945 H 787.849 0.128854 -2.99123 0
M  V30 7946 H 785.395 0.0605354 -1.43873 0
M  V30 7947 H 787.348 2.53699 -3.36474 0
M  V30 7948 H 786.072 2.4816 -2.1233 0
M  V30 7949 H 784.731 0.900058 -3.55379 0
M  V30 7950 H 784.379 3.36951 -3.73461 0
M  V30 7951 H 784.079 2.55613 -5.2909 0
M  V30 7952 H 785.603 3.453 -5.03587 0
M  V30 7953 H 787.017 1.2514 -5.59476 0
M  V30 7954 H 785.414 0.557593 -5.97504 0
M  V30 7955 H 786.484 -0.285679 -4.84058 0
M  V30 7956 N 787.827 1.57504 0.0551401 0
M  V30 7957 C 789.052 1.92682 0.767352 0
M  V30 7958 C 789.477 0.81614 1.69472 0
M  V30 7959 O 788.835 -0.229989 1.79835 0
M  V30 7960 C 788.883 3.26866 1.52286 0
M  V30 7961 O 787.987 3.17274 2.63459 0
M  V30 7962 H 787.328 0.630502 0.208238 0
M  V30 7963 H 789.858 2.04592 0.0184026 0
M  V30 7964 H 789.868 3.61138 1.8985 0
M  V30 7965 H 788.543 4.07276 0.842541 0
M  V30 7966 H 787.12 2.94589 2.2863 0
M  V30 7967 N 789.305 -0.326896 1.54172 0
M  V30 7968 C 790.533 -1.08486 1.76177 0
M  V30 7969 C 790.948 -1.81815 0.508788 0
M  V30 7970 O 790.305 -1.74924 -0.520362 0
M  V30 7971 C 790.356 -2.08552 2.95276 0
M  V30 7972 O 790.077 -1.38202 4.15731 0
M  V30 7973 C 791.578 -2.96593 3.29466 0
M  V30 7974 H 788.798 -0.322835 0.588233 0
M  V30 7975 H 791.342 -0.374036 2.0105 0
M  V30 7976 H 789.497 -2.75174 2.72687 0
M  V30 7977 H 789.911 -2.05186 4.827 0
M  V30 7978 H 791.385 -3.62708 4.16109 0
M  V30 7979 H 791.862 -3.63511 2.46487 0
M  V30 7980 H 792.468 -2.35537 3.54122 0
M  V30 7981 N 790.784 -1.46188 -0.588786 0
M  V30 7982 C 792.009 -1.5498 -1.37826 0
M  V30 7983 C 792.434 -0.189498 -1.87143 0
M  V30 7984 O 791.792 0.829293 -1.61222 0
M  V30 7985 C 791.84 -2.55369 -2.54596 0
M  V30 7986 O 790.944 -2.08452 -3.55839 0
M  V30 7987 H 790.285 -0.521741 -0.41071 0
M  V30 7988 H 792.815 -1.91708 -0.714779 0
M  V30 7989 H 792.825 -2.74782 -3.01594 0
M  V30 7990 H 791.5 -3.54155 -2.18052 0
M  V30 7991 H 790.077 -1.98999 -3.15363 0
M  V30 7992 N 792.262 0.832906 -1.33792 0
M  V30 7993 C 793.194 1.95042 -1.2038 0
M  V30 7994 C 794.207 1.62253 -0.133299 0
M  V30 7995 O 795.396 1.74315 -0.384261 0
M  V30 7996 C 792.496 3.287 -0.825215 0
M  V30 7997 C 791.669 3.89581 -1.98861 0
M  V30 7998 C 790.728 5.01602 -1.59003 0
M  V30 7999 O 789.754 5.20431 -2.30522 0
M  V30 8000 N 790.956 5.78356 -0.498446 0
M  V30 8001 H 793.721 2.07083 -2.16649 0
M  V30 8002 H 791.282 1.00896 -1.26616 0
M  V30 8003 H 793.274 4.01074 -0.540559 0
M  V30 8004 H 791.844 3.12565 0.0469796 0
M  V30 8005 H 791.064 3.09723 -2.43856 0
M  V30 8006 H 792.352 4.26989 -2.76691 0
M  V30 8007 H 791.75 5.65618 0.0963297 0
M  V30 8008 H 790.307 6.51226 -0.273485 0
M  V30 8009 N 793.74 1.17359 1.05189 0
M  V30 8010 C 794.687 0.890325 2.12936 0
M  V30 8011 C 795.657 -0.165779 1.65271 0
M  V30 8012 O 796.842 -0.0285672 1.90779 0
M  V30 8013 C 793.982 0.409793 3.42658 0
M  V30 8014 C 793.095 1.53002 4.03998 0
M  V30 8015 C 792.23 1.00336 5.21638 0
M  V30 8016 C 791.269 2.09903 5.74984 0
M  V30 8017 N 790.406 1.58714 6.83926 0
M  V30 8018 H 795.246 1.81299 2.36505 0
M  V30 8019 H 792.783 0.904249 1.16025 0
M  V30 8020 H 794.741 0.112743 4.17048 0
M  V30 8021 H 793.371 -0.475915 3.19272 0
M  V30 8022 H 792.423 1.9428 3.27047 0
M  V30 8023 H 793.735 2.3564 4.39631 0
M  V30 8024 H 792.889 0.660158 6.03098 0
M  V30 8025 H 791.628 0.14642 4.8748 0
M  V30 8026 H 790.633 2.45081 4.92154 0
M  V30 8027 H 791.858 2.96013 6.1119 0
M  V30 8028 H 789.804 0.752915 6.51665 0
M  V30 8029 H 789.721 2.34959 7.18561 0
M  V30 8030 H 790.989 1.27287 7.69037 0
M  V30 8031 N 795.218 -1.23913 0.973828 0
M  V30 8032 C 796.181 -2.23367 0.51378 0
M  V30 8033 C 797.181 -1.55923 -0.39302 0
M  V30 8034 O 798.371 -1.73187 -0.187626 0
M  V30 8035 C 795.503 -3.39944 -0.255152 0
M  V30 8036 H 796.696 -2.65581 1.39307 0
M  V30 8037 H 794.249 -1.36632 0.759039 0
M  V30 8038 H 794.984 -3.03177 -1.15127 0
M  V30 8039 H 794.769 -3.90098 0.395673 0
M  V30 8040 H 796.259 -4.13749 -0.565842 0
M  V30 8041 N 796.696 -0.74468 -1.38897 0
M  V30 8042 C 797.924 -0.307428 -2.04603 0
M  V30 8043 C 798.339 1.06115 -1.56157 0
M  V30 8044 O 797.696 1.67233 -0.730701 0
M  V30 8045 C 797.747 -0.31101 -3.6016 0
M  V30 8046 O 797.468 -1.62557 -4.06825 0
M  V30 8047 C 798.969 0.141213 -4.43075 0
M  V30 8048 H 796.189 -0.132741 -0.657739 0
M  V30 8049 H 798.733 -1.01104 -1.77759 0
M  V30 8050 H 796.888 0.343792 -3.85872 0
M  V30 8051 H 797.302 -1.54569 -5.01207 0
M  V30 8052 H 798.776 0.0875449 -5.51931 0
M  V30 8053 H 799.253 1.18782 -4.22833 0
M  V30 8054 H 799.859 -0.484383 -4.22533 0
M  V30 8055 N 798.174 1.49689 -0.493057 0
M  V30 8056 C 799.404 2.06536 0.0512397 0
M  V30 8057 C 799.812 1.35459 1.32089 0
M  V30 8058 O 799.155 0.424145 1.78736 0
M  V30 8059 C 799.217 3.57452 0.383231 0
M  V30 8060 C 798.881 4.50163 -0.787555 0
M  V30 8061 C 799.878 4.92151 -1.67582 0
M  V30 8062 C 797.563 4.92565 -0.984109 0
M  V30 8063 C 799.557 5.7527 -2.74487 0
M  V30 8064 C 797.244 5.75463 -2.05634 0
M  V30 8065 C 798.242 6.16719 -2.93507 0
M  V30 8066 O 797.93 6.97961 -3.98881 0
M  V30 8067 H 797.662 0.675862 -0.0136516 0
M  V30 8068 H 800.216 1.9356 -0.687298 0
M  V30 8069 H 798.446 3.68408 1.17526 0
M  V30 8070 H 800.135 3.96572 0.8652 0
M  V30 8071 H 800.901 4.60043 -1.53575 0
M  V30 8072 H 796.78 4.5996 -0.309541 0
M  V30 8073 H 800.324 6.07392 -3.43104 0
M  V30 8074 H 796.221 6.06983 -2.19639 0
M  V30 8075 H 796.989 7.16253 -3.96137 0
M  V30 8076 N 799.652 0.226554 1.55963 0
M  V30 8077 C 800.877 -0.411527 2.03276 0
M  V30 8078 C 801.302 -1.52206 1.10521 0
M  V30 8079 O 800.66 -1.81054 0.0943217 0
M  V30 8080 C 800.708 -0.915694 3.4878 0
M  V30 8081 O 799.812 -2.02672 3.59163 0
M  V30 8082 H 799.153 -0.0924907 0.657527 0
M  V30 8083 H 801.683 0.346656 2.01642 0
M  V30 8084 H 801.693 -1.22421 3.892 0
M  V30 8085 H 800.368 -0.102915 4.15773 0
M  V30 8086 H 798.945 -1.72445 3.30632 0
M  V30 8087 N 801.13 -1.57531 -0.0467866 0
M  V30 8088 C 802.377 -1.88451 -0.74112 0
M  V30 8089 C 802.705 -0.821592 -1.76296 0
M  V30 8090 O 801.96 0.179585 -1.94874 0
M  V30 8091 C 802.259 -3.26091 -1.46285 0
M  V30 8092 C 801.925 -4.47171 -0.578669 0
M  V30 8093 C 800.587 -4.80032 -0.335083 0
M  V30 8094 C 802.939 -5.2119 0.0328809 0
M  V30 8095 C 800.267 -5.84309 0.529121 0
M  V30 8096 C 802.619 -6.26383 0.884684 0
M  V30 8097 C 801.283 -6.57729 1.1379 0
M  V30 8098 H 800.553 -0.68959 -0.271195 0
M  V30 8099 H 803.2 -1.915 -0.00132378 0
M  V30 8100 H 801.505 -3.18948 -2.27551 0
M  V30 8101 H 803.202 -3.47258 -2.00532 0
M  V30 8102 H 799.792 -4.21467 -0.778666 0
M  V30 8103 H 803.976 -4.96096 -0.142375 0
M  V30 8104 H 799.232 -6.06981 0.733794 0
M  V30 8105 H 803.406 -6.82888 1.36516 0
M  V30 8106 H 801.033 -7.38355 1.80929 0
M  V30 8107 N 802.608 0.318715 -1.54344 0
M  V30 8108 C 803.836 1.0755 -1.7675 0
M  V30 8109 C 804.251 1.81543 -0.518422 0
M  V30 8110 O 803.608 1.75198 0.511078 0
M  V30 8111 C 803.659 2.06983 -2.96378 0
M  V30 8112 O 803.38 1.35995 -4.16458 0
M  V30 8113 C 804.881 2.94841 -3.31034 0
M  V30 8114 H 802.101 0.319711 -0.589937 0
M  V30 8115 H 804.645 0.363369 -2.01246 0
M  V30 8116 H 802.8 2.73724 -2.74142 0
M  V30 8117 H 803.214 2.02623 -4.83781 0
M  V30 8118 H 804.688 3.60496 -4.18027 0
M  V30 8119 H 805.165 3.62199 -2.48412 0
M  V30 8120 H 805.771 2.33656 -3.55366 0
M  V30 8121 N 804.086 1.46499 0.581025 0
M  V30 8122 C 805.049 1.5677 1.672 0
M  V30 8123 C 806.049 0.444716 1.54528 0
M  V30 8124 O 807.239 0.709074 1.59116 0
M  V30 8125 C 804.371 1.4896 3.06633 0
M  V30 8126 H 805.564 2.54 1.5945 0
M  V30 8127 H 803.117 1.34334 0.799003 0
M  V30 8128 H 803.852 0.530168 3.19937 0
M  V30 8129 H 803.637 2.30439 3.17239 0
M  V30 8130 H 805.127 1.59237 3.86048 0
M  V30 8131 N 805.565 -0.825799 1.34232 0
M  V30 8132 C 806.793 -1.61363 1.29497 0
M  V30 8133 C 807.208 -1.88341 -0.131536 0
M  V30 8134 O 806.565 -1.47279 -1.07773 0
M  V30 8135 C 806.616 -2.95623 2.08061 0
M  V30 8136 O 806.337 -2.69824 3.45147 0
M  V30 8137 C 807.838 -3.90032 2.10688 0
M  V30 8138 H 805.058 -0.501676 0.445603 0
M  V30 8139 H 807.602 -1.02767 1.76803 0
M  V30 8140 H 805.757 -3.50785 1.64404 0
M  V30 8141 H 806.171 -3.55412 3.85723 0
M  V30 8142 H 807.645 -4.81411 2.70087 0
M  V30 8143 H 808.122 -4.25188 1.10052 0
M  V30 8144 H 808.728 -3.40807 2.54422 0
M  V30 8145 N 807.043 -1.17915 -1.04565 0
M  V30 8146 C 808.006 -0.903787 -2.10628 0
M  V30 8147 C 809.006 0.10873 -1.60432 0
M  V30 8148 O 810.196 -0.124152 -1.73757 0
M  V30 8149 C 807.328 -0.355017 -3.39046 0
M  V30 8150 H 808.521 -1.84425 -2.3649 0
M  V30 8151 H 806.074 -0.990477 -1.2091 0
M  V30 8152 H 806.809 0.592297 -3.18845 0
M  V30 8153 H 806.594 -1.08484 -3.76794 0
M  V30 8154 H 808.084 -0.180891 -4.17208 0
M  V30 8155 N 808.521 1.23394 -0.980386 0
M  V30 8156 C 809.769 1.91431 -0.647978 0
M  V30 8157 C 810.09 1.76871 0.821066 0
M  V30 8158 O 809.36 1.14808 1.58732 0
M  V30 8159 H 807.94 0.708516 -0.236673 0
M  V30 8160 H 810.602 1.50019 -1.2442 0
M  V30 8161 H 809.698 2.98854 -0.899592 0
M  V30 8162 N 809.999 0.752036 1.385 0
M  V30 8163 C 810.946 0.123288 2.3047 0
M  V30 8164 C 811.916 -0.711326 1.50098 0
M  V30 8165 O 813.101 -0.667775 1.78733 0
M  V30 8166 C 810.241 -0.765085 3.36512 0
M  V30 8167 C 809.354 0.0839885 4.31918 0
M  V30 8168 C 808.489 -0.807243 5.25031 0
M  V30 8169 C 807.528 0.0455583 6.12083 0
M  V30 8170 N 806.665 -0.802547 6.97498 0
M  V30 8171 H 811.505 0.913169 2.83664 0
M  V30 8172 H 809.042 0.46195 1.39658 0
M  V30 8173 H 811 -1.29476 3.966 0
M  V30 8174 H 809.63 -1.52077 2.84732 0
M  V30 8175 H 808.682 0.731276 3.73305 0
M  V30 8176 H 809.994 0.74265 4.9324 0
M  V30 8177 H 809.148 -1.40414 5.90228 0
M  V30 8178 H 807.887 -1.49964 4.64071 0
M  V30 8179 H 806.892 0.655137 5.45883 0
M  V30 8180 H 808.117 0.734994 6.75111 0
M  V30 8181 H 806.063 -1.47992 6.39089 0
M  V30 8182 H 805.98 -0.200747 7.55733 0
M  V30 8183 H 807.248 -1.38447 7.67107 0
M  V30 8184 N 811.477 -1.49425 0.500989 0
M  V30 8185 C 812.888 -1.86624 0.0532011 0
M  V30 8186 C 813.239 -1.41331 -1.36088 0
M  V30 8187 O 812.364 -0.791195 -2.01418 0
M  V30 8188 C 812.959 -3.38681 0.0897693 0
M  V30 8189 C 811.518 -3.75181 -0.302677 0
M  V30 8190 C 810.665 -2.73419 0.462307 0
M  V30 8191 H 813.616 -1.41743 0.713773 0
M  V30 8192 H 813.637 -3.73902 -0.705528 0
M  V30 8193 H 813.149 -3.71616 1.11907 0
M  V30 8194 H 811.25 -3.47855 -1.33521 0
M  V30 8195 H 811.363 -4.79097 0.0167653 0
M  V30 8196 H 809.727 -2.54548 -0.0878557 0
M  V30 8197 H 810.51 -3.09198 1.49169 0
M  V30 8198 N 812.955 -0.234822 -1.55841 0
M  V30 8199 C 813.885 0.664217 -2.23854 0
M  V30 8200 C 814.866 1.19076 -1.2147 0
M  V30 8201 O 816.051 1.23232 -1.50091 0
M  V30 8202 C 813.181 1.86666 -2.9287 0
M  V30 8203 C 812.135 1.47341 -4.01839 0
M  V30 8204 C 811.461 2.75571 -4.58219 0
M  V30 8205 C 812.761 0.653479 -5.18196 0
M  V30 8206 H 814.455 0.0971213 -2.99242 0
M  V30 8207 H 812.001 0.0452724 -1.43929 0
M  V30 8208 H 813.954 2.50116 -3.39146 0
M  V30 8209 H 812.678 2.45894 -2.1495 0
M  V30 8210 H 811.337 0.862314 -3.56314 0
M  V30 8211 H 810.985 3.32971 -3.77014 0
M  V30 8212 H 810.685 2.49987 -5.31771 0
M  V30 8213 H 812.209 3.39939 -5.07221 0
M  V30 8214 H 813.623 1.19198 -5.60771 0
M  V30 8215 H 812.02 0.494188 -5.98062 0
M  V30 8216 H 813.09 -0.337004 -4.83728 0
M  V30 8217 N 814.433 1.57553 0.0384317 0
M  V30 8218 C 815.38 2.05942 1.04194 0
M  V30 8219 C 816.35 0.946637 1.36484 0
M  V30 8220 O 817.535 1.21658 1.46983 0
M  V30 8221 C 814.675 2.53588 2.34066 0
M  V30 8222 C 813.788 3.7862 2.08017 0
M  V30 8223 C 812.923 4.14915 3.31692 0
M  V30 8224 C 811.962 5.32891 3.01155 0
M  V30 8225 N 811.099 5.64662 4.17254 0
M  V30 8226 H 815.939 2.91429 0.622341 0
M  V30 8227 H 813.476 1.44098 0.295684 0
M  V30 8228 H 815.434 2.79276 3.09937 0
M  V30 8229 H 814.064 1.71031 2.73767 0
M  V30 8230 H 813.116 3.60073 1.22686 0
M  V30 8231 H 814.428 4.64613 1.81484 0
M  V30 8232 H 813.582 4.41681 4.15936 0
M  V30 8233 H 812.321 3.27555 3.6133 0
M  V30 8234 H 811.326 5.05887 2.15311 0
M  V30 8235 H 812.551 6.21896 2.72804 0
M  V30 8236 H 810.497 4.80261 4.46861 0
M  V30 8237 H 810.414 6.45145 3.94112 0
M  V30 8238 H 811.682 5.96 5.02399 0
M  V30 8239 N 815.911 -0.310526 1.54511 0
M  V30 8240 C 817.16 -1.0445 1.72549 0
M  V30 8241 C 817.473 -1.88748 0.513172 0
M  V30 8242 O 818.679 -2.65338 0.575165 0
M  V30 8243 C 817.135 -1.90665 3.05246 0
M  V30 8244 C 816.743 -1.11415 4.33925 0
M  V30 8245 C 818.487 -2.63719 3.32645 0
M  V30 8246 C 816.394 -1.96852 5.57677 0
M  V30 8247 H 815.324 -0.393676 0.643067 0
M  V30 8248 H 817.975 -0.302003 1.80998 0
M  V30 8249 H 816.357 -2.68864 2.90737 0
M  V30 8250 H 817.531 -0.378956 4.59239 0
M  V30 8251 H 815.846 -0.499853 4.13389 0
M  V30 8252 H 818.443 -3.27974 4.223 0
M  V30 8253 H 818.786 -3.32047 2.51098 0
M  V30 8254 H 819.319 -1.92574 3.48081 0
M  V30 8255 H 816.058 -1.33009 6.41864 0
M  V30 8256 H 815.578 -2.68069 5.36562 0
M  V30 8257 H 817.257 -2.55127 5.94575 0
M  V30 8258 N 817.389 -1.46805 -0.573248 0
M  V30 8259 C 818.614 -1.56433 -1.36175 0
M  V30 8260 C 819.039 -0.209336 -1.86932 0
M  V30 8261 O 818.397 0.812146 -1.62092 0
M  V30 8262 C 818.445 -2.58055 -2.51873 0
M  V30 8263 O 817.549 -2.12214 -3.53609 0
M  V30 8264 H 816.89 -0.526068 -0.405153 0
M  V30 8265 H 819.42 -1.92456 -0.694405 0
M  V30 8266 H 819.43 -2.77966 -2.98662 0
M  V30 8267 H 818.105 -3.56448 -2.14284 0
M  V30 8268 H 816.682 -2.02333 -3.13234 0
M  V30 8269 N 818.867 0.818669 -1.34668 0
M  V30 8270 C 819.797 1.94468 -1.29245 0
M  V30 8271 C 820.778 1.69257 -0.169101 0
M  V30 8272 O 821.963 1.90794 -0.362143 0
M  V30 8273 C 819.093 3.31001 -1.05145 0
M  V30 8274 C 818.047 3.70663 -2.13992 0
M  V30 8275 C 817.373 5.05226 -1.75074 0
M  V30 8276 C 818.673 3.82312 -3.55858 0
M  V30 8277 H 820.367 1.99263 -2.2346 0
M  V30 8278 H 817.913 0.957304 -1.07572 0
M  V30 8279 H 819.866 4.09364 -0.999949 0
M  V30 8280 H 818.59 3.26517 -0.0737312 0
M  V30 8281 H 817.249 2.94578 -2.18219 0
M  V30 8282 H 816.897 4.97233 -0.759518 0
M  V30 8283 H 816.597 5.32734 -2.47928 0
M  V30 8284 H 818.121 5.86042 -1.71427 0
M  V30 8285 H 819.535 4.50935 -3.5402 0
M  V30 8286 H 817.932 4.21278 -4.2737 0
M  V30 8287 H 819.002 2.84193 -3.9289 0
M  V30 8288 N 820.346 1.18468 1.03938 0
M  V30 8289 C 821.592 0.982286 1.77423 0
M  V30 8290 C 821.925 -0.48679 1.88 0
M  V30 8291 O 821.2 -1.36146 1.38905 0
M  V30 8292 C 821.483 1.63929 3.20623 0
M  V30 8293 C 821.336 3.18132 3.17982 0
M  V30 8294 C 822.655 1.3536 4.18767 0
M  V30 8295 H 819.774 0.358264 0.644062 0
M  V30 8296 H 822.416 1.46154 1.21405 0
M  V30 8297 H 820.566 1.2318 3.68455 0
M  V30 8298 H 822.238 3.68024 2.78129 0
M  V30 8299 H 820.481 3.50225 2.55978 0
M  V30 8300 H 821.152 3.5924 4.19107 0
M  V30 8301 H 823.628 1.70669 3.79488 0
M  V30 8302 H 822.504 1.83896 5.17178 0
M  V30 8303 H 822.765 0.276722 4.41233 0
M  V30 8304 N 821.824 -1.22873 0.986916 0
M  V30 8305 C 823.07 -1.92047 0.670042 0
M  V30 8306 C 823.425 -1.75497 -0.788587 0
M  V30 8307 O 822.718 -1.10934 -1.56218 0
M  V30 8308 C 822.912 -3.43014 1.00379 0
M  V30 8309 C 822.741 -3.74251 2.49332 0
M  V30 8310 C 821.511 -3.94589 3.15638 0
M  V30 8311 C 823.709 -3.79208 3.47428 0
M  V30 8312 N 821.691 -4.13086 4.54129 0
M  V30 8313 C 823.062 -4.02775 4.71352 0
M  V30 8314 C 825.117 -3.62029 3.41818 0
M  V30 8315 C 823.82 -4.10946 5.90352 0
M  V30 8316 C 825.846 -3.71457 4.60189 0
M  V30 8317 C 825.208 -3.95468 5.82911 0
M  V30 8318 H 821.307 -0.723668 0.29636 0
M  V30 8319 H 823.891 -1.47946 1.26571 0
M  V30 8320 H 822.062 -3.85936 0.436762 0
M  V30 8321 H 823.794 -3.99551 0.643522 0
M  V30 8322 H 820.549 -3.91762 2.66119 0
M  V30 8323 H 820.973 -4.26275 5.25945 0
M  V30 8324 H 825.615 -3.42457 2.47958 0
M  V30 8325 H 823.333 -4.29324 6.84621 0
M  V30 8326 H 826.919 -3.59511 4.57431 0
M  V30 8327 H 825.799 -4.02584 6.72975 0
M  V30 8328 N 823.302 -0.75937 -1.38099 0
M  V30 8329 C 824.527 -0.327859 -2.04792 0
M  V30 8330 C 824.952 1.03752 -1.56899 0
M  V30 8331 O 824.31 1.66235 -0.723581 0
M  V30 8332 C 824.358 -0.366264 -3.58735 0
M  V30 8333 O 823.462 0.637697 -4.0744 0
M  V30 8334 H 822.803 -0.144092 -0.648177 0
M  V30 8335 H 825.333 -1.03211 -1.7666 0
M  V30 8336 H 825.343 -0.219179 -4.07411 0
M  V30 8337 H 824.018 -1.36243 -3.92951 0
M  V30 8338 H 822.595 0.454749 -3.70117 0
M  V30 8339 N 824.78 1.49157 -0.508906 0
M  V30 8340 C 826.057 1.95363 0.0961913 0
M  V30 8341 C 826.437 1.45064 1.53362 0
M  V30 8342 O 825.785 0.667835 2.18523 0
M  V30 8343 C 825.995 3.49 0.000688881 0
M  V30 8344 C 827.343 4.24257 0.170632 0
M  V30 8345 O 828.367 3.5612 0.0754994 0
M  V30 8346 O 827.226 5.45267 0.366957 0
M  V30 8347 H 824.32 0.821984 0.0909489 0
M  V30 8348 H 826.866 1.59769 -0.572007 0
M  V30 8349 H 825.638 3.78269 -1.00143 0
M  V30 8350 H 825.261 3.91233 0.708682 0
M  V30 8351 N 826.258 0.243083 1.55714 0
M  V30 8352 C 827.221 -0.644723 2.19945 0
M  V30 8353 C 828.221 -1.10562 1.16759 0
M  V30 8354 O 829.411 -1.01095 1.41865 0
M  V30 8355 C 826.543 -1.88569 2.83997 0
M  V30 8356 H 827.736 -0.0843839 2.99781 0
M  V30 8357 H 825.289 -0.00647246 1.56299 0
M  V30 8358 H 826.024 -2.48736 2.08089 0
M  V30 8359 H 825.809 -1.56345 3.59581 0
M  V30 8360 H 827.299 -2.51774 3.33166 0
M  V30 8361 N 827.736 -1.57571 -0.0300757 0
M  V30 8362 C 829.147 -1.77567 -0.576802 0
M  V30 8363 C 829.498 -0.874034 -1.75656 0
M  V30 8364 O 828.623 -0.0686124 -2.16291 0
M  V30 8365 C 829.218 -3.22016 -1.05315 0
M  V30 8366 C 827.777 -3.43212 -1.5454 0
M  V30 8367 C 826.924 -2.73061 -0.483033 0
M  V30 8368 H 829.875 -1.57483 0.196151 0
M  V30 8369 H 829.896 -3.28474 -1.92055 0
M  V30 8370 H 829.408 -3.87613 -0.194298 0
M  V30 8371 H 827.509 -2.82788 -2.42615 0
M  V30 8372 H 827.622 -4.5182 -1.5936 0
M  V30 8373 H 825.986 -2.36805 -0.937835 0
M  V30 8374 H 826.769 -3.4134 0.366341 0
M  V30 8375 N 829.214 0.302327 -1.54673 0
M  V30 8376 C 830.177 1.35592 -1.8479 0
M  V30 8377 C 831.177 1.43743 -0.72073 0
M  V30 8378 O 832.367 1.43402 -0.989017 0
M  V30 8379 C 829.499 2.74091 -2.02699 0
M  V30 8380 H 830.692 1.10132 -2.78946 0
M  V30 8381 H 828.245 0.538926 -1.46715 0
M  V30 8382 H 828.98 3.04775 -1.10826 0
M  V30 8383 H 828.765 2.69565 -2.8474 0
M  V30 8384 H 830.255 3.50272 -2.27374 0
M  V30 8385 N 830.692 1.47107 0.565454 0
M  V30 8386 C 831.917 1.57153 1.35343 0
M  V30 8387 C 832.342 0.219247 1.86818 0
M  V30 8388 O 831.7 -0.803539 1.62521 0
M  V30 8389 C 831.748 2.59387 2.50501 0
M  V30 8390 O 830.852 2.14086 3.52478 0
M  V30 8391 H 830.193 0.528209 0.402357 0
M  V30 8392 H 832.723 1.92821 0.684189 0
M  V30 8393 H 832.733 2.79546 2.97184 0
M  V30 8394 H 831.408 3.57579 2.12391 0
M  V30 8395 H 829.985 2.03991 3.12157 0
M  V30 8396 N 832.17 -0.811516 1.35101 0
M  V30 8397 C 833.398 -1.59981 1.31201 0
M  V30 8398 C 833.813 -1.8847 -0.111552 0
M  V30 8399 O 833.17 -1.48414 -1.06205 0
M  V30 8400 C 833.221 -2.934 2.11184 0
M  V30 8401 O 832.942 -2.66148 3.4799 0
M  V30 8402 C 834.443 -3.87776 2.14813 0
M  V30 8403 H 831.663 -0.496921 0.450899 0
M  V30 8404 H 834.207 -1.00886 1.77883 0
M  V30 8405 H 832.362 -3.49022 1.68115 0
M  V30 8406 H 832.776 -3.51301 3.89471 0
M  V30 8407 H 834.25 -4.7852 2.75178 0
M  V30 8408 H 834.727 -4.23997 1.14556 0
M  V30 8409 H 835.333 -3.3809 2.58022 0
M  V30 8410 N 833.648 -1.19017 -1.03309 0
M  V30 8411 C 834.876 -1.01534 -1.80273 0
M  V30 8412 C 835.291 0.43605 -1.83696 0
M  V30 8413 O 834.648 1.30288 -1.27794 0
M  V30 8414 C 834.699 -1.5722 -3.25522 0
M  V30 8415 O 834.42 -2.96677 -3.22358 0
M  V30 8416 C 835.921 -1.4446 -4.19102 0
M  V30 8417 H 833.141 -0.358094 -0.567459 0
M  V30 8418 H 835.685 -1.57738 -1.3015 0
M  V30 8419 H 833.84 -1.05174 -3.7285 0
M  V30 8420 H 834.254 -3.22795 -4.13405 0
M  V30 8421 H 835.728 -1.88209 -5.18923 0
M  V30 8422 H 836.205 -0.394471 -4.37425 0
M  V30 8423 H 836.811 -1.95616 -3.77643 0
M  V30 8424 N 835.127 1.22348 -0.993418 0
M  V30 8425 C 836.09 2.22522 -0.549251 0
M  V30 8426 C 837.09 1.56529 0.368164 0
M  V30 8427 O 838.28 1.73463 0.16005 0
M  V30 8428 C 835.412 3.40307 0.201037 0
M  V30 8429 H 836.605 2.63332 -1.43515 0
M  V30 8430 H 834.158 1.35407 -0.78068 0
M  V30 8431 H 834.893 3.0497 1.10289 0
M  V30 8432 H 834.678 3.8942 -0.457685 0
M  V30 8433 H 836.168 4.14597 0.499946 0
M  V30 8434 N 836.605 0.766683 1.37694 0
M  V30 8435 C 837.83 0.338715 2.04615 0
M  V30 8436 C 838.255 -1.02918 1.57447 0
M  V30 8437 O 837.613 -1.65849 0.732386 0
M  V30 8438 C 837.661 0.385284 3.58536 0
M  V30 8439 O 836.765 -0.616081 4.07772 0
M  V30 8440 H 836.106 0.147527 0.647404 0
M  V30 8441 H 838.636 1.04146 1.7611 0
M  V30 8442 H 838.646 0.240782 4.07289 0
M  V30 8443 H 837.321 1.38325 3.92223 0
M  V30 8444 H 835.898 -0.435115 3.70353 0
M  V30 8445 N 838.083 -1.48885 0.516809 0
M  V30 8446 C 839.329 -2.02788 -0.0220928 0
M  V30 8447 C 839.662 -1.39433 -1.35175 0
M  V30 8448 O 838.937 -0.535459 -1.86984 0
M  V30 8449 C 839.22 -3.59753 -0.158012 0
M  V30 8450 C 839.073 -4.33611 1.19588 0
M  V30 8451 C 840.392 -4.30984 -0.891133 0
M  V30 8452 H 837.511 -0.736971 -0.00655488 0
M  V30 8453 H 840.153 -1.77746 0.671287 0
M  V30 8454 H 838.303 -3.8122 -0.748568 0
M  V30 8455 H 839.975 -4.23598 1.82653 0
M  V30 8456 H 838.218 -3.95547 1.78116 0
M  V30 8457 H 838.889 -5.41846 1.05391 0
M  V30 8458 H 841.365 -4.14267 -0.39012 0
M  V30 8459 H 840.241 -5.40527 -0.955107 0
M  V30 8460 H 840.502 -3.97336 -1.93847 0
M  V30 8461 N 839.561 -0.251338 -1.55583 0
M  V30 8462 C 840.789 0.376187 -2.03451 0
M  V30 8463 C 841.204 1.51215 -1.13047 0
M  V30 8464 O 840.561 1.81917 -0.145769 0
M  V30 8465 C 840.612 0.879779 -3.50631 0
M  V30 8466 O 840.333 -0.210917 -4.37592 0
M  V30 8467 C 841.834 1.57754 -4.14281 0
M  V30 8468 H 839.054 0.0888722 -0.665089 0
M  V30 8469 H 841.598 -0.376497 -2.01004 0
M  V30 8470 H 839.753 1.58263 -3.53598 0
M  V30 8471 H 840.167 0.172203 -5.24217 0
M  V30 8472 H 841.641 1.88158 -5.18942 0
M  V30 8473 H 842.118 2.50103 -3.61034 0
M  V30 8474 H 842.724 0.919154 -4.15249 0
M  V30 8475 N 841.039 1.57585 0.0217189 0
M  V30 8476 C 841.969 2.10073 1.01939 0
M  V30 8477 C 842.95 1.0049 1.37243 0
M  V30 8478 O 844.135 1.28055 1.45999 0
M  V30 8479 C 841.265 2.58618 2.31806 0
M  V30 8480 C 840.219 3.72531 2.10724 0
M  V30 8481 C 839.545 4.07309 3.46415 0
M  V30 8482 C 840.845 5.00672 1.48743 0
M  V30 8483 H 842.539 2.9368 0.582432 0
M  V30 8484 H 840.085 1.41277 0.278715 0
M  V30 8485 H 842.038 2.9396 3.01936 0
M  V30 8486 H 840.762 1.72104 2.77575 0
M  V30 8487 H 839.421 3.37549 1.43025 0
M  V30 8488 H 839.069 3.17851 3.89846 0
M  V30 8489 H 838.769 4.84042 3.33132 0
M  V30 8490 H 840.293 4.45192 4.17895 0
M  V30 8491 H 841.707 5.33925 2.088 0
M  V30 8492 H 840.104 5.82065 1.46013 0
M  V30 8493 H 841.174 4.82769 0.45408 0
M  V30 8494 N 842.517 -0.29412 1.54831 0
M  V30 8495 C 843.763 -1.02999 1.74697 0
M  V30 8496 C 844.096 -1.86687 0.534949 0
M  V30 8497 O 843.371 -1.88789 -0.467863 0
M  V30 8498 C 843.654 -1.93024 3.03996 0
M  V30 8499 C 843.507 -1.1247 4.35512 0
M  V30 8500 C 844.826 -2.92085 3.29203 0
M  V30 8501 H 841.945 -0.373039 0.635618 0
M  V30 8502 H 844.587 -0.304065 1.87551 0
M  V30 8503 H 842.737 -2.5492 2.93169 0
M  V30 8504 H 844.409 -0.528067 4.58268 0
M  V30 8505 H 842.652 -0.427574 4.31688 0
M  V30 8506 H 843.323 -1.78728 5.22265 0
M  V30 8507 H 845.799 -2.40319 3.39685 0
M  V30 8508 H 844.675 -3.52234 4.20978 0
M  V30 8509 H 844.936 -3.66107 2.47827 0
M  V30 8510 N 843.995 -1.47404 -0.557645 0
M  V30 8511 C 844.943 -1.60265 -1.68576 0
M  V30 8512 C 845.937 -0.469982 -1.6275 0
M  V30 8513 O 847.143 -0.647764 -1.67941 0
M  V30 8514 H 843.518 -0.504353 -0.557792 0
M  V30 8515 H 845.489 -2.55066 -1.54867 0
M  V30 8516 C 844.238 -1.63369 -3.0693 0
M  V30 8517 H 843.561 -2.49874 -3.12095 0
M  V30 8518 H 845.001 -1.76417 -3.85556 0
M  V30 8519 C 843.46 -0.366921 -3.34896 0
M  V30 8520 O 843.99 0.53218 -3.98159 0
M  V30 8521 N 842.196 -0.247082 -2.89548 0
M  V30 8522 H 841.743 -0.979669 -2.38244 0
M  V30 8523 H 841.701 0.599552 -3.0863 0
M  V30 8524 N 845.473 0.80434 -1.35529 0
M  V30 8525 C 846.75 1.5486 -1.1949 0
M  V30 8526 C 847.13 2.09897 0.22506 0
M  V30 8527 O 846.478 1.92643 1.22886 0
M  V30 8528 C 846.688 2.65535 -2.26478 0
M  V30 8529 C 848.036 3.33814 -2.62399 0
M  V30 8530 O 849.06 2.75807 -2.25409 0
M  V30 8531 O 847.919 4.38612 -3.26009 0
M  V30 8532 H 845.013 0.68433 -0.464351 0
M  V30 8533 H 847.559 0.844107 -1.47217 0
M  V30 8534 H 846.331 2.22754 -3.21709 0
M  V30 8535 H 845.954 3.43617 -2.00033 0
M  V30 8536 N 846.951 1.19563 1.02676 0
M  V30 8537 C 847.881 0.959024 2.12897 0
M  V30 8538 C 848.862 -0.108382 1.69754 0
M  V30 8539 O 850.047 0.0470698 1.94143 0
M  V30 8540 C 847.177 0.499211 3.43693 0
M  V30 8541 C 846.131 1.5087 4.00528 0
M  V30 8542 C 845.457 0.905884 5.2697 0
M  V30 8543 C 846.757 2.88954 4.3509 0
M  V30 8544 H 848.451 1.88084 2.32948 0
M  V30 8545 H 845.997 0.905731 1.11949 0
M  V30 8546 H 847.95 0.320965 4.20176 0
M  V30 8547 H 846.674 -0.458205 3.2337 0
M  V30 8548 H 845.333 1.67413 3.26142 0
M  V30 8549 H 844.981 -0.0591506 5.02965 0
M  V30 8550 H 844.681 1.58 5.65959 0
M  V30 8551 H 846.205 0.73848 6.06118 0
M  V30 8552 H 847.619 2.75981 5.02501 0
M  V30 8553 H 846.016 3.53177 4.85166 0
M  V30 8554 H 847.086 3.41447 3.44299 0
M  V30 8555 N 848.429 -1.21819 0.999893 0
M  V30 8556 C 849.706 -1.86318 0.595384 0
M  V30 8557 C 850.086 -1.8965 -0.927143 0
M  V30 8558 O 849.434 -1.3921 -1.81199 0
M  V30 8559 C 849.644 -3.26837 1.22387 0
M  V30 8560 C 850.992 -4.03272 1.32878 0
M  V30 8561 O 852.016 -3.36129 1.1788 0
M  V30 8562 O 850.875 -5.23477 1.56952 0
M  V30 8563 H 847.969 -0.801638 0.203238 0
M  V30 8564 H 850.515 -1.29542 1.09622 0
M  V30 8565 H 849.287 -3.19084 2.26497 0
M  V30 8566 H 848.91 -3.91226 0.709069 0
M  V30 8567 N 849.908 -0.773975 -1.37286 0
M  V30 8568 C 850.838 -0.175782 -2.32837 0
M  V30 8569 C 851.819 0.680603 -1.5589 0
M  V30 8570 O 853.004 0.617607 -1.84117 0
M  V30 8571 C 850.134 0.702388 -3.40123 0
M  V30 8572 C 849.088 -0.0528687 -4.27967 0
M  V30 8573 C 848.414 0.944891 -5.26285 0
M  V30 8574 C 849.714 -1.23316 -5.07534 0
M  V30 8575 H 851.408 -0.974016 -2.83114 0
M  V30 8576 H 848.954 -0.469826 -1.3612 0
M  V30 8577 H 850.907 1.13069 -4.05947 0
M  V30 8578 H 849.631 1.53316 -2.88378 0
M  V30 8579 H 848.29 -0.461978 -3.63678 0
M  V30 8580 H 847.938 1.77028 -4.70819 0
M  V30 8581 H 847.638 0.444079 -5.8592 0
M  V30 8582 H 849.162 1.37209 -5.94984 0
M  V30 8583 H 850.576 -0.881395 -5.66484 0
M  V30 8584 H 848.973 -1.66621 -5.76504 0
M  V30 8585 H 850.043 -2.03617 -4.40077 0
M  V30 8586 N 851.386 1.48609 -0.524698 0
M  V30 8587 C 852.632 2.02797 0.0113382 0
M  V30 8588 C 852.965 1.40147 1.34433 0
M  V30 8589 O 852.24 0.545368 1.86698 0
M  V30 8590 C 852.523 3.59832 0.138931 0
M  V30 8591 C 852.376 4.32971 -1.21886 0
M  V30 8592 C 853.695 4.3145 0.868265 0
M  V30 8593 H 850.814 0.736995 0.00264645 0
M  V30 8594 H 853.456 1.77388 -0.680704 0
M  V30 8595 H 851.606 3.81612 0.72834 0
M  V30 8596 H 853.278 4.22624 -1.84897 0
M  V30 8597 H 851.521 3.94597 -1.80211 0
M  V30 8598 H 852.192 5.41279 -1.08263 0
M  V30 8599 H 854.668 4.14468 0.368145 0
M  V30 8600 H 853.544 5.41025 0.926428 0
M  V30 8601 H 853.805 3.98358 1.91737 0
M  V30 8602 N 852.864 0.259585 1.55447 0
M  V30 8603 C 854.113 -0.362163 1.98422 0
M  V30 8604 C 854.426 -1.58135 1.1512 0
M  V30 8605 O 855.632 -2.27506 1.48166 0
M  V30 8606 C 854.088 -0.695722 3.53111 0
M  V30 8607 C 853.696 0.502784 4.4517 0
M  V30 8608 C 855.44 -1.28096 4.04712 0
M  V30 8609 C 853.347 0.144674 5.91223 0
M  V30 8610 H 852.277 -0.139092 0.74106 0
M  V30 8611 H 854.928 0.361798 1.79898 0
M  V30 8612 H 853.31 -1.47816 3.67378 0
M  V30 8613 H 854.484 1.27994 4.42667 0
M  V30 8614 H 852.799 1.0038 4.0412 0
M  V30 8615 H 855.396 -1.56243 5.11363 0
M  V30 8616 H 855.739 -2.20969 3.52815 0
M  V30 8617 H 856.272 -0.561146 3.93822 0
M  V30 8618 H 853.011 1.04087 6.47183 0
M  V30 8619 H 852.531 -0.596023 5.96831 0
M  V30 8620 H 854.21 -0.268651 6.46442 0
M  V30 8621 N 854.342 -1.57594 -0.0133615 0
M  V30 8622 C 855.57 -1.94251 -0.712328 0
M  V30 8623 C 855.985 -0.86063 -1.68043 0
M  V30 8624 O 855.342 0.161632 -1.81783 0
M  V30 8625 C 855.393 -3.30891 -1.45581 0
M  V30 8626 O 855.114 -4.34924 -0.526539 0
M  V30 8627 C 856.615 -3.81926 -2.2505 0
M  V30 8628 H 853.835 -0.640737 -0.199241 0
M  V30 8629 H 856.379 -2.04472 0.0337855 0
M  V30 8630 H 854.534 -3.22019 -2.15366 0
M  V30 8631 H 854.948 -5.1389 -1.04962 0
M  V30 8632 H 856.422 -4.79999 -2.72589 0
M  V30 8633 H 856.899 -3.13934 -3.07152 0
M  V30 8634 H 857.505 -3.93931 -1.60308 0
M  V30 8635 N 855.82 0.285905 -1.54985 0
M  V30 8636 C 856.783 1.33625 -1.86218 0
M  V30 8637 C 857.783 1.42971 -0.735936 0
M  V30 8638 O 858.973 1.42345 -1.00417 0
M  V30 8639 C 856.105 2.71926 -2.05595 0
M  V30 8640 H 857.298 1.07167 -2.80099 0
M  V30 8641 H 854.851 0.523335 -1.47278 0
M  V30 8642 H 855.586 3.03583 -1.14053 0
M  V30 8643 H 855.371 2.6653 -2.87583 0
M  V30 8644 H 856.861 3.47841 -2.31077 0
M  V30 8645 N 857.298 1.47698 0.54982 0
M  V30 8646 C 858.709 1.48474 1.13191 0
M  V30 8647 C 859.06 0.243504 1.94683 0
M  V30 8648 O 858.185 -0.651009 2.06375 0
M  V30 8649 C 858.78 2.69022 2.05944 0
M  V30 8650 C 857.339 2.72733 2.5941 0
M  V30 8651 C 856.486 2.41691 1.35944 0
M  V30 8652 H 859.437 1.55101 0.336048 0
M  V30 8653 H 859.458 2.46412 2.89934 0
M  V30 8654 H 858.97 3.59345 1.46605 0
M  V30 8655 H 857.071 1.86568 3.22526 0
M  V30 8656 H 857.184 3.73628 2.99899 0
M  V30 8657 H 855.548 1.92428 1.66864 0
M  V30 8658 H 856.331 3.34231 0.783869 0
M  V30 8659 N 858.776 -0.797141 1.35954 0
M  V30 8660 C 859.724 -1.93084 1.29697 0
M  V30 8661 C 860.718 -1.68329 0.190152 0
M  V30 8662 O 861.924 -1.7643 0.3567 0
M  V30 8663 H 858.299 -0.634531 0.403577 0
M  V30 8664 H 860.27 -1.95481 2.25455 0
M  V30 8665 C 859.019 -3.29996 1.09536 0
M  V30 8666 H 858.342 -3.49607 1.93946 0
M  V30 8667 H 859.782 -4.09696 1.09202 0
M  V30 8668 C 858.241 -3.36304 -0.200381 0
M  V30 8669 O 858.771 -3.83579 -1.19291 0
M  V30 8670 N 856.977 -2.89587 -0.242406 0
M  V30 8671 H 856.524 -2.51307 0.565897 0
M  V30 8672 H 856.482 -2.94189 -1.10906 0
M  V30 8673 N 860.254 -1.20106 -1.0204 0
M  V30 8674 C 861.502 -1.0069 -1.75231 0
M  V30 8675 C 861.823 0.462491 -1.89436 0
M  V30 8676 O 861.093 1.33455 -1.4341 0
M  V30 8677 H 859.673 -0.369576 -0.649171 0
M  V30 8678 H 862.335 -1.51149 -1.23044 0
M  V30 8679 H 861.431 -1.46205 -2.75736 0
M  V30 8680 N 861.732 1.21287 -1.00634 0
M  V30 8681 C 862.96 1.94385 -0.708678 0
M  V30 8682 C 863.375 1.7416 0.728957 0
M  V30 8683 O 862.732 1.04906 1.49335 0
M  V30 8684 C 862.783 3.46755 -1.02193 0
M  V30 8685 O 862.504 3.6631 -2.40309 0
M  V30 8686 C 864.005 4.37014 -0.743867 0
M  V30 8687 H 861.225 0.618136 -0.261052 0
M  V30 8688 H 863.769 1.54067 -1.34475 0
M  V30 8689 H 861.924 3.8499 -0.431441 0
M  V30 8690 H 862.338 4.60393 -2.51274 0
M  V30 8691 H 863.812 5.42621 -1.01321 0
M  V30 8692 H 864.289 4.38017 0.322084 0
M  V30 8693 H 864.895 4.04426 -1.31603 0
M  V30 8694 N 863.21 0.781244 1.36873 0
M  V30 8695 C 864.142 0.132075 2.28819 0
M  V30 8696 C 865.155 -0.653925 1.49089 0
M  V30 8697 O 866.344 -0.490453 1.7163 0
M  V30 8698 C 863.444 -0.836297 3.28419 0
M  V30 8699 C 862.617 -0.102097 4.37281 0
M  V30 8700 C 861.676 -0.985217 5.16894 0
M  V30 8701 O 860.702 -0.445478 5.67454 0
M  V30 8702 N 861.904 -2.31043 5.3254 0
M  V30 8703 H 864.669 0.921838 2.85171 0
M  V30 8704 H 862.23 0.634427 1.48952 0
M  V30 8705 H 864.222 -1.43074 3.78566 0
M  V30 8706 H 862.792 -1.52698 2.72767 0
M  V30 8707 H 862.012 0.67335 3.88407 0
M  V30 8708 H 863.3 0.404862 5.07187 0
M  V30 8709 H 862.698 -2.77318 4.93063 0
M  V30 8710 H 861.255 -2.85472 5.8596 0
M  V30 8711 N 864.689 -1.48329 0.532571 0
M  V30 8712 C 865.919 -2.066 0.00353785 0
M  V30 8713 C 866.327 -1.38913 -1.28451 0
M  V30 8714 O 865.67 -0.471385 -1.77549 0
M  V30 8715 C 865.732 -3.58342 -0.288324 0
M  V30 8716 C 865.396 -4.47917 0.906631 0
M  V30 8717 C 866.393 -4.87534 1.80572 0
M  V30 8718 C 864.078 -4.89783 1.11436 0
M  V30 8719 C 866.072 -5.6779 2.89642 0
M  V30 8720 C 863.759 -5.69809 2.20819 0
M  V30 8721 C 864.757 -6.08721 3.09755 0
M  V30 8722 O 864.445 -6.8714 4.17246 0
M  V30 8723 H 864.177 -0.675263 0.0315661 0
M  V30 8724 H 866.731 -1.91669 0.738375 0
M  V30 8725 H 864.961 -3.71395 -1.07717 0
M  V30 8726 H 866.65 -3.98726 -0.759752 0
M  V30 8727 H 867.416 -4.5581 1.65719 0
M  V30 8728 H 863.295 -4.58977 0.431382 0
M  V30 8729 H 866.839 -5.98082 3.59087 0
M  V30 8730 H 862.736 -6.00947 2.35655 0
M  V30 8731 H 863.504 -7.05498 4.14988 0
M  V30 8732 N 866.167 -0.267825 -1.55308 0
M  V30 8733 C 867.413 0.351556 -1.9973 0
M  V30 8734 C 867.746 1.56049 -1.15596 0
M  V30 8735 O 867.021 1.93203 -0.224274 0
M  V30 8736 C 867.304 0.74091 -3.52395 0
M  V30 8737 C 867.157 -0.474861 -4.47286 0
M  V30 8738 C 868.476 1.5801 -4.10756 0
M  V30 8739 H 865.595 0.126308 -0.726096 0
M  V30 8740 H 868.237 -0.373316 -1.86296 0
M  V30 8741 H 866.387 1.35851 -3.63973 0
M  V30 8742 H 868.059 -1.1134 -4.47662 0
M  V30 8743 H 866.302 -1.11425 -4.19246 0
M  V30 8744 H 866.973 -0.158782 -5.51772 0
M  V30 8745 H 869.449 1.05857 -4.0241 0
M  V30 8746 H 868.325 1.82135 -5.17801 0
M  V30 8747 H 868.586 2.55878 -3.60526 0
M  V30 8748 N 867.645 1.57599 0.00500368 0
M  V30 8749 C 868.893 1.89973 0.68953 0
M  V30 8750 C 869.214 0.868531 1.7459 0
M  V30 8751 O 868.484 -0.0947367 1.95671 0
M  V30 8752 H 867.064 0.701153 0.25767 0
M  V30 8753 H 869.726 1.94869 -0.0347392 0
M  V30 8754 H 868.822 2.89584 1.16394 0
M  V30 8755 N 869.123 -0.277682 1.55134 0
M  V30 8756 C 870.071 -1.36305 1.88478 0
M  V30 8757 C 871.065 -1.51362 0.760654 0
M  V30 8758 O 872.271 -1.53202 0.944943 0
M  V30 8759 H 868.646 -0.45577 0.598146 0
M  V30 8760 H 870.617 -1.05431 2.79154 0
M  V30 8761 C 869.366 -2.71739 2.16918 0
M  V30 8762 H 868.689 -2.60942 3.02901 0
M  V30 8763 H 870.129 -3.46635 2.44172 0
M  V30 8764 C 868.588 -3.22476 0.975239 0
M  V30 8765 O 869.118 -4.01164 0.207497 0
M  V30 8766 N 867.324 -2.80097 0.774219 0
M  V30 8767 H 866.871 -2.16221 1.40022 0
M  V30 8768 H 866.829 -3.14392 -0.023021 0
M  V30 8769 N 870.601 -1.47988 -0.541979 0
M  V30 8770 C 871.878 -1.45878 -1.30303 0
M  V30 8771 C 872.258 -0.163931 -2.10463 0
M  V30 8772 O 871.606 0.854479 -2.11922 0
M  V30 8773 C 871.816 -2.71359 -2.19466 0
M  V30 8774 C 873.164 -3.19199 -2.79995 0
M  V30 8775 O 874.188 -2.72193 -2.2976 0
M  V30 8776 O 873.047 -4.00961 -3.71339 0
M  V30 8777 H 870.141 -0.582043 -0.587498 0
M  V30 8778 H 872.687 -1.60207 -0.559623 0
M  V30 8779 H 871.459 -3.57122 -1.59936 0
M  V30 8780 H 871.082 -2.59692 -3.01075 0
M  V30 8781 N 872.079 0.78992 -1.36375 0
M  V30 8782 C 873.326 1.54777 -1.30576 0
M  V30 8783 C 873.654 1.94159 0.115095 0
M  V30 8784 O 872.909 1.62918 1.08426 0
M  V30 8785 C 873.208 2.83698 -2.17371 0
M  V30 8786 C 872.874 2.63457 -3.65925 0
M  V30 8787 C 871.536 2.57645 -4.06415 0
M  V30 8788 C 873.888 2.44833 -4.60115 0
M  V30 8789 C 871.216 2.31174 -5.39236 0
M  V30 8790 C 873.568 2.19889 -5.93154 0
M  V30 8791 C 872.232 2.1251 -6.32768 0
M  V30 8792 H 871.502 0.566371 -0.477813 0
M  V30 8793 H 874.149 0.91138 -1.68422 0
M  V30 8794 H 872.454 3.51802 -1.72459 0
M  V30 8795 H 874.151 3.41487 -2.10209 0
M  V30 8796 H 870.741 2.68836 -3.33804 0
M  V30 8797 H 874.925 2.48325 -4.29707 0
M  V30 8798 H 870.181 2.23942 -5.68911 0
M  V30 8799 H 874.355 2.04473 -6.65705 0
M  V30 8800 H 871.982 1.91761 -7.35616 0
M  V30 8801 N 873.557 1.20646 1.01402 0
M  V30 8802 C 874.785 1.04389 1.78635 0
M  V30 8803 C 875.2 -0.406771 1.84366 0
M  V30 8804 O 874.557 -1.28239 1.2985 0
M  V30 8805 C 874.608 1.62378 3.22979 0
M  V30 8806 O 874.329 3.01768 3.17597 0
M  V30 8807 C 875.83 1.5111 4.1675 0
M  V30 8808 H 873.05 0.367077 0.56169 0
M  V30 8809 H 875.594 1.59789 1.27624 0
M  V30 8810 H 873.749 1.11092 3.7113 0
M  V30 8811 H 874.163 3.29331 4.08217 0
M  V30 8812 H 875.637 1.96441 5.15863 0
M  V30 8813 H 876.114 0.464011 4.36742 0
M  V30 8814 H 876.72 2.01599 3.74483 0
M  V30 8815 N 875.035 -1.20752 1.01276 0
M  V30 8816 C 876.26 -1.94547 0.718769 0
M  V30 8817 C 876.685 -1.7404 -0.713563 0
M  V30 8818 O 876.043 -1.03221 -1.49047 0
M  V30 8819 C 876.091 -3.44823 1.05497 0
M  V30 8820 O 875.195 -4.12072 0.164516 0
M  V30 8821 H 874.536 -0.607931 0.267051 0
M  V30 8822 H 877.066 -1.53292 1.35509 0
M  V30 8823 H 877.076 -3.95427 1.00507 0
M  V30 8824 H 875.751 -3.59072 2.09858 0
M  V30 8825 H 874.328 -3.71909 0.271615 0
M  V30 8826 N 876.513 -0.788492 -1.36457 0
M  V30 8827 C 877.924 -0.423742 -1.81828 0
M  V30 8828 C 878.275 1.05221 -1.65599 0
M  V30 8829 O 877.4 1.8163 -1.17641 0
M  V30 8830 C 877.995 -0.762354 -3.30112 0
M  V30 8831 C 876.554 -0.450445 -3.73695 0
M  V30 8832 C 875.701 -0.997482 -2.58738 0
M  V30 8833 H 878.652 -0.981718 -1.24692 0
M  V30 8834 H 878.673 -0.0531136 -3.80463 0
M  V30 8835 H 878.185 -1.83662 -3.41891 0
M  V30 8836 H 876.286 0.615829 -3.67476 0
M  V30 8837 H 876.399 -0.970408 -4.69169 0
M  V30 8838 H 874.763 -0.420761 -2.51201 0
M  V30 8839 H 875.546 -2.07749 -2.73304 0
M  V30 8840 N 877.991 1.48044 -0.54043 0
M  V30 8841 C 879.221 2.06595 -0.0144943 0
M  V30 8842 C 879.629 1.39593 1.27713 0
M  V30 8843 O 878.972 0.480794 1.77297 0
M  V30 8844 C 879.034 3.5849 0.269316 0
M  V30 8845 C 878.698 4.47429 -0.930372 0
M  V30 8846 C 879.695 4.8657 -1.83155 0
M  V30 8847 C 877.38 4.89185 -1.14032 0
M  V30 8848 C 879.374 5.66246 -2.92649 0
M  V30 8849 C 877.061 5.6863 -2.23838 0
M  V30 8850 C 878.059 6.07069 -3.12979 0
M  V30 8851 O 877.747 6.84917 -4.20884 0
M  V30 8852 H 877.479 0.675086 -0.0351467 0
M  V30 8853 H 880.033 1.91275 -0.74853 0
M  V30 8854 H 878.263 3.71961 1.05745 0
M  V30 8855 H 879.952 3.99124 0.738595 0
M  V30 8856 H 880.718 4.54924 -1.68134 0
M  V30 8857 H 876.597 4.58742 -0.455717 0
M  V30 8858 H 880.141 5.96169 -3.62254 0
M  V30 8859 H 876.038 5.99688 -2.38839 0
M  V30 8860 H 876.806 7.03287 -4.18723 0
M  V30 8861 N 879.47 0.276058 1.55163 0
M  V30 8862 C 880.418 -0.626978 2.2399 0
M  V30 8863 C 881.412 -1.15708 1.23725 0
M  V30 8864 O 882.618 -1.1106 1.41653 0
M  V30 8865 H 878.993 -0.220742 0.718872 0
M  V30 8866 H 880.964 -0.0236569 2.98391 0
M  V30 8867 C 879.713 -1.79935 2.97521 0
M  V30 8868 H 879.036 -1.40064 3.74463 0
M  V30 8869 H 880.476 -2.40781 3.48999 0
M  V30 8870 C 878.935 -2.68838 2.03046 0
M  V30 8871 O 879.465 -3.69224 1.58229 0
M  V30 8872 N 877.671 -2.36028 1.69527 0
M  V30 8873 H 877.218 -1.54442 2.06169 0
M  V30 8874 H 877.176 -2.95782 1.06586 0
M  V30 8875 N 880.948 -1.576 0.00335426 0
M  V30 8876 C 882.225 -1.81945 -0.718015 0
M  V30 8877 C 882.605 -0.881788 -1.91801 0
M  V30 8878 O 881.953 0.0687118 -2.28397 0
M  V30 8879 C 882.163 -3.30521 -1.12058 0
M  V30 8880 C 883.511 -3.96345 -1.52303 0
M  V30 8881 O 884.535 -3.34864 -1.21428 0
M  V30 8882 O 883.394 -5.04655 -2.09728 0
M  V30 8883 H 880.488 -0.749328 -0.34991 0
M  V30 8884 H 883.034 -1.69675 0.0290654 0
M  V30 8885 H 881.806 -3.90399 -0.265378 0
M  V30 8886 H 881.429 -3.47802 -1.92665 0
M  V30 8887 N 882.426 0.269451 -1.5528 0
M  V30 8888 C 883.374 1.35303 -1.89198 0
M  V30 8889 C 884.368 1.50956 -0.768671 0
M  V30 8890 O 885.574 1.52699 -0.953054 0
M  V30 8891 H 881.949 0.452591 -0.600554 0
M  V30 8892 H 883.92 1.03949 -2.79709 0
M  V30 8893 C 882.669 2.70585 -2.18356 0
M  V30 8894 H 881.992 2.59332 -3.04281 0
M  V30 8895 H 883.432 3.45335 -2.46007 0
M  V30 8896 C 881.891 3.21954 -0.992327 0
M  V30 8897 O 882.421 4.01048 -0.228769 0
M  V30 8898 N 880.627 2.79682 -0.789062 0
M  V30 8899 H 880.174 2.15475 -1.41167 0
M  V30 8900 H 880.132 3.14399 0.00634776 0
M  V30 8901 N 883.904 1.48273 0.534124 0
M  V30 8902 C 885.15 1.5729 1.28963 0
M  V30 8903 C 885.505 0.241854 1.90874 0
M  V30 8904 O 884.798 -0.754874 1.76103 0
M  V30 8905 C 884.992 2.64468 2.40398 0
M  V30 8906 C 884.821 4.07865 1.8941 0
M  V30 8907 C 883.591 4.75052 1.72202 0
M  V30 8908 C 885.789 4.94163 1.42505 0
M  V30 8909 N 883.771 6.0288 1.15795 0
M  V30 8910 C 885.142 6.12203 0.980176 0
M  V30 8911 C 887.197 4.8042 1.30769 0
M  V30 8912 C 885.9 7.18016 0.429591 0
M  V30 8913 C 887.926 5.86351 0.771107 0
M  V30 8914 C 887.288 7.03597 0.336287 0
M  V30 8915 H 883.387 0.630141 0.463083 0
M  V30 8916 H 885.971 1.85135 0.602767 0
M  V30 8917 H 884.142 2.38453 3.06586 0
M  V30 8918 H 885.874 2.63194 3.07426 0
M  V30 8919 H 882.629 4.3132 1.95603 0
M  V30 8920 H 883.053 6.71043 0.896141 0
M  V30 8921 H 887.695 3.90119 1.62993 0
M  V30 8922 H 885.413 8.08044 0.0950224 0
M  V30 8923 H 888.999 5.77771 0.68354 0
M  V30 8924 H 887.879 7.84167 -0.0724668 0
M  V30 8925 N 885.382 -0.782676 1.36792 0
M  V30 8926 C 886.659 -1.52939 1.21939 0
M  V30 8927 C 887.039 -2.10228 -0.191639 0
M  V30 8928 O 886.387 -1.94574 -1.19805 0
M  V30 8929 C 886.597 -2.61898 2.30674 0
M  V30 8930 C 887.945 -3.29598 2.67676 0
M  V30 8931 O 888.969 -2.72186 2.29768 0
M  V30 8932 O 887.828 -4.3337 3.32946 0
M  V30 8933 H 884.922 -0.676856 0.47518 0
M  V30 8934 H 887.468 -0.82058 1.48542 0
M  V30 8935 H 886.24 -2.17607 3.25212 0
M  V30 8936 H 885.863 -3.40391 2.05475 0
M  V30 8937 N 886.86 -1.21182 -1.00761 0
M  V30 8938 C 888.108 -1.02543 -1.74153 0
M  V30 8939 C 888.429 0.442372 -1.89916 0
M  V30 8940 O 887.699 1.31927 -1.44818 0
M  V30 8941 H 886.279 -0.37644 -0.645214 0
M  V30 8942 H 888.941 -1.52446 -1.21434 0
M  V30 8943 H 888.037 -1.49122 -2.7417 0
M  V30 8944 N 888.338 1.20213 -1.01915 0
M  V30 8945 C 889.754 1.41696 -0.734459 0
M  V30 8946 C 889.954 1.89504 0.684867 0
M  V30 8947 O 889.01 2.06556 1.45227 0
M  V30 8948 C 890.323 2.43644 -1.76233 0
M  V30 8949 C 891.871 2.57406 -1.78076 0
M  V30 8950 C 892.346 3.626 -2.79796 0
M  V30 8951 N 893.837 3.70086 -2.78551 0
M  V30 8952 C 894.572 4.51145 -3.53915 0
M  V30 8953 N 894.068 5.35988 -4.38963 0
M  V30 8954 N 895.861 4.45702 -3.425 0
M  V30 8955 H 888.012 0.874976 -1.93541 0
M  V30 8956 H 890.275 0.446647 -0.836188 0
M  V30 8957 H 889.981 2.15519 -2.77929 0
M  V30 8958 H 889.855 3.42672 -1.57657 0
M  V30 8959 H 892.242 2.8486 -0.770634 0
M  V30 8960 H 892.323 1.58565 -2.00725 0
M  V30 8961 H 891.967 3.35889 -3.80973 0
M  V30 8962 H 891.897 4.61069 -2.54407 0
M  V30 8963 H 894.388 3.09484 -2.1686 0
M  V30 8964 H 894.701 5.94932 -4.9323 0
M  V30 8965 H 893.046 5.35482 -4.4304 0
M  V30 8966 H 896.237 3.78456 -2.75478 0
M  V30 8967 H 896.41 5.08637 -4.01487 0
M  V30 8968 N 889.816 0.795718 1.36037 0
M  V30 8969 C 890.764 0.18649 2.31851 0
M  V30 8970 C 891.758 -0.657704 1.56111 0
M  V30 8971 O 892.964 -0.552083 1.71324 0
M  V30 8972 H 889.339 0.0415363 0.750852 0
M  V30 8973 H 891.31 1.00992 2.8079 0
M  V30 8974 C 890.059 -0.65918 3.41394 0
M  V30 8975 H 889.382 -0.01894 3.99796 0
M  V30 8976 H 890.822 -1.05202 4.10741 0
M  V30 8977 C 889.281 -1.82011 2.83502 0
M  V30 8978 O 889.811 -2.91703 2.76174 0
M  V30 8979 N 888.017 -1.62821 2.40703 0
M  V30 8980 H 887.564 -0.735965 2.46863 0
M  V30 8981 H 887.522 -2.40657 2.02316 0
M  V30 8982 N 891.294 -1.47756 0.548274 0
M  V30 8983 C 892.242 -2.3158 -0.217584 0
M  V30 8984 C 893.236 -1.42372 -0.917957 0
M  V30 8985 O 894.442 -1.59184 -0.840259 0
M  V30 8986 H 890.817 -0.74671 -0.0890388 0
M  V30 8987 H 892.788 -2.94032 0.508719 0
M  V30 8988 C 891.537 -3.24834 -1.24008 0
M  V30 8989 H 890.86 -3.93435 -0.710572 0
M  V30 8990 H 892.3 -3.86336 -1.74701 0
M  V30 8991 C 890.759 -2.47724 -2.2833 0
M  V30 8992 O 891.289 -2.21522 -3.35098 0
M  V30 8993 N 889.495 -2.08891 -2.02022 0
M  V30 8994 H 889.042 -2.30401 -1.1521 0
M  V30 8995 H 889 -1.57613 -2.7204 0
M  V30 8996 N 892.772 -0.284283 -1.55015 0
M  V30 8997 C 894.018 0.330352 -2.00091 0
M  V30 8998 C 894.351 1.54814 -1.17244 0
M  V30 8999 O 893.626 1.92954 -0.244753 0
M  V30 9000 C 893.909 0.703492 -3.53161 0
M  V30 9001 C 893.762 -0.522275 -4.46758 0
M  V30 9002 C 895.081 1.53645 -4.12409 0
M  V30 9003 H 892.2 0.118599 -0.727395 0
M  V30 9004 H 894.842 -0.393054 -1.8589 0
M  V30 9005 H 892.992 1.31983 -3.65394 0
M  V30 9006 H 894.664 -1.16082 -4.46456 0
M  V30 9007 H 892.907 -1.15865 -4.1804 0
M  V30 9008 H 893.578 -0.217295 -5.51572 0
M  V30 9009 H 896.054 1.01583 -4.0351 0
M  V30 9010 H 894.93 1.76633 -5.19704 0
M  V30 9011 H 895.191 2.5204 -3.63219 0
M  V30 9012 N 894.251 1.57596 -0.0117121 0
M  V30 9013 C 895.161 2.12596 0.991964 0
M  V30 9014 C 896.177 1.07399 1.36899 0
M  V30 9015 O 897.353 1.39365 1.45394 0
M  V30 9016 C 894.418 2.62796 2.2614 0
M  V30 9017 C 893.479 3.8264 1.94642 0
M  V30 9018 C 892.712 4.30435 3.15533 0
M  V30 9019 O 892.935 3.77495 4.27614 0
M  V30 9020 O 891.869 5.22469 2.98847 0
M  V30 9021 H 895.695 2.98597 0.554371 0
M  V30 9022 H 893.28 1.47947 0.207839 0
M  V30 9023 H 895.162 2.9523 3.00695 0
M  V30 9024 H 893.837 1.79886 2.69114 0
M  V30 9025 H 892.744 3.5516 1.17526 0
M  V30 9026 H 894.077 4.66658 1.56496 0
M  V30 9027 N 895.729 -0.261212 1.5542 0
M  V30 9028 C 896.677 -1.34298 1.89913 0
M  V30 9029 C 897.671 -1.50547 0.776665 0
M  V30 9030 O 898.877 -1.52191 0.961139 0
M  V30 9031 H 895.252 -0.4494 0.602946 0
M  V30 9032 H 897.223 -1.02464 2.80256 0
M  V30 9033 C 895.972 -2.69423 2.19788 0
M  V30 9034 H 895.295 -2.57715 3.05652 0
M  V30 9035 H 896.735 -3.44026 2.47835 0
M  V30 9036 C 895.194 -3.21423 1.00939 0
M  V30 9037 O 895.724 -4.00921 0.250034 0
M  V30 9038 N 893.93 -2.7926 0.803883 0
M  V30 9039 H 893.477 -2.14724 1.42308 0
M  V30 9040 H 893.435 -3.14398 0.0103257 0
M  V30 9041 N 897.207 -1.48554 -0.526253 0
M  V30 9042 C 898.453 -1.56994 -1.28378 0
M  V30 9043 C 898.786 -0.244701 -1.92652 0
M  V30 9044 O 898.061 0.749636 -1.79473 0
M  V30 9045 C 898.344 -2.71092 -2.37026 0
M  V30 9046 C 898.197 -4.13331 -1.77418 0
M  V30 9047 C 899.516 -2.80934 -3.38769 0
M  V30 9048 H 896.635 -0.571466 -0.465398 0
M  V30 9049 H 899.277 -1.80742 -0.585861 0
M  V30 9050 H 897.427 -2.50973 -2.96555 0
M  V30 9051 H 899.099 -4.44899 -1.21912 0
M  V30 9052 H 897.342 -4.20158 -1.07936 0
M  V30 9053 H 898.013 -4.88994 -2.56104 0
M  V30 9054 H 900.489 -2.9917 -2.892 0
M  V30 9055 H 899.365 -3.62489 -4.12181 0
M  V30 9056 H 899.626 -1.89244 -3.99549 0
M  V30 9057 N 898.685 0.775411 -1.37205 0
M  V30 9058 C 899.932 1.53384 -1.32211 0
M  V30 9059 C 900.26 1.9427 0.0944958 0
M  V30 9060 O 899.515 1.64059 1.06692 0
M  V30 9061 C 899.814 2.81377 -2.20367 0
M  V30 9062 C 899.48 2.59561 -3.68699 0
M  V30 9063 C 898.142 2.53319 -4.09124 0
M  V30 9064 C 900.494 2.39939 -4.62686 0
M  V30 9065 C 897.822 2.25442 -5.41658 0
M  V30 9066 C 900.174 2.13586 -5.95453 0
M  V30 9067 C 898.838 2.05786 -6.34987 0
M  V30 9068 H 898.108 0.561271 -0.483793 0
M  V30 9069 H 900.755 0.893466 -1.6938 0
M  V30 9070 H 899.06 3.49954 -1.76181 0
M  V30 9071 H 900.757 3.39238 -2.13819 0
M  V30 9072 H 897.347 2.6528 -3.36637 0
M  V30 9073 H 901.531 2.43753 -4.32317 0
M  V30 9074 H 896.787 2.17896 -5.71254 0
M  V30 9075 H 900.961 1.97401 -6.67837 0
M  V30 9076 H 898.588 1.83948 -7.37609 0
M  V30 9077 N 900.163 1.21714 1.00117 0
M  V30 9078 C 901.412 1.03087 1.73367 0
M  V30 9079 C 901.725 -0.435532 1.90689 0
M  V30 9080 O 902.931 -0.741291 2.61184 0
M  V30 9081 C 901.387 1.79593 3.11888 0
M  V30 9082 C 900.995 3.30428 3.02525 0
M  V30 9083 C 902.739 1.69386 3.89241 0
M  V30 9084 C 900.646 3.99408 4.3615 0
M  V30 9085 H 899.576 0.382117 0.650002 0
M  V30 9086 H 902.227 1.45486 1.11831 0
M  V30 9087 H 900.609 1.29988 3.74058 0
M  V30 9088 H 901.783 3.87364 2.49571 0
M  V30 9089 H 900.098 3.4122 2.38659 0
M  V30 9090 H 902.695 2.18251 4.8813 0
M  V30 9091 H 903.038 0.652773 4.1115 0
M  V30 9092 H 903.571 2.16489 3.33733 0
M  V30 9093 H 900.31 5.03735 4.19442 0
M  V30 9094 H 899.83 3.47261 4.8905 0
M  V30 9095 H 901.509 4.04537 5.04934 0
M  V30 9096 N 901.641 -1.19671 1.02551 0
M  V30 9097 C 902.589 -2.24812 0.596867 0
M  V30 9098 C 903.583 -1.65336 -0.368839 0
M  V30 9099 O 904.789 -1.78422 -0.237786 0
M  V30 9100 H 901.164 -0.731417 0.174739 0
M  V30 9101 H 903.135 -2.58286 1.49435 0
M  V30 9102 C 901.884 -3.47677 -0.0399514 0
M  V30 9103 H 901.207 -3.93728 0.694153 0
M  V30 9104 H 902.647 -4.22917 -0.302861 0
M  V30 9105 C 901.106 -3.11411 -1.2855 0
M  V30 9106 O 901.636 -3.23757 -2.37791 0
M  V30 9107 N 899.842 -2.65875 -1.17297 0
M  V30 9108 H 899.389 -2.56029 -0.284045 0
M  V30 9109 H 899.347 -2.41981 -2.00731 0
M  V30 9110 N 903.119 -0.802921 -1.35613 0
M  V30 9111 C 904.082 -0.216422 -2.28176 0
M  V30 9112 C 905.082 0.594101 -1.49422 0
M  V30 9113 O 906.272 0.41312 -1.6923 0
M  V30 9114 C 903.404 0.698746 -3.33662 0
M  V30 9115 H 904.597 -1.03276 -2.81557 0
M  V30 9116 H 902.15 -0.573307 -1.45406 0
M  V30 9117 H 902.885 1.53891 -2.85461 0
M  V30 9118 H 902.67 0.119314 -3.91918 0
M  V30 9119 H 904.16 1.10354 -4.02755 0
M  V30 9120 N 904.597 1.47463 -0.556102 0
M  V30 9121 C 906.008 1.86298 -0.122429 0
M  V30 9122 C 906.359 1.46285 1.30749 0
M  V30 9123 O 905.484 0.865405 1.98342 0
M  V30 9124 C 906.079 3.38115 -0.215407 0
M  V30 9125 C 904.638 3.76046 0.163223 0
M  V30 9126 C 903.785 2.71515 -0.563466 0
M  V30 9127 H 906.736 1.38996 -0.765888 0
M  V30 9128 H 906.757 3.76263 0.566271 0
M  V30 9129 H 906.269 3.67207 -1.25622 0
M  V30 9130 H 904.37 3.5257 1.20519 0
M  V30 9131 H 904.483 4.78705 -0.194568 0
M  V30 9132 H 902.847 2.54699 -0.00667879 0
M  V30 9133 H 903.63 3.03449 -1.60542 0
M  V30 9134 N 906.075 0.2925 1.54862 0
M  V30 9135 C 907.007 -0.620889 2.2063 0
M  V30 9136 C 908.02 -1.10412 1.19637 0
M  V30 9137 O 909.209 -1.02304 1.46274 0
M  V30 9138 C 906.309 -1.861 2.83232 0
M  V30 9139 C 905.482 -1.52168 4.10078 0
M  V30 9140 C 904.541 -2.61605 4.56562 0
M  V30 9141 O 903.567 -2.27056 5.21952 0
M  V30 9142 N 904.769 -3.9199 4.28163 0
M  V30 9143 H 907.534 -0.0579028 2.99644 0
M  V30 9144 H 905.095 0.114333 1.61496 0
M  V30 9145 H 907.087 -2.58642 3.11266 0
M  V30 9146 H 905.657 -2.33259 2.08108 0
M  V30 9147 H 904.877 -0.629283 3.89145 0
M  V30 9148 H 906.165 -1.27023 4.92689 0
M  V30 9149 H 905.563 -4.22872 3.7576 0
M  V30 9150 H 904.12 -4.60857 4.60928 0
M  V30 9151 N 907.553 -1.57587 0.0200696 0
M  V30 9152 C 908.778 -1.96124 -0.674547 0
M  V30 9153 C 909.203 -0.896068 -1.65385 0
M  V30 9154 O 908.561 0.143925 -1.80728 0
M  V30 9155 C 908.609 -3.3376 -1.36517 0
M  V30 9156 O 907.713 -3.29483 -2.48022 0
M  V30 9157 H 907.054 -0.639719 -0.177919 0
M  V30 9158 H 909.584 -2.04447 0.0792317 0
M  V30 9159 H 909.594 -3.69785 -1.72403 0
M  V30 9160 H 908.269 -4.10832 -0.647265 0
M  V30 9161 H 906.846 -3.05162 -2.14314 0
M  V30 9162 N 909.032 0.252966 -1.55557 0
M  V30 9163 C 910.28 0.979912 -1.76754 0
M  V30 9164 C 910.601 1.86083 -0.582944 0
M  V30 9165 O 909.871 1.91742 0.401497 0
M  V30 9166 H 908.451 0.364805 -0.651864 0
M  V30 9167 H 911.113 0.272372 -1.92987 0
M  V30 9168 H 910.209 1.60518 -2.67657 0
M  V30 9169 N 910.51 1.48831 0.518367 0
M  V30 9170 C 911.738 1.6112 1.298 0
M  V30 9171 C 912.153 0.275872 1.86774 0
M  V30 9172 O 911.51 -0.736416 1.66983 0
M  V30 9173 C 911.561 2.66675 2.44063 0
M  V30 9174 O 911.282 3.95027 1.89434 0
M  V30 9175 C 912.783 2.8951 3.35706 0
M  V30 9176 H 910.003 0.542916 0.394314 0
M  V30 9177 H 912.547 1.94743 0.624142 0
M  V30 9178 H 910.702 2.35879 3.07311 0
M  V30 9179 H 911.116 4.53031 2.64316 0
M  V30 9180 H 912.59 3.67142 4.12202 0
M  V30 9181 H 913.067 1.98768 3.91648 0
M  V30 9182 H 913.673 3.21656 2.7824 0
M  V30 9183 N 911.988 -0.768124 1.37614 0
M  V30 9184 C 913.218 -1.555 1.36027 0
M  V30 9185 C 913.626 -1.89119 -0.0554273 0
M  V30 9186 O 912.969 -1.52203 -1.02859 0
M  V30 9187 C 913.031 -2.8906 2.13739 0
M  V30 9188 C 912.695 -2.78058 3.62674 0
M  V30 9189 C 913.692 -2.48841 4.5648 0
M  V30 9190 C 911.377 -2.95966 4.05844 0
M  V30 9191 C 913.371 -2.37665 5.91434 0
M  V30 9192 C 911.058 -2.84411 5.40882 0
M  V30 9193 C 912.056 -2.55301 6.33491 0
M  V30 9194 O 911.744 -2.43779 7.66046 0
M  V30 9195 H 911.476 -0.488263 0.467521 0
M  V30 9196 H 914.03 -0.959583 1.81607 0
M  V30 9197 H 912.26 -3.50735 1.62854 0
M  V30 9198 H 913.949 -3.5048 2.04741 0
M  V30 9199 H 914.715 -2.34687 4.24437 0
M  V30 9200 H 910.594 -3.17625 3.34119 0
M  V30 9201 H 914.138 -2.14865 6.63686 0
M  V30 9202 H 910.035 -2.98134 5.72527 0
M  V30 9203 H 910.803 -2.59101 7.76408 0
M  V30 9204 N 913.466 -1.22244 -0.994698 0
M  V30 9205 C 914.694 -1.07218 -1.76952 0
M  V30 9206 C 915.109 0.377388 -1.8499 0
M  V30 9207 O 914.466 1.26157 -1.31874 0
M  V30 9208 C 914.517 -1.67496 -3.20355 0
M  V30 9209 O 914.238 -3.06782 -3.12756 0
M  V30 9210 C 915.739 -1.57721 -4.14294 0
M  V30 9211 H 912.959 -0.375966 -0.555779 0
M  V30 9212 H 915.503 -1.61799 -1.25065 0
M  V30 9213 H 913.658 -1.16982 -3.69315 0
M  V30 9214 H 914.072 -3.35784 -4.02926 0
M  V30 9215 H 915.546 -2.04623 -5.12673 0
M  V30 9216 H 916.023 -0.533434 -4.35949 0
M  V30 9217 H 916.629 -2.07531 -3.71229 0
M  V30 9218 N 914.944 1.19125 -1.03184 0
M  V30 9219 C 916.193 1.8821 -0.725264 0
M  V30 9220 C 916.506 1.80674 0.749411 0
M  V30 9221 O 917.712 2.45037 1.16915 0
M  V30 9222 C 916.168 3.37607 -1.24697 0
M  V30 9223 C 915.776 3.53693 -2.74964 0
M  V30 9224 C 917.52 4.12149 -1.01652 0
M  V30 9225 C 915.427 4.97001 -3.20538 0
M  V30 9226 H 914.357 0.704916 -0.267599 0
M  V30 9227 H 917.008 1.34663 -1.24652 0
M  V30 9228 H 915.39 3.90569 -0.653614 0
M  V30 9229 H 916.564 3.11046 -3.39981 0
M  V30 9230 H 914.879 2.92544 -2.96322 0
M  V30 9231 H 917.476 5.17837 -1.33226 0
M  V30 9232 H 917.819 4.16274 0.0465712 0
M  V30 9233 H 918.352 3.65334 -1.57403 0
M  V30 9234 H 915.091 4.9804 -4.26189 0
M  V30 9235 H 914.611 5.40398 -2.60251 0
M  V30 9236 H 916.29 5.65669 -3.14049 0
M  V30 9237 N 916.422 0.810101 1.35185 0
M  V30 9238 C 917.332 0.224565 2.33523 0
M  V30 9239 C 918.348 -0.634287 1.62027 0
M  V30 9240 O 919.524 -0.545211 1.9388 0
M  V30 9241 C 916.589 -0.614319 3.41214 0
M  V30 9242 C 915.65 0.265435 4.28479 0
M  V30 9243 C 914.883 -0.533506 5.31027 0
M  V30 9244 O 915.106 -1.7679 5.42311 0
M  V30 9245 O 914.04 0.0774573 6.0185 0
M  V30 9246 H 917.866 1.03815 2.85405 0
M  V30 9247 H 915.451 0.571964 1.38018 0
M  V30 9248 H 917.333 -1.09201 4.07005 0
M  V30 9249 H 916.008 -1.40545 2.91597 0
M  V30 9250 H 914.915 0.790343 3.65656 0
M  V30 9251 H 916.248 1.0206 4.81503 0
M  V30 9252 N 917.9 -1.47166 0.563914 0
M  V30 9253 C 919.146 -2.02756 0.0424338 0
M  V30 9254 C 919.479 -1.43662 -1.3067 0
M  V30 9255 O 918.754 -0.594676 -1.85186 0
M  V30 9256 C 919.037 -3.60074 -0.0434793 0
M  V30 9257 C 918.89 -4.29587 1.33323 0
M  V30 9258 C 920.209 -4.336 -0.753568 0
M  V30 9259 H 917.328 -0.736806 0.0168946 0
M  V30 9260 H 919.97 -1.75521 0.727496 0
M  V30 9261 H 918.12 -3.83409 -0.626906 0
M  V30 9262 H 919.792 -4.17573 1.96037 0
M  V30 9263 H 918.035 -3.8968 1.9061 0
M  V30 9264 H 918.706 -5.38218 1.22576 0
M  V30 9265 H 921.182 -4.15299 -0.258126 0
M  V30 9266 H 920.058 -5.43291 -0.782659 0
M  V30 9267 H 920.319 -4.03302 -1.81108 0
M  V30 9268 N 919.378 -0.300708 -1.54705 0
M  V30 9269 C 920.31 0.609179 -2.20956 0
M  V30 9270 C 921.323 1.09776 -1.20221 0
M  V30 9271 O 922.512 1.01527 -1.46815 0
M  V30 9272 C 919.612 1.84595 -2.84214 0
M  V30 9273 C 918.785 1.49991 -4.10879 0
M  V30 9274 C 917.844 2.5918 -4.57943 0
M  V30 9275 O 916.87 2.24285 -5.23149 0
M  V30 9276 N 918.072 3.89714 -4.30236 0
M  V30 9277 H 920.837 0.0420111 -2.99671 0
M  V30 9278 H 918.398 -0.122896 -1.61433 0
M  V30 9279 H 920.39 2.56988 -3.12633 0
M  V30 9280 H 918.96 2.32152 -2.09342 0
M  V30 9281 H 918.18 0.608637 -3.89473 0
M  V30 9282 H 919.468 1.24409 -4.93356 0
M  V30 9283 H 918.866 4.20874 -3.77997 0
M  V30 9284 H 917.423 4.58406 -4.63365 0
M  V30 9285 N 920.856 1.57574 -0.0284266 0
M  V30 9286 C 921.819 2.09096 0.938691 0
M  V30 9287 C 922.819 1.00588 1.25454 0
M  V30 9288 O 924.009 1.2675 1.19499 0
M  V30 9289 C 921.141 2.55624 2.25542 0
M  V30 9290 H 922.334 2.95829 0.49248 0
M  V30 9291 H 919.887 1.5475 0.219594 0
M  V30 9292 H 920.622 1.72218 2.74793 0
M  V30 9293 H 920.407 3.34896 2.03929 0
M  V30 9294 H 921.897 2.95712 2.94863 0
M  V30 9295 N 922.334 -0.244713 1.55689 0
M  V30 9296 C 923.564 -0.988508 1.81417 0
M  V30 9297 C 923.972 -1.79362 0.602143 0
M  V30 9298 O 923.315 -1.78386 -0.438639 0
M  V30 9299 C 923.377 -1.97287 3.0053 0
M  V30 9300 C 923.041 -1.35448 4.36466 0
M  V30 9301 C 924.038 -0.755874 5.14376 0
M  V30 9302 C 921.723 -1.37319 4.83165 0
M  V30 9303 C 923.717 -0.184218 6.37134 0
M  V30 9304 C 921.404 -0.797681 6.05871 0
M  V30 9305 C 922.402 -0.204224 6.82695 0
M  V30 9306 O 922.09 0.362392 8.03083 0
M  V30 9307 H 921.822 -0.296412 0.607549 0
M  V30 9308 H 924.376 -0.272185 2.03589 0
M  V30 9309 H 922.606 -2.72756 2.74119 0
M  V30 9310 H 924.295 -2.58028 3.13331 0
M  V30 9311 H 925.061 -0.733912 4.79415 0
M  V30 9312 H 920.94 -1.8245 4.23359 0
M  V30 9313 H 924.484 0.279624 6.97039 0
M  V30 9314 H 920.381 -0.816978 6.40309 0
M  V30 9315 H 921.149 0.254467 8.18104 0
M  V30 9316 N 923.813 -1.49104 -0.510467 0
M  V30 9317 C 924.761 -1.65547 -1.63392 0
M  V30 9318 C 925.755 -0.521522 -1.61172 0
M  V30 9319 O 926.961 -0.700865 -1.65795 0
M  V30 9320 H 923.336 -0.521843 -0.541464 0
M  V30 9321 H 925.307 -2.59864 -1.46673 0
M  V30 9322 C 924.056 -1.73051 -3.01577 0
M  V30 9323 H 923.379 -2.59676 -3.03987 0
M  V30 9324 H 924.819 -1.88594 -3.79748 0
M  V30 9325 C 923.278 -0.47328 -3.33559 0
M  V30 9326 O 923.808 0.405239 -3.99651 0
M  V30 9327 N 922.014 -0.339074 -2.88615 0
M  V30 9328 H 921.561 -1.05497 -2.35007 0
M  V30 9329 H 921.519 0.501061 -3.10382 0
M  V30 9330 N 925.291 0.760815 -1.38019 0
M  V30 9331 C 926.537 1.52198 -1.34028 0
M  V30 9332 C 926.87 1.94067 0.0718309 0
M  V30 9333 O 926.145 1.64895 1.0315 0
M  V30 9334 C 926.428 2.77954 -2.2894 0
M  V30 9335 C 926.281 2.42269 -3.7898 0
M  V30 9336 C 927.6 3.79943 -2.22107 0
M  V30 9337 H 924.719 0.552131 -0.488181 0
M  V30 9338 H 927.361 0.871971 -1.6881 0
M  V30 9339 H 925.511 3.33419 -1.9941 0
M  V30 9340 H 927.183 1.92635 -4.19153 0
M  V30 9341 H 925.426 1.74822 -3.97014 0
M  V30 9342 H 926.097 3.32211 -4.4084 0
M  V30 9343 H 928.573 3.34 -2.4816 0
M  V30 9344 H 927.449 4.6564 -2.90639 0
M  V30 9345 H 927.71 4.25004 -1.21753 0
M  V30 9346 N 926.769 1.22769 0.988202 0
M  V30 9347 C 928.18 1.0512 1.54294 0
M  V30 9348 C 928.531 -0.383904 1.92407 0
M  V30 9349 O 927.656 -1.26955 1.75246 0
M  V30 9350 C 928.251 1.90198 2.80375 0
M  V30 9351 C 926.81 1.76831 3.32276 0
M  V30 9352 C 925.957 1.86377 2.05326 0
M  V30 9353 H 928.908 1.36546 0.808758 0
M  V30 9354 H 928.929 1.42216 3.52923 0
M  V30 9355 H 928.441 2.9464 2.52605 0
M  V30 9356 H 926.542 0.751412 3.64945 0
M  V30 9357 H 926.655 2.59771 4.02562 0
M  V30 9358 H 925.019 1.2987 2.19103 0
M  V30 9359 H 925.802 2.9236 1.79946 0
M  V30 9360 N 928.247 -1.18576 1.03814 0
M  V30 9361 C 929.493 -1.88773 0.741132 0
M  V30 9362 C 929.826 -1.79993 -0.729127 0
M  V30 9363 O 929.101 -1.19851 -1.53186 0
M  V30 9364 C 929.384 -3.39352 1.20468 0
M  V30 9365 C 929.237 -3.56955 2.73684 0
M  V30 9366 C 930.556 -4.32901 0.792741 0
M  V30 9367 H 927.675 -0.685482 0.270708 0
M  V30 9368 H 930.317 -1.39523 1.2897 0
M  V30 9369 H 928.467 -3.81427 0.737974 0
M  V30 9370 H 930.139 -3.2399 3.28372 0
M  V30 9371 H 928.382 -2.99696 3.13632 0
M  V30 9372 H 929.053 -4.62598 3.01176 0
M  V30 9373 H 931.529 -3.98592 1.1943 0
M  V30 9374 H 930.405 -5.36828 1.14486 0
M  V30 9375 H 930.666 -4.41052 -0.304295 0
M  V30 9376 N 929.725 -0.817259 -1.34754 0
M  V30 9377 C 930.973 -0.401852 -1.98065 0
M  V30 9378 C 931.294 1.03718 -1.65129 0
M  V30 9379 O 930.564 1.71921 -0.939141 0
M  V30 9380 H 929.144 -0.145603 -0.732672 0
M  V30 9381 H 931.806 -1.04545 -1.64488 0
M  V30 9382 H 930.902 -0.516241 -3.07801 0
M  V30 9383 N 931.203 1.46865 -0.571711 0
M  V30 9384 C 932.614 1.86158 -0.142181 0
M  V30 9385 C 932.965 1.47663 1.2919 0
M  V30 9386 O 932.09 0.886393 1.97413 0
M  V30 9387 C 932.685 3.37867 -0.251256 0
M  V30 9388 C 931.244 3.76198 0.123329 0
M  V30 9389 C 930.391 2.70902 -0.592232 0
M  V30 9390 H 933.342 1.38176 -0.780587 0
M  V30 9391 H 933.363 3.76842 0.526331 0
M  V30 9392 H 932.875 3.65853 -1.2951 0
M  V30 9393 H 930.976 3.53829 1.16773 0
M  V30 9394 H 931.089 4.78471 -0.24533 0
M  V30 9395 H 929.453 2.54678 -0.0336927 0
M  V30 9396 H 930.236 3.01729 -1.63751 0
M  V30 9397 N 932.681 0.308908 1.54543 0
M  V30 9398 C 933.613 -0.597453 2.21276 0
M  V30 9399 C 934.626 -1.09137 1.20801 0
M  V30 9400 O 935.815 -1.00747 1.47351 0
M  V30 9401 C 932.915 -1.83085 2.85189 0
M  V30 9402 C 932.088 -1.4781 4.11669 0
M  V30 9403 C 931.147 -2.56748 4.59311 0
M  V30 9404 O 930.173 -2.21507 5.24331 0
M  V30 9405 N 931.375 -3.87427 4.32297 0
M  V30 9406 H 934.14 -0.0261183 2.99689 0
M  V30 9407 H 931.701 0.131456 1.61365 0
M  V30 9408 H 933.693 -2.55326 3.13992 0
M  V30 9409 H 932.263 -2.31039 2.1057 0
M  V30 9410 H 931.483 -0.587974 3.8979 0
M  V30 9411 H 932.771 -1.2179 4.94009 0
M  V30 9412 H 932.169 -4.18863 3.80224 0
M  V30 9413 H 930.726 -4.55942 4.6579 0
M  V30 9414 N 934.159 -1.57557 0.0367827 0
M  V30 9415 C 935.387 -1.96419 -0.650168 0
M  V30 9416 C 935.802 -0.913656 -1.6522 0
M  V30 9417 O 935.159 0.103718 -1.82205 0
M  V30 9418 C 935.21 -3.35355 -1.3498 0
M  V30 9419 O 934.931 -4.36379 -0.387905 0
M  V30 9420 C 936.432 -3.88892 -2.12786 0
M  V30 9421 H 933.652 -0.646751 -0.178756 0
M  V30 9422 H 936.196 -2.04261 0.0988197 0
M  V30 9423 H 934.351 -3.28708 -2.05012 0
M  V30 9424 H 934.765 -5.16969 -0.885596 0
M  V30 9425 H 936.239 -4.88428 -2.5718 0
M  V30 9426 H 936.716 -3.23547 -2.97008 0
M  V30 9427 H 937.322 -3.98831 -1.47694 0
M  V30 9428 N 935.637 0.236453 -1.55816 0
M  V30 9429 C 936.884 0.963012 -1.78136 0
M  V30 9430 C 937.212 1.84918 -0.602952 0
M  V30 9431 O 936.467 1.91285 0.413325 0
M  V30 9432 C 936.766 1.84549 -3.06066 0
M  V30 9433 C 936.432 1.11381 -4.36927 0
M  V30 9434 C 935.094 0.911635 -4.72486 0
M  V30 9435 C 937.446 0.596 -5.17781 0
M  V30 9436 C 934.774 0.179515 -5.86425 0
M  V30 9437 C 937.126 -0.122702 -6.32481 0
M  V30 9438 C 935.79 -0.336263 -6.66652 0
M  V30 9439 H 935.06 0.352391 -0.651845 0
M  V30 9440 H 937.707 0.232295 -1.90086 0
M  V30 9441 H 936.012 2.6436 -2.89173 0
M  V30 9442 H 937.709 2.40953 -3.20535 0
M  V30 9443 H 934.299 1.28134 -4.08998 0
M  V30 9444 H 938.483 0.73971 -4.90757 0
M  V30 9445 H 933.739 0.00368224 -6.114 0
M  V30 9446 H 937.913 -0.531516 -6.94369 0
M  V30 9447 H 935.54 -0.905507 -7.54788 0
M  V30 9448 N 937.115 1.49373 0.502552 0
M  V30 9449 C 938.34 1.62752 1.28556 0
M  V30 9450 C 938.765 0.298285 1.8572 0
M  V30 9451 O 938.123 -0.733885 1.65782 0
M  V30 9452 C 938.171 2.69778 2.39274 0
M  V30 9453 O 937.275 2.28843 3.43081 0
M  V30 9454 H 936.616 0.544799 0.379592 0
M  V30 9455 H 939.146 1.9555 0.601792 0
M  V30 9456 H 939.156 2.91899 2.8506 0
M  V30 9457 H 937.831 3.66266 1.97033 0
M  V30 9458 H 936.408 2.17047 3.03224 0
M  V30 9459 N 938.594 -0.753485 1.38421 0
M  V30 9460 C 939.524 -1.8808 1.38377 0
M  V30 9461 C 940.505 -1.68258 0.249664 0
M  V30 9462 O 941.69 -1.88848 0.45276 0
M  V30 9463 C 938.82 -3.25608 1.20818 0
M  V30 9464 C 937.774 -3.60032 2.31433 0
M  V30 9465 C 937.1 -4.96297 1.9898 0
M  V30 9466 C 938.4 -3.64898 3.73694 0
M  V30 9467 H 940.094 -1.88375 2.32713 0
M  V30 9468 H 937.64 -0.90489 1.12017 0
M  V30 9469 H 939.593 -4.04127 1.19412 0
M  V30 9470 H 938.317 -3.25793 0.229433 0
M  V30 9471 H 936.976 -2.83831 2.32025 0
M  V30 9472 H 936.624 -4.93043 0.995889 0
M  V30 9473 H 936.324 -5.20298 2.73063 0
M  V30 9474 H 937.848 -5.77196 1.99193 0
M  V30 9475 H 939.262 -4.33531 3.75132 0
M  V30 9476 H 937.659 -4.00407 4.46983 0
M  V30 9477 H 938.729 -2.65124 4.06002 0
M  V30 9478 N 940.072 -1.23292 -0.981677 0
M  V30 9479 C 941.035 -1.01417 -2.05542 0
M  V30 9480 C 942.035 0.0235354 -1.60783 0
M  V30 9481 O 943.225 -0.216082 -1.72855 0
M  V30 9482 C 940.357 -0.534239 -3.36688 0
M  V30 9483 H 941.55 -1.96702 -2.26381 0
M  V30 9484 H 939.103 -1.05318 -1.1549 0
M  V30 9485 H 939.838 0.422452 -3.21537 0
M  V30 9486 H 939.623 -1.28304 -3.70514 0
M  V30 9487 H 941.113 -0.40179 -4.15663 0
M  V30 9488 N 941.55 1.18024 -1.04442 0
M  V30 9489 C 942.799 1.8743 -0.745185 0
M  V30 9490 C 943.112 1.81459 0.730206 0
M  V30 9491 O 944.318 2.46263 1.1431 0
M  V30 9492 C 942.774 3.36266 -1.28271 0
M  V30 9493 C 942.382 3.50757 -2.787 0
M  V30 9494 C 944.126 4.11048 -1.06018 0
M  V30 9495 C 942.033 4.93573 -3.25791 0
M  V30 9496 H 940.963 0.702038 -0.27506 0
M  V30 9497 H 943.614 1.33333 -1.26073 0
M  V30 9498 H 941.996 3.89853 -0.695002 0
M  V30 9499 H 943.17 3.07423 -3.43261 0
M  V30 9500 H 941.485 2.89385 -2.99408 0
M  V30 9501 H 944.082 5.16395 -1.38711 0
M  V30 9502 H 944.425 4.163 0.00241716 0
M  V30 9503 H 944.958 3.63644 -1.61269 0
M  V30 9504 H 941.697 4.93491 -4.31447 0
M  V30 9505 H 941.217 5.37607 -2.65968 0
M  V30 9506 H 942.896 5.62307 -3.20031 0
M  V30 9507 N 943.028 0.824394 1.34319 0
M  V30 9508 C 944.274 0.413779 1.98534 0
M  V30 9509 C 944.607 -1.02089 1.65201 0
M  V30 9510 O 943.882 -1.71129 0.924402 0
M  V30 9511 C 944.165 0.61801 3.54757 0
M  V30 9512 C 944.018 2.0989 3.97827 0
M  V30 9513 C 945.337 0.0549041 4.40066 0
M  V30 9514 H 942.456 0.151815 0.721194 0
M  V30 9515 H 945.098 1.03723 1.5919 0
M  V30 9516 H 943.248 0.0873107 3.88402 0
M  V30 9517 H 944.92 2.69335 3.74508 0
M  V30 9518 H 943.163 2.58881 3.48085 0
M  V30 9519 H 943.834 2.1926 5.06586 0
M  V30 9520 H 946.31 0.508348 4.12983 0
M  V30 9521 H 945.186 0.227595 5.48428 0
M  V30 9522 H 945.447 -1.04025 4.29687 0
M  V30 9523 N 944.506 -1.46559 0.579492 0
M  V30 9524 C 945.454 -2.3199 -0.168413 0
M  V30 9525 C 946.448 -1.44288 -0.887551 0
M  V30 9526 O 947.654 -1.60931 -0.806305 0
M  V30 9527 H 944.029 -0.748431 -0.0731799 0
M  V30 9528 H 946 -2.92886 0.570973 0
M  V30 9529 C 944.749 -3.27392 -1.1709 0
M  V30 9530 H 944.072 -3.94853 -0.626958 0
M  V30 9531 H 945.512 -3.89955 -1.66467 0
M  V30 9532 C 943.971 -2.52511 -2.23024 0
M  V30 9533 O 944.501 -2.2858 -3.30324 0
M  V30 9534 N 942.707 -2.1313 -1.97545 0
M  V30 9535 H 942.254 -2.32793 -1.10297 0
M  V30 9536 H 942.212 -1.63348 -2.68635 0
M  V30 9537 O 946.023 -0.459225 -1.54833 0
M  V30 9538 H 946.714 0.0690813 -1.93577 0
M  V30 END ATOM
M  V30 BEGIN BOND
M  V30 END BOND
M  V30 END CTAB
M  END
$$$$
