drugbank_target|Q94655 Glutathione reductase (DB03147)
 OpenBabel12092120263D

  0  0  0     0  0            999 V3000
M  V30 BEGIN CTAB
M  V30 COUNTS 8060 8125 0 0 0
M  V30 BEGIN ATOM
M  V30 1 H -0.908 1.98254 -0.117106 0
M  V30 2 N 0 1.576 0 0
M  V30 3 C 0.933 2.03868 1.02534 0
M  V30 4 C 1.911 0.928543 1.3348 0
M  V30 5 O 3.095 1.19667 1.45644 0
M  V30 6 C 0.222 2.43627 2.35294 0
M  V30 7 C -0.732 3.65373 2.2001 0
M  V30 8 S 0.101 5.13292 1.52614 0
M  V30 9 C 1.257 5.56322 2.86805 0
M  V30 10 H 1.49 2.90518 0.631377 0
M  V30 11 H -0.977 1.52953 0.210867 0
M  V30 12 H 0.981 2.67203 3.11629 0
M  V30 13 H -0.358 1.57376 2.7183 0
M  V30 14 H -1.165 3.90944 3.18086 0
M  V30 15 H -1.563 3.418 1.51819 0
M  V30 16 H 0.729 5.58782 3.83104 0
M  V30 17 H 1.672 6.56266 2.65933 0
M  V30 18 H 2.08 4.83886 2.90714 0
M  V30 19 N 1.4781 -0.272755 1.55222 0
M  V30 20 C 2.7241 -1.00581 1.761 0
M  V30 21 C 3.0571 -1.85932 0.560625 0
M  V30 22 O 2.3321 -1.89416 -0.441801 0
M  V30 23 C 2.6151 -1.88816 3.06628 0
M  V30 24 C 2.4681 -1.06457 4.37021 0
M  V30 25 C 3.7871 -2.8752 3.33197 0
M  V30 26 H 0.9061 -0.364244 0.640699 0
M  V30 27 H 3.5481 -0.278189 1.87952 0
M  V30 28 H 1.6981 -2.50856 2.96654 0
M  V30 29 H 3.3701 -0.464863 4.58952 0
M  V30 30 H 1.6131 -0.368043 4.32236 0
M  V30 31 H 2.2841 -1.71514 5.24678 0
M  V30 32 H 4.7601 -2.35615 3.42965 0
M  V30 33 H 3.6361 -3.46399 4.25792 0
M  V30 34 H 3.8971 -3.62657 2.52849 0
M  V30 35 N 2.9562 -1.48159 -0.537278 0
M  V30 36 C 4.1862 -1.59223 -1.3165 0
M  V30 37 C 4.5942 -0.248849 -1.87556 0
M  V30 38 O 3.9372 0.770949 -1.6674 0
M  V30 39 C 3.9992 -2.57365 -2.51005 0
M  V30 40 C 3.6632 -4.02603 -2.16239 0
M  V30 41 C 4.6602 -4.90503 -1.72344 0
M  V30 42 C 2.3452 -4.48088 -2.26986 0
M  V30 43 C 4.3392 -6.21913 -1.39651 0
M  V30 44 C 2.0262 -5.7952 -1.93906 0
M  V30 45 C 3.0242 -6.66255 -1.50309 0
M  V30 46 O 2.7122 -7.95243 -1.17659 0
M  V30 47 H 2.4442 -0.539831 -0.406889 0
M  V30 48 H 4.9982 -1.94655 -0.655641 0
M  V30 49 H 3.2282 -2.1704 -3.20048 0
M  V30 50 H 4.9172 -2.58342 -3.13072 0
M  V30 51 H 5.6832 -4.56604 -1.63517 0
M  V30 52 H 1.5622 -3.80769 -2.59877 0
M  V30 53 H 5.1062 -6.89569 -1.0555 0
M  V30 54 H 1.0032 -6.12957 -2.02371 0
M  V30 55 H 1.7712 -8.0793 -1.31119 0
M  V30 56 N 4.4343 0.785586 -1.36625 0
M  V30 57 C 5.7113 1.53198 -1.21613 0
M  V30 58 C 6.0913 2.10187 0.196113 0
M  V30 59 O 5.4393 1.94318 1.20219 0
M  V30 60 C 5.6493 2.62388 -2.30116 0
M  V30 61 C 6.9973 3.30167 -2.66974 0
M  V30 62 O 8.0213 2.72674 -2.29188 0
M  V30 63 O 6.8803 4.34077 -3.32023 0
M  V30 64 H 3.9743 0.677865 -0.473738 0
M  V30 65 H 6.5203 0.823739 -1.48367 0
M  V30 66 H 5.2923 2.18299 -3.24748 0
M  V30 67 H 4.9153 3.40827 -2.0475 0
M  V30 68 N 5.9124 1.20967 1.01018 0
M  V30 69 C 6.8424 0.988272 2.11555 0
M  V30 70 C 7.8234 -0.0849778 1.69888 0
M  V30 71 O 9.0084 0.0738202 1.9406 0
M  V30 72 C 6.1384 0.546528 3.42973 0
M  V30 73 C 5.0924 1.56375 3.9841 0
M  V30 74 C 4.4184 0.97842 5.25672 0
M  V30 75 C 5.7184 2.94922 4.31066 0
M  V30 76 H 7.4124 1.91276 2.30334 0
M  V30 77 H 4.9584 0.921073 1.1069 0
M  V30 78 H 6.9114 0.378839 4.19694 0
M  V30 79 H 5.6354 -0.413598 3.23971 0
M  V30 80 H 4.2944 1.71891 3.23804 0
M  V30 81 H 3.9424 0.0101688 5.02999 0
M  V30 82 H 3.6424 1.65784 5.63728 0
M  V30 83 H 5.1664 0.821939 6.05043 0
M  V30 84 H 6.5804 2.8288 4.9865 0
M  V30 85 H 4.9774 3.5983 4.80253 0
M  V30 86 H 6.0474 3.4616 3.39561 0
M  V30 87 N 7.3905 -1.2043 1.01659 0
M  V30 88 C 8.6395 -1.89118 0.701237 0
M  V30 89 C 8.9525 -1.79705 -0.772358 0
M  V30 90 O 10.1585 -2.43528 -1.20026 0
M  V30 91 C 8.6145 -3.39168 1.20388 0
M  V30 92 C 8.2225 -3.57166 2.70438 0
M  V30 93 C 9.9665 -4.1341 0.963953 0
M  V30 94 C 7.8735 -5.01042 3.14183 0
M  V30 95 H 6.8035 -0.708267 0.2586 0
M  V30 96 H 9.4545 -1.36239 1.22927 0
M  V30 97 H 7.8365 -3.91369 0.603824 0
M  V30 98 H 9.0105 -3.15351 3.35992 0
M  V30 99 H 7.3255 -2.96294 2.92572 0
M  V30 100 H 9.9225 -5.19491 1.26621 0
M  V30 101 H 10.2655 -4.16181 -0.099578 0
M  V30 102 H 10.7985 -3.67309 1.52738 0
M  V30 103 H 7.5375 -5.03426 4.19812 0
M  V30 104 H 7.0575 -5.43668 2.53348 0
M  V30 105 H 8.7365 -5.69623 3.0682 0
M  V30 106 N 8.8686 -0.792821 -1.36206 0
M  V30 107 C 10.1146 -0.36733 -1.99446 0
M  V30 108 C 10.4476 1.05917 -1.62774 0
M  V30 109 O 9.7226 1.7324 -0.88421 0
M  V30 110 C 10.0056 -0.535044 -3.56103 0
M  V30 111 C 9.8586 -2.00548 -4.02617 0
M  V30 112 C 11.1776 0.0478191 -4.40074 0
M  V30 113 H 8.2966 -0.134941 -0.724541 0
M  V30 114 H 10.9386 -0.999794 -1.61568 0
M  V30 115 H 9.0886 0.00336329 -3.885 0
M  V30 116 H 10.7606 -2.60521 -3.80692 0
M  V30 117 H 9.0036 -2.50686 -3.54032 0
M  V30 118 H 9.6746 -2.07377 -5.11565 0
M  V30 119 H 12.1506 -0.411822 -4.14057 0
M  V30 120 H 11.0266 -0.0995336 -5.4881 0
M  V30 121 H 11.2876 1.14025 -4.27142 0
M  V30 122 N 10.3467 1.47872 -0.545128 0
M  V30 123 C 11.5957 2.01695 -0.0145033 0
M  V30 124 C 11.9087 1.42609 1.33873 0
M  V30 125 O 13.1147 1.88021 1.95858 0
M  V30 126 C 11.5707 3.59892 0.0245068 0
M  V30 127 C 11.1787 4.27966 -1.32475 0
M  V30 128 C 12.9227 4.21507 0.50316 0
M  V30 129 C 10.8297 5.78136 -1.2455 0
M  V30 130 H 9.7597 0.753998 -0.00165172 0
M  V30 131 H 12.4107 1.69985 -0.691175 0
M  V30 132 H 10.7927 3.88509 0.766575 0
M  V30 133 H 11.9667 4.11003 -2.08357 0
M  V30 134 H 10.2817 3.78286 -1.74036 0
M  V30 135 H 12.8787 5.31538 0.580656 0
M  V30 136 H 13.2217 3.87855 1.51243 0
M  V30 137 H 13.7547 3.97376 -0.183681 0
M  V30 138 H 10.4937 6.16388 -2.23039 0
M  V30 139 H 10.0137 5.97469 -0.528282 0
M  V30 140 H 11.6927 6.40099 -0.942488 0
M  V30 141 N 11.8248 0.280983 1.55075 0
M  V30 142 C 13.0728 -0.333455 1.9933 0
M  V30 143 C 13.3938 -1.55937 1.17085 0
M  V30 144 O 12.6638 -1.94143 0.261805 0
M  V30 145 H 11.2438 -0.126197 0.736263 0
M  V30 146 H 13.9058 0.387678 1.91005 0
M  V30 147 H 13.0018 -0.619292 3.05894 0
M  V30 148 N 13.3029 -1.57598 0.00835791 0
M  V30 149 C 14.5509 -1.90551 -0.6734 0
M  V30 150 C 14.8719 -0.883301 -1.73847 0
M  V30 151 O 14.1419 0.0781442 -1.95744 0
M  V30 152 H 12.7219 -0.703312 -0.251717 0
M  V30 153 H 15.3839 -1.94833 0.0512592 0
M  V30 154 H 14.4799 -2.9056 -1.13935 0
M  V30 155 N 14.781 0.264519 -1.55364 0
M  V30 156 C 16.029 0.993021 -1.76021 0
M  V30 157 C 16.35 1.86511 -0.569099 0
M  V30 158 O 15.62 1.91438 0.415735 0
M  V30 159 H 14.2 0.369639 -0.649135 0
M  V30 160 H 16.862 0.286707 -1.9278 0
M  V30 161 H 15.958 1.62502 -2.66457 0
M  V30 162 N 16.2591 1.48442 0.529413 0
M  V30 163 C 17.4841 1.60406 1.31471 0
M  V30 164 C 17.9091 0.264738 1.86228 0
M  V30 165 O 17.2671 -0.763668 1.64432 0
M  V30 166 C 17.3151 2.65419 2.44101 0
M  V30 167 O 16.4191 2.22618 3.47153 0
M  V30 168 H 15.7601 0.537863 0.389357 0
M  V30 169 H 18.2901 1.94432 0.636965 0
M  V30 170 H 18.3001 2.86709 2.90279 0
M  V30 171 H 16.9751 3.62652 2.03608 0
M  V30 172 H 15.5521 2.11543 3.0709 0
M  V30 173 N 17.7372 -0.778329 1.37039 0
M  V30 174 C 18.9852 -1.53361 1.31623 0
M  V30 175 C 19.3062 -1.94739 -0.100831 0
M  V30 176 O 18.5762 -1.65797 -1.04347 0
M  V30 177 H 17.1562 -0.568794 0.484234 0
M  V30 178 H 19.8182 -0.926742 1.71457 0
M  V30 179 H 18.9142 -2.43606 1.95096 0
M  V30 180 N 19.2153 -1.21501 -1.00376 0
M  V30 181 C 20.4633 -1.03095 -1.73827 0
M  V30 182 C 20.7843 0.436341 -1.90055 0
M  V30 183 O 20.0543 1.31466 -1.45236 0
M  V30 184 H 18.6343 -0.378487 -0.644016 0
M  V30 185 H 21.2963 -1.52831 -1.20949 0
M  V30 186 H 20.3923 -1.49991 -2.73695 0
M  V30 187 N 20.6934 1.19889 -1.02296 0
M  V30 188 C 21.6264 2.21639 -0.543282 0
M  V30 189 C 22.6044 1.57275 0.412698 0
M  V30 190 O 23.7884 1.85568 0.331198 0
M  V30 191 C 20.9154 3.38057 0.208571 0
M  V30 192 C 19.9614 4.20751 -0.697933 0
M  V30 193 S 20.7944 4.89529 -2.17075 0
M  V30 194 C 21.9504 6.09363 -1.42923 0
M  V30 195 H 22.1834 2.61984 -1.40541 0
M  V30 196 H 19.7164 1.30041 -0.832387 0
M  V30 197 H 21.6744 4.05539 0.63624 0
M  V30 198 H 20.3354 2.96159 1.04635 0
M  V30 199 H 19.5284 5.03862 -0.117831 0
M  V30 200 H 19.1304 3.58556 -1.06366 0
M  V30 201 H 21.4224 6.73742 -0.712637 0
M  V30 202 H 22.3654 6.71845 -2.23673 0
M  V30 203 H 22.7734 5.56798 -0.929327 0
M  V30 204 N 22.1715 0.800033 1.35784 0
M  V30 205 C 23.1345 0.211565 2.28221 0
M  V30 206 C 24.1345 -0.59728 1.49296 0
M  V30 207 O 25.3245 -0.416721 1.69142 0
M  V30 208 C 22.4565 -0.705846 3.33513 0
M  V30 209 H 23.6495 1.02677 2.81776 0
M  V30 210 H 21.2025 0.570211 1.45528 0
M  V30 211 H 21.9375 -1.54498 2.85133 0
M  V30 212 H 21.7225 -0.127655 3.91892 0
M  V30 213 H 23.2125 -1.11211 4.02519 0
M  V30 214 N 23.6496 -1.47581 0.552962 0
M  V30 215 C 24.6126 -2.28439 -0.186605 0
M  V30 216 C 25.6126 -1.36706 -0.84665 0
M  V30 217 O 26.8026 -1.59378 -0.703164 0
M  V30 218 C 23.9346 -3.16264 -1.2724 0
M  V30 219 H 25.1276 -2.95294 0.523609 0
M  V30 220 H 22.6806 -1.532 0.309745 0
M  V30 221 H 23.4156 -2.54091 -2.01514 0
M  V30 222 H 23.2006 -3.83769 -0.803968 0
M  V30 223 H 24.6906 -3.77198 -1.79196 0
M  V30 224 N 25.1277 -0.289203 -1.54924 0
M  V30 225 C 26.0907 0.579144 -2.21762 0
M  V30 226 C 27.0907 1.07047 -1.1999 0
M  V30 227 O 28.2807 0.968384 -1.44803 0
M  V30 228 C 25.4127 1.80055 -2.8947 0
M  V30 229 H 26.6057 -0.00464908 -2.999 0
M  V30 230 H 24.1587 -0.0399306 -1.56249 0
M  V30 231 H 24.8937 2.42449 -2.15381 0
M  V30 232 H 24.6787 1.45602 -3.64064 0
M  V30 233 H 26.1687 2.41773 -3.40493 0
M  V30 234 N 26.6058 1.57591 -0.0167156 0
M  V30 235 C 28.0218 1.55946 0.339557 0
M  V30 236 C 28.2218 1.02109 1.73713 0
M  V30 237 O 27.2778 0.662303 2.43659 0
M  V30 238 C 28.5908 3.00037 0.199499 0
M  V30 239 C 30.1388 3.11805 0.273193 0
M  V30 240 C 30.6138 4.57713 0.162068 0
M  V30 241 N 32.1048 4.6268 0.219444 0
M  V30 242 C 32.8398 5.73185 0.157054 0
M  V30 243 N 32.3358 6.92786 0.0442936 0
M  V30 244 N 34.1288 5.61707 0.21014 0
M  V30 245 H 26.2798 1.90921 -0.930758 0
M  V30 246 H 28.5428 0.877674 -0.358319 0
M  V30 247 H 28.2488 3.4333 -0.76273 0
M  V30 248 H 28.1228 3.64387 0.974786 0
M  V30 249 H 30.5098 2.68433 1.22587 0
M  V30 250 H 30.5908 2.50201 -0.532256 0
M  V30 251 H 30.2348 5.01763 -0.78714 0
M  V30 252 H 30.1648 5.17283 0.986222 0
M  V30 253 H 32.6558 3.76649 0.307246 0
M  V30 254 H 32.9688 7.728 0.00304069 0
M  V30 255 H 31.3138 6.94999 0.00968457 0
M  V30 256 H 34.5048 4.6716 0.296546 0
M  V30 257 H 34.6778 6.47807 0.158054 0
M  V30 258 N 28.0839 -0.256276 1.55502 0
M  V30 259 C 29.4999 -0.604325 1.47716 0
M  V30 260 C 29.6999 -1.88763 0.705039 0
M  V30 261 O 28.7559 -2.51445 0.230613 0
M  V30 262 C 30.0689 -0.715756 2.92057 0
M  V30 263 C 31.6169 -0.808706 3.02372 0
M  V30 264 C 32.0919 -0.951777 4.48001 0
M  V30 265 N 33.5829 -1.01688 4.519 0
M  V30 266 C 34.3179 -1.14668 5.61817 0
M  V30 267 N 33.8139 -1.24261 6.81565 0
M  V30 268 N 35.6069 -1.1791 5.49594 0
M  V30 269 H 27.7579 0.586291 2.04148 0
M  V30 270 H 30.0209 0.201015 0.926443 0
M  V30 271 H 29.7269 0.157027 3.51349 0
M  V30 272 H 29.6009 -1.59071 3.42018 0
M  V30 273 H 31.9879 -1.67195 2.43166 0
M  V30 274 H 32.0689 0.0912063 2.55637 0
M  V30 275 H 31.7129 -0.0931291 5.07815 0
M  V30 276 H 31.6429 -1.86659 4.92408 0
M  V30 277 H 34.1339 -0.954468 3.65648 0
M  V30 278 H 34.4469 -1.34046 7.61086 0
M  V30 279 H 32.7919 -1.21236 6.84344 0
M  V30 280 H 35.9829 -1.10057 4.54978 0
M  V30 281 H 36.1559 -1.27681 6.35296 0
M  V30 282 N 29.562 -1.4872 -0.521534 0
M  V30 283 C 30.525 -1.63379 -1.60748 0
M  V30 284 C 31.525 -0.50661 -1.52611 0
M  V30 285 O 32.715 -0.772601 -1.5613 0
M  V30 286 C 29.847 -1.61192 -3.00383 0
M  V30 287 H 31.04 -2.60217 -1.49087 0
M  V30 288 H 28.593 -1.37444 -0.744235 0
M  V30 289 H 29.328 -0.65863 -3.17541 0
M  V30 290 H 29.113 -2.43032 -3.07698 0
M  V30 291 H 30.603 -1.7466 -3.7932 0
M  V30 292 N 31.0401 0.771051 -1.3745 0
M  V30 293 C 32.0031 1.86598 -1.33093 0
M  V30 294 C 33.0031 1.59076 -0.234845 0
M  V30 295 O 34.1931 1.67145 -0.490732 0
M  V30 296 C 31.3251 3.23747 -1.06773 0
M  V30 297 H 32.5181 1.91873 -2.30488 0
M  V30 298 H 30.0711 0.970876 -1.2249 0
M  V30 299 H 30.8061 3.24148 -0.099129 0
M  V30 300 H 30.5911 3.45115 -1.86112 0
M  V30 301 H 32.0811 4.03824 -1.06377 0
M  V30 302 N 32.5182 1.22032 0.997298 0
M  V30 303 C 33.9342 0.979326 1.26021 0
M  V30 304 C 34.1342 -0.32972 1.98784 0
M  V30 305 O 33.1902 -1.05345 2.29475 0
M  V30 306 C 34.5032 2.17509 2.07631 0
M  V30 307 C 36.0512 2.21817 2.2083 0
M  V30 308 C 36.5262 3.40933 3.05825 0
M  V30 309 N 38.0172 3.41067 3.13412 0
M  V30 310 C 38.7522 4.29885 3.79455 0
M  V30 311 N 38.2482 5.28914 4.47462 0
M  V30 312 N 40.0412 4.17673 3.76173 0
M  V30 313 H 32.1922 2.06202 0.509352 0
M  V30 314 H 34.4552 0.90334 0.287541 0
M  V30 315 H 34.1612 3.12415 1.61524 0
M  V30 316 H 34.0352 2.17206 3.08385 0
M  V30 317 H 36.4222 1.27462 2.66153 0
M  V30 318 H 36.5032 2.2616 1.1952 0
M  V30 319 H 36.1472 4.35586 2.61203 0
M  V30 320 H 36.0772 3.33829 4.07266 0
M  V30 321 H 38.5682 2.69406 2.65007 0
M  V30 322 H 38.8812 5.92973 4.95583 0
M  V30 323 H 37.2262 5.32831 4.46224 0
M  V30 324 H 40.4172 3.39564 3.22202 0
M  V30 325 H 40.5902 4.87098 4.27363 0
M  V30 326 N 33.9963 -1.19345 1.0293 0
M  V30 327 C 34.9463 -2.20472 0.58104 0
M  V30 328 C 35.9303 -1.56578 -0.370442 0
M  V30 329 O 37.1223 -1.75963 -0.191344 0
M  V30 330 C 34.2513 -3.43236 -0.066306 0
M  V30 331 C 33.3373 -4.14274 0.907642 0
M  V30 332 N 33.7283 -4.61492 2.07023 0
M  V30 333 C 32.0263 -4.39966 0.731177 0
M  V30 334 C 32.7273 -5.1605 2.68454 0
M  V30 335 N 31.7033 -5.06875 1.96414 0
M  V30 336 H 35.5053 -2.54659 1.46717 0
M  V30 337 H 33.0193 -1.35423 0.896345 0
M  V30 338 H 35.0163 -4.14927 -0.405068 0
M  V30 339 H 33.6763 -3.10549 -0.948118 0
M  V30 340 H 34.6873 -4.56304 2.44963 0
M  V30 341 H 31.3643 -4.17377 -0.101507 0
M  V30 342 H 32.7543 -5.6287 3.66915 0
M  V30 343 N 35.4744 -0.807222 -1.35358 0
M  V30 344 C 36.4224 -0.20614 -2.31685 0
M  V30 345 C 37.4164 0.644445 -1.56663 0
M  V30 346 O 38.6224 0.537538 -1.71786 0
M  V30 347 H 34.9974 -0.0479006 -0.750473 0
M  V30 348 H 36.9684 -1.03369 -2.79924 0
M  V30 349 C 35.7174 0.630212 -3.41941 0
M  V30 350 H 35.0404 -0.0149558 -3.99797 0
M  V30 351 H 36.4804 1.01716 -4.11619 0
M  V30 352 C 34.9394 1.79601 -2.85035 0
M  V30 353 O 35.4694 2.89351 -2.78637 0
M  V30 354 N 33.6754 1.60774 -2.42074 0
M  V30 355 H 33.2224 0.715009 -2.47478 0
M  V30 356 H 33.1804 2.38933 -2.04349 0
M  V30 357 N 36.9525 1.47285 -0.560781 0
M  V30 358 C 37.9155 2.28535 0.174488 0
M  V30 359 C 38.9155 1.37153 0.839388 0
M  V30 360 O 40.1055 1.59748 0.694702 0
M  V30 361 C 37.2375 3.16934 1.25561 0
M  V30 362 H 38.4305 2.95012 -0.539262 0
M  V30 363 H 35.9835 1.53034 -0.317865 0
M  V30 364 H 36.7185 2.55157 2.00164 0
M  V30 365 H 36.5035 3.8419 0.783604 0
M  V30 366 H 37.9935 3.78143 1.77193 0
M  V30 367 N 38.4306 0.297415 1.54768 0
M  V30 368 C 39.3776 -0.580276 2.23386 0
M  V30 369 C 40.3476 -1.13238 1.21517 0
M  V30 370 O 41.5326 -1.17757 1.50126 0
M  V30 371 C 38.6726 -1.74801 2.97555 0
M  V30 372 C 37.7856 -1.22764 4.1419 0
M  V30 373 C 36.9206 -2.35895 4.75949 0
M  V30 374 C 35.9596 -1.80974 5.84735 0
M  V30 375 N 35.0966 -2.87664 6.40464 0
M  V30 376 H 39.9366 0.0114833 2.97998 0
M  V30 377 H 37.4736 0.0174361 1.4709 0
M  V30 378 H 39.4316 -2.43475 3.38786 0
M  V30 379 H 38.0616 -2.31145 2.25326 0
M  V30 380 H 37.1136 -0.433271 3.77924 0
M  V30 381 H 38.4256 -0.785551 4.92575 0
M  V30 382 H 37.5796 -3.12523 5.20014 0
M  V30 383 H 36.3186 -2.83429 3.96887 0
M  V30 384 H 35.3236 -1.02834 5.40097 0
M  V30 385 H 36.5486 -1.34348 6.65678 0
M  V30 386 H 34.4946 -3.34538 5.64287 0
M  V30 387 H 34.4116 -2.4794 7.14186 0
M  V30 388 H 35.6796 -3.642 6.89187 0
M  V30 389 N 39.9087 -1.5758 0.0250728 0
M  V30 390 C 41.1547 -1.91917 -0.655413 0
M  V30 391 C 41.4877 -0.901433 -1.72011 0
M  V30 392 O 40.7627 0.0764069 -1.9435 0
M  V30 393 C 41.0457 -3.36751 -1.27558 0
M  V30 394 C 40.8987 -4.49258 -0.220719 0
M  V30 395 C 42.2177 -3.81469 -2.19475 0
M  V30 396 H 39.3367 -0.697925 -0.23679 0
M  V30 397 H 41.9787 -1.89825 0.0815036 0
M  V30 398 H 40.1287 -3.38664 -1.90365 0
M  V30 399 H 41.8007 -4.59478 0.409601 0
M  V30 400 H 40.0437 -4.31415 0.454264 0
M  V30 401 H 40.7147 -5.47618 -0.694175 0
M  V30 402 H 43.1907 -3.81266 -1.66659 0
M  V30 403 H 42.0667 -4.83512 -2.59822 0
M  V30 404 H 42.3277 -3.16744 -3.08424 0
M  V30 405 N 41.3868 0.248026 -1.55636 0
M  V30 406 C 42.3498 1.29044 -1.89421 0
M  V30 407 C 43.3498 1.41134 -0.770581 0
M  V30 408 O 44.5398 1.39854 -1.03858 0
M  V30 409 C 41.6718 2.66831 -2.12165 0
M  V30 410 H 42.8648 1.00305 -2.82629 0
M  V30 411 H 40.4178 0.487265 -1.48511 0
M  V30 412 H 41.1528 3.00711 -1.21422 0
M  V30 413 H 40.9378 2.59438 -2.93997 0
M  V30 414 H 42.4278 3.42103 -2.3949 0
M  V30 415 N 42.8649 1.48995 0.513639 0
M  V30 416 C 43.7949 1.67636 1.62544 0
M  V30 417 C 44.7759 0.525087 1.61793 0
M  V30 418 O 45.9609 0.759502 1.78732 0
M  V30 419 C 43.0909 1.73114 3.01079 0
M  V30 420 C 42.0449 2.87905 3.16693 0
M  V30 421 C 41.3709 2.78486 4.56453 0
M  V30 422 C 42.6709 4.29005 2.97913 0
M  V30 423 H 44.3649 2.60716 1.47198 0
M  V30 424 H 41.9109 1.25465 0.706714 0
M  V30 425 H 43.8639 1.84742 3.78746 0
M  V30 426 H 42.5879 0.766241 3.17484 0
M  V30 427 H 41.2469 2.75859 2.41448 0
M  V30 428 H 40.8949 1.7993 4.69717 0
M  V30 429 H 40.5949 3.55523 4.67843 0
M  V30 430 H 42.1189 2.92104 5.36197 0
M  V30 431 H 43.5329 4.41798 3.65359 0
M  V30 432 H 41.9299 5.07166 3.20785 0
M  V30 433 H 42.9999 4.44329 1.94165 0
M  V30 434 N 44.343 -0.763751 1.37857 0
M  V30 435 C 45.589 -1.52483 1.33704 0
M  V30 436 C 45.922 -1.94051 -0.0759612 0
M  V30 437 O 45.197 -1.64675 -1.03501 0
M  V30 438 C 45.48 -2.78441 2.28348 0
M  V30 439 C 45.333 -2.43075 3.78463 0
M  V30 440 C 46.652 -3.80415 2.21298 0
M  V30 441 H 43.771 -0.553169 0.487005 0
M  V30 442 H 46.413 -0.875562 1.68624 0
M  V30 443 H 44.563 -3.33842 1.987 0
M  V30 444 H 46.235 -1.93527 4.18742 0
M  V30 445 H 44.478 -1.75666 3.96641 0
M  V30 446 H 45.149 -3.33149 4.40132 0
M  V30 447 H 47.625 -3.34527 2.47449 0
M  V30 448 H 46.501 -4.66257 2.89647 0
M  V30 449 H 46.762 -4.25262 1.20849 0
M  V30 450 N 45.8211 -1.22559 -0.990812 0
M  V30 451 C 46.7311 -1.01394 -2.11557 0
M  V30 452 C 47.7471 0.0383962 -1.73958 0
M  V30 453 O 48.9231 -0.154787 -2.00804 0
M  V30 454 C 45.9881 -0.596569 -3.41529 0
M  V30 455 C 45.0491 -1.72276 -3.93217 0
M  V30 456 C 44.2821 -1.32521 -5.16985 0
M  V30 457 O 44.5051 -0.204909 -5.70032 0
M  V30 458 O 43.4391 -2.14247 -5.62478 0
M  V30 459 H 47.2651 -1.95633 -2.32296 0
M  V30 460 H 44.8501 -1.01172 -1.0993 0
M  V30 461 H 46.7321 -0.374263 -4.19735 0
M  V30 462 H 45.4071 0.316939 -3.22145 0
M  V30 463 H 44.3141 -1.99961 -3.16174 0
M  V30 464 H 45.6471 -2.61421 -4.17037 0
M  V30 465 N 47.2992 1.18797 -1.03562 0
M  V30 466 C 48.2462 2.22253 -0.622259 0
M  V30 467 C 49.2162 1.61987 0.36736 0
M  V30 468 O 50.4012 1.88986 0.262492 0
M  V30 469 C 47.5412 3.45097 0.0138462 0
M  V30 470 C 46.6542 4.19722 -1.02263 0
M  V30 471 C 45.7892 5.30009 -0.355573 0
M  V30 472 C 44.8282 5.96399 -1.37749 0
M  V30 473 N 43.9652 6.98234 -0.735766 0
M  V30 474 H 48.8052 2.56968 -1.50903 0
M  V30 475 H 46.3422 1.26245 -0.755017 0
M  V30 476 H 48.3002 4.15279 0.399948 0
M  V30 477 H 46.9302 3.11018 0.864158 0
M  V30 478 H 45.9822 3.48418 -1.52673 0
M  V30 479 H 47.2942 4.65227 -1.79903 0
M  V30 480 H 46.4482 6.0664 0.0850095 0
M  V30 481 H 45.1872 4.85592 0.452967 0
M  V30 482 H 44.1922 5.18512 -1.82826 0
M  V30 483 H 45.4172 6.42899 -2.18764 0
M  V30 484 H 43.3632 6.55979 0.0525597 0
M  V30 485 H 43.2802 7.41965 -1.44995 0
M  V30 486 H 44.5482 7.78845 -0.31941 0
M  V30 487 N 48.7773 0.814389 1.34928 0
M  V30 488 C 50.0023 0.410097 2.03305 0
M  V30 489 C 50.4273 -0.973464 1.60951 0
M  V30 490 O 49.7853 -1.63185 0.789964 0
M  V30 491 C 49.8333 0.51049 3.56968 0
M  V30 492 O 48.9373 -0.473035 4.09678 0
M  V30 493 H 48.2783 0.170088 0.641846 0
M  V30 494 H 50.8083 1.10244 1.72358 0
M  V30 495 H 50.8183 0.383135 4.06197 0
M  V30 496 H 49.4933 1.51963 3.87144 0
M  V30 497 H 48.0703 -0.305272 3.71648 0
M  V30 498 N 50.2554 -1.46986 0.568584 0
M  V30 499 C 51.6714 -1.57946 0.229189 0
M  V30 500 C 51.8714 -1.56567 -1.26843 0
M  V30 501 O 50.9274 -1.47511 -2.04931 0
M  V30 502 C 52.2404 -2.87963 0.865909 0
M  V30 503 C 53.7884 -3.01568 0.838188 0
M  V30 504 C 54.2634 -4.34301 1.45419 0
M  V30 505 N 55.7544 -4.40965 1.41788 0
M  V30 506 C 56.4894 -5.42256 1.86403 0
M  V30 507 N 55.9854 -6.50297 2.38926 0
M  V30 508 N 57.7784 -5.3337 1.77405 0
M  V30 509 H 49.9294 -1.46126 1.54146 0
M  V30 510 H 52.1924 -0.696156 0.643484 0
M  V30 511 H 51.8984 -2.94742 1.91886 0
M  V30 512 H 51.7724 -3.75423 0.365687 0
M  V30 513 H 54.1594 -2.94379 -0.206106 0
M  V30 514 H 54.2404 -2.1562 1.37629 0
M  V30 515 H 53.8844 -4.42247 2.49761 0
M  V30 516 H 53.8144 -5.19 0.891435 0
M  V30 517 H 56.3054 -3.63484 1.03381 0
M  V30 518 H 56.6184 -7.23777 2.70863 0
M  V30 519 H 54.9634 -6.51155 2.42944 0
M  V30 520 H 58.1544 -4.47865 1.3614 0
M  V30 521 H 58.3274 -6.12169 2.12492 0
M  V30 522 N 51.7335 -0.305618 -1.54608 0
M  V30 523 C 52.6635 0.561482 -2.26649 0
M  V30 524 C 53.6445 1.13415 -1.26772 0
M  V30 525 O 54.8295 1.16262 -1.55553 0
M  V30 526 C 51.9595 1.73122 -3.01075 0
M  V30 527 C 50.9135 1.2887 -4.08138 0
M  V30 528 C 50.2395 2.54396 -4.70305 0
M  V30 529 C 51.5395 0.416578 -5.20636 0
M  V30 530 H 53.2335 -0.0393902 -2.99374 0
M  V30 531 H 50.7795 -0.020385 -1.43986 0
M  V30 532 H 52.7325 2.34396 -3.50195 0
M  V30 533 H 51.4565 2.3584 -2.25936 0
M  V30 534 H 50.1155 0.698991 -3.59875 0
M  V30 535 H 49.7635 3.15439 -3.918 0
M  V30 536 H 49.4635 2.25486 -5.42614 0
M  V30 537 H 50.9875 3.16464 -5.2219 0
M  V30 538 H 52.4015 0.935116 -5.65622 0
M  V30 539 H 50.7985 0.221046 -5.99693 0
M  V30 540 H 51.8685 -0.557162 -4.81688 0
M  V30 541 N 53.2116 1.57565 -0.0334293 0
M  V30 542 C 54.4596 1.91598 0.642999 0
M  V30 543 C 54.7806 0.910847 1.7242 0
M  V30 544 O 54.0506 -0.0469931 1.95844 0
M  V30 545 H 52.6306 0.707228 0.240496 0
M  V30 546 H 55.2926 1.94726 -0.0822488 0
M  V30 547 H 54.3886 2.92336 1.09298 0
M  V30 548 N 54.6897 -0.239769 1.55765 0
M  V30 549 C 55.9377 -0.964892 1.77579 0
M  V30 550 C 56.2587 -1.85582 0.598699 0
M  V30 551 O 55.5287 -1.92075 -0.385226 0
M  V30 552 H 54.1087 -0.359265 0.654933 0
M  V30 553 H 56.7707 -0.256001 1.93211 0
M  V30 554 H 55.8667 -1.58243 2.69009 0
M  V30 555 N 56.1678 -1.49265 -0.50573 0
M  V30 556 C 57.3958 -1.62215 -1.28429 0
M  V30 557 C 57.8108 -0.291697 -1.86533 0
M  V30 558 O 57.1678 0.722233 -1.67601 0
M  V30 559 C 57.2188 -2.68735 -2.41793 0
M  V30 560 O 56.9398 -3.96619 -1.86078 0
M  V30 561 C 58.4408 -2.92346 -3.3324 0
M  V30 562 H 55.6608 -0.546239 -0.389697 0
M  V30 563 H 58.2048 -1.95265 -0.607609 0
M  V30 564 H 56.3598 -2.38476 -3.053 0
M  V30 565 H 56.7738 -4.55256 -2.60465 0
M  V30 566 H 58.2478 -3.70623 -4.09075 0
M  V30 567 H 58.7248 -2.02081 -3.89948 0
M  V30 568 H 59.3308 -3.24003 -2.75503 0
M  V30 569 N 57.6459 0.756429 -1.3826 0
M  V30 570 C 58.8859 1.52833 -1.35725 0
M  V30 571 C 59.2499 1.91926 0.0534106 0
M  V30 572 O 60.4509 2.68028 0.203613 0
M  V30 573 C 58.7219 2.74919 -2.28373 0
M  V30 574 S 60.2809 3.64817 -2.43832 0
M  V30 575 H 57.0989 0.523043 -0.481608 0
M  V30 576 H 59.7009 0.888212 -1.74158 0
M  V30 577 H 58.4049 2.44304 -3.29763 0
M  V30 578 H 57.9359 3.43878 -1.91079 0
M  V30 579 H 59.9509 4.676 -1.66027 0
M  V30 580 N 59.124 1.23083 0.984299 0
M  V30 581 C 60.37 1.06214 1.72761 0
M  V30 582 C 60.703 -0.400584 1.90024 0
M  V30 583 O 59.978 -1.29672 1.44967 0
M  V30 584 C 60.261 1.78375 3.12817 0
M  V30 585 C 60.114 3.32296 3.03149 0
M  V30 586 C 61.433 1.54309 4.12161 0
M  V30 587 H 58.552 0.387251 0.627061 0
M  V30 588 H 61.194 1.51536 1.14616 0
M  V30 589 H 59.344 1.39848 3.62457 0
M  V30 590 H 61.016 3.8032 2.61064 0
M  V30 591 H 59.259 3.6153 2.39747 0
M  V30 592 H 59.93 3.77972 4.02295 0
M  V30 593 H 62.406 1.87791 3.71314 0
M  V30 594 H 61.282 2.07281 5.08258 0
M  V30 595 H 61.543 0.477572 4.39513 0
M  V30 596 N 60.6021 -1.18246 1.0419 0
M  V30 597 C 61.5501 -2.23968 0.627792 0
M  V30 598 C 62.5441 -1.65828 -0.346019 0
M  V30 599 O 63.7501 -1.78733 -0.213175 0
M  V30 600 H 60.1251 -0.728939 0.184802 0
M  V30 601 H 62.0961 -2.56202 1.52981 0
M  V30 602 C 60.8451 -3.47699 0.00796591 0
M  V30 603 H 60.1681 -3.92734 0.748347 0
M  V30 604 H 61.6081 -4.23294 -0.24455 0
M  V30 605 C 60.0671 -3.13153 -1.24246 0
M  V30 606 O 60.5971 -3.27003 -2.33307 0
M  V30 607 N 58.8031 -2.67467 -1.13622 0
M  V30 608 H 58.3501 -2.56396 -0.248734 0
M  V30 609 H 58.3081 -2.44724 -1.97377 0
M  V30 610 N 62.0802 -0.821533 -1.34494 0
M  V30 611 C 63.3262 -0.409552 -1.98622 0
M  V30 612 C 63.6592 1.0244 -1.64984 0
M  V30 613 O 62.9342 1.71325 -0.920758 0
M  V30 614 C 63.2172 -0.610458 -3.54888 0
M  V30 615 C 63.0702 -2.09043 -3.98273 0
M  V30 616 C 64.3892 -0.0455379 -4.40076 0
M  V30 617 H 61.5082 -0.15028 -0.721516 0
M  V30 618 H 64.1502 -1.03384 -1.59411 0
M  V30 619 H 62.3002 -0.079044 -3.8842 0
M  V30 620 H 63.9722 -2.68537 -3.75081 0
M  V30 621 H 62.2152 -2.58139 -3.48635 0
M  V30 622 H 62.8862 -2.18182 -5.07051 0
M  V30 623 H 65.3622 -0.499557 -4.1309 0
M  V30 624 H 64.2382 -0.215922 -5.48475 0
M  V30 625 H 64.4992 1.04939 -4.29465 0
M  V30 626 N 63.5583 1.46682 -0.576371 0
M  V30 627 C 64.8063 2.02013 -0.0594163 0
M  V30 628 C 65.1273 1.45101 1.30271 0
M  V30 629 O 64.3973 0.633317 1.8538 0
M  V30 630 H 62.9773 0.746759 -0.0189745 0
M  V30 631 H 65.6393 1.79862 -0.750717 0
M  V30 632 H 64.7353 3.12097 0.014345 0
M  V30 633 N 65.0364 0.313813 1.54444 0
M  V30 634 C 66.2764 -0.292389 2.02298 0
M  V30 635 C 66.6404 -1.50105 1.19719 0
M  V30 636 O 67.8414 -2.17947 1.5733 0
M  V30 637 C 66.1124 -0.627682 3.51845 0
M  V30 638 S 67.6714 -1.21493 4.21646 0
M  V30 639 H 64.4894 -0.0890247 0.705405 0
M  V30 640 H 67.0914 0.444668 1.90376 0
M  V30 641 H 65.7954 0.260265 4.09574 0
M  V30 642 H 65.3264 -1.39519 3.67829 0
M  V30 643 H 67.3414 -2.5022 4.28491 0
M  V30 644 N 66.5145 -1.57545 0.0417849 0
M  V30 645 C 67.7605 -1.92601 -0.635021 0
M  V30 646 C 68.0935 -0.919627 -1.71045 0
M  V30 647 O 67.3685 0.0557892 -1.9442 0
M  V30 648 C 67.6515 -3.38085 -1.23979 0
M  V30 649 C 67.5045 -4.49467 -0.173057 0
M  V30 650 C 68.8235 -3.83776 -2.15416 0
M  V30 651 H 65.9425 -0.700397 -0.229374 0
M  V30 652 H 68.5845 -1.89728 0.101633 0
M  V30 653 H 66.7345 -3.40664 -1.86762 0
M  V30 654 H 68.4065 -4.59018 0.458312 0
M  V30 655 H 66.6495 -4.30909 0.499996 0
M  V30 656 H 67.3205 -5.48323 -0.636054 0
M  V30 657 H 69.7965 -3.83013 -1.62605 0
M  V30 658 H 68.6725 -4.8624 -2.54679 0
M  V30 659 H 68.9335 -3.19998 -3.05047 0
M  V30 660 N 67.9926 0.231505 -1.5589 0
M  V30 661 C 69.4036 0.799327 -1.68724 0
M  V30 662 C 69.7546 1.85398 -0.642022 0
M  V30 663 O 68.8796 2.1539 0.208784 0
M  V30 664 C 69.4746 1.45664 -3.05888 0
M  V30 665 C 68.0336 1.97197 -3.20609 0
M  V30 666 C 67.1806 0.828552 -2.64632 0
M  V30 667 H 70.1316 0.00702616 -1.58698 0
M  V30 668 H 70.1526 2.32517 -3.01191 0
M  V30 669 H 69.6646 0.688808 -3.81939 0
M  V30 670 H 67.7656 2.76813 -2.4941 0
M  V30 671 H 67.8786 2.15878 -4.27707 0
M  V30 672 H 66.2426 1.23321 -2.22854 0
M  V30 673 H 67.0256 0.0735544 -3.43221 0
M  V30 674 N 69.4707 1.49531 0.497807 0
M  V30 675 C 70.4177 1.66436 1.59899 0
M  V30 676 C 71.3877 0.505793 1.58212 0
M  V30 677 O 72.5727 0.733202 1.7615 0
M  V30 678 C 69.7127 1.7399 2.98029 0
M  V30 679 C 68.8257 3.01172 3.09708 0
M  V30 680 C 67.9607 2.99686 4.38591 0
M  V30 681 C 66.9997 4.21434 4.43914 0
M  V30 682 N 66.1367 4.1784 5.64229 0
M  V30 683 H 70.9767 2.60459 1.44793 0
M  V30 684 H 68.5137 1.29137 0.704423 0
M  V30 685 H 70.4717 1.76352 3.78095 0
M  V30 686 H 69.1017 0.834301 3.11832 0
M  V30 687 H 68.1537 3.08408 2.22685 0
M  V30 688 H 69.4657 3.91165 3.09502 0
M  V30 689 H 68.6197 3.00628 5.2698 0
M  V30 690 H 67.3587 2.07477 4.41367 0
M  V30 691 H 66.3637 4.20733 3.53926 0
M  V30 692 H 67.5887 5.14839 4.42851 0
M  V30 693 H 65.5347 3.28469 5.67841 0
M  V30 694 H 65.4517 5.01571 5.65652 0
M  V30 695 H 66.7197 4.22889 6.54817 0
M  V30 696 N 70.9488 -0.749086 1.3866 0
M  V30 697 C 71.8958 -1.86291 1.36251 0
M  V30 698 C 72.8658 -1.64578 0.224347 0
M  V30 699 O 74.0508 -1.86181 0.417279 0
M  V30 700 C 71.1908 -3.23644 1.19786 0
M  V30 701 C 70.3038 -3.57158 2.43027 0
M  V30 702 C 69.4388 -4.83838 2.19258 0
M  V30 703 C 68.4778 -5.10152 3.38247 0
M  V30 704 N 67.6148 -6.28029 3.13884 0
M  V30 705 H 72.4548 -1.87685 2.3147 0
M  V30 706 H 69.9918 -0.917287 1.14997 0
M  V30 707 H 71.9498 -4.0291 1.08254 0
M  V30 708 H 70.5798 -3.21566 0.282031 0
M  V30 709 H 69.6318 -2.72701 2.65214 0
M  V30 710 H 70.9438 -3.7253 3.31697 0
M  V30 711 H 70.0978 -5.71057 2.04888 0
M  V30 712 H 68.8368 -4.70614 1.2796 0
M  V30 713 H 67.8418 -4.21401 3.53131 0
M  V30 714 H 69.0668 -5.25271 4.30427 0
M  V30 715 H 67.0128 -6.1612 2.25238 0
M  V30 716 H 66.9298 -6.43922 3.96106 0
M  V30 717 H 68.1978 -7.18124 3.03179 0
M  V30 718 N 72.4269 -1.23603 -0.977757 0
M  V30 719 C 73.6759 -1.06377 -1.71368 0
M  V30 720 C 73.9889 0.399062 -1.91486 0
M  V30 721 O 75.1949 0.691312 -2.62551 0
M  V30 722 C 73.6509 -1.85512 -3.08404 0
M  V30 723 C 73.2589 -3.36141 -2.96164 0
M  V30 724 C 75.0029 -1.76783 -3.85938 0
M  V30 725 C 72.9099 -4.07659 -4.28449 0
M  V30 726 H 71.8399 -0.394452 -0.642591 0
M  V30 727 H 74.4909 -1.47594 -1.09034 0
M  V30 728 H 72.8729 -1.37103 -3.71509 0
M  V30 729 H 74.0469 -3.92056 -2.42133 0
M  V30 730 H 72.3619 -3.45712 -2.32104 0
M  V30 731 H 74.9589 -2.27526 -4.83876 0
M  V30 732 H 75.3019 -0.731116 -4.0983 0
M  V30 733 H 75.8349 -2.22818 -3.2954 0
M  V30 734 H 72.5739 -5.11648 -4.09752 0
M  V30 735 H 72.0939 -3.5653 -4.82334 0
M  V30 736 H 73.7729 -4.141 -4.97122 0
M  V30 737 N 73.905 1.17692 -1.04816 0
M  V30 738 C 74.838 2.20436 -0.590173 0
M  V30 739 C 75.816 1.58115 0.379244 0
M  V30 740 O 77 1.86228 0.291762 0
M  V30 741 C 74.127 3.38424 0.136817 0
M  V30 742 C 73.173 4.19176 -0.787023 0
M  V30 743 S 74.006 4.84815 -2.27409 0
M  V30 744 C 75.162 6.06195 -1.55817 0
M  V30 745 H 75.395 2.58944 -1.46067 0
M  V30 746 H 72.928 1.28246 -0.859784 0
M  V30 747 H 74.886 4.06798 0.550076 0
M  V30 748 H 73.547 2.98312 0.983299 0
M  V30 749 H 72.74 5.03499 -0.224681 0
M  V30 750 H 72.342 3.56219 -1.13947 0
M  V30 751 H 74.634 6.72078 -0.855387 0
M  V30 752 H 75.577 6.6695 -2.37873 0
M  V30 753 H 75.985 5.54701 -1.04722 0
M  V30 754 N 75.3831 0.828654 1.34056 0
M  V30 755 C 76.6301 0.419458 1.98108 0
M  V30 756 C 76.9581 -1.01886 1.65679 0
M  V30 757 O 76.2131 -1.72539 0.923512 0
M  V30 758 C 76.5121 0.575226 3.52741 0
M  V30 759 C 76.1781 1.98012 4.05095 0
M  V30 760 C 74.8401 2.36442 4.19104 0
M  V30 761 C 77.1921 2.89824 4.33188 0
M  V30 762 C 74.5201 3.66009 4.58535 0
M  V30 763 C 76.8721 4.1886 4.74066 0
M  V30 764 C 75.5361 4.5726 4.86281 0
M  V30 765 H 74.8061 0.153491 0.724929 0
M  V30 766 H 77.4531 1.05371 1.59904 0
M  V30 767 H 75.7581 -0.142385 3.91541 0
M  V30 768 H 77.4551 0.239057 4.00287 0
M  V30 769 H 74.0451 1.67162 3.94658 0
M  V30 770 H 78.2291 2.61375 4.21897 0
M  V30 771 H 73.4851 3.95579 4.66184 0
M  V30 772 H 77.6591 4.90086 4.94761 0
M  V30 773 H 75.2861 5.57707 5.16592 0
M  V30 774 N 76.8612 -1.46375 0.584142 0
M  V30 775 C 77.8092 -2.32042 -0.161047 0
M  V30 776 C 78.8032 -1.44569 -0.882966 0
M  V30 777 O 80.0092 -1.61186 -0.801191 0
M  V30 778 H 76.3842 -0.748659 -0.0708033 0
M  V30 779 H 78.3552 -2.92704 0.580269 0
M  V30 780 C 77.1042 -3.27762 -1.1605 0
M  V30 781 H 76.4272 -3.95051 -0.614419 0
M  V30 782 H 77.8672 -3.90481 -1.65228 0
M  V30 783 C 76.3262 -2.53218 -2.22221 0
M  V30 784 O 76.8562 -2.29628 -3.29597 0
M  V30 785 N 75.0622 -2.13756 -1.96868 0
M  V30 786 H 74.6092 -2.33142 -1.09557 0
M  V30 787 H 74.5672 -1.642 -2.68115 0
M  V30 788 N 78.3393 -0.321999 -1.54275 0
M  V30 789 C 79.3023 0.531975 -2.22941 0
M  V30 790 C 80.3023 1.04478 -1.22234 0
M  V30 791 O 81.4923 0.937452 -1.46825 0
M  V30 792 C 78.6243 1.73874 -2.93224 0
M  V30 793 H 79.8173 -0.0682612 -2.99822 0
M  V30 794 H 77.3703 -0.0730644 -1.56129 0
M  V30 795 H 78.1053 2.37825 -2.20476 0
M  V30 796 H 77.8903 1.37847 -3.6707 0
M  V30 797 H 79.3803 2.34496 -3.45545 0
M  V30 798 N 79.8174 1.5752 -0.0501392 0
M  V30 799 C 80.7804 2.1037 0.909786 0
M  V30 800 C 81.7804 1.02308 1.24056 0
M  V30 801 O 82.9704 1.28385 1.17741 0
M  V30 802 C 80.1024 2.58708 2.21998 0
M  V30 803 H 81.2954 2.96479 0.451665 0
M  V30 804 H 78.8484 1.55038 0.198248 0
M  V30 805 H 79.5834 1.75989 2.72394 0
M  V30 806 H 79.3684 3.37675 1.99295 0
M  V30 807 H 80.8584 2.99747 2.9076 0
M  V30 808 N 81.2955 -0.223234 1.56011 0
M  V30 809 C 82.5205 -0.968978 1.83373 0
M  V30 810 C 82.9455 -1.77227 0.630254 0
M  V30 811 O 82.3035 -1.76345 -0.420959 0
M  V30 812 C 82.3515 -1.86363 3.08709 0
M  V30 813 O 81.4555 -2.95873 2.87285 0
M  V30 814 H 80.7965 -0.274461 0.604622 0
M  V30 815 H 83.3265 -0.237056 2.03222 0
M  V30 816 H 83.3365 -2.27376 3.38768 0
M  V30 817 H 82.0115 -1.27319 3.95933 0
M  V30 818 H 80.5885 -2.58818 2.68454 0
M  V30 819 N 82.7736 -1.49793 -0.48987 0
M  V30 820 C 84.0196 -1.60078 -1.24511 0
M  V30 821 C 84.3526 -0.291608 -1.91998 0
M  V30 822 O 83.6276 0.705647 -1.81248 0
M  V30 823 C 83.9106 -2.76791 -2.30345 0
M  V30 824 C 83.7636 -4.17535 -1.67286 0
M  V30 825 C 85.0826 -2.89111 -3.31817 0
M  V30 826 H 82.2016 -0.582645 -0.451324 0
M  V30 827 H 84.8436 -1.82117 -0.541612 0
M  V30 828 H 82.9936 -2.5813 -2.90346 0
M  V30 829 H 84.6656 -4.4774 -1.11026 0
M  V30 830 H 82.9086 -4.22665 -0.976577 0
M  V30 831 H 83.5796 -4.95094 -2.44103 0
M  V30 832 H 86.0556 -3.06133 -2.81819 0
M  V30 833 H 84.9316 -3.72433 -4.03219 0
M  V30 834 H 85.1926 -1.9893 -3.94815 0
M  V30 835 N 84.2517 0.741722 -1.39055 0
M  V30 836 C 85.2017 1.84661 -1.33732 0
M  V30 837 C 86.1857 1.59397 -0.219401 0
M  V30 838 O 87.3777 1.71015 -0.456375 0
M  V30 839 C 84.5067 3.22512 -1.17647 0
M  V30 840 C 83.5927 3.53628 -2.34112 0
M  V30 841 N 83.9837 3.55723 -3.59576 0
M  V30 842 C 82.2817 3.83956 -2.26923 0
M  V30 843 C 82.9827 3.84443 -4.36553 0
M  V30 844 N 81.9587 4.01877 -3.66055 0
M  V30 845 H 85.7607 1.84576 -2.28711 0
M  V30 846 H 83.2747 0.939647 -1.32455 0
M  V30 847 H 85.2717 4.01597 -1.11917 0
M  V30 848 H 83.9317 3.2384 -0.236124 0
M  V30 849 H 84.9427 3.37196 -3.93089 0
M  V30 850 H 81.6197 3.92929 -1.41113 0
M  V30 851 H 83.0097 3.92588 -5.45274 0
M  V30 852 N 85.7298 1.2412 0.971189 0
M  V30 853 C 87.0068 0.986867 1.6888 0
M  V30 854 C 87.3868 -0.491857 2.0529 0
M  V30 855 O 86.7348 -1.46531 1.75331 0
M  V30 856 C 86.9448 1.9063 2.92338 0
M  V30 857 C 88.2928 2.17515 3.64654 0
M  V30 858 O 89.3168 1.88254 3.02388 0
M  V30 859 O 88.1758 2.6719 4.7673 0
M  V30 860 H 85.2698 0.372944 0.738134 0
M  V30 861 H 87.8158 1.35203 1.02559 0
M  V30 862 H 86.5878 2.90552 2.62097 0
M  V30 863 H 86.2108 1.54408 3.66393 0
M  V30 864 N 87.2079 -1.17134 1.05439 0
M  V30 865 C 88.4569 -1.86791 0.761049 0
M  V30 866 C 88.7699 -1.82072 -0.714795 0
M  V30 867 O 89.9759 -2.47223 -1.12218 0
M  V30 868 C 88.4319 -3.35166 1.31117 0
M  V30 869 C 88.0399 -3.48381 2.81664 0
M  V30 870 C 89.7839 -4.10134 1.09499 0
M  V30 871 C 87.6909 -4.90793 3.29964 0
M  V30 872 H 86.6209 -0.699681 0.281002 0
M  V30 873 H 89.2719 -1.3226 1.27199 0
M  V30 874 H 87.6539 -3.8925 0.72803 0
M  V30 875 H 88.8279 -3.04502 3.45855 0
M  V30 876 H 87.1429 -2.86836 3.01851 0
M  V30 877 H 89.7399 -5.152 1.43084 0
M  V30 878 H 90.0829 -4.16287 0.0328772 0
M  V30 879 H 90.6159 -3.62264 1.64346 0
M  V30 880 H 87.3549 -4.89816 4.35616 0
M  V30 881 H 86.8749 -5.35333 2.70516 0
M  V30 882 H 88.5539 -5.59573 3.24787 0
M  V30 883 N 88.686 -0.835752 -1.33615 0
M  V30 884 C 89.616 -0.281739 -2.31794 0
M  V30 885 C 90.597 0.608833 -1.58831 0
M  V30 886 O 91.782 0.533035 -1.86741 0
M  V30 887 C 88.912 0.546612 -3.42971 0
M  V30 888 C 87.866 -0.247904 -4.27281 0
M  V30 889 C 87.192 0.704001 -5.30045 0
M  V30 890 C 88.492 -1.46324 -5.01385 0
M  V30 891 H 90.186 -1.10206 -2.78379 0
M  V30 892 H 87.732 -0.531388 -1.33837 0
M  V30 893 H 89.685 0.944467 -4.1068 0
M  V30 894 H 88.409 1.40011 -2.95067 0
M  V30 895 H 87.068 -0.627281 -3.61194 0
M  V30 896 H 86.716 1.55381 -4.78399 0
M  V30 897 H 86.416 0.176524 -5.87335 0
M  V30 898 H 87.94 1.09944 -6.0062 0
M  V30 899 H 89.354 -1.13871 -5.61877 0
M  V30 900 H 87.751 -1.92728 -5.6831 0
M  V30 901 H 88.821 -2.23467 -4.30338 0
M  V30 902 N 90.1641 1.46063 -0.591896 0
M  V30 903 C 91.0741 2.34192 0.13831 0
M  V30 904 C 92.0901 1.50305 0.876608 0
M  V30 905 O 93.2661 1.8315 0.837728 0
M  V30 906 C 90.3311 3.27656 1.13326 0
M  V30 907 C 89.3921 4.27445 0.39863 0
M  V30 908 C 88.6251 5.16443 1.34618 0
M  V30 909 O 88.8481 5.08553 2.58321 0
M  V30 910 O 87.7821 5.95843 0.851768 0
M  V30 911 H 91.6081 2.98002 -0.58552 0
M  V30 912 H 89.1931 1.45188 -0.352239 0
M  V30 913 H 91.0751 3.85291 1.70671 0
M  V30 914 H 89.7501 2.6643 1.83839 0
M  V30 915 H 88.6571 3.73471 -0.216895 0
M  V30 916 H 89.9901 4.91482 -0.265709 0
M  V30 917 N 91.6422 0.330177 1.54103 0
M  V30 918 C 92.5902 -0.548226 2.26047 0
M  V30 919 C 93.5842 -1.11309 1.27698 0
M  V30 920 O 94.7902 -1.06036 1.45452 0
M  V30 921 H 91.1652 -0.195456 0.726155 0
M  V30 922 H 93.1362 0.0807567 2.98291 0
M  V30 923 C 91.8852 -1.69415 3.03634 0
M  V30 924 H 91.2082 -1.26876 3.79134 0
M  V30 925 H 92.6482 -2.28423 3.5721 0
M  V30 926 C 91.1072 -2.61569 2.12328 0
M  V30 927 O 91.6372 -3.63462 1.7105 0
M  V30 928 N 89.8432 -2.29952 1.77681 0
M  V30 929 H 89.3902 -1.47134 2.11446 0
M  V30 930 H 89.3482 -2.91871 1.16869 0
M  V30 931 N 93.1203 -1.57491 0.0584922 0
M  V30 932 C 94.3453 -1.97711 -0.62652 0
M  V30 933 C 94.7703 -0.936132 -1.63151 0
M  V30 934 O 94.1283 0.099811 -1.81025 0
M  V30 935 C 94.1763 -3.36989 -1.28338 0
M  V30 936 O 93.2803 -3.35433 -2.39913 0
M  V30 937 H 92.6213 -0.643868 -0.162266 0
M  V30 938 H 95.1513 -2.04193 0.129064 0
M  V30 939 H 95.1613 -3.73879 -1.63335 0
M  V30 940 H 93.8363 -4.12289 -0.546889 0
M  V30 941 H 92.4133 -3.10298 -2.06809 0
M  V30 942 N 94.5984 0.214957 -1.56127 0
M  V30 943 C 96.0144 0.564948 -1.49267 0
M  V30 944 C 96.2144 1.86827 -0.754838 0
M  V30 945 O 95.2704 2.50745 -0.297198 0
M  V30 946 C 96.5834 0.638071 -2.93852 0
M  V30 947 C 98.1314 0.728253 -3.0441 0
M  V30 948 C 98.6064 0.832663 -4.50367 0
M  V30 949 N 100.097 0.896712 -4.54437 0
M  V30 950 C 100.832 0.997324 -5.6466 0
M  V30 951 N 100.328 1.06147 -6.8462 0
M  V30 952 N 102.121 1.03297 -5.52527 0
M  V30 953 H 94.2724 -0.640211 -2.02522 0
M  V30 954 H 96.5354 -0.225507 -0.920788 0
M  V30 955 H 96.2414 -0.250126 -3.50809 0
M  V30 956 H 96.1154 1.49947 -3.46115 0
M  V30 957 H 98.5024 1.60689 -2.47514 0
M  V30 958 H 98.5834 -0.158952 -2.55306 0
M  V30 959 H 98.2274 -0.0415417 -5.07883 0
M  V30 960 H 98.1574 1.73538 -4.97184 0
M  V30 961 H 100.648 0.857188 -3.6805 0
M  V30 962 H 100.961 1.1382 -7.64372 0
M  V30 963 H 99.3064 1.03049 -6.87318 0
M  V30 964 H 102.497 0.979558 -4.57736 0
M  V30 965 H 102.67 1.10793 -6.38458 0
M  V30 966 N 96.0765 1.50051 0.48192 0
M  V30 967 C 97.0265 1.64512 1.5786 0
M  V30 968 C 98.0105 0.500073 1.52932 0
M  V30 969 O 99.2025 0.753964 1.60139 0
M  V30 970 C 96.3315 1.73263 2.9637 0
M  V30 971 C 95.4175 2.93409 3.06222 0
M  V30 972 N 95.8085 4.17236 2.85915 0
M  V30 973 C 94.1065 2.91742 3.37346 0
M  V30 974 C 94.8075 4.981 3.00451 0
M  V30 975 N 93.7835 4.3184 3.30174 0
M  V30 976 H 97.5855 2.57955 1.40842 0
M  V30 977 H 95.0995 1.47086 0.688439 0
M  V30 978 H 97.0965 1.81724 3.75209 0
M  V30 979 H 95.7565 0.809711 3.14442 0
M  V30 980 H 96.7675 4.46909 2.6171 0
M  V30 981 H 93.4445 2.08907 3.61475 0
M  V30 982 H 94.8345 6.06532 2.89082 0
M  V30 983 N 97.5546 -0.734337 1.39446 0
M  V30 984 C 98.7846 -1.52137 1.39778 0
M  V30 985 C 99.1926 -1.89198 -0.00929312 0
M  V30 986 O 98.5356 -1.54666 -0.991168 0
M  V30 987 C 98.5976 -2.83762 2.20724 0
M  V30 988 C 98.2616 -2.69131 3.69347 0
M  V30 989 C 99.2586 -2.37635 4.62413 0
M  V30 990 C 96.9436 -2.85982 4.1294 0
M  V30 991 C 98.9376 -2.23172 5.97054 0
M  V30 992 C 96.6246 -2.71137 5.47657 0
M  V30 993 C 97.6226 -2.39777 6.39528 0
M  V30 994 O 97.3106 -2.25026 7.71763 0
M  V30 995 H 97.0426 -0.476717 0.479288 0
M  V30 996 H 99.5966 -0.915012 1.83893 0
M  V30 997 H 97.8266 -3.4666 1.71359 0
M  V30 998 H 99.5156 -3.45383 2.13226 0
M  V30 999 H 100.282 -2.24267 4.30034 0
M  V30 1000 H 96.1606 -3.09383 3.41765 0
M  V30 1001 H 99.7046 -1.98617 6.68728 0
M  V30 1002 H 95.6016 -2.84083 5.79626 0
M  V30 1003 H 96.3696 -2.40091 7.82495 0
M  V30 1004 N 99.0327 -1.24633 -0.964593 0
M  V30 1005 C 100.281 -1.08573 -1.70459 0
M  V30 1006 C 100.602 0.375655 -1.91347 0
M  V30 1007 O 99.8717 1.26779 -1.49345 0
M  V30 1008 H 98.4517 -0.398784 -0.631649 0
M  V30 1009 H 101.114 -1.56601 -1.16026 0
M  V30 1010 H 100.21 -1.58623 -2.68785 0
M  V30 1011 N 100.511 1.16574 -1.06058 0
M  V30 1012 C 101.758 1.87047 -0.775873 0
M  V30 1013 C 102.086 1.81562 0.697534 0
M  V30 1014 O 101.341 1.22445 1.52662 0
M  V30 1015 C 101.64 3.36195 -1.21275 0
M  V30 1016 C 101.306 3.6188 -2.68986 0
M  V30 1017 C 99.9678 3.68599 -3.09335 0
M  V30 1018 C 102.32 3.72648 -3.64394 0
M  V30 1019 C 99.6478 3.83584 -4.43937 0
M  V30 1020 C 102 3.89154 -4.98741 0
M  V30 1021 C 100.664 3.94114 -5.3873 0
M  V30 1022 H 99.9338 0.684452 -0.283912 0
M  V30 1023 H 102.581 1.37853 -1.32925 0
M  V30 1024 H 100.886 3.87505 -0.578528 0
M  V30 1025 H 102.583 3.89103 -0.969542 0
M  V30 1026 H 99.1728 3.57281 -2.36744 0
M  V30 1027 H 103.357 3.66769 -3.34356 0
M  V30 1028 H 98.6128 3.85677 -4.74409 0
M  V30 1029 H 102.787 3.96427 -5.72554 0
M  V30 1030 H 100.414 4.05478 -6.43033 0
M  V30 1031 N 101.989 0.842826 1.3317 0
M  V30 1032 C 103.266 0.362216 1.92217 0
M  V30 1033 C 103.646 -1.15289 1.76838 0
M  V30 1034 O 102.994 -1.96914 1.15919 0
M  V30 1035 C 103.204 0.813495 3.39387 0
M  V30 1036 C 104.552 0.823804 4.16532 0
M  V30 1037 O 105.576 0.757358 3.48055 0
M  V30 1038 O 104.435 0.915193 5.38782 0
M  V30 1039 H 101.529 0.103317 0.820521 0
M  V30 1040 H 104.075 0.928942 1.42017 0
M  V30 1041 H 102.847 1.85624 3.4447 0
M  V30 1042 H 102.47 0.223561 3.96971 0
M  V30 1043 N 103.467 -1.45747 0.599634 0
M  V30 1044 C 104.695 -2.06668 0.0978551 0
M  V30 1045 C 105.11 -1.44562 -1.21439 0
M  V30 1046 O 104.467 -0.556923 -1.73795 0
M  V30 1047 C 104.518 -3.61456 -0.0567044 0
M  V30 1048 O 104.239 -4.21242 1.20361 0
M  V30 1049 C 105.74 -4.39345 -0.590869 0
M  V30 1050 H 102.96 -0.667825 0.0651943 0
M  V30 1051 H 105.504 -1.87115 0.82511 0
M  V30 1052 H 103.659 -3.80378 -0.734251 0
M  V30 1053 H 104.073 -5.14323 1.02821 0
M  V30 1054 H 105.547 -5.48182 -0.648131 0
M  V30 1055 H 106.024 -4.08568 -1.61147 0
M  V30 1056 H 106.63 -4.25268 0.0523679 0
M  V30 1057 N 104.945 -0.338344 -1.53925 0
M  V30 1058 C 105.892 0.520845 -2.24846 0
M  V30 1059 C 106.862 1.09976 -1.24477 0
M  V30 1060 O 108.047 1.13735 -1.53196 0
M  V30 1061 C 105.187 1.6685 -3.02084 0
M  V30 1062 C 104.3 1.11739 -4.17299 0
M  V30 1063 C 103.435 2.23193 -4.82036 0
M  V30 1064 C 102.474 1.65407 -5.89328 0
M  V30 1065 N 101.611 2.70582 -6.47866 0
M  V30 1066 H 106.451 -0.0904881 -2.97863 0
M  V30 1067 H 103.988 -0.0564282 -1.46992 0
M  V30 1068 H 105.946 2.34407 -3.45122 0
M  V30 1069 H 104.576 2.2509 -2.31375 0
M  V30 1070 H 103.628 0.332919 -3.7894 0
M  V30 1071 H 104.94 0.654677 -4.94485 0
M  V30 1072 H 104.094 2.98626 -5.28117 0
M  V30 1073 H 102.833 2.72807 -4.04262 0
M  V30 1074 H 101.838 0.884779 -5.42634 0
M  V30 1075 H 103.063 1.16652 -6.69006 0
M  V30 1076 H 101.009 3.1946 -5.72959 0
M  V30 1077 H 100.926 2.28917 -7.20509 0
M  V30 1078 H 102.194 3.45799 -6.98601 0
M  V30 1079 N 106.423 1.57458 -0.0668435 0
M  V30 1080 C 107.67 1.93301 0.603406 0
M  V30 1081 C 107.998 0.946486 1.69917 0
M  V30 1082 O 107.253 -0.0387021 1.95662 0
M  V30 1083 C 107.552 3.35784 1.22409 0
M  V30 1084 C 107.218 4.50179 0.254955 0
M  V30 1085 C 105.88 4.81199 -0.0116746 0
M  V30 1086 C 108.232 5.19598 -0.408338 0
M  V30 1087 C 105.56 5.78978 -0.94877 0
M  V30 1088 C 107.912 6.18381 -1.33372 0
M  V30 1089 C 106.576 6.47821 -1.60887 0
M  V30 1090 H 105.846 0.707338 0.220802 0
M  V30 1091 H 108.493 1.91012 -0.136665 0
M  V30 1092 H 106.798 3.34515 2.03978 0
M  V30 1093 H 108.495 3.60804 1.74989 0
M  V30 1094 H 105.085 4.25983 0.472954 0
M  V30 1095 H 109.269 4.95832 -0.215456 0
M  V30 1096 H 104.525 6.00115 -1.16925 0
M  V30 1097 H 108.699 6.71277 -1.85367 0
M  V30 1098 H 106.326 7.23399 -2.33661 0
M  V30 1099 N 107.901 -0.206675 1.56239 0
M  V30 1100 C 109.126 -0.949474 1.8439 0
M  V30 1101 C 109.551 -1.76549 0.649016 0
M  V30 1102 O 108.909 -1.76782 -0.402231 0
M  V30 1103 C 108.957 -1.83078 3.10668 0
M  V30 1104 O 108.061 -2.9281 2.90407 0
M  V30 1105 H 107.402 -0.268033 0.607499 0
M  V30 1106 H 109.932 -0.215488 2.03462 0
M  V30 1107 H 109.942 -2.2377 3.41161 0
M  V30 1108 H 108.617 -1.23112 3.97261 0
M  V30 1109 H 107.194 -2.55956 2.71184 0
M  V30 1110 N 109.379 -1.50304 -0.473955 0
M  V30 1111 C 110.626 -1.6115 -1.22625 0
M  V30 1112 C 110.954 -0.310517 -1.92005 0
M  V30 1113 O 110.209 0.703419 -1.82621 0
M  V30 1114 C 110.508 -2.73938 -2.29549 0
M  V30 1115 C 110.174 -4.14519 -1.7744 0
M  V30 1116 C 108.836 -4.5277 -1.62949 0
M  V30 1117 C 111.188 -5.02392 -1.3875 0
M  V30 1118 C 108.516 -5.76639 -1.08187 0
M  V30 1119 C 110.868 -6.26805 -0.854309 0
M  V30 1120 C 109.532 -6.63861 -0.696011 0
M  V30 1121 H 108.802 -0.589691 -0.448715 0
M  V30 1122 H 111.449 -1.84228 -0.522705 0
M  V30 1123 H 109.754 -2.44937 -3.05799 0
M  V30 1124 H 111.451 -2.79534 -2.87509 0
M  V30 1125 H 108.041 -3.8434 -1.89685 0
M  V30 1126 H 112.225 -4.73474 -1.4878 0
M  V30 1127 H 107.481 -6.04027 -0.946666 0
M  V30 1128 H 111.655 -6.94258 -0.545843 0
M  V30 1129 H 109.282 -7.59722 -0.26952 0
M  V30 1130 N 110.857 0.726932 -1.39834 0
M  V30 1131 C 111.805 1.86235 -1.39353 0
M  V30 1132 C 112.799 1.67144 -0.275555 0
M  V30 1133 O 114.005 1.74387 -0.44601 0
M  V30 1134 H 110.38 0.613174 -0.43534 0
M  V30 1135 H 112.351 1.83756 -2.35109 0
M  V30 1136 C 111.1 3.23995 -1.26185 0
M  V30 1137 H 110.423 3.39285 -2.11484 0
M  V30 1138 H 111.863 4.03609 -1.29907 0
M  V30 1139 C 110.322 3.36888 0.0290018 0
M  V30 1140 O 110.852 3.89152 0.99619 0
M  V30 1141 N 109.058 2.90446 0.0947437 0
M  V30 1142 H 108.605 2.48102 -0.693035 0
M  V30 1143 H 108.563 2.99451 0.957932 0
M  V30 1144 N 112.336 1.25143 0.95797 0
M  V30 1145 C 113.266 1.07711 2.07173 0
M  V30 1146 C 114.247 -0.0128462 1.70095 0
M  V30 1147 O 115.432 0.156061 1.93572 0
M  V30 1148 C 112.562 0.691503 3.40346 0
M  V30 1149 C 111.516 1.73132 3.9142 0
M  V30 1150 C 110.842 1.20049 5.21049 0
M  V30 1151 C 112.142 3.1294 4.1817 0
M  V30 1152 H 113.836 2.00873 2.22014 0
M  V30 1153 H 111.382 0.967191 1.06684 0
M  V30 1154 H 113.335 0.556505 4.17709 0
M  V30 1155 H 112.059 -0.275819 3.25433 0
M  V30 1156 H 110.718 1.8547 3.16222 0
M  V30 1157 H 110.366 0.223499 5.02503 0
M  V30 1158 H 110.066 1.89545 5.56189 0
M  V30 1159 H 111.59 1.07782 6.01012 0
M  V30 1160 H 113.004 3.03775 4.86203 0
M  V30 1161 H 111.401 3.79875 4.64559 0
M  V30 1162 H 112.471 3.6025 3.24573 0
M  V30 1163 N 113.814 -1.1601 1.06675 0
M  V30 1164 C 115.225 -1.68235 0.809565 0
M  V30 1165 C 115.576 -1.8454 -0.666303 0
M  V30 1166 O 114.701 -1.54374 -1.5165 0
M  V30 1167 C 115.296 -3.05585 1.46299 0
M  V30 1168 C 113.855 -3.54915 1.25349 0
M  V30 1169 C 113.002 -2.30804 1.53703 0
M  V30 1170 H 115.953 -1.00318 1.22971 0
M  V30 1171 H 115.974 -3.70174 0.880431 0
M  V30 1172 H 115.486 -2.93686 2.53713 0
M  V30 1173 H 113.587 -3.72067 0.199261 0
M  V30 1174 H 113.7 -4.36774 1.9689 0
M  V30 1175 H 112.064 -2.36007 0.957739 0
M  V30 1176 H 112.847 -2.21499 2.62284 0
M  V30 1177 N 115.292 -0.849877 -1.32721 0
M  V30 1178 C 116.222 -0.306308 -2.31482 0
M  V30 1179 C 117.203 0.591952 -1.59468 0
M  V30 1180 O 118.388 0.513199 -1.87296 0
M  V30 1181 C 115.518 0.510204 -3.43532 0
M  V30 1182 C 114.472 -0.293209 -4.26994 0
M  V30 1183 C 113.798 0.647743 -5.30762 0
M  V30 1184 C 115.098 -1.51634 -4.99804 0
M  V30 1185 H 116.792 -1.13153 -2.77195 0
M  V30 1186 H 114.338 -0.545553 -1.33266 0
M  V30 1187 H 116.291 0.900856 -4.11658 0
M  V30 1188 H 115.015 1.36874 -2.96535 0
M  V30 1189 H 113.674 -0.665555 -3.60508 0
M  V30 1190 H 113.322 1.50299 -4.8002 0
M  V30 1191 H 113.022 0.11422 -5.87489 0
M  V30 1192 H 114.546 1.03567 -6.01753 0
M  V30 1193 H 115.96 -1.19824 -5.60638 0
M  V30 1194 H 114.357 -1.98745 -5.66234 0
M  V30 1195 H 115.427 -2.28018 -4.27943 0
M  V30 1196 N 116.77 1.45427 -0.607355 0
M  V30 1197 C 117.7 2.3329 0.0989352 0
M  V30 1198 C 118.681 1.46816 0.859007 0
M  V30 1199 O 119.866 1.75588 0.829604 0
M  V30 1200 C 116.996 3.29518 1.09705 0
M  V30 1201 C 115.95 4.25626 0.450206 0
M  V30 1202 C 115.276 5.11542 1.55655 0
M  V30 1203 C 116.576 5.18505 -0.628455 0
M  V30 1204 H 118.27 2.92595 -0.634716 0
M  V30 1205 H 115.816 1.40696 -0.306681 0
M  V30 1206 H 117.769 3.89855 1.59971 0
M  V30 1207 H 116.493 2.68372 1.86129 0
M  V30 1208 H 115.152 3.66586 -0.0315886 0
M  V30 1209 H 114.8 4.46765 2.31107 0
M  V30 1210 H 114.5 5.76647 1.12925 0
M  V30 1211 H 116.024 5.74748 2.06148 0
M  V30 1212 H 117.438 5.72916 -0.209877 0
M  V30 1213 H 115.835 5.92085 -0.977489 0
M  V30 1214 H 116.905 4.60948 -1.50514 0
M  V30 1215 N 118.248 0.346503 1.53744 0
M  V30 1216 C 119.494 -0.249473 2.0126 0
M  V30 1217 C 119.827 -1.49965 1.23386 0
M  V30 1218 O 119.102 -1.91811 0.32229 0
M  V30 1219 C 119.385 -0.560643 3.55709 0
M  V30 1220 C 119.238 0.701836 4.44291 0
M  V30 1221 C 120.557 -1.36905 4.18264 0
M  V30 1222 H 117.676 -0.0891987 0.731582 0
M  V30 1223 H 120.318 0.467624 1.84156 0
M  V30 1224 H 118.468 -1.17156 3.70414 0
M  V30 1225 H 120.14 1.33974 4.41417 0
M  V30 1226 H 118.383 1.32612 4.13033 0
M  V30 1227 H 119.054 0.43933 5.50249 0
M  V30 1228 H 121.53 -0.852448 4.07275 0
M  V30 1229 H 120.406 -1.55553 5.26398 0
M  V30 1230 H 120.667 -2.37203 3.73078 0
M  V30 1231 N 119.726 -1.57421 0.075193 0
M  V30 1232 C 120.636 -2.1642 -0.905511 0
M  V30 1233 C 121.652 -1.12828 -1.32461 0
M  V30 1234 O 122.828 -1.45109 -1.39661 0
M  V30 1235 C 119.893 -2.71693 -2.15369 0
M  V30 1236 C 118.954 -3.90171 -1.79068 0
M  V30 1237 C 118.187 -4.42798 -2.97936 0
M  V30 1238 O 118.41 -3.94416 -4.12058 0
M  V30 1239 O 117.344 -5.34085 -2.77555 0
M  V30 1240 H 121.17 -3.00588 -0.433626 0
M  V30 1241 H 118.755 -1.48664 -0.148067 0
M  V30 1242 H 120.637 -3.07104 -2.88557 0
M  V30 1243 H 119.312 -1.90582 -2.61649 0
M  V30 1244 H 118.219 -3.59606 -1.03122 0
M  V30 1245 H 119.552 -4.72584 -1.37569 0
M  V30 1246 N 121.204 0.198386 -1.56346 0
M  V30 1247 C 122.62 0.549085 -1.49857 0
M  V30 1248 C 122.82 1.86016 -0.774611 0
M  V30 1249 O 121.876 2.50416 -0.323776 0
M  V30 1250 C 123.189 0.606868 -2.94512 0
M  V30 1251 C 124.737 0.695925 -3.05165 0
M  V30 1252 C 125.212 0.784848 -4.51225 0
M  V30 1253 N 126.703 0.848463 -4.55363 0
M  V30 1254 C 127.438 0.937378 -5.65686 0
M  V30 1255 N 126.934 0.9888 -6.85707 0
M  V30 1256 N 128.727 0.974312 -5.53592 0
M  V30 1257 H 120.878 -0.661655 -2.01831 0
M  V30 1258 H 123.141 -0.235261 -0.918344 0
M  V30 1259 H 122.847 -0.28732 -3.50524 0
M  V30 1260 H 122.721 1.46268 -3.47686 0
M  V30 1261 H 125.108 1.58055 -2.49204 0
M  V30 1262 H 125.189 -0.186022 -2.55123 0
M  V30 1263 H 124.833 -0.0954072 -5.0781 0
M  V30 1264 H 124.763 1.68255 -4.98997 0
M  V30 1265 H 127.254 0.818103 -3.68938 0
M  V30 1266 H 127.567 1.05707 -7.65536 0
M  V30 1267 H 125.912 0.957534 -6.88372 0
M  V30 1268 H 129.103 0.930954 -4.58749 0
M  V30 1269 H 129.276 1.04015 -6.39597 0
M  V30 1270 N 122.682 1.50554 0.465978 0
M  V30 1271 C 124.098 1.38093 0.800154 0
M  V30 1272 C 124.298 0.440988 1.96615 0
M  V30 1273 O 123.354 -0.114499 2.5224 0
M  V30 1274 C 124.667 2.79565 1.10742 0
M  V30 1275 C 126.215 2.88516 1.21357 0
M  V30 1276 C 126.69 4.30833 1.55393 0
M  V30 1277 N 128.181 4.33807 1.62375 0
M  V30 1278 C 128.916 5.40927 1.90225 0
M  V30 1279 N 128.412 6.58247 2.16062 0
M  V30 1280 N 130.205 5.28376 1.9177 0
M  V30 1281 H 122.356 2.10237 -0.302366 0
M  V30 1282 H 124.619 0.945203 -0.0727746 0
M  V30 1283 H 124.325 3.50208 0.323661 0
M  V30 1284 H 124.199 3.17125 2.04234 0
M  V30 1285 H 126.586 2.1809 1.98799 0
M  V30 1286 H 126.667 2.54492 0.258321 0
M  V30 1287 H 126.311 5.01799 0.784889 0
M  V30 1288 H 126.241 4.62347 2.52076 0
M  V30 1289 H 128.732 3.49212 1.44427 0
M  V30 1290 H 129.045 7.3569 2.36601 0
M  V30 1291 H 127.39 6.61413 2.13444 0
M  V30 1292 H 130.581 4.35715 1.71085 0
M  V30 1293 H 130.754 6.11944 2.13139 0
M  V30 1294 N 124.16 -0.719506 1.40217 0
M  V30 1295 C 125.437 -1.47221 1.28784 0
M  V30 1296 C 125.817 -2.10883 -0.0956067 0
M  V30 1297 O 125.165 -1.99833 -1.10811 0
M  V30 1298 C 125.375 -2.5111 2.42373 0
M  V30 1299 C 126.723 -3.17053 2.82423 0
M  V30 1300 O 127.747 -2.61429 2.41937 0
M  V30 1301 O 126.606 -4.17742 3.52355 0
M  V30 1302 H 123.7 -0.654491 0.50554 0
M  V30 1303 H 126.246 -0.752014 1.52128 0
M  V30 1304 H 125.018 -2.02556 3.34793 0
M  V30 1305 H 124.641 -3.3067 2.20778 0
M  V30 1306 N 125.638 -1.25649 -0.95132 0
M  V30 1307 C 126.585 -1.06323 -2.04851 0
M  V30 1308 C 127.555 0.0286491 -1.66075 0
M  V30 1309 O 128.74 -0.12917 -1.90362 0
M  V30 1310 C 125.88 -0.691529 -3.381 0
M  V30 1311 C 124.993 -1.85861 -3.89974 0
M  V30 1312 C 124.128 -1.43096 -5.11563 0
M  V30 1313 C 123.167 -2.56696 -5.55674 0
M  V30 1314 N 122.304 -2.14684 -6.68472 0
M  V30 1315 H 127.144 -2.00222 -2.20715 0
M  V30 1316 H 124.681 -0.997027 -1.08156 0
M  V30 1317 H 126.639 -0.456963 -4.1469 0
M  V30 1318 H 125.269 0.210474 -3.22113 0
M  V30 1319 H 124.321 -2.20639 -3.09875 0
M  V30 1320 H 125.633 -2.71161 -4.18657 0
M  V30 1321 H 124.787 -1.15624 -5.9558 0
M  V30 1322 H 123.526 -0.548722 -4.84603 0
M  V30 1323 H 122.531 -2.84909 -4.7022 0
M  V30 1324 H 123.756 -3.45503 -5.8464 0
M  V30 1325 H 121.702 -1.28881 -6.43215 0
M  V30 1326 H 121.619 -2.9353 -6.96689 0
M  V30 1327 H 122.887 -1.90397 -7.5589 0
M  V30 1328 N 127.117 1.15442 -1.07289 0
M  V30 1329 C 128.347 1.89821 -0.815576 0
M  V30 1330 C 128.755 1.7823 0.634867 0
M  V30 1331 O 128.098 1.13152 1.44715 0
M  V30 1332 C 128.16 3.40817 -1.14385 0
M  V30 1333 C 127.824 3.76193 -2.59476 0
M  V30 1334 C 128.821 3.77269 -3.57721 0
M  V30 1335 C 126.506 4.0652 -2.95037 0
M  V30 1336 C 128.5 4.08176 -4.89562 0
M  V30 1337 C 126.187 4.37092 -4.27076 0
M  V30 1338 C 127.185 4.37902 -5.24148 0
M  V30 1339 O 126.873 4.67741 -6.53815 0
M  V30 1340 H 126.605 0.608465 -0.294528 0
M  V30 1341 H 129.159 1.472 -1.43252 0
M  V30 1342 H 127.389 3.83835 -0.469865 0
M  V30 1343 H 129.078 3.96485 -0.869179 0
M  V30 1344 H 129.844 3.5394 -3.3159 0
M  V30 1345 H 125.723 4.05049 -2.20128 0
M  V30 1346 H 129.267 4.08723 -5.65324 0
M  V30 1347 H 125.164 4.59889 -4.5296 0
M  V30 1348 H 125.932 4.85509 -6.58957 0
M  V30 1349 N 128.595 0.856903 1.32268 0
M  V30 1350 C 129.844 0.457599 1.96441 0
M  V30 1351 C 130.157 -0.992426 1.68553 0
M  V30 1352 O 131.363 -1.49727 2.26482 0
M  V30 1353 C 129.819 0.767358 3.51624 0
M  V30 1354 C 129.427 2.23326 3.88367 0
M  V30 1355 C 131.171 0.435887 4.22256 0
M  V30 1356 C 129.078 2.48613 5.36606 0
M  V30 1357 H 128.008 0.167387 0.735185 0
M  V30 1358 H 130.659 1.048 1.5063 0
M  V30 1359 H 129.041 0.106367 3.95857 0
M  V30 1360 H 130.215 2.93623 3.55137 0
M  V30 1361 H 128.53 2.52948 3.30766 0
M  V30 1362 H 131.127 0.602202 5.31298 0
M  V30 1363 H 131.47 -0.622672 4.11617 0
M  V30 1364 H 132.003 1.05286 3.83614 0
M  V30 1365 H 128.742 3.53101 5.52268 0
M  V30 1366 H 128.262 1.82896 5.71235 0
M  V30 1367 H 129.941 2.32676 6.03714 0
M  V30 1368 N 130.073 -1.45103 0.615059 0
M  V30 1369 C 131.005 -2.28786 -0.13762 0
M  V30 1370 C 132.018 -1.40376 -0.824525 0
M  V30 1371 O 133.207 -1.64681 -0.688662 0
M  V30 1372 C 130.307 -3.16322 -1.21628 0
M  V30 1373 C 129.48 -4.33054 -0.615039 0
M  V30 1374 C 128.539 -5.01743 -1.58556 0
M  V30 1375 O 127.565 -5.58293 -1.10895 0
M  V30 1376 N 128.767 -5.01714 -2.91998 0
M  V30 1377 H 131.532 -2.94025 0.580483 0
M  V30 1378 H 129.093 -1.55373 0.45507 0
M  V30 1379 H 131.085 -3.59139 -1.86552 0
M  V30 1380 H 129.655 -2.52943 -1.83681 0
M  V30 1381 H 128.875 -3.93627 0.21245 0
M  V30 1382 H 130.163 -5.08431 -0.193704 0
M  V30 1383 H 129.561 -4.57075 -3.33316 0
M  V30 1384 H 128.118 -5.48371 -3.52325 0
M  V30 1385 N 131.551 -0.354651 -1.53558 0
M  V30 1386 C 132.967 -0.00315426 -1.596 0
M  V30 1387 C 133.167 1.47741 -1.37021 0
M  V30 1388 O 132.223 2.23759 -1.16996 0
M  V30 1389 C 133.536 -0.44929 -2.97325 0
M  V30 1390 C 135.084 -0.402578 -3.104 0
M  V30 1391 C 135.559 -0.824355 -4.5052 0
M  V30 1392 N 137.05 -0.778979 -4.56603 0
M  V30 1393 C 137.785 -1.07715 -5.63192 0
M  V30 1394 N 137.281 -1.44405 -6.77583 0
M  V30 1395 N 139.074 -1.00066 -5.53121 0
M  V30 1396 H 131.225 -1.31893 -1.66487 0
M  V30 1397 H 133.488 -0.538388 -0.780284 0
M  V30 1398 H 133.194 -1.48202 -3.1895 0
M  V30 1399 H 133.068 0.169772 -3.76818 0
M  V30 1400 H 135.455 0.621004 -2.88492 0
M  V30 1401 H 135.536 -1.05699 -2.32941 0
M  V30 1402 H 135.18 -1.846 -4.73165 0
M  V30 1403 H 135.11 -0.147304 -5.26394 0
M  V30 1404 H 137.601 -0.508528 -3.74463 0
M  V30 1405 H 137.914 -1.65612 -7.54846 0
M  V30 1406 H 136.259 -1.4826 -6.79002 0
M  V30 1407 H 139.45 -0.713293 -4.62633 0
M  V30 1408 H 139.623 -1.23638 -6.36096 0
M  V30 1409 N 133.029 1.57378 -0.0835403 0
M  V30 1410 C 133.959 2.1641 0.87686 0
M  V30 1411 C 134.94 1.09429 1.30228 0
M  V30 1412 O 136.125 1.37516 1.37124 0
M  V30 1413 C 133.255 2.73517 2.14022 0
M  V30 1414 C 132.209 3.85769 1.85381 0
M  V30 1415 C 131.535 4.29529 3.18448 0
M  V30 1416 C 132.835 5.09486 1.14984 0
M  V30 1417 H 134.529 2.96914 0.385059 0
M  V30 1418 H 132.075 1.42823 0.18377 0
M  V30 1419 H 134.028 3.13463 2.81636 0
M  V30 1420 H 132.752 1.90252 2.65465 0
M  V30 1421 H 131.411 3.46345 1.20169 0
M  V30 1422 H 131.059 3.43169 3.67755 0
M  V30 1423 H 130.759 5.05204 3.00071 0
M  V30 1424 H 132.283 4.72099 3.8724 0
M  V30 1425 H 133.697 5.46674 1.72687 0
M  V30 1426 H 132.094 5.90515 1.06826 0
M  V30 1427 H 133.164 4.84724 0.130749 0
M  V30 1428 N 134.507 -0.190092 1.56449 0
M  V30 1429 C 135.455 -1.25501 1.95837 0
M  V30 1430 C 136.449 -1.4685 0.844485 0
M  V30 1431 O 137.655 -1.47651 1.02952 0
M  V30 1432 H 134.03 -0.421447 0.622805 0
M  V30 1433 H 136.001 -0.895821 2.84636 0
M  V30 1434 C 134.75 -2.59124 2.31841 0
M  V30 1435 H 134.073 -2.43514 3.17082 0
M  V30 1436 H 135.513 -3.32371 2.6326 0
M  V30 1437 C 133.972 -3.16488 1.15486 0
M  V30 1438 O 134.502 -3.99365 0.432535 0
M  V30 1439 N 132.708 -2.75305 0.930349 0
M  V30 1440 H 132.255 -2.08013 1.51948 0
M  V30 1441 H 132.213 -3.14024 0.153634 0
M  V30 1442 N 135.985 -1.50799 -0.457987 0
M  V30 1443 C 136.933 -1.71162 -1.575 0
M  V30 1444 C 137.927 -0.577592 -1.59249 0
M  V30 1445 O 139.133 -0.758443 -1.63241 0
M  V30 1446 H 135.508 -0.540468 -0.522875 0
M  V30 1447 H 137.479 -2.64837 -1.37492 0
M  V30 1448 C 136.228 -1.83496 -2.95338 0
M  V30 1449 H 135.551 -2.70153 -2.94716 0
M  V30 1450 H 136.991 -2.01765 -3.72917 0
M  V30 1451 C 135.45 -0.589694 -3.31699 0
M  V30 1452 O 135.98 0.265163 -4.00824 0
M  V30 1453 N 134.186 -0.439845 -2.87252 0
M  V30 1454 H 133.733 -1.13655 -2.31172 0
M  V30 1455 H 133.691 0.392159 -3.11945 0
M  V30 1456 N 137.463 0.71206 -1.40597 0
M  V30 1457 C 138.712 1.46754 -1.38369 0
M  V30 1458 C 139.025 1.95598 0.0097839 0
M  V30 1459 O 140.231 2.71059 0.154677 0
M  V30 1460 C 138.687 2.65289 -2.43207 0
M  V30 1461 C 138.295 2.23301 -3.88382 0
M  V30 1462 C 140.039 3.43008 -2.50091 0
M  V30 1463 C 137.946 3.38696 -4.84808 0
M  V30 1464 H 136.876 0.55118 -0.514506 0
M  V30 1465 H 139.527 0.774616 -1.66349 0
M  V30 1466 H 137.909 3.36769 -2.08332 0
M  V30 1467 H 139.083 1.59218 -4.32419 0
M  V30 1468 H 137.398 1.58618 -3.85006 0
M  V30 1469 H 139.995 4.28881 -3.1932 0
M  V30 1470 H 140.338 3.87065 -1.53253 0
M  V30 1471 H 140.871 2.78574 -2.83974 0
M  V30 1472 H 137.61 2.99668 -5.82992 0
M  V30 1473 H 137.13 4.01683 -4.45433 0
M  V30 1474 H 138.809 4.04712 -5.04794 0
M  V30 1475 N 138.941 1.26152 0.944643 0
M  V30 1476 C 140.171 1.14094 1.72239 0
M  V30 1477 C 140.579 -0.306931 1.86694 0
M  V30 1478 O 139.922 -1.22222 1.3714 0
M  V30 1479 C 139.984 1.73316 3.14963 0
M  V30 1480 C 139.648 3.2239 3.23904 0
M  V30 1481 C 140.645 4.19252 3.07447 0
M  V30 1482 C 138.33 3.62788 3.47405 0
M  V30 1483 C 140.324 5.54491 3.14353 0
M  V30 1484 C 138.011 4.98162 3.53947 0
M  V30 1485 C 139.009 5.93823 3.37436 0
M  V30 1486 O 138.697 7.26732 3.43679 0
M  V30 1487 H 138.429 0.398292 0.546205 0
M  V30 1488 H 140.983 1.67201 1.19301 0
M  V30 1489 H 139.213 1.14667 3.69308 0
M  V30 1490 H 140.902 1.56214 3.74636 0
M  V30 1491 H 141.668 3.8938 2.8915 0
M  V30 1492 H 137.547 2.88816 3.59313 0
M  V30 1493 H 141.091 6.29137 3.01384 0
M  V30 1494 H 136.988 5.27695 3.71763 0
M  V30 1495 H 137.756 7.3496 3.60245 0
M  V30 1496 N 140.419 -1.14872 1.07899 0
M  V30 1497 C 141.835 -1.37776 0.805606 0
M  V30 1498 C 142.035 -1.92743 -0.587555 0
M  V30 1499 O 141.091 -2.13678 -1.34528 0
M  V30 1500 C 142.404 -2.34361 1.88402 0
M  V30 1501 C 143.952 -2.48012 1.90942 0
M  V30 1502 C 144.427 -3.47893 2.97883 0
M  V30 1503 N 145.918 -3.55433 2.97021 0
M  V30 1504 C 146.653 -4.32553 3.76412 0
M  V30 1505 N 146.149 -5.12959 4.65666 0
M  V30 1506 N 147.942 -4.27697 3.64735 0
M  V30 1507 H 140.093 -0.775365 1.97742 0
M  V30 1508 H 142.356 -0.403521 0.857831 0
M  V30 1509 H 142.062 -2.01098 2.88535 0
M  V30 1510 H 141.936 -3.34206 1.74889 0
M  V30 1511 H 144.323 -2.8057 0.914579 0
M  V30 1512 H 144.404 -1.48147 2.08534 0
M  V30 1513 H 144.048 -3.16069 3.97571 0
M  V30 1514 H 143.978 -4.47527 2.77538 0
M  V30 1515 H 146.469 -2.98048 2.32326 0
M  V30 1516 H 146.782 -5.69065 5.22862 0
M  V30 1517 H 145.127 -5.12245 4.69712 0
M  V30 1518 H 148.318 -3.63949 2.94378 0
M  V30 1519 H 148.491 -4.8755 4.26848 0
M  V30 1520 N 141.898 -0.863906 -1.31812 0
M  V30 1521 C 142.83 -0.272485 -2.27575 0
M  V30 1522 C 143.843 0.56104 -1.52827 0
M  V30 1523 O 145.032 0.384021 -1.7432 0
M  V30 1524 C 142.132 0.63283 -3.32939 0
M  V30 1525 C 141.305 -0.166902 -4.37081 0
M  V30 1526 C 140.364 0.665608 -5.21973 0
M  V30 1527 O 139.39 0.0958091 -5.69119 0
M  V30 1528 N 140.592 1.9787 -5.45736 0
M  V30 1529 H 143.357 -1.0954 -2.78964 0
M  V30 1530 H 140.918 -0.724791 -1.4477 0
M  V30 1531 H 142.91 1.19532 -3.86645 0
M  V30 1532 H 141.48 1.35642 -2.81638 0
M  V30 1533 H 140.7 -0.910838 -3.83533 0
M  V30 1534 H 141.988 -0.715874 -5.03739 0
M  V30 1535 H 141.386 2.46484 -5.09178 0
M  V30 1536 H 139.943 2.48911 -6.024 0
M  V30 1537 N 143.376 1.44774 -0.622745 0
M  V30 1538 C 144.324 2.32387 0.0994683 0
M  V30 1539 C 145.318 1.46859 0.844326 0
M  V30 1540 O 146.524 1.63254 0.758174 0
M  V30 1541 H 142.899 0.750273 0.0509291 0
M  V30 1542 H 144.87 2.91062 -0.65767 0
M  V30 1543 C 143.619 3.30723 1.07319 0
M  V30 1544 H 142.942 3.96541 0.509462 0
M  V30 1545 H 144.382 3.94725 1.54817 0
M  V30 1546 C 142.841 2.59021 2.15429 0
M  V30 1547 O 143.371 2.38286 3.23393 0
M  V30 1548 N 141.577 2.189 1.91131 0
M  V30 1549 H 141.124 2.35964 1.03337 0
M  V30 1550 H 141.082 1.71251 2.63668 0
M  V30 1551 N 144.854 0.36279 1.53368 0
M  V30 1552 C 145.784 -0.476976 2.28576 0
M  V30 1553 C 146.765 -1.08631 1.30894 0
M  V30 1554 O 147.95 -1.10409 1.59761 0
M  V30 1555 C 145.08 -1.61828 3.07293 0
M  V30 1556 C 144.034 -1.13633 4.1264 0
M  V30 1557 C 143.36 -2.36766 4.79423 0
M  V30 1558 C 144.66 -0.223061 5.21823 0
M  V30 1559 H 146.354 0.150474 2.99022 0
M  V30 1560 H 143.9 0.0738103 1.43811 0
M  V30 1561 H 145.853 -2.21237 3.58653 0
M  V30 1562 H 144.577 -2.27292 2.34533 0
M  V30 1563 H 143.236 -0.564945 3.62221 0
M  V30 1564 H 142.884 -3.0068 4.03238 0
M  V30 1565 H 142.584 -2.05192 5.50609 0
M  V30 1566 H 144.108 -2.96865 5.33576 0
M  V30 1567 H 145.522 -0.724545 5.68703 0
M  V30 1568 H 143.919 0.001678 6.001 0
M  V30 1569 H 144.989 0.735553 4.79289 0
M  V30 1570 N 146.332 -1.57332 0.0918853 0
M  V30 1571 C 147.557 -1.98995 -0.584442 0
M  V30 1572 C 147.982 -0.970528 -1.61128 0
M  V30 1573 O 147.34 0.0613904 -1.81196 0
M  V30 1574 C 147.388 -3.39636 -1.21161 0
M  V30 1575 O 146.492 -3.40447 -2.32744 0
M  V30 1576 H 145.833 -0.647165 -0.148572 0
M  V30 1577 H 148.363 -2.03873 0.172347 0
M  V30 1578 H 148.373 -3.7726 -1.55367 0
M  V30 1579 H 147.048 -4.13356 -0.459313 0
M  V30 1580 H 145.625 -3.14614 -2.0018 0
M  V30 1581 N 147.81 0.181792 -1.56548 0
M  V30 1582 C 148.757 1.22521 -1.95595 0
M  V30 1583 C 149.727 1.4454 -0.818373 0
M  V30 1584 O 150.912 1.57454 -1.07763 0
M  V30 1585 C 148.052 2.56193 -2.31212 0
M  V30 1586 C 147.165 2.41641 -3.58097 0
M  V30 1587 C 146.3 3.68108 -3.82975 0
M  V30 1588 C 145.339 3.48445 -5.03242 0
M  V30 1589 N 144.476 4.66956 -5.24306 0
M  V30 1590 H 149.316 0.885226 -2.84548 0
M  V30 1591 H 146.853 0.425718 -1.40805 0
M  V30 1592 H 148.811 3.34088 -2.49882 0
M  V30 1593 H 147.441 2.88208 -1.45382 0
M  V30 1594 H 146.493 1.54976 -3.474 0
M  V30 1595 H 147.805 2.23052 -4.46149 0
M  V30 1596 H 146.959 4.54441 -4.01956 0
M  V30 1597 H 145.698 3.89666 -2.93278 0
M  V30 1598 H 144.703 2.60499 -4.8417 0
M  V30 1599 H 145.928 3.2832 -5.9446 0
M  V30 1600 H 143.874 4.88752 -4.37559 0
M  V30 1601 H 143.791 4.51242 -6.06561 0
M  V30 1602 H 145.059 5.54602 -5.47756 0
M  V30 1603 N 149.288 1.51039 0.449983 0
M  V30 1604 C 150.565 1.53612 1.21089 0
M  V30 1605 C 150.945 0.292997 2.09057 0
M  V30 1606 O 150.293 -0.72259 2.16774 0
M  V30 1607 C 150.503 2.84337 2.0237 0
M  V30 1608 C 151.851 3.35807 2.59843 0
M  V30 1609 O 152.875 2.85802 2.12593 0
M  V30 1610 O 151.734 4.23029 3.45989 0
M  V30 1611 H 148.828 0.617057 0.550608 0
M  V30 1612 H 151.374 1.63344 0.460082 0
M  V30 1613 H 150.146 3.66278 1.37681 0
M  V30 1614 H 149.769 2.77708 2.84542 0
M  V30 1615 N 150.766 -0.704594 1.40972 0
M  V30 1616 C 151.713 -1.81862 1.42109 0
M  V30 1617 C 152.683 -1.63781 0.276593 0
M  V30 1618 O 153.868 -1.84759 0.4763 0
M  V30 1619 C 151.008 -3.19669 1.30022 0
M  V30 1620 C 150.121 -3.49246 2.54267 0
M  V30 1621 C 149.256 -4.76618 2.3454 0
M  V30 1622 C 148.295 -4.99133 3.54306 0
M  V30 1623 N 147.432 -6.17726 3.33706 0
M  V30 1624 H 152.272 -1.80226 2.37324 0
M  V30 1625 H 149.809 -0.880238 1.17857 0
M  V30 1626 H 151.767 -3.99263 1.21018 0
M  V30 1627 H 150.397 -3.20506 0.384192 0
M  V30 1628 H 149.449 -2.64125 2.73756 0
M  V30 1629 H 150.761 -3.61788 3.43381 0
M  V30 1630 H 149.915 -5.64249 2.22952 0
M  V30 1631 H 148.654 -4.66305 1.42867 0
M  V30 1632 H 147.659 -4.09953 3.66359 0
M  V30 1633 H 148.884 -5.11311 4.4692 0
M  V30 1634 H 146.83 -6.08642 2.44725 0
M  V30 1635 H 146.747 -6.30995 4.16391 0
M  V30 1636 H 148.015 -7.08115 3.25873 0
M  V30 1637 N 152.244 -1.26651 -0.937939 0
M  V30 1638 C 153.49 -1.12553 -1.687 0
M  V30 1639 C 153.823 0.329782 -1.91379 0
M  V30 1640 O 153.098 1.24202 -1.4968 0
M  V30 1641 C 153.381 -1.89862 -3.05981 0
M  V30 1642 C 153.234 -3.43318 -2.90607 0
M  V30 1643 C 154.553 -1.69499 -4.0615 0
M  V30 1644 H 151.672 -0.410257 -0.612257 0
M  V30 1645 H 154.314 -1.55685 -1.08913 0
M  V30 1646 H 152.464 -1.53204 -3.57017 0
M  V30 1647 H 154.136 -3.89747 -2.46769 0
M  V30 1648 H 152.379 -3.70179 -2.26164 0
M  V30 1649 H 153.05 -3.92642 -3.8799 0
M  V30 1650 H 155.526 -2.01442 -3.64088 0
M  V30 1651 H 154.402 -2.26002 -5.00214 0
M  V30 1652 H 154.663 -0.640365 -4.37438 0
M  V30 1653 N 153.722 1.14298 -1.08507 0
M  V30 1654 C 154.999 1.81544 -0.728088 0
M  V30 1655 C 155.379 1.95838 0.78808 0
M  V30 1656 O 154.727 1.51904 1.70697 0
M  V30 1657 C 154.937 3.17169 -1.45619 0
M  V30 1658 C 156.285 3.9265 -1.61591 0
M  V30 1659 O 157.309 3.26762 -1.41793 0
M  V30 1660 O 156.168 5.10807 -1.94263 0
M  V30 1661 H 153.262 0.78491 -0.260471 0
M  V30 1662 H 155.808 1.21307 -1.18671 0
M  V30 1663 H 154.58 3.01934 -2.489 0
M  V30 1664 H 154.203 3.851 -0.989124 0
M  V30 1665 N 155.201 0.870884 1.31352 0
M  V30 1666 C 156.131 0.343096 2.30966 0
M  V30 1667 C 157.112 -0.566507 1.60389 0
M  V30 1668 O 158.297 -0.483336 1.88089 0
M  V30 1669 C 155.427 -0.455487 3.443 0
M  V30 1670 C 154.381 0.361103 4.26474 0
M  V30 1671 C 153.707 -0.563221 5.31725 0
M  V30 1672 C 155.007 1.59566 4.97329 0
M  V30 1673 H 156.701 1.17548 2.75359 0
M  V30 1674 H 154.247 0.566686 1.32381 0
M  V30 1675 H 156.2 -0.83525 4.13039 0
M  V30 1676 H 154.924 -1.32139 2.98675 0
M  V30 1677 H 153.583 0.722825 3.59403 0
M  V30 1678 H 153.231 -1.42643 4.82351 0
M  V30 1679 H 152.931 -0.0207409 5.87596 0
M  V30 1680 H 154.455 -0.939808 6.03324 0
M  V30 1681 H 155.869 1.28728 5.58661 0
M  V30 1682 H 154.266 2.07728 5.63 0
M  V30 1683 H 155.336 2.34798 4.24262 0
M  V30 1684 N 156.679 -1.44442 0.630414 0
M  V30 1685 C 157.909 -2.06115 0.141465 0
M  V30 1686 C 158.317 -1.47179 -1.1889 0
M  V30 1687 O 157.66 -0.588873 -1.74006 0
M  V30 1688 C 157.722 -3.59467 -0.0484355 0
M  V30 1689 C 157.386 -4.40864 1.20366 0
M  V30 1690 C 158.383 -4.74391 2.12719 0
M  V30 1691 C 156.068 -4.8125 1.43887 0
M  V30 1692 C 158.062 -5.47186 3.26904 0
M  V30 1693 C 155.749 -5.53795 2.5837 0
M  V30 1694 C 156.747 -5.86682 3.49705 0
M  V30 1695 O 156.435 -6.57749 4.62191 0
M  V30 1696 H 156.167 -0.671648 0.0765792 0
M  V30 1697 H 158.721 -1.86312 0.864695 0
M  V30 1698 H 156.951 -3.77758 -0.826803 0
M  V30 1699 H 158.64 -4.02909 -0.491849 0
M  V30 1700 H 159.406 -4.43728 1.95781 0
M  V30 1701 H 155.285 -4.55073 0.736853 0
M  V30 1702 H 158.829 -5.72773 3.98217 0
M  V30 1703 H 154.726 -5.83872 2.75251 0
M  V30 1704 H 155.494 -6.76217 4.61164 0
M  V30 1705 N 158.157 -0.370918 -1.53173 0
M  V30 1706 C 159.067 0.480823 -2.2962 0
M  V30 1707 C 160.083 1.08789 -1.35798 0
M  V30 1708 O 161.259 1.09768 -1.68858 0
M  V30 1709 C 158.324 1.60227 -3.07454 0
M  V30 1710 C 157.385 1.0222 -4.16953 0
M  V30 1711 C 156.618 2.0902 -4.91066 0
M  V30 1712 O 156.841 3.30222 -4.65091 0
M  V30 1713 O 155.775 1.71778 -5.76867 0
M  V30 1714 H 159.601 -0.141421 -3.03371 0
M  V30 1715 H 157.186 -0.135146 -1.48787 0
M  V30 1716 H 159.068 2.25417 -3.56041 0
M  V30 1717 H 157.743 2.20982 -2.36535 0
M  V30 1718 H 156.65 0.334064 -3.72605 0
M  V30 1719 H 157.983 0.459131 -4.90054 0
M  V30 1720 N 159.635 1.57281 -0.100228 0
M  V30 1721 C 160.883 1.94153 0.561157 0
M  V30 1722 C 161.204 0.983157 1.68401 0
M  V30 1723 O 160.474 0.0361132 1.95867 0
M  V30 1724 H 159.054 0.716791 0.210283 0
M  V30 1725 H 161.716 1.94202 -0.164765 0
M  V30 1726 H 160.812 2.96709 0.968008 0
M  V30 1727 N 161.113 -0.173488 1.56642 0
M  V30 1728 C 162.341 -0.906095 1.86004 0
M  V30 1729 C 162.756 -1.75921 0.685355 0
M  V30 1730 O 162.113 -1.79198 -0.345578 0
M  V30 1731 C 162.164 -1.78462 3.14378 0
M  V30 1732 O 161.885 -0.965914 4.27319 0
M  V30 1733 C 163.386 -2.62707 3.57071 0
M  V30 1734 H 160.606 -0.263341 0.617165 0
M  V30 1735 H 163.15 -0.174236 2.03756 0
M  V30 1736 H 161.305 -2.46984 2.98459 0
M  V30 1737 H 161.719 -1.56655 5.00559 0
M  V30 1738 H 163.193 -3.19969 4.49804 0
M  V30 1739 H 163.67 -3.37472 2.81086 0
M  V30 1740 H 164.276 -1.99521 3.75595 0
M  V30 1741 N 162.591 -1.51276 -0.441967 0
M  V30 1742 C 163.554 -1.7167 -1.51862 0
M  V30 1743 C 164.554 -0.586793 -1.49711 0
M  V30 1744 O 165.744 -0.854276 -1.51815 0
M  V30 1745 C 162.876 -1.76889 -2.91416 0
M  V30 1746 H 164.069 -2.67754 -1.35084 0
M  V30 1747 H 161.622 -1.41196 -0.670333 0
M  V30 1748 H 162.357 -0.826026 -3.13604 0
M  V30 1749 H 162.142 -2.59001 -2.94382 0
M  V30 1750 H 163.632 -1.94522 -3.69528 0
M  V30 1751 N 164.069 0.697108 -1.41344 0
M  V30 1752 C 165.294 1.49096 -1.44171 0
M  V30 1753 C 165.719 1.88038 -0.0481568 0
M  V30 1754 O 165.077 1.54525 0.948243 0
M  V30 1755 C 165.125 2.73088 -2.3549 0
M  V30 1756 O 164.229 3.70514 -1.81088 0
M  V30 1757 H 163.57 0.448801 -0.489361 0
M  V30 1758 H 166.1 0.856992 -1.85787 0
M  V30 1759 H 166.11 3.21413 -2.51312 0
M  V30 1760 H 164.785 2.44081 -3.36745 0
M  V30 1761 H 163.362 3.29441 -1.74708 0
M  V30 1762 N 165.547 1.27147 0.931209 0
M  V30 1763 C 166.794 1.13278 1.67852 0
M  V30 1764 C 167.122 -0.32204 1.91815 0
M  V30 1765 O 166.377 -1.25224 1.50391 0
M  V30 1766 C 166.676 1.8579 3.05314 0
M  V30 1767 C 166.342 3.35657 3.01073 0
M  V30 1768 C 165.004 3.76536 2.99623 0
M  V30 1769 C 167.356 4.31299 2.92627 0
M  V30 1770 C 164.684 5.11426 2.87506 0
M  V30 1771 C 167.036 5.66242 2.82051 0
M  V30 1772 C 165.7 6.06418 2.7895 0
M  V30 1773 H 164.97 0.414515 0.614214 0
M  V30 1774 H 167.617 1.57712 1.08624 0
M  V30 1775 H 165.922 1.33854 3.68226 0
M  V30 1776 H 167.619 1.72491 3.62005 0
M  V30 1777 H 164.209 3.03146 3.02986 0
M  V30 1778 H 168.393 4.00692 2.92848 0
M  V30 1779 H 163.649 5.41705 2.83489 0
M  V30 1780 H 167.823 6.40026 2.74481 0
M  V30 1781 H 165.45 7.10895 2.69318 0
M  V30 1782 N 167.025 -1.13721 1.09112 0
M  V30 1783 C 167.955 -2.21148 0.749385 0
M  V30 1784 C 168.936 -1.6792 -0.271475 0
M  V30 1785 O 170.121 -1.93693 -0.140251 0
M  V30 1786 C 167.251 -3.46905 0.165659 0
M  V30 1787 C 166.205 -4.13203 1.11567 0
M  V30 1788 C 165.531 -5.33248 0.393809 0
M  V30 1789 C 166.831 -4.60912 2.45678 0
M  V30 1790 H 168.525 -2.4999 1.64758 0
M  V30 1791 H 166.071 -1.20156 0.793626 0
M  V30 1792 H 168.024 -4.21313 -0.085466 0
M  V30 1793 H 166.748 -3.17449 -0.767714 0
M  V30 1794 H 165.407 -3.40758 1.35202 0
M  V30 1795 H 165.055 -5.00054 -0.543599 0
M  V30 1796 H 164.755 -5.78552 1.02721 0
M  V30 1797 H 166.279 -6.10413 0.150908 0
M  V30 1798 H 167.693 -5.26759 2.26269 0
M  V30 1799 H 166.09 -5.16944 3.04776 0
M  V30 1800 H 167.16 -3.75603 3.06677 0
M  V30 1801 N 168.503 -0.877838 -1.30888 0
M  V30 1802 C 169.728 -0.506629 -2.01117 0
M  V30 1803 C 170.153 0.895564 -1.65412 0
M  V30 1804 O 169.511 1.5923 -0.866922 0
M  V30 1805 C 169.559 -0.680223 -3.54126 0
M  V30 1806 O 168.663 0.277033 -4.11468 0
M  V30 1807 H 168.004 -0.200518 -0.633 0
M  V30 1808 H 170.534 -1.18342 -1.66902 0
M  V30 1809 H 170.544 -0.5765 -4.03907 0
M  V30 1810 H 169.219 -1.70261 -3.79452 0
M  V30 1811 H 167.796 0.127606 -3.72682 0
M  V30 1812 N 169.982 1.44106 -0.638065 0
M  V30 1813 C 170.892 2.34513 0.0637334 0
M  V30 1814 C 171.908 1.53018 0.828346 0
M  V30 1815 O 173.084 1.85723 0.779036 0
M  V30 1816 C 170.149 3.31095 1.02844 0
M  V30 1817 C 169.21 4.28497 0.26244 0
M  V30 1818 C 168.443 5.20465 1.1812 0
M  V30 1819 O 168.666 5.16514 2.42011 0
M  V30 1820 O 167.6 5.98251 0.661774 0
M  V30 1821 H 171.426 2.95989 -0.68003 0
M  V30 1822 H 169.011 1.43994 -0.398252 0
M  V30 1823 H 170.893 3.90526 1.58327 0
M  V30 1824 H 169.568 2.72144 1.7527 0
M  V30 1825 H 168.475 3.72592 -0.335602 0
M  V30 1826 H 169.808 4.90388 -0.421936 0
M  V30 1827 N 171.46 0.379036 1.52974 0
M  V30 1828 C 172.408 -0.476033 2.27677 0
M  V30 1829 C 173.402 -1.0719 1.31174 0
M  V30 1830 O 174.608 -1.01355 1.48752 0
M  V30 1831 H 170.983 -0.172255 0.732006 0
M  V30 1832 H 172.954 0.175615 2.97883 0
M  V30 1833 C 171.703 -1.5967 3.0887 0
M  V30 1834 H 171.026 -1.1475 3.82978 0
M  V30 1835 H 172.466 -2.16943 3.64296 0
M  V30 1836 C 170.925 -2.54682 2.20542 0
M  V30 1837 O 171.455 -3.57836 1.82527 0
M  V30 1838 N 169.661 -2.24183 1.84907 0
M  V30 1839 H 169.208 -1.40333 2.1602 0
M  V30 1840 H 169.166 -2.88006 1.26096 0
M  V30 1841 N 172.938 -1.57226 0.108567 0
M  V30 1842 C 174.354 -1.5766 -0.248058 0
M  V30 1843 C 174.554 -1.12063 -1.67464 0
M  V30 1844 O 173.61 -0.803236 -2.39383 0
M  V30 1845 C 174.923 -3.0069 -0.0242287 0
M  V30 1846 C 176.471 -3.12868 -0.0909372 0
M  V30 1847 C 176.946 -4.57879 0.105067 0
M  V30 1848 N 178.437 -4.63172 0.0506846 0
M  V30 1849 C 179.172 -5.73126 0.177396 0
M  V30 1850 N 178.668 -6.91866 0.359696 0
M  V30 1851 N 180.461 -5.61977 0.117709 0
M  V30 1852 H 172.612 -1.85169 1.04049 0
M  V30 1853 H 174.875 -0.85529 0.40888 0
M  V30 1854 H 174.581 -3.38299 0.961604 0
M  V30 1855 H 174.455 -3.6945 -0.76068 0
M  V30 1856 H 176.842 -2.75124 -1.06729 0
M  V30 1857 H 176.923 -2.46672 0.677225 0
M  V30 1858 H 176.567 -4.96321 1.07834 0
M  V30 1859 H 176.497 -5.22153 -0.682954 0
M  V30 1860 H 178.988 -3.778 -0.0871266 0
M  V30 1861 H 179.301 -7.71503 0.447529 0
M  V30 1862 H 177.646 -6.93874 0.395536 0
M  V30 1863 H 180.837 -4.68094 -0.0236741 0
M  V30 1864 H 181.01 -6.47627 0.219905 0
M  V30 1865 N 174.416 0.165178 -1.56732 0
M  V30 1866 C 175.665 0.879143 -1.81532 0
M  V30 1867 C 175.978 1.83144 -0.686842 0
M  V30 1868 O 177.184 2.58823 -0.819944 0
M  V30 1869 C 175.64 1.61388 -3.21686 0
M  V30 1870 C 175.248 0.704904 -4.4242 0
M  V30 1871 C 176.992 2.3157 -3.55774 0
M  V30 1872 C 174.899 1.44022 -5.73595 0
M  V30 1873 H 173.829 0.332033 -0.676957 0
M  V30 1874 H 176.48 0.132008 -1.83025 0
M  V30 1875 H 174.862 2.40599 -3.14529 0
M  V30 1876 H 176.036 -0.0506815 -4.60772 0
M  V30 1877 H 174.351 0.112419 -4.16248 0
M  V30 1878 H 176.948 2.8719 -4.51028 0
M  V30 1879 H 177.291 3.07201 -2.8095 0
M  V30 1880 H 177.824 1.59297 -3.64513 0
M  V30 1881 H 174.563 0.72612 -6.51466 0
M  V30 1882 H 174.083 2.16898 -5.5921 0
M  V30 1883 H 175.762 1.98606 -6.15764 0
M  V30 1884 N 175.894 1.51508 0.433938 0
M  V30 1885 C 176.824 1.76016 1.53429 0
M  V30 1886 C 177.805 0.610112 1.58782 0
M  V30 1887 O 178.99 0.853177 1.74455 0
M  V30 1888 C 176.12 1.88831 2.9148 0
M  V30 1889 C 175.074 3.04288 3.00987 0
M  V30 1890 C 174.4 3.0229 4.4105 0
M  V30 1891 C 175.7 4.44193 2.74754 0
M  V30 1892 H 177.394 2.68152 1.33171 0
M  V30 1893 H 174.94 1.29035 0.639214 0
M  V30 1894 H 176.893 2.04559 3.6842 0
M  V30 1895 H 175.617 0.933455 3.12976 0
M  V30 1896 H 174.276 2.8827 2.26486 0
M  V30 1897 H 173.924 2.04576 4.59519 0
M  V30 1898 H 173.624 3.79822 4.4834 0
M  V30 1899 H 175.148 3.20116 5.1996 0
M  V30 1900 H 176.562 4.60544 3.41426 0
M  V30 1901 H 174.959 5.23457 2.9345 0
M  V30 1902 H 176.029 4.53996 1.70339 0
M  V30 1903 N 177.372 -0.689602 1.41712 0
M  V30 1904 C 178.621 -1.44534 1.40686 0
M  V30 1905 C 178.934 -1.95588 0.0213352 0
M  V30 1906 O 180.14 -2.71271 -0.111534 0
M  V30 1907 C 178.596 -2.61387 2.47396 0
M  V30 1908 C 178.204 -2.17094 3.91885 0
M  V30 1909 C 179.948 -3.38986 2.55517 0
M  V30 1910 C 177.855 -3.3094 4.90135 0
M  V30 1911 H 176.785 -0.542925 0.52321 0
M  V30 1912 H 179.436 -0.748054 1.6756 0
M  V30 1913 H 177.818 -3.33412 2.13664 0
M  V30 1914 H 178.992 -1.52318 4.34897 0
M  V30 1915 H 177.307 -1.52473 3.8748 0
M  V30 1916 H 179.904 -4.23747 3.26102 0
M  V30 1917 H 180.247 -3.84578 1.59391 0
M  V30 1918 H 180.78 -2.74021 2.8837 0
M  V30 1919 H 177.519 -2.90355 5.87685 0
M  V30 1920 H 177.039 -3.94546 4.51767 0
M  V30 1921 H 178.718 -3.9663 5.11169 0
M  V30 1922 N 178.85 -1.27639 -0.924453 0
M  V30 1923 C 179.797 -1.10644 -2.0255 0
M  V30 1924 C 180.767 -0.00658438 -1.66099 0
M  V30 1925 O 181.952 -0.16952 -1.90045 0
M  V30 1926 C 179.092 -0.76309 -3.36557 0
M  V30 1927 C 178.205 -1.94091 -3.85944 0
M  V30 1928 C 177.34 -1.53914 -5.08413 0
M  V30 1929 C 176.379 -2.68425 -5.50104 0
M  V30 1930 N 175.516 -2.28815 -6.63768 0
M  V30 1931 H 180.356 -2.04858 -2.16419 0
M  V30 1932 H 177.893 -1.01974 -1.06017 0
M  V30 1933 H 179.851 -0.544822 -4.13627 0
M  V30 1934 H 178.481 0.142102 -3.22487 0
M  V30 1935 H 177.533 -2.27162 -3.05125 0
M  V30 1936 H 178.845 -2.7998 -4.12811 0
M  V30 1937 H 177.999 -1.28231 -5.92994 0
M  V30 1938 H 176.738 -0.651391 -4.8333 0
M  V30 1939 H 175.743 -2.94819 -4.64071 0
M  V30 1940 H 176.968 -3.57826 -5.7718 0
M  V30 1941 H 174.914 -1.42495 -6.40337 0
M  V30 1942 H 174.831 -3.08242 -6.90306 0
M  V30 1943 H 176.099 -2.06387 -7.51681 0
M  V30 1944 N 180.328 1.1314 -1.09713 0
M  V30 1945 C 181.576 1.84119 -0.833338 0
M  V30 1946 C 181.897 1.84097 0.642904 0
M  V30 1947 O 181.167 1.29881 1.46655 0
M  V30 1948 H 179.747 0.681766 -0.305293 0
M  V30 1949 H 182.409 1.37038 -1.38588 0
M  V30 1950 H 181.505 2.88543 -1.18951 0
M  V30 1951 N 181.806 0.884767 1.30421 0
M  V30 1952 C 183.034 0.518044 2.0031 0
M  V30 1953 C 183.449 -0.893408 1.66324 0
M  V30 1954 O 182.806 -1.5875 0.900262 0
M  V30 1955 C 182.857 0.682997 3.54989 0
M  V30 1956 O 182.578 2.03888 3.87764 0
M  V30 1957 C 184.079 0.31924 4.42149 0
M  V30 1958 H 181.299 0.200265 0.640418 0
M  V30 1959 H 183.843 1.19001 1.6631 0
M  V30 1960 H 181.998 0.0584052 3.87356 0
M  V30 1961 H 182.412 2.05735 4.82466 0
M  V30 1962 H 183.886 0.485555 5.4986 0
M  V30 1963 H 184.363 -0.742717 4.32875 0
M  V30 1964 H 184.969 0.920147 4.15227 0
M  V30 1965 N 183.284 -1.43765 0.645699 0
M  V30 1966 C 184.231 -2.30745 -0.0504648 0
M  V30 1967 C 185.201 -1.4432 -0.822241 0
M  V30 1968 O 186.386 -1.73202 -0.800358 0
M  V30 1969 C 183.526 -3.29802 -1.0161 0
M  V30 1970 C 182.639 -4.31326 -0.241219 0
M  V30 1971 C 181.774 -5.17469 -1.19998 0
M  V30 1972 C 180.813 -6.10691 -0.415094 0
M  V30 1973 N 179.95 -6.89483 -1.32506 0
M  V30 1974 H 184.79 -2.8973 0.697155 0
M  V30 1975 H 182.327 -1.42738 0.355563 0
M  V30 1976 H 184.285 -3.85734 -1.58949 0
M  V30 1977 H 182.915 -2.72483 -1.73069 0
M  V30 1978 H 181.967 -3.77749 0.448334 0
M  V30 1979 H 183.279 -4.9743 0.369437 0
M  V30 1980 H 182.433 -5.7799 -1.84424 0
M  V30 1981 H 181.172 -4.51473 -1.84455 0
M  V30 1982 H 180.177 -5.49265 0.242565 0
M  V30 1983 H 181.402 -6.78727 0.224966 0
M  V30 1984 H 179.348 -6.26142 -1.95657 0
M  V30 1985 H 179.265 -7.52081 -0.768783 0
M  V30 1986 H 180.533 -7.54516 -1.9577 0
M  V30 1987 N 184.763 -0.387143 -1.52771 0
M  V30 1988 C 186.04 0.253197 -1.93954 0
M  V30 1989 C 186.42 1.64545 -1.32243 0
M  V30 1990 O 185.768 2.23191 -0.489699 0
M  V30 1991 C 185.978 0.281722 -3.47861 0
M  V30 1992 C 187.326 0.511715 -4.21505 0
M  V30 1993 O 188.35 0.362023 -3.54356 0
M  V30 1994 O 187.209 0.804847 -5.40541 0
M  V30 1995 H 184.303 0.156845 -0.811991 0
M  V30 1996 H 186.849 -0.441494 -1.63856 0
M  V30 1997 H 185.621 -0.693571 -3.85104 0
M  V30 1998 H 185.244 1.02142 -3.84256 0
M  V30 1999 N 186.241 1.57166 -0.116904 0
M  V30 2000 C 187.189 2.16457 0.851418 0
M  V30 2001 C 188.183 1.11323 1.27686 0
M  V30 2002 O 189.389 1.2963 1.24884 0
M  V30 2003 H 185.764 0.69271 0.292672 0
M  V30 2004 H 187.735 2.96605 0.32685 0
M  V30 2005 C 186.484 2.77689 2.09246 0
M  V30 2006 H 185.807 3.58285 1.77402 0
M  V30 2007 H 187.247 3.22716 2.7501 0
M  V30 2008 C 185.706 1.74667 2.88085 0
M  V30 2009 O 186.236 1.19877 3.83396 0
M  V30 2010 N 184.442 1.44656 2.52038 0
M  V30 2011 H 183.989 1.89402 1.74599 0
M  V30 2012 H 183.947 0.759675 3.05084 0
M  V30 2013 N 187.719 -0.156864 1.56817 0
M  V30 2014 C 188.667 -1.21319 1.98455 0
M  V30 2015 C 189.661 -1.45025 0.875444 0
M  V30 2016 O 190.867 -1.45435 1.0606 0
M  V30 2017 H 187.242 -0.408142 0.631605 0
M  V30 2018 H 189.213 -0.835244 2.86472 0
M  V30 2019 C 187.962 -2.54148 2.37285 0
M  V30 2020 H 187.285 -2.36733 3.22176 0
M  V30 2021 H 188.725 -3.26712 2.70251 0
M  V30 2022 C 187.184 -3.13967 1.22173 0
M  V30 2023 O 187.714 -3.98357 0.517149 0
M  V30 2024 N 185.92 -2.7327 0.988536 0
M  V30 2025 H 185.467 -2.04744 1.56326 0
M  V30 2026 H 185.425 -3.13628 0.220209 0
M  V30 2027 N 189.197 -1.51736 -0.425897 0
M  V30 2028 C 190.145 -1.74464 -1.53834 0
M  V30 2029 C 191.139 -0.611241 -1.57988 0
M  V30 2030 O 192.345 -0.792899 -1.61596 0
M  V30 2031 H 188.72 -0.551437 -0.511293 0
M  V30 2032 H 190.691 -2.67694 -1.31843 0
M  V30 2033 C 189.44 -1.8972 -2.91379 0
M  V30 2034 H 188.763 -2.76344 -2.88919 0
M  V30 2035 H 190.203 -2.09629 -3.68553 0
M  V30 2036 C 188.662 -0.65992 -3.30374 0
M  V30 2037 O 189.192 0.180083 -4.01296 0
M  V30 2038 N 187.398 -0.500677 -2.86254 0
M  V30 2039 H 186.945 -1.18532 -2.28709 0
M  V30 2040 H 186.903 0.325903 -3.12706 0
M  V30 2041 N 190.675 0.682077 -1.42076 0
M  V30 2042 C 191.622 1.79578 -1.44984 0
M  V30 2043 C 192.592 1.6332 -0.302614 0
M  V30 2044 O 193.777 1.83978 -0.505633 0
M  V30 2045 C 190.917 3.1756 -1.35091 0
M  V30 2046 C 190.03 3.45156 -2.59791 0
M  V30 2047 C 189.165 4.72826 -2.42093 0
M  V30 2048 C 188.204 4.93433 -3.62202 0
M  V30 2049 N 187.341 6.12338 -3.43491 0
M  V30 2050 H 192.181 1.76427 -2.40161 0
M  V30 2051 H 189.718 0.861376 -1.19242 0
M  V30 2052 H 191.676 3.97287 -1.27354 0
M  V30 2053 H 190.306 3.19854 -0.435133 0
M  V30 2054 H 189.358 2.59736 -2.77923 0
M  V30 2055 H 190.67 3.5628 -3.49094 0
M  V30 2056 H 189.824 5.60631 -2.319 0
M  V30 2057 H 188.563 4.63973 -1.50268 0
M  V30 2058 H 187.568 4.04073 -3.72834 0
M  V30 2059 H 188.793 5.04136 -4.54998 0
M  V30 2060 H 186.739 6.04672 -2.54377 0
M  V30 2061 H 186.656 6.2429 -4.26377 0
M  V30 2062 H 187.924 7.02841 -3.37097 0
M  V30 2063 N 192.153 1.28127 0.917671 0
M  V30 2064 C 193.43 1.05761 1.64542 0
M  V30 2065 C 193.81 -0.404344 2.07191 0
M  V30 2066 O 193.158 -1.38963 1.81388 0
M  V30 2067 C 193.368 2.02857 2.83989 0
M  V30 2068 C 194.716 2.32786 3.551 0
M  V30 2069 O 195.74 2.0091 2.94132 0
M  V30 2070 O 194.599 2.87169 4.64969 0
M  V30 2071 H 191.693 0.403916 0.721652 0
M  V30 2072 H 194.239 1.39431 0.967322 0
M  V30 2073 H 193.011 3.01407 2.49538 0
M  V30 2074 H 192.634 1.69809 3.59514 0
M  V30 2075 N 193.631 -1.12557 1.10312 0
M  V30 2076 C 194.579 -2.20325 0.745629 0
M  V30 2077 C 195.573 -1.67429 -0.25763 0
M  V30 2078 O 196.779 -1.79612 -0.118132 0
M  V30 2079 H 193.154 -0.718118 0.223182 0
M  V30 2080 H 195.125 -2.47733 1.66346 0
M  V30 2081 C 193.874 -3.47168 0.192262 0
M  V30 2082 H 193.197 -3.88215 0.955475 0
M  V30 2083 H 194.637 -4.23995 -0.0198274 0
M  V30 2084 C 193.096 -3.19298 -1.07472 0
M  V30 2085 O 193.626 -3.3891 -2.15645 0
M  V30 2086 N 191.832 -2.73113 -0.992847 0
M  V30 2087 H 191.379 -2.57354 -0.112474 0
M  V30 2088 H 191.337 -2.54842 -1.84127 0
M  V30 2089 N 195.109 -0.891671 -1.2995 0
M  V30 2090 C 196.357 -0.512486 -1.95494 0
M  V30 2091 C 196.678 0.942776 -1.70695 0
M  V30 2092 O 195.948 1.66374 -1.03424 0
M  V30 2093 H 194.528 -0.186533 -0.723336 0
M  V30 2094 H 197.19 -1.13621 -1.58355 0
M  V30 2095 H 196.286 -0.688342 -3.04415 0
M  V30 2096 N 196.587 1.43421 -0.653314 0
M  V30 2097 C 197.998 1.85065 -0.246537 0
M  V30 2098 C 198.349 1.54688 1.2069 0
M  V30 2099 O 197.474 0.995896 1.92122 0
M  V30 2100 C 198.069 3.35922 -0.440666 0
M  V30 2101 C 196.628 3.76297 -0.0882064 0
M  V30 2102 C 195.775 2.67147 -0.743484 0
M  V30 2103 H 198.726 1.33572 -0.856979 0
M  V30 2104 H 198.747 3.79204 0.313798 0
M  V30 2105 H 198.259 3.58 -1.49858 0
M  V30 2106 H 196.36 3.5983 0.96711 0
M  V30 2107 H 196.473 4.76338 -0.513738 0
M  V30 2108 H 194.837 2.54086 -0.176712 0
M  V30 2109 H 195.62 2.92053 -1.80443 0
M  V30 2110 N 198.065 0.39524 1.52563 0
M  V30 2111 C 198.995 -0.428384 2.29537 0
M  V30 2112 C 199.976 -1.05831 1.33169 0
M  V30 2113 O 201.161 -1.06995 1.62067 0
M  V30 2114 C 198.291 -1.55274 3.10656 0
M  V30 2115 C 197.245 -1.04855 4.14957 0
M  V30 2116 C 196.571 -2.26543 4.84337 0
M  V30 2117 C 197.871 -0.112324 5.22179 0
M  V30 2118 H 199.565 0.213867 2.98635 0
M  V30 2119 H 197.111 0.104298 1.43622 0
M  V30 2120 H 199.064 -2.1358 3.63265 0
M  V30 2121 H 197.788 -2.22266 2.39302 0
M  V30 2122 H 196.447 -0.487985 3.63338 0
M  V30 2123 H 196.095 -2.92059 4.09525 0
M  V30 2124 H 195.795 -1.93466 5.54837 0
M  V30 2125 H 197.319 -2.85481 5.39753 0
M  V30 2126 H 198.733 -0.603752 5.70112 0
M  V30 2127 H 197.13 0.128968 5.99961 0
M  V30 2128 H 198.2 0.837052 4.77621 0
M  V30 2129 N 199.544 -1.57102 0.125237 0
M  V30 2130 C 200.492 -2.16905 -0.839927 0
M  V30 2131 C 201.486 -1.11998 -1.27094 0
M  V30 2132 O 202.692 -1.3029 -1.24195 0
M  V30 2133 H 199.067 -0.694252 -0.288995 0
M  V30 2134 H 201.038 -2.96774 -0.311115 0
M  V30 2135 C 199.787 -2.78795 -2.07771 0
M  V30 2136 H 199.11 -3.59221 -1.755 0
M  V30 2137 H 200.55 -3.2417 -2.73295 0
M  V30 2138 C 199.009 -1.76193 -2.87155 0
M  V30 2139 O 199.539 -1.21909 -3.82755 0
M  V30 2140 N 197.745 -1.45991 -2.51267 0
M  V30 2141 H 197.292 -1.90325 -1.73592 0
M  V30 2142 H 197.25 -0.775844 -3.04677 0
M  V30 2143 N 201.022 0.148545 -1.56898 0
M  V30 2144 C 201.932 1.20293 -2.01412 0
M  V30 2145 C 202.948 1.47107 -0.929273 0
M  V30 2146 O 204.124 1.58807 -1.23863 0
M  V30 2147 C 201.189 2.51682 -2.38447 0
M  V30 2148 C 200.25 2.32529 -3.60872 0
M  V30 2149 C 199.483 3.57653 -3.96132 0
M  V30 2150 O 199.706 4.63771 -3.32073 0
M  V30 2151 O 198.64 3.50408 -4.89385 0
M  V30 2152 H 202.466 0.855025 -2.91416 0
M  V30 2153 H 200.051 0.357151 -1.45068 0
M  V30 2154 H 201.933 3.29147 -2.63135 0
M  V30 2155 H 200.608 2.86006 -1.51599 0
M  V30 2156 H 199.515 1.53019 -3.41373 0
M  V30 2157 H 200.848 2.03121 -4.48333 0
M  V30 2158 N 202.5 1.5196 0.417844 0
M  V30 2159 C 203.41 1.77554 1.53336 0
M  V30 2160 C 204.426 0.660655 1.6097 0
M  V30 2161 O 205.602 0.945099 1.77848 0
M  V30 2162 C 202.667 1.91291 2.89152 0
M  V30 2163 C 201.728 3.15183 2.91475 0
M  V30 2164 C 200.961 3.28256 4.20813 0
M  V30 2165 O 201.184 2.46798 5.14244 0
M  V30 2166 O 200.118 4.21356 4.29817 0
M  V30 2167 H 203.944 2.7222 1.34647 0
M  V30 2168 H 201.529 1.36698 0.602828 0
M  V30 2169 H 203.411 2.02199 3.69721 0
M  V30 2170 H 202.086 0.998129 3.07927 0
M  V30 2171 H 200.993 3.09739 2.09791 0
M  V30 2172 H 202.326 4.06414 2.77648 0
M  V30 2173 N 203.978 -0.674533 1.42435 0
M  V30 2174 C 205.227 -1.43034 1.42212 0
M  V30 2175 C 205.54 -1.95555 0.0420788 0
M  V30 2176 O 206.746 -2.71374 -0.0827558 0
M  V30 2177 C 205.202 -2.58748 2.50155 0
M  V30 2178 C 204.81 -2.12925 3.94166 0
M  V30 2179 C 206.554 -3.36257 2.59098 0
M  V30 2180 C 204.461 -3.25723 4.93618 0
M  V30 2181 H 203.391 -0.537345 0.528939 0
M  V30 2182 H 206.042 -0.73024 1.68344 0
M  V30 2183 H 204.424 -3.31128 2.17188 0
M  V30 2184 H 205.598 -1.47697 4.36488 0
M  V30 2185 H 203.913 -1.48354 3.89076 0
M  V30 2186 H 206.51 -4.20264 3.30578 0
M  V30 2187 H 206.853 -3.82866 1.63461 0
M  V30 2188 H 207.386 -2.70947 2.9126 0
M  V30 2189 H 204.125 -2.84105 5.90732 0
M  V30 2190 H 203.645 -3.89732 4.55926 0
M  V30 2191 H 205.324 -3.91186 5.15347 0
M  V30 2192 N 205.456 -1.28612 -0.910864 0
M  V30 2193 C 206.386 -1.15326 -2.03032 0
M  V30 2194 C 207.367 -0.0502924 -1.70026 0
M  V30 2195 O 208.552 -0.227797 -1.92859 0
M  V30 2196 C 205.682 -0.817343 -3.37545 0
M  V30 2197 C 204.636 -1.8754 -3.84724 0
M  V30 2198 C 203.962 -1.39305 -5.16235 0
M  V30 2199 C 205.262 -3.28244 -4.06267 0
M  V30 2200 H 206.956 -2.08975 -2.14406 0
M  V30 2201 H 204.502 -1.00612 -1.03021 0
M  V30 2202 H 206.455 -0.711151 -4.15356 0
M  V30 2203 H 205.179 0.154846 -3.26233 0
M  V30 2204 H 203.838 -1.97079 -3.09121 0
M  V30 2205 H 203.486 -0.409846 -5.01328 0
M  V30 2206 H 203.186 -2.10057 -5.48771 0
M  V30 2207 H 204.71 -1.30014 -5.96598 0
M  V30 2208 H 206.124 -3.21611 -4.74594 0
M  V30 2209 H 204.521 -3.96855 -4.5014 0
M  V30 2210 H 205.591 -3.72048 -3.10979 0
M  V30 2211 N 206.934 1.1197 -1.10907 0
M  V30 2212 C 207.844 2.21433 -0.774896 0
M  V30 2213 C 208.86 1.72478 0.229657 0
M  V30 2214 O 210.036 2.01288 0.0672008 0
M  V30 2215 C 207.101 3.4602 -0.216986 0
M  V30 2216 C 206.162 4.09791 -1.27944 0
M  V30 2217 C 205.395 5.28431 -0.748055 0
M  V30 2218 O 205.618 5.68823 0.423833 0
M  V30 2219 O 204.552 5.82644 -1.51027 0
M  V30 2220 H 208.378 2.5242 -1.68873 0
M  V30 2221 H 205.963 1.20399 -0.884555 0
M  V30 2222 H 207.845 4.21304 0.090059 0
M  V30 2223 H 206.52 3.16698 0.669633 0
M  V30 2224 H 205.427 3.36265 -1.63941 0
M  V30 2225 H 206.76 4.4328 -2.13925 0
M  V30 2226 N 208.412 0.89855 1.29475 0
M  V30 2227 C 209.66 0.522847 1.9522 0
M  V30 2228 C 209.981 -0.93371 1.71192 0
M  V30 2229 O 209.251 -1.65823 1.04305 0
M  V30 2230 H 207.831 0.190366 0.722336 0
M  V30 2231 H 210.493 1.14459 1.5775 0
M  V30 2232 H 209.589 0.704476 3.04045 0
M  V30 2233 N 209.89 -1.43072 0.660911 0
M  V30 2234 C 211.306 -1.56169 0.329173 0
M  V30 2235 C 211.506 -1.64317 -1.16629 0
M  V30 2236 O 210.562 -1.60245 -1.95135 0
M  V30 2237 C 211.875 -2.81873 1.04729 0
M  V30 2238 C 213.423 -2.95627 1.02828 0
M  V30 2239 C 213.898 -4.24174 1.72744 0
M  V30 2240 N 215.389 -4.31055 1.69545 0
M  V30 2241 C 216.124 -5.29304 2.20511 0
M  V30 2242 N 215.62 -6.33786 2.79799 0
M  V30 2243 N 217.413 -5.21008 2.10966 0
M  V30 2244 H 209.564 -1.36027 1.63127 0
M  V30 2245 H 211.827 -0.653823 0.686454 0
M  V30 2246 H 211.533 -2.81942 2.10242 0
M  V30 2247 H 211.407 -3.72338 0.603702 0
M  V30 2248 H 213.794 -2.95094 -0.0184742 0
M  V30 2249 H 213.875 -2.06431 1.51063 0
M  V30 2250 H 213.519 -4.25467 2.7738 0
M  V30 2251 H 213.449 -5.1228 1.2197 0
M  V30 2252 H 215.94 -3.56174 1.26288 0
M  V30 2253 H 216.253 -7.05086 3.16344 0
M  V30 2254 H 214.598 -6.34387 2.83863 0
M  V30 2255 H 217.789 -4.38301 1.64347 0
M  V30 2256 H 217.962 -5.97416 2.50993 0
M  V30 2257 N 211.368 -0.403325 -1.52352 0
M  V30 2258 C 212.316 0.439752 -2.28405 0
M  V30 2259 C 213.31 1.05089 -1.32863 0
M  V30 2260 O 214.516 0.989759 -1.50345 0
M  V30 2261 H 210.891 0.160587 -0.734653 0
M  V30 2262 H 212.862 -0.222983 -2.97566 0
M  V30 2263 C 211.611 1.54736 -3.11371 0
M  V30 2264 H 210.934 1.08643 -3.84755 0
M  V30 2265 H 212.374 2.1112 -3.67701 0
M  V30 2266 C 210.833 2.51141 -2.24566 0
M  V30 2267 O 211.363 3.54887 -1.88196 0
M  V30 2268 N 209.569 2.21213 -1.8845 0
M  V30 2269 H 209.116 1.36878 -2.18225 0
M  V30 2270 H 209.074 2.85963 -1.30662 0
M  V30 2271 N 212.846 1.57033 -0.133567 0
M  V30 2272 C 214.095 1.94861 0.520768 0
M  V30 2273 C 214.408 1.02012 1.66892 0
M  V30 2274 O 215.614 1.29365 2.38699 0
M  V30 2275 C 214.07 3.46362 0.977809 0
M  V30 2276 C 213.678 4.47773 -0.142674 0
M  V30 2277 C 215.422 3.93083 1.60269 0
M  V30 2278 C 213.329 5.90468 0.331883 0
M  V30 2279 H 212.259 0.727453 0.198315 0
M  V30 2280 H 214.91 1.82227 -0.215759 0
M  V30 2281 H 213.292 3.54282 1.7692 0
M  V30 2282 H 214.466 4.51536 -0.919317 0
M  V30 2283 H 212.781 4.10891 -0.675124 0
M  V30 2284 H 215.378 4.97121 1.96914 0
M  V30 2285 H 215.721 3.33876 2.48662 0
M  V30 2286 H 216.254 3.88025 0.876453 0
M  V30 2287 H 212.993 6.53463 -0.516341 0
M  V30 2288 H 212.513 5.90094 1.07469 0
M  V30 2289 H 214.192 6.42179 0.788332 0
M  V30 2290 N 214.325 -0.140222 1.56975 0
M  V30 2291 C 215.255 -1.17456 2.01808 0
M  V30 2292 C 216.236 -1.44415 0.898794 0
M  V30 2293 O 217.421 -1.5522 1.16707 0
M  V30 2294 C 214.551 -2.50607 2.40444 0
M  V30 2295 C 213.505 -2.38155 3.55621 0
M  V30 2296 C 212.831 -3.76078 3.80091 0
M  V30 2297 C 214.131 -1.85991 4.88062 0
M  V30 2298 H 215.825 -0.801743 2.88466 0
M  V30 2299 H 213.371 -0.38422 1.38779 0
M  V30 2300 H 215.324 -3.23197 2.7041 0
M  V30 2301 H 214.048 -2.89737 1.50732 0
M  V30 2302 H 212.707 -1.68016 3.25832 0
M  V30 2303 H 212.355 -4.12656 2.87618 0
M  V30 2304 H 212.055 -3.68606 4.57606 0
M  V30 2305 H 213.579 -4.50206 4.12488 0
M  V30 2306 H 214.993 -2.4838 5.16701 0
M  V30 2307 H 213.39 -1.89393 5.6943 0
M  V30 2308 H 214.46 -0.816023 4.77984 0
M  V30 2309 N 215.803 -1.52179 -0.40978 0
M  V30 2310 C 217.052 -1.65434 -1.15388 0
M  V30 2311 C 217.365 -0.390056 -1.91671 0
M  V30 2312 O 218.571 -0.402399 -2.68501 0
M  V30 2313 C 217.027 -2.92279 -2.10003 0
M  V30 2314 C 216.635 -4.25813 -1.39239 0
M  V30 2315 C 218.379 -3.14897 -2.84675 0
M  V30 2316 C 216.286 -5.43782 -2.32498 0
M  V30 2317 H 215.216 -0.616267 -0.434432 0
M  V30 2318 H 217.867 -1.78666 -0.418401 0
M  V30 2319 H 216.249 -2.72744 -2.871 0
M  V30 2320 H 217.423 -4.55828 -0.675099 0
M  V30 2321 H 215.738 -4.09292 -0.766097 0
M  V30 2322 H 218.335 -4.0021 -3.54593 0
M  V30 2323 H 218.678 -2.29103 -3.47588 0
M  V30 2324 H 219.211 -3.34901 -2.14677 0
M  V30 2325 H 215.95 -6.3192 -1.74233 0
M  V30 2326 H 215.47 -5.18106 -3.02201 0
M  V30 2327 H 217.149 -5.76834 -2.93038 0
M  V30 2328 N 217.281 0.66697 -1.42791 0
M  V30 2329 C 218.244 1.76211 -1.46568 0
M  V30 2330 C 219.244 1.56896 -0.352196 0
M  V30 2331 O 220.434 1.63044 -0.613364 0
M  V30 2332 C 217.566 3.14935 -1.30494 0
M  V30 2333 H 218.759 1.74247 -2.44086 0
M  V30 2334 H 216.312 0.877342 -1.29354 0
M  V30 2335 H 217.047 3.2252 -0.339301 0
M  V30 2336 H 216.832 3.30359 -2.11199 0
M  V30 2337 H 218.322 3.94821 -1.36038 0
M  V30 2338 N 218.759 1.29093 0.90403 0
M  V30 2339 C 220.005 1.16986 1.65656 0
M  V30 2340 C 220.338 -0.278925 1.92186 0
M  V30 2341 O 219.613 -1.2019 1.5292 0
M  V30 2342 C 219.896 1.97908 3.0084 0
M  V30 2343 C 219.749 3.50903 2.81403 0
M  V30 2344 C 221.068 1.80208 4.01513 0
M  V30 2345 H 218.187 0.426346 0.601164 0
M  V30 2346 H 220.829 1.58518 1.04747 0
M  V30 2347 H 218.979 1.62616 3.52829 0
M  V30 2348 H 220.651 3.96153 2.36348 0
M  V30 2349 H 218.894 3.76045 2.1627 0
M  V30 2350 H 219.565 4.02791 3.77443 0
M  V30 2351 H 222.041 2.11025 3.58619 0
M  V30 2352 H 220.917 2.39184 4.94047 0
M  V30 2353 H 221.178 0.756119 4.35586 0
M  V30 2354 N 220.237 -1.11381 1.11499 0
M  V30 2355 C 221.485 -1.8277 0.862524 0
M  V30 2356 C 221.806 -1.85097 -0.613534 0
M  V30 2357 O 221.076 -1.32198 -1.4457 0
M  V30 2358 H 219.656 -0.676823 0.316101 0
M  V30 2359 H 222.318 -1.34816 1.4075 0
M  V30 2360 H 221.414 -2.86614 1.23527 0
M  V30 2361 N 221.715 -0.905404 -1.28997 0
M  V30 2362 C 222.663 -0.377431 -2.29517 0
M  V30 2363 C 223.657 0.526461 -1.61012 0
M  V30 2364 O 224.863 0.40863 -1.753 0
M  V30 2365 H 221.238 -0.103437 -0.744852 0
M  V30 2366 H 223.209 -1.23848 -2.71485 0
M  V30 2367 C 221.958 0.374833 -3.45674 0
M  V30 2368 H 221.281 -0.311474 -3.98585 0
M  V30 2369 H 222.721 0.70903 -4.1803 0
M  V30 2370 C 221.18 1.57963 -2.97572 0
M  V30 2371 O 221.71 2.67886 -2.99333 0
M  V30 2372 N 219.916 1.42375 -2.53333 0
M  V30 2373 H 219.463 0.529466 -2.521 0
M  V30 2374 H 219.421 2.23117 -2.21509 0
M  V30 2375 N 223.193 1.4272 -0.668489 0
M  V30 2376 C 224.14 2.30796 0.0137489 0
M  V30 2377 C 225.11 1.4561 0.799177 0
M  V30 2378 O 226.295 1.74453 0.772702 0
M  V30 2379 C 223.435 3.31377 0.963507 0
M  V30 2380 C 222.548 4.31655 0.172569 0
M  V30 2381 C 221.683 5.19312 1.1175 0
M  V30 2382 C 220.722 6.11274 0.317886 0
M  V30 2383 N 219.859 6.91504 1.2152 0
M  V30 2384 H 224.699 2.88585 -0.743161 0
M  V30 2385 H 222.236 1.42154 -0.378226 0
M  V30 2386 H 224.194 3.88214 1.52792 0
M  V30 2387 H 222.824 2.75202 1.68712 0
M  V30 2388 H 221.876 3.76988 -0.508374 0
M  V30 2389 H 223.188 4.96779 -0.448527 0
M  V30 2390 H 222.342 5.80851 1.75206 0
M  V30 2391 H 221.081 4.5435 1.77249 0
M  V30 2392 H 220.086 5.48809 -0.329918 0
M  V30 2393 H 221.311 6.78283 -0.332917 0
M  V30 2394 H 219.257 6.29176 1.85671 0
M  V30 2395 H 219.174 7.53209 0.649036 0
M  V30 2396 H 220.442 7.57535 1.83742 0
M  V30 2397 N 224.671 0.411399 1.52136 0
M  V30 2398 C 226.082 -0.0576826 1.86611 0
M  V30 2399 C 226.433 -1.44238 1.33003 0
M  V30 2400 O 225.558 -2.05759 0.670228 0
M  V30 2401 C 226.153 -0.111448 3.38617 0
M  V30 2402 C 224.712 -0.52487 3.72723 0
M  V30 2403 C 223.859 0.299176 2.75681 0
M  V30 2404 H 226.81 0.628368 1.4573 0
M  V30 2405 H 226.831 -0.926252 3.69054 0
M  V30 2406 H 226.343 0.896488 3.77604 0
M  V30 2407 H 224.444 -1.53936 3.39315 0
M  V30 2408 H 224.557 -0.267681 4.78352 0
M  V30 2409 H 222.921 -0.238814 2.53578 0
M  V30 2410 H 223.704 1.3055 3.17508 0
M  V30 2411 N 226.149 -1.5696 0.141893 0
M  V30 2412 C 227.395 -1.9625 -0.511248 0
M  V30 2413 C 227.728 -1.02654 -1.64851 0
M  V30 2414 O 227.003 -0.0679676 -1.94381 0
M  V30 2415 C 227.286 -3.45285 -1.02227 0
M  V30 2416 C 227.139 -4.49658 0.113138 0
M  V30 2417 C 228.458 -3.96698 -1.90574 0
M  V30 2418 H 225.577 -0.713567 -0.184367 0
M  V30 2419 H 228.219 -1.88698 0.222087 0
M  V30 2420 H 226.369 -3.51852 -1.64719 0
M  V30 2421 H 228.041 -4.55174 0.749302 0
M  V30 2422 H 226.284 -4.26857 0.773026 0
M  V30 2423 H 226.955 -5.51258 -0.286053 0
M  V30 2424 H 229.431 -3.92578 -1.37918 0
M  V30 2425 H 228.307 -5.01453 -2.2324 0
M  V30 2426 H 228.568 -3.3875 -2.84079 0
M  V30 2427 N 227.627 0.131896 -1.57047 0
M  V30 2428 C 228.874 0.841932 -1.84168 0
M  V30 2429 C 229.202 1.8048 -0.725066 0
M  V30 2430 O 228.457 1.93618 0.284692 0
M  V30 2431 C 228.756 1.63703 -3.17704 0
M  V30 2432 C 228.422 0.81961 -4.43388 0
M  V30 2433 C 227.084 0.594148 -4.77518 0
M  V30 2434 C 229.436 0.248977 -5.20605 0
M  V30 2435 C 226.764 -0.212409 -5.86315 0
M  V30 2436 C 229.116 -0.544701 -6.30251 0
M  V30 2437 C 227.78 -0.780599 -6.6292 0
M  V30 2438 H 227.05 0.308085 -0.673917 0
M  V30 2439 H 229.697 0.104867 -1.91213 0
M  V30 2440 H 228.002 2.44464 -3.06177 0
M  V30 2441 H 229.699 2.19015 -3.35907 0
M  V30 2442 H 226.289 1.00542 -4.16641 0
M  V30 2443 H 230.473 0.410408 -4.946 0
M  V30 2444 H 225.729 -0.404524 -6.1006 0
M  V30 2445 H 229.903 -0.993922 -6.89271 0
M  V30 2446 H 227.53 -1.40742 -7.47058 0
M  V30 2447 N 229.106 1.52395 0.401703 0
M  V30 2448 C 230.517 1.58899 0.980202 0
M  V30 2449 C 230.868 0.434032 1.91339 0
M  V30 2450 O 229.993 -0.444619 2.11783 0
M  V30 2451 C 230.588 2.87994 1.78451 0
M  V30 2452 C 229.147 2.96953 2.31292 0
M  V30 2453 C 228.294 2.53903 1.11483 0
M  V30 2454 H 231.245 1.57657 0.18168 0
M  V30 2455 H 231.266 2.73765 2.64259 0
M  V30 2456 H 230.778 3.72035 1.10506 0
M  V30 2457 H 228.879 2.17422 3.02586 0
M  V30 2458 H 228.992 4.01344 2.61649 0
M  V30 2459 H 227.356 2.07925 1.47104 0
M  V30 2460 H 228.139 3.40326 0.450928 0
M  V30 2461 N 230.584 -0.659388 1.43143 0
M  V30 2462 C 231.995 -1.24041 1.39537 0
M  V30 2463 C 232.346 -1.95963 0.0963364 0
M  V30 2464 O 231.471 -2.00892 -0.804438 0
M  V30 2465 C 232.066 -2.25601 2.52764 0
M  V30 2466 C 230.625 -2.79195 2.52443 0
M  V30 2467 C 229.772 -1.53743 2.30778 0
M  V30 2468 H 232.723 -0.451792 1.52133 0
M  V30 2469 H 232.744 -3.07651 2.23899 0
M  V30 2470 H 232.256 -1.73226 3.47296 0
M  V30 2471 H 230.357 -3.35649 1.61773 0
M  V30 2472 H 230.47 -3.2716 3.50004 0
M  V30 2473 H 228.834 -1.80869 1.79328 0
M  V30 2474 H 229.617 -1.03312 3.27386 0
M  V30 2475 N 232.062 -1.29571 -0.897171 0
M  V30 2476 C 233.308 -1.17863 -1.65034 0
M  V30 2477 C 233.641 0.268729 -1.92332 0
M  V30 2478 O 232.916 1.19378 -1.53555 0
M  V30 2479 C 233.199 -1.995 -2.99786 0
M  V30 2480 C 233.052 -3.5239 -2.79538 0
M  V30 2481 C 234.371 -1.82335 -4.00552 0
M  V30 2482 H 231.49 -0.429528 -0.598895 0
M  V30 2483 H 234.132 -1.59072 -1.03905 0
M  V30 2484 H 232.282 -1.64485 -3.51962 0
M  V30 2485 H 233.954 -3.97401 -2.34244 0
M  V30 2486 H 232.197 -3.77187 -2.14273 0
M  V30 2487 H 232.868 -4.04787 -3.75302 0
M  V30 2488 H 235.344 -2.12924 -3.57495 0
M  V30 2489 H 234.22 -2.41801 -4.92771 0
M  V30 2490 H 234.481 -0.779209 -4.35179 0
M  V30 2491 N 233.54 1.10788 -1.12088 0
M  V30 2492 C 234.487 2.17025 -0.785407 0
M  V30 2493 C 235.457 1.64265 0.246191 0
M  V30 2494 O 236.642 1.90412 0.121584 0
M  V30 2495 C 233.782 3.44249 -0.242177 0
M  V30 2496 C 232.895 4.1098 -1.33115 0
M  V30 2497 C 232.03 5.25911 -0.747741 0
M  V30 2498 C 231.069 5.84538 -1.81609 0
M  V30 2499 N 230.206 6.90853 -1.25167 0
M  V30 2500 H 235.046 2.45066 -1.69548 0
M  V30 2501 H 232.583 1.20297 -0.846582 0
M  V30 2502 H 234.541 4.17101 0.0908026 0
M  V30 2503 H 233.171 3.16571 0.631072 0
M  V30 2504 H 232.223 3.36133 -1.78097 0
M  V30 2505 H 233.535 4.50601 -2.13917 0
M  V30 2506 H 232.689 6.056 -0.365216 0
M  V30 2507 H 231.428 4.87614 0.0915188 0
M  V30 2508 H 230.433 5.03522 -2.20785 0
M  V30 2509 H 231.658 6.249 -2.6585 0
M  V30 2510 H 229.604 6.54562 -0.434174 0
M  V30 2511 H 229.521 7.29166 -1.99633 0
M  V30 2512 H 230.789 7.7433 -0.896259 0
M  V30 2513 N 235.018 0.912232 1.28515 0
M  V30 2514 C 236.266 0.543523 1.94654 0
M  V30 2515 C 236.587 -0.9155 1.72173 0
M  V30 2516 O 235.857 -1.64708 1.06058 0
M  V30 2517 H 234.437 0.198017 0.720277 0
M  V30 2518 H 237.099 1.16126 1.56527 0
M  V30 2519 H 236.195 0.736684 3.03281 0
M  V30 2520 N 236.496 -1.42363 0.676048 0
M  V30 2521 C 237.745 -2.00745 0.196037 0
M  V30 2522 C 238.058 -1.54083 -1.20489 0
M  V30 2523 O 239.264 -2.04891 -1.78134 0
M  V30 2524 C 237.72 -3.58651 0.299616 0
M  V30 2525 C 237.328 -4.143 1.70468 0
M  V30 2526 C 239.072 -4.24326 -0.121619 0
M  V30 2527 C 236.979 -5.64574 1.76096 0
M  V30 2528 H 235.909 -0.750787 0.0695301 0
M  V30 2529 H 238.56 -1.63072 0.841412 0
M  V30 2530 H 236.942 -3.93833 -0.413673 0
M  V30 2531 H 238.116 -3.90575 2.44515 0
M  V30 2532 H 236.431 -3.61081 2.07387 0
M  V30 2533 H 239.028 -5.34607 -0.0997362 0
M  V30 2534 H 239.371 -3.99897 -1.15708 0
M  V30 2535 H 239.904 -3.94108 0.540706 0
M  V30 2536 H 236.643 -5.93804 2.77628 0
M  V30 2537 H 236.163 -5.90286 1.06406 0
M  V30 2538 H 237.842 -6.29013 1.51496 0
M  V30 2539 N 237.974 -0.419461 -1.51915 0
M  V30 2540 C 238.884 0.407528 -2.31033 0
M  V30 2541 C 239.9 1.04413 -1.3919 0
M  V30 2542 O 241.076 1.0434 -1.72265 0
M  V30 2543 C 238.141 1.50365 -3.12396 0
M  V30 2544 C 237.202 0.889029 -4.19994 0
M  V30 2545 C 236.435 1.93291 -4.97468 0
M  V30 2546 O 236.658 3.15259 -4.75361 0
M  V30 2547 O 235.592 1.53339 -5.8204 0
M  V30 2548 H 239.418 -0.237865 -3.02767 0
M  V30 2549 H 237.003 -0.182413 -1.48282 0
M  V30 2550 H 238.885 2.13975 -3.63032 0
M  V30 2551 H 237.56 2.13345 -2.43445 0
M  V30 2552 H 236.467 0.215353 -3.7348 0
M  V30 2553 H 237.8 0.302991 -4.91267 0
M  V30 2554 N 239.452 1.56882 -0.150215 0
M  V30 2555 C 240.4 2.18214 0.805313 0
M  V30 2556 C 241.394 1.14006 1.25296 0
M  V30 2557 O 242.6 1.3225 1.22107 0
M  V30 2558 H 238.975 0.698762 0.277913 0
M  V30 2559 H 240.946 2.97231 0.263862 0
M  V30 2560 C 239.695 2.82065 2.03309 0
M  V30 2561 H 239.018 3.61968 1.69763 0
M  V30 2562 H 240.458 3.28477 2.68103 0
M  V30 2563 C 238.917 1.80739 2.84315 0
M  V30 2564 O 239.447 1.27983 3.80767 0
M  V30 2565 N 237.653 1.4997 2.48913 0
M  V30 2566 H 237.2 1.93062 1.70542 0
M  V30 2567 H 237.158 0.824217 3.03404 0
M  V30 2568 N 240.93 -0.123565 1.57115 0
M  V30 2569 C 242.158 -0.846461 1.88793 0
M  V30 2570 C 242.573 -1.73652 0.740976 0
M  V30 2571 O 241.93 -1.80207 -0.288393 0
M  V30 2572 C 241.981 -1.6837 3.19897 0
M  V30 2573 O 241.702 -0.829477 4.30176 0
M  V30 2574 C 243.203 -2.51214 3.65248 0
M  V30 2575 H 240.423 -0.243573 0.625231 0
M  V30 2576 H 242.967 -0.109324 2.04208 0
M  V30 2577 H 241.122 -2.37364 3.06165 0
M  V30 2578 H 241.536 -1.40651 5.0529 0
M  V30 2579 H 243.01 -3.05497 4.59756 0
M  V30 2580 H 243.487 -3.28359 2.9168 0
M  V30 2581 H 244.093 -1.8747 3.81752 0
M  V30 2582 N 242.408 -1.52605 -0.393616 0
M  V30 2583 C 243.657 -1.66649 -1.13627 0
M  V30 2584 C 243.97 -0.410364 -1.91247 0
M  V30 2585 O 245.176 -0.430854 -2.68059 0
M  V30 2586 C 243.632 -2.9449 -2.06891 0
M  V30 2587 C 243.24 -4.27266 -1.34714 0
M  V30 2588 C 244.984 -3.17899 -2.81319 0
M  V30 2589 C 242.891 -5.46217 -2.26717 0
M  V30 2590 H 241.821 -0.62084 -0.427871 0
M  V30 2591 H 244.472 -1.791 -0.399428 0
M  V30 2592 H 242.854 -2.75774 -2.84191 0
M  V30 2593 H 244.028 -4.56518 -0.626714 0
M  V30 2594 H 242.343 -4.10081 -0.722643 0
M  V30 2595 H 244.94 -4.03949 -3.50328 0
M  V30 2596 H 245.283 -2.32777 -3.45139 0
M  V30 2597 H 245.816 -3.37159 -2.11113 0
M  V30 2598 H 242.555 -6.33733 -1.67521 0
M  V30 2599 H 242.075 -5.21283 -2.96689 0
M  V30 2600 H 243.754 -5.7991 -2.86903 0
M  V30 2601 N 243.887 0.651787 -1.4349 0
M  V30 2602 C 245.112 1.44434 -1.48841 0
M  V30 2603 C 245.537 1.8779 -0.107955 0
M  V30 2604 O 244.895 1.57464 0.898602 0
M  V30 2605 C 244.943 2.65458 -2.44059 0
M  V30 2606 O 244.047 3.64566 -1.92784 0
M  V30 2607 H 243.388 0.433005 -0.503391 0
M  V30 2608 H 245.918 0.797451 -1.88419 0
M  V30 2609 H 245.928 3.13255 -2.6141 0
M  V30 2610 H 244.603 2.33244 -3.4434 0
M  V30 2611 H 243.18 3.23716 -1.851 0
M  V30 2612 N 245.365 1.30045 0.890287 0
M  V30 2613 C 246.59 1.21598 1.68014 0
M  V30 2614 C 247.015 -0.218678 1.86825 0
M  V30 2615 O 246.373 -1.15756 1.39536 0
M  V30 2616 C 246.421 1.94434 3.03691 0
M  V30 2617 O 245.525 1.2678 3.92429 0
M  V30 2618 H 244.866 0.420856 0.513592 0
M  V30 2619 H 247.396 1.71775 1.11151 0
M  V30 2620 H 247.406 2.03251 3.5377 0
M  V30 2621 H 246.081 2.98777 2.89318 0
M  V30 2622 H 244.658 1.26282 3.50866 0
M  V30 2623 N 246.843 -1.10192 1.12674 0
M  V30 2624 C 248.12 -1.78717 0.794965 0
M  V30 2625 C 248.5 -1.98628 -0.714853 0
M  V30 2626 O 247.848 -1.58135 -1.64941 0
M  V30 2627 C 248.058 -3.11546 1.5729 0
M  V30 2628 C 249.406 -3.86382 1.76052 0
M  V30 2629 O 250.43 -3.21274 1.53823 0
M  V30 2630 O 249.289 -5.03246 2.13087 0
M  V30 2631 H 246.383 -0.774702 0.289423 0
M  V30 2632 H 248.929 -1.16819 1.23091 0
M  V30 2633 H 247.701 -2.92489 2.59935 0
M  V30 2634 H 247.324 -3.81164 1.13137 0
M  V30 2635 N 248.321 -0.919034 -1.28029 0
M  V30 2636 C 249.231 -0.416756 -2.30869 0
M  V30 2637 C 250.247 0.498235 -1.66714 0
M  V30 2638 O 251.423 0.383144 -1.97722 0
M  V30 2639 C 248.488 0.330274 -3.45123 0
M  V30 2640 C 247.549 -0.618578 -4.2482 0
M  V30 2641 C 246.782 0.0928959 -5.33619 0
M  V30 2642 O 247.005 1.31375 -5.55065 0
M  V30 2643 O 245.939 -0.574499 -5.99152 0
M  V30 2644 H 249.765 -1.27043 -2.75851 0
M  V30 2645 H 247.35 -0.684052 -1.3282 0
M  V30 2646 H 249.232 0.751972 -4.14636 0
M  V30 2647 H 247.907 1.1597 -3.02213 0
M  V30 2648 H 246.814 -1.08978 -3.57875 0
M  V30 2649 H 248.147 -1.41497 -4.71423 0
M  V30 2650 N 249.799 1.42003 -0.683588 0
M  V30 2651 C 251.046 2.01413 -0.209514 0
M  V30 2652 C 251.374 1.54088 1.1869 0
M  V30 2653 O 250.629 0.737591 1.81268 0
M  V30 2654 C 250.928 3.56827 -0.202357 0
M  V30 2655 C 250.594 4.23617 -1.54464 0
M  V30 2656 C 249.256 4.41577 -1.91215 0
M  V30 2657 C 251.608 4.61178 -2.42826 0
M  V30 2658 C 248.936 4.9437 -3.15935 0
M  V30 2659 C 251.288 5.15355 -3.66867 0
M  V30 2660 C 249.952 5.31528 -4.03776 0
M  V30 2661 H 249.222 0.737023 -0.0766668 0
M  V30 2662 H 251.869 1.70067 -0.880312 0
M  V30 2663 H 250.174 3.87892 0.551969 0
M  V30 2664 H 251.871 4.00588 0.181793 0
M  V30 2665 H 248.461 4.10004 -1.24877 0
M  V30 2666 H 252.645 4.46968 -2.15717 0
M  V30 2667 H 247.901 5.05076 -3.44541 0
M  V30 2668 H 252.075 5.43402 -4.35531 0
M  V30 2669 H 249.702 5.72199 -5.00492 0
M  V30 2670 N 251.277 0.427512 1.51691 0
M  V30 2671 C 252.524 -0.142229 2.02 0
M  V30 2672 C 252.852 -1.43566 1.31221 0
M  V30 2673 O 252.107 -1.91298 0.412744 0
M  V30 2674 C 252.406 -0.418249 3.54944 0
M  V30 2675 C 252.072 0.788187 4.43958 0
M  V30 2676 C 250.734 1.11906 4.68007 0
M  V30 2677 C 253.086 1.59347 4.96244 0
M  V30 2678 C 250.414 2.25608 5.41588 0
M  V30 2679 C 252.766 2.7214 5.71072 0
M  V30 2680 C 251.43 3.05692 5.93387 0
M  V30 2681 H 250.7 -0.0520451 0.73917 0
M  V30 2682 H 253.347 0.572697 1.82736 0
M  V30 2683 H 251.652 -1.21496 3.72486 0
M  V30 2684 H 253.349 -0.872339 3.91397 0
M  V30 2685 H 249.939 0.520344 4.2543 0
M  V30 2686 H 254.123 1.35106 4.77556 0
M  V30 2687 H 249.379 2.51929 5.57083 0
M  V30 2688 H 253.553 3.34914 6.10578 0
M  V30 2689 H 251.18 3.9391 6.50184 0
M  V30 2690 N 252.755 -1.56801 0.158532 0
M  V30 2691 C 253.703 -2.18638 -0.793729 0
M  V30 2692 C 254.697 -1.14669 -1.24689 0
M  V30 2693 O 255.903 -1.32895 -1.21403 0
M  V30 2694 H 252.278 -0.700226 -0.274204 0
M  V30 2695 H 254.249 -2.97367 -0.248095 0
M  V30 2696 C 252.998 -2.83139 -2.0181 0
M  V30 2697 H 252.321 -3.62863 -1.67841 0
M  V30 2698 H 253.761 -3.29894 -2.66357 0
M  V30 2699 C 252.22 -1.82244 -2.83353 0
M  V30 2700 O 252.75 -1.3 -3.80083 0
M  V30 2701 N 250.956 -1.51288 -2.48114 0
M  V30 2702 H 250.503 -1.93964 -1.69516 0
M  V30 2703 H 250.461 -0.840296 -3.02963 0
M  V30 2704 N 254.233 0.115231 -1.57178 0
M  V30 2705 C 255.482 0.820945 -1.84237 0
M  V30 2706 C 255.795 1.80866 -0.744761 0
M  V30 2707 O 257.001 2.56083 -0.901871 0
M  V30 2708 C 255.457 1.51072 -3.26658 0
M  V30 2709 C 255.065 0.563795 -4.44438 0
M  V30 2710 C 256.809 2.20134 -3.62962 0
M  V30 2711 C 254.716 1.25701 -5.77887 0
M  V30 2712 H 253.646 0.310328 -0.687177 0
M  V30 2713 H 256.297 0.0737134 -1.83352 0
M  V30 2714 H 254.679 2.30471 -3.22024 0
M  V30 2715 H 255.853 -0.197247 -4.60378 0
M  V30 2716 H 254.168 -0.0200638 -4.16395 0
M  V30 2717 H 256.765 2.72696 -4.59936 0
M  V30 2718 H 257.108 2.98107 -2.90582 0
M  V30 2719 H 257.641 1.47619 -3.69396 0
M  V30 2720 H 254.38 0.518493 -6.53446 0
M  V30 2721 H 253.9 1.98997 -5.65827 0
M  V30 2722 H 255.579 1.78915 -6.2177 0
M  V30 2723 N 255.711 1.52812 0.385517 0
M  V30 2724 C 256.658 1.77838 1.47113 0
M  V30 2725 C 257.628 0.621757 1.54024 0
M  V30 2726 O 258.813 0.861846 1.70226 0
M  V30 2727 C 255.953 1.95618 2.84302 0
M  V30 2728 C 255.066 3.23316 2.86515 0
M  V30 2729 C 254.201 3.31394 4.15152 0
M  V30 2730 C 253.24 4.53201 4.1143 0
M  V30 2731 N 252.377 4.58542 5.3168 0
M  V30 2732 H 257.217 2.70482 1.25073 0
M  V30 2733 H 254.754 1.34006 0.606692 0
M  V30 2734 H 256.712 2.03912 3.63972 0
M  V30 2735 H 255.342 1.06331 3.04784 0
M  V30 2736 H 254.394 3.24076 1.99195 0
M  V30 2737 H 255.706 4.13045 2.79634 0
M  V30 2738 H 254.86 3.3889 5.03228 0
M  V30 2739 H 253.599 2.39645 4.24761 0
M  V30 2740 H 252.604 4.45827 3.21742 0
M  V30 2741 H 253.829 5.46271 4.03442 0
M  V30 2742 H 251.775 3.69686 5.41912 0
M  V30 2743 H 251.692 5.42148 5.26889 0
M  V30 2744 H 252.96 4.70296 6.21644 0
M  V30 2745 N 257.189 -0.644168 1.43834 0
M  V30 2746 C 258.099 -1.78563 1.52159 0
M  V30 2747 C 259.115 -1.69147 0.408069 0
M  V30 2748 O 260.291 -1.90156 0.663524 0
M  V30 2749 C 257.356 -3.14888 1.45073 0
M  V30 2750 C 256.417 -3.36034 2.6717 0
M  V30 2751 C 255.65 -4.65855 2.60413 0
M  V30 2752 O 255.873 -5.45805 1.65689 0
M  V30 2753 O 254.807 -4.88918 3.5106 0
M  V30 2754 H 258.633 -1.74494 2.48567 0
M  V30 2755 H 256.218 -0.80378 1.25935 0
M  V30 2756 H 258.1 -3.96179 1.43597 0
M  V30 2757 H 256.775 -3.19528 0.518037 0
M  V30 2758 H 255.682 -2.54472 2.74217 0
M  V30 2759 H 257.015 -3.36247 3.59442 0
M  V30 2760 N 258.668 -1.30515 -0.883378 0
M  V30 2761 C 259.893 -1.22487 -1.67367 0
M  V30 2762 C 260.318 0.208767 -1.86938 0
M  V30 2763 O 259.676 1.15015 -1.40148 0
M  V30 2764 C 259.724 -1.96041 -3.02655 0
M  V30 2765 O 258.828 -1.28859 -3.91751 0
M  V30 2766 H 258.169 -0.423573 -0.511353 0
M  V30 2767 H 260.699 -1.72362 -1.10239 0
M  V30 2768 H 260.709 -2.05124 -3.52687 0
M  V30 2769 H 259.384 -3.00307 -2.8773 0
M  V30 2770 H 257.961 -1.28141 -3.50192 0
M  V30 2771 N 260.146 1.09593 -1.13257 0
M  V30 2772 C 261.093 2.1618 -0.808381 0
M  V30 2773 C 262.063 1.64517 0.228754 0
M  V30 2774 O 263.248 1.9053 0.101381 0
M  V30 2775 C 260.388 3.43973 -0.278675 0
M  V30 2776 C 259.501 4.09545 -1.37466 0
M  V30 2777 C 258.636 5.25088 -0.803479 0
M  V30 2778 C 257.675 5.82579 -1.87799 0
M  V30 2779 N 256.812 6.89486 -1.32488 0
M  V30 2780 H 261.652 2.43254 -1.72138 0
M  V30 2781 H 259.189 1.19392 -0.859294 0
M  V30 2782 H 261.147 4.17174 0.0465583 0
M  V30 2783 H 259.777 3.17223 0.597459 0
M  V30 2784 H 258.829 3.34226 -1.81652 0
M  V30 2785 H 260.141 4.48307 -2.18684 0
M  V30 2786 H 259.295 6.05178 -0.429427 0
M  V30 2787 H 258.034 4.87684 0.0397956 0
M  V30 2788 H 257.039 5.01152 -2.26113 0
M  V30 2789 H 258.264 6.22045 -2.72463 0
M  V30 2790 H 256.21 6.54064 -0.503575 0
M  V30 2791 H 256.127 7.27007 -2.07355 0
M  V30 2792 H 257.395 7.73336 -0.978336 0
M  V30 2793 N 261.624 0.925811 1.2754 0
M  V30 2794 C 262.571 0.422045 2.26908 0
M  V30 2795 C 263.541 -0.510029 1.58076 0
M  V30 2796 O 264.726 -0.429599 1.85901 0
M  V30 2797 C 261.866 -0.320837 3.43605 0
M  V30 2798 C 260.979 0.64513 4.27156 0
M  V30 2799 C 260.114 -0.117405 5.3107 0
M  V30 2800 C 259.153 0.841391 6.0629 0
M  V30 2801 N 258.29 0.111604 7.02011 0
M  V30 2802 H 263.13 1.27441 2.69375 0
M  V30 2803 H 260.667 0.639697 1.32462 0
M  V30 2804 H 262.625 -0.76785 4.10073 0
M  V30 2805 H 261.255 -1.13745 3.02096 0
M  V30 2806 H 260.307 1.21067 3.6062 0
M  V30 2807 H 261.619 1.37797 4.79389 0
M  V30 2808 H 260.773 -0.624422 6.03478 0
M  V30 2809 H 259.512 -0.883219 4.79636 0
M  V30 2810 H 258.517 1.35967 5.32722 0
M  V30 2811 H 259.742 1.60696 6.59813 0
M  V30 2812 H 257.688 -0.635999 6.5291 0
M  V30 2813 H 257.605 0.784044 7.51923 0
M  V30 2814 H 258.873 -0.374823 7.78598 0
M  V30 2815 N 263.102 -1.41638 0.69111 0
M  V30 2816 C 264.351 -2.00526 0.217318 0
M  V30 2817 C 264.664 -1.55353 -1.18848 0
M  V30 2818 O 265.87 -2.06769 -1.75951 0
M  V30 2819 C 264.326 -3.58313 0.337639 0
M  V30 2820 C 263.934 -4.12469 1.74852 0
M  V30 2821 C 265.678 -4.24431 -0.0766066 0
M  V30 2822 C 263.585 -5.62675 1.82074 0
M  V30 2823 H 262.515 -0.750008 0.0774893 0
M  V30 2824 H 265.166 -1.6217 0.858661 0
M  V30 2825 H 263.548 -3.9425 -0.371879 0
M  V30 2826 H 264.722 -3.8796 2.48644 0
M  V30 2827 H 263.037 -3.58861 2.11205 0
M  V30 2828 H 265.634 -5.34683 -0.0430284 0
M  V30 2829 H 265.977 -4.01101 -1.1146 0
M  V30 2830 H 266.51 -3.93512 0.582476 0
M  V30 2831 H 263.249 -5.90826 2.83911 0
M  V30 2832 H 262.769 -5.89124 1.12661 0
M  V30 2833 H 264.448 -6.27371 1.58159 0
M  V30 2834 N 264.58 -0.43555 -1.51462 0
M  V30 2835 C 265.828 0.131254 -2.01673 0
M  V30 2836 C 266.149 1.43368 -1.32177 0
M  V30 2837 O 265.419 1.90524 -0.455769 0
M  V30 2838 H 263.999 0.0514954 -0.745223 0
M  V30 2839 H 266.661 -0.577847 -1.86137 0
M  V30 2840 H 265.757 0.308446 -3.10572 0
M  V30 2841 N 266.058 1.56714 -0.166846 0
M  V30 2842 C 267.307 1.95922 0.479318 0
M  V30 2843 C 267.62 1.05529 1.6469 0
M  V30 2844 O 268.826 1.34399 2.35901 0
M  V30 2845 C 267.282 3.48359 0.90412 0
M  V30 2846 C 266.89 4.47369 -0.237621 0
M  V30 2847 C 268.634 3.96394 1.51896 0
M  V30 2848 C 266.541 5.91039 0.206561 0
M  V30 2849 H 265.471 0.731495 0.18284 0
M  V30 2850 H 268.122 1.81728 -0.254363 0
M  V30 2851 H 266.504 3.57955 1.69365 0
M  V30 2852 H 267.678 4.49485 -1.01489 0
M  V30 2853 H 265.993 4.09366 -0.762128 0
M  V30 2854 H 268.59 5.01186 1.86325 0
M  V30 2855 H 268.933 3.39075 2.41524 0
M  V30 2856 H 269.466 3.89796 0.79395 0
M  V30 2857 H 266.205 6.52221 -0.654834 0
M  V30 2858 H 265.725 5.9224 0.949282 0
M  V30 2859 H 267.404 6.43707 0.651939 0
M  V30 2860 N 267.536 -0.106894 1.57237 0
M  V30 2861 C 268.782 -0.81373 1.85759 0
M  V30 2862 C 269.115 -1.78952 0.754315 0
M  V30 2863 O 268.39 -1.93029 -0.23879 0
M  V30 2864 C 268.673 -1.55293 3.24894 0
M  V30 2865 C 268.526 -0.595929 4.45835 0
M  V30 2866 C 269.845 -2.5063 3.61763 0
M  V30 2867 H 266.964 -0.294369 0.67566 0
M  V30 2868 H 269.606 -0.0776472 1.89841 0
M  V30 2869 H 267.756 -2.1804 3.21544 0
M  V30 2870 H 269.428 0.0236262 4.61294 0
M  V30 2871 H 267.671 0.0916191 4.33703 0
M  V30 2872 H 268.342 -1.15004 5.39887 0
M  V30 2873 H 270.818 -1.97982 3.65981 0
M  V30 2874 H 269.694 -2.99376 4.60071 0
M  V30 2875 H 269.955 -3.3385 2.89821 0
M  V30 2876 N 269.014 -1.53014 -0.377408 0
M  V30 2877 C 270.262 -1.6829 -1.11906 0
M  V30 2878 C 270.583 -0.431206 -1.90173 0
M  V30 2879 O 269.853 0.554595 -1.87886 0
M  V30 2880 H 268.433 -0.620371 -0.416112 0
M  V30 2881 H 271.095 -1.90167 -0.426893 0
M  V30 2882 H 270.191 -2.53862 -1.8155 0
M  V30 2883 N 270.492 0.636531 -1.44174 0
M  V30 2884 C 271.717 1.42847 -1.50364 0
M  V30 2885 C 272.142 1.87665 -0.127867 0
M  V30 2886 O 271.5 1.58408 0.88185 0
M  V30 2887 C 271.548 2.62854 -2.4686 0
M  V30 2888 O 270.652 3.62501 -1.9664 0
M  V30 2889 H 269.993 0.427642 -0.507955 0
M  V30 2890 H 272.523 0.777422 -1.89255 0
M  V30 2891 H 272.533 3.10465 -2.64718 0
M  V30 2892 H 271.208 2.29578 -3.46795 0
M  V30 2893 H 269.785 3.21735 -1.88523 0
M  V30 2894 N 271.97 1.30982 0.876444 0
M  V30 2895 C 273.218 1.20058 1.62575 0
M  V30 2896 C 273.539 -0.242947 1.93481 0
M  V30 2897 O 272.809 -1.1619 1.57724 0
M  V30 2898 H 271.389 0.44135 0.602677 0
M  V30 2899 H 274.051 1.64222 1.04962 0
M  V30 2900 H 273.147 1.76762 2.57219 0
M  V30 2901 N 273.449 -1.08991 1.13837 0
M  V30 2902 C 274.679 -1.84743 0.924859 0
M  V30 2903 C 275.087 -1.81629 -0.529874 0
M  V30 2904 O 274.43 -1.21397 -1.37872 0
M  V30 2905 C 274.492 -3.33568 1.34061 0
M  V30 2906 C 274.156 -3.60425 2.80968 0
M  V30 2907 C 275.153 -3.55771 3.79108 0
M  V30 2908 C 272.838 -3.88627 3.18236 0
M  V30 2909 C 274.832 -3.78939 5.12527 0
M  V30 2910 C 272.519 -4.11449 4.51833 0
M  V30 2911 C 273.517 -4.06598 5.48787 0
M  V30 2912 O 273.205 -4.28826 6.79973 0
M  V30 2913 H 272.937 -0.590258 0.329502 0
M  V30 2914 H 275.491 -1.38598 1.51591 0
M  V30 2915 H 273.721 -3.80442 0.692853 0
M  V30 2916 H 275.41 -3.90743 1.09886 0
M  V30 2917 H 276.176 -3.34005 3.51661 0
M  V30 2918 H 272.055 -3.91526 2.43369 0
M  V30 2919 H 275.599 -3.75068 5.88192 0
M  V30 2920 H 271.496 -4.32698 4.79002 0
M  V30 2921 H 272.264 -4.46264 6.86142 0
M  V30 2922 N 274.927 -0.932562 -1.27047 0
M  V30 2923 C 276.176 -0.571351 -1.93439 0
M  V30 2924 C 276.489 0.892467 -1.74053 0
M  V30 2925 O 277.695 1.36267 -2.34826 0
M  V30 2926 C 276.151 -0.97106 -3.46552 0
M  V30 2927 C 275.759 -2.4559 -3.74686 0
M  V30 2928 C 277.503 -0.681333 -4.18997 0
M  V30 2929 C 275.41 -2.79475 -5.21198 0
M  V30 2930 H 274.34 -0.209966 -0.724176 0
M  V30 2931 H 276.991 -1.13403 -1.44263 0
M  V30 2932 H 275.373 -0.336983 -3.94564 0
M  V30 2933 H 276.547 -3.13829 -3.37414 0
M  V30 2934 H 274.862 -2.71802 -3.15456 0
M  V30 2935 H 277.459 -0.910939 -5.26883 0
M  V30 2936 H 277.802 0.381628 -4.14547 0
M  V30 2937 H 278.335 -1.27473 -3.76823 0
M  V30 2938 H 275.074 -3.847 -5.30741 0
M  V30 2939 H 274.594 -2.1589 -5.596 0
M  V30 2940 H 276.273 -2.67478 -5.89122 0
M  V30 2941 N 276.405 1.4127 -0.698611 0
M  V30 2942 C 277.368 2.29158 -0.044132 0
M  V30 2943 C 278.368 1.44529 0.704841 0
M  V30 2944 O 279.558 1.65643 0.539276 0
M  V30 2945 C 276.69 3.27459 0.947809 0
M  V30 2946 H 277.883 2.88529 -0.817994 0
M  V30 2947 H 275.436 1.49307 -0.46228 0
M  V30 2948 H 276.171 2.73073 1.74933 0
M  V30 2949 H 275.956 3.8991 0.41385 0
M  V30 2950 H 277.446 3.93311 1.40344 0
M  V30 2951 N 277.883 0.443576 1.51229 0
M  V30 2952 C 279.129 -0.120975 2.02439 0
M  V30 2953 C 279.462 -1.41815 1.32674 0
M  V30 2954 O 278.737 -1.89373 0.443622 0
M  V30 2955 C 279.02 -0.333291 3.58554 0
M  V30 2956 C 278.873 0.982968 4.38928 0
M  V30 2957 C 280.192 -1.10028 4.26124 0
M  V30 2958 H 277.311 -0.0424923 0.735774 0
M  V30 2959 H 279.953 0.583794 1.80809 0
M  V30 2960 H 278.103 -0.933614 3.77115 0
M  V30 2961 H 279.775 1.61775 4.32003 0
M  V30 2962 H 278.018 1.58611 4.03763 0
M  V30 2963 H 278.689 0.788379 5.46341 0
M  V30 2964 H 281.165 -0.591711 4.11871 0
M  V30 2965 H 280.041 -1.21761 5.35225 0
M  V30 2966 H 280.302 -2.12996 3.87408 0
M  V30 2967 N 279.361 -1.56624 0.175154 0
M  V30 2968 C 280.271 -2.21741 -0.766042 0
M  V30 2969 C 281.287 -1.21023 -1.25018 0
M  V30 2970 O 282.463 -1.53697 -1.3015 0
M  V30 2971 C 279.528 -2.84839 -1.97655 0
M  V30 2972 C 278.589 -4.00769 -1.53892 0
M  V30 2973 C 277.822 -4.60849 -2.69173 0
M  V30 2974 O 278.045 -4.19823 -3.86141 0
M  V30 2975 O 276.979 -5.50655 -2.43028 0
M  V30 2976 H 280.805 -3.02738 -0.241585 0
M  V30 2977 H 278.39 -1.49305 -0.053222 0
M  V30 2978 H 280.272 -3.24834 -2.68442 0
M  V30 2979 H 278.947 -2.06836 -2.48999 0
M  V30 2980 H 277.854 -3.65436 -0.80044 0
M  V30 2981 H 279.187 -4.80376 -1.07236 0
M  V30 2982 N 280.839 0.0985539 -1.57292 0
M  V30 2983 C 281.769 1.12064 -2.04851 0
M  V30 2984 C 282.75 1.41981 -0.936767 0
M  V30 2985 O 283.935 1.52071 -1.20781 0
M  V30 2986 C 281.065 2.44144 -2.47004 0
M  V30 2987 C 280.019 2.28643 -3.6181 0
M  V30 2988 C 279.345 3.65869 -3.89929 0
M  V30 2989 C 280.645 1.72986 -4.92822 0
M  V30 2990 H 282.339 0.724979 -2.9049 0
M  V30 2991 H 279.885 0.34729 -1.39749 0
M  V30 2992 H 281.838 3.15914 -2.78884 0
M  V30 2993 H 280.562 2.85639 -1.5836 0
M  V30 2994 H 279.221 1.59318 -3.30172 0
M  V30 2995 H 278.869 4.04885 -2.98458 0
M  V30 2996 H 278.569 3.56344 -4.67218 0
M  V30 2997 H 280.093 4.39112 -4.2428 0
M  V30 2998 H 281.507 2.34593 -5.23105 0
M  V30 2999 H 279.904 1.74229 -5.74251 0
M  V30 3000 H 280.974 0.689007 -4.7998 0
M  V30 3001 N 282.317 1.53212 0.369288 0
M  V30 3002 C 283.566 1.68436 1.10961 0
M  V30 3003 C 283.879 0.440738 1.9057 0
M  V30 3004 O 285.085 0.473446 2.6734 0
M  V30 3005 C 283.541 2.97744 2.0218 0
M  V30 3006 C 283.149 4.29355 1.279 0
M  V30 3007 C 284.893 3.22334 2.76226 0
M  V30 3008 C 282.8 5.49755 2.17999 0
M  V30 3009 H 281.73 0.627568 0.41794 0
M  V30 3010 H 284.381 1.79713 0.370884 0
M  V30 3011 H 282.763 2.8026 2.79768 0
M  V30 3012 H 283.937 4.57458 0.554007 0
M  V30 3013 H 282.252 4.11179 0.657311 0
M  V30 3014 H 284.849 4.09471 3.43857 0
M  V30 3015 H 285.192 2.38238 3.41392 0
M  V30 3016 H 285.725 3.40475 2.05723 0
M  V30 3017 H 282.464 6.36318 1.57417 0
M  V30 3018 H 281.984 5.25937 2.88359 0
M  V30 3019 H 283.663 5.84401 2.77641 0
M  V30 3020 N 283.795 -0.628877 1.44509 0
M  V30 3021 C 284.743 -1.76193 1.51852 0
M  V30 3022 C 285.737 -1.64849 0.390042 0
M  V30 3023 O 286.943 -1.709 0.565082 0
M  V30 3024 H 283.318 -0.581728 0.476547 0
M  V30 3025 H 285.289 -1.67123 2.47209 0
M  V30 3026 C 284.038 -3.14533 1.48204 0
M  V30 3027 H 283.361 -3.23911 2.34354 0
M  V30 3028 H 284.801 -3.93701 1.57402 0
M  V30 3029 C 283.26 -3.36287 0.203142 0
M  V30 3030 O 283.79 -3.9509 -0.725745 0
M  V30 3031 N 281.996 -2.90408 0.105563 0
M  V30 3032 H 281.543 -2.42739 0.862301 0
M  V30 3033 H 281.501 -3.05339 -0.749371 0
M  V30 3034 N 285.273 -1.31445 -0.869486 0
M  V30 3035 C 286.519 -1.21337 -1.62496 0
M  V30 3036 C 286.852 0.227872 -1.92858 0
M  V30 3037 O 286.127 1.16094 -1.56053 0
M  V30 3038 C 286.41 -2.05814 -2.95487 0
M  V30 3039 C 286.263 -3.5824 -2.72 0
M  V30 3040 C 287.582 -1.9079 -3.96594 0
M  V30 3041 H 284.701 -0.442135 -0.589649 0
M  V30 3042 H 287.343 -1.6124 -1.00507 0
M  V30 3043 H 285.493 -1.71913 -3.48394 0
M  V30 3044 H 287.165 -4.0228 -2.25762 0
M  V30 3045 H 285.408 -3.81647 -2.06224 0
M  V30 3046 H 286.079 -4.12657 -3.66631 0
M  V30 3047 H 288.555 -2.20459 -3.52898 0
M  V30 3048 H 287.431 -2.52199 -4.87531 0
M  V30 3049 H 287.692 -0.871341 -4.33428 0
M  V30 3050 N 286.751 1.08385 -1.14413 0
M  V30 3051 C 288 1.80153 -0.907076 0
M  V30 3052 C 288.313 1.87176 0.567851 0
M  V30 3053 O 289.519 2.55359 0.922172 0
M  V30 3054 C 287.975 3.23687 -1.57336 0
M  V30 3055 C 287.583 3.24897 -3.08457 0
M  V30 3056 C 289.327 4.00136 -1.41744 0
M  V30 3057 C 287.234 4.6302 -3.67921 0
M  V30 3058 H 286.164 0.675139 -0.335714 0
M  V30 3059 H 288.815 1.21733 -1.37307 0
M  V30 3060 H 287.197 3.82234 -1.03505 0
M  V30 3061 H 288.371 2.76055 -3.68958 0
M  V30 3062 H 286.686 2.61943 -3.2369 0
M  V30 3063 H 289.283 5.02201 -1.83572 0
M  V30 3064 H 289.626 4.14709 -0.363576 0
M  V30 3065 H 290.159 3.48058 -1.92614 0
M  V30 3066 H 286.898 4.5365 -4.73161 0
M  V30 3067 H 286.418 5.12143 -3.12201 0
M  V30 3068 H 288.097 5.31994 -3.68227 0
M  V30 3069 N 288.23 0.939286 1.26551 0
M  V30 3070 C 289.177 0.446088 2.26448 0
M  V30 3071 C 290.147 -0.493234 1.58608 0
M  V30 3072 O 291.332 -0.409857 1.86346 0
M  V30 3073 C 288.472 -0.284375 3.43926 0
M  V30 3074 C 287.585 0.690399 4.26448 0
M  V30 3075 C 286.72 -0.0610712 5.31165 0
M  V30 3076 C 285.759 0.905649 6.05363 0
M  V30 3077 N 284.896 0.186055 7.01853 0
M  V30 3078 H 289.736 1.30291 2.68008 0
M  V30 3079 H 287.273 0.65371 1.31776 0
M  V30 3080 H 289.231 -0.724313 4.10864 0
M  V30 3081 H 287.861 -1.10535 3.03285 0
M  V30 3082 H 286.913 1.24885 3.59316 0
M  V30 3083 H 288.225 1.42873 4.779 0
M  V30 3084 H 287.379 -0.56038 6.04106 0
M  V30 3085 H 286.118 -0.832297 4.80546 0
M  V30 3086 H 285.123 1.4161 5.3125 0
M  V30 3087 H 286.348 1.67685 6.58072 0
M  V30 3088 H 284.294 -0.566714 6.53548 0
M  V30 3089 H 284.211 0.863752 7.51049 0
M  V30 3090 H 285.479 -0.292221 7.78952 0
M  V30 3091 N 289.708 -1.40897 0.706093 0
M  V30 3092 C 291.124 -1.55042 0.37869 0
M  V30 3093 C 291.324 -1.67944 -1.11342 0
M  V30 3094 O 290.38 -1.66372 -1.89938 0
M  V30 3095 C 291.693 -2.78398 1.13643 0
M  V30 3096 C 293.241 -2.92206 1.12181 0
M  V30 3097 C 293.716 -4.18463 1.86152 0
M  V30 3098 N 295.207 -4.25443 1.83173 0
M  V30 3099 C 295.942 -5.2202 2.37239 0
M  V30 3100 N 295.438 -6.24563 2.99821 0
M  V30 3101 N 297.231 -5.14033 2.27435 0
M  V30 3102 H 289.382 -1.30769 1.67372 0
M  V30 3103 H 291.645 -0.631653 0.706907 0
M  V30 3104 H 291.351 -2.7511 2.19106 0
M  V30 3105 H 291.225 -3.70228 0.721853 0
M  V30 3106 H 293.612 -2.95004 0.0754171 0
M  V30 3107 H 293.693 -2.01521 1.57554 0
M  V30 3108 H 293.337 -4.16427 2.90776 0
M  V30 3109 H 293.267 -5.08141 1.38206 0
M  V30 3110 H 295.758 -3.51976 1.37556 0
M  V30 3111 H 296.071 -6.94665 3.38616 0
M  V30 3112 H 294.416 -6.25035 3.03902 0
M  V30 3113 H 297.607 -4.3285 1.78208 0
M  V30 3114 H 297.78 -5.89129 2.69873 0
M  V30 3115 N 291.186 -0.45159 -1.50991 0
M  V30 3116 C 292.116 0.342898 -2.30969 0
M  V30 3117 C 293.097 1.00815 -1.37005 0
M  V30 3118 O 294.282 1.00907 -1.65926 0
M  V30 3119 C 291.412 1.43637 -3.16205 0
M  V30 3120 C 290.366 0.893818 -4.18563 0
M  V30 3121 C 289.692 2.08411 -4.92411 0
M  V30 3122 C 290.992 -0.0815568 -5.22236 0
M  V30 3123 H 292.686 -0.324556 -2.97636 0
M  V30 3124 H 290.232 -0.157531 -1.43136 0
M  V30 3125 H 292.185 1.9995 -3.70942 0
M  V30 3126 H 290.909 2.13232 -2.47386 0
M  V30 3127 H 289.568 0.352798 -3.64898 0
M  V30 3128 H 289.216 2.76658 -4.20082 0
M  V30 3129 H 288.916 1.72741 -5.61636 0
M  V30 3130 H 290.44 2.65251 -5.49976 0
M  V30 3131 H 291.854 0.391742 -5.7196 0
M  V30 3132 H 290.251 -0.351551 -5.99069 0
M  V30 3133 H 291.321 -1.01374 -4.74185 0
M  V30 3134 N 292.664 1.56529 -0.183458 0
M  V30 3135 C 293.912 1.96855 0.457452 0
M  V30 3136 C 294.233 1.07104 1.62953 0
M  V30 3137 O 293.503 0.139887 1.954 0
M  V30 3138 H 292.083 0.72693 0.171992 0
M  V30 3139 H 294.745 1.93056 -0.267476 0
M  V30 3140 H 293.841 3.01423 0.809368 0
M  V30 3141 N 294.142 -0.090211 1.57342 0
M  V30 3142 C 295.391 -0.791531 1.8552 0
M  V30 3143 C 295.704 -1.79659 0.773441 0
M  V30 3144 O 296.91 -2.54616 0.942497 0
M  V30 3145 C 295.366 -1.45856 3.2902 0
M  V30 3146 C 294.974 -0.493017 4.45279 0
M  V30 3147 C 296.718 -2.14332 3.66418 0
M  V30 3148 C 294.625 -1.16491 5.79814 0
M  V30 3149 H 293.555 -0.299356 0.692027 0
M  V30 3150 H 296.206 -0.0445343 1.83446 0
M  V30 3151 H 294.588 -2.25318 3.2565 0
M  V30 3152 H 295.762 0.270464 4.60006 0
M  V30 3153 H 294.077 0.0863061 4.16311 0
M  V30 3154 H 296.674 -2.65344 4.64216 0
M  V30 3155 H 297.017 -2.93447 2.95287 0
M  V30 3156 H 297.55 -1.41724 3.71698 0
M  V30 3157 H 294.289 -0.41447 6.54188 0
M  V30 3158 H 293.809 -1.8997 5.68921 0
M  V30 3159 H 295.488 -1.69001 6.24538 0
M  V30 3160 N 295.62 -1.53406 -0.361157 0
M  V30 3161 C 296.897 -1.60411 -1.11927 0
M  V30 3162 C 297.277 -0.414385 -2.06993 0
M  V30 3163 O 296.625 0.594976 -2.20618 0
M  V30 3164 C 296.835 -2.95652 -1.85448 0
M  V30 3165 C 298.183 -3.50386 -2.39823 0
M  V30 3166 O 299.207 -2.97711 -1.95568 0
M  V30 3167 O 298.066 -4.42482 -3.20737 0
M  V30 3168 H 295.16 -0.64811 -0.513695 0
M  V30 3169 H 297.706 -1.65749 -0.364065 0
M  V30 3170 H 296.478 -3.73682 -1.16091 0
M  V30 3171 H 296.101 -2.93825 -2.67866 0
M  V30 3172 N 297.098 0.621204 -1.44841 0
M  V30 3173 C 298.323 1.41244 -1.51871 0
M  V30 3174 C 298.748 1.87519 -0.147764 0
M  V30 3175 O 298.106 1.59334 0.865 0
M  V30 3176 C 298.154 2.60221 -2.49634 0
M  V30 3177 O 297.258 3.60395 -2.00473 0
M  V30 3178 H 296.599 0.42223 -0.512463 0
M  V30 3179 H 299.129 0.757305 -1.90069 0
M  V30 3180 H 299.139 3.0764 -2.67996 0
M  V30 3181 H 297.814 2.25887 -3.4921 0
M  V30 3182 H 296.391 3.19717 -1.91925 0
M  V30 3183 N 298.576 1.31904 0.862503 0
M  V30 3184 C 299.806 1.24817 1.64634 0
M  V30 3185 C 300.214 -0.187579 1.88268 0
M  V30 3186 O 299.557 -1.13253 1.44635 0
M  V30 3187 C 299.619 1.92996 3.03303 0
M  V30 3188 C 299.283 3.42336 3.02746 0
M  V30 3189 C 300.28 4.37956 2.80162 0
M  V30 3190 C 297.965 3.84147 3.2363 0
M  V30 3191 C 299.959 5.73361 2.78453 0
M  V30 3192 C 297.646 5.19663 3.21549 0
M  V30 3193 C 298.644 6.14081 2.98988 0
M  V30 3194 O 298.332 7.47118 2.96766 0
M  V30 3195 H 298.064 0.432222 0.519769 0
M  V30 3196 H 300.618 1.7445 1.08427 0
M  V30 3197 H 298.848 1.37922 3.61268 0
M  V30 3198 H 300.537 1.79723 3.63943 0
M  V30 3199 H 301.303 4.06981 2.63802 0
M  V30 3200 H 297.182 3.11083 3.40218 0
M  V30 3201 H 300.726 6.4703 2.60763 0
M  V30 3202 H 296.623 5.5027 3.37451 0
M  V30 3203 H 297.391 7.56382 3.12775 0
M  V30 3204 N 300.054 -1.07777 1.14986 0
M  V30 3205 C 301.303 -1.79669 0.916617 0
M  V30 3206 C 301.616 -1.87474 -0.557917 0
M  V30 3207 O 302.822 -2.55845 -0.908617 0
M  V30 3208 C 301.278 -3.22848 1.59051 0
M  V30 3209 C 300.886 -3.23257 3.10176 0
M  V30 3210 C 302.63 -3.99379 1.43864 0
M  V30 3211 C 300.537 -4.61063 3.70372 0
M  V30 3212 H 299.467 -0.673349 0.33929 0
M  V30 3213 H 302.118 -1.21003 1.37951 0
M  V30 3214 H 300.5 -3.8168 1.0553 0
M  V30 3215 H 301.674 -2.74095 3.70417 0
M  V30 3216 H 299.989 -2.60222 3.25074 0
M  V30 3217 H 302.586 -5.0122 1.86232 0
M  V30 3218 H 302.929 -4.14511 0.385564 0
M  V30 3219 H 303.462 -3.47032 1.94457 0
M  V30 3220 H 300.201 -4.51135 4.7556 0
M  V30 3221 H 299.721 -5.1048 3.14913 0
M  V30 3222 H 301.4 -5.30034 3.71043 0
M  V30 3223 N 301.532 -0.945985 -1.26051 0
M  V30 3224 C 302.779 -0.596118 -1.93527 0
M  V30 3225 C 303.107 0.865559 -1.74179 0
M  V30 3226 O 302.362 1.63524 -1.0751 0
M  V30 3227 C 302.661 -0.890475 -3.46129 0
M  V30 3228 C 302.327 -2.3368 -3.85622 0
M  V30 3229 C 300.989 -2.73216 -3.96114 0
M  V30 3230 C 303.341 -3.27648 -4.05334 0
M  V30 3231 C 300.669 -4.05806 -4.2372 0
M  V30 3232 C 303.021 -4.59841 -4.3443 0
M  V30 3233 C 301.685 -4.99185 -4.43137 0
M  V30 3234 H 300.955 -0.218135 -0.708165 0
M  V30 3235 H 303.602 -1.1934 -1.49768 0
M  V30 3236 H 301.907 -0.210711 -3.91233 0
M  V30 3237 H 303.604 -0.598478 -3.96509 0
M  V30 3238 H 300.194 -2.02015 -3.78005 0
M  V30 3239 H 304.378 -2.98298 -3.96651 0
M  V30 3240 H 299.634 -4.35945 -4.28675 0
M  V30 3241 H 303.808 -5.32641 -4.48628 0
M  V30 3242 H 301.435 -6.01952 -4.64282 0
M  V30 3243 N 303.011 1.40521 -0.713556 0
M  V30 3244 C 303.974 2.29098 -0.0684347 0
M  V30 3245 C 304.974 1.45268 0.689472 0
M  V30 3246 O 306.164 1.66205 0.521677 0
M  V30 3247 C 303.296 3.28446 0.913024 0
M  V30 3248 H 304.489 2.87645 -0.84855 0
M  V30 3249 H 302.042 1.48809 -0.47809 0
M  V30 3250 H 302.777 2.74913 1.72027 0
M  V30 3251 H 302.562 3.90327 0.372472 0
M  V30 3252 H 304.052 3.94777 1.36165 0
M  V30 3253 N 304.489 0.459591 1.5075 0
M  V30 3254 C 305.905 0.113092 1.59199 0
M  V30 3255 C 306.105 -1.37951 1.46874 0
M  V30 3256 O 305.161 -2.15168 1.32132 0
M  V30 3257 C 306.474 0.653043 2.93523 0
M  V30 3258 C 308.022 0.615449 3.0689 0
M  V30 3259 C 308.497 1.13275 4.43771 0
M  V30 3260 N 309.988 1.09167 4.50152 0
M  V30 3261 C 310.723 1.46256 5.54434 0
M  V30 3262 N 310.219 1.90739 6.66026 0
M  V30 3263 N 312.012 1.37932 5.44914 0
M  V30 3264 H 304.163 1.43049 1.57005 0
M  V30 3265 H 306.426 0.590861 0.741341 0
M  V30 3266 H 306.132 1.69822 3.07983 0
M  V30 3267 H 306.006 0.0902132 3.77092 0
M  V30 3268 H 308.393 -0.420793 2.92084 0
M  V30 3269 H 308.474 1.21495 2.25106 0
M  V30 3270 H 308.118 2.16757 4.59324 0
M  V30 3271 H 308.048 0.509576 5.24129 0
M  V30 3272 H 310.539 0.76528 3.7007 0
M  V30 3273 H 310.852 2.17218 7.41644 0
M  V30 3274 H 309.197 1.94683 6.67176 0
M  V30 3275 H 312.388 1.0303 4.56621 0
M  V30 3276 H 312.561 1.67164 6.26067 0
M  V30 3277 N 305.967 -1.56429 0.191757 0
M  V30 3278 C 307.215 -1.97095 -0.447006 0
M  V30 3279 C 307.536 -1.07967 -1.62383 0
M  V30 3280 O 306.806 -0.150248 -1.95323 0
M  V30 3281 H 305.386 -0.727832 -0.168135 0
M  V30 3282 H 308.048 -1.92911 0.27771 0
M  V30 3283 H 307.144 -3.01848 -0.793371 0
M  V30 3284 N 307.445 0.0818655 -1.57387 0
M  V30 3285 C 308.393 1.11712 -2.04018 0
M  V30 3286 C 309.387 1.40683 -0.94364 0
M  V30 3287 O 310.593 1.40209 -1.12878 0
M  V30 3288 H 306.968 0.377542 -0.650358 0
M  V30 3289 H 308.939 0.697614 -2.90131 0
M  V30 3290 C 307.688 2.42537 -2.49141 0
M  V30 3291 H 307.011 2.21092 -3.33104 0
M  V30 3292 H 308.451 3.13446 -2.85531 0
M  V30 3293 C 306.91 3.0778 -1.37014 0
M  V30 3294 O 307.44 3.95436 -0.706621 0
M  V30 3295 N 305.646 2.68242 -1.11779 0
M  V30 3296 H 305.193 1.97052 -1.65917 0
M  V30 3297 H 305.151 3.1222 -0.369594 0
M  V30 3298 N 308.923 1.53595 0.353017 0
M  V30 3299 C 310.339 1.43648 0.695516 0
M  V30 3300 C 310.539 0.585617 1.92802 0
M  V30 3301 O 309.595 0.0729223 2.52395 0
M  V30 3302 C 310.908 2.8701 0.896991 0
M  V30 3303 C 312.456 2.96723 0.996209 0
M  V30 3304 C 312.931 4.41173 1.23007 0
M  V30 3305 N 314.422 4.44657 1.29749 0
M  V30 3306 C 315.157 5.53547 1.49577 0
M  V30 3307 N 314.653 6.72461 1.66639 0
M  V30 3308 N 316.446 5.41145 1.52048 0
M  V30 3309 H 308.597 2.07415 -0.457481 0
M  V30 3310 H 310.86 0.9372 -0.142687 0
M  V30 3311 H 310.566 3.51644 0.0629938 0
M  V30 3312 H 310.44 3.31401 1.80148 0
M  V30 3313 H 312.827 2.32235 1.82074 0
M  V30 3314 H 312.908 2.55707 0.0688331 0
M  V30 3315 H 312.552 5.06238 0.410505 0
M  V30 3316 H 312.482 4.79772 2.17086 0
M  V30 3317 H 314.973 3.58963 1.18126 0
M  V30 3318 H 315.286 7.51214 1.81378 0
M  V30 3319 H 313.631 6.75423 1.63794 0
M  V30 3320 H 316.822 4.47205 1.38294 0
M  V30 3321 H 316.995 6.26068 1.67159 0
M  V30 3322 N 310.401 -0.613514 1.45168 0
M  V30 3323 C 311.65 -1.36874 1.4815 0
M  V30 3324 C 311.963 -1.952 0.124982 0
M  V30 3325 O 313.169 -2.71481 0.0324176 0
M  V30 3326 C 311.625 -2.47905 2.60904 0
M  V30 3327 C 311.233 -1.96016 4.02842 0
M  V30 3328 C 312.977 -3.24965 2.73126 0
M  V30 3329 C 310.884 -3.04494 5.06988 0
M  V30 3330 H 309.814 -0.514428 0.551253 0
M  V30 3331 H 312.465 -0.658182 1.7129 0
M  V30 3332 H 310.847 -3.21618 2.31037 0
M  V30 3333 H 312.021 -1.29051 4.4236 0
M  V30 3334 H 310.336 -1.31719 3.95018 0
M  V30 3335 H 312.933 -4.05865 3.48106 0
M  V30 3336 H 313.276 -3.75588 1.79553 0
M  V30 3337 H 313.809 -2.5835 3.0249 0
M  V30 3338 H 310.548 -2.58795 6.0225 0
M  V30 3339 H 310.068 -3.70044 4.72046 0
M  V30 3340 H 311.747 -3.68976 5.31475 0
M  V30 3341 N 311.879 -1.3236 -0.855495 0
M  V30 3342 C 312.809 -1.23833 -1.97958 0
M  V30 3343 C 313.79 -0.122361 -1.69659 0
M  V30 3344 O 314.975 -0.30939 -1.9172 0
M  V30 3345 C 312.105 -0.959772 -3.33775 0
M  V30 3346 C 311.059 -2.03689 -3.76424 0
M  V30 3347 C 310.385 -1.61075 -5.09862 0
M  V30 3348 C 311.685 -3.4518 -3.9198 0
M  V30 3349 H 313.379 -2.1788 -2.0535 0
M  V30 3350 H 310.925 -1.04891 -0.986605 0
M  V30 3351 H 312.878 -0.886678 -4.11966 0
M  V30 3352 H 311.602 0.0163404 -3.26596 0
M  V30 3353 H 310.261 -2.10012 -3.00484 0
M  V30 3354 H 309.909 -0.622107 -4.99138 0
M  V30 3355 H 309.609 -2.33143 -5.39368 0
M  V30 3356 H 311.133 -1.55201 -5.90546 0
M  V30 3357 H 312.547 -3.4145 -4.60526 0
M  V30 3358 H 310.944 -4.1559 -4.32903 0
M  V30 3359 H 312.014 -3.84903 -2.94919 0
M  V30 3360 N 313.357 1.07166 -1.15556 0
M  V30 3361 C 314.773 1.31899 -0.898603 0
M  V30 3362 C 314.973 1.96333 0.453383 0
M  V30 3363 O 314.029 2.22438 1.19489 0
M  V30 3364 C 315.342 2.20826 -2.04099 0
M  V30 3365 C 316.89 2.34269 -2.07574 0
M  V30 3366 C 317.365 3.26546 -3.21141 0
M  V30 3367 N 318.856 3.34127 -3.20801 0
M  V30 3368 C 319.591 4.05595 -4.05315 0
M  V30 3369 N 319.087 4.79661 -4.99897 0
M  V30 3370 N 320.88 4.01555 -3.93332 0
M  V30 3371 H 313.031 0.637302 -2.02613 0
M  V30 3372 H 315.294 0.343468 -0.883591 0
M  V30 3373 H 315 1.80744 -3.01703 0
M  V30 3374 H 314.874 3.21364 -1.97496 0
M  V30 3375 H 317.261 2.73603 -1.10568 0
M  V30 3376 H 317.342 1.33429 -2.18244 0
M  V30 3377 H 316.986 2.87931 -4.184 0
M  V30 3378 H 316.916 4.27345 -3.07708 0
M  V30 3379 H 319.407 2.81336 -2.52306 0
M  V30 3380 H 319.72 5.31694 -5.60822 0
M  V30 3381 H 318.065 4.78671 -5.03884 0
M  V30 3382 H 321.256 3.42806 -3.18751 0
M  V30 3383 H 321.429 4.56987 -4.5942 0
M  V30 3384 N 314.835 0.952656 1.25548 0
M  V30 3385 C 315.782 0.47008 2.25962 0
M  V30 3386 C 316.752 -0.476384 1.59122 0
M  V30 3387 O 317.937 -0.39007 1.8677 0
M  V30 3388 C 315.077 -0.247881 3.44209 0
M  V30 3389 C 314.19 0.735591 4.25691 0
M  V30 3390 C 313.325 -0.0047306 5.312 0
M  V30 3391 C 312.364 0.969805 6.04368 0
M  V30 3392 N 311.501 0.260486 7.01617 0
M  V30 3393 H 316.341 1.33126 2.66611 0
M  V30 3394 H 313.878 0.66765 1.31076 0
M  V30 3395 H 315.836 -0.680695 4.1161 0
M  V30 3396 H 314.466 -1.07312 3.0444 0
M  V30 3397 H 313.518 1.28689 3.57971 0
M  V30 3398 H 314.83 1.47934 4.76358 0
M  V30 3399 H 313.984 -0.496275 6.04667 0
M  V30 3400 H 312.723 -0.781282 4.81401 0
M  V30 3401 H 311.728 1.47237 5.29718 0
M  V30 3402 H 312.953 1.74655 6.56256 0
M  V30 3403 H 310.899 -0.497364 6.54112 0
M  V30 3404 H 310.816 0.943362 7.50091 0
M  V30 3405 H 312.084 -0.209587 7.79218 0
M  V30 3406 N 316.313 -1.40141 0.720998 0
M  V30 3407 C 317.56 -2.00787 0.262842 0
M  V30 3408 C 317.888 -1.5718 -1.14563 0
M  V30 3409 O 317.143 -0.785391 -1.79249 0
M  V30 3410 C 317.442 -3.56165 0.296892 0
M  V30 3411 C 317.108 -4.19373 1.65641 0
M  V30 3412 C 315.77 -4.36352 2.02855 0
M  V30 3413 C 318.122 -4.54578 2.54968 0
M  V30 3414 C 315.45 -4.8582 3.28931 0
M  V30 3415 C 317.802 -5.05447 3.80402 0
M  V30 3416 C 316.466 -5.20635 4.17726 0
M  V30 3417 H 315.736 -0.734731 0.0961807 0
M  V30 3418 H 318.383 -1.67673 0.925093 0
M  V30 3419 H 316.688 -3.8922 -0.448932 0
M  V30 3420 H 318.385 -4.00929 -0.0755208 0
M  V30 3421 H 314.975 -4.06549 1.35704 0
M  V30 3422 H 319.159 -4.41091 2.27491 0
M  V30 3423 H 314.415 -4.95764 3.57811 0
M  V30 3424 H 318.589 -5.31663 4.49786 0
M  V30 3425 H 316.216 -5.58728 5.15487 0
M  V30 3426 N 317.792 -0.46758 -1.50504 0
M  V30 3427 C 319.069 0.15003 -1.95024 0
M  V30 3428 C 319.449 1.57304 -1.40779 0
M  V30 3429 O 318.797 2.20281 -0.607319 0
M  V30 3430 C 319.007 0.0969324 -3.48865 0
M  V30 3431 C 320.355 0.287565 -4.23625 0
M  V30 3432 O 321.379 0.173678 -3.55776 0
M  V30 3433 O 320.238 0.517186 -5.44047 0
M  V30 3434 H 317.332 0.113582 -0.819163 0
M  V30 3435 H 319.878 -0.52773 -1.61286 0
M  V30 3436 H 318.65 -0.896732 -3.80886 0
M  V30 3437 H 318.273 0.816303 -3.8913 0
M  V30 3438 N 319.27 1.56325 -0.20005 0
M  V30 3439 C 320.18 2.22931 0.730668 0
M  V30 3440 C 321.196 1.22997 1.23076 0
M  V30 3441 O 322.372 1.55748 1.27689 0
M  V30 3442 C 319.437 2.87948 1.93098 0
M  V30 3443 C 318.498 4.03166 1.47497 0
M  V30 3444 C 317.731 4.65073 2.61807 0
M  V30 3445 O 317.954 4.25913 3.79413 0
M  V30 3446 O 316.888 5.54452 2.34237 0
M  V30 3447 H 320.714 3.03084 0.193391 0
M  V30 3448 H 318.299 1.49371 0.0294621 0
M  V30 3449 H 320.181 3.29063 2.6324 0
M  V30 3450 H 318.856 2.10771 2.45677 0
M  V30 3451 H 317.763 3.66664 0.742201 0
M  V30 3452 H 319.096 4.82022 0.995796 0
M  V30 3453 N 320.748 -0.0735177 1.57428 0
M  V30 3454 C 321.973 -0.789787 1.91774 0
M  V30 3455 C 322.398 -1.70413 0.796306 0
M  V30 3456 O 321.756 -1.79555 -0.250961 0
M  V30 3457 C 321.804 -1.5609 3.25067 0
M  V30 3458 O 320.908 -2.67144 3.14178 0
M  V30 3459 H 320.249 -0.215582 0.628029 0
M  V30 3460 H 322.779 -0.0422781 2.04556 0
M  V30 3461 H 322.789 -1.94052 3.58898 0
M  V30 3462 H 321.464 -0.890015 4.06265 0
M  V30 3463 H 320.041 -2.32052 2.91901 0
M  V30 3464 N 322.226 -1.5378 -0.344866 0
M  V30 3465 C 323.472 -1.71216 -1.08687 0
M  V30 3466 C 323.805 -0.473281 -1.88345 0
M  V30 3467 O 323.08 0.52968 -1.87149 0
M  V30 3468 C 323.363 -2.97486 -2.02914 0
M  V30 3469 C 323.216 -4.31579 -1.26727 0
M  V30 3470 C 324.535 -3.19422 -3.0275 0
M  V30 3471 H 321.654 -0.62301 -0.393735 0
M  V30 3472 H 324.296 -1.8645 -0.365563 0
M  V30 3473 H 322.446 -2.84629 -2.64421 0
M  V30 3474 H 324.118 -4.56284 -0.67845 0
M  V30 3475 H 322.361 -4.30049 -0.569273 0
M  V30 3476 H 323.032 -5.16106 -1.95803 0
M  V30 3477 H 325.508 -3.316 -2.51357 0
M  V30 3478 H 324.384 -4.09169 -3.65885 0
M  V30 3479 H 324.645 -2.35656 -3.74057 0
M  V30 3480 N 323.704 0.605807 -1.45491 0
M  V30 3481 C 324.953 1.36086 -1.48874 0
M  V30 3482 C 325.266 1.95131 -0.135333 0
M  V30 3483 O 326.472 2.7146 -0.0468144 0
M  V30 3484 C 324.928 2.46518 -2.62215 0
M  V30 3485 C 324.536 1.93877 -4.03876 0
M  V30 3486 C 326.28 3.23512 -2.74846 0
M  V30 3487 C 324.187 3.01801 -5.08596 0
M  V30 3488 H 323.117 0.511497 -0.553974 0
M  V30 3489 H 325.768 0.649089 -1.71636 0
M  V30 3490 H 324.15 3.20388 -2.32739 0
M  V30 3491 H 325.324 1.26704 -4.43038 0
M  V30 3492 H 323.639 1.29622 -3.95711 0
M  V30 3493 H 326.236 4.04013 -3.50253 0
M  V30 3494 H 326.579 3.74631 -1.81542 0
M  V30 3495 H 327.112 2.56742 -3.03856 0
M  V30 3496 H 323.851 2.55597 -6.03614 0
M  V30 3497 H 323.371 3.67535 -4.74002 0
M  V30 3498 H 325.05 3.66152 -5.33424 0
M  V30 3499 N 325.182 1.32811 0.848464 0
M  V30 3500 C 326.13 1.22231 1.97895 0
M  V30 3501 C 327.124 0.125749 1.68933 0
M  V30 3502 O 328.33 0.289083 1.77663 0
M  V30 3503 H 324.705 0.379058 0.649476 0
M  V30 3504 H 326.676 2.17828 2.03945 0
M  V30 3505 C 325.425 0.968572 3.33937 0
M  V30 3506 H 324.748 1.80458 3.56756 0
M  V30 3507 H 326.188 0.934808 4.13567 0
M  V30 3508 C 324.647 -0.328628 3.35293 0
M  V30 3509 O 325.177 -1.33848 3.78745 0
M  V30 3510 N 323.383 -0.352788 2.88451 0
M  V30 3511 H 322.93 0.469541 2.53285 0
M  V30 3512 H 322.888 -1.22057 2.89741 0
M  V30 3513 N 326.66 -1.06551 1.16123 0
M  V30 3514 C 327.906 -1.79567 0.94252 0
M  V30 3515 C 328.239 -1.86869 -0.528547 0
M  V30 3516 O 327.514 -1.35838 -1.39206 0
M  V30 3517 C 327.797 -3.24195 1.56747 0
M  V30 3518 C 327.65 -3.24989 3.10969 0
M  V30 3519 C 328.969 -4.21678 1.25998 0
M  V30 3520 H 326.088 -0.651883 0.343828 0
M  V30 3521 H 328.73 -1.2463 1.43413 0
M  V30 3522 H 326.88 -3.71107 1.14942 0
M  V30 3523 H 328.552 -2.86258 3.61737 0
M  V30 3524 H 326.795 -2.63716 3.44436 0
M  V30 3525 H 327.466 -4.27005 3.49815 0
M  V30 3526 H 329.942 -3.83196 1.62174 0
M  V30 3527 H 328.818 -5.21146 1.7233 0
M  V30 3528 H 329.079 -4.4174 0.178367 0
M  V30 3529 N 328.138 -0.959301 -1.25041 0
M  V30 3530 C 329.068 -0.501388 -2.28053 0
M  V30 3531 C 330.049 0.454673 -1.63911 0
M  V30 3532 O 331.234 0.352618 -1.90972 0
M  V30 3533 C 328.364 0.217224 -3.4662 0
M  V30 3534 C 327.318 -0.654034 -4.22973 0
M  V30 3535 C 326.644 0.195589 -5.34342 0
M  V30 3536 C 327.944 -1.93447 -4.85155 0
M  V30 3537 H 329.638 -1.36238 -2.66608 0
M  V30 3538 H 327.184 -0.656534 -1.28163 0
M  V30 3539 H 329.137 0.548732 -4.17812 0
M  V30 3540 H 327.861 1.1125 -3.07068 0
M  V30 3541 H 326.52 -0.968693 -3.5357 0
M  V30 3542 H 326.168 1.09076 -4.91031 0
M  V30 3543 H 325.868 -0.384091 -5.86343 0
M  V30 3544 H 327.392 0.521958 -6.08365 0
M  V30 3545 H 328.806 -1.66908 -5.48466 0
M  V30 3546 H 327.203 -2.46018 -5.47353 0
M  V30 3547 H 328.273 -2.63466 -4.07079 0
M  V30 3548 N 329.616 1.39756 -0.72842 0
M  V30 3549 C 330.526 2.34444 -0.0855374 0
M  V30 3550 C 331.542 1.57976 0.729356 0
M  V30 3551 O 332.718 1.90301 0.659346 0
M  V30 3552 C 329.783 3.36965 0.815798 0
M  V30 3553 C 328.844 4.29299 -0.0105996 0
M  V30 3554 C 328.077 5.26923 0.84781 0
M  V30 3555 O 328.3 5.30859 2.08673 0
M  V30 3556 O 327.234 6.01249 0.279969 0
M  V30 3557 H 331.06 2.91065 -0.866892 0
M  V30 3558 H 328.645 1.4117 -0.48902 0
M  V30 3559 H 330.527 3.99804 1.33171 0
M  V30 3560 H 329.202 2.82739 1.57608 0
M  V30 3561 H 328.109 3.69703 -0.571877 0
M  V30 3562 H 329.442 4.86712 -0.73295 0
M  V30 3563 N 331.094 0.475555 1.50254 0
M  V30 3564 C 332.042 -0.330276 2.30243 0
M  V30 3565 C 333.036 -0.986306 1.37726 0
M  V30 3566 O 334.242 -0.9169 1.54897 0
M  V30 3567 H 330.617 -0.125353 0.741479 0
M  V30 3568 H 332.588 0.364702 2.96163 0
M  V30 3569 C 331.337 -1.39704 3.18399 0
M  V30 3570 H 330.66 -0.901621 3.89501 0
M  V30 3571 H 332.1 -1.93336 3.77355 0
M  V30 3572 C 330.559 -2.4014 2.36293 0
M  V30 3573 O 331.089 -3.45504 2.04914 0
M  V30 3574 N 329.295 -2.1197 1.98789 0
M  V30 3575 H 328.842 -1.2631 2.24507 0
M  V30 3576 H 328.8 -2.79403 1.44157 0
M  V30 3577 N 332.573 -1.56217 0.208337 0
M  V30 3578 C 333.85 -1.89739 -0.475234 0
M  V30 3579 C 334.23 -1.1238 -1.78701 0
M  V30 3580 O 333.578 -0.228979 -2.2735 0
M  V30 3581 C 333.788 -3.42289 -0.681101 0
M  V30 3582 C 335.136 -4.12789 -0.994507 0
M  V30 3583 O 336.16 -3.47814 -0.768357 0
M  V30 3584 O 335.019 -5.27649 -1.42299 0
M  V30 3585 H 332.113 -0.788478 -0.249461 0
M  V30 3586 H 334.659 -1.67855 0.249538 0
M  V30 3587 H 333.431 -3.90534 0.244722 0
M  V30 3588 H 333.054 -3.69909 -1.45785 0
M  V30 3589 N 334.051 0.0651679 -1.57465 0
M  V30 3590 C 334.984 1.10876 -1.99453 0
M  V30 3591 C 335.962 1.37205 -0.872555 0
M  V30 3592 O 337.146 1.50468 -1.13542 0
M  V30 3593 C 334.273 2.45167 -2.3369 0
M  V30 3594 C 333.319 2.3493 -3.55964 0
M  V30 3595 S 334.152 1.73708 -5.06543 0
M  V30 3596 C 335.308 3.09563 -5.43987 0
M  V30 3597 H 335.541 0.750967 -2.87659 0
M  V30 3598 H 333.074 0.273933 -1.51951 0
M  V30 3599 H 335.032 3.22412 -2.54088 0
M  V30 3600 H 333.693 2.78105 -1.46001 0
M  V30 3601 H 332.886 3.3398 -3.77457 0
M  V30 3602 H 332.488 1.65823 -3.3523 0
M  V30 3603 H 334.78 4.05882 -5.42463 0
M  V30 3604 H 335.723 2.92843 -6.44708 0
M  V30 3605 H 336.131 3.10474 -4.71451 0
M  V30 3606 N 335.529 1.53961 0.336706 0
M  V30 3607 C 336.476 1.82428 1.41381 0
M  V30 3608 C 337.446 0.670444 1.51968 0
M  V30 3609 O 338.631 0.915565 1.67398 0
M  V30 3610 C 335.771 2.04564 2.77934 0
M  V30 3611 C 334.884 3.32267 2.76084 0
M  V30 3612 C 334.019 3.44434 4.04399 0
M  V30 3613 C 333.058 4.66061 3.96804 0
M  V30 3614 N 332.195 4.75224 5.16823 0
M  V30 3615 H 337.035 2.74324 1.16405 0
M  V30 3616 H 334.572 1.35869 0.563752 0
M  V30 3617 H 336.53 2.15388 3.57301 0
M  V30 3618 H 335.16 1.15974 3.01247 0
M  V30 3619 H 334.212 3.3025 1.88784 0
M  V30 3620 H 335.524 4.21733 2.66351 0
M  V30 3621 H 334.678 3.54728 4.92192 0
M  V30 3622 H 333.417 2.53037 4.16921 0
M  V30 3623 H 332.422 4.55838 3.07396 0
M  V30 3624 H 333.647 5.58829 3.85858 0
M  V30 3625 H 331.593 3.86739 5.29876 0
M  V30 3626 H 331.51 5.58636 5.09374 0
M  V30 3627 H 332.778 4.89835 6.06367 0
M  V30 3628 N 337.007 -0.598083 1.45811 0
M  V30 3629 C 337.954 -1.7082 1.55207 0
M  V30 3630 C 338.924 -1.61278 0.39732 0
M  V30 3631 O 340.109 -1.80717 0.612038 0
M  V30 3632 C 337.249 -3.09144 1.53376 0
M  V30 3633 C 336.362 -3.29423 2.79472 0
M  V30 3634 C 335.497 -4.57907 2.69248 0
M  V30 3635 C 334.536 -4.71476 3.90354 0
M  V30 3636 N 333.673 -5.9127 3.78608 0
M  V30 3637 H 338.513 -1.62125 2.50039 0
M  V30 3638 H 336.05 -0.790389 1.24062 0
M  V30 3639 H 338.008 -3.89186 1.50301 0
M  V30 3640 H 336.638 -3.16773 0.620876 0
M  V30 3641 H 335.69 -2.43091 2.92594 0
M  V30 3642 H 337.002 -3.3532 3.69272 0
M  V30 3643 H 336.156 -5.46157 2.64192 0
M  V30 3644 H 334.895 -4.54423 1.77063 0
M  V30 3645 H 333.9 -3.81648 3.95759 0
M  V30 3646 H 335.125 -4.76751 4.83617 0
M  V30 3647 H 333.071 -5.88813 2.89199 0
M  V30 3648 H 332.988 -5.98369 4.6205 0
M  V30 3649 H 334.256 -6.81992 3.77501 0
M  V30 3650 N 338.485 -1.33259 -0.841409 0
M  V30 3651 C 339.433 -1.23279 -1.97244 0
M  V30 3652 C 340.427 -0.134706 -1.68864 0
M  V30 3653 O 341.633 -0.298501 -1.77508 0
M  V30 3654 H 338.008 -0.382497 -0.647457 0
M  V30 3655 H 339.979 -2.18906 -2.02787 0
M  V30 3656 C 338.728 -0.986268 -3.33419 0
M  V30 3657 H 338.051 -1.82347 -3.55794 0
M  V30 3658 H 339.491 -0.956728 -4.13065 0
M  V30 3659 C 337.95 0.310842 -3.35463 0
M  V30 3660 O 338.48 1.31838 -3.79449 0
M  V30 3661 N 336.686 0.337485 -2.88634 0
M  V30 3662 H 336.233 -0.482967 -2.53032 0
M  V30 3663 H 336.191 1.20518 -2.90384 0
M  V30 3664 N 339.963 1.05934 -1.16686 0
M  V30 3665 C 340.911 2.15603 -0.872817 0
M  V30 3666 C 341.905 1.68647 0.159576 0
M  V30 3667 O 343.111 1.79995 0.0132125 0
M  V30 3668 H 339.486 0.703885 -0.264671 0
M  V30 3669 H 341.457 2.37613 -1.80507 0
M  V30 3670 C 340.206 3.45457 -0.394344 0
M  V30 3671 H 339.529 3.81984 -1.18019 0
M  V30 3672 H 340.969 4.2339 -0.227408 0
M  V30 3673 C 339.428 3.25021 0.88673 0
M  V30 3674 O 339.958 3.50906 1.95519 0
M  V30 3675 N 338.164 2.78437 0.831925 0
M  V30 3676 H 337.711 2.57572 -0.0377619 0
M  V30 3677 H 337.669 2.65144 1.68956 0
M  V30 3678 N 341.441 0.965919 1.2453 0
M  V30 3679 C 342.69 0.622437 1.91856 0
M  V30 3680 C 343.003 -0.846006 1.76358 0
M  V30 3681 O 344.209 -1.29993 2.38357 0
M  V30 3682 C 342.665 1.0626 3.43856 0
M  V30 3683 C 342.273 2.55437 3.68043 0
M  V30 3684 C 344.017 0.792183 4.17043 0
M  V30 3685 C 341.924 2.93196 5.13605 0
M  V30 3686 H 340.854 0.229092 0.718354 0
M  V30 3687 H 343.505 1.17189 1.41206 0
M  V30 3688 H 341.887 0.441476 3.93531 0
M  V30 3689 H 343.061 3.22665 3.28974 0
M  V30 3690 H 341.376 2.8007 3.08139 0
M  V30 3691 H 343.973 1.05031 5.24283 0
M  V30 3692 H 344.316 -0.271584 4.15413 0
M  V30 3693 H 344.849 1.37419 3.73311 0
M  V30 3694 H 341.588 3.98636 5.20355 0
M  V30 3695 H 341.108 2.30651 5.53679 0
M  V30 3696 H 342.787 2.83004 5.81823 0
M  V30 3697 N 342.919 -1.39368 0.735821 0
M  V30 3698 C 343.867 -2.32443 0.0855131 0
M  V30 3699 C 344.861 -1.53104 -0.724954 0
M  V30 3700 O 346.067 -1.68762 -0.626047 0
M  V30 3701 H 342.442 -0.751948 0.00885257 0
M  V30 3702 H 344.413 -2.84916 0.886883 0
M  V30 3703 C 343.162 -3.38206 -0.806983 0
M  V30 3704 H 342.485 -3.99335 -0.19274 0
M  V30 3705 H 343.925 -4.05779 -1.2296 0
M  V30 3706 C 342.384 -2.75321 -1.94165 0
M  V30 3707 O 342.914 -2.63231 -3.03435 0
M  V30 3708 N 341.12 -2.33396 -1.73132 0
M  V30 3709 H 340.667 -2.4343 -0.842596 0
M  V30 3710 H 340.625 -1.91661 -2.49225 0
M  V30 3711 N 344.397 -0.483516 -1.5 0
M  V30 3712 C 345.646 0.0689102 -2.01582 0
M  V30 3713 C 345.959 1.39655 -1.36952 0
M  V30 3714 O 347.165 2.03465 -1.79762 0
M  V30 3715 C 345.621 0.173302 -3.59483 0
M  V30 3716 C 345.229 -1.14665 -4.33077 0
M  V30 3717 C 346.973 0.677024 -4.19066 0
M  V30 3718 C 344.88 -1.00537 -5.82792 0
M  V30 3719 H 343.81 0.0295277 -0.753422 0
M  V30 3720 H 346.461 -0.620295 -1.72698 0
M  V30 3721 H 344.843 0.926569 -3.85007 0
M  V30 3722 H 346.017 -1.91184 -4.19268 0
M  V30 3723 H 344.332 -1.58244 -3.85159 0
M  V30 3724 H 346.929 0.799952 -5.28682 0
M  V30 3725 H 347.272 1.67151 -3.81269 0
M  V30 3726 H 347.805 -0.0192083 -3.97795 0
M  V30 3727 H 344.544 -1.9736 -6.25083 0
M  V30 3728 H 344.064 -0.280776 -5.99142 0
M  V30 3729 H 345.743 -0.677 -6.43448 0
M  V30 3730 N 345.875 1.56104 -0.216619 0
M  V30 3731 C 347.121 1.98466 0.417033 0
M  V30 3732 C 347.454 1.10403 1.59765 0
M  V30 3733 O 346.729 0.160632 1.93836 0
M  V30 3734 C 347.012 3.49769 0.85637 0
M  V30 3735 C 346.865 4.48606 -0.327546 0
M  V30 3736 C 348.184 4.05339 1.7143 0
M  V30 3737 H 345.303 0.721551 0.150112 0
M  V30 3738 H 347.945 1.87423 -0.311864 0
M  V30 3739 H 346.095 3.5931 1.47745 0
M  V30 3740 H 347.767 4.5108 -0.965618 0
M  V30 3741 H 346.01 4.22682 -0.975805 0
M  V30 3742 H 346.681 5.51995 0.0227149 0
M  V30 3743 H 349.157 3.98712 1.19031 0
M  V30 3744 H 348.033 5.11533 1.99061 0
M  V30 3745 H 348.294 3.51918 2.67593 0
M  V30 3746 N 347.353 -0.0568162 1.57498 0
M  V30 3747 C 348.581 -0.765626 1.92213 0
M  V30 3748 C 348.996 -1.70353 0.813961 0
M  V30 3749 O 348.353 -1.81268 -0.211701 0
M  V30 3750 C 348.404 -1.5465 3.2675 0
M  V30 3751 O 348.125 -0.646278 4.33307 0
M  V30 3752 C 349.626 -2.35497 3.75574 0
M  V30 3753 H 346.846 -0.216835 0.634999 0
M  V30 3754 H 349.39 -0.0226146 2.04487 0
M  V30 3755 H 347.545 -2.24165 3.15957 0
M  V30 3756 H 347.959 -1.19093 5.108 0
M  V30 3757 H 349.433 -2.85722 4.72299 0
M  V30 3758 H 349.91 -3.15692 3.05344 0
M  V30 3759 H 350.516 -1.7111 3.8936 0
M  V30 3760 N 348.832 -1.54138 -0.328536 0
M  V30 3761 C 350.079 -1.72105 -1.06706 0
M  V30 3762 C 350.407 -0.492111 -1.88171 0
M  V30 3763 O 349.662 0.526153 -1.88494 0
M  V30 3764 C 349.961 -2.9457 -2.02393 0
M  V30 3765 C 349.627 -4.29544 -1.37122 0
M  V30 3766 C 348.289 -4.6624 -1.19052 0
M  V30 3767 C 350.641 -5.1333 -0.902331 0
M  V30 3768 C 347.969 -5.84325 -0.527331 0
M  V30 3769 C 350.321 -6.32094 -0.252988 0
M  V30 3770 C 348.985 -6.67473 -0.0600901 0
M  V30 3771 H 348.255 -0.629775 -0.390466 0
M  V30 3772 H 350.902 -1.88372 -0.34473 0
M  V30 3773 H 349.207 -2.72969 -2.81061 0
M  V30 3774 H 350.904 -3.05665 -2.59557 0
M  V30 3775 H 347.494 -4.0067 -1.52188 0
M  V30 3776 H 351.678 -4.855 -1.02974 0
M  V30 3777 H 346.934 -6.103 -0.366634 0
M  V30 3778 H 351.108 -6.96299 0.118366 0
M  V30 3779 H 348.735 -7.58832 0.455828 0
M  V30 3780 N 350.31 0.590341 -1.46126 0
M  V30 3781 C 351.273 1.68194 -1.55703 0
M  V30 3782 C 352.273 1.54808 -0.434868 0
M  V30 3783 O 353.463 1.59564 -0.698928 0
M  V30 3784 C 350.595 3.07575 -1.47005 0
M  V30 3785 H 351.788 1.61064 -2.52979 0
M  V30 3786 H 349.341 0.807541 -1.33823 0
M  V30 3787 H 350.076 3.20268 -0.509785 0
M  V30 3788 H 349.861 3.187 -2.28414 0
M  V30 3789 H 351.351 3.87055 -1.56776 0
M  V30 3790 N 351.788 1.33704 0.83433 0
M  V30 3791 C 353.065 1.16011 1.57483 0
M  V30 3792 C 353.445 -0.27176 2.09343 0
M  V30 3793 O 352.793 -1.27146 1.89858 0
M  V30 3794 C 353.003 2.20507 2.70514 0
M  V30 3795 C 354.351 2.54898 3.39577 0
M  V30 3796 O 355.375 2.19209 2.80759 0
M  V30 3797 O 354.234 3.16158 4.45765 0
M  V30 3798 H 351.328 0.448992 0.694503 0
M  V30 3799 H 353.874 1.453 0.876691 0
M  V30 3800 H 352.646 3.16667 2.29865 0
M  V30 3801 H 352.269 1.92329 3.47987 0
M  V30 3802 N 353.266 -1.05314 1.17247 0
M  V30 3803 C 354.512 -1.78557 0.961513 0
M  V30 3804 C 354.845 -1.87419 -0.508697 0
M  V30 3805 O 354.12 -1.37307 -1.37757 0
M  V30 3806 C 354.403 -3.22514 1.60176 0
M  V30 3807 C 354.256 -3.21673 3.14399 0
M  V30 3808 C 355.575 -4.20318 1.30463 0
M  V30 3809 H 352.694 -0.6482 0.350723 0
M  V30 3810 H 355.336 -1.23102 1.44727 0
M  V30 3811 H 353.486 -3.69867 1.18871 0
M  V30 3812 H 355.158 -2.82405 3.64753 0
M  V30 3813 H 353.401 -2.60048 3.47214 0
M  V30 3814 H 354.072 -4.23271 3.54324 0
M  V30 3815 H 356.548 -3.81454 1.66229 0
M  V30 3816 H 355.424 -5.19289 1.77848 0
M  V30 3817 H 355.685 -4.41526 0.22521 0
M  V30 3818 N 354.744 -0.972509 -1.24016 0
M  V30 3819 C 355.99 -0.637978 -1.92504 0
M  V30 3820 C 356.323 0.825383 -1.75787 0
M  V30 3821 O 355.598 1.59442 -1.11393 0
M  V30 3822 C 355.881 -1.01942 -3.45369 0
M  V30 3823 C 355.734 -2.53983 -3.71231 0
M  V30 3824 C 357.053 -0.55751 -4.36555 0
M  V30 3825 H 354.172 -0.233248 -0.699117 0
M  V30 3826 H 356.814 -1.21238 -1.46292 0
M  V30 3827 H 354.964 -0.530656 -3.84859 0
M  V30 3828 H 356.636 -3.10374 -3.41271 0
M  V30 3829 H 354.879 -2.96968 -3.16216 0
M  V30 3830 H 355.55 -2.75723 -4.78206 0
M  V30 3831 H 358.026 -0.977029 -4.04467 0
M  V30 3832 H 356.902 -0.85292 -5.42233 0
M  V30 3833 H 357.163 0.542328 -4.38761 0
M  V30 3834 N 356.222 1.38976 -0.743202 0
M  V30 3835 C 357.132 2.3434 -0.110399 0
M  V30 3836 C 358.148 1.58741 0.712559 0
M  V30 3837 O 359.324 1.9099 0.639125 0
M  V30 3838 C 356.389 3.37812 0.780012 0
M  V30 3839 C 355.45 4.29263 -0.0561319 0
M  V30 3840 C 354.683 5.27793 0.791875 0
M  V30 3841 O 354.906 5.33043 2.03031 0
M  V30 3842 O 353.84 6.01512 0.216183 0
M  V30 3843 H 357.666 2.90129 -0.897714 0
M  V30 3844 H 355.251 1.40643 -0.503966 0
M  V30 3845 H 357.133 4.01194 1.28923 0
M  V30 3846 H 355.808 2.84395 1.546 0
M  V30 3847 H 354.715 3.69076 -0.611056 0
M  V30 3848 H 356.048 4.85907 -0.784531 0
M  V30 3849 N 357.7 0.491464 1.49741 0
M  V30 3850 C 358.949 -0.0582189 2.01616 0
M  V30 3851 C 359.262 -1.38927 1.3769 0
M  V30 3852 O 360.468 -2.02509 1.80838 0
M  V30 3853 C 358.924 -0.154235 3.59569 0
M  V30 3854 C 358.532 1.1696 4.32463 0
M  V30 3855 C 360.276 -0.65479 4.1942 0
M  V30 3856 C 358.183 1.03627 5.8225 0
M  V30 3857 H 357.113 -0.0255317 0.753568 0
M  V30 3858 H 359.764 0.629445 1.72367 0
M  V30 3859 H 358.146 -0.906138 3.85493 0
M  V30 3860 H 359.32 1.93405 4.18248 0
M  V30 3861 H 357.635 1.60285 3.84315 0
M  V30 3862 H 360.232 -0.771903 5.29099 0
M  V30 3863 H 360.575 -1.65127 3.8215 0
M  V30 3864 H 361.108 0.040304 3.9778 0
M  V30 3865 H 357.847 2.00672 6.24028 0
M  V30 3866 H 357.367 0.312546 5.98985 0
M  V30 3867 H 359.046 0.711114 6.4308 0
M  V30 3868 N 359.178 -1.55987 0.224894 0
M  V30 3869 C 360.125 -2.20436 -0.68385 0
M  V30 3870 C 361.095 -1.16102 -1.18783 0
M  V30 3871 O 362.28 -1.4447 -1.24632 0
M  V30 3872 C 359.42 -2.89076 -1.88491 0
M  V30 3873 C 358.533 -4.08012 -1.41951 0
M  V30 3874 C 357.668 -4.64426 -2.5784 0
M  V30 3875 C 356.707 -5.75656 -2.08053 0
M  V30 3876 N 355.844 -6.26347 -3.17227 0
M  V30 3877 H 360.684 -2.97727 -0.12754 0
M  V30 3878 H 358.221 -1.47011 -0.0511978 0
M  V30 3879 H 360.179 -3.27059 -2.59014 0
M  V30 3880 H 358.809 -2.14298 -2.41405 0
M  V30 3881 H 357.861 -3.75492 -0.609095 0
M  V30 3882 H 359.173 -4.88375 -1.01447 0
M  V30 3883 H 358.327 -5.04869 -3.3644 0
M  V30 3884 H 357.066 -3.83233 -3.01635 0
M  V30 3885 H 356.071 -5.34712 -1.27916 0
M  V30 3886 H 357.296 -6.58686 -1.65255 0
M  V30 3887 H 355.242 -5.48067 -3.60497 0
M  V30 3888 H 355.159 -7.01843 -2.80986 0
M  V30 3889 H 356.427 -6.71447 -3.95953 0
M  V30 3890 N 360.656 0.0484629 -1.57525 0
M  V30 3891 C 361.603 1.05504 -2.05275 0
M  V30 3892 C 362.573 1.37084 -0.937927 0
M  V30 3893 O 363.758 1.47754 -1.2072 0
M  V30 3894 C 360.898 2.35676 -2.52093 0
M  V30 3895 C 360.011 2.10423 -3.77288 0
M  V30 3896 C 359.146 3.34327 -4.12794 0
M  V30 3897 C 358.185 3.04542 -5.30962 0
M  V30 3898 N 357.322 4.20841 -5.61994 0
M  V30 3899 H 362.162 0.640885 -2.91027 0
M  V30 3900 H 359.699 0.304854 -1.43906 0
M  V30 3901 H 361.657 3.11709 -2.77297 0
M  V30 3902 H 360.287 2.7485 -1.69285 0
M  V30 3903 H 359.339 1.24976 -3.59284 0
M  V30 3904 H 360.651 1.84438 -4.63448 0
M  V30 3905 H 359.805 4.1874 -4.39024 0
M  V30 3906 H 358.544 3.63408 -3.25247 0
M  V30 3907 H 357.549 2.18528 -5.04505 0
M  V30 3908 H 358.774 2.76758 -6.20146 0
M  V30 3909 H 356.72 4.4991 -4.77406 0
M  V30 3910 H 356.637 3.98212 -6.42622 0
M  V30 3911 H 357.905 5.06184 -5.92789 0
M  V30 3912 N 362.134 1.5431 0.320358 0
M  V30 3913 C 363.38 1.72924 1.05949 0
M  V30 3914 C 363.713 0.503185 1.87568 0
M  V30 3915 O 362.988 -0.499839 1.87968 0
M  V30 3916 C 363.271 3.00676 1.98156 0
M  V30 3917 C 363.124 4.3354 1.19845 0
M  V30 3918 C 364.443 3.24198 2.9763 0
M  V30 3919 H 361.562 0.629195 0.383774 0
M  V30 3920 H 364.204 1.87008 0.335854 0
M  V30 3921 H 362.354 2.888 2.59859 0
M  V30 3922 H 364.026 4.57305 0.605773 0
M  V30 3923 H 362.269 4.309 0.500784 0
M  V30 3924 H 362.94 5.19156 1.87567 0
M  V30 3925 H 365.416 3.35557 2.4605 0
M  V30 3926 H 364.292 4.14938 3.59329 0
M  V30 3927 H 364.553 2.41577 3.7026 0
M  V30 3928 N 363.613 -0.582584 1.46437 0
M  V30 3929 C 364.838 -1.37168 1.55563 0
M  V30 3930 C 365.263 -1.87061 0.19743 0
M  V30 3931 O 364.621 -1.61572 -0.822451 0
M  V30 3932 C 364.669 -2.53511 2.56446 0
M  V30 3933 O 363.773 -3.54953 2.09958 0
M  V30 3934 H 363.114 -0.408494 0.523477 0
M  V30 3935 H 365.644 -0.706646 1.9201 0
M  V30 3936 H 365.654 -3.00426 2.76058 0
M  V30 3937 H 364.329 -2.16549 3.55076 0
M  V30 3938 H 362.906 -3.14516 2.00334 0
M  V30 3939 N 365.091 -1.34144 -0.827227 0
M  V30 3940 C 366.368 -1.16844 -1.56865 0
M  V30 3941 C 366.748 0.260654 -2.09485 0
M  V30 3942 O 366.096 1.26138 -1.9053 0
M  V30 3943 C 366.306 -2.21939 -2.6934 0
M  V30 3944 C 367.654 -2.56695 -3.3822 0
M  V30 3945 O 368.678 -2.20695 -2.79593 0
M  V30 3946 O 367.537 -3.18518 -4.44082 0
M  V30 3947 H 364.631 -0.452669 -0.692112 0
M  V30 3948 H 367.177 -1.45763 -0.868973 0
M  V30 3949 H 365.949 -3.17882 -2.28182 0
M  V30 3950 H 365.572 -1.94172 -3.46962 0
M  V30 3951 N 366.569 1.04691 -1.17803 0
M  V30 3952 C 367.516 2.12557 -0.899343 0
M  V30 3953 C 368.486 1.65339 0.158771 0
M  V30 3954 O 369.671 1.90789 0.0204797 0
M  V30 3955 C 366.811 3.42481 -0.424315 0
M  V30 3956 C 365.924 4.03346 -1.54713 0
M  V30 3957 C 365.059 5.21208 -1.02546 0
M  V30 3958 C 364.098 5.74089 -2.12339 0
M  V30 3959 N 363.235 6.83247 -1.61612 0
M  V30 3960 H 368.075 2.35734 -1.823 0
M  V30 3961 H 365.612 1.1564 -0.909159 0
M  V30 3962 H 367.57 4.16996 -0.130421 0
M  V30 3963 H 366.2 3.19471 0.462377 0
M  V30 3964 H 365.252 3.2622 -1.95664 0
M  V30 3965 H 366.564 4.38628 -2.37501 0
M  V30 3966 H 365.718 6.02812 -0.685718 0
M  V30 3967 H 364.457 4.87414 -0.167084 0
M  V30 3968 H 363.462 4.91111 -2.47165 0
M  V30 3969 H 364.687 6.0993 -2.98601 0
M  V30 3970 H 362.633 6.5134 -0.780533 0
M  V30 3971 H 362.55 7.17559 -2.38003 0
M  V30 3972 H 363.818 7.68491 -1.30545 0
M  V30 3973 N 368.047 0.979072 1.23499 0
M  V30 3974 C 368.995 0.510604 2.26926 0
M  V30 3975 C 369.989 -0.431691 1.63807 0
M  V30 3976 O 371.195 -0.30573 1.77385 0
M  V30 3977 H 367.57 0.146688 0.737554 0
M  V30 3978 H 369.541 1.39466 2.63803 0
M  V30 3979 C 368.29 -0.172658 3.47271 0
M  V30 3980 H 367.613 0.543331 3.96091 0
M  V30 3981 H 369.053 -0.464101 4.21452 0
M  V30 3982 C 367.512 -1.40345 3.06276 0
M  V30 3983 O 368.042 -2.49978 3.14442 0
M  V30 3984 N 366.248 -1.27362 2.61203 0
M  V30 3985 H 365.795 -0.381584 2.54758 0
M  V30 3986 H 365.753 -2.09822 2.34141 0
M  V30 3987 N 369.525 -1.3858 0.750561 0
M  V30 3988 C 370.455 -2.33102 0.136237 0
M  V30 3989 C 371.436 -1.54713 -0.706965 0
M  V30 3990 O 372.621 -1.83043 -0.648769 0
M  V30 3991 C 369.751 -3.38882 -0.760017 0
M  V30 3992 C 368.705 -4.27995 -0.0197785 0
M  V30 3993 C 368.031 -5.24605 -1.03408 0
M  V30 3994 C 369.331 -5.09554 1.14684 0
M  V30 3995 H 371.025 -2.84726 0.925822 0
M  V30 3996 H 368.571 -1.36898 0.446654 0
M  V30 3997 H 370.524 -4.0397 -1.19943 0
M  V30 3998 H 369.248 -2.85734 -1.58189 0
M  V30 3999 H 367.907 -3.64409 0.400184 0
M  V30 4000 H 367.555 -4.67746 -1.84994 0
M  V30 4001 H 367.255 -5.85081 -0.543464 0
M  V30 4002 H 368.779 -5.9257 -1.47288 0
M  V30 4003 H 370.193 -5.67899 0.785118 0
M  V30 4004 H 368.59 -5.7925 1.56812 0
M  V30 4005 H 369.66 -4.4347 1.96118 0
M  V30 4006 N 371.003 -0.499398 -1.49478 0
M  V30 4007 C 372.228 0.044722 -2.07352 0
M  V30 4008 C 372.653 1.30207 -1.35749 0
M  V30 4009 O 372.011 1.76516 -0.413732 0
M  V30 4010 C 372.059 0.283013 -3.59488 0
M  V30 4011 O 371.163 1.35804 -3.89398 0
M  V30 4012 H 370.504 -0.0255147 -0.66351 0
M  V30 4013 H 373.034 -0.698561 -1.92305 0
M  V30 4014 H 373.044 0.515007 -4.04737 0
M  V30 4015 H 371.719 -0.635636 -4.11014 0
M  V30 4016 H 370.296 1.11113 -3.55961 0
M  V30 4017 N 372.481 1.55866 -0.233164 0
M  V30 4018 C 373.73 1.97779 0.39579 0
M  V30 4019 C 374.043 1.12419 1.60066 0
M  V30 4020 O 375.249 1.44283 2.29988 0
M  V30 4021 C 373.705 3.5188 0.755556 0
M  V30 4022 C 373.313 4.45959 -0.427152 0
M  V30 4023 C 375.057 4.02479 1.34946 0
M  V30 4024 C 372.964 5.91383 -0.0443043 0
M  V30 4025 H 371.894 0.738592 0.15165 0
M  V30 4026 H 374.545 1.80486 -0.331212 0
M  V30 4027 H 372.927 3.64816 1.5403 0
M  V30 4028 H 374.101 4.44776 -1.20462 0
M  V30 4029 H 372.416 4.05765 -0.935068 0
M  V30 4030 H 375.013 5.08637 1.649 0
M  V30 4031 H 375.356 3.49014 2.26925 0
M  V30 4032 H 375.889 3.92813 0.62791 0
M  V30 4033 H 372.628 6.48857 -0.930874 0
M  V30 4034 H 372.148 5.95734 0.697238 0
M  V30 4035 H 373.827 6.45893 0.378334 0
M  V30 4036 N 373.959 -0.0401083 1.57549 0
M  V30 4037 C 374.909 -1.05175 2.02292 0
M  V30 4038 C 375.893 -1.32674 0.910294 0
M  V30 4039 O 377.085 -1.32444 1.17421 0
M  V30 4040 C 374.214 -2.35622 2.49674 0
M  V30 4041 C 373.3 -2.11261 3.67736 0
M  V30 4042 N 373.691 -1.56923 4.80842 0
M  V30 4043 C 371.989 -2.41596 3.74897 0
M  V30 4044 C 372.69 -1.48111 5.62528 0
M  V30 4045 N 371.666 -1.95282 5.07312 0
M  V30 4046 H 375.468 -0.625455 2.87168 0
M  V30 4047 H 372.982 -0.246624 1.60516 0
M  V30 4048 H 374.979 -3.08893 2.79983 0
M  V30 4049 H 373.639 -2.7894 1.662 0
M  V30 4050 H 374.65 -1.25345 5.02503 0
M  V30 4051 H 371.327 -2.88064 3.02201 0
M  V30 4052 H 372.717 -1.06683 6.63377 0
M  V30 4053 N 375.437 -1.54477 -0.31217 0
M  V30 4054 C 376.367 -1.87652 -1.38957 0
M  V30 4055 C 377.348 -0.734358 -1.53431 0
M  V30 4056 O 378.533 -0.98911 -1.67123 0
M  V30 4057 C 375.663 -2.11396 -2.75552 0
M  V30 4058 C 374.617 -3.27243 -2.75855 0
M  V30 4059 C 373.943 -3.36382 -4.15633 0
M  V30 4060 C 375.243 -4.64622 -2.38587 0
M  V30 4061 H 376.937 -2.77887 -1.11442 0
M  V30 4062 H 374.483 -1.33707 -0.534655 0
M  V30 4063 H 376.436 -2.33189 -3.51 0
M  V30 4064 H 375.16 -1.17921 -3.04569 0
M  V30 4065 H 373.819 -3.05356 -2.02863 0
M  V30 4066 H 373.467 -2.40445 -4.41809 0
M  V30 4067 H 373.167 -4.14249 -4.1674 0
M  V30 4068 H 374.691 -3.60422 -4.92877 0
M  V30 4069 H 376.105 -4.86219 -3.03749 0
M  V30 4070 H 374.502 -5.45121 -2.50925 0
M  V30 4071 H 375.572 -4.66097 -1.33723 0
M  V30 4072 N 376.915 0.57481 -1.46744 0
M  V30 4073 C 378.14 1.36341 -1.56288 0
M  V30 4074 C 378.565 1.86954 -0.207347 0
M  V30 4075 O 377.923 1.62006 0.813871 0
M  V30 4076 C 377.971 2.52147 -2.57787 0
M  V30 4077 O 377.075 3.53834 -2.11838 0
M  V30 4078 H 376.416 0.405713 -0.525636 0
M  V30 4079 H 378.946 0.696453 -1.92382 0
M  V30 4080 H 378.956 2.98958 -2.77648 0
M  V30 4081 H 377.631 2.14663 -3.5622 0
M  V30 4082 H 376.208 3.1345 -2.01999 0
M  V30 4083 N 378.394 1.34581 0.820102 0
M  V30 4084 C 379.671 1.17675 1.56244 0
M  V30 4085 C 380.051 -0.249541 2.0962 0
M  V30 4086 O 379.399 -1.25125 1.91196 0
M  V30 4087 C 379.609 2.23364 2.6816 0
M  V30 4088 C 380.957 2.58485 3.36854 0
M  V30 4089 O 381.981 2.22175 2.78418 0
M  V30 4090 O 380.84 3.20868 4.42386 0
M  V30 4091 H 377.934 0.456333 0.689702 0
M  V30 4092 H 380.48 1.46222 0.861231 0
M  V30 4093 H 379.252 3.19087 2.26493 0
M  V30 4094 H 378.875 1.96009 3.45928 0
M  V30 4095 N 379.872 -1.04064 1.18357 0
M  V30 4096 C 381.12 -1.76915 0.977013 0
M  V30 4097 C 381.441 -1.88624 -0.494577 0
M  V30 4098 O 380.711 -1.41125 -1.3587 0
M  V30 4099 H 379.291 -0.65535 0.358504 0
M  V30 4100 H 381.953 -1.25592 1.49039 0
M  V30 4101 H 381.049 -2.78178 1.41504 0
M  V30 4102 N 381.35 -0.985608 -1.22978 0
M  V30 4103 C 382.766 -0.695104 -1.43668 0
M  V30 4104 C 382.966 0.736866 -1.87543 0
M  V30 4105 O 382.022 1.50868 -2.02473 0
M  V30 4106 C 383.335 -1.69447 -2.48412 0
M  V30 4107 C 384.883 -1.70909 -2.62219 0
M  V30 4108 C 385.358 -2.6969 -3.70178 0
M  V30 4109 N 386.849 -2.6824 -3.77626 0
M  V30 4110 C 387.584 -3.41339 -4.60733 0
M  V30 4111 N 387.08 -4.24015 -5.4789 0
M  V30 4112 N 388.873 -3.30079 -4.54977 0
M  V30 4113 H 381.024 -1.91054 -0.928016 0
M  V30 4114 H 383.287 -0.823553 -0.469536 0
M  V30 4115 H 382.993 -2.7188 -2.23102 0
M  V30 4116 H 382.867 -1.48147 -3.46889 0
M  V30 4117 H 385.254 -0.691785 -2.86877 0
M  V30 4118 H 385.335 -1.96276 -1.6404 0
M  V30 4119 H 384.979 -3.71566 -3.46268 0
M  V30 4120 H 384.909 -2.41595 -4.67909 0
M  V30 4121 H 387.4 -2.08243 -3.15346 0
M  V30 4122 H 387.713 -4.76636 -6.08308 0
M  V30 4123 H 386.058 -4.28104 -5.47496 0
M  V30 4124 H 389.249 -2.64937 -3.85909 0
M  V30 4125 H 389.422 -3.87308 -5.19516 0
M  V30 4126 N 382.828 1.3818 -0.7579 0
M  V30 4127 C 384.077 1.99261 -0.312744 0
M  V30 4128 C 384.39 1.60846 1.11301 0
M  V30 4129 O 385.596 2.14929 1.65885 0
M  V30 4130 C 384.052 3.56294 -0.50821 0
M  V30 4131 C 383.66 4.03657 -1.94333 0
M  V30 4132 C 385.404 4.24313 -0.125982 0
M  V30 4133 C 383.311 5.53347 -2.08712 0
M  V30 4134 H 382.241 0.745456 -0.113185 0
M  V30 4135 H 384.892 1.57889 -0.935056 0
M  V30 4136 H 383.274 3.95575 0.183353 0
M  V30 4137 H 384.448 3.75655 -2.66871 0
M  V30 4138 H 382.763 3.48376 -2.28086 0
M  V30 4139 H 385.36 5.34279 -0.212125 0
M  V30 4140 H 385.703 4.05962 0.921964 0
M  V30 4141 H 386.236 3.90285 -0.769563 0
M  V30 4142 H 382.975 5.76607 -3.11777 0
M  V30 4143 H 382.495 5.83078 -1.4064 0
M  V30 4144 H 384.174 6.19111 -1.87912 0
M  V30 4145 N 384.306 0.507319 1.49211 0
M  V30 4146 C 385.536 -0.0315292 2.06576 0
M  V30 4147 C 385.944 -1.30791 1.36713 0
M  V30 4148 O 385.287 -1.78324 0.441181 0
M  V30 4149 C 385.349 -0.349104 3.57801 0
M  V30 4150 C 385.013 0.830475 4.49391 0
M  V30 4151 C 386.01 1.72271 4.90529 0
M  V30 4152 C 383.695 1.03107 4.91604 0
M  V30 4153 C 385.689 2.79964 5.72625 0
M  V30 4154 C 383.376 2.11116 5.73475 0
M  V30 4155 C 384.374 2.99379 6.1389 0
M  V30 4156 O 384.062 4.05523 6.94123 0
M  V30 4157 H 383.794 0.0201002 0.675701 0
M  V30 4158 H 386.348 0.705737 1.92895 0
M  V30 4159 H 384.578 -1.14005 3.69513 0
M  V30 4160 H 386.267 -0.827319 3.97379 0
M  V30 4161 H 387.033 1.57958 4.58557 0
M  V30 4162 H 382.912 0.353417 4.59643 0
M  V30 4163 H 386.456 3.48884 6.04091 0
M  V30 4164 H 382.353 2.25421 6.0486 0
M  V30 4165 H 383.121 4.02953 7.1244 0
M  V30 4166 N 385.784 -1.5574 0.241426 0
M  V30 4167 C 386.694 -2.2479 -0.671305 0
M  V30 4168 C 387.71 -1.26217 -1.19772 0
M  V30 4169 O 388.886 -1.59079 -1.23514 0
M  V30 4170 C 385.951 -2.92966 -1.85396 0
M  V30 4171 C 385.012 -4.06935 -1.36756 0
M  V30 4172 C 384.245 -4.71851 -2.49384 0
M  V30 4173 O 384.468 -4.35823 -3.67987 0
M  V30 4174 O 383.402 -5.60467 -2.19454 0
M  V30 4175 H 387.228 -3.0349 -0.112966 0
M  V30 4176 H 384.813 -1.49397 0.0101513 0
M  V30 4177 H 386.695 -3.35927 -2.54423 0
M  V30 4178 H 385.37 -2.17211 -2.40002 0
M  V30 4179 H 384.277 -3.68503 -0.644726 0
M  V30 4180 H 385.61 -4.84492 -0.867647 0
M  V30 4181 N 387.262 0.0317525 -1.57568 0
M  V30 4182 C 388.212 1.04101 -2.02847 0
M  V30 4183 C 389.196 1.3219 -0.917317 0
M  V30 4184 O 390.388 1.31819 -1.18121 0
M  V30 4185 C 387.517 2.34295 -2.5092 0
M  V30 4186 C 386.603 2.09308 -3.68851 0
M  V30 4187 N 386.994 1.5437 -4.81667 0
M  V30 4188 C 385.292 2.39604 -3.76172 0
M  V30 4189 C 385.993 1.45126 -5.63306 0
M  V30 4190 N 384.969 1.92589 -5.08341 0
M  V30 4191 H 388.771 0.610217 -2.87495 0
M  V30 4192 H 386.285 0.238108 -1.60645 0
M  V30 4193 H 388.282 3.07404 -2.81617 0
M  V30 4194 H 386.942 2.78055 -1.67677 0
M  V30 4195 H 387.953 1.22678 -5.03161 0
M  V30 4196 H 384.63 2.86457 -3.03724 0
M  V30 4197 H 386.02 1.03163 -6.63933 0
M  V30 4198 N 388.74 1.54641 0.303973 0
M  V30 4199 C 389.987 1.7378 1.03955 0
M  V30 4200 C 390.315 0.521986 1.87365 0
M  V30 4201 O 389.57 -0.496099 1.89308 0
M  V30 4202 C 389.869 2.97753 1.97681 0
M  V30 4203 C 389.535 4.31671 1.30271 0
M  V30 4204 C 388.197 4.68075 1.11619 0
M  V30 4205 C 390.549 5.147 0.82055 0
M  V30 4206 C 387.877 5.8509 0.434304 0
M  V30 4207 C 390.229 6.32416 0.152395 0
M  V30 4208 C 388.893 6.67484 -0.0461067 0
M  V30 4209 H 388.163 0.635908 0.380398 0
M  V30 4210 H 390.81 1.88896 0.314718 0
M  V30 4211 H 389.115 2.77406 2.76682 0
M  V30 4212 H 390.812 3.09756 2.54661 0
M  V30 4213 H 387.402 4.03041 1.45795 0
M  V30 4214 H 391.586 4.87077 0.952374 0
M  V30 4215 H 386.842 6.10806 0.269495 0
M  V30 4216 H 391.016 6.96023 -0.229126 0
M  V30 4217 H 388.643 7.58011 -0.576494 0
M  V30 4218 N 390.218 -0.567019 1.47046 0
M  V30 4219 C 391.495 -1.3276 1.43646 0
M  V30 4220 C 391.875 -2.1071 0.128186 0
M  V30 4221 O 391.223 -2.10441 -0.890326 0
M  V30 4222 C 391.433 -2.2404 2.67595 0
M  V30 4223 C 392.781 -2.85372 3.14401 0
M  V30 4224 O 393.805 -2.34346 2.68254 0
M  V30 4225 O 392.664 -3.78091 3.946 0
M  V30 4226 H 389.758 -0.597293 0.571988 0
M  V30 4227 H 392.304 -0.586735 1.59234 0
M  V30 4228 H 391.076 -1.65975 3.54356 0
M  V30 4229 H 390.699 -3.05439 2.54544 0
M  V30 4230 N 391.696 -1.35014 -0.812953 0
M  V30 4231 C 392.646 -1.23959 -1.91359 0
M  V30 4232 C 393.63 -0.136306 -1.60322 0
M  V30 4233 O 394.822 -0.366925 -1.73155 0
M  V30 4234 C 391.951 -1.00736 -3.28188 0
M  V30 4235 C 391.037 -2.15426 -3.65311 0
M  V30 4236 N 391.428 -3.40612 -3.73921 0
M  V30 4237 C 389.726 -2.06672 -3.95225 0
M  V30 4238 C 390.427 -4.15994 -4.06601 0
M  V30 4239 N 389.403 -3.44685 -4.20349 0
M  V30 4240 H 393.205 -2.18815 -1.96208 0
M  V30 4241 H 390.719 -1.27395 -1.00718 0
M  V30 4242 H 392.716 -0.909052 -4.06868 0
M  V30 4243 H 391.376 -0.067586 -3.2463 0
M  V30 4244 H 392.387 -3.75043 -3.5716 0
M  V30 4245 H 389.064 -1.20511 -3.99729 0
M  V30 4246 H 390.454 -5.24145 -4.20382 0
M  V30 4247 N 393.175 1.03435 -1.18907 0
M  V30 4248 C 394.421 1.77005 -0.989798 0
M  V30 4249 C 394.754 1.88205 0.478816 0
M  V30 4250 O 394.029 1.39481 1.35556 0
M  V30 4251 C 394.312 3.19925 -1.65287 0
M  V30 4252 C 394.165 3.1663 -3.19477 0
M  V30 4253 C 395.484 4.18189 -1.37134 0
M  V30 4254 H 392.603 0.642538 -0.360991 0
M  V30 4255 H 395.245 1.20784 -1.46667 0
M  V30 4256 H 393.395 3.67929 -1.24741 0
M  V30 4257 H 395.067 2.76567 -3.692 0
M  V30 4258 H 393.31 2.54491 -3.51307 0
M  V30 4259 H 393.981 4.1758 -3.61013 0
M  V30 4260 H 396.457 3.78761 -1.72276 0
M  V30 4261 H 395.333 5.16394 -1.86087 0
M  V30 4262 H 395.594 4.41112 -0.295424 0
M  V30 4263 N 394.653 0.992116 1.22453 0
M  V30 4264 C 395.902 0.662992 1.90492 0
M  V30 4265 C 396.215 -0.808407 1.78113 0
M  V30 4266 O 397.421 -1.24908 2.41061 0
M  V30 4267 C 395.877 1.1353 3.41524 0
M  V30 4268 C 395.485 2.63187 3.62542 0
M  V30 4269 C 397.229 0.880465 4.15269 0
M  V30 4270 C 395.136 3.04024 5.0727 0
M  V30 4271 H 394.066 0.244278 0.713333 0
M  V30 4272 H 396.717 1.20157 1.38688 0
M  V30 4273 H 395.099 0.52485 3.92506 0
M  V30 4274 H 396.273 3.2957 3.22056 0
M  V30 4275 H 394.588 2.86543 3.02129 0
M  V30 4276 H 397.185 1.16128 5.21937 0
M  V30 4277 H 397.528 -0.183408 4.15896 0
M  V30 4278 H 398.061 1.45307 3.70312 0
M  V30 4279 H 394.8 4.09584 5.11782 0
M  V30 4280 H 394.32 2.42343 5.48662 0
M  V30 4281 H 395.999 2.95282 5.75689 0
M  V30 4282 N 396.131 -1.37776 0.765217 0
M  V30 4283 C 397.361 -2.03828 0.337277 0
M  V30 4284 C 397.769 -1.57841 -1.04321 0
M  V30 4285 O 397.112 -0.752043 -1.67601 0
M  V30 4286 C 397.174 -3.58292 0.294407 0
M  V30 4287 C 396.838 -4.27384 1.61838 0
M  V30 4288 C 397.835 -4.51956 2.56967 0
M  V30 4289 C 395.52 -4.65345 1.89102 0
M  V30 4290 C 397.514 -5.13536 3.77571 0
M  V30 4291 C 395.201 -5.26647 3.09978 0
M  V30 4292 C 396.199 -5.50679 4.04032 0
M  V30 4293 O 395.887 -6.10702 5.2278 0
M  V30 4294 H 395.619 -0.661292 0.140248 0
M  V30 4295 H 398.173 -1.77222 1.03834 0
M  V30 4296 H 396.403 -3.83918 -0.462983 0
M  V30 4297 H 398.092 -4.05763 -0.105581 0
M  V30 4298 H 398.858 -4.23048 2.37183 0
M  V30 4299 H 394.737 -4.45978 1.16725 0
M  V30 4300 H 398.281 -5.3221 4.50997 0
M  V30 4301 H 394.178 -5.54979 3.29649 0
M  V30 4302 H 394.946 -6.29183 5.23517 0
M  V30 4303 N 397.609 -0.515225 -1.4894 0
M  V30 4304 C 398.849 0.0223983 -2.04388 0
M  V30 4305 C 399.213 1.32961 -1.38511 0
M  V30 4306 O 400.414 1.95236 -1.8476 0
M  V30 4307 C 398.685 0.157056 -3.57055 0
M  V30 4308 S 400.244 0.646875 -4.34006 0
M  V30 4309 H 397.062 -0.00500662 -0.710982 0
M  V30 4310 H 399.664 -0.69243 -1.82827 0
M  V30 4311 H 398.368 -0.799412 -4.02539 0
M  V30 4312 H 397.899 0.896704 -3.83044 0
M  V30 4313 H 399.914 1.91381 -4.57808 0
M  V30 4314 N 399.087 1.5561 -0.249682 0
M  V30 4315 C 400.333 1.99306 0.374841 0
M  V30 4316 C 400.666 1.13767 1.57387 0
M  V30 4317 O 399.941 0.201711 1.93451 0
M  V30 4318 C 400.224 3.51507 0.781986 0
M  V30 4319 C 400.077 4.4781 -0.422629 0
M  V30 4320 C 401.396 4.08884 1.62793 0
M  V30 4321 H 398.515 0.724572 0.134773 0
M  V30 4322 H 401.157 1.86719 -0.351549 0
M  V30 4323 H 399.307 3.62363 1.4009 0
M  V30 4324 H 400.979 4.48931 -1.06108 0
M  V30 4325 H 399.222 4.20518 -1.06524 0
M  V30 4326 H 399.893 5.51919 -0.0943766 0
M  V30 4327 H 402.369 4.01147 1.10547 0
M  V30 4328 H 401.245 5.1564 1.88166 0
M  V30 4329 H 401.506 3.57515 2.60068 0
M  V30 4330 N 400.565 -0.0233959 1.57583 0
M  V30 4331 C 401.813 -0.711654 1.89156 0
M  V30 4332 C 402.134 -1.75591 0.848096 0
M  V30 4333 O 401.404 -1.95547 -0.117566 0
M  V30 4334 H 399.984 -0.265835 0.698098 0
M  V30 4335 H 402.646 0.0119948 1.94896 0
M  V30 4336 H 401.742 -1.19766 2.88206 0
M  V30 4337 N 402.043 -1.548 -0.295768 0
M  V30 4338 C 403.459 -1.4613 -0.641722 0
M  V30 4339 C 403.659 -0.656771 -1.90496 0
M  V30 4340 O 402.715 -0.166547 -2.5195 0
M  V30 4341 C 404.028 -2.90141 -0.789852 0
M  V30 4342 C 405.576 -3.00216 -0.885396 0
M  V30 4343 C 406.051 -4.45434 -1.06548 0
M  V30 4344 N 407.542 -4.49166 -1.13156 0
M  V30 4345 C 408.277 -5.58717 -1.28929 0
M  V30 4346 N 407.773 -6.78182 -1.41567 0
M  V30 4347 N 409.566 -5.46415 -1.31859 0
M  V30 4348 H 401.717 -2.05574 0.534147 0
M  V30 4349 H 403.98 -0.931259 0.177372 0
M  V30 4350 H 403.686 -3.51635 0.0675598 0
M  V30 4351 H 403.56 -3.37859 -1.67724 0
M  V30 4352 H 405.947 -2.38833 -1.73329 0
M  V30 4353 H 406.028 -2.55787 0.0261185 0
M  V30 4354 H 405.672 -5.07413 -0.222335 0
M  V30 4355 H 405.602 -4.87499 -1.9913 0
M  V30 4356 H 408.093 -3.631 -1.04721 0
M  V30 4357 H 408.406 -7.57428 -1.53372 0
M  V30 4358 H 406.751 -6.81037 -1.38613 0
M  V30 4359 H 409.942 -4.5203 -1.21601 0
M  V30 4360 H 410.115 -6.31841 -1.43808 0
M  V30 4361 N 403.521 0.559213 -1.47345 0
M  V30 4362 C 404.746 1.34676 -1.57725 0
M  V30 4363 C 405.171 1.86723 -0.227164 0
M  V30 4364 O 404.529 1.6286 0.796642 0
M  V30 4365 C 404.577 2.49399 -2.60447 0
M  V30 4366 O 403.681 3.51567 -2.15578 0
M  V30 4367 H 403.022 0.400115 -0.52991 0
M  V30 4368 H 405.552 0.676009 -1.93109 0
M  V30 4369 H 405.562 2.95996 -2.80803 0
M  V30 4370 H 404.237 2.10873 -3.58477 0
M  V30 4371 H 402.814 3.11289 -2.05313 0
M  V30 4372 N 404.999 1.35443 0.805782 0
M  V30 4373 C 406.41 1.25768 1.37983 0
M  V30 4374 C 406.761 -0.10958 1.95894 0
M  V30 4375 O 405.886 -1.01056 1.91355 0
M  V30 4376 C 406.481 2.27727 2.5085 0
M  V30 4377 C 405.04 2.2179 3.04115 0
M  V30 4378 C 404.187 2.13393 1.77084 0
M  V30 4379 H 407.138 1.4656 0.608752 0
M  V30 4380 H 407.159 1.90422 3.29424 0
M  V30 4381 H 406.671 3.27227 2.08671 0
M  V30 4382 H 404.772 1.25703 3.50756 0
M  V30 4383 H 404.885 3.13788 3.62042 0
M  V30 4384 H 403.249 1.59384 1.98668 0
M  V30 4385 H 404.032 3.14755 1.37056 0
M  V30 4386 N 406.477 -1.02803 1.19454 0
M  V30 4387 C 407.754 -1.73299 0.907013 0
M  V30 4388 C 408.134 -2.02772 -0.587086 0
M  V30 4389 O 407.482 -1.68304 -1.54551 0
M  V30 4390 C 407.692 -3.00912 1.76785 0
M  V30 4391 C 409.04 -3.74403 2.00268 0
M  V30 4392 O 410.064 -3.10841 1.73943 0
M  V30 4393 O 408.923 -4.88675 2.4466 0
M  V30 4394 H 406.017 -0.754727 0.338106 0
M  V30 4395 H 408.563 -1.08754 1.30271 0
M  V30 4396 H 407.335 -2.75366 2.7801 0
M  V30 4397 H 406.958 -3.73197 1.37149 0
M  V30 4398 N 407.956 -0.998596 -1.21925 0
M  V30 4399 C 409.184 -0.696286 -1.94832 0
M  V30 4400 C 409.599 0.740032 -1.73692 0
M  V30 4401 O 408.956 1.5 -1.03953 0
M  V30 4402 C 409.007 -0.999833 -3.47398 0
M  V30 4403 O 408.728 -2.37972 -3.67833 0
M  V30 4404 C 410.229 -0.716025 -4.37479 0
M  V30 4405 H 407.449 -0.257111 -0.619786 0
M  V30 4406 H 409.993 -1.33491 -1.54921 0
M  V30 4407 H 408.148 -0.406918 -3.85257 0
M  V30 4408 H 408.562 -2.48338 -4.61983 0
M  V30 4409 H 410.036 -0.978642 -5.43256 0
M  V30 4410 H 410.513 0.349968 -4.37803 0
M  V30 4411 H 411.119 -1.29025 -4.05256 0
M  V30 4412 N 409.434 1.37368 -0.772513 0
M  V30 4413 C 410.344 2.34053 -0.160081 0
M  V30 4414 C 411.36 1.60216 0.678728 0
M  V30 4415 O 412.536 1.92303 0.59847 0
M  V30 4416 C 409.601 3.3939 0.708182 0
M  V30 4417 C 408.662 4.29048 -0.147172 0
M  V30 4418 C 407.895 5.29354 0.679744 0
M  V30 4419 O 408.118 5.3723 1.91678 0
M  V30 4420 O 407.052 6.01835 0.0885444 0
M  V30 4421 H 410.878 2.88159 -0.959053 0
M  V30 4422 H 408.463 1.39543 -0.533685 0
M  V30 4423 H 410.345 4.03839 1.20384 0
M  V30 4424 H 409.02 2.8761 1.48533 0
M  V30 4425 H 407.927 3.67697 -0.689205 0
M  V30 4426 H 409.26 4.84134 -0.887423 0
M  V30 4427 N 410.912 0.523116 1.48665 0
M  V30 4428 C 411.86 -0.256859 2.31177 0
M  V30 4429 C 412.854 -0.94199 1.40794 0
M  V30 4430 O 414.06 -0.867157 1.57735 0
M  V30 4431 H 410.435 -0.1017 0.745091 0
M  V30 4432 H 412.406 0.458739 2.94853 0
M  V30 4433 C 411.155 -1.29503 3.22683 0
M  V30 4434 H 410.478 -0.777248 3.92172 0
M  V30 4435 H 411.918 -1.81233 3.83315 0
M  V30 4436 C 410.377 -2.32501 2.43813 0
M  V30 4437 O 410.907 -3.3881 2.15803 0
M  V30 4438 N 409.113 -2.05538 2.05432 0
M  V30 4439 H 408.66 -1.19104 2.28412 0
M  V30 4440 H 408.618 -2.74676 1.52973 0
M  V30 4441 N 412.39 -1.55475 0.257931 0
M  V30 4442 C 413.32 -2.24815 -0.630912 0
M  V30 4443 C 414.301 -1.23224 -1.17259 0
M  V30 4444 O 415.486 -1.51904 -1.20991 0
M  V30 4445 C 412.616 -2.95609 -1.82298 0
M  V30 4446 C 411.57 -4.03982 -1.41359 0
M  V30 4447 C 410.896 -4.6226 -2.68738 0
M  V30 4448 C 412.196 -5.19109 -0.57648 0
M  V30 4449 H 413.89 -2.99354 -0.0526878 0
M  V30 4450 H 411.436 -1.4398 -0.023901 0
M  V30 4451 H 413.389 -3.42822 -2.45054 0
M  V30 4452 H 412.113 -2.18577 -2.42676 0
M  V30 4453 H 410.772 -3.57555 -0.809324 0
M  V30 4454 H 410.42 -3.81915 -3.27338 0
M  V30 4455 H 410.12 -5.35424 -2.42065 0
M  V30 4456 H 411.644 -5.12212 -3.32372 0
M  V30 4457 H 413.058 -5.62479 -1.10861 0
M  V30 4458 H 411.455 -5.98729 -0.405351 0
M  V30 4459 H 412.525 -4.83174 0.408776 0
M  V30 4460 N 413.868 0.0150385 -1.57593 0
M  V30 4461 C 414.815 1.01126 -2.07466 0
M  V30 4462 C 415.785 1.35064 -0.966794 0
M  V30 4463 O 416.97 1.4516 -1.23827 0
M  V30 4464 C 414.11 2.30276 -2.57035 0
M  V30 4465 C 413.223 2.02373 -3.81666 0
M  V30 4466 C 412.358 3.25496 -4.19793 0
M  V30 4467 C 411.397 2.93211 -5.37303 0
M  V30 4468 N 410.534 4.08826 -5.70794 0
M  V30 4469 H 415.374 0.57901 -2.92321 0
M  V30 4470 H 412.911 0.27426 -1.44521 0
M  V30 4471 H 414.869 3.05757 -2.83846 0
M  V30 4472 H 413.499 2.71197 -1.75077 0
M  V30 4473 H 412.551 1.17327 -3.61854 0
M  V30 4474 H 413.863 1.74567 -4.67256 0
M  V30 4475 H 413.017 4.09333 -4.47807 0
M  V30 4476 H 411.756 3.56428 -3.32882 0
M  V30 4477 H 410.761 2.07777 -5.09027 0
M  V30 4478 H 411.986 2.63542 -6.25877 0
M  V30 4479 H 409.932 4.39682 -4.86842 0
M  V30 4480 H 409.849 3.84491 -6.50924 0
M  V30 4481 H 411.117 4.93496 -6.03392 0
M  V30 4482 N 415.346 1.54954 0.287554 0
M  V30 4483 C 416.276 1.89839 1.35954 0
M  V30 4484 C 417.257 0.758675 1.52244 0
M  V30 4485 O 418.442 1.01557 1.65529 0
M  V30 4486 C 415.572 2.15753 2.72154 0
M  V30 4487 C 414.526 3.3159 2.70614 0
M  V30 4488 C 413.852 3.42952 4.10229 0
M  V30 4489 C 415.152 4.68359 2.31165 0
M  V30 4490 H 416.846 2.79625 1.07007 0
M  V30 4491 H 414.392 1.3454 0.513316 0
M  V30 4492 H 416.345 2.38743 3.47246 0
M  V30 4493 H 415.069 1.22752 3.02654 0
M  V30 4494 H 413.728 3.08545 1.97979 0
M  V30 4495 H 413.376 2.47443 4.37928 0
M  V30 4496 H 413.076 4.20826 4.10097 0
M  V30 4497 H 414.6 3.68218 4.87081 0
M  V30 4498 H 416.014 4.9099 2.95976 0
M  V30 4499 H 414.411 5.49044 2.42221 0
M  V30 4500 H 415.481 4.68165 1.26291 0
M  V30 4501 N 416.824 -0.551391 1.4764 0
M  V30 4502 C 417.734 -1.68525 1.63207 0
M  V30 4503 C 418.75 -1.6621 0.514815 0
M  V30 4504 O 419.926 -1.85551 0.783113 0
M  V30 4505 C 416.991 -3.05025 1.64805 0
M  V30 4506 C 416.052 -3.18362 2.88 0
M  V30 4507 C 415.285 -4.4835 2.89513 0
M  V30 4508 O 415.508 -5.34163 2.00065 0
M  V30 4509 O 414.442 -4.65602 3.81443 0
M  V30 4510 H 418.268 -1.58333 2.59161 0
M  V30 4511 H 415.853 -0.722063 1.30792 0
M  V30 4512 H 417.735 -3.86245 1.68502 0
M  V30 4513 H 416.41 -3.15587 0.720197 0
M  V30 4514 H 415.317 -2.36518 2.89845 0
M  V30 4515 H 416.65 -3.12707 3.80099 0
M  V30 4516 N 418.302 -1.35869 -0.798587 0
M  V30 4517 C 419.249 -1.29446 -1.91082 0
M  V30 4518 C 420.219 -0.16487 -1.6528 0
M  V30 4519 O 421.404 -0.349888 -1.87564 0
M  V30 4520 C 418.544 -1.0804 -3.27752 0
M  V30 4521 C 417.657 -2.29993 -3.65687 0
M  V30 4522 C 416.792 -2.01673 -4.91428 0
M  V30 4523 C 415.831 -3.19636 -5.22015 0
M  V30 4524 N 414.968 -2.91039 -6.38937 0
M  V30 4525 H 419.808 -2.24553 -1.95907 0
M  V30 4526 H 417.345 -1.11615 -0.958148 0
M  V30 4527 H 419.303 -0.936586 -4.06551 0
M  V30 4528 H 417.933 -0.16592 -3.22373 0
M  V30 4529 H 416.985 -2.55211 -2.82085 0
M  V30 4530 H 418.297 -3.18052 -3.84245 0
M  V30 4531 H 417.451 -1.84168 -5.78072 0
M  V30 4532 H 416.19 -1.10911 -4.74921 0
M  V30 4533 H 415.195 -3.37709 -4.33858 0
M  V30 4534 H 416.42 -4.11211 -5.40447 0
M  V30 4535 H 414.366 -2.0288 -6.2384 0
M  V30 4536 H 414.283 -3.72635 -6.57784 0
M  V30 4537 H 415.551 -2.77093 -7.28587 0
M  V30 4538 N 419.78 1.02168 -1.19998 0
M  V30 4539 C 420.71 2.12488 -0.96804 0
M  V30 4540 C 421.691 1.69799 0.101185 0
M  V30 4541 O 422.876 1.94121 -0.0552993 0
M  V30 4542 C 420.006 3.43479 -0.513776 0
M  V30 4543 C 418.96 3.99884 -1.52566 0
M  V30 4544 C 418.286 5.26582 -0.928214 0
M  V30 4545 C 419.586 4.33861 -2.90795 0
M  V30 4546 H 421.28 2.32149 -1.89069 0
M  V30 4547 H 418.826 1.11564 -0.910468 0
M  V30 4548 H 420.779 4.20036 -0.338774 0
M  V30 4549 H 419.503 3.23561 0.444493 0
M  V30 4550 H 418.162 3.25429 -1.68794 0
M  V30 4551 H 417.81 5.02986 0.0378289 0
M  V30 4552 H 417.51 5.65284 -1.60397 0
M  V30 4553 H 419.034 6.05799 -0.764167 0
M  V30 4554 H 420.448 5.01327 -2.78109 0
M  V30 4555 H 418.845 4.83664 -3.55231 0
M  V30 4556 H 419.915 3.42848 -3.42904 0
M  V30 4557 N 421.258 1.00505 1.21394 0
M  V30 4558 C 422.206 0.558623 2.25792 0
M  V30 4559 C 423.2 -0.396848 1.64686 0
M  V30 4560 O 424.406 -0.268035 1.77993 0
M  V30 4561 H 420.781 0.1623 0.734277 0
M  V30 4562 H 422.752 1.4503 2.60785 0
M  V30 4563 C 421.501 -0.0989574 3.47559 0
M  V30 4564 H 420.824 0.627225 3.94849 0
M  V30 4565 H 422.264 -0.3746 4.22342 0
M  V30 4566 C 420.723 -1.33817 3.09184 0
M  V30 4567 O 421.253 -2.43252 3.19674 0
M  V30 4568 N 419.459 -1.21793 2.63846 0
M  V30 4569 H 419.006 -0.32746 2.5551 0
M  V30 4570 H 418.964 -2.04809 2.38539 0
M  V30 4571 N 422.737 -1.36956 0.779787 0
M  V30 4572 C 423.983 -1.99787 0.348281 0
M  V30 4573 C 424.316 -1.61756 -1.07465 0
M  V30 4574 O 423.591 -0.867639 -1.74075 0
M  V30 4575 C 423.874 -3.56597 0.50104 0
M  V30 4576 C 423.727 -4.04513 1.96697 0
M  V30 4577 C 425.046 -4.40008 -0.0898097 0
M  V30 4578 H 422.165 -0.725796 0.128022 0
M  V30 4579 H 424.807 -1.62514 0.984331 0
M  V30 4580 H 422.957 -3.88479 -0.0404347 0
M  V30 4581 H 424.629 -3.83161 2.56876 0
M  V30 4582 H 422.872 -3.56408 2.47297 0
M  V30 4583 H 423.543 -5.1352 2.02486 0
M  V30 4584 H 426.019 -4.14431 0.372293 0
M  V30 4585 H 424.895 -5.4888 0.0471605 0
M  V30 4586 H 425.156 -4.26035 -1.18096 0
M  V30 4587 N 424.215 -0.530993 -1.48385 0
M  V30 4588 C 425.125 0.23503 -2.3342 0
M  V30 4589 C 426.141 0.93801 -1.46552 0
M  V30 4590 O 427.317 0.912745 -1.7953 0
M  V30 4591 C 424.382 1.26778 -3.22689 0
M  V30 4592 C 423.443 0.575038 -4.25431 0
M  V30 4593 C 422.676 1.55858 -5.10435 0
M  V30 4594 O 422.899 2.79129 -4.97437 0
M  V30 4595 O 421.833 1.09742 -5.91811 0
M  V30 4596 H 425.659 -0.461794 -3.00169 0
M  V30 4597 H 423.244 -0.291903 -1.46521 0
M  V30 4598 H 425.126 1.86457 -3.77904 0
M  V30 4599 H 423.801 1.94699 -2.586 0
M  V30 4600 H 422.708 -0.0622782 -3.74048 0
M  V30 4601 H 424.041 -0.062253 -4.92161 0
M  V30 4602 N 425.693 1.55336 -0.266172 0
M  V30 4603 C 426.921 2.03801 0.356756 0
M  V30 4604 C 427.336 1.14485 1.50129 0
M  V30 4605 O 426.693 0.163121 1.8177 0
M  V30 4606 C 426.744 3.51455 0.846281 0
M  V30 4607 O 426.465 4.37371 -0.252663 0
M  V30 4608 C 427.966 4.15767 1.53794 0
M  V30 4609 H 425.186 0.665906 0.0825218 0
M  V30 4610 H 427.73 2.00636 -0.39566 0
M  V30 4611 H 425.885 3.55092 1.54881 0
M  V30 4612 H 426.299 5.24358 0.122173 0
M  V30 4613 H 427.773 5.20714 1.83198 0
M  V30 4614 H 428.25 3.63404 2.46646 0
M  V30 4615 H 428.856 4.16107 0.879488 0
M  V30 4616 N 427.171 -0.0066808 1.57599 0
M  V30 4617 C 428.119 -1.01851 2.09115 0
M  V30 4618 C 429.113 -1.36021 1.00969 0
M  V30 4619 O 430.319 -1.34663 1.19439 0
M  V30 4620 H 426.694 -0.346083 0.667631 0
M  V30 4621 H 428.665 -0.558394 2.93129 0
M  V30 4622 C 427.414 -2.30374 2.60429 0
M  V30 4623 H 426.737 -2.04947 3.43273 0
M  V30 4624 H 428.177 -2.99466 3.00161 0
M  V30 4625 C 426.636 -3.00893 1.51542 0
M  V30 4626 O 427.166 -3.91614 0.894484 0
M  V30 4627 N 425.372 -2.62603 1.2445 0
M  V30 4628 H 424.919 -1.88911 1.75129 0
M  V30 4629 H 424.877 -3.10101 0.518137 0
M  V30 4630 N 428.649 -1.55105 -0.279332 0
M  V30 4631 C 429.597 -1.88333 -1.36505 0
M  V30 4632 C 430.591 -0.759043 -1.51443 0
M  V30 4633 O 431.797 -0.943312 -1.53302 0
M  V30 4634 H 428.172 -0.59766 -0.456406 0
M  V30 4635 H 430.143 -2.79041 -1.05728 0
M  V30 4636 C 428.892 -2.16628 -2.7197 0
M  V30 4637 H 428.215 -3.02624 -2.61264 0
M  V30 4638 H 429.655 -2.43803 -3.46895 0
M  V30 4639 C 428.114 -0.971807 -3.22579 0
M  V30 4640 O 428.644 -0.203228 -4.01186 0
M  V30 4641 N 426.85 -0.771238 -2.80179 0
M  V30 4642 H 426.397 -1.39792 -2.1637 0
M  V30 4643 H 426.355 0.0263667 -3.14389 0
M  V30 4644 N 430.127 0.543554 -1.4793 0
M  V30 4645 C 431.075 1.67039 -1.61866 0
M  V30 4646 C 432.069 1.62294 -0.48549 0
M  V30 4647 O 433.275 1.67315 -0.66376 0
M  V30 4648 H 429.65 0.552954 -0.509652 0
M  V30 4649 H 431.621 1.52426 -2.56533 0
M  V30 4650 C 430.37 3.05357 -1.6629 0
M  V30 4651 H 429.693 3.09696 -2.5284 0
M  V30 4652 H 431.133 3.83855 -1.80088 0
M  V30 4653 C 429.592 3.34531 -0.398861 0
M  V30 4654 O 430.122 3.98649 0.494162 0
M  V30 4655 N 428.328 2.89299 -0.2747 0
M  V30 4656 H 427.875 2.37298 -1.00236 0
M  V30 4657 H 427.833 3.09188 0.570075 0
M  V30 4658 N 431.605 1.3629 0.791371 0
M  V30 4659 C 432.835 1.33368 1.57786 0
M  V30 4660 C 433.243 -0.0875188 1.88997 0
M  V30 4661 O 432.586 -1.05427 1.50435 0
M  V30 4662 C 432.648 2.08802 2.92646 0
M  V30 4663 C 432.312 3.57903 2.84174 0
M  V30 4664 C 433.309 4.52191 2.56553 0
M  V30 4665 C 430.994 4.00762 3.02812 0
M  V30 4666 C 432.988 5.87315 2.47669 0
M  V30 4667 C 430.675 5.35977 2.93551 0
M  V30 4668 C 431.673 6.29066 2.66017 0
M  V30 4669 O 431.361 7.61798 2.56746 0
M  V30 4670 H 431.093 0.459166 0.496128 0
M  V30 4671 H 433.647 1.79952 0.990269 0
M  V30 4672 H 431.877 1.56878 3.53449 0
M  V30 4673 H 433.566 1.98762 3.53904 0
M  V30 4674 H 434.332 4.20393 2.41858 0
M  V30 4675 H 430.211 3.2868 3.2325 0
M  V30 4676 H 433.755 6.59943 2.26099 0
M  V30 4677 H 429.652 5.67384 3.07808 0
M  V30 4678 H 430.42 7.71898 2.72242 0
M  V30 4679 N 433.083 -1.0153 1.20538 0
M  V30 4680 C 434.332 -1.74558 1.01057 0
M  V30 4681 C 434.645 -1.90168 -0.457756 0
M  V30 4682 O 435.851 -2.60301 -0.771722 0
M  V30 4683 C 434.307 -3.13963 1.75941 0
M  V30 4684 C 433.915 -3.06361 3.26875 0
M  V30 4685 C 435.659 -3.91191 1.64832 0
M  V30 4686 C 433.566 -4.40782 3.94291 0
M  V30 4687 H 432.496 -0.654417 0.374505 0
M  V30 4688 H 435.147 -1.13521 1.44171 0
M  V30 4689 H 433.529 -3.75549 1.25614 0
M  V30 4690 H 434.703 -2.54074 3.84425 0
M  V30 4691 H 433.018 -2.42625 3.38411 0
M  V30 4692 H 435.615 -4.90644 2.12539 0
M  V30 4693 H 435.958 -4.11884 0.604745 0
M  V30 4694 H 436.491 -3.36236 2.12579 0
M  V30 4695 H 433.23 -4.25292 4.98805 0
M  V30 4696 H 432.75 -4.9307 3.41529 0
M  V30 4697 H 434.429 -5.09621 3.98617 0
M  V30 4698 N 434.561 -1.01147 -1.20859 0
M  V30 4699 C 435.807 -0.698899 -1.90377 0
M  V30 4700 C 436.14 0.76904 -1.78324 0
M  V30 4701 O 435.415 1.55817 -1.16409 0
M  V30 4702 C 435.698 -1.12878 -3.41951 0
M  V30 4703 C 435.551 -2.65665 -3.62963 0
M  V30 4704 C 436.87 -0.696114 -4.3456 0
M  V30 4705 H 433.989 -0.255372 -0.691342 0
M  V30 4706 H 436.631 -1.25831 -1.42361 0
M  V30 4707 H 434.781 -0.652827 -3.82976 0
M  V30 4708 H 436.453 -3.21074 -3.31224 0
M  V30 4709 H 434.696 -3.06878 -3.06608 0
M  V30 4710 H 435.367 -2.90797 -4.69192 0
M  V30 4711 H 437.843 -1.10521 -4.01154 0
M  V30 4712 H 436.719 -1.025 -5.39245 0
M  V30 4713 H 436.98 0.402465 -4.40264 0
M  V30 4714 N 436.039 1.36541 -0.78704 0
M  V30 4715 C 437.285 1.99599 -0.358872 0
M  V30 4716 C 437.618 1.62323 1.06606 0
M  V30 4717 O 436.893 0.876858 1.73613 0
M  V30 4718 C 437.176 3.56327 -0.519944 0
M  V30 4719 C 437.029 4.03464 -1.98839 0
M  V30 4720 C 438.348 4.4005 0.0664737 0
M  V30 4721 H 435.467 0.725107 -0.131869 0
M  V30 4722 H 438.109 1.6199 -0.992936 0
M  V30 4723 H 436.259 3.88495 0.0198321 0
M  V30 4724 H 437.931 3.81793 -2.58905 0
M  V30 4725 H 436.174 3.55092 -2.49183 0
M  V30 4726 H 436.845 5.12439 -2.05207 0
M  V30 4727 H 439.321 4.14228 -0.394267 0
M  V30 4728 H 438.197 5.48847 -0.0762682 0
M  V30 4729 H 438.458 4.26655 1.15835 0
M  V30 4730 N 437.518 0.538854 1.48102 0
M  V30 4731 C 438.795 -0.0568108 1.95517 0
M  V30 4732 C 439.175 -1.50408 1.48124 0
M  V30 4733 O 438.523 -2.17133 0.711727 0
M  V30 4734 C 438.733 0.0696262 3.48931 0
M  V30 4735 C 440.081 -0.0851202 4.24515 0
M  V30 4736 O 441.105 -0.0037347 3.562 0
M  V30 4737 O 439.964 -0.257025 5.45895 0
M  V30 4738 H 437.058 -0.0743695 0.823649 0
M  V30 4739 H 439.604 0.604081 1.58584 0
M  V30 4740 H 438.376 1.07744 3.76174 0
M  V30 4741 H 437.999 -0.629714 3.92582 0
M  V30 4742 N 438.996 -1.55193 0.274407 0
M  V30 4743 C 439.906 -2.26164 -0.623473 0
M  V30 4744 C 440.922 -1.28729 -1.17068 0
M  V30 4745 O 442.098 -1.61663 -1.20112 0
M  V30 4746 C 439.163 -2.96833 -1.7914 0
M  V30 4747 C 438.224 -4.09745 -1.28093 0
M  V30 4748 C 437.457 -4.77034 -2.3932 0
M  V30 4749 O 437.68 -4.4353 -3.5866 0
M  V30 4750 O 436.614 -5.64996 -2.07516 0
M  V30 4751 H 440.44 -3.03661 -0.0485661 0
M  V30 4752 H 438.025 -1.49341 0.0418382 0
M  V30 4753 H 439.907 -3.41248 -2.4724 0
M  V30 4754 H 438.582 -2.22253 -2.35341 0
M  V30 4755 H 437.489 -3.69787 -0.566416 0
M  V30 4756 H 438.822 -4.86224 -0.764683 0
M  V30 4757 N 440.474 -0.00167713 -1.576 0
M  V30 4758 C 441.422 1.0074 -2.09652 0
M  V30 4759 C 442.416 1.35483 -1.01689 0
M  V30 4760 O 443.622 1.34028 -1.20152 0
M  V30 4761 H 439.997 0.342537 -0.669457 0
M  V30 4762 H 441.968 0.542841 -2.93421 0
M  V30 4763 C 440.717 2.2899 -2.61647 0
M  V30 4764 H 440.04 2.03124 -3.44355 0
M  V30 4765 H 441.48 2.9787 -3.01744 0
M  V30 4766 C 439.939 3.00085 -1.53136 0
M  V30 4767 O 440.469 3.91135 -0.91524 0
M  V30 4768 N 438.675 2.6194 -1.25841 0
M  V30 4769 H 438.222 1.8798 -1.76129 0
M  V30 4770 H 438.18 3.09822 -0.534576 0
M  V30 4771 N 441.952 1.55251 0.271103 0
M  V30 4772 C 442.884 1.84675 1.35749 0
M  V30 4773 C 443.897 0.731366 1.45447 0
M  V30 4774 O 445.086 1.00924 1.4723 0
M  V30 4775 C 442.186 1.99638 2.73857 0
M  V30 4776 C 441.359 3.30312 2.86727 0
M  V30 4777 C 440.418 3.35318 4.05522 0
M  V30 4778 O 439.444 4.08682 3.96191 0
M  V30 4779 N 440.646 2.62857 5.17577 0
M  V30 4780 H 443.411 2.78445 1.10853 0
M  V30 4781 H 440.972 1.55191 0.461218 0
M  V30 4782 H 442.964 2.00355 3.51625 0
M  V30 4783 H 441.534 1.12725 2.91568 0
M  V30 4784 H 440.754 3.42118 1.95829 0
M  V30 4785 H 442.042 4.16488 2.92258 0
M  V30 4786 H 441.44 2.02939 5.28046 0
M  V30 4787 H 439.997 2.69295 5.93568 0
M  V30 4788 N 443.43 -0.535701 1.48216 0
M  V30 4789 C 444.846 -0.863701 1.3421 0
M  V30 4790 C 445.046 -1.98458 0.34879 0
M  V30 4791 O 444.102 -2.51432 -0.23204 0
M  V30 4792 C 445.415 -1.23662 2.74095 0
M  V30 4793 C 446.963 -1.34683 2.82541 0
M  V30 4794 C 447.438 -1.75322 4.23115 0
M  V30 4795 N 448.929 -1.82434 4.2576 0
M  V30 4796 C 449.664 -2.15252 5.31464 0
M  V30 4797 N 449.16 -2.46533 6.47452 0
M  V30 4798 N 450.953 -2.16209 5.18855 0
M  V30 4799 H 443.104 0.203965 2.11418 0
M  V30 4800 H 445.367 0.0286033 0.947568 0
M  V30 4801 H 445.073 -0.486674 3.48316 0
M  V30 4802 H 444.947 -2.18805 3.07253 0
M  V30 4803 H 447.334 -2.08756 2.08579 0
M  V30 4804 H 447.415 -0.376756 2.5301 0
M  V30 4805 H 447.059 -1.01812 4.97591 0
M  V30 4806 H 446.989 -2.7337 4.50085 0
M  V30 4807 H 449.48 -1.6056 3.42095 0
M  V30 4808 H 449.793 -2.70662 7.23852 0
M  V30 4809 H 448.138 -2.44065 6.50736 0
M  V30 4810 H 451.329 -1.91224 4.2726 0
M  V30 4811 H 451.502 -2.41453 6.01335 0
M  V30 4812 N 444.908 -1.36708 -0.784132 0
M  V30 4813 C 446.136 -1.34398 -1.57305 0
M  V30 4814 C 446.551 0.0735577 -1.88657 0
M  V30 4815 O 445.908 1.03193 -1.50524 0
M  V30 4816 C 445.959 -2.17053 -2.89085 0
M  V30 4817 O 445.68 -3.53281 -2.59083 0
M  V30 4818 C 447.181 -2.22583 -3.83369 0
M  V30 4819 H 444.401 -0.460819 -0.487736 0
M  V30 4820 H 446.945 -1.79879 -0.972819 0
M  V30 4821 H 445.1 -1.75113 -3.45564 0
M  V30 4822 H 445.514 -3.9647 -3.43383 0
M  V30 4823 H 446.988 -2.84763 -4.72878 0
M  V30 4824 H 447.465 -1.23075 -4.21603 0
M  V30 4825 H 448.071 -2.64781 -3.32823 0
M  V30 4826 N 446.386 1.0089 -1.21074 0
M  V30 4827 C 447.611 1.78727 -1.05221 0
M  V30 4828 C 448.036 1.83932 0.393795 0
M  V30 4829 O 447.394 1.28004 1.28393 0
M  V30 4830 C 447.442 3.20665 -1.64944 0
M  V30 4831 O 446.546 4.02632 -0.892273 0
M  V30 4832 H 445.887 0.550973 -0.370574 0
M  V30 4833 H 448.417 1.26847 -1.60534 0
M  V30 4834 H 448.427 3.71352 -1.69002 0
M  V30 4835 H 447.102 3.16191 -2.70177 0
M  V30 4836 H 445.679 3.61207 -0.926492 0
M  V30 4837 N 447.864 1.01787 1.20321 0
M  V30 4838 C 449.11 0.708985 1.90003 0
M  V30 4839 C 449.443 -0.759572 1.78729 0
M  V30 4840 O 448.718 -1.55198 1.17234 0
M  V30 4841 C 449.001 1.1469 3.41348 0
M  V30 4842 C 448.854 2.67586 3.61549 0
M  V30 4843 C 450.173 0.71915 4.34185 0
M  V30 4844 H 447.292 0.259034 0.689978 0
M  V30 4845 H 449.934 1.26584 1.41692 0
M  V30 4846 H 448.084 0.673128 3.82624 0
M  V30 4847 H 449.756 3.22826 3.29517 0
M  V30 4848 H 447.999 3.085 3.04976 0
M  V30 4849 H 448.67 2.93281 4.67643 0
M  V30 4850 H 451.146 1.12647 4.00562 0
M  V30 4851 H 450.022 1.05358 5.38694 0
M  V30 4852 H 450.283 -0.379111 4.40472 0
M  V30 4853 N 449.342 -1.36122 0.79427 0
M  V30 4854 C 450.29 -2.31871 0.184023 0
M  V30 4855 C 451.284 -1.56041 -0.659365 0
M  V30 4856 O 452.49 -1.71266 -0.553906 0
M  V30 4857 H 448.865 -0.750896 0.0407373 0
M  V30 4858 H 450.836 -2.80898 1.00693 0
M  V30 4859 C 449.585 -3.41324 -0.662813 0
M  V30 4860 H 448.908 -3.99793 -0.0231944 0
M  V30 4861 H 450.348 -4.10629 -1.05639 0
M  V30 4862 C 448.807 -2.83308 -1.82313 0
M  V30 4863 O 449.337 -2.75863 -2.91997 0
M  V30 4864 N 447.543 -2.40529 -1.63077 0
M  V30 4865 H 447.09 -2.46785 -0.738591 0
M  V30 4866 H 447.048 -2.02059 -2.40872 0
M  V30 4867 N 450.82 -0.546701 -1.47814 0
M  V30 4868 C 451.768 0.220048 -2.31557 0
M  V30 4869 C 452.762 0.919472 -1.42275 0
M  V30 4870 O 453.968 0.841953 -1.59095 0
M  V30 4871 H 450.343 0.0898334 -0.746615 0
M  V30 4872 H 452.314 -0.505589 -2.94086 0
M  V30 4873 C 451.063 1.24353 -3.24702 0
M  V30 4874 H 450.386 0.714758 -3.93359 0
M  V30 4875 H 451.826 1.75112 -3.8615 0
M  V30 4876 C 450.285 2.28593 -2.47481 0
M  V30 4877 O 450.815 3.35334 -2.21165 0
M  V30 4878 N 449.021 2.02244 -2.08676 0
M  V30 4879 H 448.568 1.15455 -2.30278 0
M  V30 4880 H 448.526 2.72207 -1.57323 0
M  V30 4881 N 452.299 1.55045 -0.282633 0
M  V30 4882 C 453.548 1.98938 0.332667 0
M  V30 4883 C 453.861 1.17455 1.56409 0
M  V30 4884 O 455.067 1.51527 2.25282 0
M  V30 4885 C 453.523 3.54105 0.643226 0
M  V30 4886 C 453.131 4.44374 -0.568814 0
M  V30 4887 C 454.875 4.06569 1.22074 0
M  V30 4888 C 452.782 5.90943 -0.232426 0
M  V30 4889 H 451.712 0.743043 0.128075 0
M  V30 4890 H 454.363 1.79341 -0.388464 0
M  V30 4891 H 452.745 3.69532 1.42346 0
M  V30 4892 H 453.919 4.40718 -1.34551 0
M  V30 4893 H 452.234 4.02585 -1.06369 0
M  V30 4894 H 454.831 5.13626 1.48635 0
M  V30 4895 H 455.174 3.56057 2.15707 0
M  V30 4896 H 455.707 3.94612 0.502621 0
M  V30 4897 H 452.446 6.45567 -1.13683 0
M  V30 4898 H 451.966 5.9765 0.507357 0
M  V30 4899 H 453.645 6.4677 0.172657 0
M  V30 4900 N 453.777 0.010035 1.57597 0
M  V30 4901 C 455.007 -0.682422 1.95004 0
M  V30 4902 C 455.415 -1.67278 0.884014 0
M  V30 4903 O 454.758 -1.83129 -0.144672 0
M  V30 4904 C 454.82 -1.46141 3.28456 0
M  V30 4905 C 454.484 -0.631523 4.52615 0
M  V30 4906 C 455.481 0.0850905 5.1983 0
M  V30 4907 C 453.166 -0.574539 4.99003 0
M  V30 4908 C 455.16 0.847566 6.3174 0
M  V30 4909 C 452.847 0.191655 6.10799 0
M  V30 4910 C 453.845 0.901432 6.77025 0
M  V30 4911 O 453.533 1.65511 7.86677 0
M  V30 4912 H 453.265 -0.194361 0.647456 0
M  V30 4913 H 455.819 0.060312 2.05311 0
M  V30 4914 H 454.049 -2.24885 3.14585 0
M  V30 4915 H 455.738 -2.04016 3.50902 0
M  V30 4916 H 456.504 0.0502812 4.84974 0
M  V30 4917 H 452.383 -1.11654 4.47274 0
M  V30 4918 H 455.927 1.4021 6.83364 0
M  V30 4919 H 451.824 0.228249 6.45096 0
M  V30 4920 H 452.592 1.57287 8.03245 0
M  V30 4921 N 455.255 -1.55392 -0.262866 0
M  V30 4922 C 456.218 -1.88181 -1.30846 0
M  V30 4923 C 457.218 -0.757079 -1.41862 0
M  V30 4924 O 458.408 -1.02519 -1.40838 0
M  V30 4925 C 455.54 -2.09609 -2.68844 0
M  V30 4926 H 456.733 -2.81659 -1.02997 0
M  V30 4927 H 454.286 -1.48039 -0.501414 0
M  V30 4928 H 455.021 -1.18547 -3.01856 0
M  V30 4929 H 454.806 -2.91508 -2.62231 0
M  V30 4930 H 456.296 -2.36215 -3.44372 0
M  V30 4931 N 456.733 0.527833 -1.48498 0
M  V30 4932 C 457.979 1.28545 -1.56857 0
M  V30 4933 C 458.312 1.92678 -0.242651 0
M  V30 4934 O 457.587 1.79394 0.751545 0
M  V30 4935 C 457.87 2.37314 -2.70839 0
M  V30 4936 C 457.723 1.77858 -4.13142 0
M  V30 4937 C 459.042 3.39068 -2.80573 0
M  V30 4938 H 456.161 0.466006 -0.570971 0
M  V30 4939 H 458.803 0.587784 -1.8068 0
M  V30 4940 H 456.953 2.96821 -2.50658 0
M  V30 4941 H 458.625 1.22385 -4.44769 0
M  V30 4942 H 456.868 1.08383 -4.20042 0
M  V30 4943 H 457.539 2.56624 -4.88721 0
M  V30 4944 H 460.015 2.89518 -2.98862 0
M  V30 4945 H 458.891 4.12566 -3.6205 0
M  V30 4946 H 459.152 3.9975 -1.88818 0
M  V30 4947 N 458.211 1.37122 0.776871 0
M  V30 4948 C 459.459 1.31787 1.53221 0
M  V30 4949 C 459.78 -0.0987589 1.9475 0
M  V30 4950 O 459.05 -1.0417 1.65908 0
M  V30 4951 H 457.63 0.484839 0.568278 0
M  V30 4952 H 460.292 1.71556 0.924917 0
M  V30 4953 H 459.388 1.95355 2.43398 0
M  V30 4954 N 459.689 -1.00246 1.21608 0
M  V30 4955 C 460.966 -1.71336 0.943568 0
M  V30 4956 C 461.346 -2.03972 -0.543943 0
M  V30 4957 O 460.694 -1.71545 -1.50946 0
M  V30 4958 C 460.904 -2.97094 1.83128 0
M  V30 4959 C 462.252 -3.70071 2.08165 0
M  V30 4960 O 463.276 -3.07081 1.80498 0
M  V30 4961 O 462.135 -4.83376 2.54971 0
M  V30 4962 H 459.229 -0.747386 0.354039 0
M  V30 4963 H 461.775 -1.05967 1.32549 0
M  V30 4964 H 460.547 -2.69407 2.83788 0
M  V30 4965 H 460.17 -3.70204 1.45034 0
M  V30 4966 N 461.167 -1.02423 -1.1978 0
M  V30 4967 C 462.407 -0.726635 -1.91048 0
M  V30 4968 C 462.771 0.730947 -1.77542 0
M  V30 4969 O 463.972 1.14141 -2.43362 0
M  V30 4970 C 462.243 -1.15964 -3.38064 0
M  V30 4971 S 463.802 -0.985172 -4.27598 0
M  V30 4972 H 460.62 -0.264679 -0.659899 0
M  V30 4973 H 463.222 -1.31309 -1.44838 0
M  V30 4974 H 461.926 -2.21619 -3.45417 0
M  V30 4975 H 461.457 -0.566274 -3.89303 0
M  V30 4976 H 463.472 0.106946 -4.96085 0
M  V30 4977 N 462.645 1.35699 -0.801477 0
M  V30 4978 C 463.885 2.00741 -0.385027 0
M  V30 4979 C 464.249 1.62213 1.02718 0
M  V30 4980 O 465.45 2.19936 1.54537 0
M  V30 4981 C 463.721 3.53032 -0.557057 0
M  V30 4982 S 465.28 4.38195 -0.230272 0
M  V30 4983 H 462.098 0.695748 -0.146477 0
M  V30 4984 H 464.7 1.65378 -1.04261 0
M  V30 4985 H 463.404 3.7856 -1.58494 0
M  V30 4986 H 462.935 3.93229 0.116029 0
M  V30 4987 H 464.95 4.86748 0.963895 0
M  V30 4988 N 464.123 0.554532 1.47522 0
M  V30 4989 C 465.056 -0.242442 2.26908 0
M  V30 4990 C 466.034 -0.922722 1.33883 0
M  V30 4991 O 467.218 -0.942244 1.63261 0
M  V30 4992 C 464.345 -1.34525 3.10839 0
M  V30 4993 C 463.391 -0.773805 4.19422 0
M  V30 4994 S 464.224 0.377525 5.34168 0
M  V30 4995 C 465.38 -0.727164 6.21662 0
M  V30 4996 H 465.613 0.431218 2.94156 0
M  V30 4997 H 463.146 0.3408 1.50592 0
M  V30 4998 H 465.104 -1.97683 3.59766 0
M  V30 4999 H 463.765 -1.99073 2.42958 0
M  V30 5000 H 462.958 -1.60187 4.77866 0
M  V30 5001 H 462.56 -0.218448 3.73361 0
M  V30 5002 H 464.852 -1.61992 6.57849 0
M  V30 5003 H 465.795 -0.180135 7.07871 0
M  V30 5004 H 466.203 -1.01863 5.55233 0
M  V30 5005 N 465.601 -1.54893 0.290851 0
M  V30 5006 C 466.847 -2.0023 -0.321867 0
M  V30 5007 C 467.18 -1.179 -1.54316 0
M  V30 5008 O 466.455 -0.25293 -1.92848 0
M  V30 5009 C 466.738 -3.53456 -0.688515 0
M  V30 5010 C 466.591 -4.46532 0.541209 0
M  V30 5011 C 467.91 -4.13057 -1.51895 0
M  V30 5012 H 465.029 -0.727891 -0.115515 0
M  V30 5013 H 467.671 -1.85722 0.400931 0
M  V30 5014 H 465.821 -3.6595 -1.30433 0
M  V30 5015 H 467.493 -4.4596 1.17973 0
M  V30 5016 H 465.736 -4.17545 1.17636 0
M  V30 5017 H 466.407 -5.51475 0.240675 0
M  V30 5018 H 468.883 -4.03937 -0.99872 0
M  V30 5019 H 467.759 -5.20448 -1.74429 0
M  V30 5020 H 468.02 -3.64284 -2.50498 0
M  V30 5021 N 467.08 -0.0183926 -1.57589 0
M  V30 5022 C 468.027 0.967022 -2.09565 0
M  V30 5023 C 468.997 1.32983 -0.995225 0
M  V30 5024 O 470.182 1.42501 -1.26878 0
M  V30 5025 C 467.322 2.24772 -2.61861 0
M  V30 5026 C 466.435 1.94232 -3.85873 0
M  V30 5027 C 465.57 3.16518 -4.26603 0
M  V30 5028 C 464.609 2.81748 -5.43401 0
M  V30 5029 N 463.746 3.96626 -5.79338 0
M  V30 5030 H 468.586 0.516874 -2.93483 0
M  V30 5031 H 466.123 0.243544 -1.4507 0
M  V30 5032 H 468.081 2.99667 -2.90268 0
M  V30 5033 H 466.711 2.67423 -1.8079 0
M  V30 5034 H 465.763 1.09625 -3.64262 0
M  V30 5035 H 467.075 1.64616 -4.70853 0
M  V30 5036 H 466.229 3.99743 -4.56389 0
M  V30 5037 H 464.968 3.49286 -3.40368 0
M  V30 5038 H 463.973 1.96933 -5.1332 0
M  V30 5039 H 465.198 2.50207 -6.31327 0
M  V30 5040 H 463.144 4.29257 -4.96059 0
M  V30 5041 H 463.061 3.70598 -6.58933 0
M  V30 5042 H 464.329 4.80586 -6.13724 0
M  V30 5043 N 468.558 1.5553 0.254621 0
M  V30 5044 C 469.505 1.89666 1.31512 0
M  V30 5045 C 470.475 0.750057 1.482 0
M  V30 5046 O 471.66 1.00301 1.62309 0
M  V30 5047 C 468.8 2.19009 2.667 0
M  V30 5048 C 467.913 3.46435 2.58083 0
M  V30 5049 C 467.048 3.65386 3.85573 0
M  V30 5050 C 466.087 4.8644 3.71541 0
M  V30 5051 N 465.224 5.01952 4.90906 0
M  V30 5052 H 470.064 2.80109 1.017 0
M  V30 5053 H 467.601 1.38666 0.490938 0
M  V30 5054 H 469.559 2.34025 3.45381 0
M  V30 5055 H 468.189 1.31779 2.94676 0
M  V30 5056 H 467.241 3.39792 1.71013 0
M  V30 5057 H 468.553 4.35258 2.43622 0
M  V30 5058 H 467.707 3.80319 4.72697 0
M  V30 5059 H 466.446 2.74781 4.02922 0
M  V30 5060 H 465.451 4.71491 2.82801 0
M  V30 5061 H 466.676 5.78497 3.55694 0
M  V30 5062 H 464.622 4.14283 5.08631 0
M  V30 5063 H 464.539 5.84851 4.79046 0
M  V30 5064 H 465.807 5.21289 5.7955 0
M  V30 5065 N 470.036 -0.519951 1.48776 0
M  V30 5066 C 471.261 -1.30447 1.6124 0
M  V30 5067 C 471.686 -1.86055 0.276591 0
M  V30 5068 O 471.044 -1.64915 -0.753183 0
M  V30 5069 C 471.092 -2.42406 2.66967 0
M  V30 5070 O 470.196 -3.45728 2.24824 0
M  V30 5071 H 469.537 -0.385924 0.540332 0
M  V30 5072 H 472.067 -0.624572 1.94834 0
M  V30 5073 H 472.077 -2.88447 2.88552 0
M  V30 5074 H 470.752 -2.01294 3.63941 0
M  V30 5075 H 469.329 -3.05737 2.13494 0
M  V30 5076 N 471.514 -1.37532 -0.769588 0
M  V30 5077 C 472.461 -1.3347 -1.88293 0
M  V30 5078 C 473.431 -0.199891 -1.64893 0
M  V30 5079 O 474.616 -0.389594 -1.8678 0
M  V30 5080 C 471.756 -1.14968 -3.25387 0
M  V30 5081 C 470.869 -2.37698 -3.60727 0
M  V30 5082 C 470.004 -2.12051 -4.8704 0
M  V30 5083 C 469.043 -3.30636 -5.15117 0
M  V30 5084 N 468.18 -3.04527 -6.3262 0
M  V30 5085 H 473.02 -2.28658 -1.911 0
M  V30 5086 H 470.557 -1.13622 -0.934257 0
M  V30 5087 H 472.515 -1.02261 -4.04473 0
M  V30 5088 H 471.145 -0.234263 -3.21949 0
M  V30 5089 H 470.197 -2.61137 -2.76608 0
M  V30 5090 H 471.509 -3.26131 -3.77413 0
M  V30 5091 H 470.663 -1.96388 -5.74035 0
M  V30 5092 H 469.402 -1.20959 -4.72462 0
M  V30 5093 H 468.407 -3.46836 -4.26597 0
M  V30 5094 H 469.632 -4.22582 -5.31603 0
M  V30 5095 H 467.578 -2.16067 -6.19396 0
M  V30 5096 H 467.495 -3.86503 -6.49732 0
M  V30 5097 H 468.763 -2.92485 -7.22546 0
M  V30 5098 N 472.992 0.995999 -1.22138 0
M  V30 5099 C 473.902 2.11985 -1.00496 0
M  V30 5100 C 474.918 1.7394 0.0457701 0
M  V30 5101 O 476.094 2.00868 -0.146273 0
M  V30 5102 C 473.159 3.41779 -0.582086 0
M  V30 5103 C 472.22 3.93943 -1.70608 0
M  V30 5104 C 471.453 5.17542 -1.30328 0
M  V30 5105 O 471.676 5.70114 -0.180743 0
M  V30 5106 O 470.61 5.63382 -2.11861 0
M  V30 5107 H 474.436 2.33123 -1.94647 0
M  V30 5108 H 472.021 1.10358 -1.00705 0
M  V30 5109 H 473.903 4.1989 -0.356467 0
M  V30 5110 H 472.578 3.22007 0.330592 0
M  V30 5111 H 471.485 3.17019 -1.98619 0
M  V30 5112 H 472.818 4.18141 -2.59651 0
M  V30 5113 N 474.47 1.03057 1.19235 0
M  V30 5114 C 475.719 0.72326 1.88287 0
M  V30 5115 C 476.032 -0.751333 1.80594 0
M  V30 5116 O 477.238 -1.17176 2.44912 0
M  V30 5117 C 475.694 1.24338 3.3774 0
M  V30 5118 C 475.302 2.74587 3.53986 0
M  V30 5119 C 477.046 1.01213 4.12257 0
M  V30 5120 C 474.953 3.20009 4.97341 0
M  V30 5121 H 473.883 0.266848 0.705201 0
M  V30 5122 H 476.534 1.24509 1.34795 0
M  V30 5123 H 474.916 0.649457 3.90638 0
M  V30 5124 H 476.09 3.39649 3.11408 0
M  V30 5125 H 474.405 2.9601 2.9286 0
M  V30 5126 H 477.002 1.32675 5.17978 0
M  V30 5127 H 477.345 -0.051001 4.16269 0
M  V30 5128 H 477.878 1.57014 3.65501 0
M  V30 5129 H 474.617 4.25659 4.98493 0
M  V30 5130 H 474.137 2.59676 5.40674 0
M  V30 5131 H 475.816 3.13447 5.66003 0
M  V30 5132 N 475.948 -1.35272 0.808662 0
M  V30 5133 C 476.858 -2.33546 0.222079 0
M  V30 5134 C 477.874 -1.6196 -0.636011 0
M  V30 5135 O 479.05 -1.93822 -0.547274 0
M  V30 5136 C 476.115 -3.41148 -0.61795 0
M  V30 5137 C 475.176 -4.28507 0.260875 0
M  V30 5138 C 474.409 -5.3097 -0.539156 0
M  V30 5139 O 474.632 -5.42123 -1.77367 0
M  V30 5140 O 473.566 -6.01858 0.0710526 0
M  V30 5141 H 477.392 -2.85515 1.03512 0
M  V30 5142 H 474.977 -1.38079 0.570495 0
M  V30 5143 H 476.859 -4.06889 -1.09634 0
M  V30 5144 H 475.534 -2.91447 -1.40855 0
M  V30 5145 H 474.441 -3.6574 0.786451 0
M  V30 5146 H 475.774 -4.81611 1.01547 0
M  V30 5147 N 477.426 -0.562348 -1.47226 0
M  V30 5148 C 478.703 0.0256985 -1.95583 0
M  V30 5149 C 479.083 1.48032 -1.50498 0
M  V30 5150 O 478.431 2.15973 -0.746181 0
M  V30 5151 C 478.641 -0.125129 -3.48776 0
M  V30 5152 C 479.989 0.0175728 -4.24596 0
M  V30 5153 O 481.013 -0.0529341 -3.56161 0
M  V30 5154 O 479.872 0.170145 -5.46235 0
M  V30 5155 H 476.966 0.0612565 -0.824728 0
M  V30 5156 H 479.512 -0.629233 -1.57603 0
M  V30 5157 H 478.284 -1.13715 -3.74412 0
M  V30 5158 H 477.907 0.567178 -3.93534 0
M  V30 5159 N 478.904 1.54736 -0.299062 0
M  V30 5160 C 479.834 2.26409 0.571085 0
M  V30 5161 C 480.815 1.2629 1.13951 0
M  V30 5162 O 482 1.55059 1.16921 0
M  V30 5163 C 479.13 3.00338 1.74396 0
M  V30 5164 C 478.084 4.07588 1.30599 0
M  V30 5165 C 477.41 4.69222 2.56387 0
M  V30 5166 C 478.71 5.20455 0.438645 0
M  V30 5167 H 480.404 2.99388 -0.0266991 0
M  V30 5168 H 477.95 1.43993 -0.0142812 0
M  V30 5169 H 479.903 3.49198 2.35878 0
M  V30 5170 H 478.627 2.24934 2.36796 0
M  V30 5171 H 477.286 3.59575 0.71424 0
M  V30 5172 H 476.934 3.9046 3.17097 0
M  V30 5173 H 476.634 5.41653 2.27784 0
M  V30 5174 H 478.158 5.20844 3.18675 0
M  V30 5175 H 479.572 5.65221 0.959085 0
M  V30 5176 H 477.969 5.99594 0.246466 0
M  V30 5177 H 479.039 4.8192 -0.536738 0
M  V30 5178 N 480.382 0.0267497 1.57577 0
M  V30 5179 C 481.33 -0.973923 2.11229 0
M  V30 5180 C 482.324 -1.33849 1.03831 0
M  V30 5181 O 483.53 -1.321 1.22269 0
M  V30 5182 H 479.905 -0.331844 0.674821 0
M  V30 5183 H 481.876 -0.496092 2.94247 0
M  V30 5184 C 480.625 -2.24798 2.65257 0
M  V30 5185 H 479.948 -1.9762 3.47543 0
M  V30 5186 H 481.388 -2.93031 3.06445 0
M  V30 5187 C 479.847 -2.97611 1.57891 0
M  V30 5188 O 480.377 -3.89629 0.97735 0
M  V30 5189 N 478.583 -2.59905 1.29992 0
M  V30 5190 H 478.13 -1.85154 1.79097 0
M  V30 5191 H 478.088 -3.08932 0.583798 0
M  V30 5192 N 481.861 -1.55662 -0.24637 0
M  V30 5193 C 482.791 -1.93377 -1.30873 0
M  V30 5194 C 483.772 -0.798773 -1.50179 0
M  V30 5195 O 484.957 -1.0591 -1.62778 0
M  V30 5196 C 482.087 -2.22893 -2.66338 0
M  V30 5197 C 481.041 -3.38649 -2.61727 0
M  V30 5198 C 480.367 -3.53708 -4.00992 0
M  V30 5199 C 481.667 -4.74323 -2.18666 0
M  V30 5200 H 483.361 -2.82363 -0.995552 0
M  V30 5201 H 480.907 -1.35854 -0.477464 0
M  V30 5202 H 482.86 -2.47866 -3.40794 0
M  V30 5203 H 481.584 -1.30733 -2.99293 0
M  V30 5204 H 480.243 -3.13685 -1.89729 0
M  V30 5205 H 479.891 -2.58967 -4.31214 0
M  V30 5206 H 479.591 -4.31551 -3.98795 0
M  V30 5207 H 481.115 -3.81003 -4.77147 0
M  V30 5208 H 482.529 -4.98665 -2.82854 0
M  V30 5209 H 480.926 -5.55273 -2.27579 0
M  V30 5210 H 481.996 -4.71349 -1.13834 0
M  V30 5211 N 483.339 0.512053 -1.4905 0
M  V30 5212 C 484.269 1.62365 -1.67809 0
M  V30 5213 C 485.25 1.61737 -0.526809 0
M  V30 5214 O 486.435 1.78651 -0.761404 0
M  V30 5215 C 483.565 3.00895 -1.73435 0
M  V30 5216 C 482.519 3.16387 -2.88242 0
M  V30 5217 C 481.845 4.56157 -2.78971 0
M  V30 5218 C 483.145 2.97457 -4.29321 0
M  V30 5219 H 484.839 1.46921 -2.60873 0
M  V30 5220 H 482.385 0.705379 -1.2554 0
M  V30 5221 H 484.338 3.78549 -1.85145 0
M  V30 5222 H 483.062 3.17403 -0.769619 0
M  V30 5223 H 481.721 2.41155 -2.76116 0
M  V30 5224 H 481.369 4.69525 -1.8043 0
M  V30 5225 H 481.069 4.67465 -3.5602 0
M  V30 5226 H 482.593 5.35886 -2.92675 0
M  V30 5227 H 484.007 3.64888 -4.42187 0
M  V30 5228 H 482.404 3.20245 -5.07507 0
M  V30 5229 H 483.474 1.93692 -4.44535 0
M  V30 5230 N 484.817 1.37938 0.762283 0
M  V30 5231 C 485.764 1.34467 1.87583 0
M  V30 5232 C 486.734 0.208633 1.64785 0
M  V30 5233 O 487.919 0.399494 1.86571 0
M  V30 5234 C 485.059 1.16692 3.24772 0
M  V30 5235 C 484.172 2.39608 3.59461 0
M  V30 5236 C 483.307 2.14631 4.85908 0
M  V30 5237 C 482.346 3.33364 5.13357 0
M  V30 5238 N 481.483 3.07877 6.30996 0
M  V30 5239 H 486.323 2.29669 1.89885 0
M  V30 5240 H 483.86 1.14116 0.928219 0
M  V30 5241 H 485.818 1.04405 4.03925 0
M  V30 5242 H 484.448 0.251333 3.2182 0
M  V30 5243 H 483.5 2.626 2.75219 0
M  V30 5244 H 484.812 3.28128 3.75678 0
M  V30 5245 H 483.966 1.99429 5.72986 0
M  V30 5246 H 482.705 1.23463 4.71814 0
M  V30 5247 H 481.71 3.49094 4.24751 0
M  V30 5248 H 482.935 4.25395 5.29354 0
M  V30 5249 H 480.881 2.19348 6.18241 0
M  V30 5250 H 480.798 3.89944 6.47673 0
M  V30 5251 H 482.066 2.96313 7.20985 0
M  V30 5252 N 486.295 -0.989507 1.22664 0
M  V30 5253 C 487.225 -2.09847 1.02404 0
M  V30 5254 C 488.206 -1.70007 -0.0561303 0
M  V30 5255 O 489.391 -1.93906 0.106748 0
M  V30 5256 C 486.521 -3.41996 0.604663 0
M  V30 5257 C 485.475 -3.95699 1.63115 0
M  V30 5258 C 484.801 -5.23936 1.0675 0
M  V30 5259 C 486.101 -4.25999 3.02196 0
M  V30 5260 H 487.795 -2.27054 1.95158 0
M  V30 5261 H 485.341 -1.09111 0.939727 0
M  V30 5262 H 487.294 -4.1899 0.45002 0
M  V30 5263 H 486.018 -3.24626 -0.35855 0
M  V30 5264 H 484.677 -3.2084 1.77362 0
M  V30 5265 H 484.325 -5.02909 0.0955422 0
M  V30 5266 H 484.025 -5.60833 1.75328 0
M  V30 5267 H 485.549 -6.0356 0.924516 0
M  V30 5268 H 486.963 -4.93777 2.91303 0
M  V30 5269 H 485.36 -4.74076 3.67929 0
M  V30 5270 H 486.43 -3.33636 3.51873 0
M  V30 5271 N 487.773 -1.03688 -1.18687 0
M  V30 5272 C 489.003 -0.756819 -1.92239 0
M  V30 5273 C 489.411 0.689374 -1.76194 0
M  V30 5274 O 488.754 1.48126 -1.08648 0
M  V30 5275 C 488.816 -1.03851 -3.44173 0
M  V30 5276 C 488.48 -2.47785 -3.83994 0
M  V30 5277 C 489.477 -3.4595 -3.88091 0
M  V30 5278 C 487.162 -2.82397 -4.154 0
M  V30 5279 C 489.156 -4.76779 -4.23038 0
M  V30 5280 C 486.843 -4.13433 -4.50018 0
M  V30 5281 C 487.841 -5.10434 -4.53813 0
M  V30 5282 O 487.529 -6.39122 -4.87625 0
M  V30 5283 H 487.261 -0.275678 -0.617234 0
M  V30 5284 H 489.815 -1.38658 -1.51536 0
M  V30 5285 H 488.045 -0.351612 -3.85098 0
M  V30 5286 H 489.734 -0.746846 -3.9897 0
M  V30 5287 H 490.5 -3.20549 -3.63969 0
M  V30 5288 H 486.379 -2.07568 -4.11627 0
M  V30 5289 H 489.923 -5.52488 -4.25914 0
M  V30 5290 H 485.82 -4.38604 -4.736 0
M  V30 5291 H 486.588 -6.43715 -5.05542 0
M  V30 5292 N 489.251 1.34841 -0.815825 0
M  V30 5293 C 490.199 2.31549 -0.220888 0
M  V30 5294 C 491.193 1.5707 0.634457 0
M  V30 5295 O 492.399 1.72125 0.526589 0
M  V30 5296 H 488.774 0.750153 -0.0526782 0
M  V30 5297 H 490.745 2.7926 -1.05149 0
M  V30 5298 C 489.494 3.42335 0.608427 0
M  V30 5299 H 488.817 3.9978 -0.0404121 0
M  V30 5300 H 490.257 4.12258 0.990931 0
M  V30 5301 C 488.716 2.86173 1.77782 0
M  V30 5302 O 489.246 2.80474 2.87571 0
M  V30 5303 N 487.452 2.43093 1.59229 0
M  V30 5304 H 486.999 2.47928 0.699237 0
M  V30 5305 H 486.957 2.05866 2.37627 0
M  V30 5306 N 490.729 0.570148 1.46925 0
M  V30 5307 C 491.639 -0.173061 2.33961 0
M  V30 5308 C 492.655 -0.898825 1.48987 0
M  V30 5309 O 493.831 -0.864825 1.81887 0
M  V30 5310 C 490.896 -1.18177 3.25937 0
M  V30 5311 C 489.957 -0.462041 4.26806 0
M  V30 5312 C 489.19 -1.4227 5.14388 0
M  V30 5313 O 489.413 -2.65842 5.04662 0
M  V30 5314 O 488.347 -0.940127 5.94513 0
M  V30 5315 H 492.173 0.541216 2.98839 0
M  V30 5316 H 489.758 0.330647 1.45695 0
M  V30 5317 H 491.64 -1.76372 3.82715 0
M  V30 5318 H 490.315 -1.87774 2.63671 0
M  V30 5319 H 489.222 0.161429 3.73752 0
M  V30 5320 H 490.555 0.192719 4.91823 0
M  V30 5321 N 492.207 -1.54576 0.307264 0
M  V30 5322 C 493.117 -2.27435 -0.57536 0
M  V30 5323 C 494.133 -1.31183 -1.14311 0
M  V30 5324 O 495.309 -1.64175 -1.16656 0
M  V30 5325 C 492.374 -3.00566 -1.72803 0
M  V30 5326 C 491.435 -4.12369 -1.19373 0
M  V30 5327 C 490.668 -4.82003 -2.29147 0
M  V30 5328 O 490.891 -4.51038 -3.49171 0
M  V30 5329 O 489.825 -5.69271 -1.95485 0
M  V30 5330 H 493.651 -3.03696 0.0158558 0
M  V30 5331 H 491.236 -1.49219 0.0735064 0
M  V30 5332 H 493.118 -3.46416 -2.39946 0
M  V30 5333 H 491.793 -2.27195 -2.30574 0
M  V30 5334 H 490.7 -3.70905 -0.487851 0
M  V30 5335 H 492.033 -4.87736 -0.661376 0
M  V30 5336 N 493.685 -0.035106 -1.57561 0
M  V30 5337 C 495.101 0.321334 -1.56332 0
M  V30 5338 C 495.301 1.72509 -1.04129 0
M  V30 5339 O 494.357 2.4287 -0.690694 0
M  V30 5340 C 495.67 0.164469 -3.0025 0
M  V30 5341 C 497.218 0.236786 -3.12103 0
M  V30 5342 C 497.693 0.10864 -4.57871 0
M  V30 5343 N 499.184 0.165433 -4.62904 0
M  V30 5344 C 499.919 0.0901506 -5.73329 0
M  V30 5345 N 499.415 -0.0365606 -6.9279 0
M  V30 5346 N 501.208 0.144572 -5.61914 0
M  V30 5347 H 493.359 -0.952976 -1.89821 0
M  V30 5348 H 495.622 -0.368537 -0.873432 0
M  V30 5349 H 495.328 -0.802746 -3.42416 0
M  V30 5350 H 495.202 0.932194 -3.655 0
M  V30 5351 H 497.589 1.19446 -2.69845 0
M  V30 5352 H 497.67 -0.561419 -2.49563 0
M  V30 5353 H 497.314 -0.845644 -5.00811 0
M  V30 5354 H 497.244 0.925786 -5.18398 0
M  V30 5355 H 499.735 0.263269 -3.76982 0
M  V30 5356 H 500.048 -0.0871487 -7.72751 0
M  V30 5357 H 498.393 -0.0714256 -6.94963 0
M  V30 5358 H 501.584 0.242006 -4.67474 0
M  V30 5359 H 501.757 0.0824413 -6.47948 0
M  V30 5360 N 495.163 1.55791 0.238111 0
M  V30 5361 C 496.393 1.81834 0.980809 0
M  V30 5362 C 496.801 0.609741 1.79106 0
M  V30 5363 O 496.144 -0.431073 1.78571 0
M  V30 5364 C 496.206 3.01363 1.96011 0
M  V30 5365 C 495.87 4.37037 1.33597 0
M  V30 5366 C 496.867 5.14692 0.734063 0
M  V30 5367 C 494.552 4.83743 1.3527 0
M  V30 5368 C 496.546 6.37206 0.157208 0
M  V30 5369 C 494.233 6.06204 0.77199 0
M  V30 5370 C 495.231 6.82775 0.175282 0
M  V30 5371 O 494.919 8.02922 -0.396432 0
M  V30 5372 H 494.651 0.6088 0.293834 0
M  V30 5373 H 497.205 2.03702 0.263552 0
M  V30 5374 H 495.435 2.75273 2.71591 0
M  V30 5375 H 497.124 3.14422 2.56697 0
M  V30 5376 H 497.89 4.79722 0.713582 0
M  V30 5377 H 493.769 4.24129 1.80653 0
M  V30 5378 H 497.313 6.96915 -0.30917 0
M  V30 5379 H 493.21 6.4065 0.789828 0
M  V30 5380 H 493.978 8.17989 -0.289145 0
M  V30 5381 N 496.642 -0.504142 1.49319 0
M  V30 5382 C 497.572 -1.61473 1.68667 0
M  V30 5383 C 498.553 -1.61455 0.535378 0
M  V30 5384 O 499.738 -1.78245 0.770868 0
M  V30 5385 C 496.868 -2.99971 1.75028 0
M  V30 5386 C 495.822 -3.14854 2.89916 0
M  V30 5387 C 495.148 -4.54671 2.81387 0
M  V30 5388 C 496.448 -2.95176 4.30893 0
M  V30 5389 H 498.142 -1.45535 2.61648 0
M  V30 5390 H 495.688 -0.698711 1.25913 0
M  V30 5391 H 497.641 -3.77562 1.8715 0
M  V30 5392 H 496.365 -3.1699 0.786441 0
M  V30 5393 H 495.024 -2.39687 2.77391 0
M  V30 5394 H 494.672 -4.68562 1.82917 0
M  V30 5395 H 494.372 -4.6557 3.58494 0
M  V30 5396 H 495.896 -5.34327 2.95512 0
M  V30 5397 H 497.31 -3.62538 4.44116 0
M  V30 5398 H 495.707 -3.17549 5.09198 0
M  V30 5399 H 496.777 -1.91332 4.45556 0
M  V30 5400 N 498.12 -1.38341 -0.754957 0
M  V30 5401 C 499.068 -1.35573 -1.89005 0
M  V30 5402 C 500.062 -0.241824 -1.67665 0
M  V30 5403 O 501.268 -0.410785 -1.7525 0
M  V30 5404 H 497.643 -0.422898 -0.621821 0
M  V30 5405 H 499.614 -2.31359 -1.88455 0
M  V30 5406 C 498.363 -1.19631 -3.26471 0
M  V30 5407 H 497.686 -2.04605 -3.43477 0
M  V30 5408 H 499.126 -1.21748 -4.06144 0
M  V30 5409 C 497.585 0.0968705 -3.36761 0
M  V30 5410 O 498.115 1.07439 -3.87066 0
M  V30 5411 N 496.321 0.153242 -2.90196 0
M  V30 5412 H 495.868 -0.642908 -2.49448 0
M  V30 5413 H 495.826 1.01807 -2.9746 0
M  V30 5414 N 499.598 0.982988 -1.23187 0
M  V30 5415 C 500.545 2.07491 -1.01075 0
M  V30 5416 C 501.515 1.65949 0.070905 0
M  V30 5417 O 502.7 1.90629 -0.0806822 0
M  V30 5418 C 499.84 3.39751 -0.605261 0
M  V30 5419 C 498.953 3.94578 -1.75876 0
M  V30 5420 C 498.088 5.15039 -1.3003 0
M  V30 5421 C 497.127 5.62027 -2.42472 0
M  V30 5422 N 496.264 6.73719 -1.97602 0
M  V30 5423 H 501.104 2.25739 -1.9454 0
M  V30 5424 H 498.641 1.10659 -0.969179 0
M  V30 5425 H 500.599 4.15719 -0.351279 0
M  V30 5426 H 499.229 3.21473 0.292382 0
M  V30 5427 H 498.281 3.1539 -2.12681 0
M  V30 5428 H 499.593 4.25422 -2.60418 0
M  V30 5429 H 498.747 5.9833 -1.00429 0
M  V30 5430 H 497.486 4.85843 -0.425216 0
M  V30 5431 H 496.491 4.77318 -2.7285 0
M  V30 5432 H 497.716 5.93244 -3.30512 0
M  V30 5433 H 495.662 6.46287 -1.1247 0
M  V30 5434 H 495.579 7.03934 -2.75705 0
M  V30 5435 H 496.847 7.6049 -1.71098 0
M  V30 5436 N 501.076 1.04316 1.18135 0
M  V30 5437 C 502.023 0.636398 2.21853 0
M  V30 5438 C 502.993 -0.357039 1.62217 0
M  V30 5439 O 504.178 -0.250453 1.89149 0
M  V30 5440 C 501.318 0.00812779 3.45099 0
M  V30 5441 C 500.431 1.04933 4.19062 0
M  V30 5442 C 499.566 0.389313 5.29771 0
M  V30 5443 C 498.605 1.41544 5.9551 0
M  V30 5444 N 497.742 0.78021 6.97751 0
M  V30 5445 H 502.582 1.52536 2.56002 0
M  V30 5446 H 500.119 0.76304 1.25762 0
M  V30 5447 H 502.077 -0.373497 4.15525 0
M  V30 5448 H 500.707 -0.844336 3.11562 0
M  V30 5449 H 499.759 1.54888 3.47439 0
M  V30 5450 H 501.071 1.82862 4.64072 0
M  V30 5451 H 500.225 -0.0463805 6.06682 0
M  V30 5452 H 498.964 -0.422038 4.8587 0
M  V30 5453 H 497.969 1.86124 5.17337 0
M  V30 5454 H 499.194 2.22854 6.41493 0
M  V30 5455 H 497.14 -0.0107899 6.55999 0
M  V30 5456 H 497.057 1.49716 7.41027 0
M  V30 5457 H 498.325 0.368996 7.78626 0
M  V30 5458 N 502.554 -1.34406 0.822964 0
M  V30 5459 C 503.464 -2.33298 0.246838 0
M  V30 5460 C 504.48 -1.62625 -0.618797 0
M  V30 5461 O 505.656 -1.94391 -0.526685 0
M  V30 5462 C 502.721 -3.41785 -0.581731 0
M  V30 5463 C 501.782 -4.28206 0.306309 0
M  V30 5464 C 501.015 -5.31512 -0.48281 0
M  V30 5465 O 501.238 -5.43973 -1.71607 0
M  V30 5466 O 500.172 -6.01749 0.134884 0
M  V30 5467 H 503.998 -2.84401 1.06534 0
M  V30 5468 H 501.583 -1.37466 0.585108 0
M  V30 5469 H 503.465 -4.08028 -1.05313 0
M  V30 5470 H 502.14 -2.92925 -1.37756 0
M  V30 5471 H 501.047 -3.64885 0.825199 0
M  V30 5472 H 502.38 -4.80507 1.06649 0
M  V30 5473 N 504.032 -0.577932 -1.46621 0
M  V30 5474 C 504.98 0.170882 -2.31971 0
M  V30 5475 C 505.974 0.889086 -1.44193 0
M  V30 5476 O 507.18 0.808017 -1.60845 0
M  V30 5477 H 503.555 0.0739763 -0.748353 0
M  V30 5478 H 505.526 -0.567856 -2.92947 0
M  V30 5479 C 504.275 1.17438 -3.27267 0
M  V30 5480 H 503.598 0.63116 -3.94787 0
M  V30 5481 H 505.038 1.66882 -3.89778 0
M  V30 5482 C 503.497 2.23292 -2.52274 0
M  V30 5483 O 504.027 3.30567 -2.28229 0
M  V30 5484 N 502.233 1.97772 -2.12919 0
M  V30 5485 H 501.78 1.10545 -2.32675 0
M  V30 5486 H 501.738 2.68809 -1.63062 0
M  V30 5487 N 505.51 1.54411 -0.315457 0
M  V30 5488 C 506.756 2.00716 0.289972 0
M  V30 5489 C 507.089 1.2034 1.5242 0
M  V30 5490 O 506.364 0.283579 1.92422 0
M  V30 5491 C 506.647 3.54507 0.632196 0
M  V30 5492 C 506.5 4.45615 -0.61218 0
M  V30 5493 C 507.819 4.15421 1.45305 0
M  V30 5494 H 504.938 0.729637 0.10392 0
M  V30 5495 H 507.58 1.8506 -0.430427 0
M  V30 5496 H 505.73 3.67979 1.24595 0
M  V30 5497 H 507.402 4.44026 -1.25053 0
M  V30 5498 H 505.645 4.15621 -1.24264 0
M  V30 5499 H 506.316 5.51022 -0.328379 0
M  V30 5500 H 508.792 4.05474 0.934331 0
M  V30 5501 H 507.668 5.23157 1.66127 0
M  V30 5502 H 507.929 3.68223 2.44671 0
M  V30 5503 N 506.988 0.0434614 1.5754 0
M  V30 5504 C 508.216 -0.641835 1.96693 0
M  V30 5505 C 508.631 -1.64832 0.920652 0
M  V30 5506 O 507.988 -1.82247 -0.095993 0
M  V30 5507 C 508.039 -1.33557 3.35924 0
M  V30 5508 O 507.76 -0.369403 4.3654 0
M  V30 5509 C 509.261 -2.11135 3.89791 0
M  V30 5510 H 506.481 -0.176013 0.647503 0
M  V30 5511 H 509.025 0.107478 2.04217 0
M  V30 5512 H 507.18 -2.03617 3.29574 0
M  V30 5513 H 507.594 -0.863674 5.1734 0
M  V30 5514 H 509.068 -2.55107 4.89514 0
M  V30 5515 H 509.545 -2.95634 3.24803 0
M  V30 5516 H 510.151 -1.46002 3.99454 0
M  V30 5517 N 508.466 -1.55915 -0.229846 0
M  V30 5518 C 509.376 -1.94891 -1.30593 0
M  V30 5519 C 510.392 -0.851604 -1.51736 0
M  V30 5520 O 511.568 -1.15447 -1.65027 0
M  V30 5521 C 508.633 -2.25052 -2.63728 0
M  V30 5522 C 507.694 -3.48306 -2.5096 0
M  V30 5523 C 506.927 -3.77019 -3.77747 0
M  V30 5524 O 507.15 -3.07534 -4.80395 0
M  V30 5525 O 506.084 -4.70523 -3.75356 0
M  V30 5526 H 509.91 -2.86581 -1.00525 0
M  V30 5527 H 507.495 -1.43017 -0.432025 0
M  V30 5528 H 509.377 -2.45682 -3.42372 0
M  V30 5529 H 508.052 -1.36538 -2.93495 0
M  V30 5530 H 506.959 -3.32964 -1.70546 0
M  V30 5531 H 508.292 -4.37177 -2.26136 0
M  V30 5532 N 509.944 0.496216 -1.49584 0
M  V30 5533 C 511.221 1.25755 -1.49816 0
M  V30 5534 C 511.601 2.09859 -0.228572 0
M  V30 5535 O 510.949 2.14449 0.788908 0
M  V30 5536 C 511.159 2.11017 -2.7798 0
M  V30 5537 C 512.507 2.70047 -3.27658 0
M  V30 5538 O 513.531 2.21281 -2.79129 0
M  V30 5539 O 512.39 3.58834 -4.1219 0
M  V30 5540 H 509.484 0.569322 -0.599834 0
M  V30 5541 H 512.03 0.510094 -1.61852 0
M  V30 5542 H 510.802 1.48879 -3.61871 0
M  V30 5543 H 510.425 2.92947 -2.68827 0
M  V30 5544 N 511.423 1.38739 0.74761 0
M  V30 5545 C 512.672 1.3459 1.50228 0
M  V30 5546 C 512.985 -0.0595592 1.95509 0
M  V30 5547 O 514.191 -0.22361 2.70578 0
M  V30 5548 C 512.647 2.36377 2.71393 0
M  V30 5549 C 512.255 3.82573 2.33113 0
M  V30 5550 C 513.999 2.41281 3.49262 0
M  V30 5551 C 511.906 4.76032 3.50924 0
M  V30 5552 H 510.836 0.500312 0.564096 0
M  V30 5553 H 513.487 1.64324 0.8167 0
M  V30 5554 H 511.869 1.99694 3.41962 0
M  V30 5555 H 513.043 4.28227 1.70171 0
M  V30 5556 H 511.358 3.80844 1.68365 0
M  V30 5557 H 513.955 3.08301 4.36869 0
M  V30 5558 H 514.298 1.43353 3.9084 0
M  V30 5559 H 514.831 2.76793 2.85711 0
M  V30 5560 H 511.57 5.75177 3.14408 0
M  V30 5561 H 511.09 4.35066 4.12889 0
M  V30 5562 H 512.769 4.94331 4.17427 0
M  V30 5563 N 512.901 -0.976442 1.23707 0
M  V30 5564 C 514.148 -1.71827 1.07153 0
M  V30 5565 C 514.476 -1.9053 -0.390982 0
M  V30 5566 O 513.731 -1.45779 -1.30564 0
M  V30 5567 C 514.03 -3.11814 1.74662 0
M  V30 5568 C 513.696 -3.12978 3.24585 0
M  V30 5569 C 512.358 -3.13003 3.6549 0
M  V30 5570 C 514.71 -3.07986 4.20469 0
M  V30 5571 C 512.038 -3.05757 5.00729 0
M  V30 5572 C 514.39 -3.02282 5.55705 0
M  V30 5573 C 513.054 -3.00631 5.95968 0
M  V30 5574 H 512.324 -0.628758 0.392102 0
M  V30 5575 H 514.971 -1.14239 1.53693 0
M  V30 5576 H 513.276 -3.72812 1.20492 0
M  V30 5577 H 514.973 -3.67989 1.59328 0
M  V30 5578 H 511.563 -3.13718 2.92026 0
M  V30 5579 H 515.747 -3.07103 3.89874 0
M  V30 5580 H 511.003 -3.02834 5.31132 0
M  V30 5581 H 515.177 -2.97376 6.29714 0
M  V30 5582 H 512.804 -2.94771 7.00724 0
M  V30 5583 N 514.379 -1.04941 -1.1758 0
M  V30 5584 C 515.609 -0.777166 -1.91425 0
M  V30 5585 C 516.017 0.670647 -1.76915 0
M  V30 5586 O 515.36 1.46965 -1.10213 0
M  V30 5587 C 515.422 -1.07495 -3.43052 0
M  V30 5588 C 515.086 -2.51844 -3.81345 0
M  V30 5589 C 516.083 -3.50047 -3.844 0
M  V30 5590 C 513.768 -2.86787 -4.12382 0
M  V30 5591 C 515.762 -4.81239 -4.17957 0
M  V30 5592 C 513.449 -4.18182 -4.45608 0
M  V30 5593 C 514.447 -5.15219 -4.48373 0
M  V30 5594 O 514.135 -6.44258 -4.80819 0
M  V30 5595 H 513.867 -0.282209 -0.614275 0
M  V30 5596 H 516.421 -1.40258 -1.50056 0
M  V30 5597 H 514.651 -0.392437 -3.84704 0
M  V30 5598 H 516.34 -0.78912 -3.98155 0
M  V30 5599 H 517.106 -3.24391 -3.60548 0
M  V30 5600 H 512.985 -2.11922 -4.09402 0
M  V30 5601 H 516.529 -5.56974 -4.2003 0
M  V30 5602 H 512.426 -4.43602 -4.68922 0
M  V30 5603 H 513.194 -6.49041 -4.98686 0
M  V30 5604 N 515.857 1.33968 -0.830081 0
M  V30 5605 C 516.805 2.31301 -0.245435 0
M  V30 5606 C 517.799 1.57734 0.617762 0
M  V30 5607 O 519.005 1.72674 0.508303 0
M  V30 5608 H 515.38 0.749552 -0.0606316 0
M  V30 5609 H 517.351 2.78129 -1.08105 0
M  V30 5610 C 516.1 3.42961 0.572084 0
M  V30 5611 H 515.423 3.99714 -0.0828118 0
M  V30 5612 H 516.863 4.13286 0.94715 0
M  V30 5613 C 515.322 2.88043 1.74737 0
M  V30 5614 O 515.852 2.83508 2.8458 0
M  V30 5615 N 514.058 2.44768 1.56642 0
M  V30 5616 H 513.605 2.48656 0.672901 0
M  V30 5617 H 513.563 2.08375 2.3543 0
M  V30 5618 N 517.335 0.585699 1.46312 0
M  V30 5619 C 518.581 0.0725284 2.0267 0
M  V30 5620 C 518.914 -1.28523 1.45586 0
M  V30 5621 O 518.189 -1.84283 0.622101 0
M  V30 5622 C 518.472 0.0099788 3.60099 0
M  V30 5623 C 518.325 1.39685 4.27561 0
M  V30 5624 C 519.644 -0.689117 4.34671 0
M  V30 5625 H 516.763 0.0278307 0.736474 0
M  V30 5626 H 519.405 0.753472 1.74421 0
M  V30 5627 H 517.555 -0.56992 3.84297 0
M  V30 5628 H 519.227 2.02215 4.14617 0
M  V30 5629 H 517.47 1.96374 3.86807 0
M  V30 5630 H 518.141 1.30553 5.36339 0
M  V30 5631 H 520.617 -0.196446 4.15636 0
M  V30 5632 H 519.493 -0.701921 5.44393 0
M  V30 5633 H 519.754 -1.75101 4.05946 0
M  V30 5634 N 518.813 -1.54241 0.323641 0
M  V30 5635 C 519.745 -2.21836 -0.576311 0
M  V30 5636 C 520.758 -1.21837 -1.07979 0
M  V30 5637 O 521.947 -1.48306 -0.99336 0
M  V30 5638 C 519.047 -2.86923 -1.80356 0
M  V30 5639 C 518.22 -4.1306 -1.43875 0
M  V30 5640 C 517.279 -4.6174 -2.52353 0
M  V30 5641 O 516.305 -5.26421 -2.16494 0
M  V30 5642 N 517.507 -4.35974 -3.83284 0
M  V30 5643 H 520.272 -2.997 0.00247987 0
M  V30 5644 H 517.833 -1.61233 0.146848 0
M  V30 5645 H 519.825 -3.16414 -2.52318 0
M  V30 5646 H 518.395 -2.12765 -2.29019 0
M  V30 5647 H 517.615 -3.90334 -0.550752 0
M  V30 5648 H 518.903 -4.95148 -1.17071 0
M  V30 5649 H 518.301 -3.84203 -4.15216 0
M  V30 5650 H 516.858 -4.70119 -4.51477 0
M  V30 5651 N 520.291 -0.0518155 -1.57515 0
M  V30 5652 C 521.221 0.920283 -2.146 0
M  V30 5653 C 522.202 1.32406 -1.06783 0
M  V30 5654 O 523.387 1.39866 -1.34726 0
M  V30 5655 C 520.517 2.1949 -2.6915 0
M  V30 5656 C 519.471 1.93116 -3.81956 0
M  V30 5657 C 518.797 3.27037 -4.23026 0
M  V30 5658 C 520.097 1.25225 -5.07066 0
M  V30 5659 H 521.791 0.444801 -2.96077 0
M  V30 5660 H 519.337 0.212508 -1.42423 0
M  V30 5661 H 521.29 2.87894 -3.07725 0
M  V30 5662 H 520.014 2.69244 -1.84865 0
M  V30 5663 H 518.673 1.27123 -3.43854 0
M  V30 5664 H 518.321 3.74595 -3.3569 0
M  V30 5665 H 518.021 3.10189 -4.99056 0
M  V30 5666 H 519.545 3.96673 -4.64202 0
M  V30 5667 H 520.959 1.83666 -5.43083 0
M  V30 5668 H 519.356 1.18702 -5.88243 0
M  V30 5669 H 520.426 0.228382 -4.84362 0
M  V30 5670 N 521.769 1.56035 0.221574 0
M  V30 5671 C 522.997 1.8313 0.962864 0
M  V30 5672 C 523.412 0.630934 1.77946 0
M  V30 5673 O 522.769 -0.400519 1.78051 0
M  V30 5674 C 522.82 3.08742 1.88045 0
M  V30 5675 O 522.541 4.24147 1.09686 0
M  V30 5676 C 524.042 3.48824 2.73563 0
M  V30 5677 H 521.262 0.608775 0.282194 0
M  V30 5678 H 523.806 2.03124 0.23681 0
M  V30 5679 H 521.961 2.90723 2.56045 0
M  V30 5680 H 522.375 4.95505 1.71974 0
M  V30 5681 H 523.849 4.39752 3.3365 0
M  V30 5682 H 524.326 2.70575 3.45956 0
M  V30 5683 H 524.932 3.69282 2.10976 0
M  V30 5684 N 523.247 -0.488276 1.49845 0
M  V30 5685 C 524.658 -1.06955 1.53028 0
M  V30 5686 C 525.009 -1.9351 0.323797 0
M  V30 5687 O 524.134 -2.08891 -0.565116 0
M  V30 5688 C 524.729 -1.94643 2.77307 0
M  V30 5689 C 523.288 -2.4791 2.83227 0
M  V30 5690 C 522.435 -1.25833 2.47106 0
M  V30 5691 H 525.386 -0.271626 1.56358 0
M  V30 5692 H 525.407 -2.79496 2.5819 0
M  V30 5693 H 524.919 -1.31621 3.65099 0
M  V30 5694 H 523.02 -3.14535 1.99745 0
M  V30 5695 H 523.133 -2.84193 3.85709 0
M  V30 5696 H 521.497 -1.58764 1.99163 0
M  V30 5697 H 522.28 -0.644993 3.37186 0
M  V30 5698 N 524.725 -1.39134 -0.740242 0
M  V30 5699 C 525.971 -1.36273 -1.50192 0
M  V30 5700 C 526.304 0.0430136 -1.94152 0
M  V30 5701 O 525.579 1.00691 -1.66408 0
M  V30 5702 C 525.862 -2.33041 -2.74525 0
M  V30 5703 C 525.715 -3.82535 -2.36617 0
M  V30 5704 C 527.034 -2.27723 -3.76604 0
M  V30 5705 H 524.153 -0.496323 -0.544823 0
M  V30 5706 H 526.795 -1.70085 -0.846815 0
M  V30 5707 H 524.945 -2.04337 -3.30422 0
M  V30 5708 H 526.617 -4.21967 -1.86391 0
M  V30 5709 H 524.86 -3.99565 -1.68909 0
M  V30 5710 H 525.531 -4.45723 -3.2563 0
M  V30 5711 H 528.007 -2.53091 -3.30279 0
M  V30 5712 H 526.883 -2.97519 -4.61274 0
M  V30 5713 H 527.144 -1.28049 -4.2315 0
M  V30 5714 N 526.204 0.969867 -1.24223 0
M  V30 5715 C 527.167 2.04564 -1.03373 0
M  V30 5716 C 528.167 1.60798 0.00819206 0
M  V30 5717 O 529.357 1.72641 -0.232567 0
M  V30 5718 C 526.489 3.36163 -0.566343 0
M  V30 5719 H 527.682 2.24494 -1.98853 0
M  V30 5720 H 525.235 1.1448 -1.06415 0
M  V30 5721 H 525.97 3.21925 0.391751 0
M  V30 5722 H 525.755 3.69273 -1.31834 0
M  V30 5723 H 527.245 4.1526 -0.441435 0
M  V30 5724 N 527.682 1.05563 1.17022 0
M  V30 5725 C 528.931 0.763036 1.8671 0
M  V30 5726 C 529.244 -0.712857 1.82147 0
M  V30 5727 O 530.45 -1.11955 2.47343 0
M  V30 5728 C 528.906 1.31474 3.35026 0
M  V30 5729 C 528.514 2.82034 3.48081 0
M  V30 5730 C 530.258 1.09935 4.10018 0
M  V30 5731 C 528.165 3.30486 4.90442 0
M  V30 5732 H 527.095 0.281747 0.699382 0
M  V30 5733 H 529.746 1.2734 1.32124 0
M  V30 5734 H 528.128 0.732171 3.89173 0
M  V30 5735 H 529.302 3.46178 3.04133 0
M  V30 5736 H 527.617 3.02156 2.86515 0
M  V30 5737 H 530.214 1.43632 5.15048 0
M  V30 5738 H 530.557 0.0373072 4.16283 0
M  V30 5739 H 531.09 1.64732 3.62089 0
M  V30 5740 H 527.829 4.36137 4.89352 0
M  V30 5741 H 527.349 2.71086 5.35044 0
M  V30 5742 H 529.028 3.25382 5.59227 0
M  V30 5743 N 529.16 -1.33526 0.837174 0
M  V30 5744 C 530.108 -2.31168 0.257698 0
M  V30 5745 C 531.102 -1.5806 -0.609388 0
M  V30 5746 O 532.308 -1.72941 -0.499139 0
M  V30 5747 H 528.683 -0.74922 0.0646058 0
M  V30 5748 H 530.654 -2.77552 1.09578 0
M  V30 5749 C 529.403 -3.4326 -0.553887 0
M  V30 5750 H 528.726 -3.99665 0.104008 0
M  V30 5751 H 530.166 -4.13782 -0.925219 0
M  V30 5752 C 528.625 -2.88965 -1.73207 0
M  V30 5753 O 529.155 -2.85013 -2.83073 0
M  V30 5754 N 527.361 -2.45596 -1.55342 0
M  V30 5755 H 526.908 -2.49009 -0.659705 0
M  V30 5756 H 526.866 -2.0962 -2.34322 0
M  V30 5757 N 530.638 -0.59345 -1.46 0
M  V30 5758 C 531.601 0.123538 -2.28867 0
M  V30 5759 C 532.601 0.808628 -1.38989 0
M  V30 5760 O 533.791 0.658945 -1.61256 0
M  V30 5761 C 530.923 1.1847 -3.19653 0
M  V30 5762 H 532.116 -0.604843 -2.93737 0
M  V30 5763 H 529.669 -0.351875 -1.52288 0
M  V30 5764 H 530.404 1.94431 -2.59552 0
M  V30 5765 H 530.189 0.69783 -3.8584 0
M  V30 5766 H 531.679 1.68726 -3.81997 0
M  V30 5767 N 532.116 1.54067 -0.331816 0
M  V30 5768 C 533.364 2.00319 0.267739 0
M  V30 5769 C 533.685 1.22148 1.52003 0
M  V30 5770 O 532.955 0.325494 1.93177 0
M  V30 5771 H 531.535 0.740014 0.101922 0
M  V30 5772 H 534.197 1.89628 -0.450267 0
M  V30 5773 H 533.293 3.07765 0.518385 0
M  V30 5774 N 533.594 0.0601682 1.57485 0
M  V30 5775 C 535.01 -0.296422 1.56823 0
M  V30 5776 C 535.21 -1.70831 1.0686 0
M  V30 5777 O 534.266 -2.4174 0.729245 0
M  V30 5778 C 535.579 -0.116681 3.00474 0
M  V30 5779 C 537.127 -0.187103 3.1244 0
M  V30 5780 C 537.602 -0.035783 4.57986 0
M  V30 5781 N 539.093 -0.0917676 4.63109 0
M  V30 5782 C 539.828 0.00107251 5.734 0
M  V30 5783 N 539.324 0.146773 6.92645 0
M  V30 5784 N 541.117 -0.0551577 5.62073 0
M  V30 5785 H 533.268 0.983055 1.88281 0
M  V30 5786 H 535.531 0.382386 0.867459 0
M  V30 5787 H 535.237 0.85712 3.41096 0
M  V30 5788 H 535.111 -0.873929 3.66936 0
M  V30 5789 H 537.498 -1.15138 2.71712 0
M  V30 5790 H 537.579 0.601052 2.48638 0
M  V30 5791 H 537.223 0.925212 4.99402 0
M  V30 5792 H 537.153 -0.843196 5.19806 0
M  V30 5793 H 539.644 -0.203261 3.77353 0
M  V30 5794 H 539.957 0.210076 7.72514 0
M  V30 5795 H 538.302 0.181979 6.94762 0
M  V30 5796 H 541.493 -0.167605 4.678 0
M  V30 5797 H 541.666 0.020652 6.47997 0
M  V30 5798 N 535.072 -1.5615 -0.213296 0
M  V30 5799 C 536.002 -1.96109 -1.26742 0
M  V30 5800 C 536.983 -0.830448 -1.48451 0
M  V30 5801 O 538.168 -1.09339 -1.60495 0
M  V30 5802 C 535.298 -2.28492 -2.61551 0
M  V30 5803 C 534.252 -3.44124 -2.54485 0
M  V30 5804 C 533.578 -3.62134 -3.93399 0
M  V30 5805 C 534.878 -4.78855 -2.08556 0
M  V30 5806 H 536.572 -2.84412 -0.935434 0
M  V30 5807 H 534.118 -1.36836 -0.44854 0
M  V30 5808 H 536.071 -2.55039 -3.3546 0
M  V30 5809 H 534.795 -1.37052 -2.96453 0
M  V30 5810 H 533.454 -3.17639 -1.83033 0
M  V30 5811 H 533.102 -2.68055 -4.25623 0
M  V30 5812 H 532.802 -4.39913 -3.89551 0
M  V30 5813 H 534.326 -3.91038 -4.68958 0
M  V30 5814 H 535.74 -5.04552 -2.72213 0
M  V30 5815 H 534.137 -5.59975 -2.1575 0
M  V30 5816 H 535.207 -4.73657 -1.03811 0
M  V30 5817 N 536.55 0.480323 -1.50102 0
M  V30 5818 C 537.48 1.58769 -1.71215 0
M  V30 5819 C 538.461 1.60583 -0.560997 0
M  V30 5820 O 539.646 1.76996 -0.799127 0
M  V30 5821 C 536.776 2.97148 -1.79778 0
M  V30 5822 C 535.73 3.10201 -2.94888 0
M  V30 5823 C 535.056 4.50137 -2.88584 0
M  V30 5824 C 536.356 2.88283 -4.35534 0
M  V30 5825 H 538.05 1.41354 -2.6393 0
M  V30 5826 H 535.596 0.678591 -1.27008 0
M  V30 5827 H 537.549 3.74536 -1.93133 0
M  V30 5828 H 536.273 3.15699 -0.836772 0
M  V30 5829 H 534.932 2.35244 -2.81169 0
M  V30 5830 H 534.58 4.65593 -1.90349 0
M  V30 5831 H 534.28 4.59808 -3.65856 0
M  V30 5832 H 535.804 5.29558 -3.03976 0
M  V30 5833 H 537.218 3.55427 -4.49827 0
M  V30 5834 H 535.615 3.09408 -5.14186 0
M  V30 5835 H 536.685 1.84219 -4.48544 0
M  V30 5836 N 538.028 1.39524 0.732853 0
M  V30 5837 C 538.991 1.38189 1.82857 0
M  V30 5838 C 539.991 0.278624 1.58368 0
M  V30 5839 O 541.181 0.536639 1.65728 0
M  V30 5840 C 538.313 1.15661 3.2068 0
M  V30 5841 H 539.506 2.35692 1.85444 0
M  V30 5842 H 537.059 1.2512 0.936728 0
M  V30 5843 H 537.794 0.188482 3.23752 0
M  V30 5844 H 537.579 1.95559 3.39852 0
M  V30 5845 H 539.069 1.17472 4.00737 0
M  V30 5846 N 539.506 -0.963266 1.24736 0
M  V30 5847 C 540.783 -1.68248 0.9976 0
M  V30 5848 C 541.163 -2.05599 -0.478776 0
M  V30 5849 O 540.511 -1.7626 -1.45412 0
M  V30 5850 C 540.721 -2.91118 1.92487 0
M  V30 5851 C 542.069 -3.63261 2.19833 0
M  V30 5852 O 543.093 -3.01184 1.90176 0
M  V30 5853 O 541.952 -4.75019 2.7022 0
M  V30 5854 H 539.046 -0.735744 0.377637 0
M  V30 5855 H 541.592 -1.01696 1.35853 0
M  V30 5856 H 540.364 -2.60242 2.92215 0
M  V30 5857 H 539.987 -3.65402 1.56738 0
M  V30 5858 N 540.985 -1.06182 -1.16461 0
M  V30 5859 C 542.401 -0.785065 -1.38956 0
M  V30 5860 C 542.601 0.616103 -1.9185 0
M  V30 5861 O 541.657 1.37686 -2.11657 0
M  V30 5862 C 542.97 -1.84902 -2.37132 0
M  V30 5863 C 544.518 -1.8724 -2.50819 0
M  V30 5864 C 544.993 -2.92686 -3.52277 0
M  V30 5865 N 546.484 -2.91712 -3.59803 0
M  V30 5866 C 547.219 -3.69949 -4.38093 0
M  V30 5867 N 546.715 -4.58 -5.19815 0
M  V30 5868 N 548.508 -3.58346 -4.33064 0
M  V30 5869 H 540.659 -1.96569 -0.804634 0
M  V30 5870 H 542.922 -0.851747 -0.416211 0
M  V30 5871 H 542.628 -2.85518 -2.0536 0
M  V30 5872 H 542.502 -1.69908 -3.36766 0
M  V30 5873 H 544.889 -0.872827 -2.81897 0
M  V30 5874 H 544.97 -2.06311 -1.51226 0
M  V30 5875 H 544.614 -3.92835 -3.21937 0
M  V30 5876 H 544.544 -2.70864 -4.51598 0
M  V30 5877 H 547.035 -2.27876 -3.01464 0
M  V30 5878 H 547.348 -5.14357 -5.76764 0
M  V30 5879 H 545.693 -4.62056 -5.19162 0
M  V30 5880 H 548.884 -2.88943 -3.68279 0
M  V30 5881 H 549.057 -4.19563 -4.93833 0
M  V30 5882 N 542.463 1.3308 -0.844243 0
M  V30 5883 C 543.393 2.3161 -0.296493 0
M  V30 5884 C 544.374 1.59215 0.598707 0
M  V30 5885 O 545.559 1.87077 0.521134 0
M  V30 5886 C 542.689 3.43313 0.524762 0
M  V30 5887 C 541.643 4.27115 -0.275106 0
M  V30 5888 C 540.969 5.30483 0.670236 0
M  V30 5889 C 542.269 5.00443 -1.49514 0
M  V30 5890 H 543.963 2.77672 -1.11976 0
M  V30 5891 H 541.509 1.33496 -0.539899 0
M  V30 5892 H 543.462 4.11273 0.918298 0
M  V30 5893 H 542.186 2.95952 1.3813 0
M  V30 5894 H 540.845 3.60787 -0.650267 0
M  V30 5895 H 540.493 4.79379 1.52332 0
M  V30 5896 H 540.193 5.87435 0.139123 0
M  V30 5897 H 541.717 6.01308 1.06117 0
M  V30 5898 H 543.131 5.61141 -1.17447 0
M  V30 5899 H 541.528 5.67071 -1.96343 0
M  V30 5900 H 542.598 4.28906 -2.26202 0
M  V30 5901 N 543.941 0.601185 1.45683 0
M  V30 5902 C 545.188 0.0938811 2.02282 0
M  V30 5903 C 545.516 -1.27315 1.47041 0
M  V30 5904 O 544.771 -1.85193 0.632623 0
M  V30 5905 C 545.07 -0.00222425 3.574 0
M  V30 5906 C 544.736 1.29963 4.31764 0
M  V30 5907 C 543.398 1.65625 4.51798 0
M  V30 5908 C 545.75 2.1603 4.74321 0
M  V30 5909 C 543.078 2.87119 5.11644 0
M  V30 5910 C 545.43 3.36766 5.3551 0
M  V30 5911 C 544.094 3.72689 5.53768 0
M  V30 5912 H 543.364 0.0343535 0.740203 0
M  V30 5913 H 546.011 0.781522 1.74827 0
M  V30 5914 H 544.316 -0.773096 3.84097 0
M  V30 5915 H 546.013 -0.410794 3.9889 0
M  V30 5916 H 542.603 1.01204 4.1648 0
M  V30 5917 H 546.787 1.89778 4.58582 0
M  V30 5918 H 542.043 3.15065 5.2397 0
M  V30 5919 H 546.217 4.03713 5.67441 0
M  V30 5920 H 543.844 4.66918 5.99909 0
M  V30 5921 N 545.419 -1.53889 0.339982 0
M  V30 5922 C 546.349 -2.27843 -0.510856 0
M  V30 5923 C 547.33 -1.29267 -1.10563 0
M  V30 5924 O 548.515 -1.58104 -1.12768 0
M  V30 5925 C 545.645 -3.04857 -1.66372 0
M  V30 5926 C 544.599 -4.10907 -1.19746 0
M  V30 5927 C 543.925 -4.75855 -2.43857 0
M  V30 5928 C 545.225 -5.21435 -0.300501 0
M  V30 5929 H 546.919 -2.99212 0.106067 0
M  V30 5930 H 544.465 -1.43904 0.0524533 0
M  V30 5931 H 546.418 -3.5533 -2.26537 0
M  V30 5932 H 545.142 -2.31133 -2.30749 0
M  V30 5933 H 543.801 -3.61342 -0.618654 0
M  V30 5934 H 543.449 -3.9873 -3.06633 0
M  V30 5935 H 543.149 -5.47502 -2.13343 0
M  V30 5936 H 544.673 -5.2911 -3.04754 0
M  V30 5937 H 546.087 -5.67565 -0.80889 0
M  V30 5938 H 544.484 -6.00036 -0.0874076 0
M  V30 5939 H 545.554 -4.80328 0.664321 0
M  V30 5940 N 546.897 -0.0685191 -1.57451 0
M  V30 5941 C 547.844 0.899861 -2.12535 0
M  V30 5942 C 548.814 1.29749 -1.03703 0
M  V30 5943 O 549.999 1.38392 -1.31348 0
M  V30 5944 C 547.139 2.16328 -2.6888 0
M  V30 5945 C 546.252 1.81857 -3.91857 0
M  V30 5946 C 545.387 3.02786 -4.36457 0
M  V30 5947 C 544.426 2.64317 -5.5209 0
M  V30 5948 N 543.563 3.77994 -5.91663 0
M  V30 5949 H 548.403 0.423243 -2.94979 0
M  V30 5950 H 545.94 0.197268 -1.45771 0
M  V30 5951 H 547.898 2.90281 -2.99655 0
M  V30 5952 H 546.528 2.61536 -1.89206 0
M  V30 5953 H 545.58 0.979808 -3.67565 0
M  V30 5954 H 546.892 1.49553 -4.75852 0
M  V30 5955 H 546.046 3.85021 -4.68875 0
M  V30 5956 H 544.785 3.38281 -3.51308 0
M  V30 5957 H 543.79 1.80503 -5.19325 0
M  V30 5958 H 545.015 2.29995 -6.38967 0
M  V30 5959 H 542.961 4.13258 -5.09464 0
M  V30 5960 H 542.878 3.49447 -6.7039 0
M  V30 5961 H 544.146 4.60818 -6.28703 0
M  V30 5962 N 548.375 1.56261 0.205012 0
M  V30 5963 C 549.322 1.93754 1.25411 0
M  V30 5964 C 550.292 0.796826 1.45739 0
M  V30 5965 O 551.477 1.05414 1.59036 0
M  V30 5966 C 548.617 2.27383 2.59598 0
M  V30 5967 C 547.73 3.5447 2.46931 0
M  V30 5968 C 546.865 3.77468 3.73753 0
M  V30 5969 C 545.904 4.98014 3.55877 0
M  V30 5970 N 545.041 5.17316 4.74688 0
M  V30 5971 H 549.881 2.83203 0.92737 0
M  V30 5972 H 547.418 1.40158 0.446574 0
M  V30 5973 H 549.376 2.44895 3.37761 0
M  V30 5974 H 548.006 1.41088 2.90335 0
M  V30 5975 H 547.058 3.45061 1.60116 0
M  V30 5976 H 548.37 4.42789 2.29651 0
M  V30 5977 H 547.524 3.95165 4.60358 0
M  V30 5978 H 546.263 2.87461 3.93976 0
M  V30 5979 H 545.268 4.80249 2.67657 0
M  V30 5980 H 546.493 5.8952 3.37109 0
M  V30 5981 H 544.439 4.30255 4.95194 0
M  V30 5982 H 544.356 5.99796 4.60197 0
M  V30 5983 H 545.624 5.39463 5.62672 0
M  V30 5984 N 549.853 -0.472356 1.50355 0
M  V30 5985 C 551.081 -1.24784 1.65035 0
M  V30 5986 C 551.496 -1.85837 0.333176 0
M  V30 5987 O 550.853 -1.69168 -0.68472 0
M  V30 5988 C 550.904 -2.35747 2.74054 0
M  V30 5989 O 550.625 -1.77197 4.00665 0
M  V30 5990 C 552.126 -3.26645 2.99696 0
M  V30 5991 H 549.346 -0.377432 0.554785 0
M  V30 5992 H 551.89 -0.563962 1.9657 0
M  V30 5993 H 550.045 -2.99912 2.45217 0
M  V30 5994 H 550.459 -2.5026 4.60945 0
M  V30 5995 H 551.933 -4.00718 3.79644 0
M  V30 5996 H 552.41 -3.8535 2.10718 0
M  V30 5997 H 553.016 -2.68218 3.3006 0
M  V30 5998 N 551.331 -1.39911 -0.725443 0
M  V30 5999 C 552.747 -1.21725 -1.03224 0
M  V30 6000 C 552.947 -0.0855224 -2.01318 0
M  V30 6001 O 552.003 0.55976 -2.46217 0
M  V30 6002 C 553.316 -2.55511 -1.58539 0
M  V30 6003 C 554.864 -2.62439 -1.70572 0
M  V30 6004 C 555.339 -3.9647 -2.29294 0
M  V30 6005 N 556.83 -3.98159 -2.36692 0
M  V30 6006 C 557.565 -4.98647 -2.83088 0
M  V30 6007 N 557.061 -6.0953 -3.2931 0
M  V30 6008 N 558.854 -4.8602 -2.82384 0
M  V30 6009 H 551.005 -2.12267 -0.075048 0
M  V30 6010 H 553.268 -0.943136 -0.0959066 0
M  V30 6011 H 552.974 -3.38926 -0.939249 0
M  V30 6012 H 552.848 -2.75905 -2.57208 0
M  V30 6013 H 555.235 -1.79401 -2.34306 0
M  V30 6014 H 555.316 -2.45885 -0.705297 0
M  V30 6015 H 554.96 -4.79942 -1.66186 0
M  V30 6016 H 554.89 -4.10349 -3.30032 0
M  V30 6017 H 557.381 -3.18085 -2.04035 0
M  V30 6018 H 557.694 -6.82106 -3.6325 0
M  V30 6019 H 556.039 -6.1311 -3.27294 0
M  V30 6020 H 559.23 -3.98493 -2.45603 0
M  V30 6021 H 559.403 -5.64478 -3.18226 0
M  V30 6022 N 552.809 0.956637 -1.25245 0
M  V30 6023 C 553.756 2.053 -1.05454 0
M  V30 6024 C 554.726 1.66062 0.0356889 0
M  V30 6025 O 555.911 1.90415 -0.121099 0
M  V30 6026 C 553.051 3.38391 -0.677191 0
M  V30 6027 C 552.164 3.90758 -1.84206 0
M  V30 6028 C 551.299 5.12165 -1.40926 0
M  V30 6029 C 550.338 5.56757 -2.54338 0
M  V30 6030 N 549.475 6.69376 -2.11848 0
M  V30 6031 H 554.315 2.21562 -1.99284 0
M  V30 6032 H 551.852 1.08578 -0.992434 0
M  V30 6033 H 553.81 4.1488 -0.43938 0
M  V30 6034 H 552.44 3.22021 0.224127 0
M  V30 6035 H 551.492 3.10808 -2.19323 0
M  V30 6036 H 552.804 4.19802 -2.69383 0
M  V30 6037 H 551.958 5.96065 -1.13098 0
M  V30 6038 H 550.697 4.84832 -0.528175 0
M  V30 6039 H 549.702 4.71423 -2.82913 0
M  V30 6040 H 550.927 5.861 -3.43022 0
M  V30 6041 H 548.873 6.43756 -1.26153 0
M  V30 6042 H 548.79 6.97927 -2.90574 0
M  V30 6043 H 550.058 7.5669 -1.87191 0
M  V30 6044 N 554.287 1.06798 1.15896 0
M  V30 6045 C 555.515 0.808694 1.90441 0
M  V30 6046 C 555.93 -0.637506 1.77711 0
M  V30 6047 O 555.287 -1.43684 1.12522 0
M  V30 6048 C 555.338 1.20068 3.40978 0
M  V30 6049 O 555.059 2.59013 3.53333 0
M  V30 6050 C 556.56 0.96987 4.3256 0
M  V30 6051 H 553.78 0.292809 0.603742 0
M  V30 6052 H 556.324 1.42296 1.46874 0
M  V30 6053 H 554.479 0.630842 3.82229 0
M  V30 6054 H 554.893 2.7485 4.46719 0
M  V30 6055 H 556.367 1.29371 5.36626 0
M  V30 6056 H 556.844 -0.0941209 4.39099 0
M  V30 6057 H 557.45 1.52433 3.97044 0
M  V30 6058 N 555.766 -1.3263 0.851289 0
M  V30 6059 C 556.714 -2.30882 0.282202 0
M  V30 6060 C 557.708 -1.58697 -0.592589 0
M  V30 6061 O 558.914 -1.73461 -0.480768 0
M  V30 6062 H 555.289 -0.748492 0.0725487 0
M  V30 6063 H 557.26 -2.76374 1.12516 0
M  V30 6064 C 556.009 -3.43828 -0.517449 0
M  V30 6065 H 555.332 -3.99532 0.146392 0
M  V30 6066 H 556.772 -4.1474 -0.88128 0
M  V30 6067 C 555.231 -2.90786 -1.70133 0
M  V30 6068 O 555.761 -2.88 -2.80034 0
M  V30 6069 N 553.967 -2.4723 -1.52728 0
M  V30 6070 H 553.514 -2.49695 -0.633257 0
M  V30 6071 H 553.472 -2.12094 -2.32085 0
M  V30 6072 N 557.244 -0.608902 -1.45362 0
M  V30 6073 C 558.474 -0.110852 -2.06302 0
M  V30 6074 C 558.882 1.21062 -1.45398 0
M  V30 6075 O 558.225 1.74861 -0.562976 0
M  V30 6076 C 558.287 0.101793 -3.59356 0
M  V30 6077 C 557.951 -1.13808 -4.42602 0
M  V30 6078 C 558.948 -2.05653 -4.77496 0
M  V30 6079 C 556.633 -1.36727 -4.83333 0
M  V30 6080 C 558.627 -3.18745 -5.51978 0
M  V30 6081 C 556.314 -2.5012 -5.57569 0
M  V30 6082 C 557.312 -3.40957 -5.91809 0
M  V30 6083 O 557 -4.52376 -6.64538 0
M  V30 6084 H 556.732 -0.0666001 -0.672711 0
M  V30 6085 H 559.286 -0.836942 -1.87575 0
M  V30 6086 H 557.516 0.88279 -3.76489 0
M  V30 6087 H 559.205 0.551607 -4.02134 0
M  V30 6088 H 559.971 -1.89172 -4.46586 0
M  V30 6089 H 555.85 -0.669216 -4.56117 0
M  V30 6090 H 559.394 -3.8967 -5.78622 0
M  V30 6091 H 555.291 -2.66553 -5.87894 0
M  V30 6092 H 556.059 -4.51075 -6.82989 0
M  V30 6093 N 558.722 1.53707 -0.348139 0
M  V30 6094 C 559.669 2.25173 0.506518 0
M  V30 6095 C 560.639 1.25174 1.09182 0
M  V30 6096 O 561.824 1.53917 1.12757 0
M  V30 6097 C 558.964 3.03141 1.64923 0
M  V30 6098 C 558.077 4.18002 1.0908 0
M  V30 6099 C 557.212 4.83447 2.20119 0
M  V30 6100 C 556.251 5.90369 1.61651 0
M  V30 6101 N 555.388 6.49575 2.66451 0
M  V30 6102 H 560.228 2.97799 -0.109452 0
M  V30 6103 H 557.765 1.46953 -0.0657866 0
M  V30 6104 H 559.723 3.46607 2.32205 0
M  V30 6105 H 558.353 2.32803 2.23612 0
M  V30 6106 H 557.405 3.79145 0.308783 0
M  V30 6107 H 558.717 4.94892 0.623178 0
M  V30 6108 H 557.871 5.30008 2.95257 0
M  V30 6109 H 556.61 4.05991 2.70227 0
M  V30 6110 H 555.615 5.43186 0.850209 0
M  V30 6111 H 556.84 6.69735 1.1239 0
M  V30 6112 H 554.786 5.74981 3.15805 0
M  V30 6113 H 554.703 7.21952 2.24325 0
M  V30 6114 H 555.971 7.00789 3.41344 0
M  V30 6115 N 560.2 0.0768682 1.57412 0
M  V30 6116 C 561.13 -0.886026 2.16037 0
M  V30 6117 C 562.111 -1.30691 1.08876 0
M  V30 6118 O 563.296 -1.37705 1.36934 0
M  V30 6119 C 560.426 -2.1518 2.72608 0
M  V30 6120 C 559.38 -1.87015 3.8498 0
M  V30 6121 C 558.706 -3.20266 4.28175 0
M  V30 6122 C 560.006 -1.17143 5.08994 0
M  V30 6123 H 561.7 -0.397642 2.96748 0
M  V30 6124 H 559.246 -0.189823 1.42743 0
M  V30 6125 H 561.199 -2.82962 3.12266 0
M  V30 6126 H 559.923 -2.66269 1.89125 0
M  V30 6127 H 558.582 -1.21636 3.45833 0
M  V30 6128 H 558.23 -3.69207 3.41607 0
M  V30 6129 H 557.93 -3.0221 5.03927 0
M  V30 6130 H 559.454 -3.89237 4.70454 0
M  V30 6131 H 560.868 -1.75003 5.45937 0
M  V30 6132 H 559.265 -1.09328 5.90057 0
M  V30 6133 H 560.335 -0.151295 4.84664 0
M  V30 6134 N 561.678 -1.56367 -0.196722 0
M  V30 6135 C 562.927 -1.79724 -0.915539 0
M  V30 6136 C 563.24 -0.649804 -1.84491 0
M  V30 6137 O 564.446 -0.767631 -2.60422 0
M  V30 6138 C 562.902 -3.18369 -1.67836 0
M  V30 6139 C 562.51 -4.4091 -0.793897 0
M  V30 6140 C 564.254 -3.51037 -2.38691 0
M  V30 6141 C 562.161 -5.70577 -1.55549 0
M  V30 6142 H 561.091 -0.67013 -0.345604 0
M  V30 6143 H 563.742 -1.82721 -0.168856 0
M  V30 6144 H 562.124 -3.09617 -2.46887 0
M  V30 6145 H 563.298 -4.60781 -0.042163 0
M  V30 6146 H 561.613 -4.15937 -0.19626 0
M  V30 6147 H 564.21 -4.4515 -2.96219 0
M  V30 6148 H 564.553 -2.74704 -3.12799 0
M  V30 6149 H 565.086 -3.61229 -1.66608 0
M  V30 6150 H 561.825 -6.49871 -0.857226 0
M  V30 6151 H 561.345 -5.54726 -2.2812 0
M  V30 6152 H 563.024 -6.11637 -2.10971 0
M  V30 6153 N 563.156 0.464375 -1.50603 0
M  V30 6154 C 564.567 1.04507 -1.5471 0
M  V30 6155 C 564.918 1.9297 -0.354542 0
M  V30 6156 O 564.043 2.09763 0.531812 0
M  V30 6157 C 564.638 1.90207 -2.80369 0
M  V30 6158 C 563.197 2.43373 -2.87135 0
M  V30 6159 C 562.344 1.21886 -2.49076 0
M  V30 6160 H 565.295 0.246716 -1.56771 0
M  V30 6161 H 565.316 2.75353 -2.62604 0
M  V30 6162 H 564.828 1.25796 -3.67147 0
M  V30 6163 H 562.929 3.11318 -2.04724 0
M  V30 6164 H 563.042 2.7802 -3.90181 0
M  V30 6165 H 561.406 1.55575 -2.01664 0
M  V30 6166 H 562.189 0.591268 -3.3817 0
M  V30 6167 N 564.634 1.40294 0.718013 0
M  V30 6168 C 565.862 1.4175 1.50714 0
M  V30 6169 C 566.277 0.0165366 1.88793 0
M  V30 6170 O 565.634 -0.958942 1.55276 0
M  V30 6171 C 565.685 2.30598 2.784 0
M  V30 6172 O 565.406 3.6524 2.41932 0
M  V30 6173 C 566.907 2.4062 3.72313 0
M  V30 6174 H 564.127 0.483565 0.465194 0
M  V30 6175 H 566.671 1.84316 0.885889 0
M  V30 6176 H 564.826 1.91401 3.36815 0
M  V30 6177 H 565.24 4.12402 3.24076 0
M  V30 6178 H 566.714 3.07001 4.58753 0
M  V30 6179 H 567.191 1.4305 4.15251 0
M  V30 6180 H 567.797 2.80359 3.19811 0
M  V30 6181 N 566.112 -0.949982 1.2575 0
M  V30 6182 C 567.358 -1.69766 1.10938 0
M  V30 6183 C 567.691 -1.91056 -0.348028 0
M  V30 6184 O 566.966 -1.48488 -1.25625 0
M  V30 6185 C 567.249 -3.07779 1.86933 0
M  V30 6186 C 567.102 -2.9387 3.4053 0
M  V30 6187 C 568.421 -4.07749 1.65616 0
M  V30 6188 H 565.54 -0.616144 0.404396 0
M  V30 6189 H 568.182 -1.10394 1.54639 0
M  V30 6190 H 566.332 -3.58462 1.4979 0
M  V30 6191 H 568.004 -2.50476 3.87375 0
M  V30 6192 H 566.247 -2.29686 3.68004 0
M  V30 6193 H 566.918 -3.91719 3.88922 0
M  V30 6194 H 569.394 -3.65994 1.97959 0
M  V30 6195 H 568.27 -5.02348 2.21218 0
M  V30 6196 H 568.531 -4.38029 0.598595 0
M  V30 6197 N 567.59 -1.07411 -1.15328 0
M  V30 6198 C 568.839 -0.792643 -1.85473 0
M  V30 6199 C 569.152 0.683789 -1.83259 0
M  V30 6200 O 570.358 1.08005 -2.49093 0
M  V30 6201 C 568.814 -1.36787 -3.32892 0
M  V30 6202 C 568.422 -2.87536 -3.43551 0
M  V30 6203 C 570.166 -1.16444 -4.08217 0
M  V30 6204 C 568.073 -3.38247 -4.85122 0
M  V30 6205 H 567.003 -0.292838 -0.694811 0
M  V30 6206 H 569.654 -1.29426 -1.30082 0
M  V30 6207 H 568.036 -0.793993 -3.87958 0
M  V30 6208 H 569.21 -3.50973 -2.98588 0
M  V30 6209 H 567.525 -3.06676 -2.81672 0
M  V30 6210 H 570.122 -1.51808 -5.12697 0
M  V30 6211 H 570.465 -0.10353 -4.16171 0
M  V30 6212 H 570.998 -1.70472 -3.59422 0
M  V30 6213 H 567.737 -4.43866 -4.82351 0
M  V30 6214 H 567.257 -2.79564 -5.30664 0
M  V30 6215 H 568.936 -3.34238 -5.5398 0
M  V30 6216 N 569.068 1.32177 -0.85831 0
M  V30 6217 C 570.315 1.97125 -0.463484 0
M  V30 6218 C 570.643 1.67907 0.981705 0
M  V30 6219 O 569.898 0.961717 1.70439 0
M  V30 6220 C 570.197 3.51372 -0.653658 0
M  V30 6221 C 569.863 4.00584 -2.06987 0
M  V30 6222 C 568.525 4.13733 -2.4572 0
M  V30 6223 C 570.877 4.26624 -2.99402 0
M  V30 6224 C 568.205 4.50268 -3.76132 0
M  V30 6225 C 570.557 4.64618 -4.29316 0
M  V30 6226 C 569.221 4.75975 -4.67979 0
M  V30 6227 H 568.491 0.72133 -0.169601 0
M  V30 6228 H 571.138 1.57517 -1.08907 0
M  V30 6229 H 569.443 3.91761 0.0551328 0
M  V30 6230 H 571.14 3.99655 -0.328163 0
M  V30 6231 H 567.73 3.90837 -1.75911 0
M  V30 6232 H 571.914 4.1597 -2.70708 0
M  V30 6233 H 567.17 4.57256 -4.05865 0
M  V30 6234 H 571.344 4.83722 -5.00985 0
M  V30 6235 H 568.971 5.04041 -5.69076 0
M  V30 6236 N 570.547 0.616602 1.45037 0
M  V30 6237 C 571.772 0.120192 2.07051 0
M  V30 6238 C 572.197 -1.19008 1.45666 0
M  V30 6239 O 571.555 -1.7267 0.552692 0
M  V30 6240 C 571.603 0.00354901 3.606 0
M  V30 6241 O 570.707 -1.04431 3.98958 0
M  V30 6242 H 570.048 0.0781599 0.659384 0
M  V30 6243 H 572.578 0.849167 1.86146 0
M  V30 6244 H 572.588 -0.191754 4.07549 0
M  V30 6245 H 571.263 0.960239 4.04663 0
M  V30 6246 H 569.84 -0.824749 3.63665 0
M  V30 6247 N 572.025 -1.5352 0.356285 0
M  V30 6248 C 572.975 -2.22204 -0.510815 0
M  V30 6249 C 573.959 -1.21393 -1.05605 0
M  V30 6250 O 575.151 -1.46883 -0.987639 0
M  V30 6251 C 572.28 -3.00786 -1.65478 0
M  V30 6252 C 571.366 -4.08965 -1.12287 0
M  V30 6253 N 571.757 -5.04829 -0.313191 0
M  V30 6254 C 570.055 -4.23505 -1.39856 0
M  V30 6255 C 570.756 -5.81695 -0.0230322 0
M  V30 6256 N 569.732 -5.40074 -0.618144 0
M  V30 6257 H 573.534 -2.93676 0.114711 0
M  V30 6258 H 571.048 -1.61572 0.163811 0
M  V30 6259 H 573.045 -3.48502 -2.28806 0
M  V30 6260 H 571.705 -2.30843 -2.28345 0
M  V30 6261 H 572.716 -5.17879 0.0468202 0
M  V30 6262 H 569.393 -3.64786 -2.0307 0
M  V30 6263 H 570.783 -6.68931 0.630927 0
M  V30 6264 N 573.503 -0.0852151 -1.57369 0
M  V30 6265 C 574.914 0.445428 -1.81309 0
M  V30 6266 C 575.265 1.68795 -1.00013 0
M  V30 6267 O 574.39 2.15211 -0.226573 0
M  V30 6268 C 574.985 0.814887 -3.28854 0
M  V30 6269 C 573.544 1.29032 -3.53592 0
M  V30 6270 C 572.691 0.282089 -2.75861 0
M  V30 6271 H 575.642 -0.310771 -1.55627 0
M  V30 6272 H 575.663 1.67524 -3.41637 0
M  V30 6273 H 575.175 -0.0896309 -3.87996 0
M  V30 6274 H 573.276 2.21289 -2.9977 0
M  V30 6275 H 573.389 1.25898 -4.62262 0
M  V30 6276 H 571.753 0.762182 -2.43029 0
M  V30 6277 H 572.536 -0.614936 -3.37748 0
M  V30 6278 N 574.981 1.5647 0.188427 0
M  V30 6279 C 576.392 1.70864 0.752494 0
M  V30 6280 C 576.743 0.692905 1.83557 0
M  V30 6281 O 575.868 -0.149307 2.15884 0
M  V30 6282 C 576.463 3.09789 1.37173 0
M  V30 6283 C 575.022 3.25925 1.88281 0
M  V30 6284 C 574.169 2.66817 0.755259 0
M  V30 6285 H 577.12 1.58657 -0.0367408 0
M  V30 6286 H 577.141 3.07489 2.24122 0
M  V30 6287 H 576.653 3.83693 0.583219 0
M  V30 6288 H 574.754 2.56948 2.6983 0
M  V30 6289 H 574.867 4.33498 2.04001 0
M  V30 6290 H 573.231 2.2617 1.17128 0
M  V30 6291 H 574.014 3.43294 -0.0211237 0
M  V30 6292 N 576.459 -0.456382 1.50847 0
M  V30 6293 C 577.708 -1.2042 1.61808 0
M  V30 6294 C 578.021 -1.9278 0.330932 0
M  V30 6295 O 579.227 -2.69612 0.319643 0
M  V30 6296 C 577.683 -2.18891 2.85683 0
M  V30 6297 C 577.291 -1.52267 4.2133 0
M  V30 6298 C 579.035 -2.94224 3.05994 0
M  V30 6299 C 576.942 -2.4911 5.36375 0
M  V30 6300 H 575.872 -0.453177 0.602616 0
M  V30 6301 H 578.523 -0.473144 1.77295 0
M  V30 6302 H 576.905 -2.95351 2.63787 0
M  V30 6303 H 578.079 -0.814949 4.53536 0
M  V30 6304 H 576.394 -0.891594 4.06743 0
M  V30 6305 H 578.991 -3.66732 3.89117 0
M  V30 6306 H 579.334 -3.54469 2.18306 0
M  V30 6307 H 579.867 -2.24874 3.28141 0
M  V30 6308 H 576.606 -1.93582 6.26264 0
M  V30 6309 H 576.126 -3.17991 5.08569 0
M  V30 6310 H 577.805 -3.10637 5.67551 0
M  V30 6311 N 577.937 -1.40673 -0.710563 0
M  V30 6312 C 579.185 -1.38947 -1.46759 0
M  V30 6313 C 579.506 0.00572879 -1.94999 0
M  V30 6314 O 578.776 0.961358 -1.70689 0
M  V30 6315 H 577.356 -0.5114 -0.544499 0
M  V30 6316 H 580.018 -1.75773 -0.842012 0
M  V30 6317 H 579.114 -2.06745 -2.33801 0
M  V30 6318 N 579.415 0.9433 -1.26252 0
M  V30 6319 C 580.643 1.72367 -1.14443 0
M  V30 6320 C 581.058 1.86392 0.300572 0
M  V30 6321 O 580.415 1.36978 1.20596 0
M  V30 6322 C 580.466 3.13155 -1.806 0
M  V30 6323 O 580.187 2.99803 -3.19452 0
M  V30 6324 C 581.688 4.07417 -1.74717 0
M  V30 6325 H 578.908 0.539758 -0.398626 0
M  V30 6326 H 581.452 1.18268 -1.66832 0
M  V30 6327 H 579.607 3.64162 -1.32154 0
M  V30 6328 H 580.021 3.88697 -3.52158 0
M  V30 6329 H 581.495 5.03773 -2.25647 0
M  V30 6330 H 581.972 4.3337 -0.713244 0
M  V30 6331 H 582.578 3.6233 -2.22704 0
M  V30 6332 N 580.893 1.08022 1.14757 0
M  V30 6333 C 582.142 0.802468 1.8505 0
M  V30 6334 C 582.455 -0.674061 1.83619 0
M  V30 6335 O 583.661 -1.06683 2.49662 0
M  V30 6336 C 582.117 1.38551 3.32162 0
M  V30 6337 C 581.725 2.89354 3.42021 0
M  V30 6338 C 583.469 1.18608 4.07594 0
M  V30 6339 C 581.376 3.40815 4.83321 0
M  V30 6340 H 580.306 0.296518 0.693248 0
M  V30 6341 H 582.957 1.30114 1.29393 0
M  V30 6342 H 581.339 0.814556 3.87532 0
M  V30 6343 H 582.513 3.52552 2.96722 0
M  V30 6344 H 580.828 3.08165 2.80041 0
M  V30 6345 H 583.425 1.54525 5.11885 0
M  V30 6346 H 583.768 0.125599 4.1611 0
M  V30 6347 H 584.301 1.72375 3.58513 0
M  V30 6348 H 581.04 4.46418 4.79991 0
M  V30 6349 H 580.56 2.82374 5.29174 0
M  V30 6350 H 582.239 3.37171 5.522 0
M  V30 6351 N 582.371 -1.3172 0.865308 0
M  V30 6352 C 583.619 -1.96487 0.472995 0
M  V30 6353 C 583.94 -1.68761 -0.976975 0
M  V30 6354 O 583.21 -1.00051 -1.68424 0
M  V30 6355 H 581.79 -0.726947 0.171922 0
M  V30 6356 H 584.452 -1.60612 1.10407 0
M  V30 6357 H 583.548 -3.0574 0.62687 0
M  V30 6358 N 583.85 -0.624285 -1.44708 0
M  V30 6359 C 584.779 0.0717025 -2.3339 0
M  V30 6360 C 585.76 0.841814 -1.47809 0
M  V30 6361 O 586.946 0.809056 -1.76544 0
M  V30 6362 C 584.076 1.05852 -3.30776 0
M  V30 6363 C 583.029 0.400503 -4.26122 0
M  V30 6364 C 582.356 1.49674 -5.13324 0
M  V30 6365 C 583.656 -0.688924 -5.17737 0
M  V30 6366 H 585.35 -0.668819 -2.91834 0
M  V30 6367 H 582.896 -0.32308 -1.40329 0
M  V30 6368 H 584.849 1.5541 -3.91696 0
M  V30 6369 H 583.572 1.82984 -2.70526 0
M  V30 6370 H 582.231 -0.0743687 -3.66525 0
M  V30 6371 H 581.88 2.25877 -4.49431 0
M  V30 6372 H 581.58 1.06188 -5.77926 0
M  V30 6373 H 583.104 1.99427 -5.77115 0
M  V30 6374 H 584.518 -0.276724 -5.72632 0
M  V30 6375 H 582.915 -1.04652 -5.90904 0
M  V30 6376 H 583.985 -1.55884 -4.5916 0
M  V30 6377 N 585.328 1.53329 -0.364422 0
M  V30 6378 C 586.553 2.06132 0.229033 0
M  V30 6379 C 586.978 1.23625 1.41769 0
M  V30 6380 O 586.336 0.255038 1.79497 0
M  V30 6381 C 586.384 3.55544 0.60174 0
M  V30 6382 O 585.488 3.75771 1.69912 0
M  V30 6383 H 584.829 0.663148 0.0336213 0
M  V30 6384 H 587.359 1.97758 -0.524689 0
M  V30 6385 H 587.369 3.98549 0.873073 0
M  V30 6386 H 586.044 4.15039 -0.267421 0
M  V30 6387 H 584.621 3.44663 1.42343 0
M  V30 6388 N 586.806 0.0935595 1.57322 0
M  V30 6389 C 587.716 -0.880192 2.17462 0
M  V30 6390 C 588.732 -1.31135 1.14366 0
M  V30 6391 O 589.908 -1.37958 1.46729 0
M  V30 6392 C 586.973 -2.12184 2.74188 0
M  V30 6393 C 586.034 -1.74503 3.92234 0
M  V30 6394 C 585.267 -2.92748 4.46245 0
M  V30 6395 O 585.49 -4.07427 3.99198 0
M  V30 6396 O 584.424 -2.71303 5.37288 0
M  V30 6397 H 588.25 -0.398516 3.01074 0
M  V30 6398 H 585.835 -0.130707 1.48827 0
M  V30 6399 H 587.717 -2.84953 3.10451 0
M  V30 6400 H 586.392 -2.59407 1.93623 0
M  V30 6401 H 585.299 -0.989186 3.60785 0
M  V30 6402 H 586.632 -1.32044 4.74157 0
M  V30 6403 N 588.284 -1.56567 -0.180126 0
M  V30 6404 C 589.194 -1.98947 -1.24327 0
M  V30 6405 C 590.21 -0.899446 -1.4895 0
M  V30 6406 O 591.386 -1.20639 -1.61271 0
M  V30 6407 C 588.451 -2.33328 -2.56435 0
M  V30 6408 C 587.512 -3.56114 -2.39752 0
M  V30 6409 C 586.745 -3.88845 -3.65561 0
M  V30 6410 O 586.968 -3.22662 -4.70368 0
M  V30 6411 O 585.902 -4.82226 -3.60197 0
M  V30 6412 H 589.728 -2.89634 -0.913565 0
M  V30 6413 H 587.313 -1.44319 -0.386306 0
M  V30 6414 H 589.195 -2.5645 -3.34382 0
M  V30 6415 H 587.87 -1.45806 -2.89002 0
M  V30 6416 H 586.777 -3.38221 -1.59866 0
M  V30 6417 H 588.11 -4.4415 -2.12113 0
M  V30 6418 N 589.762 0.448376 -1.51087 0
M  V30 6419 C 590.725 1.52588 -1.71025 0
M  V30 6420 C 591.725 1.49958 -0.580442 0
M  V30 6421 O 592.915 1.52176 -0.847833 0
M  V30 6422 C 590.047 2.92163 -1.75652 0
M  V30 6423 H 591.24 1.36218 -2.67179 0
M  V30 6424 H 588.793 0.676313 -1.4091 0
M  V30 6425 H 589.528 3.13951 -0.812724 0
M  V30 6426 H 589.313 2.95478 -2.57751 0
M  V30 6427 H 590.803 3.70349 -1.92953 0
M  V30 6428 N 591.24 1.41047 0.703093 0
M  V30 6429 C 592.203 1.42036 1.79884 0
M  V30 6430 C 593.203 0.312153 1.57741 0
M  V30 6431 O 594.393 0.571672 1.64553 0
M  V30 6432 C 591.525 1.22437 3.18154 0
M  V30 6433 H 592.718 2.39572 1.80403 0
M  V30 6434 H 590.271 1.27079 0.909977 0
M  V30 6435 H 591.006 0.257112 3.23279 0
M  V30 6436 H 590.791 2.02723 3.35627 0
M  V30 6437 H 592.281 1.25946 3.98155 0
M  V30 6438 N 592.718 -0.936591 1.26751 0
M  V30 6439 C 593.967 -1.67778 1.11953 0
M  V30 6440 C 594.28 -1.92694 -0.33589 0
M  V30 6441 O 595.486 -2.64682 -0.604618 0
M  V30 6442 C 593.942 -3.02138 1.95551 0
M  V30 6443 C 593.55 -2.84953 3.45696 0
M  V30 6444 C 595.294 -3.79917 1.89377 0
M  V30 6445 C 593.201 -4.14814 4.21525 0
M  V30 6446 H 592.131 -0.629275 0.415366 0
M  V30 6447 H 594.782 -1.04122 1.51099 0
M  V30 6448 H 593.164 -3.668 1.49243 0
M  V30 6449 H 594.338 -2.29112 3.99805 0
M  V30 6450 H 592.653 -2.20612 3.53156 0
M  V30 6451 H 595.25 -4.76134 2.43312 0
M  V30 6452 H 595.593 -4.07204 0.865464 0
M  V30 6453 H 596.126 -3.22037 2.33532 0
M  V30 6454 H 592.865 -3.92709 5.24843 0
M  V30 6455 H 592.385 -4.70352 3.72195 0
M  V30 6456 H 594.064 -4.83239 4.3022 0
M  V30 6457 N 594.196 -1.08629 -1.14182 0
M  V30 6458 C 595.128 -0.676189 -2.18998 0
M  V30 6459 C 596.141 0.277871 -1.60411 0
M  V30 6460 O 597.33 0.0651771 -1.78381 0
M  V30 6461 C 594.43 0.0254916 -3.3889 0
M  V30 6462 C 593.603 -0.948039 -4.27002 0
M  V30 6463 C 592.662 -0.281268 -5.25448 0
M  V30 6464 O 591.688 -0.926378 -5.61611 0
M  V30 6465 N 592.89 0.967923 -5.72374 0
M  V30 6466 H 595.655 -1.57792 -2.54798 0
M  V30 6467 H 593.216 -0.972665 -1.29425 0
M  V30 6468 H 595.208 0.482554 -4.01813 0
M  V30 6469 H 593.778 0.829348 -3.01398 0
M  V30 6470 H 592.998 -1.58388 -3.6098 0
M  V30 6471 H 594.286 -1.60765 -4.82734 0
M  V30 6472 H 593.684 1.51175 -5.45126 0
M  V30 6473 H 592.241 1.36844 -6.37273 0
M  V30 6474 N 595.674 1.31259 -0.872281 0
M  V30 6475 C 596.923 1.95893 -0.480493 0
M  V30 6476 C 597.236 1.697 0.972688 0
M  V30 6477 O 598.442 2.28214 1.47073 0
M  V30 6478 C 596.898 3.50705 -0.808342 0
M  V30 6479 C 596.506 3.85735 -2.27844 0
M  V30 6480 C 598.25 4.21719 -0.485136 0
M  V30 6481 C 596.157 5.33668 -2.54858 0
M  V30 6482 H 595.087 0.733182 -0.175955 0
M  V30 6483 H 597.738 1.49396 -1.0655 0
M  V30 6484 H 596.12 3.95706 -0.152558 0
M  V30 6485 H 597.294 3.51686 -2.97748 0
M  V30 6486 H 595.609 3.27792 -2.56791 0
M  V30 6487 H 598.206 5.30559 -0.664166 0
M  V30 6488 H 598.549 4.12316 0.574592 0
M  V30 6489 H 599.082 3.82359 -1.09756 0
M  V30 6490 H 595.821 5.48109 -3.59523 0
M  V30 6491 H 595.341 5.69061 -1.8955 0
M  V30 6492 H 597.02 6.00958 -2.39706 0
M  V30 6493 N 597.152 0.631951 1.44375 0
M  V30 6494 C 598.382 0.143658 2.061 0
M  V30 6495 C 598.79 -1.18733 1.47306 0
M  V30 6496 O 598.133 -1.73943 0.590724 0
M  V30 6497 C 598.195 -0.0446102 3.59472 0
M  V30 6498 C 597.859 1.20835 4.40736 0
M  V30 6499 C 598.856 2.13224 4.74164 0
M  V30 6500 C 596.541 1.44399 4.81097 0
M  V30 6501 C 598.535 3.27487 5.46838 0
M  V30 6502 C 596.222 2.58959 5.53519 0
M  V30 6503 C 597.22 3.50329 5.86309 0
M  V30 6504 O 596.908 4.62891 6.57257 0
M  V30 6505 H 596.64 0.0772939 0.671567 0
M  V30 6506 H 599.194 0.866677 1.8622 0
M  V30 6507 H 597.424 -0.822783 3.77845 0
M  V30 6508 H 599.113 -0.487561 4.02961 0
M  V30 6509 H 599.879 1.96253 4.4352 0
M  V30 6510 H 595.758 0.741696 4.54994 0
M  V30 6511 H 599.302 3.98826 5.72349 0
M  V30 6512 H 595.199 2.75873 5.83579 0
M  V30 6513 H 595.967 4.61883 6.75726 0
M  V30 6514 N 598.631 -1.53133 0.372548 0
M  V30 6515 C 599.879 -2.00958 -0.214534 0
M  V30 6516 C 600.2 -1.26135 -1.48711 0
M  V30 6517 O 599.47 -0.376597 -1.92246 0
M  V30 6518 H 598.05 -0.742456 -0.0822664 0
M  V30 6519 H 600.712 -1.88367 0.500385 0
M  V30 6520 H 599.808 -3.09031 -0.436605 0
M  V30 6521 N 600.109 -0.101901 -1.5727 0
M  V30 6522 C 601.056 0.854577 -2.14396 0
M  V30 6523 C 602.026 1.27521 -1.06432 0
M  V30 6524 O 603.211 1.35575 -1.34253 0
M  V30 6525 C 600.351 2.10576 -2.73408 0
M  V30 6526 C 599.464 1.73504 -3.95626 0
M  V30 6527 C 598.599 2.9346 -4.42781 0
M  V30 6528 C 597.638 2.52547 -5.57572 0
M  V30 6529 N 596.775 3.65359 -5.99547 0
M  V30 6530 H 601.615 0.360578 -2.9581 0
M  V30 6531 H 599.152 0.166303 -1.46157 0
M  V30 6532 H 601.11 2.83859 -3.05745 0
M  V30 6533 H 599.74 2.57463 -1.94711 0
M  V30 6534 H 598.792 0.901622 -3.6956 0
M  V30 6535 H 600.104 1.39426 -4.78917 0
M  V30 6536 H 599.258 3.74988 -4.76937 0
M  V30 6537 H 597.997 3.30753 -3.58404 0
M  V30 6538 H 597.002 1.69446 -5.23037 0
M  V30 6539 H 598.227 2.1639 -6.43702 0
M  V30 6540 H 596.173 4.02358 -5.18116 0
M  V30 6541 H 596.09 3.35148 -6.77652 0
M  V30 6542 H 597.358 4.47378 -6.38336 0
M  V30 6543 N 601.587 1.56661 0.17182 0
M  V30 6544 C 602.497 1.99604 1.2327 0
M  V30 6545 C 603.513 0.907333 1.4847 0
M  V30 6546 O 604.689 1.21492 1.60629 0
M  V30 6547 C 601.754 2.34685 2.55194 0
M  V30 6548 C 600.815 3.57381 2.3786 0
M  V30 6549 C 600.048 3.90779 3.63494 0
M  V30 6550 O 600.271 3.25152 4.6865 0
M  V30 6551 O 599.205 4.84129 3.57634 0
M  V30 6552 H 603.031 2.90114 0.898192 0
M  V30 6553 H 600.616 1.44522 0.378647 0
M  V30 6554 H 602.498 2.5822 3.33017 0
M  V30 6555 H 601.173 1.47336 2.88225 0
M  V30 6556 H 600.08 3.39064 1.5807 0
M  V30 6557 H 601.413 4.45268 2.09754 0
M  V30 6558 N 603.065 -0.440357 1.51323 0
M  V30 6559 C 604.013 -1.55492 1.72988 0
M  V30 6560 C 605.007 -1.58564 0.596138 0
M  V30 6561 O 606.213 -1.62345 0.777443 0
M  V30 6562 H 602.588 -0.516532 0.546533 0
M  V30 6563 H 604.559 -1.34392 2.66423 0
M  V30 6564 C 603.308 -2.93176 1.86931 0
M  V30 6565 H 602.631 -2.91543 2.73574 0
M  V30 6566 H 604.071 -3.70537 2.06103 0
M  V30 6567 C 602.53 -3.30988 0.628365 0
M  V30 6568 O 603.06 -4.01106 -0.218367 0
M  V30 6569 N 601.266 -2.86719 0.473339 0
M  V30 6570 H 600.813 -2.2983 1.16345 0
M  V30 6571 H 600.771 -3.12381 -0.355727 0
M  V30 6572 N 604.543 -1.41418 -0.695603 0
M  V30 6573 C 605.789 -1.40982 -1.4578 0
M  V30 6574 C 606.122 -0.0187763 -1.94191 0
M  V30 6575 O 605.397 0.95346 -1.69527 0
M  V30 6576 C 605.68 -2.41657 -2.66972 0
M  V30 6577 C 605.533 -3.89869 -2.24327 0
M  V30 6578 C 606.852 -2.39589 -3.69168 0
M  V30 6579 H 603.971 -0.513405 -0.528757 0
M  V30 6580 H 606.613 -1.72693 -0.792275 0
M  V30 6581 H 604.763 -2.14746 -3.23754 0
M  V30 6582 H 606.435 -4.27683 -1.72872 0
M  V30 6583 H 604.678 -4.04737 -1.56111 0
M  V30 6584 H 605.349 -4.55857 -3.11285 0
M  V30 6585 H 607.825 -2.63471 -3.2206 0
M  V30 6586 H 606.701 -3.12044 -4.51575 0
M  V30 6587 H 606.962 -1.41447 -4.18862 0
M  V30 6588 N 606.021 0.929856 -1.27246 0
M  V30 6589 C 606.968 2.03017 -1.09785 0
M  V30 6590 C 607.938 1.661 0.000456744 0
M  V30 6591 O 609.123 1.90116 -0.161462 0
M  V30 6592 C 606.263 3.36878 -0.748816 0
M  V30 6593 C 605.376 3.86763 -1.92453 0
M  V30 6594 C 604.511 5.09061 -1.51758 0
M  V30 6595 C 603.55 5.51237 -2.66091 0
M  V30 6596 N 602.687 6.64732 -2.25999 0
M  V30 6597 H 607.527 2.17285 -2.03939 0
M  V30 6598 H 605.064 1.06448 -1.01524 0
M  V30 6599 H 607.022 4.13855 -0.527283 0
M  V30 6600 H 605.652 3.22424 0.155771 0
M  V30 6601 H 604.704 3.06086 -2.25867 0
M  V30 6602 H 606.016 4.13994 -2.78227 0
M  V30 6603 H 605.17 5.93532 -1.25716 0
M  V30 6604 H 603.909 4.83602 -0.630896 0
M  V30 6605 H 602.914 4.65316 -2.92849 0
M  V30 6606 H 604.139 5.78692 -3.55377 0
M  V30 6607 H 602.085 6.40935 -1.3978 0
M  V30 6608 H 602.002 6.91607 -3.05313 0
M  V30 6609 H 603.27 7.52549 -2.03199 0
M  V30 6610 N 607.499 1.09233 1.13605 0
M  V30 6611 C 608.748 0.82205 1.84188 0
M  V30 6612 C 609.061 -0.654548 1.84323 0
M  V30 6613 O 610.267 -1.04029 2.50779 0
M  V30 6614 C 608.723 1.42066 3.30674 0
M  V30 6615 C 608.331 2.92965 3.38933 0
M  V30 6616 C 610.075 1.22924 4.06313 0
M  V30 6617 C 607.982 3.45922 4.79679 0
M  V30 6618 H 606.912 0.303854 0.690064 0
M  V30 6619 H 609.563 1.31479 1.28006 0
M  V30 6620 H 607.945 0.855613 3.86646 0
M  V30 6621 H 609.119 3.55679 2.92966 0
M  V30 6622 H 607.434 3.11118 2.76757 0
M  V30 6623 H 610.031 1.59945 5.10217 0
M  V30 6624 H 610.374 0.169726 4.15954 0
M  V30 6625 H 610.907 1.76168 3.56665 0
M  V30 6626 H 607.646 4.51484 4.75229 0
M  V30 6627 H 607.166 2.87971 5.26149 0
M  V30 6628 H 608.845 3.43009 5.48592 0
M  V30 6629 N 608.977 -1.30795 0.87923 0
M  V30 6630 C 610.207 -2.00237 0.50881 0
M  V30 6631 C 610.615 -1.66115 -0.905682 0
M  V30 6632 O 609.958 -0.89138 -1.60624 0
M  V30 6633 C 610.02 -3.54508 0.597003 0
M  V30 6634 C 609.684 -4.12131 1.97477 0
M  V30 6635 C 610.681 -4.28552 2.94346 0
M  V30 6636 C 608.366 -4.47644 2.2786 0
M  V30 6637 C 610.36 -4.79689 4.19735 0
M  V30 6638 C 608.047 -4.98481 3.53496 0
M  V30 6639 C 609.045 -5.14456 4.49248 0
M  V30 6640 O 608.733 -5.64199 5.72656 0
M  V30 6641 H 608.465 -0.647026 0.195788 0
M  V30 6642 H 611.019 -1.67785 1.1848 0
M  V30 6643 H 609.249 -3.86461 -0.135945 0
M  V30 6644 H 610.938 -4.05198 0.238684 0
M  V30 6645 H 611.704 -4.01424 2.72183 0
M  V30 6646 H 607.583 -4.34481 1.54102 0
M  V30 6647 H 611.127 -4.92073 4.9448 0
M  V30 6648 H 607.024 -5.25044 3.75498 0
M  V30 6649 H 607.792 -5.82551 5.74957 0
M  V30 6650 N 610.455 -0.639598 -1.44038 0
M  V30 6651 C 611.365 0.0612377 -2.3452 0
M  V30 6652 C 612.381 0.826717 -1.53106 0
M  V30 6653 O 613.557 0.777059 -1.85806 0
M  V30 6654 C 610.622 1.02492 -3.31204 0
M  V30 6655 C 609.683 0.25788 -4.28525 0
M  V30 6656 C 608.916 1.17566 -5.2059 0
M  V30 6657 O 609.139 2.41461 -5.16771 0
M  V30 6658 O 608.073 0.655407 -5.98321 0
M  V30 6659 H 611.899 -0.68318 -2.95916 0
M  V30 6660 H 609.484 -0.399784 -1.43952 0
M  V30 6661 H 611.366 1.57911 -3.90694 0
M  V30 6662 H 610.041 1.7498 -2.7233 0
M  V30 6663 H 608.948 -0.339566 -3.72556 0
M  V30 6664 H 610.281 -0.427154 -4.90343 0
M  V30 6665 N 611.933 1.52934 -0.380664 0
M  V30 6666 C 613.158 2.06363 0.207157 0
M  V30 6667 C 613.583 1.25122 1.4045 0
M  V30 6668 O 612.941 0.274062 1.79217 0
M  V30 6669 C 612.989 3.56162 0.563996 0
M  V30 6670 O 612.093 3.77552 1.65917 0
M  V30 6671 H 611.434 0.663468 0.0265859 0
M  V30 6672 H 613.964 1.9719 -0.545635 0
M  V30 6673 H 613.974 3.99453 0.830752 0
M  V30 6674 H 612.649 4.14732 -0.311427 0
M  V30 6675 H 611.226 3.46154 1.3868 0
M  V30 6676 N 613.412 0.11024 1.57214 0
M  V30 6677 C 614.359 -0.843195 2.14846 0
M  V30 6678 C 615.329 -1.26954 1.07107 0
M  V30 6679 O 616.514 -1.34861 1.34971 0
M  V30 6680 C 613.654 -2.09123 2.74521 0
M  V30 6681 C 612.767 -1.71404 3.96541 0
M  V30 6682 C 611.902 -2.91107 4.44331 0
M  V30 6683 C 610.941 -2.49586 5.58903 0
M  V30 6684 N 610.078 -3.62175 6.01477 0
M  V30 6685 H 614.918 -0.344886 2.95998 0
M  V30 6686 H 612.455 -0.15855 1.46243 0
M  V30 6687 H 614.413 -2.82234 3.07246 0
M  V30 6688 H 613.043 -2.56427 1.96074 0
M  V30 6689 H 612.095 -0.88201 3.70033 0
M  V30 6690 H 613.407 -1.36884 4.7965 0
M  V30 6691 H 612.561 -3.72454 4.78919 0
M  V30 6692 H 611.3 -3.28848 3.60153 0
M  V30 6693 H 610.305 -1.6667 5.23929 0
M  V30 6694 H 611.53 -2.12973 6.4484 0
M  V30 6695 H 609.476 -3.99605 5.20242 0
M  V30 6696 H 609.393 -3.3155 6.79419 0
M  V30 6697 H 610.661 -4.43987 6.407 0
M  V30 6698 N 614.89 -1.56749 -0.16351 0
M  V30 6699 C 616.137 -1.82434 -0.878866 0
M  V30 6700 C 616.465 -0.688557 -1.81904 0
M  V30 6701 O 615.72 0.323644 -1.93005 0
M  V30 6702 C 616.019 -3.14342 -1.70071 0
M  V30 6703 C 615.685 -4.41647 -0.908775 0
M  V30 6704 C 614.347 -4.76224 -0.690236 0
M  V30 6705 C 616.699 -5.19998 -0.353815 0
M  V30 6706 C 614.027 -5.86624 0.0942374 0
M  V30 6707 C 616.379 -6.3122 0.41761 0
M  V30 6708 C 615.043 -6.64358 0.646879 0
M  V30 6709 H 614.313 -0.667574 -0.3216 0
M  V30 6710 H 616.96 -1.90963 -0.14337 0
M  V30 6711 H 615.265 -3.0119 -2.50583 0
M  V30 6712 H 616.962 -3.31426 -2.25738 0
M  V30 6713 H 613.552 -4.1453 -1.08916 0
M  V30 6714 H 617.736 -4.93673 -0.509975 0
M  V30 6715 H 612.992 -6.10751 0.281529 0
M  V30 6716 H 617.166 -6.91133 0.854849 0
M  V30 6717 H 614.793 -7.49742 1.25662 0
M  V30 6718 N 616.368 0.432326 -1.51554 0
M  V30 6719 C 617.596 1.20364 -1.68286 0
M  V30 6720 C 618.011 1.84888 -0.38233 0
M  V30 6721 O 617.368 1.70924 0.639627 0
M  V30 6722 C 617.419 2.28398 -2.80208 0
M  V30 6723 O 617.14 1.66512 -4.05223 0
M  V30 6724 C 618.641 3.18584 -3.08251 0
M  V30 6725 H 615.861 0.36259 -0.564596 0
M  V30 6726 H 618.405 0.511647 -1.97996 0
M  V30 6727 H 616.56 2.93305 -2.53083 0
M  V30 6728 H 616.974 2.37951 -4.67418 0
M  V30 6729 H 618.448 3.90511 -3.90135 0
M  V30 6730 H 618.925 3.79628 -2.2086 0
M  V30 6731 H 619.531 2.59372 -3.37055 0
M  V30 6732 N 617.846 1.41785 0.688094 0
M  V30 6733 C 618.794 1.44436 1.82321 0
M  V30 6734 C 619.788 0.321544 1.6632 0
M  V30 6735 O 620.994 0.493931 1.73091 0
M  V30 6736 H 617.369 0.452084 0.600936 0
M  V30 6737 H 619.34 2.40087 1.77202 0
M  V30 6738 C 618.089 1.35071 3.20392 0
M  V30 6739 H 617.412 2.2076 3.33324 0
M  V30 6740 H 618.852 1.40988 3.99873 0
M  V30 6741 C 617.311 0.0639127 3.36839 0
M  V30 6742 O 617.841 -0.888495 3.91751 0
M  V30 6743 N 616.047 -0.0146114 2.90596 0
M  V30 6744 H 615.594 0.761191 2.46097 0
M  V30 6745 H 615.552 -0.874988 3.01979 0
M  V30 6746 N 619.324 -0.923095 1.27737 0
M  V30 6747 C 620.254 -2.04124 1.13383 0
M  V30 6748 C 621.235 -1.70066 0.0340658 0
M  V30 6749 O 622.42 -1.93068 0.209383 0
M  V30 6750 C 619.55 -3.3831 0.785097 0
M  V30 6751 C 618.504 -3.86496 1.8386 0
M  V30 6752 C 617.83 -5.1754 1.34373 0
M  V30 6753 C 619.13 -4.09381 3.24353 0
M  V30 6754 H 620.824 -2.1639 2.06919 0
M  V30 6755 H 618.37 -1.03976 0.996243 0
M  V30 6756 H 620.323 -4.16016 0.671485 0
M  V30 6757 H 619.047 -3.2607 -0.185969 0
M  V30 6758 H 617.706 -3.10987 1.9412 0
M  V30 6759 H 617.354 -5.01696 0.361989 0
M  V30 6760 H 617.054 -5.50751 2.04811 0
M  V30 6761 H 618.578 -5.97811 1.24315 0
M  V30 6762 H 619.992 -4.77641 3.17067 0
M  V30 6763 H 618.389 -4.53906 3.92542 0
M  V30 6764 H 619.459 -3.14515 3.69064 0
M  V30 6765 N 620.802 -1.09834 -1.13024 0
M  V30 6766 C 622.049 -0.83695 -1.84395 0
M  V30 6767 C 622.377 0.637463 -1.83757 0
M  V30 6768 O 621.632 1.48554 -1.27398 0
M  V30 6769 C 621.931 -1.32263 -3.32026 0
M  V30 6770 C 621.597 -2.80739 -3.52841 0
M  V30 6771 C 620.259 -3.21286 -3.5823 0
M  V30 6772 C 622.611 -3.76449 -3.60466 0
M  V30 6773 C 619.939 -4.56308 -3.68781 0
M  V30 6774 C 622.291 -5.11266 -3.72546 0
M  V30 6775 C 620.955 -5.51397 -3.76189 0
M  V30 6776 H 620.225 -0.306262 -0.674748 0
M  V30 6777 H 622.872 -1.37385 -1.33408 0
M  V30 6778 H 621.177 -0.705618 -3.85394 0
M  V30 6779 H 622.874 -1.09695 -3.85705 0
M  V30 6780 H 619.464 -2.48363 -3.49305 0
M  V30 6781 H 623.648 -3.46234 -3.55578 0
M  V30 6782 H 618.904 -4.86832 -3.69871 0
M  V30 6783 H 623.078 -5.85279 -3.77388 0
M  V30 6784 H 620.705 -6.56017 -3.84117 0
M  V30 6785 N 622.28 1.30327 -0.886154 0
M  V30 6786 C 623.527 1.96097 -0.505192 0
M  V30 6787 C 623.855 1.69952 0.945868 0
M  V30 6788 O 623.11 0.997653 1.68361 0
M  V30 6789 C 623.409 3.49906 -0.728042 0
M  V30 6790 C 623.075 3.96103 -2.15437 0
M  V30 6791 C 621.737 4.08428 -2.5444 0
M  V30 6792 C 624.089 4.20177 -3.08384 0
M  V30 6793 C 621.417 4.42189 -3.85598 0
M  V30 6794 C 623.769 4.55407 -4.39075 0
M  V30 6795 C 622.433 4.65941 -4.7797 0
M  V30 6796 H 621.703 0.71757 -0.184863 0
M  V30 6797 H 624.35 1.55171 -1.12223 0
M  V30 6798 H 622.655 3.9179 -0.027978 0
M  V30 6799 H 624.352 3.98869 -0.412862 0
M  V30 6800 H 620.942 3.87017 -1.84162 0
M  V30 6801 H 625.126 4.10134 -2.7947 0
M  V30 6802 H 620.382 4.48544 -4.15473 0
M  V30 6803 H 624.556 4.72986 -5.11133 0
M  V30 6804 H 622.183 4.91856 -5.79639 0
M  V30 6805 N 623.758 0.647228 1.43697 0
M  V30 6806 C 624.983 0.164083 2.0675 0
M  V30 6807 C 625.408 -1.15892 1.48158 0
M  V30 6808 O 624.766 -1.71459 0.589194 0
M  V30 6809 C 624.814 0.0800368 3.60511 0
M  V30 6810 O 623.918 -0.959453 4.01084 0
M  V30 6811 H 623.259 0.0921288 0.657578 0
M  V30 6812 H 625.789 0.88846 1.84303 0
M  V30 6813 H 625.799 -0.105263 4.07864 0
M  V30 6814 H 624.474 1.04586 4.02535 0
M  V30 6815 H 623.051 -0.747425 3.65333 0
M  V30 6816 N 625.236 -1.5273 0.388769 0
M  V30 6817 C 626.482 -2.01871 -0.193877 0
M  V30 6818 C 626.815 -1.27475 -1.46505 0
M  V30 6819 O 626.09 -0.375063 -1.90849 0
M  V30 6820 C 626.373 -3.5712 -0.462336 0
M  V30 6821 C 626.226 -4.42186 0.824091 0
M  V30 6822 C 627.545 -4.21881 -1.25319 0
M  V30 6823 H 624.664 -0.733764 -0.0689899 0
M  V30 6824 H 627.306 -1.82796 0.518231 0
M  V30 6825 H 625.456 -3.73504 -1.06896 0
M  V30 6826 H 627.128 -4.37554 1.46096 0
M  V30 6827 H 625.371 -4.09219 1.43952 0
M  V30 6828 H 626.042 -5.48828 0.590905 0
M  V30 6829 H 628.518 -4.0947 -0.73981 0
M  V30 6830 H 627.394 -5.30487 -1.40977 0
M  V30 6831 H 627.655 -3.79478 -2.26824 0
M  V30 6832 N 626.714 -0.118576 -1.57153 0
M  V30 6833 C 627.944 0.546466 -1.99242 0
M  V30 6834 C 628.352 1.60791 -0.997148 0
M  V30 6835 O 627.695 1.83691 0.0181745 0
M  V30 6836 C 627.757 1.23167 -3.37743 0
M  V30 6837 C 627.421 0.318226 -4.55891 0
M  V30 6838 C 628.418 -0.442988 -5.18009 0
M  V30 6839 C 626.103 0.229421 -5.01776 0
M  V30 6840 C 628.097 -1.28074 -6.244 0
M  V30 6841 C 625.784 -0.611966 -6.08028 0
M  V30 6842 C 626.782 -1.36568 -6.69207 0
M  V30 6843 O 626.47 -2.1931 -7.73407 0
M  V30 6844 H 626.202 0.149297 -0.659307 0
M  V30 6845 H 628.756 -0.201603 -2.04408 0
M  V30 6846 H 626.986 2.0268 -3.29329 0
M  V30 6847 H 628.675 1.79358 -3.64123 0
M  V30 6848 H 629.441 -0.38425 -4.83475 0
M  V30 6849 H 625.32 0.805771 -4.53903 0
M  V30 6850 H 628.864 -1.86952 -6.72082 0
M  V30 6851 H 624.761 -0.6721 -6.41991 0
M  V30 6852 H 625.529 -2.12247 -7.90502 0
M  V30 6853 N 628.193 1.56834 0.155195 0
M  V30 6854 C 629.47 1.73799 0.897395 0
M  V30 6855 C 629.85 0.684379 1.99698 0
M  V30 6856 O 629.198 -0.298111 2.26547 0
M  V30 6857 C 629.408 3.17572 1.44737 0
M  V30 6858 C 630.756 3.79014 1.91399 0
M  V30 6859 O 631.78 3.20951 1.54496 0
M  V30 6860 O 630.639 4.80998 2.59429 0
M  V30 6861 H 627.733 0.710329 0.423511 0
M  V30 6862 H 630.279 1.69107 0.141761 0
M  V30 6863 H 629.051 3.85749 0.656741 0
M  V30 6864 H 628.674 3.26657 2.26674 0
M  V30 6865 N 629.671 -0.424282 1.51781 0
M  V30 6866 C 630.92 -1.16961 1.64326 0
M  V30 6867 C 631.233 -1.92035 0.371749 0
M  V30 6868 O 632.439 -2.68873 0.37676 0
M  V30 6869 C 630.895 -2.12782 2.90262 0
M  V30 6870 C 630.503 -1.43295 4.24465 0
M  V30 6871 C 632.247 -2.87667 3.12166 0
M  V30 6872 C 630.154 -2.37676 5.41538 0
M  V30 6873 H 629.084 -0.440293 0.612093 0
M  V30 6874 H 631.735 -0.435431 1.78259 0
M  V30 6875 H 630.117 -2.8969 2.69992 0
M  V30 6876 H 631.291 -0.718564 4.55163 0
M  V30 6877 H 629.606 -0.805118 4.08542 0
M  V30 6878 H 632.203 -3.58395 3.96808 0
M  V30 6879 H 632.546 -3.49758 2.25776 0
M  V30 6880 H 633.079 -2.17863 3.32837 0
M  V30 6881 H 629.818 -1.80255 6.30229 0
M  V30 6882 H 629.338 -3.07132 5.15199 0
M  V30 6883 H 631.017 -2.98529 5.74012 0
M  V30 6884 N 631.149 -1.42148 -0.680565 0
M  V30 6885 C 632.059 -1.47565 -1.82378 0
M  V30 6886 C 633.075 -0.36489 -1.70131 0
M  V30 6887 O 634.251 -0.614916 -1.91783 0
M  V30 6888 C 631.316 -1.37013 -3.18478 0
M  V30 6889 C 630.377 -2.58532 -3.42724 0
M  V30 6890 C 629.61 -2.48473 -4.72331 0
M  V30 6891 O 629.833 -1.51745 -5.49845 0
M  V30 6892 O 628.767 -3.38503 -4.97694 0
M  V30 6893 H 632.593 -2.44045 -1.80764 0
M  V30 6894 H 630.178 -1.23849 -0.835569 0
M  V30 6895 H 632.06 -1.33468 -3.99705 0
M  V30 6896 H 630.735 -0.436552 -3.20743 0
M  V30 6897 H 629.642 -2.67652 -2.61368 0
M  V30 6898 H 630.975 -3.50769 -3.45286 0
M  V30 6899 N 632.627 0.916307 -1.28225 0
M  V30 6900 C 634.038 1.48024 -1.13779 0
M  V30 6901 C 634.389 1.94289 0.273139 0
M  V30 6902 O 633.514 1.82226 1.16716 0
M  V30 6903 C 634.109 2.69029 -2.05935 0
M  V30 6904 C 632.668 3.2161 -1.95561 0
M  V30 6905 C 631.815 1.94321 -1.97825 0
M  V30 6906 H 634.766 0.729272 -1.40951 0
M  V30 6907 H 634.787 3.44204 -1.62184 0
M  V30 6908 H 634.299 2.35325 -3.08616 0
M  V30 6909 H 632.4 3.60045 -0.959076 0
M  V30 6910 H 632.513 3.87032 -2.82388 0
M  V30 6911 H 630.877 2.1131 -1.42198 0
M  V30 6912 H 631.66 1.62917 -3.0218 0
M  V30 6913 N 634.105 1.10431 1.1244 0
M  V30 6914 C 635.015 0.765502 2.21759 0
M  V30 6915 C 636.031 -0.236966 1.72379 0
M  V30 6916 O 637.207 -0.0757329 2.01258 0
M  V30 6917 C 634.272 0.202316 3.46109 0
M  V30 6918 C 633.333 1.26205 4.1033 0
M  V30 6919 C 632.566 0.725648 5.28744 0
M  V30 6920 O 632.789 -0.447942 5.68638 0
M  V30 6921 O 631.723 1.48555 5.83279 0
M  V30 6922 H 635.549 1.67801 2.53133 0
M  V30 6923 H 633.134 0.879443 1.20773 0
M  V30 6924 H 635.016 -0.107918 4.21262 0
M  V30 6925 H 633.691 -0.683052 3.16411 0
M  V30 6926 H 632.598 1.62514 3.36957 0
M  V30 6927 H 633.931 2.12044 4.44183 0
M  V30 6928 N 635.583 -1.29855 0.893053 0
M  V30 6929 C 636.513 -2.3035 0.382249 0
M  V30 6930 C 637.494 -1.61328 -0.539203 0
M  V30 6931 O 638.679 -1.88882 -0.451342 0
M  V30 6932 C 635.809 -3.45024 -0.396983 0
M  V30 6933 C 634.763 -4.258 0.433437 0
M  V30 6934 C 634.089 -5.32605 -0.472889 0
M  V30 6935 C 635.389 -4.94549 1.67984 0
M  V30 6936 H 637.083 -2.73325 1.22205 0
M  V30 6937 H 634.629 -1.314 0.589073 0
M  V30 6938 H 636.582 -4.14398 -0.765024 0
M  V30 6939 H 635.306 -3.00875 -1.2705 0
M  V30 6940 H 633.965 -3.58125 0.783723 0
M  V30 6941 H 633.613 -4.84702 -1.34435 0
M  V30 6942 H 633.313 -5.87547 0.0789958 0
M  V30 6943 H 634.837 -6.04832 -0.837269 0
M  V30 6944 H 636.251 -5.56395 1.38192 0
M  V30 6945 H 634.648 -5.59393 2.17254 0
M  V30 6946 H 635.718 -4.20215 2.41965 0
M  V30 6947 N 637.061 -0.65484 -1.43351 0
M  V30 6948 C 638.008 0.0357713 -2.30772 0
M  V30 6949 C 638.978 0.813035 -1.44841 0
M  V30 6950 O 640.163 0.789314 -1.73708 0
M  V30 6951 C 637.303 0.995084 -3.30442 0
M  V30 6952 C 636.416 0.21375 -4.31471 0
M  V30 6953 C 635.551 1.16701 -5.18222 0
M  V30 6954 C 634.59 0.376201 -6.10943 0
M  V30 6955 N 633.727 1.28113 -6.90313 0
M  V30 6956 H 638.567 -0.71559 -2.89281 0
M  V30 6957 H 636.104 -0.364645 -1.42509 0
M  V30 6958 H 638.062 1.5649 -3.86739 0
M  V30 6959 H 636.692 1.7133 -2.7358 0
M  V30 6960 H 635.744 -0.472377 -3.77456 0
M  V30 6961 H 637.056 -0.401103 -4.97185 0
M  V30 6962 H 636.21 1.8074 -5.79153 0
M  V30 6963 H 634.949 1.81577 -4.52638 0
M  V30 6964 H 633.954 -0.277534 -5.49099 0
M  V30 6965 H 635.179 -0.268178 -6.7857 0
M  V30 6966 H 633.125 1.91666 -6.27376 0
M  V30 6967 H 633.042 0.720879 -7.52555 0
M  V30 6968 H 634.31 1.90962 -7.55747 0
M  V30 6969 N 638.539 1.52521 -0.396863 0
M  V30 6970 C 639.449 2.30403 0.44178 0
M  V30 6971 C 640.465 1.37625 1.06468 0
M  V30 6972 O 641.641 1.70697 1.06886 0
M  V30 6973 C 638.706 3.1013 1.54986 0
M  V30 6974 C 637.767 4.18628 0.951279 0
M  V30 6975 C 637 4.94543 2.00655 0
M  V30 6976 O 637.223 4.70629 3.22281 0
M  V30 6977 O 636.157 5.797 1.61962 0
M  V30 6978 H 639.983 3.03087 -0.192892 0
M  V30 6979 H 637.568 1.48537 -0.16038 0
M  V30 6980 H 639.45 3.59816 2.19341 0
M  V30 6981 H 638.125 2.40251 2.16935 0
M  V30 6982 H 637.032 3.73119 0.270773 0
M  V30 6983 H 638.365 4.90763 0.375887 0
M  V30 6984 N 640.017 0.126909 1.57088 0
M  V30 6985 C 640.964 -0.82036 2.15728 0
M  V30 6986 C 641.934 -1.25811 1.08447 0
M  V30 6987 O 643.119 -1.33422 1.36393 0
M  V30 6988 C 640.259 -2.06199 2.76724 0
M  V30 6989 C 639.372 -1.67188 3.98337 0
M  V30 6990 C 638.507 -2.86378 4.47393 0
M  V30 6991 C 637.546 -2.43644 5.61519 0
M  V30 6992 N 636.683 -3.55775 6.05284 0
M  V30 6993 H 641.523 -0.313472 2.96347 0
M  V30 6994 H 639.06 -0.14303 1.46403 0
M  V30 6995 H 641.018 -2.78959 3.10222 0
M  V30 6996 H 639.648 -2.54333 1.98782 0
M  V30 6997 H 638.7 -0.842714 3.70948 0
M  V30 6998 H 640.012 -1.31789 4.81075 0
M  V30 6999 H 639.166 -3.67353 4.82842 0
M  V30 7000 H 637.905 -3.25009 3.63621 0
M  V30 7001 H 636.91 -1.61104 5.25667 0
M  V30 7002 H 638.135 -2.06122 6.47063 0
M  V30 7003 H 636.081 -3.94065 5.24451 0
M  V30 7004 H 635.998 -3.24325 6.82898 0
M  V30 7005 H 637.266 -4.37166 6.45373 0
M  V30 7006 N 641.495 -1.56914 -0.146875 0
M  V30 7007 C 642.723 -1.87515 -0.874394 0
M  V30 7008 C 643.138 -0.715116 -1.74733 0
M  V30 7009 O 642.495 0.315113 -1.79759 0
M  V30 7010 C 642.546 -3.17362 -1.731 0
M  V30 7011 O 642.267 -4.28897 -0.893245 0
M  V30 7012 C 643.768 -3.61479 -2.56609 0
M  V30 7013 H 640.988 -0.621546 -0.252827 0
M  V30 7014 H 643.532 -2.04023 -0.139627 0
M  V30 7015 H 641.687 -3.02608 -2.41883 0
M  V30 7016 H 642.101 -5.03146 -1.48137 0
M  V30 7017 H 643.575 -4.5517 -3.12289 0
M  V30 7018 H 644.052 -2.86773 -3.32653 0
M  V30 7019 H 644.658 -3.78927 -1.93117 0
M  V30 7020 N 642.974 0.416227 -1.52004 0
M  V30 7021 C 644.204 1.18401 -1.69307 0
M  V30 7022 C 644.612 1.84943 -0.399072 0
M  V30 7023 O 643.955 1.72406 0.634177 0
M  V30 7024 C 644.017 2.29465 -2.76742 0
M  V30 7025 C 643.681 1.83117 -4.18709 0
M  V30 7026 C 644.678 1.32286 -5.02789 0
M  V30 7027 C 642.363 1.90167 -4.64911 0
M  V30 7028 C 644.357 0.891178 -6.31139 0
M  V30 7029 C 642.044 1.4661 -5.93253 0
M  V30 7030 C 643.042 0.961696 -6.76196 0
M  V30 7031 O 642.73 0.532388 -8.02135 0
M  V30 7032 H 642.462 0.362098 -0.570843 0
M  V30 7033 H 645.016 0.496764 -1.99302 0
M  V30 7034 H 643.246 3.01531 -2.42107 0
M  V30 7035 H 644.935 2.91252 -2.82713 0
M  V30 7036 H 645.701 1.26218 -4.68288 0
M  V30 7037 H 641.58 2.28371 -4.00459 0
M  V30 7038 H 645.124 0.496788 -6.95829 0
M  V30 7039 H 641.021 1.52355 -6.27263 0
M  V30 7040 H 641.789 0.656339 -8.15864 0
M  V30 7041 N 644.452 1.42507 0.673017 0
M  V30 7042 C 645.382 1.48916 1.79851 0
M  V30 7043 C 646.363 0.345566 1.66553 0
M  V30 7044 O 647.548 0.560116 1.85947 0
M  V30 7045 C 644.678 1.39258 3.18158 0
M  V30 7046 C 643.632 2.51662 3.46194 0
M  V30 7047 C 642.958 2.27062 4.84094 0
M  V30 7048 C 644.258 3.93968 3.42909 0
M  V30 7049 H 645.952 2.43114 1.74745 0
M  V30 7050 H 643.498 1.17013 0.839288 0
M  V30 7051 H 645.451 1.42349 3.96629 0
M  V30 7052 H 644.175 0.415542 3.23946 0
M  V30 7053 H 642.834 2.47891 2.70084 0
M  V30 7054 H 642.482 1.27648 4.86534 0
M  V30 7055 H 642.182 3.02398 5.03815 0
M  V30 7056 H 643.706 2.31905 5.64847 0
M  V30 7057 H 645.12 3.99332 4.11347 0
M  V30 7058 H 643.517 4.6917 3.74165 0
M  V30 7059 H 644.587 4.20512 2.41449 0
M  V30 7060 N 645.93 -0.909495 1.28709 0
M  V30 7061 C 646.877 -2.01245 1.13 0
M  V30 7062 C 647.847 -1.6608 0.0259684 0
M  V30 7063 O 649.032 -1.89835 0.191687 0
M  V30 7064 C 646.172 -3.35644 0.802315 0
M  V30 7065 C 645.285 -3.83653 1.98582 0
M  V30 7066 C 644.42 -5.06582 1.59837 0
M  V30 7067 C 643.459 -5.46934 2.74827 0
M  V30 7068 N 642.596 -6.61053 2.36546 0
M  V30 7069 H 647.436 -2.14013 2.0737 0
M  V30 7070 H 644.973 -1.0482 1.03205 0
M  V30 7071 H 646.931 -4.12963 0.593057 0
M  V30 7072 H 645.561 -3.22631 -0.104457 0
M  V30 7073 H 644.613 -3.02454 2.30708 0
M  V30 7074 H 645.925 -4.09515 2.84779 0
M  V30 7075 H 645.079 -5.91457 1.35143 0
M  V30 7076 H 643.818 -4.82537 0.707753 0
M  V30 7077 H 642.823 -4.60599 3.00215 0
M  V30 7078 H 644.048 -5.72965 3.64538 0
M  V30 7079 H 641.994 -6.3863 1.49959 0
M  V30 7080 H 641.911 -6.86662 3.16277 0
M  V30 7081 H 643.179 -7.49221 2.15146 0
M  V30 7082 N 647.408 -1.11026 -1.11852 0
M  V30 7083 C 648.338 -0.786812 -2.19844 0
M  V30 7084 C 649.319 0.242935 -1.68356 0
M  V30 7085 O 650.504 0.107355 -1.93903 0
M  V30 7086 C 647.634 -0.224516 -3.46574 0
M  V30 7087 C 646.588 -1.18564 -4.1125 0
M  V30 7088 C 645.914 -0.484261 -5.32503 0
M  V30 7089 C 647.214 -2.53465 -4.56676 0
M  V30 7090 H 648.908 -1.68978 -2.47158 0
M  V30 7091 H 646.454 -0.813906 -1.18792 0
M  V30 7092 H 648.407 0.0139435 -4.21398 0
M  V30 7093 H 647.131 0.713722 -3.18706 0
M  V30 7094 H 645.79 -1.40966 -3.38414 0
M  V30 7095 H 645.438 0.458646 -5.00905 0
M  V30 7096 H 645.138 -1.12526 -5.76725 0
M  V30 7097 H 646.662 -0.254492 -6.10069 0
M  V30 7098 H 648.076 -2.35177 -5.22843 0
M  V30 7099 H 646.473 -3.13507 -5.11697 0
M  V30 7100 H 647.543 -3.13008 -3.70343 0
M  V30 7101 N 648.886 1.2938 -0.899927 0
M  V30 7102 C 650.132 1.9584 -0.526742 0
M  V30 7103 C 650.465 1.70774 0.924651 0
M  V30 7104 O 649.74 1.02084 1.65557 0
M  V30 7105 C 650.023 3.50638 -0.820062 0
M  V30 7106 C 649.876 3.85161 -2.32317 0
M  V30 7107 C 651.195 4.3903 -0.30671 0
M  V30 7108 H 648.314 0.711322 -0.192848 0
M  V30 7109 H 650.956 1.52992 -1.12665 0
M  V30 7110 H 649.106 3.87265 -0.309491 0
M  V30 7111 H 650.778 3.58477 -2.9033 0
M  V30 7112 H 649.021 3.32696 -2.78381 0
M  V30 7113 H 649.692 4.93204 -2.47898 0
M  V30 7114 H 652.168 4.09396 -0.743908 0
M  V30 7115 H 651.044 5.46226 -0.541144 0
M  V30 7116 H 651.305 4.34937 0.792588 0
M  V30 7117 N 650.364 0.662433 1.43002 0
M  V30 7118 C 651.604 0.183312 2.03576 0
M  V30 7119 C 651.968 -1.18354 1.51183 0
M  V30 7120 O 653.169 -1.7566 2.03462 0
M  V30 7121 C 651.44 0.202908 3.56824 0
M  V30 7122 S 652.999 -0.20702 4.38311 0
M  V30 7123 H 649.817 0.0765001 0.706872 0
M  V30 7124 H 652.419 0.872827 1.74934 0
M  V30 7125 H 651.123 1.20028 3.92456 0
M  V30 7126 H 650.654 -0.506845 3.90121 0
M  V30 7127 H 652.669 -1.44358 4.74737 0
M  V30 7128 N 651.842 -1.52309 0.404946 0
M  V30 7129 C 653.088 -2.02065 -0.172455 0
M  V30 7130 C 653.421 -1.29022 -1.45145 0
M  V30 7131 O 652.696 -0.395284 -1.90441 0
M  V30 7132 C 652.979 -3.5759 -0.424433 0
M  V30 7133 C 652.832 -4.41287 0.870945 0
M  V30 7134 C 654.151 -4.23186 -1.20837 0
M  V30 7135 H 651.27 -0.734454 -0.0612035 0
M  V30 7136 H 653.912 -1.82236 0.53759 0
M  V30 7137 H 652.062 -3.74617 -1.02929 0
M  V30 7138 H 653.734 -4.3598 1.50729 0
M  V30 7139 H 651.977 -4.07669 1.48284 0
M  V30 7140 H 652.648 -5.48171 0.649083 0
M  V30 7141 H 655.124 -4.10232 -0.696338 0
M  V30 7142 H 654 -5.31953 -1.35343 0
M  V30 7143 H 654.261 -3.81862 -2.22786 0
M  V30 7144 N 653.32 -0.135238 -1.57019 0
M  V30 7145 C 654.568 0.51777 -1.95355 0
M  V30 7146 C 654.889 1.6617 -1.02042 0
M  V30 7147 O 654.159 1.95738 -0.0797343 0
M  V30 7148 H 652.739 0.194264 -0.721298 0
M  V30 7149 H 655.401 -0.207983 -1.93787 0
M  V30 7150 H 654.497 0.901675 -2.98791 0
M  V30 7151 N 654.798 1.5699 0.138552 0
M  V30 7152 C 655.745 1.98899 1.17081 0
M  V30 7153 C 656.715 0.857922 1.42228 0
M  V30 7154 O 657.9 1.12065 1.54422 0
M  V30 7155 C 655.04 2.38189 2.4972 0
M  V30 7156 C 654.153 3.64624 2.31674 0
M  V30 7157 C 653.288 3.9298 3.57407 0
M  V30 7158 C 652.327 5.1266 3.34435 0
M  V30 7159 N 651.464 5.36983 4.5232 0
M  V30 7160 H 656.304 2.86881 0.80642 0
M  V30 7161 H 653.841 1.41925 0.386727 0
M  V30 7162 H 655.799 2.59 3.2707 0
M  V30 7163 H 654.429 1.53275 2.84089 0
M  V30 7164 H 653.481 3.51542 1.45337 0
M  V30 7165 H 654.793 4.52131 2.10664 0
M  V30 7166 H 653.947 4.14335 4.43183 0
M  V30 7167 H 652.686 3.03912 3.8143 0
M  V30 7168 H 651.691 4.9117 2.47048 0
M  V30 7169 H 652.916 6.03288 3.11802 0
M  V30 7170 H 650.862 4.50871 4.76499 0
M  V30 7171 H 650.779 6.18775 4.34343 0
M  V30 7172 H 652.047 5.62842 5.39285 0
M  V30 7173 N 656.276 -0.40816 1.52223 0
M  V30 7174 C 657.553 -1.16807 1.56893 0
M  V30 7175 C 657.933 -2.08169 0.350537 0
M  V30 7176 O 657.281 -2.18684 -0.662536 0
M  V30 7177 C 657.491 -1.94451 2.8981 0
M  V30 7178 C 658.839 -2.50484 3.42845 0
M  V30 7179 O 659.863 -2.0463 2.91556 0
M  V30 7180 O 658.722 -3.34192 4.3241 0
M  V30 7181 H 655.816 -0.533382 0.632007 0
M  V30 7182 H 658.362 -0.414862 1.64551 0
M  V30 7183 H 657.134 -1.27527 3.69936 0
M  V30 7184 H 656.757 -2.76775 2.85449 0
M  V30 7185 N 657.755 -1.42862 -0.66545 0
M  V30 7186 C 658.665 -1.49491 -1.80803 0
M  V30 7187 C 659.681 -0.382914 -1.69734 0
M  V30 7188 O 660.857 -0.635223 -1.9112 0
M  V30 7189 C 657.922 -1.40383 -3.17007 0
M  V30 7190 C 656.983 -2.62152 -3.39963 0
M  V30 7191 C 656.216 -2.53469 -4.69669 0
M  V30 7192 O 656.439 -1.57568 -5.48205 0
M  V30 7193 O 655.373 -3.43763 -4.94075 0
M  V30 7194 H 659.199 -2.45949 -1.78165 0
M  V30 7195 H 656.784 -1.24728 -0.822387 0
M  V30 7196 H 658.666 -1.377 -3.98267 0
M  V30 7197 H 657.341 -0.470546 -3.20262 0
M  V30 7198 H 656.248 -2.70409 -2.58515 0
M  V30 7199 H 657.581 -3.54411 -3.41546 0
M  V30 7200 N 659.233 0.902656 -1.29189 0
M  V30 7201 C 660.163 2.02294 -1.16616 0
M  V30 7202 C 661.144 1.6999 -0.0611175 0
M  V30 7203 O 662.329 1.9271 -0.240072 0
M  V30 7204 C 659.459 3.37018 -0.83882 0
M  V30 7205 C 658.413 3.83522 -1.89986 0
M  V30 7206 C 657.739 5.15337 -1.42589 0
M  V30 7207 C 659.039 4.04169 -3.30824 0
M  V30 7208 H 660.733 2.13071 -2.10336 0
M  V30 7209 H 658.279 1.02378 -1.01266 0
M  V30 7210 H 660.232 4.14895 -0.737584 0
M  V30 7211 H 658.956 3.26325 0.134071 0
M  V30 7212 H 657.615 3.07859 -1.99043 0
M  V30 7213 H 657.263 5.01056 -0.441759 0
M  V30 7214 H 656.963 5.47423 -2.13547 0
M  V30 7215 H 658.487 5.95758 -1.3381 0
M  V30 7216 H 659.901 4.72537 -3.24626 0
M  V30 7217 H 658.298 4.47604 -3.99713 0
M  V30 7218 H 659.368 3.08604 -3.74021 0
M  V30 7219 N 660.711 1.11618 1.11262 0
M  V30 7220 C 661.96 0.860934 1.82403 0
M  V30 7221 C 662.273 -0.615303 1.8567 0
M  V30 7222 O 663.479 -0.986861 2.52929 0
M  V30 7223 C 661.935 1.49048 3.27586 0
M  V30 7224 C 661.543 3.00089 3.32642 0
M  V30 7225 C 663.287 1.31515 4.03614 0
M  V30 7226 C 661.194 3.56019 4.72234 0
M  V30 7227 H 660.124 0.318423 0.683464 0
M  V30 7228 H 662.775 1.34165 1.25188 0
M  V30 7229 H 661.157 0.937434 3.84744 0
M  V30 7230 H 662.331 3.61813 2.85356 0
M  V30 7231 H 660.646 3.16919 2.70096 0
M  V30 7232 H 663.243 1.70732 5.0671 0
M  V30 7233 H 663.586 0.257917 4.155 0
M  V30 7234 H 664.119 1.83694 3.52848 0
M  V30 7235 H 660.858 4.61463 4.65545 0
M  V30 7236 H 660.378 2.99066 5.19923 0
M  V30 7237 H 662.057 3.54568 5.41193 0
M  V30 7238 N 662.189 -1.289 0.906776 0
M  V30 7239 C 663.136 -2.2751 0.388313 0
M  V30 7240 C 664.106 -1.57301 -0.533439 0
M  V30 7241 O 665.291 -1.85243 -0.457148 0
M  V30 7242 C 662.431 -3.43091 -0.37181 0
M  V30 7243 C 661.544 -4.28066 0.581647 0
M  V30 7244 C 660.679 -5.30837 -0.19623 0
M  V30 7245 C 659.718 -6.07472 0.751294 0
M  V30 7246 N 658.855 -7.021 0.00737727 0
M  V30 7247 H 663.695 -2.71237 1.23428 0
M  V30 7248 H 661.232 -1.33397 0.619962 0
M  V30 7249 H 663.19 -4.08888 -0.828641 0
M  V30 7250 H 661.82 -3.00374 -1.18218 0
M  V30 7251 H 660.872 -3.62378 1.157 0
M  V30 7252 H 662.184 -4.81382 1.30665 0
M  V30 7253 H 661.338 -6.02485 -0.71394 0
M  V30 7254 H 660.077 -4.78272 -0.954324 0
M  V30 7255 H 659.082 -5.34682 1.28044 0
M  V30 7256 H 660.307 -6.62126 1.50883 0
M  V30 7257 H 658.253 -6.51894 -0.732854 0
M  V30 7258 H 658.17 -7.53004 0.672334 0
M  V30 7259 H 659.438 -7.77956 -0.490365 0
M  V30 7260 N 663.667 -0.670007 -1.42649 0
M  V30 7261 C 664.915 -0.18991 -2.01206 0
M  V30 7262 C 665.236 1.20617 -1.53221 0
M  V30 7263 O 664.506 1.80898 -0.751856 0
M  V30 7264 H 663.086 -0.0672189 -0.743969 0
M  V30 7265 H 665.748 -0.865442 -1.74631 0
M  V30 7266 H 664.844 -0.187481 -3.11536 0
M  V30 7267 N 665.145 1.52092 -0.413018 0
M  V30 7268 C 666.075 2.30021 0.401567 0
M  V30 7269 C 667.056 1.34395 1.04269 0
M  V30 7270 O 668.241 1.63304 1.05097 0
M  V30 7271 C 665.371 3.12447 1.51638 0
M  V30 7272 C 664.325 4.16153 1.00005 0
M  V30 7273 C 663.651 4.86948 2.20875 0
M  V30 7274 C 664.951 5.22275 0.0513757 0
M  V30 7275 H 666.645 2.98365 -0.248704 0
M  V30 7276 H 664.191 1.4349 -0.121052 0
M  V30 7277 H 666.144 3.65733 2.09326 0
M  V30 7278 H 664.868 2.41879 2.19458 0
M  V30 7279 H 663.527 3.63882 0.445549 0
M  V30 7280 H 663.175 4.12905 2.8726 0
M  V30 7281 H 662.875 5.57057 1.86978 0
M  V30 7282 H 664.399 5.43048 2.79162 0
M  V30 7283 H 665.813 5.70778 0.537176 0
M  V30 7284 H 664.21 5.9977 -0.198977 0
M  V30 7285 H 665.28 4.76611 -0.892736 0
M  V30 7286 N 666.623 0.143563 1.56945 0
M  V30 7287 C 667.573 -0.809115 2.1316 0
M  V30 7288 C 668.557 -1.21176 1.05855 0
M  V30 7289 O 669.749 -1.17875 1.3204 0
M  V30 7290 C 666.878 -2.04957 2.75405 0
M  V30 7291 C 665.964 -1.67018 3.89828 0
M  V30 7292 N 666.355 -0.998822 4.9584 0
M  V30 7293 C 664.653 -1.96313 4.00471 0
M  V30 7294 C 665.354 -0.816217 5.75945 0
M  V30 7295 N 664.33 -1.349 5.26596 0
M  V30 7296 H 668.132 -0.286919 2.92496 0
M  V30 7297 H 665.646 -0.0580948 1.62296 0
M  V30 7298 H 667.643 -2.74201 3.14037 0
M  V30 7299 H 666.303 -2.57697 1.97541 0
M  V30 7300 H 667.314 -0.659975 5.13678 0
M  V30 7301 H 663.991 -2.50927 3.33679 0
M  V30 7302 H 665.381 -0.287353 6.71285 0
M  V30 7303 N 668.101 -1.57061 -0.130224 0
M  V30 7304 C 669.35 -1.83446 -0.838488 0
M  V30 7305 C 669.663 -0.727468 -1.81569 0
M  V30 7306 O 670.869 -0.877394 -2.56932 0
M  V30 7307 C 669.325 -3.25201 -1.54182 0
M  V30 7308 C 668.933 -4.4388 -0.606178 0
M  V30 7309 C 670.677 -3.60844 -2.23588 0
M  V30 7310 C 668.584 -5.76661 -1.31209 0
M  V30 7311 H 667.514 -0.684185 -0.316871 0
M  V30 7312 H 670.165 -1.83273 -0.0912059 0
M  V30 7313 H 668.547 -3.1981 -2.33533 0
M  V30 7314 H 669.721 -4.60545 0.153308 0
M  V30 7315 H 668.036 -4.16395 -0.0196705 0
M  V30 7316 H 670.633 -4.57313 -2.77072 0
M  V30 7317 H 670.976 -2.87724 -3.00867 0
M  V30 7318 H 671.509 -3.67971 -1.51137 0
M  V30 7319 H 668.248 -6.52922 -0.580823 0
M  V30 7320 H 667.768 -5.63902 -2.04387 0
M  V30 7321 H 669.447 -6.20035 -1.8484 0
M  V30 7322 N 669.579 0.400081 -1.52437 0
M  V30 7323 C 670.828 1.14332 -1.66166 0
M  V30 7324 C 671.141 1.91419 -0.402253 0
M  V30 7325 O 672.347 2.6824 -0.419487 0
M  V30 7326 C 670.803 2.08137 -2.9361 0
M  V30 7327 C 670.411 1.36524 -4.26691 0
M  V30 7328 C 672.155 2.82664 -3.16703 0
M  V30 7329 C 670.062 2.29031 -5.45251 0
M  V30 7330 H 668.992 0.430499 -0.61902 0
M  V30 7331 H 671.643 0.407017 -1.78929 0
M  V30 7332 H 670.025 2.85358 -2.74567 0
M  V30 7333 H 671.199 0.646061 -4.56249 0
M  V30 7334 H 669.514 0.74002 -4.09771 0
M  V30 7335 H 672.111 3.52037 -4.0246 0
M  V30 7336 H 672.454 3.46122 -2.31312 0
M  V30 7337 H 672.987 2.12541 -3.36261 0
M  V30 7338 H 669.726 1.70206 -6.33017 0
M  V30 7339 H 669.246 2.98896 -5.2002 0
M  V30 7340 H 670.925 2.89359 -5.78689 0
M  V30 7341 N 671.057 1.43213 0.657864 0
M  V30 7342 C 672.305 1.44298 1.41501 0
M  V30 7343 C 672.626 0.0666478 1.94886 0
M  V30 7344 O 671.896 -0.897345 1.74139 0
M  V30 7345 H 670.476 0.531257 0.525143 0
M  V30 7346 H 673.138 1.78777 0.776195 0
M  V30 7347 H 672.234 2.1528 2.25966 0
M  V30 7348 N 672.536 -0.895792 1.29666 0
M  V30 7349 C 673.466 -2.01673 1.17688 0
M  V30 7350 C 674.447 -1.69955 0.0701317 0
M  V30 7351 O 675.632 -1.9258 0.250289 0
M  V30 7352 C 672.762 -3.36568 0.856681 0
M  V30 7353 C 671.716 -3.82509 1.92017 0
M  V30 7354 C 671.042 -5.14574 1.4532 0
M  V30 7355 C 672.342 -4.02409 3.32963 0
M  V30 7356 H 674.036 -2.11953 2.11463 0
M  V30 7357 H 671.582 -1.01839 1.01807 0
M  V30 7358 H 673.535 -4.14498 0.759577 0
M  V30 7359 H 672.259 -3.26391 -0.116763 0
M  V30 7360 H 670.918 -3.068 2.00673 0
M  V30 7361 H 670.566 -5.00815 0.468325 0
M  V30 7362 H 670.266 -5.46283 2.16447 0
M  V30 7363 H 671.79 -5.9504 1.36968 0
M  V30 7364 H 673.204 -4.70808 3.27127 0
M  V30 7365 H 671.601 -4.45478 4.02082 0
M  V30 7366 H 672.671 -3.06616 3.75652 0
M  V30 7367 N 674.014 -1.12206 -1.10668 0
M  V30 7368 C 674.962 -0.782918 -2.19028 0
M  V30 7369 C 675.956 0.229175 -1.67843 0
M  V30 7370 O 677.162 0.0876295 -1.79787 0
M  V30 7371 H 673.537 -0.235339 -0.714227 0
M  V30 7372 H 675.508 -1.70527 -2.44874 0
M  V30 7373 C 674.257 -0.25116 -3.46792 0
M  V30 7374 H 673.58 -1.02123 -3.86537 0
M  V30 7375 H 675.02 -0.0521409 -4.23968 0
M  V30 7376 C 673.479 1.02037 -3.21076 0
M  V30 7377 O 674.009 2.09862 -3.42522 0
M  V30 7378 N 672.215 0.946348 -2.74759 0
M  V30 7379 H 671.762 0.068777 -2.57508 0
M  V30 7380 H 671.72 1.79775 -2.57931 0
M  V30 7381 N 675.492 1.28418 -0.913599 0
M  V30 7382 C 676.455 2.25564 -0.406624 0
M  V30 7383 C 677.455 1.5387 0.466965 0
M  V30 7384 O 678.645 1.72094 0.270042 0
M  V30 7385 C 675.777 3.38339 0.417053 0
M  V30 7386 H 676.97 2.71926 -1.26477 0
M  V30 7387 H 674.523 1.40098 -0.692986 0
M  V30 7388 H 675.258 2.97339 1.29461 0
M  V30 7389 H 675.043 3.91542 -0.209102 0
M  V30 7390 H 676.533 4.10578 0.762602 0
M  V30 7391 N 676.97 0.677563 1.42291 0
M  V30 7392 C 678.247 0.129803 1.95169 0
M  V30 7393 C 678.627 -1.35605 1.61786 0
M  V30 7394 O 677.975 -2.09361 0.915444 0
M  V30 7395 C 678.185 0.401889 3.46678 0
M  V30 7396 C 679.533 0.319889 4.23393 0
M  V30 7397 O 680.557 0.33579 3.54614 0
M  V30 7398 O 679.416 0.264459 5.4586 0
M  V30 7399 H 676.51 0.00447433 0.826988 0
M  V30 7400 H 679.056 0.752483 1.52105 0
M  V30 7401 H 677.828 1.43108 3.64192 0
M  V30 7402 H 677.451 -0.252662 3.96796 0
M  V30 7403 N 678.448 -1.51871 0.421078 0
M  V30 7404 C 679.358 -2.31077 -0.405069 0
M  V30 7405 C 680.374 -1.39301 -1.04265 0
M  V30 7406 O 681.55 -1.72376 -1.04157 0
M  V30 7407 C 678.615 -3.12556 -1.50032 0
M  V30 7408 C 677.676 -4.20088 -0.884559 0
M  V30 7409 C 676.909 -4.97673 -1.92762 0
M  V30 7410 O 677.132 -4.75696 -3.14753 0
M  V30 7411 O 676.066 -5.82203 -1.52719 0
M  V30 7412 H 679.892 -3.02742 0.241086 0
M  V30 7413 H 677.477 -1.48263 0.183991 0
M  V30 7414 H 679.359 -3.6326 -2.13589 0
M  V30 7415 H 678.034 -2.43672 -2.13086 0
M  V30 7416 H 676.941 -3.73502 -0.211379 0
M  V30 7417 H 678.274 -4.91298 -0.297763 0
M  V30 7418 N 679.926 -0.151884 -1.56866 0
M  V30 7419 C 681.175 0.497992 -1.95456 0
M  V30 7420 C 681.488 1.6569 -1.03953 0
M  V30 7421 O 682.694 2.37173 -1.32142 0
M  V30 7422 C 681.15 0.93732 -3.4748 0
M  V30 7423 C 680.758 -0.194921 -4.47576 0
M  V30 7424 C 682.502 1.55671 -3.94926 0
M  V30 7425 C 680.409 0.26295 -5.90815 0
M  V30 7426 H 679.339 0.189811 -0.729717 0
M  V30 7427 H 681.99 -0.237011 -1.81963 0
M  V30 7428 H 680.372 1.72773 -3.56322 0
M  V30 7429 H 681.546 -0.971951 -4.50433 0
M  V30 7430 H 679.861 -0.72303 -4.10075 0
M  V30 7431 H 682.458 1.91099 -4.99385 0
M  V30 7432 H 682.801 2.44748 -3.36755 0
M  V30 7433 H 683.334 0.831109 -3.89021 0
M  V30 7434 H 680.073 -0.592568 -6.52816 0
M  V30 7435 H 679.593 1.00575 -5.91308 0
M  V30 7436 H 681.272 0.713333 -6.43056 0
M  V30 7437 N 681.404 1.57128 0.121893 0
M  V30 7438 C 682.65 1.84974 0.831418 0
M  V30 7439 C 682.983 0.737204 1.79663 0
M  V30 7440 O 682.258 -0.257199 1.92792 0
M  V30 7441 C 682.541 3.23397 1.58386 0
M  V30 7442 C 682.394 4.45246 0.638445 0
M  V30 7443 C 683.713 3.59355 2.54071 0
M  V30 7444 H 680.832 0.67282 0.300803 0
M  V30 7445 H 683.474 1.89759 0.0957587 0
M  V30 7446 H 681.624 3.19449 2.21098 0
M  V30 7447 H 683.296 4.61295 0.0203925 0
M  V30 7448 H 681.539 4.33771 -0.05023 0
M  V30 7449 H 682.21 5.38765 1.20151 0
M  V30 7450 H 684.686 3.64075 2.01465 0
M  V30 7451 H 683.562 4.57193 3.03752 0
M  V30 7452 H 683.823 2.86622 3.36601 0
M  V30 7453 N 682.882 -0.391992 1.52647 0
M  V30 7454 C 683.814 -1.49811 1.73463 0
M  V30 7455 C 684.827 -1.50734 0.615078 0
M  V30 7456 O 686.016 -1.5469 0.890696 0
M  V30 7457 C 683.116 -2.88667 1.77552 0
M  V30 7458 C 682.289 -3.11743 3.06815 0
M  V30 7459 C 681.348 -4.30564 3.02491 0
M  V30 7460 O 680.374 -4.27014 3.76361 0
M  V30 7461 N 681.576 -5.36593 2.21468 0
M  V30 7462 H 684.341 -1.32343 2.68897 0
M  V30 7463 H 681.902 -0.581475 1.51098 0
M  V30 7464 H 683.894 -3.66251 1.7217 0
M  V30 7465 H 682.464 -2.99508 0.895181 0
M  V30 7466 H 681.684 -2.2205 3.25711 0
M  V30 7467 H 682.972 -3.24013 3.92292 0
M  V30 7468 H 682.37 -5.42332 1.60913 0
M  V30 7469 H 680.927 -6.12855 2.21928 0
M  V30 7470 N 684.36 -1.4356 -0.65026 0
M  V30 7471 C 685.608 -1.45046 -1.40734 0
M  V30 7472 C 685.929 -0.0769822 -1.94848 0
M  V30 7473 O 685.199 0.888098 -1.74613 0
M  V30 7474 H 683.779 -0.534034 -0.522318 0
M  V30 7475 H 686.441 -1.79186 -0.766703 0
M  V30 7476 H 685.537 -2.16476 -2.24822 0
M  V30 7477 N 685.838 0.888903 -1.30139 0
M  V30 7478 C 687.085 1.64037 -1.18736 0
M  V30 7479 C 687.413 1.92771 0.258801 0
M  V30 7480 O 686.668 1.54427 1.20212 0
M  V30 7481 C 686.967 2.99041 -1.95728 0
M  V30 7482 C 686.633 2.89874 -3.45375 0
M  V30 7483 C 685.295 2.87082 -3.86183 0
M  V30 7484 C 687.647 2.78289 -4.40687 0
M  V30 7485 C 684.975 2.70536 -5.20603 0
M  V30 7486 C 687.327 2.63282 -5.75209 0
M  V30 7487 C 685.991 2.58861 -6.15262 0
M  V30 7488 H 685.261 0.600253 -0.434485 0
M  V30 7489 H 687.908 1.0338 -1.61198 0
M  V30 7490 H 686.213 3.63626 -1.45888 0
M  V30 7491 H 687.91 3.56139 -1.843 0
M  V30 7492 H 684.5 2.92856 -3.12943 0
M  V30 7493 H 688.684 2.79516 -4.10103 0
M  V30 7494 H 683.94 2.65526 -5.50732 0
M  V30 7495 H 688.114 2.5329 -6.48704 0
M  V30 7496 H 685.741 2.45799 -7.19366 0
M  V30 7497 N 687.317 1.12792 1.10072 0
M  V30 7498 C 688.28 0.802264 2.14701 0
M  V30 7499 C 689.28 -0.18515 1.59731 0
M  V30 7500 O 690.47 0.041109 1.74151 0
M  V30 7501 C 687.602 0.19285 3.40354 0
M  V30 7502 H 688.795 1.72932 2.45019 0
M  V30 7503 H 686.348 0.931662 1.25498 0
M  V30 7504 H 687.083 -0.743748 3.15656 0
M  V30 7505 H 686.868 0.903827 3.81541 0
M  V30 7506 H 688.358 -0.0183704 4.17596 0
M  V30 7507 N 688.795 -1.27931 0.920396 0
M  V30 7508 C 690.041 -1.94977 0.557832 0
M  V30 7509 C 690.374 -1.72224 -0.897365 0
M  V30 7510 O 689.649 -1.04705 -1.63912 0
M  V30 7511 C 689.932 -3.49289 0.875741 0
M  V30 7512 C 689.785 -3.81416 2.38416 0
M  V30 7513 C 691.104 -4.38486 0.376517 0
M  V30 7514 H 688.223 -0.708164 0.20414 0
M  V30 7515 H 690.865 -1.5118 1.15085 0
M  V30 7516 H 689.015 -3.86724 0.371062 0
M  V30 7517 H 690.687 -3.53813 2.95997 0
M  V30 7518 H 688.93 -3.28225 2.83639 0
M  V30 7519 H 689.601 -4.89198 2.55713 0
M  V30 7520 H 692.077 -4.08161 0.808945 0
M  V30 7521 H 690.953 -5.45296 0.627976 0
M  V30 7522 H 691.214 -4.36143 -0.723293 0
M  V30 7523 N 690.273 -0.685099 -1.4193 0
M  V30 7524 C 691.236 -0.0222632 -2.29189 0
M  V30 7525 C 692.236 0.7186 -1.4385 0
M  V30 7526 O 693.426 0.555058 -1.6512 0
M  V30 7527 C 690.558 0.979013 -3.2654 0
M  V30 7528 H 691.751 -0.790424 -2.89296 0
M  V30 7529 H 689.304 -0.448012 -1.49742 0
M  V30 7530 H 690.039 1.77531 -2.71392 0
M  V30 7531 H 689.824 0.451037 -3.89497 0
M  V30 7532 H 691.314 1.44091 -3.91954 0
M  V30 7533 N 691.751 1.51645 -0.429126 0
M  V30 7534 C 692.681 2.30434 0.377148 0
M  V30 7535 C 693.662 1.35493 1.02838 0
M  V30 7536 O 694.847 1.6441 1.03359 0
M  V30 7537 C 691.977 3.14038 1.48315 0
M  V30 7538 C 690.931 4.1719 0.955855 0
M  V30 7539 C 690.257 4.89263 2.15698 0
M  V30 7540 C 691.557 5.223 -0.00402136 0
M  V30 7541 H 693.251 2.98085 -0.280336 0
M  V30 7542 H 690.797 1.43354 -0.136265 0
M  V30 7543 H 692.75 3.67933 2.05435 0
M  V30 7544 H 691.474 2.44193 2.16881 0
M  V30 7545 H 690.133 3.64335 0.406929 0
M  V30 7546 H 689.781 4.15929 2.82864 0
M  V30 7547 H 689.481 5.59009 1.81059 0
M  V30 7548 H 691.005 5.45978 2.73387 0
M  V30 7549 H 692.419 5.71315 0.476607 0
M  V30 7550 H 690.816 5.99525 -0.26258 0
M  V30 7551 H 691.886 4.75638 -0.943236 0
M  V30 7552 N 693.229 0.160201 1.56784 0
M  V30 7553 C 694.176 -0.774416 2.1742 0
M  V30 7554 C 695.146 -1.23483 1.11091 0
M  V30 7555 O 696.331 -1.30499 1.39193 0
M  V30 7556 C 693.471 -2.00283 2.81035 0
M  V30 7557 C 692.584 -1.58701 4.01793 0
M  V30 7558 C 691.719 -2.76824 4.53367 0
M  V30 7559 C 690.758 -2.31679 5.66561 0
M  V30 7560 N 689.895 -3.42856 6.12694 0
M  V30 7561 H 694.735 -0.250542 2.96945 0
M  V30 7562 H 692.272 -0.111943 1.46673 0
M  V30 7563 H 694.23 -2.72316 3.16069 0
M  V30 7564 H 692.86 -2.5006 2.04132 0
M  V30 7565 H 691.912 -0.76384 3.72652 0
M  V30 7566 H 693.224 -1.21555 4.83762 0
M  V30 7567 H 692.378 -3.57029 4.90525 0
M  V30 7568 H 691.117 -3.17223 3.70433 0
M  V30 7569 H 690.122 -1.49917 5.28966 0
M  V30 7570 H 691.347 -1.9235 6.5129 0
M  V30 7571 H 689.293 -3.82852 5.32692 0
M  V30 7572 H 689.21 -3.09767 6.89624 0
M  V30 7573 H 690.478 -4.23379 6.545 0
M  V30 7574 N 694.707 -1.5719 -0.113559 0
M  V30 7575 C 695.64 -1.9595 -1.16957 0
M  V30 7576 C 696.618 -0.829951 -1.39823 0
M  V30 7577 O 697.802 -1.08861 -1.53888 0
M  V30 7578 C 694.929 -2.2604 -2.52237 0
M  V30 7579 C 693.975 -3.48571 -2.45765 0
M  V30 7580 S 694.808 -5.00962 -1.89203 0
M  V30 7581 C 695.964 -5.3421 -3.26145 0
M  V30 7582 H 696.197 -2.85214 -0.839069 0
M  V30 7583 H 693.73 -1.51036 -0.320529 0
M  V30 7584 H 695.688 -2.44054 -3.30073 0
M  V30 7585 H 694.349 -1.3738 -2.82463 0
M  V30 7586 H 693.542 -3.67008 -3.45429 0
M  V30 7587 H 693.144 -3.29972 -1.76053 0
M  V30 7588 H 695.436 -5.29725 -4.22371 0
M  V30 7589 H 696.379 -6.35398 -3.12529 0
M  V30 7590 H 696.787 -4.61681 -3.24825 0
M  V30 7591 N 696.185 0.383891 -1.52853 0
M  V30 7592 C 697.133 1.48965 -1.7864 0
M  V30 7593 C 698.127 1.56242 -0.654577 0
M  V30 7594 O 699.333 1.59347 -0.83716 0
M  V30 7595 H 695.708 0.495892 -0.565328 0
M  V30 7596 H 697.679 1.24411 -2.71228 0
M  V30 7597 C 696.428 2.86036 -1.97683 0
M  V30 7598 H 695.751 2.81188 -2.84206 0
M  V30 7599 H 697.191 3.62632 -2.19713 0
M  V30 7600 C 695.65 3.28428 -0.750776 0
M  V30 7601 O 696.18 4.0164 0.0693491 0
M  V30 7602 N 694.386 2.84765 -0.579427 0
M  V30 7603 H 693.933 2.25353 -1.24795 0
M  V30 7604 H 693.891 3.13486 0.239544 0
M  V30 7605 N 697.663 1.43903 0.642637 0
M  V30 7606 C 698.626 1.49538 1.73698 0
M  V30 7607 C 699.626 0.378776 1.56275 0
M  V30 7608 O 700.816 0.64095 1.6198 0
M  V30 7609 C 697.948 1.35821 3.12675 0
M  V30 7610 H 699.141 2.47008 1.70079 0
M  V30 7611 H 696.694 1.30824 0.85526 0
M  V30 7612 H 697.429 0.393994 3.21898 0
M  V30 7613 H 697.214 2.16776 3.26727 0
M  V30 7614 H 698.704 1.4272 3.92455 0
M  V30 7615 N 699.141 -0.881989 1.30609 0
M  V30 7616 C 700.369 -1.66711 1.22536 0
M  V30 7617 C 700.784 -1.87614 -0.2113 0
M  V30 7618 O 700.141 -1.42576 -1.13923 0
M  V30 7619 C 700.192 -3.04182 1.95335 0
M  V30 7620 O 699.913 -2.8422 3.33393 0
M  V30 7621 C 701.414 -3.98617 1.93956 0
M  V30 7622 H 698.634 -0.520124 0.423925 0
M  V30 7623 H 701.178 -1.10174 1.72285 0
M  V30 7624 H 699.333 -3.57442 1.49378 0
M  V30 7625 H 699.747 -3.71452 3.70302 0
M  V30 7626 H 701.221 -4.92433 2.49426 0
M  V30 7627 H 701.698 -4.29473 0.919198 0
M  V30 7628 H 702.304 -3.51292 2.39738 0
M  V30 7629 N 700.619 -1.13374 -1.09472 0
M  V30 7630 C 701.566 -0.810682 -2.16094 0
M  V30 7631 C 702.536 0.227003 -1.64541 0
M  V30 7632 O 703.721 0.0993538 -1.90541 0
M  V30 7633 C 700.861 -0.282336 -3.43943 0
M  V30 7634 C 699.974 -1.37902 -4.09398 0
M  V30 7635 C 699.109 -0.809066 -5.25002 0
M  V30 7636 C 698.148 -1.88419 -5.82379 0
M  V30 7637 N 697.285 -1.33221 -6.89345 0
M  V30 7638 H 702.125 -1.72397 -2.43071 0
M  V30 7639 H 699.662 -0.860564 -1.19301 0
M  V30 7640 H 701.62 0.0421189 -4.17179 0
M  V30 7641 H 700.25 0.594083 -3.17286 0
M  V30 7642 H 699.302 -1.82008 -3.34032 0
M  V30 7643 H 700.614 -2.19161 -4.48074 0
M  V30 7644 H 699.768 -0.435867 -6.05132 0
M  V30 7645 H 698.507 0.0346058 -4.87688 0
M  V30 7646 H 697.512 -2.26646 -5.00911 0
M  V30 7647 H 698.737 -2.73125 -6.21755 0
M  V30 7648 H 696.683 -0.510535 -6.5401 0
M  V30 7649 H 696.6 -2.08129 -7.26786 0
M  V30 7650 H 697.868 -0.986565 -7.73232 0
M  V30 7651 N 702.098 1.27442 -0.927168 0
M  V30 7652 C 703.045 2.26863 -0.424459 0
M  V30 7653 C 704.015 1.5813 0.508346 0
M  V30 7654 O 705.2 1.85946 0.42762 0
M  V30 7655 C 702.34 3.43639 0.31718 0
M  V30 7656 C 701.453 4.27087 -0.649675 0
M  V30 7657 C 700.588 5.31082 0.111753 0
M  V30 7658 C 699.627 6.062 -0.847843 0
M  V30 7659 N 698.764 7.01999 -0.119074 0
M  V30 7660 H 703.604 2.69239 -1.27728 0
M  V30 7661 H 701.141 1.32394 -0.641106 0
M  V30 7662 H 703.099 4.10155 0.763486 0
M  V30 7663 H 701.729 3.02217 1.13424 0
M  V30 7664 H 700.781 3.60491 -1.21451 0
M  V30 7665 H 702.093 4.79242 -1.38307 0
M  V30 7666 H 701.247 6.03544 0.618 0
M  V30 7667 H 699.986 4.7973 0.878114 0
M  V30 7668 H 698.991 5.32577 -1.36534 0
M  V30 7669 H 700.216 6.59642 -1.61398 0
M  V30 7670 H 698.162 6.52977 0.629051 0
M  V30 7671 H 698.079 7.5184 -0.792046 0
M  V30 7672 H 699.347 7.78638 0.366537 0
M  V30 7673 N 703.576 0.692616 1.41565 0
M  V30 7674 C 704.853 0.150496 1.9502 0
M  V30 7675 C 705.233 -1.33881 1.63215 0
M  V30 7676 O 704.581 -2.08378 0.937598 0
M  V30 7677 C 704.791 0.438636 3.46233 0
M  V30 7678 C 706.139 0.364777 4.2303 0
M  V30 7679 O 707.163 0.373383 3.54238 0
M  V30 7680 O 706.022 0.32234 5.45549 0
M  V30 7681 H 703.116 0.0132454 0.826894 0
M  V30 7682 H 705.662 0.768574 1.51298 0
M  V30 7683 H 704.434 1.46962 3.62654 0
M  V30 7684 H 704.057 -0.210562 3.97042 0
M  V30 7685 N 705.054 -1.51416 0.437162 0
M  V30 7686 C 706.301 -2.02086 -0.129364 0
M  V30 7687 C 706.629 -1.32133 -1.42728 0
M  V30 7688 O 705.884 -0.424916 -1.91031 0
M  V30 7689 C 706.183 -3.55203 -0.39564 0
M  V30 7690 C 705.849 -4.43447 0.81644 0
M  V30 7691 C 704.511 -4.67285 1.14884 0
M  V30 7692 C 706.863 -4.95219 1.62503 0
M  V30 7693 C 704.191 -5.40141 2.29052 0
M  V30 7694 C 706.543 -5.69327 2.7577 0
M  V30 7695 C 705.207 -5.91429 3.09464 0
M  V30 7696 H 704.477 -0.739486 -0.0473375 0
M  V30 7697 H 707.124 -1.82368 0.584321 0
M  V30 7698 H 705.429 -3.73252 -1.19121 0
M  V30 7699 H 707.126 -3.91944 -0.847399 0
M  V30 7700 H 703.716 -4.2509 0.547422 0
M  V30 7701 H 707.9 -4.76686 1.38144 0
M  V30 7702 H 703.156 -5.55468 2.55471 0
M  V30 7703 H 707.33 -6.08433 3.38795 0
M  V30 7704 H 704.957 -6.47662 3.98042 0
M  V30 7705 N 706.532 -0.168513 -1.56696 0
M  V30 7706 C 707.809 0.523367 -1.88468 0
M  V30 7707 C 708.189 1.81503 -1.07796 0
M  V30 7708 O 707.537 2.27859 -0.171045 0
M  V30 7709 C 707.747 0.767991 -3.40445 0
M  V30 7710 C 709.095 1.09924 -4.10124 0
M  V30 7711 O 710.119 0.856625 -3.45746 0
M  V30 7712 O 708.978 1.55681 -5.23856 0
M  V30 7713 H 706.072 0.269447 -0.781874 0
M  V30 7714 H 708.618 -0.206739 -1.68436 0
M  V30 7715 H 707.39 -0.145254 -3.9103 0
M  V30 7716 H 707.013 1.55151 -3.66079 0
M  V30 7717 N 708.01 1.57248 0.105221 0
M  V30 7718 C 708.92 2.04653 1.14693 0
M  V30 7719 C 709.936 0.969488 1.44489 0
M  V30 7720 O 711.112 1.28196 1.55331 0
M  V30 7721 C 708.177 2.45297 2.45011 0
M  V30 7722 C 707.238 3.67148 2.22489 0
M  V30 7723 C 706.471 4.05844 3.46592 0
M  V30 7724 O 706.694 3.44736 4.54437 0
M  V30 7725 O 705.628 4.98862 3.36779 0
M  V30 7726 H 709.454 2.93663 0.774336 0
M  V30 7727 H 707.039 1.45998 0.31701 0
M  V30 7728 H 708.921 2.72112 3.21766 0
M  V30 7729 H 707.596 1.59429 2.81717 0
M  V30 7730 H 706.503 3.45463 1.43547 0
M  V30 7731 H 707.836 4.53764 1.9068 0
M  V30 7732 N 709.488 -0.375779 1.53054 0
M  V30 7733 C 710.716 -1.14036 1.72637 0
M  V30 7734 C 711.131 -1.83342 0.450687 0
M  V30 7735 O 710.488 -1.7318 -0.575749 0
M  V30 7736 C 710.539 -2.17841 2.88492 0
M  V30 7737 O 710.26 -1.51358 4.11123 0
M  V30 7738 C 711.761 -3.06924 3.19863 0
M  V30 7739 H 708.981 -0.341386 0.577665 0
M  V30 7740 H 711.525 -0.437809 1.99759 0
M  V30 7741 H 709.68 -2.8371 2.63794 0
M  V30 7742 H 710.094 -2.20439 4.75928 0
M  V30 7743 H 711.568 -3.75763 4.04359 0
M  V30 7744 H 712.045 -3.71169 2.34798 0
M  V30 7745 H 712.651 -2.46684 3.46449 0
M  V30 7746 N 710.966 -1.44241 -0.634997 0
M  V30 7747 C 712.215 -1.46102 -1.39058 0
M  V30 7748 C 712.528 -0.0959909 -1.95364 0
M  V30 7749 O 713.734 0.00788751 -2.71499 0
M  V30 7750 C 712.19 -2.57195 -2.51751 0
M  V30 7751 C 711.798 -3.99888 -2.01974 0
M  V30 7752 C 713.542 -2.68272 -3.28984 0
M  V30 7753 C 711.449 -5.02412 -3.11987 0
M  V30 7754 H 710.379 -0.543556 -0.522554 0
M  V30 7755 H 713.03 -1.70294 -0.683538 0
M  V30 7756 H 711.412 -2.26237 -3.25012 0
M  V30 7757 H 712.586 -4.40396 -1.35604 0
M  V30 7758 H 710.901 -3.93019 -1.37568 0
M  V30 7759 H 713.498 -3.42042 -4.10988 0
M  V30 7760 H 713.841 -1.73957 -3.78212 0
M  V30 7761 H 714.374 -2.98622 -2.62812 0
M  V30 7762 H 711.113 -5.98342 -2.67707 0
M  V30 7763 H 710.633 -4.66501 -3.77011 0
M  V30 7764 H 712.312 -5.25939 -3.76825 0
M  V30 7765 N 712.444 0.87505 -1.31075 0
M  V30 7766 C 713.855 1.4433 -1.18431 0
M  V30 7767 C 714.206 1.9506 0.211189 0
M  V30 7768 O 713.331 1.85847 1.10859 0
M  V30 7769 C 713.926 2.62341 -2.14389 0
M  V30 7770 C 712.485 3.15225 -2.05694 0
M  V30 7771 C 711.632 1.87929 -2.03907 0
M  V30 7772 H 714.583 0.684061 -1.432 0
M  V30 7773 H 714.604 3.3887 -1.73053 0
M  V30 7774 H 714.116 2.25388 -3.15946 0
M  V30 7775 H 712.217 3.56812 -1.07314 0
M  V30 7776 H 712.33 3.77853 -2.94558 0
M  V30 7777 H 710.694 2.06679 -1.48849 0
M  V30 7778 H 711.477 1.53221 -3.07211 0
M  V30 7779 N 713.922 1.13953 1.08869 0
M  V30 7780 C 715.171 0.899431 1.80536 0
M  V30 7781 C 715.484 -0.575781 1.86933 0
M  V30 7782 O 716.69 -0.932988 2.54966 0
M  V30 7783 C 715.146 1.55963 3.24351 0
M  V30 7784 C 714.754 3.07077 3.26202 0
M  V30 7785 C 716.498 1.40046 4.00733 0
M  V30 7786 C 714.405 3.65955 4.64576 0
M  V30 7787 H 713.335 0.332849 0.676556 0
M  V30 7788 H 715.986 1.3679 1.22314 0
M  V30 7789 H 714.368 1.01883 3.82669 0
M  V30 7790 H 715.542 3.67785 2.77617 0
M  V30 7791 H 713.857 3.22576 2.63312 0
M  V30 7792 H 716.454 1.81441 5.02974 0
M  V30 7793 H 716.797 0.345993 4.1486 0
M  V30 7794 H 717.33 1.91137 3.48872 0
M  V30 7795 H 714.069 4.71234 4.55652 0
M  V30 7796 H 713.589 3.10027 5.13462 0
M  V30 7797 H 715.268 3.65968 5.33551 0
M  V30 7798 N 715.4 -1.26948 0.933913 0
M  V30 7799 C 716.35 -2.24306 0.408779 0
M  V30 7800 C 717.334 -1.53243 -0.490435 0
M  V30 7801 O 718.526 -1.73956 -0.326866 0
M  V30 7802 C 715.655 -3.41695 -0.331578 0
M  V30 7803 C 714.741 -4.20053 0.58451 0
M  V30 7804 N 715.132 -4.76122 1.70709 0
M  V30 7805 C 713.43 -4.44303 0.388703 0
M  V30 7806 C 714.131 -5.35267 2.27737 0
M  V30 7807 N 713.107 -5.20548 1.56622 0
M  V30 7808 H 716.909 -2.65244 1.26582 0
M  V30 7809 H 714.423 -1.4195 0.788919 0
M  V30 7810 H 716.42 -4.10552 -0.724774 0
M  V30 7811 H 715.08 -3.02286 -1.18547 0
M  V30 7812 H 716.091 -4.73884 2.08937 0
M  V30 7813 H 712.768 -4.15341 -0.424016 0
M  V30 7814 H 714.158 -5.89563 3.22282 0
M  V30 7815 N 716.879 -0.700114 -1.41195 0
M  V30 7816 C 718.29 -0.307249 -1.84154 0
M  V30 7817 C 718.641 1.15539 -1.58572 0
M  V30 7818 O 717.766 1.88744 -1.05852 0
M  V30 7819 C 718.361 -0.550872 -3.34292 0
M  V30 7820 C 716.92 -0.211877 -3.75803 0
M  V30 7821 C 716.067 -0.830915 -2.64558 0
M  V30 7822 H 719.018 -0.900431 -1.30683 0
M  V30 7823 H 719.039 0.188954 -3.80031 0
M  V30 7824 H 718.551 -1.61548 -3.5288 0
M  V30 7825 H 716.652 0.848283 -3.62815 0
M  V30 7826 H 716.765 -0.67007 -4.74391 0
M  V30 7827 H 715.129 -0.260155 -2.53368 0
M  V30 7828 H 715.912 -1.89948 -2.85963 0
M  V30 7829 N 718.357 1.51182 -0.445186 0
M  V30 7830 C 719.585 2.06568 0.117091 0
M  V30 7831 C 720 1.31182 1.35781 0
M  V30 7832 O 719.357 0.373605 1.78635 0
M  V30 7833 C 719.408 3.58917 0.431408 0
M  V30 7834 O 719.129 4.31456 -0.760078 0
M  V30 7835 C 720.63 4.30843 1.0435 0
M  V30 7836 H 717.85 0.670985 0.00444436 0
M  V30 7837 H 720.394 1.94666 -0.626525 0
M  V30 7838 H 718.549 3.70708 1.12493 0
M  V30 7839 H 718.963 5.22215 -0.489048 0
M  V30 7840 H 720.437 5.38499 1.21337 0
M  V30 7841 H 720.914 3.89644 2.02667 0
M  V30 7842 H 721.52 4.23516 0.38913 0
M  V30 7843 N 719.835 0.176821 1.56605 0
M  V30 7844 C 720.798 -0.737429 2.17013 0
M  V30 7845 C 721.798 -1.15414 1.11965 0
M  V30 7846 O 722.988 -1.0702 1.37449 0
M  V30 7847 C 720.12 -2.00445 2.75744 0
M  V30 7848 H 721.313 -0.211455 2.99154 0
M  V30 7849 H 718.866 -0.0727582 1.56131 0
M  V30 7850 H 719.601 -2.57338 1.97352 0
M  V30 7851 H 719.386 -1.71456 3.52626 0
M  V30 7852 H 720.876 -2.65679 3.22187 0
M  V30 7853 N 721.313 -1.57302 -0.09688 0
M  V30 7854 C 722.276 -2.00976 -1.10188 0
M  V30 7855 C 723.276 -0.903009 -1.3305 0
M  V30 7856 O 724.466 -1.16853 -1.29194 0
M  V30 7857 C 721.598 -2.36893 -2.45142 0
M  V30 7858 H 722.791 -2.9098 -0.726003 0
M  V30 7859 H 720.344 -1.52515 -0.341872 0
M  V30 7860 H 721.079 -1.49837 -2.8761 0
M  V30 7861 H 720.864 -3.17632 -2.29897 0
M  V30 7862 H 722.354 -2.71345 -3.1743 0
M  V30 7863 N 722.791 0.367657 -1.53252 0
M  V30 7864 C 723.701 1.47415 -1.82499 0
M  V30 7865 C 724.717 1.58711 -0.713222 0
M  V30 7866 O 725.893 1.74644 -1.00306 0
M  V30 7867 C 722.958 2.82706 -2.00694 0
M  V30 7868 C 722.019 2.80955 -3.24596 0
M  V30 7869 C 721.252 4.09793 -3.41914 0
M  V30 7870 O 721.475 5.05852 -2.63572 0
M  V30 7871 O 720.409 4.15731 -4.3526 0
M  V30 7872 H 724.235 1.25624 -2.765 0
M  V30 7873 H 721.82 0.557559 -1.38606 0
M  V30 7874 H 723.702 3.62873 -2.14246 0
M  V30 7875 H 722.377 3.04479 -1.09883 0
M  V30 7876 H 721.284 1.99494 -3.16469 0
M  V30 7877 H 722.617 2.64136 -4.15323 0
M  V30 7878 N 724.269 1.44576 0.627338 0
M  V30 7879 C 725.179 1.54232 1.76776 0
M  V30 7880 C 726.195 0.427782 1.6866 0
M  V30 7881 O 727.371 0.685671 1.89369 0
M  V30 7882 C 724.436 1.48738 3.13174 0
M  V30 7883 C 723.497 2.71074 3.32893 0
M  V30 7884 C 722.73 2.65832 4.62784 0
M  V30 7885 O 722.953 1.72048 5.43834 0
M  V30 7886 O 721.887 3.56742 4.84787 0
M  V30 7887 H 725.713 2.50586 1.71582 0
M  V30 7888 H 723.298 1.26865 0.789028 0
M  V30 7889 H 725.18 1.48211 3.94476 0
M  V30 7890 H 723.855 0.555292 3.18902 0
M  V30 7891 H 722.762 2.77168 2.51254 0
M  V30 7892 H 724.095 3.63342 3.32029 0
M  V30 7893 N 725.747 -0.868086 1.31537 0
M  V30 7894 C 726.994 -1.62127 1.2133 0
M  V30 7895 C 727.322 -1.93158 -0.2281 0
M  V30 7896 O 726.577 -1.5632 -1.1774 0
M  V30 7897 C 726.876 -2.95889 2.0046 0
M  V30 7898 C 726.542 -2.84343 3.49943 0
M  V30 7899 C 725.204 -2.80901 3.90702 0
M  V30 7900 C 727.556 -2.71243 4.45058 0
M  V30 7901 C 724.884 -2.6222 5.24841 0
M  V30 7902 C 727.236 -2.54098 5.79325 0
M  V30 7903 C 725.9 -2.4904 6.19302 0
M  V30 7904 H 725.17 -0.593265 0.443979 0
M  V30 7905 H 727.817 -1.00803 1.62822 0
M  V30 7906 H 726.122 -3.61259 1.51655 0
M  V30 7907 H 727.819 -3.53161 1.89942 0
M  V30 7908 H 724.409 -2.8784 3.17563 0
M  V30 7909 H 728.593 -2.72956 4.14498 0
M  V30 7910 H 723.849 -2.56731 5.54887 0
M  V30 7911 H 728.023 -2.42938 6.52652 0
M  V30 7912 H 725.65 -2.34324 7.23185 0
M  V30 7913 N 727.225 -1.14528 -1.08264 0
M  V30 7914 C 728.155 -0.856356 -2.1723 0
M  V30 7915 C 729.136 0.189251 -1.69044 0
M  V30 7916 O 730.321 0.0456119 -1.94146 0
M  V30 7917 C 727.451 -0.334662 -3.45684 0
M  V30 7918 C 726.405 -1.31588 -4.0727 0
M  V30 7919 C 725.731 -0.653428 -5.30692 0
M  V30 7920 C 727.031 -2.67866 -4.48381 0
M  V30 7921 H 728.725 -1.76755 -2.41657 0
M  V30 7922 H 726.271 -0.851287 -1.16143 0
M  V30 7923 H 728.224 -0.120128 -4.21229 0
M  V30 7924 H 726.948 0.611967 -3.20815 0
M  V30 7925 H 725.607 -1.51661 -3.33758 0
M  V30 7926 H 725.255 0.299054 -5.0211 0
M  V30 7927 H 724.955 -1.30817 -5.72853 0
M  V30 7928 H 726.479 -0.448453 -6.08951 0
M  V30 7929 H 727.893 -2.51692 -5.15096 0
M  V30 7930 H 726.29 -3.29627 -5.01464 0
M  V30 7931 H 727.36 -3.24632 -3.60198 0
M  V30 7932 N 728.703 1.26451 -0.940633 0
M  V30 7933 C 729.931 1.97868 -0.604642 0
M  V30 7934 C 730.346 1.70051 0.820251 0
M  V30 7935 O 729.703 0.96843 1.54686 0
M  V30 7936 C 729.754 3.51684 -0.836689 0
M  V30 7937 O 729.475 3.78533 -2.20554 0
M  V30 7938 C 730.976 4.40343 -0.511169 0
M  V30 7939 H 728.196 0.631105 -0.227919 0
M  V30 7940 H 730.74 1.60979 -1.26119 0
M  V30 7941 H 728.895 3.86736 -0.226759 0
M  V30 7942 H 729.309 4.73065 -2.26517 0
M  V30 7943 H 730.783 5.47229 -0.724157 0
M  V30 7944 H 731.26 4.35694 0.553815 0
M  V30 7945 H 731.866 4.10834 -1.0998 0
M  V30 7946 N 730.181 0.707592 1.40822 0
M  V30 7947 C 731.111 0.0644925 2.33411 0
M  V30 7948 C 732.092 -0.754205 1.52466 0
M  V30 7949 O 733.277 -0.704749 1.80961 0
M  V30 7950 C 730.407 -0.863865 3.36385 0
M  V30 7951 C 729.361 -0.15138 4.27732 0
M  V30 7952 C 728.687 -1.19491 5.21177 0
M  V30 7953 C 729.987 0.989607 5.12839 0
M  V30 7954 H 731.681 0.837829 2.87438 0
M  V30 7955 H 729.227 0.404346 1.38207 0
M  V30 7956 H 731.18 -1.32309 4.0009 0
M  V30 7957 H 729.904 -1.66901 2.80734 0
M  V30 7958 H 728.563 0.287937 3.65467 0
M  V30 7959 H 728.211 -1.9929 4.61836 0
M  V30 7960 H 727.911 -0.723123 5.83134 0
M  V30 7961 H 729.435 -1.6544 5.8776 0
M  V30 7962 H 730.849 0.610114 5.70044 0
M  V30 7963 H 729.246 1.38926 5.83798 0
M  V30 7964 H 730.316 1.82389 4.49291 0
M  V30 7965 N 731.66 -1.50943 0.453197 0
M  V30 7966 C 732.592 -2.25922 -0.38623 0
M  V30 7967 C 733.605 -1.3055 -0.972652 0
M  V30 7968 O 734.794 -1.56191 -0.864097 0
M  V30 7969 C 731.894 -3.01176 -1.5539 0
M  V30 7970 C 731.067 -4.23768 -1.0835 0
M  V30 7971 C 730.126 -4.81466 -2.12313 0
M  V30 7972 O 729.152 -5.42875 -1.71101 0
M  V30 7973 N 730.354 -4.66889 -3.44956 0
M  V30 7974 H 733.119 -2.98601 0.256468 0
M  V30 7975 H 730.68 -1.59408 0.282965 0
M  V30 7976 H 732.672 -3.36659 -2.24594 0
M  V30 7977 H 731.242 -2.31409 -2.10163 0
M  V30 7978 H 730.462 -3.93597 -0.217961 0
M  V30 7979 H 731.75 -5.03289 -0.746857 0
M  V30 7980 H 731.148 -4.18011 -3.81161 0
M  V30 7981 H 729.705 -5.06691 -4.1001 0
M  V30 7982 N 733.138 -0.185124 -1.56509 0
M  V30 7983 C 734.549 0.329221 -1.83774 0
M  V30 7984 C 734.9 1.62093 -1.10545 0
M  V30 7985 O 734.025 2.13334 -0.36298 0
M  V30 7986 C 734.62 0.604099 -3.33371 0
M  V30 7987 C 733.179 1.06284 -3.61083 0
M  V30 7988 C 732.326 0.10608 -2.77097 0
M  V30 7989 H 735.277 -0.409116 -1.53336 0
M  V30 7990 H 735.298 1.45458 -3.51599 0
M  V30 7991 H 734.81 -0.336201 -3.86641 0
M  V30 7992 H 732.911 2.01777 -3.13236 0
M  V30 7993 H 733.024 0.962453 -4.69333 0
M  V30 7994 H 731.388 0.606082 -2.47384 0
M  V30 7995 H 732.171 -0.828486 -3.33153 0
M  V30 7996 N 734.616 1.57351 0.0885366 0
M  V30 7997 C 735.862 1.87564 0.786842 0
M  V30 7998 C 736.217 0.776774 1.76023 0
M  V30 7999 O 735.51 -0.220637 1.90325 0
M  V30 8000 C 735.704 3.22098 1.5488 0
M  V30 8001 C 735.533 4.44967 0.650706 0
M  V30 8002 C 734.303 5.04444 0.293957 0
M  V30 8003 C 736.501 5.1428 -0.0452187 0
M  V30 8004 N 734.483 6.10846 -0.611609 0
M  V30 8005 C 735.854 6.14704 -0.808603 0
M  V30 8006 C 737.909 4.97759 -0.118451 0
M  V30 8007 C 736.612 7.00392 -1.63839 0
M  V30 8008 C 738.638 5.8396 -0.935157 0
M  V30 8009 C 738 6.83909 -1.68664 0
M  V30 8010 H 734.099 0.73613 0.263887 0
M  V30 8011 H 736.683 1.94638 0.049074 0
M  V30 8012 H 734.854 3.16064 2.2574 0
M  V30 8013 H 736.586 3.40015 2.19481 0
M  V30 8014 H 733.341 4.69214 0.643086 0
M  V30 8015 H 733.765 6.68695 -1.05714 0
M  V30 8016 H 738.407 4.20418 0.448202 0
M  V30 8017 H 736.125 7.7712 -2.21608 0
M  V30 8018 H 739.711 5.73236 -0.994579 0
M  V30 8019 H 738.591 7.49454 -2.30842 0
M  V30 8020 N 736.094 -0.359525 1.53444 0
M  V30 8021 C 737.027 -1.46338 1.75101 0
M  V30 8022 C 738.005 -1.51142 0.599559 0
M  V30 8023 O 739.189 -1.69102 0.832862 0
M  V30 8024 C 736.316 -2.84667 1.83527 0
M  V30 8025 C 735.362 -2.9756 3.05549 0
M  V30 8026 S 736.195 -2.65685 4.64943 0
M  V30 8027 C 737.351 -4.06153 4.76225 0
M  V30 8028 H 737.584 -1.27747 2.68455 0
M  V30 8029 H 735.117 -0.554231 1.4411 0
M  V30 8030 H 737.075 -3.64368 1.89067 0
M  V30 8031 H 735.736 -3.00564 0.912147 0
M  V30 8032 H 734.929 -3.98883 3.08072 0
M  V30 8033 H 734.531 -2.25789 2.98153 0
M  V30 8034 H 736.823 -5.00475 4.56652 0
M  V30 8035 H 737.766 -4.08632 5.78295 0
M  V30 8036 H 738.174 -3.93435 4.04808 0
M  V30 8037 N 737.572 -1.44907 -0.619662 0
M  V30 8038 C 738.519 -1.52654 -1.73105 0
M  V30 8039 C 739.489 -0.373334 -1.6185 0
M  V30 8040 O 740.674 -0.585143 -1.81606 0
M  V30 8041 C 737.814 -1.48769 -3.11387 0
M  V30 8042 C 736.927 -2.74551 -3.33535 0
M  V30 8043 C 736.062 -2.62421 -4.61854 0
M  V30 8044 C 735.101 -3.83312 -4.77219 0
M  V30 8045 N 734.238 -3.69789 -5.96826 0
M  V30 8046 H 739.078 -2.47605 -1.65819 0
M  V30 8047 H 736.615 -1.22875 -0.808719 0
M  V30 8048 H 738.573 -1.44507 -3.91374 0
M  V30 8049 H 737.203 -0.573783 -3.1766 0
M  V30 8050 H 736.255 -2.88953 -2.47408 0
M  V30 8051 H 737.567 -3.64253 -3.40765 0
M  V30 8052 H 736.721 -2.56056 -5.50019 0
M  V30 8053 H 735.46 -1.70298 -4.57001 0
M  V30 8054 H 734.465 -3.90049 -3.87481 0
M  V30 8055 H 735.69 -4.76486 -4.83878 0
M  V30 8056 H 733.636 -2.80426 -5.93041 0
M  V30 8057 H 733.553 -4.53116 -6.05163 0
M  V30 8058 H 734.821 -3.67335 -6.87521 0
M  V30 8059 O 739.089 0.763334 -1.42322 0
M  V30 8060 H 739.78 1.41133 -1.3267 0
M  V30 END ATOM
M  V30 BEGIN BOND
M  V30 END BOND
M  V30 END CTAB
M  END
$$$$
