drugbank_target|Q94M05 NTPase P4 (DB02596)
 OpenBabel12092120253D

  0  0  0     0  0            999 V3000
M  V30 BEGIN CTAB
M  V30 COUNTS 4924 4962 0 0 0
M  V30 BEGIN ATOM
M  V30 1 H -0.908 1.98254 -0.117106 0
M  V30 2 N 0 1.576 0 0
M  V30 3 C 0.933 2.03868 1.02534 0
M  V30 4 C 1.911 0.928543 1.3348 0
M  V30 5 O 3.095 1.19667 1.45644 0
M  V30 6 C 0.222 2.43627 2.35294 0
M  V30 7 C -0.732 3.65373 2.2001 0
M  V30 8 S 0.101 5.13292 1.52614 0
M  V30 9 C 1.257 5.56322 2.86805 0
M  V30 10 H 1.49 2.90518 0.631377 0
M  V30 11 H -0.977 1.52953 0.210867 0
M  V30 12 H 0.981 2.67203 3.11629 0
M  V30 13 H -0.358 1.57376 2.7183 0
M  V30 14 H -1.165 3.90944 3.18086 0
M  V30 15 H -1.563 3.418 1.51819 0
M  V30 16 H 0.729 5.58782 3.83104 0
M  V30 17 H 1.672 6.56266 2.65933 0
M  V30 18 H 2.08 4.83886 2.90714 0
M  V30 19 N 1.4781 -0.272755 1.55222 0
M  V30 20 C 2.7271 -1.00211 1.75045 0
M  V30 21 C 3.0401 -1.87441 0.559046 0
M  V30 22 O 4.2461 -2.63856 0.639698 0
M  V30 23 C 2.7021 -1.83165 3.09804 0
M  V30 24 C 2.3101 -1.008 4.36513 0
M  V30 25 C 4.0541 -2.55529 3.38977 0
M  V30 26 C 1.9611 -1.83194 5.62311 0
M  V30 27 H 0.8911 -0.377878 0.652476 0
M  V30 28 H 3.5421 -0.257776 1.8168 0
M  V30 29 H 1.9241 -2.61694 2.97207 0
M  V30 30 H 3.0981 -0.266855 4.60027 0
M  V30 31 H 1.4131 -0.398897 4.14485 0
M  V30 32 H 4.0101 -3.17578 4.30172 0
M  V30 33 H 4.3531 -3.25825 2.59121 0
M  V30 34 H 4.8861 -1.84029 3.52673 0
M  V30 35 H 1.6251 -1.17318 6.44916 0
M  V30 36 H 1.1451 -2.54905 5.4294 0
M  V30 37 H 2.8241 -2.40552 6.00619 0
M  V30 38 N 2.9562 -1.48159 -0.537278 0
M  V30 39 C 3.9062 -1.5854 -1.63857 0
M  V30 40 C 4.8902 -0.442969 -1.54682 0
M  V30 41 O 6.0822 -0.69401 -1.62827 0
M  V30 42 C 3.2112 -1.62144 -3.02596 0
M  V30 43 C 2.2972 -2.81841 -3.16901 0
M  V30 44 N 2.6882 -4.06337 -3.01204 0
M  V30 45 C 0.9862 -2.79021 -3.47942 0
M  V30 46 C 1.6872 -4.86606 -3.18731 0
M  V30 47 N 0.6632 -4.19288 -3.45974 0
M  V30 48 H 4.4652 -2.5255 -1.50319 0
M  V30 49 H 1.9792 -1.4443 -0.742555 0
M  V30 50 H 3.9762 -1.67674 -3.81695 0
M  V30 51 H 2.6362 -0.69245 -3.17231 0
M  V30 52 H 3.6472 -4.36888 -2.78117 0
M  V30 53 H 0.3242 -1.95347 -3.6898 0
M  V30 54 H 1.7142 -5.95385 -3.11394 0
M  V30 55 N 4.4343 0.785586 -1.36625 0
M  V30 56 C 5.3643 1.91259 -1.33949 0
M  V30 57 C 6.3453 1.68795 -0.210325 0
M  V30 58 O 7.5303 1.89854 -0.408561 0
M  V30 59 C 4.6603 3.28339 -1.13186 0
M  V30 60 C 3.6143 3.65335 -2.22967 0
M  V30 61 C 2.9403 5.00806 -1.87342 0
M  V30 62 C 4.2403 3.7352 -3.65075 0
M  V30 63 H 5.9343 1.93755 -2.28253 0
M  V30 64 H 3.4803 0.930788 -1.09874 0
M  V30 65 H 5.4333 4.06804 -1.09948 0
M  V30 66 H 4.1573 3.2624 -0.153332 0
M  V30 67 H 2.8163 2.89169 -2.25337 0
M  V30 68 H 2.4643 4.95233 -0.880545 0
M  V30 69 H 2.1643 5.26529 -2.60846 0
M  V30 70 H 3.6883 5.81687 -1.85667 0
M  V30 71 H 5.1023 4.42168 -3.64911 0
M  V30 72 H 3.4993 4.10731 -4.37516 0
M  V30 73 H 4.5693 2.74527 -3.99703 0
M  V30 74 N 5.9124 1.20967 1.01018 0
M  V30 75 C 7.1424 1.04803 1.78044 0
M  V30 76 C 7.5504 -0.405462 1.84804 0
M  V30 77 O 6.8934 -1.2932 1.30468 0
M  V30 78 C 6.9554 1.56377 3.23707 0
M  V30 79 C 6.6194 3.04767 3.40538 0
M  V30 80 C 7.6164 4.02366 3.29239 0
M  V30 81 C 5.3014 3.43862 3.66147 0
M  V30 82 C 7.2954 5.37049 3.43304 0
M  V30 83 C 4.9824 4.78699 3.79855 0
M  V30 84 C 5.9804 5.75101 3.68439 0
M  V30 85 O 5.6684 7.07493 3.81719 0
M  V30 86 H 5.4004 0.368778 0.56655 0
M  V30 87 H 7.9544 1.60642 1.27997 0
M  V30 88 H 6.1844 0.949297 3.74867 0
M  V30 89 H 7.8734 1.36136 3.8239 0
M  V30 90 H 8.6394 3.73506 3.09384 0
M  V30 91 H 4.5184 2.69364 3.74118 0
M  V30 92 H 8.0624 6.12277 3.34309 0
M  V30 93 H 3.9594 5.07247 3.99213 0
M  V30 94 H 4.7274 7.1483 3.98697 0
M  V30 95 N 7.3905 -1.2043 1.01659 0
M  V30 96 C 8.6675 -1.8548 0.621004 0
M  V30 97 C 9.0475 -1.9091 -0.900919 0
M  V30 98 O 8.3955 -1.41694 -1.79263 0
M  V30 99 C 8.6055 -3.25119 1.2688 0
M  V30 100 C 9.9535 -4.01403 1.38423 0
M  V30 101 O 10.9775 -3.34473 1.22501 0
M  V30 102 O 9.8365 -5.21265 1.64151 0
M  V30 103 H 6.9305 -0.798761 0.214266 0
M  V30 104 H 9.4765 -1.28019 1.11396 0
M  V30 105 H 8.2485 -3.15932 2.30873 0
M  V30 106 H 7.8715 -3.90212 0.762917 0
M  V30 107 N 8.8686 -0.792821 -1.36206 0
M  V30 108 C 9.8316 -0.199459 -2.2833 0
M  V30 109 C 10.8316 0.605189 -1.48977 0
M  V30 110 O 12.0216 0.425685 -1.68919 0
M  V30 111 C 9.1536 0.723523 -3.33134 0
M  V30 112 H 10.3466 -1.01181 -2.82316 0
M  V30 113 H 7.8996 -0.562485 -1.45828 0
M  V30 114 H 8.6346 1.56008 -2.84309 0
M  V30 115 H 8.4196 0.148436 -3.91819 0
M  V30 116 H 9.9096 1.13344 -4.01924 0
M  V30 117 N 10.3467 1.47872 -0.545128 0
M  V30 118 C 11.2937 2.29849 0.2093 0
M  V30 119 C 12.2637 1.38313 0.919707 0
M  V30 120 O 13.4487 1.67277 0.917772 0
M  V30 121 C 10.5887 3.22019 1.24088 0
M  V30 122 C 9.7017 4.2864 0.537778 0
M  V30 123 C 8.8367 5.07973 1.5536 0
M  V30 124 C 7.8757 6.06381 0.8348 0
M  V30 125 N 7.0127 6.78717 1.79688 0
M  V30 126 H 11.8527 2.93845 -0.49591 0
M  V30 127 H 9.3897 1.44848 -0.256389 0
M  V30 128 H 11.3477 3.73868 1.85144 0
M  V30 129 H 9.9777 2.59914 1.91428 0
M  V30 130 H 9.0297 3.7994 -0.187046 0
M  V30 131 H 10.3417 4.98793 -0.0258907 0
M  V30 132 H 9.4957 5.63912 2.23803 0
M  V30 133 H 8.2347 4.37693 2.15118 0
M  V30 134 H 7.2397 5.49631 0.136388 0
M  V30 135 H 8.4647 6.78665 0.24313 0
M  V30 136 H 6.4107 6.11177 2.38326 0
M  V30 137 H 6.3277 7.44998 1.28505 0
M  V30 138 H 7.5957 7.39237 2.47282 0
M  V30 139 N 11.8248 0.280983 1.55075 0
M  V30 140 C 13.0498 -0.340154 2.04592 0
M  V30 141 C 13.4748 -1.48246 1.15779 0
M  V30 142 O 12.8328 -1.80614 0.15761 0
M  V30 143 C 12.8808 -0.793104 3.5177 0
M  V30 144 O 11.9848 -1.89981 3.66034 0
M  V30 145 H 11.3258 -0.0694289 0.66036 0
M  V30 146 H 13.8558 0.416993 2.00306 0
M  V30 147 H 13.8658 -1.08729 3.93245 0
M  V30 148 H 12.5408 0.0426163 4.15878 0
M  V30 149 H 11.1178 -1.60771 3.36463 0
M  V30 150 N 13.3029 -1.57598 0.00835791 0
M  V30 151 C 14.5499 -1.90928 -0.674732 0
M  V30 152 C 14.8779 -0.88277 -1.73313 0
M  V30 153 O 14.1329 0.111294 -1.95383 0
M  V30 154 C 14.4319 -3.3101 -1.34787 0
M  V30 155 C 14.0979 -4.48922 -0.421861 0
M  V30 156 C 12.7599 -4.8091 -0.166927 0
M  V30 157 C 15.1119 -5.20755 0.215211 0
M  V30 158 C 12.4399 -5.821 0.733232 0
M  V30 159 C 14.7919 -6.22905 1.1033 0
M  V30 160 C 13.4559 -6.53346 1.36733 0
M  V30 161 H 12.7259 -0.698656 -0.246902 0
M  V30 162 H 15.3729 -1.91387 0.0656779 0
M  V30 163 H 13.6779 -3.26714 -2.16253 0
M  V30 164 H 15.3749 -3.54061 -1.8826 0
M  V30 165 H 11.9649 -4.23934 -0.630729 0
M  V30 166 H 16.1489 -4.9629 0.0312829 0
M  V30 167 H 11.4049 -6.04042 0.945712 0
M  V30 168 H 15.5789 -6.77694 1.60325 0
M  V30 169 H 13.2059 -7.31573 2.06652 0
M  V30 170 N 14.781 0.264519 -1.55364 0
M  V30 171 C 15.744 1.31046 -1.88042 0
M  V30 172 C 16.744 1.41943 -0.755569 0
M  V30 173 O 17.934 1.40947 -1.02369 0
M  V30 174 C 15.066 2.69067 -2.09323 0
M  V30 175 H 16.259 1.03297 -2.81549 0
M  V30 176 H 13.812 0.502989 -1.47986 0
M  V30 177 H 14.547 3.01982 -1.18226 0
M  V30 178 H 14.332 2.62542 -2.91229 0
M  V30 179 H 15.822 3.44623 -2.35848 0
M  V30 180 N 16.2591 1.48442 0.529413 0
M  V30 181 C 17.2061 1.63007 1.63394 0
M  V30 182 C 18.1761 0.47212 1.59249 0
M  V30 183 O 19.3611 0.695673 1.77666 0
M  V30 184 C 16.5011 1.6763 3.01653 0
M  V30 185 C 15.6141 2.94535 3.16027 0
M  V30 186 C 14.7491 2.90316 4.44849 0
M  V30 187 C 13.7881 4.11923 4.52754 0
M  V30 188 N 12.9251 4.05777 5.72965 0
M  V30 189 H 17.7651 2.5733 1.50285 0
M  V30 190 H 15.3021 1.27613 0.731656 0
M  V30 191 H 17.2601 1.68292 3.81751 0
M  V30 192 H 15.8901 0.76797 3.13532 0
M  V30 193 H 14.9421 3.03615 2.29177 0
M  V30 194 H 16.2541 3.84512 3.17729 0
M  V30 195 H 15.4081 2.89382 5.33238 0
M  V30 196 H 14.1471 1.98068 4.45668 0
M  V30 197 H 13.1521 4.13131 3.62771 0
M  V30 198 H 14.3771 5.0533 4.53672 0
M  V30 199 H 12.3231 3.16351 5.74681 0
M  V30 200 H 12.2401 4.8946 5.76164 0
M  V30 201 H 13.5081 4.08904 6.6364 0
M  V30 202 N 17.7372 -0.778329 1.37039 0
M  V30 203 C 18.6672 -1.90546 1.34962 0
M  V30 204 C 19.6482 -1.68681 0.219274 0
M  V30 205 O 20.8332 -1.89634 0.418624 0
M  V30 206 C 17.9632 -3.27734 1.14925 0
M  V30 207 C 16.9172 -3.64147 2.24902 0
M  V30 208 C 16.2432 -4.99806 1.89996 0
M  V30 209 C 17.5432 -3.71579 3.67051 0
M  V30 210 H 19.2372 -1.92541 2.29277 0
M  V30 211 H 16.7832 -0.924948 1.10366 0
M  V30 212 H 18.7362 -4.06215 1.12104 0
M  V30 213 H 17.4602 -3.26154 0.170631 0
M  V30 214 H 16.1192 -2.8797 2.26868 0
M  V30 215 H 15.7672 -4.94759 0.906796 0
M  V30 216 H 15.4672 -5.25139 2.63634 0
M  V30 217 H 16.9912 -5.80694 1.88749 0
M  V30 218 H 18.4052 -4.40227 3.67251 0
M  V30 219 H 16.8022 -4.08405 4.39688 0
M  V30 220 H 17.8722 -2.72404 4.01154 0
M  V30 221 N 19.2153 -1.21501 -1.00376 0
M  V30 222 C 20.6313 -0.972629 -1.26539 0
M  V30 223 C 20.8313 0.340257 -1.98606 0
M  V30 224 O 19.8873 1.06561 -2.28913 0
M  V30 225 C 21.2003 -2.16404 -2.08781 0
M  V30 226 C 22.7483 -2.20643 -2.22004 0
M  V30 227 C 23.2233 -3.39306 -3.07629 0
M  V30 228 N 24.7143 -3.39401 -3.15217 0
M  V30 229 C 25.4493 -4.27867 -3.81729 0
M  V30 230 N 24.9453 -5.26533 -4.5026 0
M  V30 231 N 26.7383 -4.15672 -3.78382 0
M  V30 232 H 18.8893 -2.05929 -0.520281 0
M  V30 233 H 21.1523 -0.901803 -0.292328 0
M  V30 234 H 20.8583 -3.11554 -1.63178 0
M  V30 235 H 20.7323 -2.15567 -3.09533 0
M  V30 236 H 23.1193 -1.26048 -2.66825 0
M  V30 237 H 23.2003 -2.25523 -1.20718 0
M  V30 238 H 22.8443 -4.34195 -2.63509 0
M  V30 239 H 22.7743 -3.31665 -4.09031 0
M  V30 240 H 25.2653 -2.67997 -2.66432 0
M  V30 241 H 25.5783 -5.90337 -4.98721 0
M  V30 242 H 23.9233 -5.30457 -4.49044 0
M  V30 243 H 27.1143 -3.3785 -3.23998 0
M  V30 244 H 27.2873 -4.84825 -4.2994 0
M  V30 245 N 20.6934 1.19889 -1.02296 0
M  V30 246 C 21.6564 2.21116 -0.603351 0
M  V30 247 C 22.6564 1.5738 0.329884 0
M  V30 248 O 23.8464 1.73802 0.117702 0
M  V30 249 C 20.9784 3.40696 0.117992 0
M  V30 250 H 22.1714 2.59754 -1.49893 0
M  V30 251 H 19.7244 1.33463 -0.813468 0
M  V30 252 H 20.4594 3.07569 1.0282 0
M  V30 253 H 20.2444 3.88188 -0.552511 0
M  V30 254 H 21.7344 4.15692 0.398696 0
M  V30 255 N 22.1715 0.800033 1.35784 0
M  V30 256 C 23.1345 0.211565 2.28221 0
M  V30 257 C 24.1345 -0.59728 1.49296 0
M  V30 258 O 25.3245 -0.416721 1.69142 0
M  V30 259 C 22.4565 -0.705846 3.33513 0
M  V30 260 H 23.6495 1.02677 2.81776 0
M  V30 261 H 21.2025 0.570211 1.45528 0
M  V30 262 H 21.9375 -1.54498 2.85133 0
M  V30 263 H 21.7225 -0.127655 3.91892 0
M  V30 264 H 23.2125 -1.11211 4.02519 0
M  V30 265 N 23.6496 -1.47581 0.552962 0
M  V30 266 C 24.5816 -2.27997 -0.234533 0
M  V30 267 C 25.5946 -1.36753 -0.883321 0
M  V30 268 O 26.7836 -1.61612 -0.757889 0
M  V30 269 C 23.8836 -3.10879 -1.34935 0
M  V30 270 C 23.0566 -4.30056 -0.798158 0
M  V30 271 C 22.1156 -4.94567 -1.79694 0
M  V30 272 O 21.1416 -5.53087 -1.34474 0
M  V30 273 N 22.3436 -4.88878 -3.13015 0
M  V30 274 H 25.1086 -2.96222 0.455255 0
M  V30 275 H 22.6696 -1.57163 0.388761 0
M  V30 276 H 24.6616 -3.50903 -2.01616 0
M  V30 277 H 23.2316 -2.44924 -1.94244 0
M  V30 278 H 22.4516 -3.94174 0.0453079 0
M  V30 279 H 23.7396 -5.07152 -0.409173 0
M  V30 280 H 23.1376 -4.42526 -3.52402 0
M  V30 281 H 21.6946 -5.32934 -3.75266 0
M  V30 282 N 25.1277 -0.289203 -1.54924 0
M  V30 283 C 26.3577 0.325989 -2.04012 0
M  V30 284 C 26.7657 1.48961 -1.1665 0
M  V30 285 O 26.1087 1.82794 -0.1822 0
M  V30 286 C 26.1707 0.856112 -3.49158 0
M  V30 287 C 25.8347 -0.180697 -4.56643 0
M  V30 288 C 26.8317 -1.0051 -5.10092 0
M  V30 289 C 24.5167 -0.318998 -5.01286 0
M  V30 290 C 26.5107 -1.95385 -6.06715 0
M  V30 291 C 24.1977 -1.27121 -5.97732 0
M  V30 292 C 25.1957 -2.08713 -6.50329 0
M  V30 293 O 24.8837 -3.02322 -7.44887 0
M  V30 294 H 24.6157 0.0765276 -0.671654 0
M  V30 295 H 27.1697 -0.423254 -2.00992 0
M  V30 296 H 25.3997 1.65567 -3.49463 0
M  V30 297 H 27.0887 1.38591 -3.81507 0
M  V30 298 H 27.8547 -0.90906 -4.76404 0
M  V30 299 H 23.7337 0.306108 -4.59983 0
M  V30 300 H 27.2777 -2.59111 -6.47694 0
M  V30 301 H 23.1747 -1.36801 -6.30837 0
M  V30 302 H 23.9427 -2.97165 -7.6265 0
M  V30 303 N 26.6058 1.57591 -0.0167156 0
M  V30 304 C 27.5688 2.08393 0.954204 0
M  V30 305 C 28.5688 0.996531 1.26198 0
M  V30 306 O 29.7588 1.25858 1.20438 0
M  V30 307 C 26.8908 2.5394 2.27436 0
M  V30 308 H 28.0838 2.95455 0.514451 0
M  V30 309 H 25.6368 1.54582 0.231089 0
M  V30 310 H 26.3718 1.70171 2.76066 0
M  V30 311 H 26.1568 3.33371 2.06412 0
M  V30 312 H 27.6468 2.93512 2.97053 0
M  V30 313 N 28.0839 -0.256276 1.55502 0
M  V30 314 C 29.0469 -1.30047 1.88734 0
M  V30 315 C 30.0469 -1.4154 0.763086 0
M  V30 316 O 31.2369 -1.40403 1.03115 0
M  V30 317 C 28.3689 -2.67953 2.10747 0
M  V30 318 H 29.5619 -1.01802 2.82093 0
M  V30 319 H 27.1149 -0.495134 1.4825 0
M  V30 320 H 27.8499 -3.01351 1.19825 0
M  V30 321 H 27.6349 -2.60993 2.92617 0
M  V30 322 H 29.1249 -3.43368 2.37673 0
M  V30 323 N 29.562 -1.4872 -0.521534 0
M  V30 324 C 30.809 -1.57168 -1.27689 0
M  V30 325 C 31.137 -0.249275 -1.92896 0
M  V30 326 O 30.392 0.761162 -1.80291 0
M  V30 327 C 30.691 -2.66497 -2.38148 0
M  V30 328 C 30.357 -4.08664 -1.90538 0
M  V30 329 C 29.019 -4.47357 -1.77271 0
M  V30 330 C 31.371 -4.97724 -1.54663 0
M  V30 331 C 28.699 -5.72905 -1.26478 0
M  V30 332 C 31.051 -6.2377 -1.05329 0
M  V30 333 C 29.715 -6.61311 -0.906861 0
M  V30 334 H 28.985 -0.575117 -0.467249 0
M  V30 335 H 31.632 -1.82472 -0.581051 0
M  V30 336 H 29.937 -2.35085 -3.13437 0
M  V30 337 H 31.634 -2.70246 -2.96257 0
M  V30 338 H 28.224 -3.78111 -2.01816 0
M  V30 339 H 32.408 -4.68501 -1.63768 0
M  V30 340 H 27.664 -6.00709 -1.13835 0
M  V30 341 H 31.838 -6.9217 -0.76644 0
M  V30 342 H 29.465 -7.5848 -0.511083 0
M  V30 343 N 31.0401 0.771051 -1.3745 0
M  V30 344 C 31.9901 1.87456 -1.29785 0
M  V30 345 C 32.9741 1.59827 -0.185541 0
M  V30 346 O 34.1661 1.71945 -0.419997 0
M  V30 347 C 31.2951 3.24935 -1.1078 0
M  V30 348 C 30.3811 3.58514 -2.26558 0
M  V30 349 N 30.7721 3.6327 -3.5195 0
M  V30 350 C 29.0701 3.88683 -2.18727 0
M  V30 351 C 29.7711 3.93616 -4.283 0
M  V30 352 N 28.7471 4.09551 -3.57448 0
M  V30 353 H 32.5491 1.89386 -2.24745 0
M  V30 354 H 30.0631 0.967531 -1.30432 0
M  V30 355 H 32.0601 4.03881 -1.03374 0
M  V30 356 H 30.7201 3.24268 -0.16738 0
M  V30 357 H 31.7311 3.45458 -3.85848 0
M  V30 358 H 28.4081 3.95834 -1.32746 0
M  V30 359 H 29.7981 4.04066 -5.36824 0
M  V30 360 N 32.5182 1.22032 0.997298 0
M  V30 361 C 33.7462 1.06841 1.7718 0
M  V30 362 C 34.1612 -0.381325 1.84909 0
M  V30 363 O 33.5182 -1.26437 1.31605 0
M  V30 364 C 33.5692 1.66814 3.20711 0
M  V30 365 O 33.2902 3.06116 3.13408 0
M  V30 366 C 34.7912 1.56838 4.14628 0
M  V30 367 H 32.0112 0.374782 0.556578 0
M  V30 368 H 34.5552 1.61532 1.2541 0
M  V30 369 H 32.7102 1.16196 3.69564 0
M  V30 370 H 33.1242 3.34926 4.0364 0
M  V30 371 H 34.5982 2.03532 5.13107 0
M  V30 372 H 35.0752 0.524155 4.36061 0
M  V30 373 H 35.6812 2.06741 3.7167 0
M  V30 374 N 33.9963 -1.19345 1.0293 0
M  V30 375 C 35.2733 -1.84811 0.640642 0
M  V30 376 C 35.6533 -1.91855 -0.88062 0
M  V30 377 O 35.0013 -1.43587 -1.7775 0
M  V30 378 C 35.2113 -3.23755 1.30321 0
M  V30 379 C 36.5593 -3.99912 1.42673 0
M  V30 380 O 37.5833 -3.33155 1.26041 0
M  V30 381 O 36.4423 -5.19494 1.6967 0
M  V30 382 H 33.5363 -0.796443 0.222726 0
M  V30 383 H 36.0823 -1.26831 1.12748 0
M  V30 384 H 34.8543 -3.13466 2.34211 0
M  V30 385 H 34.4773 -3.89381 0.804261 0
M  V30 386 N 35.4744 -0.807222 -1.35358 0
M  V30 387 C 36.4374 -0.223665 -2.28106 0
M  V30 388 C 37.4374 0.589354 -1.4961 0
M  V30 389 O 38.6274 0.407745 -1.69361 0
M  V30 390 C 35.7594 0.688149 -3.33882 0
M  V30 391 H 36.9524 -1.04169 -2.81227 0
M  V30 392 H 34.5054 -0.577921 -1.45223 0
M  V30 393 H 35.2404 1.52984 -2.85948 0
M  V30 394 H 35.0254 0.10687 -3.91954 0
M  V30 395 H 36.5154 1.09075 -4.03104 0
M  V30 396 N 36.9525 1.47285 -0.560781 0
M  V30 397 C 38.3635 1.86258 -0.128343 0
M  V30 398 C 38.7145 1.46699 1.30284 0
M  V30 399 O 37.8395 0.871698 1.98067 0
M  V30 400 C 38.4345 3.38044 -0.22614 0
M  V30 401 C 36.9935 3.76096 0.151283 0
M  V30 402 C 36.1405 2.71335 -0.572084 0
M  V30 403 H 39.0915 1.38752 -0.770297 0
M  V30 404 H 39.1125 3.76441 0.554322 0
M  V30 405 H 38.6245 3.66806 -1.26788 0
M  V30 406 H 36.7255 3.52951 1.19399 0
M  V30 407 H 36.8385 4.78641 -0.209765 0
M  V30 408 H 35.2025 2.54696 -0.0147653 0
M  V30 409 H 35.9855 3.02938 -1.61504 0
M  V30 410 N 38.4306 0.297415 1.54768 0
M  V30 411 C 39.6786 -0.312295 1.99673 0
M  V30 412 C 39.9996 -1.54686 1.18732 0
M  V30 413 O 39.2696 -1.93854 0.282382 0
M  V30 414 H 37.8496 -0.118381 0.73756 0
M  V30 415 H 40.5116 0.407915 1.90583 0
M  V30 416 H 39.6076 -0.586813 3.06534 0
M  V30 417 N 39.9087 -1.5758 0.0250728 0
M  V30 418 C 41.1337 -1.96337 -0.668317 0
M  V30 419 C 41.5587 -0.901314 -1.651 0
M  V30 420 O 40.9167 0.138187 -1.80773 0
M  V30 421 C 40.9647 -3.34191 -1.35457 0
M  V30 422 O 40.0687 -3.30269 -2.46974 0
M  V30 423 H 39.4097 -0.640281 -0.175887 0
M  V30 424 H 41.9397 -2.0442 0.0857224 0
M  V30 425 H 41.9497 -3.70331 -1.71228 0
M  V30 426 H 40.6247 -4.11036 -0.634218 0
M  V30 427 H 39.2017 -3.05841 -2.13344 0
M  V30 428 N 41.3868 0.248026 -1.55636 0
M  V30 429 C 42.6328 0.973427 -1.78594 0
M  V30 430 C 42.9878 1.83007 -0.593823 0
M  V30 431 O 42.2808 1.87097 0.412961 0
M  V30 432 C 42.4748 1.86819 -3.04686 0
M  V30 433 C 42.3038 1.09965 -4.36048 0
M  V30 434 C 41.0738 0.805204 -4.98843 0
M  V30 435 C 43.2718 0.477783 -5.12076 0
M  V30 436 N 41.2538 0.0124859 -6.13899 0
M  V30 437 C 42.6248 -0.179565 -6.1974 0
M  V30 438 C 44.6798 0.388136 -4.96385 0
M  V30 439 C 43.3828 -0.91795 -7.13419 0
M  V30 440 C 45.4088 -0.336716 -5.90441 0
M  V30 441 C 44.7708 -0.982705 -6.97511 0
M  V30 442 H 40.8698 0.337348 -0.705493 0
M  V30 443 H 43.4538 0.24667 -1.93131 0
M  V30 444 H 41.6248 2.56698 -2.9148 0
M  V30 445 H 43.3568 2.52907 -3.15944 0
M  V30 446 H 40.1118 1.11671 -4.60246 0
M  V30 447 H 40.5358 -0.371933 -6.75978 0
M  V30 448 H 45.1778 0.873237 -4.13684 0
M  V30 449 H 42.8958 -1.41466 -7.95621 0
M  V30 450 H 46.4818 -0.406731 -5.80377 0
M  V30 451 H 45.3618 -1.53464 -7.69037 0
M  V30 452 N 42.8649 1.48995 0.513639 0
M  V30 453 C 44.1119 1.57843 1.26854 0
M  V30 454 C 44.4399 0.259501 1.92761 0
M  V30 455 O 43.6949 -0.75159 1.80692 0
M  V30 456 C 43.9939 2.67756 2.36731 0
M  V30 457 C 43.6599 4.09669 1.88368 0
M  V30 458 C 42.3219 4.48291 1.74896 0
M  V30 459 C 44.6739 4.98537 1.52021 0
M  V30 460 C 42.0019 5.73568 1.23438 0
M  V30 461 C 44.3539 6.24319 1.0202 0
M  V30 462 C 43.0179 6.61783 0.871778 0
M  V30 463 H 42.2879 0.577587 0.464192 0
M  V30 464 H 44.9349 1.82778 0.571366 0
M  V30 465 H 43.2399 2.36743 3.12185 0
M  V30 466 H 44.9369 2.71813 2.9482 0
M  V30 467 H 41.5269 3.79176 1.99808 0
M  V30 468 H 45.7109 4.69363 1.61281 0
M  V30 469 H 40.9669 6.01304 1.10648 0
M  V30 470 H 45.1409 6.92566 0.729722 0
M  V30 471 H 42.7679 7.5874 0.470852 0
M  V30 472 N 44.343 -0.763751 1.37857 0
M  V30 473 C 45.62 -1.51244 1.24035 0
M  V30 474 C 46 -2.10472 -0.162649 0
M  V30 475 O 45.348 -1.96206 -1.17112 0
M  V30 476 C 45.558 -2.58694 2.34261 0
M  V30 477 C 46.906 -3.25878 2.72193 0
M  V30 478 O 47.93 -2.68993 2.33497 0
M  V30 479 O 46.789 -4.2874 3.38887 0
M  V30 480 H 43.883 -0.670243 0.484462 0
M  V30 481 H 46.429 -0.800031 1.49658 0
M  V30 482 H 45.201 -2.13105 3.2818 0
M  V30 483 H 44.824 -3.37527 2.10146 0
M  V30 484 N 45.8211 -1.22559 -0.990812 0
M  V30 485 C 46.7711 -0.964807 -2.0658 0
M  V30 486 C 47.7551 0.0853472 -1.60673 0
M  V30 487 O 48.9471 -0.125443 -1.76555 0
M  V30 488 C 46.0761 -0.546707 -3.38919 0
M  V30 489 C 45.1621 -1.6317 -3.91454 0
M  V30 490 N 45.5531 -2.85985 -4.17189 0
M  V30 491 C 43.8511 -1.50387 -4.19881 0
M  V30 492 C 44.5521 -3.56159 -4.59919 0
M  V30 493 N 43.5281 -2.83637 -4.63736 0
M  V30 494 H 47.3301 -1.89769 -2.24421 0
M  V30 495 H 44.8441 -1.12343 -1.17273 0
M  V30 496 H 46.8411 -0.34119 -4.15502 0
M  V30 497 H 45.5011 0.379254 -3.22478 0
M  V30 498 H 46.5121 -3.22392 -4.05319 0
M  V30 499 H 43.1891 -0.644254 -4.12499 0
M  V30 500 H 44.5791 -4.6139 -4.88435 0
M  V30 501 N 47.2992 1.18797 -1.03562 0
M  V30 502 C 48.5272 1.92599 -0.755869 0
M  V30 503 C 48.9422 1.75886 0.686271 0
M  V30 504 O 48.2992 1.08517 1.46732 0
M  V30 505 C 48.3502 3.44159 -1.10619 0
M  V30 506 O 48.0712 3.60341 -2.4917 0
M  V30 507 C 49.5722 4.3507 -0.850214 0
M  V30 508 H 46.7922 0.611587 -0.276048 0
M  V30 509 H 49.3362 1.50742 -1.38192 0
M  V30 510 H 47.4912 3.83823 -0.525194 0
M  V30 511 H 47.9052 4.54128 -2.62427 0
M  V30 512 H 49.3792 5.39989 -1.14523 0
M  V30 513 H 49.8562 4.38673 0.215176 0
M  V30 514 H 50.4622 4.01097 -1.41426 0
M  V30 515 N 48.7773 0.814389 1.34928 0
M  V30 516 C 50.0023 0.410097 2.03305 0
M  V30 517 C 50.4273 -0.973464 1.60951 0
M  V30 518 O 49.7853 -1.63185 0.789964 0
M  V30 519 C 49.8333 0.51049 3.56968 0
M  V30 520 O 48.9373 -0.473035 4.09678 0
M  V30 521 H 48.2783 0.170088 0.641846 0
M  V30 522 H 50.8083 1.10244 1.72358 0
M  V30 523 H 50.8183 0.383135 4.06197 0
M  V30 524 H 49.4933 1.51963 3.87144 0
M  V30 525 H 48.0703 -0.305272 3.71648 0
M  V30 526 N 50.2554 -1.46986 0.568584 0
M  V30 527 C 51.5034 -2.02041 0.0487022 0
M  V30 528 C 51.8244 -1.44408 -1.31039 0
M  V30 529 O 51.0944 -0.623477 -1.85714 0
M  V30 530 H 49.6744 -0.746849 0.015014 0
M  V30 531 H 52.3364 -1.80257 0.741168 0
M  V30 532 H 51.4324 -3.12085 -0.0308961 0
M  V30 533 N 51.7335 -0.305618 -1.54608 0
M  V30 534 C 52.9795 0.302746 -2.00528 0
M  V30 535 C 53.3125 1.53184 -1.19367 0
M  V30 536 O 52.5875 1.92598 -0.271321 0
M  V30 537 C 52.8705 0.654756 -3.54097 0
M  V30 538 C 52.7235 -0.583793 -4.45995 0
M  V30 539 C 54.0425 1.47947 -4.14487 0
M  V30 540 H 51.1615 0.108564 -0.72896 0
M  V30 541 H 53.8035 -0.418634 -1.85331 0
M  V30 542 H 51.9535 1.26935 -3.67178 0
M  V30 543 H 53.6255 -1.22224 -4.44814 0
M  V30 544 H 51.8685 -1.21615 -4.16404 0
M  V30 545 H 52.5395 -0.293287 -5.5122 0
M  V30 546 H 55.0155 0.96013 -4.04871 0
M  V30 547 H 53.8915 1.69454 -5.22088 0
M  V30 548 H 54.1525 2.47011 -3.66658 0
M  V30 549 N 53.2116 1.57565 -0.0334293 0
M  V30 550 C 54.1416 2.13511 0.945265 0
M  V30 551 C 55.1226 1.05231 1.33643 0
M  V30 552 O 56.3076 1.33084 1.41429 0
M  V30 553 C 53.4376 2.6657 2.22616 0
M  V30 554 C 52.3916 3.79676 1.97561 0
M  V30 555 C 51.7176 4.1918 3.31952 0
M  V30 556 C 53.0176 5.0557 1.31135 0
M  V30 557 H 54.7116 2.95538 0.479325 0
M  V30 558 H 52.2576 1.42166 0.229115 0
M  V30 559 H 54.2106 3.04344 2.91466 0
M  V30 560 H 52.9346 1.8171 2.71384 0
M  V30 561 H 51.5936 3.42347 1.31127 0
M  V30 562 H 51.2416 3.31296 3.78487 0
M  V30 563 H 50.9416 4.95402 3.15992 0
M  V30 564 H 52.4656 4.59541 4.02063 0
M  V30 565 H 53.8796 5.40903 1.89992 0
M  V30 566 H 52.2766 5.86818 1.25559 0
M  V30 567 H 53.3466 4.84062 0.284894 0
M  V30 568 N 54.6897 -0.239769 1.55765 0
M  V30 569 C 55.5997 -1.31831 1.94056 0
M  V30 570 C 56.6157 -1.52275 0.841925 0
M  V30 571 O 57.7917 -1.65759 1.14394 0
M  V30 572 C 54.8567 -2.65156 2.23368 0
M  V30 573 C 53.9177 -2.53173 3.46701 0
M  V30 574 C 53.1507 -3.8014 3.74606 0
M  V30 575 O 53.3737 -4.82343 3.04469 0
M  V30 576 O 52.3077 -3.78344 4.68123 0
M  V30 577 H 56.1337 -1.02347 2.85935 0
M  V30 578 H 53.7187 -0.441123 1.42739 0
M  V30 579 H 55.6007 -3.43929 2.43497 0
M  V30 580 H 54.2757 -2.94358 1.34666 0
M  V30 581 H 53.1827 -1.72662 3.31871 0
M  V30 582 H 54.5157 -2.28915 4.35728 0
M  V30 583 N 56.1678 -1.49265 -0.50573 0
M  V30 584 C 57.3928 -1.62478 -1.28902 0
M  V30 585 C 57.8178 -0.294332 -1.85783 0
M  V30 586 O 57.1758 0.737412 -1.65626 0
M  V30 587 C 57.2238 -2.69268 -2.39848 0
M  V30 588 O 56.3278 -2.28113 -3.43567 0
M  V30 589 H 55.6688 -0.54399 -0.380751 0
M  V30 590 H 58.1988 -1.95421 -0.605952 0
M  V30 591 H 58.2088 -2.91291 -2.85681 0
M  V30 592 H 56.8838 -3.65846 -1.97812 0
M  V30 593 H 55.4608 -2.16401 -3.03685 0
M  V30 594 N 57.6459 0.756429 -1.3826 0
M  V30 595 C 58.8919 1.51772 -1.34511 0
M  V30 596 C 59.2249 1.94089 0.0656691 0
M  V30 597 O 58.4999 1.65221 1.02626 0
M  V30 598 C 58.7829 2.77226 -2.29821 0
M  V30 599 C 58.6359 2.41065 -3.79747 0
M  V30 600 C 59.9549 3.79236 -2.23312 0
M  V30 601 H 57.0739 0.550578 -0.489931 0
M  V30 602 H 59.7159 0.866607 -1.69086 0
M  V30 603 H 57.8659 3.32784 -2.00467 0
M  V30 604 H 59.5379 1.91303 -4.19763 0
M  V30 605 H 57.7809 1.7356 -3.97567 0
M  V30 606 H 58.4519 3.3081 -4.41892 0
M  V30 607 H 60.9279 3.3321 -2.49219 0
M  V30 608 H 59.8039 4.64714 -2.92116 0
M  V30 609 H 60.0649 4.24615 -1.23102 0
M  V30 610 N 59.124 1.23083 0.984299 0
M  V30 611 C 60.034 1.02515 2.11016 0
M  V30 612 C 61.05 -0.0291702 1.73976 0
M  V30 613 O 62.226 0.165434 2.00719 0
M  V30 614 C 59.291 0.614673 3.41208 0
M  V30 615 C 58.352 1.74359 3.92297 0
M  V30 616 C 57.585 1.35261 5.16275 0
M  V30 617 O 57.808 0.235136 5.69915 0
M  V30 618 O 56.742 2.17227 5.61334 0
M  V30 619 H 60.568 1.96862 2.31255 0
M  V30 620 H 58.153 1.01753 1.09392 0
M  V30 621 H 60.035 0.396518 4.1953 0
M  V30 622 H 58.71 -0.299851 3.22308 0
M  V30 623 H 57.617 2.01635 3.1511 0
M  V30 624 H 58.95 2.63629 4.15645 0
M  V30 625 N 60.6021 -1.18246 1.0419 0
M  V30 626 C 61.8791 -1.84121 0.660208 0
M  V30 627 C 62.2591 -1.92778 -0.860221 0
M  V30 628 O 61.6071 -1.45464 -1.76217 0
M  V30 629 C 61.8171 -3.22355 1.33747 0
M  V30 630 C 63.1651 -3.98376 1.46906 0
M  V30 631 O 64.1891 -3.31799 1.29568 0
M  V30 632 O 63.0481 -5.17665 1.75171 0
M  V30 633 H 60.1421 -0.794036 0.231161 0
M  V30 634 H 62.6881 -1.25628 1.14087 0
M  V30 635 H 61.4601 -3.10964 2.37522 0
M  V30 636 H 61.0831 -3.88506 0.845515 0
M  V30 637 N 62.0802 -0.821533 -1.34494 0
M  V30 638 C 63.3282 -0.408139 -1.97936 0
M  V30 639 C 63.6492 1.03193 -1.65457 0
M  V30 640 O 62.9192 1.71622 -0.944595 0
M  V30 641 H 61.4992 -0.147928 -0.732206 0
M  V30 642 H 64.1612 -1.05067 -1.64155 0
M  V30 643 H 63.2572 -0.52601 -3.07635 0
M  V30 644 N 63.5583 1.46682 -0.576371 0
M  V30 645 C 64.7863 2.06798 -0.0649635 0
M  V30 646 C 65.2013 1.42612 1.23723 0
M  V30 647 O 64.5583 0.529203 1.74659 0
M  V30 648 C 64.6093 3.6132 0.114202 0
M  V30 649 O 64.3303 4.23104 -1.13644 0
M  V30 650 C 65.8313 4.38349 0.66069 0
M  V30 651 H 63.0513 0.668778 -0.0545616 0
M  V30 652 H 65.5953 1.88404 -0.795237 0
M  V30 653 H 63.7503 3.79162 0.794673 0
M  V30 654 H 64.1643 5.15894 -0.946253 0
M  V30 655 H 65.6383 5.47081 0.73526 0
M  V30 656 H 66.1153 4.05953 1.67627 0
M  V30 657 H 66.7213 4.25297 0.0152951 0
M  V30 658 N 65.0364 0.313813 1.54444 0
M  V30 659 C 66.4474 -0.176243 1.85866 0
M  V30 660 C 66.7984 -1.52405 1.23561 0
M  V30 661 O 65.9234 -2.09605 0.538016 0
M  V30 662 C 66.5184 -0.32657 3.37222 0
M  V30 663 C 65.0774 -0.760846 3.6863 0
M  V30 664 C 64.2244 0.123247 2.77026 0
M  V30 665 H 67.1754 0.534418 1.49431 0
M  V30 666 H 67.1964 -1.15908 3.62416 0
M  V30 667 H 66.7084 0.654531 3.82541 0
M  V30 668 H 64.8094 -1.75204 3.28838 0
M  V30 669 H 64.9224 -0.571353 4.75681 0
M  V30 670 H 63.2864 -0.399597 2.51546 0
M  V30 671 H 64.0694 1.10094 3.25168 0
M  V30 672 N 66.5145 -1.57545 0.0417849 0
M  V30 673 C 67.7605 -1.92601 -0.635021 0
M  V30 674 C 68.0935 -0.919627 -1.71045 0
M  V30 675 O 67.3685 0.0557892 -1.9442 0
M  V30 676 C 67.6515 -3.38085 -1.23979 0
M  V30 677 C 67.5045 -4.49467 -0.173057 0
M  V30 678 C 68.8235 -3.83776 -2.15416 0
M  V30 679 H 65.9425 -0.700397 -0.229374 0
M  V30 680 H 68.5845 -1.89728 0.101633 0
M  V30 681 H 66.7345 -3.40664 -1.86762 0
M  V30 682 H 68.4065 -4.59018 0.458312 0
M  V30 683 H 66.6495 -4.30909 0.499996 0
M  V30 684 H 67.3205 -5.48323 -0.636054 0
M  V30 685 H 69.7965 -3.83013 -1.62605 0
M  V30 686 H 68.6725 -4.8624 -2.54679 0
M  V30 687 H 68.9335 -3.19998 -3.05047 0
M  V30 688 N 67.9926 0.231505 -1.5589 0
M  V30 689 C 68.9226 1.29022 -1.94617 0
M  V30 690 C 69.9036 1.4941 -0.813067 0
M  V30 691 O 71.0886 1.6176 -1.07459 0
M  V30 692 C 68.2186 2.64199 -2.25424 0
M  V30 693 C 67.1726 2.58484 -3.41131 0
M  V30 694 C 66.4986 3.97599 -3.57518 0
M  V30 695 C 67.7986 2.1413 -4.76388 0
M  V30 696 H 69.4926 0.968563 -2.83301 0
M  V30 697 H 67.0386 0.464479 -1.36303 0
M  V30 698 H 68.9916 3.38413 -2.51107 0
M  V30 699 H 67.7156 2.98032 -1.33583 0
M  V30 700 H 66.3746 1.86727 -3.15481 0
M  V30 701 H 66.0226 4.28723 -2.6307 0
M  V30 702 H 65.7226 3.94659 -4.35337 0
M  V30 703 H 67.2466 4.7349 -3.85538 0
M  V30 704 H 68.6606 2.78083 -5.01341 0
M  V30 705 H 67.0576 2.2227 -5.57419 0
M  V30 706 H 68.1276 1.09331 -4.72414 0
M  V30 707 N 69.4707 1.49531 0.497807 0
M  V30 708 C 70.4337 1.65916 1.58128 0
M  V30 709 C 71.4337 0.530825 1.51786 0
M  V30 710 O 72.6237 0.797342 1.54881 0
M  V30 711 C 69.7557 1.65951 2.9778 0
M  V30 712 H 70.9487 2.62556 1.44929 0
M  V30 713 H 68.5017 1.38611 0.722275 0
M  V30 714 H 69.2367 0.709065 3.16453 0
M  V30 715 H 69.0217 2.47897 3.03792 0
M  V30 716 H 70.5117 1.80673 3.76493 0
M  V30 717 N 70.9488 -0.749086 1.3866 0
M  V30 718 C 72.1978 -1.50371 1.3443 0
M  V30 719 C 72.5108 -1.95503 -0.0616397 0
M  V30 720 O 73.7168 -2.70554 -0.226489 0
M  V30 721 C 72.1728 -2.71644 2.36088 0
M  V30 722 C 71.7808 -2.3352 3.82325 0
M  V30 723 C 73.5248 -3.49518 2.40909 0
M  V30 724 C 71.4318 -3.51431 4.75658 0
M  V30 725 H 70.3618 -0.564628 0.499712 0
M  V30 726 H 73.0128 -0.818449 1.64237 0
M  V30 727 H 71.3948 -3.42175 1.9933 0
M  V30 728 H 72.5688 -1.70627 4.28046 0
M  V30 729 H 70.8838 -1.6877 3.80665 0
M  V30 730 H 73.4808 -4.37197 3.07836 0
M  V30 731 H 73.8238 -3.90992 1.42937 0
M  V30 732 H 74.3568 -2.86005 2.76489 0
M  V30 733 H 71.0958 -3.15019 5.74842 0
M  V30 734 H 70.6158 -4.13352 4.34627 0
M  V30 735 H 72.2948 -4.17953 4.93887 0
M  V30 736 N 72.4269 -1.23603 -0.977757 0
M  V30 737 C 73.6749 -1.06759 -1.71601 0
M  V30 738 C 73.9959 0.395929 -1.90938 0
M  V30 739 O 73.2659 1.28356 -1.47992 0
M  V30 740 H 71.8459 -0.392062 -0.635843 0
M  V30 741 H 74.5079 -1.55362 -1.1768 0
M  V30 742 H 73.6039 -1.55763 -2.70452 0
M  V30 743 N 73.905 1.17692 -1.04816 0
M  V30 744 C 75.151 1.88137 -0.75711 0
M  V30 745 C 75.484 1.80604 0.713841 0
M  V30 746 O 74.759 1.21146 1.52164 0
M  V30 747 C 75.042 3.38318 -1.2334 0
M  V30 748 C 74.895 3.54622 -2.76701 0
M  V30 749 C 76.214 4.32214 -0.829415 0
M  V30 750 H 73.333 0.683163 -0.27651 0
M  V30 751 H 75.975 1.38424 -1.30149 0
M  V30 752 H 74.125 3.80787 -0.770286 0
M  V30 753 H 75.797 3.21194 -3.31107 0
M  V30 754 H 74.04 2.97026 -3.16161 0
M  V30 755 H 74.711 4.60028 -3.05088 0
M  V30 756 H 77.187 3.97565 -1.22805 0
M  V30 757 H 76.063 5.35838 -1.19033 0
M  V30 758 H 76.324 4.41294 0.266891 0
M  V30 759 N 75.3831 0.828654 1.34056 0
M  V30 760 C 76.2931 0.256725 2.33191 0
M  V30 761 C 77.3091 -0.611898 1.62886 0
M  V30 762 O 78.4851 -0.51844 1.94613 0
M  V30 763 C 75.5501 -0.567238 3.42028 0
M  V30 764 C 74.6111 0.324458 4.28072 0
M  V30 765 C 73.8441 -0.460274 5.31712 0
M  V30 766 O 74.0671 -1.693 5.44696 0
M  V30 767 O 73.0011 0.160391 6.01686 0
M  V30 768 H 76.8271 1.07739 2.83947 0
M  V30 769 H 74.4121 0.59093 1.37217 0
M  V30 770 H 76.2941 -1.03582 4.08471 0
M  V30 771 H 74.9691 -1.36513 2.93506 0
M  V30 772 H 73.8761 0.840659 3.64532 0
M  V30 773 H 75.2091 1.08685 4.8005 0
M  V30 774 N 76.8612 -1.46375 0.584142 0
M  V30 775 C 78.0862 -2.07268 0.0740405 0
M  V30 776 C 78.5112 -1.42979 -1.22223 0
M  V30 777 O 77.8692 -0.514092 -1.73859 0
M  V30 778 C 77.9172 -3.60518 -0.0767769 0
M  V30 779 O 77.0212 -3.96533 -1.13292 0
M  V30 780 H 76.3622 -0.660961 0.0634524 0
M  V30 781 H 78.8922 -1.87991 0.807492 0
M  V30 782 H 78.9022 -4.07021 -0.282489 0
M  V30 783 H 77.5772 -4.06702 0.86986 0
M  V30 784 H 76.1542 -3.61738 -0.905553 0
M  V30 785 N 78.3393 -0.321999 -1.54275 0
M  V30 786 C 79.5873 0.280489 -2.00144 0
M  V30 787 C 79.9083 1.52777 -1.21178 0
M  V30 788 O 79.1783 1.9338 -0.313187 0
M  V30 789 H 77.7583 0.106632 -0.73935 0
M  V30 790 H 80.4203 -0.438184 -1.8991 0
M  V30 791 H 79.5163 0.537972 -3.07428 0
M  V30 792 N 79.8174 1.5752 -0.0501392 0
M  V30 793 C 81.0944 1.83996 0.663685 0
M  V30 794 C 81.4744 0.938339 1.89099 0
M  V30 795 O 80.8224 -0.00087759 2.285 0
M  V30 796 C 81.0324 3.33702 1.02196 0
M  V30 797 C 82.3804 4.00691 1.40469 0
M  V30 798 O 83.4044 3.38321 1.11433 0
M  V30 799 O 82.2634 5.10658 1.94654 0
M  V30 800 H 79.3574 0.759385 0.32751 0
M  V30 801 H 81.9034 1.69514 -0.0794238 0
M  V30 802 H 80.6754 3.91015 0.149364 0
M  V30 803 H 80.2984 3.53368 1.82255 0
M  V30 804 N 81.2955 -0.223234 1.56011 0
M  V30 805 C 82.2585 -1.26014 1.9145 0
M  V30 806 C 83.2585 -1.3989 0.792937 0
M  V30 807 O 84.4485 -1.38184 1.0607 0
M  V30 808 C 81.5805 -2.63422 2.16383 0
M  V30 809 H 82.7735 -0.95796 2.84189 0
M  V30 810 H 80.3265 -0.463576 1.49267 0
M  V30 811 H 81.0615 -2.98741 1.2619 0
M  V30 812 H 80.8465 -2.54728 2.98088 0
M  V30 813 H 82.3365 -3.38249 2.44903 0
M  V30 814 N 82.7736 -1.49793 -0.48987 0
M  V30 815 C 84.0226 -1.59085 -1.23995 0
M  V30 816 C 84.3356 -0.287907 -1.9347 0
M  V30 817 O 85.5416 -0.259506 -2.70257 0
M  V30 818 C 83.9976 -2.80736 -2.252 0
M  V30 819 C 83.6056 -4.17833 -1.61614 0
M  V30 820 C 85.3496 -2.99364 -3.00967 0
M  V30 821 C 83.2566 -5.30693 -2.60996 0
M  V30 822 H 82.1866 -0.592372 -0.466488 0
M  V30 823 H 84.8376 -1.76197 -0.51252 0
M  V30 824 H 83.2196 -2.57142 -3.01154 0
M  V30 825 H 84.3936 -4.51608 -0.915774 0
M  V30 826 H 82.7086 -4.04656 -0.981977 0
M  V30 827 H 85.3056 -3.80851 -3.75308 0
M  V30 828 H 85.6486 -2.10356 -3.59244 0
M  V30 829 H 86.1816 -3.2305 -2.32128 0
M  V30 830 H 82.9206 -6.21796 -2.07485 0
M  V30 831 H 82.4406 -5.01359 -3.2924 0
M  V30 832 H 84.1196 -5.6049 -3.23202 0
M  V30 833 N 84.2517 0.741722 -1.39055 0
M  V30 834 C 85.4977 1.50336 -1.36113 0
M  V30 835 C 85.8307 1.94148 0.0450796 0
M  V30 836 O 85.1057 1.66301 1.00868 0
M  V30 837 C 85.3887 2.74773 -2.32749 0
M  V30 838 C 85.2417 2.37023 -3.82283 0
M  V30 839 C 86.5607 3.76846 -2.27322 0
M  V30 840 H 83.6797 0.545351 -0.495743 0
M  V30 841 H 86.3217 0.848624 -1.69995 0
M  V30 842 H 84.4717 3.30639 -2.03986 0
M  V30 843 H 86.1437 1.8684 -4.21768 0
M  V30 844 H 84.3867 1.69334 -3.99385 0
M  V30 845 H 85.0577 3.26104 -4.45376 0
M  V30 846 H 87.5337 3.30548 -2.5274 0
M  V30 847 H 86.4097 4.6159 -2.97028 0
M  V30 848 H 86.6707 4.23286 -1.27599 0
M  V30 849 N 85.7298 1.2412 0.971189 0
M  V30 850 C 86.9768 1.07881 1.71371 0
M  V30 851 C 87.3048 -0.382901 1.90694 0
M  V30 852 O 86.5598 -1.29945 1.46331 0
M  V30 853 C 86.8588 1.75983 3.11071 0
M  V30 854 C 86.5248 3.25909 3.11599 0
M  V30 855 C 85.1868 3.66813 3.11451 0
M  V30 856 C 87.5388 4.21771 3.062 0
M  V30 857 C 84.8668 5.02021 3.03631 0
M  V30 858 C 87.2188 5.56982 2.99923 0
M  V30 859 C 85.8828 5.97237 2.98102 0
M  V30 860 H 85.1528 0.394764 0.62709 0
M  V30 861 H 87.7998 1.54176 1.13587 0
M  V30 862 H 86.1048 1.22072 3.72298 0
M  V30 863 H 87.8018 1.60887 3.6731 0
M  V30 864 H 84.3918 2.93353 3.12477 0
M  V30 865 H 88.5758 3.91172 3.05447 0
M  V30 866 H 83.8318 5.32411 3.0058 0
M  V30 867 H 88.0058 6.30969 2.94704 0
M  V30 868 H 85.6328 7.01967 2.91798 0
M  V30 869 N 87.2079 -1.17134 1.05439 0
M  V30 870 C 88.4849 -1.83411 0.679699 0
M  V30 871 C 88.8649 -1.9368 -0.839726 0
M  V30 872 O 88.2129 -1.47325 -1.74664 0
M  V30 873 C 88.4229 -3.20918 1.37159 0
M  V30 874 C 89.7709 -3.96796 1.51123 0
M  V30 875 O 90.7949 -3.30406 1.3308 0
M  V30 876 O 89.6539 -5.15778 1.80651 0
M  V30 877 H 86.7479 -0.79154 0.239569 0
M  V30 878 H 89.2939 -1.24411 1.15413 0
M  V30 879 H 88.0659 -3.08428 2.40807 0
M  V30 880 H 87.6889 -3.87587 0.886674 0
M  V30 881 N 88.686 -0.835752 -1.33615 0
M  V30 882 C 89.633 -0.26473 -2.29277 0
M  V30 883 C 90.603 0.617712 -1.54187 0
M  V30 884 O 91.788 0.556641 -1.825 0
M  V30 885 C 88.928 0.556777 -3.40579 0
M  V30 886 C 88.041 -0.349339 -4.30585 0
M  V30 887 C 87.176 0.482969 -5.29 0
M  V30 888 C 86.215 -0.421732 -6.10645 0
M  V30 889 N 85.352 0.372262 -7.01112 0
M  V30 890 H 90.192 -1.08582 -2.77514 0
M  V30 891 H 87.729 -0.546927 -1.36554 0
M  V30 892 H 89.687 1.04852 -4.03809 0
M  V30 893 H 88.317 1.34286 -2.93542 0
M  V30 894 H 87.369 -0.959372 -3.68104 0
M  V30 895 H 88.681 -1.04445 -4.87742 0
M  V30 896 H 87.835 1.03866 -5.97743 0
M  V30 897 H 86.574 1.21153 -4.72412 0
M  V30 898 H 85.579 -0.989464 -5.40823 0
M  V30 899 H 86.804 -1.14861 -6.69316 0
M  V30 900 H 84.75 1.08426 -6.46977 0
M  V30 901 H 84.667 -0.264198 -7.55538 0
M  V30 902 H 85.935 0.910293 -7.74167 0
M  V30 903 N 90.1641 1.46063 -0.591896 0
M  V30 904 C 91.1121 2.32124 0.148739 0
M  V30 905 C 92.1061 1.45035 0.875286 0
M  V30 906 O 93.3121 1.61609 0.792632 0
M  V30 907 H 89.6871 0.749024 0.066832 0
M  V30 908 H 91.6581 2.92392 -0.595783 0
M  V30 909 C 90.4071 3.28373 1.1431 0
M  V30 910 H 89.7301 3.95371 0.59346 0
M  V30 911 H 91.1701 3.91352 1.63155 0
M  V30 912 C 89.6291 2.54393 2.20875 0
M  V30 913 O 90.1591 2.31373 3.28374 0
M  V30 914 N 88.3651 2.14797 1.95731 0
M  V30 915 H 87.9121 2.33719 1.08319 0
M  V30 916 H 87.8701 1.65619 2.67241 0
M  V30 917 N 91.6422 0.330177 1.54103 0
M  V30 918 C 92.6052 -0.520144 2.2322 0
M  V30 919 C 93.6052 -1.03828 1.22786 0
M  V30 920 O 94.7952 -0.929652 1.4732 0
M  V30 921 C 91.9272 -1.72317 2.94142 0
M  V30 922 H 93.1202 0.0841605 2.99782 0
M  V30 923 H 90.6732 0.0813433 1.56088 0
M  V30 924 H 91.4082 -2.36653 2.21734 0
M  V30 925 H 91.1932 -1.35898 3.67796 0
M  V30 926 H 92.6832 -2.3266 3.46784 0
M  V30 927 N 93.1203 -1.57491 0.0584922 0
M  V30 928 C 94.0523 -2.08916 -0.942694 0
M  V30 929 C 95.0653 -1.0185 -1.27006 0
M  V30 930 O 96.2543 -1.29398 -1.22957 0
M  V30 931 C 93.3543 -2.52341 -2.26224 0
M  V30 932 C 92.5273 -3.82827 -2.1157 0
M  V30 933 C 91.5863 -4.12487 -3.26712 0
M  V30 934 O 90.6123 -4.82295 -3.02292 0
M  V30 935 N 91.8143 -3.64978 -4.5141 0
M  V30 936 H 94.5793 -2.95437 -0.503722 0
M  V30 937 H 92.1403 -1.61397 -0.12757 0
M  V30 938 H 94.1323 -2.69254 -3.02133 0
M  V30 939 H 92.7023 -1.7103 -2.61663 0
M  V30 940 H 91.9223 -3.75425 -1.20208 0
M  V30 941 H 93.2103 -4.68263 -1.99015 0
M  V30 942 H 92.6083 -3.08558 -4.7414 0
M  V30 943 H 91.1653 -3.87115 -5.2439 0
M  V30 944 N 94.5984 0.214957 -1.56127 0
M  V30 945 C 96.0144 0.564948 -1.49267 0
M  V30 946 C 96.2144 1.86827 -0.754838 0
M  V30 947 O 95.2704 2.50745 -0.297198 0
M  V30 948 C 96.5834 0.638071 -2.93852 0
M  V30 949 C 98.1314 0.728253 -3.0441 0
M  V30 950 C 98.6064 0.832663 -4.50367 0
M  V30 951 N 100.097 0.896712 -4.54437 0
M  V30 952 C 100.832 0.997324 -5.6466 0
M  V30 953 N 100.328 1.06147 -6.8462 0
M  V30 954 N 102.121 1.03297 -5.52527 0
M  V30 955 H 94.2724 -0.640211 -2.02522 0
M  V30 956 H 96.5354 -0.225507 -0.920788 0
M  V30 957 H 96.2414 -0.250126 -3.50809 0
M  V30 958 H 96.1154 1.49947 -3.46115 0
M  V30 959 H 98.5024 1.60689 -2.47514 0
M  V30 960 H 98.5834 -0.158952 -2.55306 0
M  V30 961 H 98.2274 -0.0415417 -5.07883 0
M  V30 962 H 98.1574 1.73538 -4.97184 0
M  V30 963 H 100.648 0.857188 -3.6805 0
M  V30 964 H 100.961 1.1382 -7.64372 0
M  V30 965 H 99.3064 1.03049 -6.87318 0
M  V30 966 H 102.497 0.979558 -4.57736 0
M  V30 967 H 102.67 1.10793 -6.38458 0
M  V30 968 N 96.0765 1.50051 0.48192 0
M  V30 969 C 97.3255 1.59741 1.23149 0
M  V30 970 C 97.6385 0.298163 1.93314 0
M  V30 971 O 98.8445 0.273835 2.70116 0
M  V30 972 C 97.3005 2.81926 2.23708 0
M  V30 973 C 96.9085 4.18685 1.59396 0
M  V30 974 C 98.6525 3.00956 2.99375 0
M  V30 975 C 96.5595 5.3207 2.58178 0
M  V30 976 H 95.4895 0.594838 0.46334 0
M  V30 977 H 98.1405 1.76467 0.503169 0
M  V30 978 H 96.5225 2.58736 2.99786 0
M  V30 979 H 97.6965 4.52088 0.891811 0
M  V30 980 H 96.0115 4.05171 0.960503 0
M  V30 981 H 98.6085 3.82836 3.73283 0
M  V30 982 H 98.9515 2.12258 3.58123 0
M  V30 983 H 99.4845 3.24277 2.30411 0
M  V30 984 H 96.2235 6.22888 2.04184 0
M  V30 985 H 95.7435 5.03098 3.26577 0
M  V30 986 H 97.4225 5.62196 3.20225 0
M  V30 987 N 97.5546 -0.734337 1.39446 0
M  V30 988 C 98.8006 -1.49613 1.36908 0
M  V30 989 C 99.1336 -1.94169 -0.0347829 0
M  V30 990 O 98.4086 -1.66833 -0.999847 0
M  V30 991 C 98.6916 -2.73534 2.34203 0
M  V30 992 C 98.5446 -2.34993 3.83534 0
M  V30 993 C 99.8636 -3.75635 2.29317 0
M  V30 994 H 96.9826 -0.542714 0.498629 0
M  V30 995 H 99.6246 -0.839597 1.70443 0
M  V30 996 H 97.7746 -3.29553 2.05736 0
M  V30 997 H 99.4466 -1.84601 4.22753 0
M  V30 998 H 97.6896 -1.67213 4.00278 0
M  V30 999 H 98.3606 -3.23738 4.47099 0
M  V30 1000 H 100.837 -3.29203 2.54489 0
M  V30 1001 H 99.7126 -4.60008 2.99472 0
M  V30 1002 H 99.9736 -4.22603 1.29842 0
M  V30 1003 N 99.0327 -1.24633 -0.964593 0
M  V30 1004 C 99.9957 -1.0424 -2.04124 0
M  V30 1005 C 100.996 0.00137563 -1.608 0
M  V30 1006 O 102.186 -0.239883 -1.7254 0
M  V30 1007 C 99.3177 -0.580588 -3.3592 0
M  V30 1008 H 100.511 -1.99803 -2.23649 0
M  V30 1009 H 98.0637 -1.06899 -1.14027 0
M  V30 1010 H 98.7987 0.3781 -3.22088 0
M  V30 1011 H 98.5837 -1.33398 -3.6871 0
M  V30 1012 H 100.074 -0.459034 -4.15069 0
M  V30 1013 N 100.511 1.16574 -1.06058 0
M  V30 1014 C 101.741 1.90675 -0.795397 0
M  V30 1015 C 102.149 1.77547 0.653735 0
M  V30 1016 O 101.492 1.11611 1.45907 0
M  V30 1017 C 101.554 3.42011 -1.10764 0
M  V30 1018 C 101.218 3.78924 -2.55471 0
M  V30 1019 C 102.215 3.81042 -3.53699 0
M  V30 1020 C 99.8998 4.09626 -2.90708 0
M  V30 1021 C 101.894 4.13346 -4.85205 0
M  V30 1022 C 99.5808 4.41597 -4.22416 0
M  V30 1023 C 100.579 4.43436 -5.19474 0
M  V30 1024 O 100.267 4.74649 -6.48817 0
M  V30 1025 H 99.9988 0.611554 -0.288058 0
M  V30 1026 H 102.553 1.48711 -1.41683 0
M  V30 1027 H 100.783 3.84312 -0.429128 0
M  V30 1028 H 102.472 3.97384 -0.827077 0
M  V30 1029 H 103.238 3.57437 -3.27817 0
M  V30 1030 H 99.1168 4.07361 -2.15819 0
M  V30 1031 H 102.661 4.14696 -5.60957 0
M  V30 1032 H 98.5578 4.64667 -4.48056 0
M  V30 1033 H 99.3258 4.9247 -6.5377 0
M  V30 1034 N 101.989 0.842826 1.3317 0
M  V30 1035 C 102.936 0.276885 2.29133 0
M  V30 1036 C 103.906 -0.609527 1.54512 0
M  V30 1037 O 105.091 -0.546955 1.82792 0
M  V30 1038 C 102.231 -0.538707 3.40869 0
M  V30 1039 C 101.344 0.372169 4.30394 0
M  V30 1040 C 100.479 -0.454908 5.29249 0
M  V30 1041 C 99.5179 0.45411 6.10413 0
M  V30 1042 N 98.6549 -0.335075 7.013 0
M  V30 1043 H 103.495 1.10052 2.76934 0
M  V30 1044 H 101.032 0.554161 1.36262 0
M  V30 1045 H 102.99 -1.02709 4.0436 0
M  V30 1046 H 101.62 -1.32727 2.9425 0
M  V30 1047 H 100.672 0.97888 3.6759 0
M  V30 1048 H 101.984 1.0703 4.87182 0
M  V30 1049 H 101.138 -1.00695 5.98285 0
M  V30 1050 H 99.8769 -1.18646 4.73048 0
M  V30 1051 H 98.8819 1.01813 5.40291 0
M  V30 1052 H 100.107 1.18409 6.68697 0
M  V30 1053 H 98.0529 -1.04994 6.47543 0
M  V30 1054 H 97.9699 0.304262 7.55387 0
M  V30 1055 H 99.2379 -0.869224 7.74638 0
M  V30 1056 N 103.467 -1.45747 0.599634 0
M  V30 1057 C 104.377 -2.34262 -0.125888 0
M  V30 1058 C 105.393 -1.50768 -0.868625 0
M  V30 1059 O 106.569 -1.83592 -0.828003 0
M  V30 1060 C 103.634 -3.28252 -1.11587 0
M  V30 1061 C 102.695 -4.27651 -0.375956 0
M  V30 1062 C 101.928 -5.1715 -1.31877 0
M  V30 1063 O 102.151 -5.09916 -2.55621 0
M  V30 1064 O 101.085 -5.96286 -0.820157 0
M  V30 1065 H 104.911 -2.97688 0.601315 0
M  V30 1066 H 102.496 -1.44999 0.359934 0
M  V30 1067 H 104.378 -3.86191 -1.68626 0
M  V30 1068 H 103.053 -2.67401 -1.82424 0
M  V30 1069 H 101.96 -3.7335 0.236698 0
M  V30 1070 H 103.293 -4.91334 0.29177 0
M  V30 1071 N 104.945 -0.338344 -1.53925 0
M  V30 1072 C 105.892 0.520845 -2.24846 0
M  V30 1073 C 106.862 1.09976 -1.24477 0
M  V30 1074 O 108.047 1.13735 -1.53196 0
M  V30 1075 C 105.187 1.6685 -3.02084 0
M  V30 1076 C 104.3 1.11739 -4.17299 0
M  V30 1077 C 103.435 2.23193 -4.82036 0
M  V30 1078 C 102.474 1.65407 -5.89328 0
M  V30 1079 N 101.611 2.70582 -6.47866 0
M  V30 1080 H 106.451 -0.0904881 -2.97863 0
M  V30 1081 H 103.988 -0.0564282 -1.46992 0
M  V30 1082 H 105.946 2.34407 -3.45122 0
M  V30 1083 H 104.576 2.2509 -2.31375 0
M  V30 1084 H 103.628 0.332919 -3.7894 0
M  V30 1085 H 104.94 0.654677 -4.94485 0
M  V30 1086 H 104.094 2.98626 -5.28117 0
M  V30 1087 H 102.833 2.72807 -4.04262 0
M  V30 1088 H 101.838 0.884779 -5.42634 0
M  V30 1089 H 103.063 1.16652 -6.69006 0
M  V30 1090 H 101.009 3.1946 -5.72959 0
M  V30 1091 H 100.926 2.28917 -7.20509 0
M  V30 1092 H 102.194 3.45799 -6.98601 0
M  V30 1093 N 106.423 1.57458 -0.0668435 0
M  V30 1094 C 107.648 1.9804 0.616027 0
M  V30 1095 C 108.073 0.944771 1.62652 0
M  V30 1096 O 107.431 -0.0902094 1.81075 0
M  V30 1097 C 107.479 3.37665 1.26549 0
M  V30 1098 O 106.583 3.36701 2.38131 0
M  V30 1099 H 105.924 0.644719 0.158849 0
M  V30 1100 H 108.454 2.04121 -0.139891 0
M  V30 1101 H 108.464 3.7474 1.6135 0
M  V30 1102 H 107.139 4.12573 0.525016 0
M  V30 1103 H 105.716 3.1139 2.0516 0
M  V30 1104 N 107.901 -0.206675 1.56239 0
M  V30 1105 C 109.147 -0.930218 1.80208 0
M  V30 1106 C 109.48 -1.83387 0.638981 0
M  V30 1107 O 108.755 -1.91119 -0.361066 0
M  V30 1108 C 109.038 -1.75641 3.1436 0
M  V30 1109 C 108.891 -0.878257 4.41142 0
M  V30 1110 C 110.21 -2.73129 3.45092 0
M  V30 1111 H 107.329 -0.336742 0.655571 0
M  V30 1112 H 109.971 -0.198222 1.88963 0
M  V30 1113 H 108.121 -2.38048 3.07027 0
M  V30 1114 H 109.793 -0.269787 4.6051 0
M  V30 1115 H 108.036 -0.184385 4.33408 0
M  V30 1116 H 108.707 -1.49106 5.3148 0
M  V30 1117 H 111.183 -2.20856 3.52649 0
M  V30 1118 H 110.059 -3.28028 4.40101 0
M  V30 1119 H 110.32 -3.51606 2.68003 0
M  V30 1120 N 109.379 -1.50304 -0.473955 0
M  V30 1121 C 110.326 -1.68959 -1.57231 0
M  V30 1122 C 111.296 -0.530899 -1.57387 0
M  V30 1123 O 112.481 -0.761133 -1.74961 0
M  V30 1124 C 109.621 -1.7871 -2.95223 0
M  V30 1125 C 108.734 -3.06061 -3.04878 0
M  V30 1126 C 107.869 -3.06626 -4.33767 0
M  V30 1127 C 106.908 -4.28443 -4.37154 0
M  V30 1128 N 106.045 -4.26763 -5.5751 0
M  V30 1129 H 110.885 -2.6273 -1.40631 0
M  V30 1130 H 108.422 -1.30241 -0.683789 0
M  V30 1131 H 110.38 -1.82344 -3.75242 0
M  V30 1132 H 109.01 -0.883806 -3.10465 0
M  V30 1133 H 108.062 -3.11911 -2.17751 0
M  V30 1134 H 109.374 -3.96039 -3.0324 0
M  V30 1135 H 108.528 -3.08973 -5.22131 0
M  V30 1136 H 107.267 -2.14473 -4.3801 0
M  V30 1137 H 106.272 -4.2631 -3.47188 0
M  V30 1138 H 107.497 -5.2182 -4.34605 0
M  V30 1139 H 105.443 -3.37462 -5.62544 0
M  V30 1140 H 105.36 -5.10507 -5.57601 0
M  V30 1141 H 106.628 -4.33253 -6.48006 0
M  V30 1142 N 110.857 0.726932 -1.39834 0
M  V30 1143 C 111.82 1.82269 -1.38962 0
M  V30 1144 C 112.82 1.58248 -0.285334 0
M  V30 1145 O 114.01 1.65499 -0.54366 0
M  V30 1146 C 111.142 3.20186 -1.17019 0
M  V30 1147 H 112.335 1.84443 -2.36476 0
M  V30 1148 H 109.888 0.931416 -1.25516 0
M  V30 1149 H 110.623 3.23669 -0.202204 0
M  V30 1150 H 110.408 3.3902 -1.96998 0
M  V30 1151 H 111.898 4.00235 -1.1917 0
M  V30 1152 N 112.336 1.25143 0.95797 0
M  V30 1153 C 113.246 1.06968 2.08794 0
M  V30 1154 C 114.262 0.00773911 1.73998 0
M  V30 1155 O 115.438 0.207972 2.00323 0
M  V30 1156 C 112.503 0.68691 3.39827 0
M  V30 1157 C 111.564 1.82641 3.88511 0
M  V30 1158 C 110.797 1.46181 5.1329 0
M  V30 1159 O 111.02 0.355971 5.69288 0
M  V30 1160 O 109.954 2.29085 5.566 0
M  V30 1161 H 113.78 2.01723 2.27027 0
M  V30 1162 H 111.365 1.04051 1.07209 0
M  V30 1163 H 113.247 0.485417 4.18595 0
M  V30 1164 H 111.922 -0.231417 3.22872 0
M  V30 1165 H 110.829 2.08274 3.10762 0
M  V30 1166 H 112.162 2.72386 4.09959 0
M  V30 1167 N 113.814 -1.1601 1.06675 0
M  V30 1168 C 115.091 -1.82679 0.699114 0
M  V30 1169 C 115.471 -1.94559 -0.819137 0
M  V30 1170 O 114.819 -1.49169 -1.73092 0
M  V30 1171 C 115.029 -3.19445 1.40555 0
M  V30 1172 C 116.377 -3.95171 1.55323 0
M  V30 1173 O 117.401 -3.28976 1.36577 0
M  V30 1174 O 116.26 -5.13833 1.86112 0
M  V30 1175 H 113.354 -0.788954 0.247951 0
M  V30 1176 H 115.9 -1.23179 1.16726 0
M  V30 1177 H 114.672 -3.05856 2.44065 0
M  V30 1178 H 114.295 -3.86625 0.927733 0
M  V30 1179 N 115.292 -0.849877 -1.32721 0
M  V30 1180 C 116.54 -0.450032 -1.97026 0
M  V30 1181 C 116.861 0.996604 -1.67609 0
M  V30 1182 O 116.131 1.6958 -0.980786 0
M  V30 1183 H 114.711 -0.163426 -0.728904 0
M  V30 1184 H 117.373 -1.08526 -1.6189 0
M  V30 1185 H 116.469 -0.591146 -3.0645 0
M  V30 1186 N 116.77 1.45427 -0.607355 0
M  V30 1187 C 117.995 2.07124 -0.107006 0
M  V30 1188 C 118.42 1.44906 1.19933 0
M  V30 1189 O 117.778 0.541687 1.73019 0
M  V30 1190 C 117.826 3.60595 0.0194119 0
M  V30 1191 O 116.93 3.98285 1.0697 0
M  V30 1192 H 116.271 0.659868 -0.0739597 0
M  V30 1193 H 118.801 1.86683 -0.837297 0
M  V30 1194 H 118.811 4.07419 0.2177 0
M  V30 1195 H 117.486 4.05266 -0.934453 0
M  V30 1196 H 116.063 3.63133 0.847889 0
M  V30 1197 N 118.248 0.346503 1.53744 0
M  V30 1198 C 119.494 -0.249473 2.0126 0
M  V30 1199 C 119.827 -1.49965 1.23386 0
M  V30 1200 O 119.102 -1.91811 0.32229 0
M  V30 1201 C 119.385 -0.560643 3.55709 0
M  V30 1202 C 119.238 0.701836 4.44291 0
M  V30 1203 C 120.557 -1.36905 4.18264 0
M  V30 1204 H 117.676 -0.0891987 0.731582 0
M  V30 1205 H 120.318 0.467624 1.84156 0
M  V30 1206 H 118.468 -1.17156 3.70414 0
M  V30 1207 H 120.14 1.33974 4.41417 0
M  V30 1208 H 118.383 1.32612 4.13033 0
M  V30 1209 H 119.054 0.43933 5.50249 0
M  V30 1210 H 121.53 -0.852448 4.07275 0
M  V30 1211 H 120.406 -1.55553 5.26398 0
M  V30 1212 H 120.667 -2.37203 3.73078 0
M  V30 1213 N 119.726 -1.57421 0.075193 0
M  V30 1214 C 120.951 -1.98364 -0.605515 0
M  V30 1215 C 121.376 -0.953383 -1.62149 0
M  V30 1216 O 120.734 0.0806053 -1.81121 0
M  V30 1217 C 120.782 -3.38332 -1.24756 0
M  V30 1218 O 119.886 -3.37959 -2.36342 0
M  V30 1219 H 119.227 -0.645553 -0.155428 0
M  V30 1220 H 121.757 -2.04044 0.150714 0
M  V30 1221 H 121.767 -3.75591 -1.5936 0
M  V30 1222 H 120.442 -4.12846 -0.503129 0
M  V30 1223 H 119.019 -3.12474 -2.03506 0
M  V30 1224 N 121.204 0.198386 -1.56346 0
M  V30 1225 C 122.45 0.920648 -1.80698 0
M  V30 1226 C 122.783 1.83045 -0.648697 0
M  V30 1227 O 122.058 1.91308 0.350925 0
M  V30 1228 C 122.341 1.73971 -3.15287 0
M  V30 1229 C 122.194 0.85485 -4.41602 0
M  V30 1230 C 123.513 2.71296 -3.46535 0
M  V30 1231 H 120.632 0.333261 -0.657348 0
M  V30 1232 H 123.274 0.188198 -1.89066 0
M  V30 1233 H 121.424 2.36416 -3.08285 0
M  V30 1234 H 123.096 0.245362 -4.60647 0
M  V30 1235 H 121.339 0.161398 -4.335 0
M  V30 1236 H 122.01 1.46286 -5.32264 0
M  V30 1237 H 124.486 2.18983 -3.53816 0
M  V30 1238 H 123.362 3.2569 -4.41834 0
M  V30 1239 H 123.623 3.5018 -2.69864 0
M  V30 1240 N 122.682 1.50554 0.465978 0
M  V30 1241 C 123.928 1.62038 1.21949 0
M  V30 1242 C 124.261 0.322116 1.9151 0
M  V30 1243 O 123.536 -0.676723 1.82348 0
M  V30 1244 C 123.819 2.80421 2.25912 0
M  V30 1245 C 123.672 4.20144 1.60622 0
M  V30 1246 C 124.991 2.94354 3.27176 0
M  V30 1247 H 122.11 0.589752 0.441998 0
M  V30 1248 H 124.752 1.82956 0.51257 0
M  V30 1249 H 122.902 2.62717 2.86203 0
M  V30 1250 H 124.574 4.49449 1.03889 0
M  V30 1251 H 122.817 4.24165 0.909211 0
M  V30 1252 H 123.488 4.98914 2.36196 0
M  V30 1253 H 125.964 3.10578 2.76913 0
M  V30 1254 H 124.84 3.788 3.97242 0
M  V30 1255 H 125.101 2.05186 3.916 0
M  V30 1256 N 124.16 -0.719506 1.40217 0
M  V30 1257 C 125.092 -1.84428 1.36084 0
M  V30 1258 C 126.105 -1.60597 0.266913 0
M  V30 1259 O 127.294 -1.70544 0.526983 0
M  V30 1260 C 124.394 -3.20757 1.094 0
M  V30 1261 C 123.567 -3.71817 2.30372 0
M  V30 1262 C 122.626 -4.86748 1.99907 0
M  V30 1263 O 121.652 -4.99603 2.72737 0
M  V30 1264 N 122.854 -5.7226 0.974635 0
M  V30 1265 H 125.619 -1.88473 2.33019 0
M  V30 1266 H 123.18 -0.900885 1.3452 0
M  V30 1267 H 125.172 -3.95235 0.870116 0
M  V30 1268 H 123.742 -3.11884 0.211452 0
M  V30 1269 H 122.962 -2.88514 2.68614 0
M  V30 1270 H 124.25 -4.02666 3.11026 0
M  V30 1271 H 123.648 -5.6448 0.371368 0
M  V30 1272 H 122.205 -6.46739 0.810656 0
M  V30 1273 N 125.638 -1.25649 -0.95132 0
M  V30 1274 C 126.884 -1.10757 -1.69884 0
M  V30 1275 C 127.217 0.350061 -1.91019 0
M  V30 1276 O 126.492 1.25783 -1.48354 0
M  V30 1277 C 126.775 -1.86606 -3.07978 0
M  V30 1278 C 126.628 -3.40217 -2.94232 0
M  V30 1279 C 127.947 -1.65182 -4.07925 0
M  V30 1280 H 125.066 -0.40374 -0.616574 0
M  V30 1281 H 127.708 -1.54521 -1.10558 0
M  V30 1282 H 125.858 -1.49409 -3.58621 0
M  V30 1283 H 127.53 -3.87108 -2.50889 0
M  V30 1284 H 125.773 -3.67759 -2.30078 0
M  V30 1285 H 126.444 -3.88505 -3.92133 0
M  V30 1286 H 128.92 -1.9757 -3.66204 0
M  V30 1287 H 127.796 -2.20683 -5.02583 0
M  V30 1288 H 128.057 -0.593933 -4.38092 0
M  V30 1289 N 127.117 1.15442 -1.07289 0
M  V30 1290 C 128.027 2.23786 -0.704057 0
M  V30 1291 C 129.043 1.7166 0.284413 0
M  V30 1292 O 130.219 2.00972 0.131205 0
M  V30 1293 C 127.284 3.46535 -0.106792 0
M  V30 1294 C 126.345 4.13654 -1.14842 0
M  V30 1295 C 125.578 5.30544 -0.57956 0
M  V30 1296 O 125.801 5.67187 0.604585 0
M  V30 1297 O 124.735 5.87154 -1.32414 0
M  V30 1298 H 128.561 2.57664 -1.60757 0
M  V30 1299 H 126.146 1.23152 -0.845803 0
M  V30 1300 H 128.028 4.20804 0.224048 0
M  V30 1301 H 126.703 3.14407 0.770049 0
M  V30 1302 H 125.61 3.4131 -1.5316 0
M  V30 1303 H 126.943 4.49861 -1.99714 0
M  V30 1304 N 128.595 0.856903 1.32268 0
M  V30 1305 C 129.543 0.291987 2.3076 0
M  V30 1306 C 130.537 -0.585857 1.58947 0
M  V30 1307 O 131.743 -0.47341 1.73663 0
M  V30 1308 H 128.118 0.075721 0.748178 0
M  V30 1309 H 130.089 1.13687 2.75895 0
M  V30 1310 C 128.838 -0.502869 3.44044 0
M  V30 1311 H 128.161 0.163328 3.99466 0
M  V30 1312 H 129.601 -0.863691 4.1511 0
M  V30 1313 C 128.06 -1.68898 2.91505 0
M  V30 1314 O 128.59 -2.78811 2.89184 0
M  V30 1315 N 126.796 -1.51679 2.47875 0
M  V30 1316 H 126.343 -0.622666 2.49961 0
M  V30 1317 H 126.301 -2.31184 2.13076 0
M  V30 1318 N 130.073 -1.45103 0.615059 0
M  V30 1319 C 131.321 -2.01784 0.112955 0
M  V30 1320 C 131.642 -1.48504 -1.26378 0
M  V30 1321 O 130.912 -0.682245 -1.83636 0
M  V30 1322 H 129.492 -0.745993 0.0387668 0
M  V30 1323 H 132.154 -1.77808 0.798141 0
M  V30 1324 H 131.25 -3.12025 0.0684069 0
M  V30 1325 N 131.551 -0.354651 -1.53558 0
M  V30 1326 C 132.798 0.238443 -2.01091 0
M  V30 1327 C 133.126 1.49663 -1.24222 0
M  V30 1328 O 132.381 1.93049 -0.321003 0
M  V30 1329 C 132.68 0.587121 -3.52545 0
M  V30 1330 C 132.346 -0.575472 -4.47213 0
M  V30 1331 C 131.008 -0.894497 -4.72813 0
M  V30 1332 C 133.36 -1.35489 -5.03281 0
M  V30 1333 C 130.688 -1.99511 -5.51736 0
M  V30 1334 C 133.04 -2.44583 -5.83405 0
M  V30 1335 C 131.704 -2.77033 -6.07296 0
M  V30 1336 H 130.974 0.0872526 -0.735845 0
M  V30 1337 H 133.621 -0.484859 -1.8526 0
M  V30 1338 H 131.926 1.39129 -3.66265 0
M  V30 1339 H 133.623 1.05809 -3.86789 0
M  V30 1340 H 130.213 -0.316774 -4.27428 0
M  V30 1341 H 134.397 -1.12167 -4.83459 0
M  V30 1342 H 129.653 -2.25063 -5.68469 0
M  V30 1343 H 133.827 -3.05401 -6.25862 0
M  V30 1344 H 131.454 -3.6244 -6.68237 0
M  V30 1345 N 133.029 1.57378 -0.0835403 0
M  V30 1346 C 133.962 2.09016 0.915833 0
M  V30 1347 C 134.94 0.997993 1.2837 0
M  V30 1348 O 136.124 1.27219 1.39096 0
M  V30 1349 C 133.251 2.55757 2.22049 0
M  V30 1350 C 132.297 3.76522 2.00333 0
M  V30 1351 S 133.13 5.20661 1.25191 0
M  V30 1352 C 134.286 5.70743 2.56912 0
M  V30 1353 H 134.519 2.93457 0.476492 0
M  V30 1354 H 132.052 1.53856 0.129493 0
M  V30 1355 H 134.01 2.83346 2.97027 0
M  V30 1356 H 132.671 1.71564 2.63106 0
M  V30 1357 H 131.864 4.07256 2.96916 0
M  V30 1358 H 131.466 3.49367 1.33488 0
M  V30 1359 H 133.758 5.78304 3.52946 0
M  V30 1360 H 134.701 6.6944 2.30772 0
M  V30 1361 H 135.109 4.98616 2.64655 0
M  V30 1362 N 134.507 -0.190092 1.56449 0
M  V30 1363 C 135.454 -1.23557 1.94942 0
M  V30 1364 C 136.424 -1.44972 0.810696 0
M  V30 1365 O 137.609 -1.58023 1.06927 0
M  V30 1366 C 134.749 -2.57416 2.2985 0
M  V30 1367 C 133.862 -2.43537 3.5681 0
M  V30 1368 C 132.997 -3.70134 3.81017 0
M  V30 1369 C 132.036 -3.51109 5.01387 0
M  V30 1370 N 131.173 -4.6973 5.21822 0
M  V30 1371 H 136.013 -0.900304 2.84075 0
M  V30 1372 H 133.55 -0.43318 1.40577 0
M  V30 1373 H 135.508 -3.35409 2.48106 0
M  V30 1374 H 134.138 -2.88975 1.43852 0
M  V30 1375 H 133.19 -1.56816 3.46573 0
M  V30 1376 H 134.502 -2.25415 4.4496 0
M  V30 1377 H 133.656 -4.56566 3.9954 0
M  V30 1378 H 132.395 -3.91215 2.91207 0
M  V30 1379 H 131.4 -2.63063 4.82782 0
M  V30 1380 H 132.625 -3.31468 5.9271 0
M  V30 1381 H 130.571 -4.91065 4.34961 0
M  V30 1382 H 130.488 -4.54452 6.0416 0
M  V30 1383 H 131.756 -5.57499 5.44808 0
M  V30 1384 N 135.985 -1.50799 -0.457987 0
M  V30 1385 C 136.917 -1.66786 -1.57211 0
M  V30 1386 C 137.93 -0.548962 -1.53265 0
M  V30 1387 O 139.119 -0.8226 -1.58416 0
M  V30 1388 C 136.219 -1.64834 -2.96113 0
M  V30 1389 C 135.392 -2.92971 -3.24787 0
M  V30 1390 C 134.451 -2.83485 -4.43309 0
M  V30 1391 O 133.477 -3.5744 -4.42973 0
M  V30 1392 N 134.679 -1.97929 -5.45714 0
M  V30 1393 H 137.444 -2.62889 -1.43909 0
M  V30 1394 H 135.005 -1.48427 -0.646617 0
M  V30 1395 H 136.997 -1.56084 -3.7339 0
M  V30 1396 H 135.567 -0.764118 -3.03117 0
M  V30 1397 H 134.787 -3.15749 -2.36 0
M  V30 1398 H 136.075 -3.77834 -3.40762 0
M  V30 1399 H 135.473 -1.37182 -5.48815 0
M  V30 1400 H 134.03 -1.95073 -6.21924 0
M  V30 1401 N 137.463 0.71206 -1.40597 0
M  V30 1402 C 138.711 1.46907 -1.38791 0
M  V30 1403 C 139.032 1.94998 0.00780391 0
M  V30 1404 O 138.302 1.70587 0.963174 0
M  V30 1405 H 136.882 0.545043 -0.51082 0
M  V30 1406 H 139.544 0.843882 -1.75683 0
M  V30 1407 H 138.64 2.34021 -2.06496 0
M  V30 1408 N 138.941 1.26152 0.944643 0
M  V30 1409 C 139.891 1.04081 2.02857 0
M  V30 1410 C 140.875 -0.0256555 1.6088 0
M  V30 1411 O 142.067 0.190884 1.75968 0
M  V30 1412 C 139.196 0.672118 3.36656 0
M  V30 1413 C 138.282 1.77586 3.85128 0
M  V30 1414 N 138.673 3.01272 4.06287 0
M  V30 1415 C 136.971 1.65867 4.1401 0
M  V30 1416 C 137.672 3.72983 4.46384 0
M  V30 1417 N 136.648 3.00653 4.52889 0
M  V30 1418 H 140.45 1.97968 2.17223 0
M  V30 1419 H 137.964 1.16618 1.13022 0
M  V30 1420 H 139.961 0.495166 4.13949 0
M  V30 1421 H 138.621 -0.259307 3.23663 0
M  V30 1422 H 139.632 3.37213 3.93075 0
M  V30 1423 H 136.309 0.796907 4.09824 0
M  V30 1424 H 137.699 4.792 4.70975 0
M  V30 1425 N 140.419 -1.14872 1.07899 0
M  V30 1426 C 141.835 -1.37776 0.805606 0
M  V30 1427 C 142.035 -1.92743 -0.587555 0
M  V30 1428 O 141.091 -2.13678 -1.34528 0
M  V30 1429 C 142.404 -2.34361 1.88402 0
M  V30 1430 C 143.952 -2.48012 1.90942 0
M  V30 1431 C 144.427 -3.47893 2.97883 0
M  V30 1432 N 145.918 -3.55433 2.97021 0
M  V30 1433 C 146.653 -4.32553 3.76412 0
M  V30 1434 N 146.149 -5.12959 4.65666 0
M  V30 1435 N 147.942 -4.27697 3.64735 0
M  V30 1436 H 140.093 -0.775365 1.97742 0
M  V30 1437 H 142.356 -0.403521 0.857831 0
M  V30 1438 H 142.062 -2.01098 2.88535 0
M  V30 1439 H 141.936 -3.34206 1.74889 0
M  V30 1440 H 144.323 -2.8057 0.914579 0
M  V30 1441 H 144.404 -1.48147 2.08534 0
M  V30 1442 H 144.048 -3.16069 3.97571 0
M  V30 1443 H 143.978 -4.47527 2.77538 0
M  V30 1444 H 146.469 -2.98048 2.32326 0
M  V30 1445 H 146.782 -5.69065 5.22862 0
M  V30 1446 H 145.127 -5.12245 4.69712 0
M  V30 1447 H 148.318 -3.63949 2.94378 0
M  V30 1448 H 148.491 -4.8755 4.26848 0
M  V30 1449 N 141.898 -0.863906 -1.31812 0
M  V30 1450 C 143.146 -0.470904 -1.96537 0
M  V30 1451 C 143.467 0.978771 -1.68657 0
M  V30 1452 O 142.737 1.6853 -0.998717 0
M  V30 1453 H 141.317 -0.171148 -0.72713 0
M  V30 1454 H 143.979 -1.10236 -1.60729 0
M  V30 1455 H 143.075 -0.623616 -3.05806 0
M  V30 1456 N 143.376 1.44774 -0.622745 0
M  V30 1457 C 144.622 2.02968 -0.13257 0
M  V30 1458 C 144.977 1.48047 1.22881 0
M  V30 1459 O 144.27 0.651625 1.80179 0
M  V30 1460 C 144.464 3.57364 -0.0508323 0
M  V30 1461 C 144.293 4.27262 -1.40275 0
M  V30 1462 C 143.063 4.64577 -1.98737 0
M  V30 1463 C 145.261 4.58248 -2.3348 0
M  V30 1464 N 143.243 5.19404 -3.27251 0
M  V30 1465 C 144.614 5.14069 -3.46603 0
M  V30 1466 C 146.669 4.40195 -2.32664 0
M  V30 1467 C 145.372 5.53738 -4.59093 0
M  V30 1468 C 147.398 4.80907 -3.44213 0
M  V30 1469 C 146.76 5.36834 -4.56058 0
M  V30 1470 H 142.859 0.776541 -0.0922354 0
M  V30 1471 H 145.443 1.76385 -0.82441 0
M  V30 1472 H 143.614 3.83576 0.610265 0
M  V30 1473 H 145.346 4.02219 0.447397 0
M  V30 1474 H 142.101 4.48622 -1.51774 0
M  V30 1475 H 142.525 5.51301 -3.92933 0
M  V30 1476 H 147.167 3.96257 -1.47446 0
M  V30 1477 H 144.885 5.96635 -5.45025 0
M  V30 1478 H 148.471 4.68659 -3.44747 0
M  V30 1479 H 147.351 5.67755 -5.40947 0
M  V30 1480 N 144.854 0.36279 1.53368 0
M  V30 1481 C 145.784 -0.476976 2.28576 0
M  V30 1482 C 146.765 -1.08631 1.30894 0
M  V30 1483 O 147.95 -1.10409 1.59761 0
M  V30 1484 C 145.08 -1.61828 3.07293 0
M  V30 1485 C 144.034 -1.13633 4.1264 0
M  V30 1486 C 143.36 -2.36766 4.79423 0
M  V30 1487 C 144.66 -0.223061 5.21823 0
M  V30 1488 H 146.354 0.150474 2.99022 0
M  V30 1489 H 143.9 0.0738103 1.43811 0
M  V30 1490 H 145.853 -2.21237 3.58653 0
M  V30 1491 H 144.577 -2.27292 2.34533 0
M  V30 1492 H 143.236 -0.564945 3.62221 0
M  V30 1493 H 142.884 -3.0068 4.03238 0
M  V30 1494 H 142.584 -2.05192 5.50609 0
M  V30 1495 H 144.108 -2.96865 5.33576 0
M  V30 1496 H 145.522 -0.724545 5.68703 0
M  V30 1497 H 143.919 0.001678 6.001 0
M  V30 1498 H 144.989 0.735553 4.79289 0
M  V30 1499 N 146.332 -1.57332 0.0918853 0
M  V30 1500 C 147.578 -1.94524 -0.573425 0
M  V30 1501 C 147.911 -0.973578 -1.68033 0
M  V30 1502 O 147.186 -0.00609226 -1.94499 0
M  V30 1503 C 147.469 -3.41858 -1.13161 0
M  V30 1504 C 147.322 -4.4979 -0.0299747 0
M  V30 1505 C 148.641 -3.90435 -2.03098 0
M  V30 1506 H 145.76 -0.70734 -0.206975 0
M  V30 1507 H 148.402 -1.89309 0.161942 0
M  V30 1508 H 146.552 -3.46433 -1.7583 0
M  V30 1509 H 148.224 -4.57327 0.604112 0
M  V30 1510 H 146.467 -4.291 0.636833 0
M  V30 1511 H 147.138 -5.50069 -0.461287 0
M  V30 1512 H 149.614 -3.87992 -1.50338 0
M  V30 1513 H 148.49 -4.94097 -2.39081 0
M  V30 1514 H 148.751 -3.29541 -2.94712 0
M  V30 1515 N 147.81 0.181792 -1.56548 0
M  V30 1516 C 149.087 0.926765 -1.72251 0
M  V30 1517 C 149.467 2.00831 -0.650386 0
M  V30 1518 O 148.815 2.26008 0.336521 0
M  V30 1519 C 149.025 1.50106 -3.1507 0
M  V30 1520 C 150.373 1.97805 -3.75711 0
M  V30 1521 O 151.397 1.59922 -3.18282 0
M  V30 1522 O 150.256 2.67555 -4.76525 0
M  V30 1523 H 147.35 0.435506 -0.703039 0
M  V30 1524 H 149.896 0.170443 -1.68842 0
M  V30 1525 H 148.668 0.72212 -3.84579 0
M  V30 1526 H 148.291 2.32186 -3.22763 0
M  V30 1527 N 149.288 1.51039 0.449983 0
M  V30 1528 C 150.218 1.74379 1.55288 0
M  V30 1529 C 151.199 0.593236 1.5942 0
M  V30 1530 O 152.384 0.834625 1.7535 0
M  V30 1531 C 149.514 1.85728 2.93466 0
M  V30 1532 C 148.468 3.01078 3.04197 0
M  V30 1533 C 147.794 2.97595 4.44231 0
M  V30 1534 C 149.094 4.41254 2.7945 0
M  V30 1535 H 150.788 2.66725 1.36008 0
M  V30 1536 H 148.334 1.2835 0.652864 0
M  V30 1537 H 150.287 2.0064 3.70569 0
M  V30 1538 H 149.011 0.900207 3.13949 0
M  V30 1539 H 147.67 2.85851 2.29531 0
M  V30 1540 H 147.318 1.99691 4.61663 0
M  V30 1541 H 147.018 3.75046 4.52343 0
M  V30 1542 H 148.542 3.14583 5.23326 0
M  V30 1543 H 149.956 4.56897 3.46292 0
M  V30 1544 H 148.353 5.20315 2.98985 0
M  V30 1545 H 149.423 4.52164 1.75144 0
M  V30 1546 N 150.766 -0.704594 1.40972 0
M  V30 1547 C 151.994 -1.49354 1.43182 0
M  V30 1548 C 152.409 -1.88768 0.0345508 0
M  V30 1549 O 151.766 -1.56184 -0.944081 0
M  V30 1550 C 151.817 -2.76187 2.33244 0
M  V30 1551 O 151.538 -2.38436 3.67532 0
M  V30 1552 C 153.039 -3.7 2.44162 0
M  V30 1553 H 150.259 -0.460559 0.487982 0
M  V30 1554 H 152.803 -0.868261 1.85153 0
M  V30 1555 H 150.958 -3.34974 1.94606 0
M  V30 1556 H 151.372 -3.20126 4.15475 0
M  V30 1557 H 152.846 -4.55803 3.11364 0
M  V30 1558 H 153.323 -4.13867 1.47006 0
M  V30 1559 H 153.929 -3.17121 2.83398 0
M  V30 1560 N 152.244 -1.26651 -0.937939 0
M  V30 1561 C 153.492 -1.12165 -1.68118 0
M  V30 1562 C 153.813 0.334983 -1.92101 0
M  V30 1563 O 153.083 1.23583 -1.52 0
M  V30 1564 H 151.663 -0.412093 -0.623048 0
M  V30 1565 H 154.325 -1.59027 -1.12678 0
M  V30 1566 H 153.421 -1.64289 -2.6536 0
M  V30 1567 N 153.722 1.14298 -1.08507 0
M  V30 1568 C 154.632 2.23027 -0.727753 0
M  V30 1569 C 155.648 1.71952 0.26619 0
M  V30 1570 O 156.824 2.011 0.109882 0
M  V30 1571 C 153.889 3.46403 -0.143541 0
M  V30 1572 C 152.95 4.12413 -1.19223 0
M  V30 1573 C 152.183 5.29899 -0.635798 0
M  V30 1574 O 152.406 5.67796 0.544393 0
M  V30 1575 O 151.34 5.85717 -1.38634 0
M  V30 1576 H 155.166 2.55945 -1.63481 0
M  V30 1577 H 152.751 1.22248 -0.858817 0
M  V30 1578 H 154.633 4.21018 0.179404 0
M  V30 1579 H 153.308 3.15206 0.736659 0
M  V30 1580 H 152.215 3.39667 -1.56772 0
M  V30 1581 H 153.548 4.47718 -2.04474 0
M  V30 1582 N 155.201 0.870884 1.31352 0
M  V30 1583 C 156.131 0.343096 2.30966 0
M  V30 1584 C 157.112 -0.566507 1.60389 0
M  V30 1585 O 158.297 -0.483336 1.88089 0
M  V30 1586 C 155.427 -0.455487 3.443 0
M  V30 1587 C 154.381 0.361103 4.26474 0
M  V30 1588 C 153.707 -0.563221 5.31725 0
M  V30 1589 C 155.007 1.59566 4.97329 0
M  V30 1590 H 156.701 1.17548 2.75359 0
M  V30 1591 H 154.247 0.566686 1.32381 0
M  V30 1592 H 156.2 -0.83525 4.13039 0
M  V30 1593 H 154.924 -1.32139 2.98675 0
M  V30 1594 H 153.583 0.722825 3.59403 0
M  V30 1595 H 153.231 -1.42643 4.82351 0
M  V30 1596 H 152.931 -0.0207409 5.87596 0
M  V30 1597 H 154.455 -0.939808 6.03324 0
M  V30 1598 H 155.869 1.28728 5.58661 0
M  V30 1599 H 154.266 2.07728 5.63 0
M  V30 1600 H 155.336 2.34798 4.24262 0
M  V30 1601 N 156.679 -1.44442 0.630414 0
M  V30 1602 C 157.925 -2.02351 0.134816 0
M  V30 1603 C 158.258 -1.4947 -1.23986 0
M  V30 1604 O 157.533 -0.678475 -1.82283 0
M  V30 1605 C 157.816 -3.59898 0.120707 0
M  V30 1606 C 157.669 -4.23063 1.52767 0
M  V30 1607 C 158.988 -4.36585 -0.555127 0
M  V30 1608 H 156.107 -0.73527 0.0504646 0
M  V30 1609 H 158.749 -1.72022 0.806751 0
M  V30 1610 H 156.899 -3.85868 -0.451477 0
M  V30 1611 H 158.571 -4.08202 2.14869 0
M  V30 1612 H 156.814 -3.80586 2.08175 0
M  V30 1613 H 157.485 -5.32071 1.46984 0
M  V30 1614 H 159.961 -4.16044 -0.0685429 0
M  V30 1615 H 158.837 -5.46294 -0.534185 0
M  V30 1616 H 159.098 -4.11138 -1.62535 0
M  V30 1617 N 158.157 -0.370918 -1.53173 0
M  V30 1618 C 159.405 0.216673 -2.00935 0
M  V30 1619 C 159.726 1.48845 -1.25977 0
M  V30 1620 O 158.996 1.92286 -0.374551 0
M  V30 1621 H 157.576 0.0830565 -0.742368 0
M  V30 1622 H 160.238 -0.49838 -1.8842 0
M  V30 1623 H 159.334 0.439893 -3.08984 0
M  V30 1624 N 159.635 1.57281 -0.100228 0
M  V30 1625 C 160.875 1.96419 0.56558 0
M  V30 1626 C 161.239 0.981265 1.65031 0
M  V30 1627 O 162.44 1.26133 2.37369 0
M  V30 1628 C 160.711 3.39996 1.10171 0
M  V30 1629 S 162.27 4.01134 1.77867 0
M  V30 1630 H 159.088 0.68667 0.184406 0
M  V30 1631 H 161.69 1.94662 -0.180851 0
M  V30 1632 H 160.394 4.09296 0.300803 0
M  V30 1633 H 159.925 3.45361 1.88385 0
M  V30 1634 H 161.94 3.90358 3.06326 0
M  V30 1635 N 161.113 -0.173488 1.56642 0
M  V30 1636 C 162.338 -0.910149 1.86363 0
M  V30 1637 C 162.763 -1.75132 0.686318 0
M  V30 1638 O 162.121 -1.77595 -0.364643 0
M  V30 1639 C 162.169 -1.76447 3.14482 0
M  V30 1640 O 161.273 -2.86584 2.96553 0
M  V30 1641 H 160.614 -0.255086 0.613047 0
M  V30 1642 H 163.144 -0.172283 2.03873 0
M  V30 1643 H 163.154 -2.16483 3.45831 0
M  V30 1644 H 161.829 -1.14658 3.99783 0
M  V30 1645 H 160.406 -2.50146 2.76553 0
M  V30 1646 N 162.591 -1.51276 -0.441967 0
M  V30 1647 C 164.002 -1.56244 -1.02199 0
M  V30 1648 C 164.353 -0.383149 -1.92422 0
M  V30 1649 O 163.478 0.500613 -2.1053 0
M  V30 1650 C 164.073 -2.83162 -1.86024 0
M  V30 1651 C 162.632 -2.90716 -2.39084 0
M  V30 1652 C 161.779 -2.50858 -1.18175 0
M  V30 1653 H 164.73 -1.5712 -0.223416 0
M  V30 1654 H 164.751 -2.66663 -2.71425 0
M  V30 1655 H 164.263 -3.68974 -1.20331 0
M  V30 1656 H 162.364 -2.09323 -3.08244 0
M  V30 1657 H 162.477 -3.94266 -2.72198 0
M  V30 1658 H 160.841 -2.03951 -1.52565 0
M  V30 1659 H 161.624 -3.3901 -0.541001 0
M  V30 1660 N 164.069 0.697108 -1.41344 0
M  V30 1661 C 165.315 1.4593 -1.40827 0
M  V30 1662 C 165.648 1.94193 -0.0167098 0
M  V30 1663 O 164.923 1.69425 0.955263 0
M  V30 1664 C 165.206 2.67229 -2.41373 0
M  V30 1665 C 165.059 2.24741 -3.8963 0
M  V30 1666 C 166.378 3.69423 -2.39196 0
M  V30 1667 H 163.497 0.529303 -0.512842 0
M  V30 1668 H 166.139 0.794112 -1.72609 0
M  V30 1669 H 164.289 3.23982 -2.14401 0
M  V30 1670 H 165.961 1.73327 -4.27499 0
M  V30 1671 H 164.204 1.56542 -4.0457 0
M  V30 1672 H 164.875 3.1177 -4.55525 0
M  V30 1673 H 167.351 3.2234 -2.63128 0
M  V30 1674 H 166.227 4.51907 -3.11563 0
M  V30 1675 H 166.488 4.19012 -1.41001 0
M  V30 1676 N 165.547 1.27147 0.931209 0
M  V30 1677 C 166.793 1.13446 1.68101 0
M  V30 1678 C 167.126 -0.319628 1.91552 0
M  V30 1679 O 166.401 -1.23407 1.50336 0
M  V30 1680 C 166.684 1.91482 3.0497 0
M  V30 1681 C 166.537 3.44855 2.88782 0
M  V30 1682 C 167.856 1.71651 4.05246 0
M  V30 1683 H 164.975 0.413498 0.610072 0
M  V30 1684 H 167.617 1.56261 1.08086 0
M  V30 1685 H 165.767 1.55095 3.56199 0
M  V30 1686 H 167.439 3.9105 2.44698 0
M  V30 1687 H 165.682 3.71373 2.24198 0
M  V30 1688 H 166.353 3.94694 3.85902 0
M  V30 1689 H 168.829 2.0337 3.63015 0
M  V30 1690 H 167.705 2.28651 4.99009 0
M  V30 1691 H 167.966 0.663555 4.37092 0
M  V30 1692 N 167.025 -1.13721 1.09112 0
M  V30 1693 C 167.988 -2.17222 0.731241 0
M  V30 1694 C 168.988 -1.59035 -0.237566 0
M  V30 1695 O 170.178 -1.74192 -0.0161704 0
M  V30 1696 C 167.31 -3.40804 0.0808443 0
M  V30 1697 H 168.503 -2.50573 1.64783 0
M  V30 1698 H 166.056 -1.28493 0.889897 0
M  V30 1699 H 166.791 -3.1304 -0.847127 0
M  V30 1700 H 166.576 -3.84306 0.777896 0
M  V30 1701 H 168.066 -4.1731 -0.155657 0
M  V30 1702 N 168.503 -0.877838 -1.30888 0
M  V30 1703 C 169.413 -0.343096 -2.32078 0
M  V30 1704 C 170.429 0.551022 -1.65045 0
M  V30 1705 O 171.605 0.445854 -1.96403 0
M  V30 1706 C 168.67 0.439905 -3.43898 0
M  V30 1707 C 167.731 -0.483111 -4.26573 0
M  V30 1708 C 166.964 0.262616 -5.33053 0
M  V30 1709 O 167.187 1.48967 -5.50604 0
M  V30 1710 O 166.121 -0.383593 -6.00676 0
M  V30 1711 H 169.947 -1.18203 -2.79753 0
M  V30 1712 H 167.532 -0.64145 -1.34929 0
M  V30 1713 H 169.414 0.883504 -4.12034 0
M  V30 1714 H 168.089 1.25526 -2.98371 0
M  V30 1715 H 166.996 -0.975374 -3.61161 0
M  V30 1716 H 168.329 -1.26427 -4.75686 0
M  V30 1717 N 169.982 1.44106 -0.638065 0
M  V30 1718 C 171.229 2.01978 -0.14533 0
M  V30 1719 C 171.557 1.50234 1.23532 0
M  V30 1720 O 170.812 0.679548 1.83523 0
M  V30 1721 C 171.111 3.5729 -0.0887327 0
M  V30 1722 C 170.777 4.28317 -1.40909 0
M  V30 1723 C 169.439 4.47437 -1.77069 0
M  V30 1724 C 171.791 4.6867 -2.28031 0
M  V30 1725 C 169.119 5.04171 -3.00047 0
M  V30 1726 C 171.471 5.26766 -3.50286 0
M  V30 1727 C 170.135 5.44104 -3.86661 0
M  V30 1728 H 169.405 0.739089 -0.0531801 0
M  V30 1729 H 172.052 1.72781 -0.825761 0
M  V30 1730 H 170.357 3.8594 0.675095 0
M  V30 1731 H 172.054 3.99807 0.309145 0
M  V30 1732 H 168.644 4.1377 -1.1177 0
M  V30 1733 H 172.828 4.53604 -2.01388 0
M  V30 1734 H 168.084 5.15782 -3.28298 0
M  V30 1735 H 172.258 5.56983 -4.18023 0
M  V30 1736 H 169.885 5.87832 -4.82034 0
M  V30 1737 N 171.46 0.379036 1.52974 0
M  V30 1738 C 172.708 -0.206014 2.01047 0
M  V30 1739 C 173.029 -1.48175 1.26765 0
M  V30 1740 O 172.299 -1.92085 0.384743 0
M  V30 1741 H 170.879 -0.0791184 0.742798 0
M  V30 1742 H 173.541 0.508366 1.88153 0
M  V30 1743 H 172.637 -0.423501 3.09213 0
M  V30 1744 N 172.938 -1.57226 0.108567 0
M  V30 1745 C 174.186 -1.94448 -0.550853 0
M  V30 1746 C 174.507 -0.992074 -1.67878 0
M  V30 1747 O 173.777 -0.0465 -1.95845 0
M  V30 1748 H 172.357 -0.717897 -0.206479 0
M  V30 1749 H 175.019 -1.94112 0.175062 0
M  V30 1750 H 174.115 -2.97218 -0.952259 0
M  V30 1751 N 174.416 0.165178 -1.56732 0
M  V30 1752 C 175.366 1.20917 -1.93295 0
M  V30 1753 C 176.35 1.39488 -0.801985 0
M  V30 1754 O 177.542 1.41356 -1.06525 0
M  V30 1755 C 174.671 2.54718 -2.3016 0
M  V30 1756 C 173.757 2.39815 -3.49785 0
M  V30 1757 N 174.148 1.94637 -4.66851 0
M  V30 1758 C 172.446 2.70623 -3.54513 0
M  V30 1759 C 173.147 1.92344 -5.4898 0
M  V30 1760 N 172.123 2.34978 -4.9019 0
M  V30 1761 H 175.925 0.851675 -2.81289 0
M  V30 1762 H 173.439 0.373399 -1.58049 0
M  V30 1763 H 175.436 3.30165 -2.54552 0
M  V30 1764 H 174.096 2.91265 -1.43508 0
M  V30 1765 H 175.107 1.6488 -4.90953 0
M  V30 1766 H 171.784 3.11167 -2.78354 0
M  V30 1767 H 173.174 1.5906 -6.52801 0
M  V30 1768 N 175.894 1.51508 0.433938 0
M  V30 1769 C 177.31 1.39759 0.770682 0
M  V30 1770 C 177.51 0.482594 1.95636 0
M  V30 1771 O 176.566 -0.0609691 2.52426 0
M  V30 1772 C 177.879 2.81851 1.04787 0
M  V30 1773 C 179.427 2.91025 1.1521 0
M  V30 1774 C 179.902 4.34032 1.46219 0
M  V30 1775 N 181.393 4.37154 1.53136 0
M  V30 1776 C 182.128 5.4484 1.78709 0
M  V30 1777 N 181.624 6.62682 2.02051 0
M  V30 1778 N 183.417 5.32324 1.80519 0
M  V30 1779 H 175.568 2.09548 -0.346892 0
M  V30 1780 H 177.831 0.943446 -0.0928074 0
M  V30 1781 H 177.537 3.50815 0.249304 0
M  V30 1782 H 177.411 3.21386 1.97461 0
M  V30 1783 H 179.798 2.22257 1.94128 0
M  V30 1784 H 179.879 2.54983 0.204281 0
M  V30 1785 H 179.523 5.03351 0.678274 0
M  V30 1786 H 179.453 4.6759 2.42212 0
M  V30 1787 H 181.944 3.52197 1.36987 0
M  V30 1788 H 182.257 7.40543 2.20943 0
M  V30 1789 H 180.602 6.65791 1.99366 0
M  V30 1790 H 183.793 4.39246 1.61805 0
M  V30 1791 H 183.966 6.16328 2.00111 0
M  V30 1792 N 177.372 -0.689602 1.41712 0
M  V30 1793 C 178.602 -1.47613 1.44548 0
M  V30 1794 C 179.01 -1.89132 0.0509034 0
M  V30 1795 O 178.353 -1.57741 -0.94146 0
M  V30 1796 C 178.415 -2.76596 2.2964 0
M  V30 1797 C 178.079 -2.57245 3.77722 0
M  V30 1798 C 179.076 -2.22804 4.69739 0
M  V30 1799 C 176.761 -2.727 4.2183 0
M  V30 1800 C 178.755 -2.04064 6.03851 0
M  V30 1801 C 176.442 -2.53576 5.56006 0
M  V30 1802 C 177.44 -2.1931 6.46832 0
M  V30 1803 O 177.128 -2.00359 7.78532 0
M  V30 1804 H 176.86 -0.461227 0.494212 0
M  V30 1805 H 179.414 -0.856045 1.86711 0
M  V30 1806 H 177.644 -3.41033 1.82301 0
M  V30 1807 H 179.333 -3.38424 2.24107 0
M  V30 1808 H 180.099 -2.10473 4.36951 0
M  V30 1809 H 175.978 -2.98353 3.51435 0
M  V30 1810 H 179.522 -1.77241 6.74708 0
M  V30 1811 H 175.419 -2.65499 5.88371 0
M  V30 1812 H 176.187 -2.15075 7.89737 0
M  V30 1813 N 178.85 -1.27639 -0.924453 0
M  V30 1814 C 179.813 -1.10681 -2.00705 0
M  V30 1815 C 180.813 -0.0497823 -1.60723 0
M  V30 1816 O 182.003 -0.294654 -1.7169 0
M  V30 1817 C 179.135 -0.687164 -3.33902 0
M  V30 1818 H 180.328 -2.06817 -2.17179 0
M  V30 1819 H 177.881 -1.10473 -1.10569 0
M  V30 1820 H 178.616 0.275439 -3.23128 0
M  V30 1821 H 178.401 -1.45061 -3.6428 0
M  V30 1822 H 179.891 -0.590853 -4.13399 0
M  V30 1823 N 180.328 1.1314 -1.09713 0
M  V30 1824 C 181.553 1.88862 -0.857081 0
M  V30 1825 C 181.978 1.78729 0.586304 0
M  V30 1826 O 181.336 1.13692 1.41222 0
M  V30 1827 C 181.384 3.36325 -1.30069 0
M  V30 1828 O 180.488 4.09815 -0.461007 0
M  V30 1829 H 179.829 0.587108 -0.310162 0
M  V30 1830 H 182.359 1.43129 -1.46203 0
M  V30 1831 H 182.369 3.87157 -1.28738 0
M  V30 1832 H 181.044 3.43017 -2.35185 0
M  V30 1833 H 179.621 3.68986 -0.538888 0
M  V30 1834 N 181.806 0.884767 1.30421 0
M  V30 1835 C 183.054 0.502112 1.95763 0
M  V30 1836 C 183.375 -0.951815 1.70192 0
M  V30 1837 O 182.645 -1.6692 1.0254 0
M  V30 1838 H 181.225 0.182694 0.724315 0
M  V30 1839 H 183.887 1.1278 1.58955 0
M  V30 1840 H 182.983 0.672188 3.04775 0
M  V30 1841 N 183.284 -1.43765 0.645699 0
M  V30 1842 C 184.217 -2.2798 -0.100072 0
M  V30 1843 C 185.195 -1.39391 -0.837194 0
M  V30 1844 O 186.379 -1.68833 -0.838306 0
M  V30 1845 C 183.506 -3.18643 -1.14823 0
M  V30 1846 C 182.552 -4.2344 -0.510009 0
M  V30 1847 S 183.385 -5.30761 0.710824 0
M  V30 1848 C 184.541 -6.24992 -0.33699 0
M  V30 1849 H 184.774 -2.90884 0.614322 0
M  V30 1850 H 182.307 -1.48166 0.434304 0
M  V30 1851 H 184.265 -3.71424 -1.74799 0
M  V30 1852 H 182.926 -2.54932 -1.8349 0
M  V30 1853 H 182.119 -4.86948 -1.29991 0
M  V30 1854 H 181.721 -3.73997 0.0154577 0
M  V30 1855 H 184.013 -6.66691 -1.20537 0
M  V30 1856 H 184.956 -7.07612 0.262879 0
M  V30 1857 H 185.364 -5.60517 -0.669425 0
M  V30 1858 N 184.763 -0.387143 -1.52771 0
M  V30 1859 C 186.009 0.196025 -2.0185 0
M  V30 1860 C 186.342 1.46641 -1.27319 0
M  V30 1861 O 185.617 1.90889 -0.373032 0
M  V30 1862 C 185.9 0.466136 -3.5707 0
M  V30 1863 C 185.753 -0.819385 -4.42274 0
M  V30 1864 C 187.072 1.25768 -4.21747 0
M  V30 1865 H 184.191 0.0697708 -0.73369 0
M  V30 1866 H 186.833 -0.516286 -1.82851 0
M  V30 1867 H 184.983 1.07293 -3.7339 0
M  V30 1868 H 186.655 -1.4563 -4.37709 0
M  V30 1869 H 184.898 -1.43517 -4.09372 0
M  V30 1870 H 185.569 -0.585065 -5.48891 0
M  V30 1871 H 188.045 0.744167 -4.09391 0
M  V30 1872 H 186.921 1.41541 -5.30337 0
M  V30 1873 H 187.182 2.27228 -3.79236 0
M  V30 1874 N 186.241 1.57166 -0.116904 0
M  V30 1875 C 187.49 1.94298 0.541407 0
M  V30 1876 C 187.803 1.00236 1.67964 0
M  V30 1877 O 189.009 1.26826 2.40057 0
M  V30 1878 C 187.465 3.45306 1.01449 0
M  V30 1879 C 187.073 4.47899 -0.0951738 0
M  V30 1880 C 188.817 3.91361 1.6443 0
M  V30 1881 C 186.724 5.90083 0.394491 0
M  V30 1882 H 185.654 0.725308 0.206019 0
M  V30 1883 H 188.305 1.82446 -0.196419 0
M  V30 1884 H 186.687 3.52385 1.80667 0
M  V30 1885 H 187.861 4.52486 -0.871374 0
M  V30 1886 H 186.176 4.11583 -0.631505 0
M  V30 1887 H 188.773 4.95004 2.02176 0
M  V30 1888 H 189.116 3.3122 2.52189 0
M  V30 1889 H 189.649 3.87073 0.917559 0
M  V30 1890 H 186.388 6.53974 -0.447004 0
M  V30 1891 H 185.908 5.88921 1.13722 0
M  V30 1892 H 187.587 6.41307 0.856399 0
M  V30 1893 N 187.719 -0.156864 1.56817 0
M  V30 1894 C 188.965 -0.872416 1.83076 0
M  V30 1895 C 189.298 -1.81261 0.697001 0
M  V30 1896 O 188.573 -1.92171 -0.30008 0
M  V30 1897 C 188.856 -1.65551 3.19789 0
M  V30 1898 C 188.709 -0.737467 4.43713 0
M  V30 1899 C 190.028 -2.62012 3.53606 0
M  V30 1900 H 187.147 -0.315715 0.665953 0
M  V30 1901 H 189.789 -0.138004 1.89498 0
M  V30 1902 H 187.939 -2.28159 3.14445 0
M  V30 1903 H 189.611 -0.123143 4.61136 0
M  V30 1904 H 187.854 -0.0464067 4.33775 0
M  V30 1905 H 188.525 -1.32122 5.35955 0
M  V30 1906 H 191.001 -2.09525 3.59497 0
M  V30 1907 H 189.877 -3.13861 4.50314 0
M  V30 1908 H 190.138 -3.42902 2.79053 0
M  V30 1909 N 189.197 -1.51736 -0.425897 0
M  V30 1910 C 190.425 -1.68794 -1.1965 0
M  V30 1911 C 190.84 -0.390164 -1.84725 0
M  V30 1912 O 190.197 0.632376 -1.71194 0
M  V30 1913 C 190.248 -2.81174 -2.27208 0
M  V30 1914 O 189.969 -4.05925 -1.64793 0
M  V30 1915 C 191.47 -3.09599 -3.17275 0
M  V30 1916 H 188.69 -0.566128 -0.360194 0
M  V30 1917 H 191.234 -1.98211 -0.503249 0
M  V30 1918 H 189.389 -2.54324 -2.9223 0
M  V30 1919 H 189.803 -4.68423 -2.35967 0
M  V30 1920 H 191.277 -3.91786 -3.88854 0
M  V30 1921 H 191.754 -2.22468 -3.78688 0
M  V30 1922 H 192.36 -3.38151 -2.57941 0
M  V30 1923 N 190.675 0.682077 -1.42076 0
M  V30 1924 C 191.923 1.4393 -1.41876 0
M  V30 1925 C 192.244 1.94971 -0.0335599 0
M  V30 1926 O 191.514 1.72591 0.926773 0
M  V30 1927 H 190.094 0.534085 -0.522267 0
M  V30 1928 H 192.756 0.806427 -1.77434 0
M  V30 1929 H 191.852 2.29588 -2.11414 0
M  V30 1930 N 192.153 1.28127 0.917671 0
M  V30 1931 C 193.1 1.11717 2.0196 0
M  V30 1932 C 194.07 0.0153929 1.66093 0
M  V30 1933 O 195.255 0.179596 1.89953 0
M  V30 1934 C 192.395 0.780927 3.36148 0
M  V30 1935 C 191.508 1.96135 3.84909 0
M  V30 1936 C 190.643 1.56609 5.0759 0
M  V30 1937 C 189.682 2.71339 5.48673 0
M  V30 1938 N 188.819 2.32332 6.62545 0
M  V30 1939 H 193.659 2.06003 2.15329 0
M  V30 1940 H 191.196 1.02535 1.05475 0
M  V30 1941 H 193.154 0.56675 4.13333 0
M  V30 1942 H 191.784 -0.124998 3.22558 0
M  V30 1943 H 190.836 2.28777 3.03916 0
M  V30 1944 H 192.148 2.82165 4.1132 0
M  V30 1945 H 191.302 1.31374 5.92305 0
M  V30 1946 H 190.041 0.677014 4.82978 0
M  V30 1947 H 189.046 2.97276 4.62501 0
M  V30 1948 H 190.271 3.60882 5.75274 0
M  V30 1949 H 188.217 1.45889 6.39572 0
M  V30 1950 H 188.134 3.11899 6.88662 0
M  V30 1951 H 189.402 2.10371 7.50576 0
M  V30 1952 N 193.631 -1.12557 1.10312 0
M  V30 1953 C 194.879 -1.83675 0.843091 0
M  V30 1954 C 195.2 -1.84435 -0.633131 0
M  V30 1955 O 194.47 -1.30657 -1.45964 0
M  V30 1956 H 193.05 -0.680138 0.308904 0
M  V30 1957 H 195.712 -1.36301 1.39313 0
M  V30 1958 H 194.808 -2.87908 1.2048 0
M  V30 1959 N 195.109 -0.891671 -1.2995 0
M  V30 1960 C 196.057 -0.353066 -2.29905 0
M  V30 1961 C 197.051 0.543509 -1.60444 0
M  V30 1962 O 198.257 0.4272 -1.74857 0
M  V30 1963 H 194.632 -0.095531 -0.745907 0
M  V30 1964 H 196.603 -1.20961 -2.72784 0
M  V30 1965 C 195.352 0.411475 -3.45257 0
M  V30 1966 H 194.675 -0.269182 -3.98893 0
M  V30 1967 H 196.115 0.753328 -4.17254 0
M  V30 1968 C 194.574 1.6111 -2.9588 0
M  V30 1969 O 195.104 2.71045 -2.96475 0
M  V30 1970 N 193.31 1.45054 -2.51809 0
M  V30 1971 H 192.857 0.556175 -2.51524 0
M  V30 1972 H 192.815 2.25453 -2.1913 0
M  V30 1973 N 196.587 1.43421 -0.653314 0
M  V30 1974 C 197.812 2.06678 -0.172846 0
M  V30 1975 C 198.237 1.48648 1.15262 0
M  V30 1976 O 197.595 0.596457 1.71208 0
M  V30 1977 C 197.643 3.60474 -0.0953184 0
M  V30 1978 O 196.747 4.01487 0.942442 0
M  V30 1979 H 196.088 0.657181 -0.0949155 0
M  V30 1980 H 198.618 1.83925 -0.896265 0
M  V30 1981 H 198.628 4.07905 0.0879728 0
M  V30 1982 H 197.303 4.02088 -1.06291 0
M  V30 1983 H 195.88 3.65646 0.731932 0
M  V30 1984 N 198.065 0.39524 1.52563 0
M  V30 1985 C 199.313 -0.184678 2.01254 0
M  V30 1986 C 199.634 -1.46822 1.28329 0
M  V30 1987 O 198.904 -1.91666 0.405094 0
M  V30 1988 H 197.484 -0.0712355 0.743596 0
M  V30 1989 H 200.146 0.528293 1.87603 0
M  V30 1990 H 199.242 -0.390681 3.09645 0
M  V30 1991 N 199.544 -1.57102 0.125237 0
M  V30 1992 C 200.491 -2.15641 -0.822655 0
M  V30 1993 C 201.461 -1.08313 -1.25927 0
M  V30 1994 O 202.646 -1.36251 -1.33567 0
M  V30 1995 C 199.786 -2.76504 -2.06494 0
M  V30 1996 C 198.899 -3.98158 -1.67612 0
M  V30 1997 C 198.034 -4.47088 -2.86854 0
M  V30 1998 C 197.073 -5.6126 -2.44242 0
M  V30 1999 N 196.21 -6.04905 -3.56419 0
M  V30 2000 H 201.05 -2.96313 -0.316625 0
M  V30 2001 H 198.587 -1.46388 -0.144588 0
M  V30 2002 H 200.545 -3.09925 -2.79289 0
M  V30 2003 H 199.175 -1.98512 -2.54545 0
M  V30 2004 H 198.227 -3.70858 -0.846661 0
M  V30 2005 H 199.539 -4.80934 -1.32301 0
M  V30 2006 H 198.693 -4.82451 -3.67867 0
M  V30 2007 H 197.432 -3.63275 -3.25396 0
M  V30 2008 H 196.437 -5.25495 -1.61663 0
M  V30 2009 H 197.662 -6.46843 -2.0681 0
M  V30 2010 H 195.608 -5.24032 -3.94623 0
M  V30 2011 H 195.525 -6.82552 -3.25051 0
M  V30 2012 H 196.793 -6.44907 -4.37853 0
M  V30 2013 N 201.022 0.148545 -1.56898 0
M  V30 2014 C 202.25 0.876389 -1.87422 0
M  V30 2015 C 202.665 1.74809 -0.713256 0
M  V30 2016 O 202.022 1.79725 0.317025 0
M  V30 2017 C 202.073 1.73438 -3.17178 0
M  V30 2018 O 201.794 0.897809 -4.28802 0
M  V30 2019 C 203.295 2.56993 -3.61205 0
M  V30 2020 H 200.515 0.253489 -0.621277 0
M  V30 2021 H 203.059 0.141798 -2.04008 0
M  V30 2022 H 201.214 2.42205 -3.0235 0
M  V30 2023 H 201.628 1.48672 -5.02988 0
M  V30 2024 H 203.102 3.12773 -4.54838 0
M  V30 2025 H 203.579 3.32958 -2.86419 0
M  V30 2026 H 204.185 1.9352 -3.78722 0
M  V30 2027 N 202.5 1.5196 0.417844 0
M  V30 2028 C 203.911 1.57851 0.997 0
M  V30 2029 C 204.262 0.413714 1.91789 0
M  V30 2030 O 203.387 -0.467057 2.113 0
M  V30 2031 C 203.982 2.86085 1.81496 0
M  V30 2032 C 202.541 2.94483 2.34428 0
M  V30 2033 C 201.688 2.52707 1.14169 0
M  V30 2034 H 204.639 1.57455 0.198392 0
M  V30 2035 H 204.66 2.70947 2.67148 0
M  V30 2036 H 204.172 3.70842 1.14446 0
M  V30 2037 H 202.273 2.142 3.04875 0
M  V30 2038 H 202.386 3.98546 2.65891 0
M  V30 2039 H 200.75 2.06353 1.49301 0
M  V30 2040 H 201.533 3.39828 0.486999 0
M  V30 2041 N 203.978 -0.674533 1.42435 0
M  V30 2042 C 204.908 -1.80009 1.48724 0
M  V30 2043 C 205.889 -1.6659 0.343793 0
M  V30 2044 O 207.074 -1.86007 0.558137 0
M  V30 2045 C 204.204 -3.18306 1.38919 0
M  V30 2046 C 203.158 -3.46461 2.51294 0
M  V30 2047 C 202.484 -4.84335 2.26547 0
M  V30 2048 C 203.784 -3.43328 3.93603 0
M  V30 2049 H 205.478 -1.75004 2.42928 0
M  V30 2050 H 203.024 -0.840533 1.16923 0
M  V30 2051 H 204.977 -3.9678 1.41927 0
M  V30 2052 H 203.701 -3.2399 0.412094 0
M  V30 2053 H 202.36 -2.70348 2.47604 0
M  V30 2054 H 202.008 -4.86669 1.2713 0
M  V30 2055 H 201.708 -5.04136 3.01861 0
M  V30 2056 H 203.232 -5.65094 2.31304 0
M  V30 2057 H 204.646 -4.11772 3.98894 0
M  V30 2058 H 203.043 -3.74664 4.68771 0
M  V30 2059 H 204.113 -2.41897 4.20255 0
M  V30 2060 N 205.456 -1.28612 -0.910864 0
M  V30 2061 C 206.702 -1.16106 -1.66274 0
M  V30 2062 C 207.035 0.289113 -1.92036 0
M  V30 2063 O 206.31 1.21 -1.52281 0
M  V30 2064 C 206.593 -1.96309 -3.01885 0
M  V30 2065 C 206.446 -3.49405 -2.8326 0
M  V30 2066 C 207.765 -1.78076 -4.02463 0
M  V30 2067 H 204.884 -0.423152 -0.603417 0
M  V30 2068 H 207.526 -1.57961 -1.05586 0
M  V30 2069 H 205.676 -1.60742 -3.53687 0
M  V30 2070 H 207.348 -3.94894 -2.38446 0
M  V30 2071 H 205.591 -3.74893 -2.18261 0
M  V30 2072 H 206.262 -4.00784 -3.79574 0
M  V30 2073 H 208.738 -2.0912 -3.59733 0
M  V30 2074 H 207.614 -2.36561 -4.95308 0
M  V30 2075 H 207.875 -0.733008 -4.35981 0
M  V30 2076 N 206.934 1.1197 -1.10907 0
M  V30 2077 C 207.884 2.15946 -0.731538 0
M  V30 2078 C 208.868 1.58758 0.261699 0
M  V30 2079 O 210.06 1.76863 0.0696722 0
M  V30 2080 C 207.189 3.42877 -0.170299 0
M  V30 2081 C 206.275 4.07037 -1.19087 0
M  V30 2082 N 206.666 4.46135 -2.38322 0
M  V30 2083 C 204.964 4.33884 -1.03252 0
M  V30 2084 C 205.665 4.96331 -3.03366 0
M  V30 2085 N 204.641 4.9214 -2.30865 0
M  V30 2086 H 208.443 2.43947 -1.63912 0
M  V30 2087 H 205.957 1.28927 -0.987505 0
M  V30 2088 H 207.954 4.16732 0.118271 0
M  V30 2089 H 206.614 3.16343 0.731935 0
M  V30 2090 H 207.625 4.38345 -2.75815 0
M  V30 2091 H 204.302 4.17084 -0.186256 0
M  V30 2092 H 205.692 5.36257 -4.04818 0
M  V30 2093 N 208.412 0.89855 1.29475 0
M  V30 2094 C 209.375 0.380272 2.26023 0
M  V30 2095 C 210.375 -0.484891 1.53315 0
M  V30 2096 O 211.565 -0.290108 1.71767 0
M  V30 2097 C 208.697 -0.45651 3.3783 0
M  V30 2098 H 209.89 1.23295 2.73383 0
M  V30 2099 H 207.443 0.676589 1.40897 0
M  V30 2100 H 208.178 -1.32922 2.95808 0
M  V30 2101 H 207.963 0.163393 3.91759 0
M  V30 2102 H 209.453 -0.810466 4.0966 0
M  V30 2103 N 209.89 -1.43072 0.660911 0
M  V30 2104 C 210.82 -2.33497 -0.0122829 0
M  V30 2105 C 211.801 -1.49903 -0.803925 0
M  V30 2106 O 212.986 -1.78546 -0.763864 0
M  V30 2107 C 210.116 -3.33363 -0.973994 0
M  V30 2108 C 209.07 -4.27003 -0.291928 0
M  V30 2109 C 208.396 -5.16967 -1.36562 0
M  V30 2110 C 209.696 -5.15816 0.820462 0
M  V30 2111 H 211.39 -2.90038 0.742873 0
M  V30 2112 H 208.936 -1.39461 0.358688 0
M  V30 2113 H 210.889 -3.95524 -1.45392 0
M  V30 2114 H 209.613 -2.75095 -1.7604 0
M  V30 2115 H 208.272 -3.66217 0.167623 0
M  V30 2116 H 207.92 -4.55034 -2.14366 0
M  V30 2117 H 207.62 -5.80441 -0.914454 0
M  V30 2118 H 209.144 -5.82003 -1.84675 0
M  V30 2119 H 210.558 -5.71742 0.422366 0
M  V30 2120 H 208.955 -5.8805 1.19656 0
M  V30 2121 H 210.025 -4.55045 1.67518 0
M  V30 2122 N 211.368 -0.403325 -1.52352 0
M  V30 2123 C 212.616 0.174003 -2.0135 0
M  V30 2124 C 212.937 1.46139 -1.29106 0
M  V30 2125 O 212.207 1.91448 -0.415253 0
M  V30 2126 H 210.787 0.0672911 -0.743963 0
M  V30 2127 H 213.449 -0.538235 -1.87321 0
M  V30 2128 H 212.545 0.374254 -3.09848 0
M  V30 2129 N 212.846 1.57033 -0.133567 0
M  V30 2130 C 213.756 2.19632 0.824564 0
M  V30 2131 C 214.772 1.17666 1.28182 0
M  V30 2132 O 215.948 1.50193 1.3418 0
M  V30 2133 C 213.013 2.79499 2.05137 0
M  V30 2134 C 212.074 3.96548 1.64464 0
M  V30 2135 C 211.307 4.5355 2.81297 0
M  V30 2136 O 211.53 4.09438 3.97136 0
M  V30 2137 O 210.464 5.44018 2.57542 0
M  V30 2138 H 214.29 3.01991 0.321766 0
M  V30 2139 H 211.875 1.49112 0.0927889 0
M  V30 2140 H 213.757 3.17602 2.7696 0
M  V30 2141 H 212.432 2.00162 2.54395 0
M  V30 2142 H 211.339 3.63186 0.897048 0
M  V30 2143 H 212.672 4.77364 1.19934 0
M  V30 2144 N 214.325 -0.140222 1.56975 0
M  V30 2145 C 215.288 -1.15689 1.97861 0
M  V30 2146 C 216.288 -1.3549 0.865974 0
M  V30 2147 O 217.478 -1.32367 1.13246 0
M  V30 2148 C 214.61 -2.51582 2.30042 0
M  V30 2149 H 215.803 -0.805971 2.88867 0
M  V30 2150 H 213.356 -0.383801 1.51515 0
M  V30 2151 H 214.091 -2.91632 1.41849 0
M  V30 2152 H 213.876 -2.38569 3.11171 0
M  V30 2153 H 215.366 -3.24792 2.62488 0
M  V30 2154 N 215.803 -1.52179 -0.40978 0
M  V30 2155 C 216.733 -1.78435 -1.5061 0
M  V30 2156 C 217.714 -0.635295 -1.57791 0
M  V30 2157 O 218.899 -0.880823 -1.73076 0
M  V30 2158 C 216.029 -1.93444 -2.88439 0
M  V30 2159 C 214.983 -3.09038 -2.96108 0
M  V30 2160 C 214.309 -3.09268 -4.36185 0
M  V30 2161 C 215.609 -4.48508 -2.67652 0
M  V30 2162 H 217.303 -2.70237 -1.28889 0
M  V30 2163 H 214.849 -1.30036 -0.618605 0
M  V30 2164 H 216.802 -2.10394 -3.65119 0
M  V30 2165 H 215.526 -0.983129 -3.11452 0
M  V30 2166 H 214.185 -2.91837 -2.21872 0
M  V30 2167 H 213.833 -2.11861 -4.56206 0
M  V30 2168 H 213.533 -3.86907 -4.42241 0
M  V30 2169 H 215.057 -3.28348 -5.14801 0
M  V30 2170 H 216.471 -4.65918 -3.34056 0
M  V30 2171 H 214.868 -5.28059 -2.85085 0
M  V30 2172 H 215.938 -4.56649 -1.63095 0
M  V30 2173 N 217.281 0.66697 -1.42791 0
M  V30 2174 C 218.529 1.42417 -1.43394 0
M  V30 2175 C 218.85 1.94925 -0.0542373 0
M  V30 2176 O 218.12 1.73564 0.908415 0
M  V30 2177 H 216.7 0.528515 -0.527902 0
M  V30 2178 H 219.362 0.787562 -1.78279 0
M  V30 2179 H 218.458 2.27333 -2.13837 0
M  V30 2180 N 218.759 1.29093 0.90403 0
M  V30 2181 C 220.007 1.16583 1.65085 0
M  V30 2182 C 220.328 -0.283933 1.92922 0
M  V30 2183 O 219.598 -1.19509 1.55224 0
M  V30 2184 H 218.178 0.428467 0.611903 0
M  V30 2185 H 220.84 1.61959 1.08422 0
M  V30 2186 H 219.936 1.71266 2.6091 0
M  V30 2187 N 220.237 -1.11381 1.11499 0
M  V30 2188 C 221.184 -2.17439 0.773887 0
M  V30 2189 C 222.154 -1.64132 -0.254899 0
M  V30 2190 O 223.339 -1.90345 -0.13168 0
M  V30 2191 C 220.479 -3.44373 0.223917 0
M  V30 2192 C 219.592 -4.1168 1.30934 0
M  V30 2193 C 218.727 -5.263 0.71984 0
M  V30 2194 C 217.766 -5.85493 1.78507 0
M  V30 2195 N 216.903 -6.91507 1.21502 0
M  V30 2196 H 221.743 -2.45962 1.68246 0
M  V30 2197 H 219.28 -1.20744 0.840191 0
M  V30 2198 H 221.238 -4.17047 -0.112921 0
M  V30 2199 H 219.868 -3.16232 -0.647851 0
M  V30 2200 H 218.92 -3.37073 1.76312 0
M  V30 2201 H 220.232 -4.51729 2.11524 0
M  V30 2202 H 219.386 -6.05785 0.333094 0
M  V30 2203 H 218.125 -4.87559 -0.117377 0
M  V30 2204 H 217.13 -5.04686 2.18111 0
M  V30 2205 H 218.355 -6.26301 2.62533 0
M  V30 2206 H 216.301 -6.54783 0.399455 0
M  V30 2207 H 216.218 -7.30214 1.95763 0
M  V30 2208 H 217.486 -7.74795 0.855181 0
M  V30 2209 N 221.715 -0.905404 -1.28997 0
M  V30 2210 C 222.992 -0.453513 -1.9027 0
M  V30 2211 C 223.372 1.06721 -1.82137 0
M  V30 2212 O 222.72 1.91159 -1.25182 0
M  V30 2213 C 222.93 -0.974494 -3.35119 0
M  V30 2214 C 224.278 -1.0216 -4.12127 0
M  V30 2215 O 225.302 -0.922557 -3.44046 0
M  V30 2216 O 224.161 -1.17121 -5.33802 0
M  V30 2217 H 221.255 -0.142347 -0.814657 0
M  V30 2218 H 223.801 -0.995642 -1.37423 0
M  V30 2219 H 222.573 -2.01848 -3.35221 0
M  V30 2220 H 222.196 -0.412706 -3.95452 0
M  V30 2221 N 223.193 1.4272 -0.668489 0
M  V30 2222 C 224.14 2.30796 0.0137489 0
M  V30 2223 C 225.11 1.4561 0.799177 0
M  V30 2224 O 226.295 1.74453 0.772702 0
M  V30 2225 C 223.435 3.31377 0.963507 0
M  V30 2226 C 222.548 4.31655 0.172569 0
M  V30 2227 C 221.683 5.19312 1.1175 0
M  V30 2228 C 220.722 6.11274 0.317886 0
M  V30 2229 N 219.859 6.91504 1.2152 0
M  V30 2230 H 224.699 2.88585 -0.743161 0
M  V30 2231 H 222.236 1.42154 -0.378226 0
M  V30 2232 H 224.194 3.88214 1.52792 0
M  V30 2233 H 222.824 2.75202 1.68712 0
M  V30 2234 H 221.876 3.76988 -0.508374 0
M  V30 2235 H 223.188 4.96779 -0.448527 0
M  V30 2236 H 222.342 5.80851 1.75206 0
M  V30 2237 H 221.081 4.5435 1.77249 0
M  V30 2238 H 220.086 5.48809 -0.329918 0
M  V30 2239 H 221.311 6.78283 -0.332917 0
M  V30 2240 H 219.257 6.29176 1.85671 0
M  V30 2241 H 219.174 7.53209 0.649036 0
M  V30 2242 H 220.442 7.57535 1.83742 0
M  V30 2243 N 224.671 0.411399 1.52136 0
M  V30 2244 C 225.901 -0.16284 2.05957 0
M  V30 2245 C 226.309 -1.3922 1.28119 0
M  V30 2246 O 225.652 -1.80768 0.326881 0
M  V30 2247 C 225.714 -0.575946 3.54856 0
M  V30 2248 C 225.378 0.542998 4.53763 0
M  V30 2249 C 226.375 1.40726 5.00492 0
M  V30 2250 C 224.06 0.716337 4.97166 0
M  V30 2251 C 226.054 2.4298 5.8927 0
M  V30 2252 C 223.741 1.74218 5.8574 0
M  V30 2253 C 224.739 2.59731 6.31687 0
M  V30 2254 O 224.427 3.60558 7.18507 0
M  V30 2255 H 224.159 -0.0229125 0.675612 0
M  V30 2256 H 226.713 0.581634 1.96993 0
M  V30 2257 H 224.943 -1.37274 3.61515 0
M  V30 2258 H 226.632 -1.07836 3.91313 0
M  V30 2259 H 227.398 1.28476 4.67674 0
M  V30 2260 H 223.277 0.0603857 4.6096 0
M  V30 2261 H 226.821 3.0976 6.25055 0
M  V30 2262 H 222.718 1.86498 6.17971 0
M  V30 2263 H 223.486 3.56829 7.36624 0
M  V30 2264 N 226.149 -1.5696 0.141893 0
M  V30 2265 C 227.112 -2.15316 -0.785587 0
M  V30 2266 C 228.112 -1.09366 -1.1788 0
M  V30 2267 O 229.302 -1.35031 -1.10056 0
M  V30 2268 C 226.434 -2.71211 -2.06537 0
M  V30 2269 H 227.627 -2.98608 -0.278041 0
M  V30 2270 H 225.18 -1.5593 -0.107519 0
M  V30 2271 H 225.915 -1.91571 -2.6167 0
M  V30 2272 H 225.7 -3.4872 -1.79268 0
M  V30 2273 H 227.19 -3.16189 -2.72789 0
M  V30 2274 N 227.627 0.131896 -1.57047 0
M  V30 2275 C 228.855 0.856461 -1.88341 0
M  V30 2276 C 229.27 1.74042 -0.731757 0
M  V30 2277 O 228.627 1.80051 0.297945 0
M  V30 2278 C 228.678 1.70064 -3.18999 0
M  V30 2279 O 228.399 0.852278 -4.2973 0
M  V30 2280 C 229.9 2.53148 -3.63911 0
M  V30 2281 H 227.12 0.246885 -0.62393 0
M  V30 2282 H 229.664 0.120152 -2.04147 0
M  V30 2283 H 227.819 2.38984 -3.04902 0
M  V30 2284 H 228.233 1.43329 -5.04537 0
M  V30 2285 H 229.707 3.07931 -4.58129 0
M  V30 2286 H 230.184 3.29901 -2.89935 0
M  V30 2287 H 230.79 1.89492 -3.80753 0
M  V30 2288 N 229.106 1.52395 0.401703 0
M  V30 2289 C 230.352 1.67065 1.14966 0
M  V30 2290 C 230.685 0.403052 1.89971 0
M  V30 2291 O 229.96 -0.598774 1.85054 0
M  V30 2292 C 230.243 2.8975 2.13815 0
M  V30 2293 C 230.096 4.26578 1.42658 0
M  V30 2294 C 231.415 3.07965 3.14397 0
M  V30 2295 H 228.534 0.607968 0.416587 0
M  V30 2296 H 231.176 1.84965 0.434511 0
M  V30 2297 H 229.326 2.74619 2.74803 0
M  V30 2298 H 230.998 4.53451 0.847329 0
M  V30 2299 H 229.241 4.27639 0.72849 0
M  V30 2300 H 229.912 5.08483 2.14823 0
M  V30 2301 H 232.388 3.22043 2.63491 0
M  V30 2302 H 231.264 3.95308 3.80819 0
M  V30 2303 H 231.525 2.21611 3.82545 0
M  V30 2304 N 230.584 -0.659388 1.43143 0
M  V30 2305 C 232 -0.974337 1.26407 0
M  V30 2306 C 232.2 -2.007 0.179341 0
M  V30 2307 O 231.256 -2.4856 -0.444295 0
M  V30 2308 C 232.569 -1.46447 2.62628 0
M  V30 2309 C 234.117 -1.58144 2.7011 0
M  V30 2310 C 234.592 -2.1055 4.06734 0
M  V30 2311 N 236.083 -2.17861 4.08767 0
M  V30 2312 C 236.818 -2.59519 5.1131 0
M  V30 2313 N 236.314 -3.00518 6.24228 0
M  V30 2314 N 238.107 -2.59404 4.98664 0
M  V30 2315 H 230.258 0.0240528 2.12386 0
M  V30 2316 H 232.521 -0.0518065 0.946583 0
M  V30 2317 H 232.227 -0.780123 3.42939 0
M  V30 2318 H 232.101 -2.44058 2.87603 0
M  V30 2319 H 234.488 -2.25682 1.90136 0
M  V30 2320 H 234.569 -0.589828 2.48907 0
M  V30 2321 H 234.213 -1.43616 4.87172 0
M  V30 2322 H 234.143 -3.10531 4.25298 0
M  V30 2323 H 236.634 -1.88975 3.27257 0
M  V30 2324 H 236.947 -3.31036 6.98309 0
M  V30 2325 H 235.292 -2.98337 6.2771 0
M  V30 2326 H 238.483 -2.26747 4.09516 0
M  V30 2327 H 238.656 -2.91548 5.78709 0
M  V30 2328 N 232.062 -1.29571 -0.897171 0
M  V30 2329 C 233.309 -1.17689 -1.6479 0
M  V30 2330 C 233.637 0.27107 -1.92602 0
M  V30 2331 O 232.892 1.21193 -1.53658 0
M  V30 2332 C 233.191 -1.9382 -3.00281 0
M  V30 2333 C 232.857 -3.43522 -2.92068 0
M  V30 2334 C 231.519 -3.84348 -2.89535 0
M  V30 2335 C 233.871 -4.38906 -2.81089 0
M  V30 2336 C 231.199 -5.18869 -2.73846 0
M  V30 2337 C 233.551 -5.73521 -2.66939 0
M  V30 2338 C 232.215 -6.13601 -2.62774 0
M  V30 2339 H 231.485 -0.430654 -0.603008 0
M  V30 2340 H 234.132 -1.60536 -1.04404 0
M  V30 2341 H 232.437 -1.4357 -3.64547 0
M  V30 2342 H 234.134 -1.82028 -3.57305 0
M  V30 2343 H 230.724 -3.11072 -2.94842 0
M  V30 2344 H 234.908 -4.08315 -2.82121 0
M  V30 2345 H 230.164 -5.4903 -2.69027 0
M  V30 2346 H 234.338 -6.47078 -2.57416 0
M  V30 2347 H 231.965 -7.17786 -2.50375 0
M  V30 2348 N 233.54 1.10788 -1.12088 0
M  V30 2349 C 234.788 1.8231 -0.872205 0
M  V30 2350 C 235.109 1.85419 0.603709 0
M  V30 2351 O 234.379 1.32963 1.43867 0
M  V30 2352 H 232.959 0.675137 -0.319686 0
M  V30 2353 H 235.621 1.34068 -1.41463 0
M  V30 2354 H 234.717 2.85955 -1.25045 0
M  V30 2355 N 235.018 0.912232 1.28515 0
M  V30 2356 C 235.928 0.404506 2.31086 0
M  V30 2357 C 236.944 -0.50707 1.66448 0
M  V30 2358 O 238.12 -0.393624 1.97516 0
M  V30 2359 C 235.185 -0.348572 3.44943 0
M  V30 2360 C 234.246 0.59604 4.25142 0
M  V30 2361 C 233.479 -0.121194 5.33562 0
M  V30 2362 O 233.702 -1.34317 5.5436 0
M  V30 2363 O 232.636 0.542716 5.99448 0
M  V30 2364 H 236.462 1.25579 2.76521 0
M  V30 2365 H 234.047 0.676998 1.33181 0
M  V30 2366 H 235.929 -0.77395 4.14232 0
M  V30 2367 H 234.604 -1.17571 3.01594 0
M  V30 2368 H 233.511 1.07079 3.58448 0
M  V30 2369 H 234.844 1.38995 4.72167 0
M  V30 2370 N 236.496 -1.42363 0.676048 0
M  V30 2371 C 237.907 -1.84649 0.275948 0
M  V30 2372 C 238.258 -1.56588 -1.18214 0
M  V30 2373 O 237.383 -1.02634 -1.90513 0
M  V30 2374 C 237.978 -3.35178 0.494053 0
M  V30 2375 C 236.537 -3.76109 0.148061 0
M  V30 2376 C 235.684 -2.65931 0.785891 0
M  V30 2377 H 238.635 -1.32192 0.878121 0
M  V30 2378 H 238.656 -3.79655 -0.25343 0
M  V30 2379 H 238.168 -3.55571 1.55535 0
M  V30 2380 H 236.269 -3.61323 -0.909742 0
M  V30 2381 H 236.382 -4.7546 0.589454 0
M  V30 2382 H 234.746 -2.53773 0.217113 0
M  V30 2383 H 235.529 -2.89146 1.85067 0
M  V30 2384 N 237.974 -0.419461 -1.51915 0
M  V30 2385 C 238.904 0.391813 -2.30189 0
M  V30 2386 C 239.885 1.03699 -1.34836 0
M  V30 2387 O 241.07 1.04403 -1.63748 0
M  V30 2388 C 238.2 1.50312 -3.13087 0
M  V30 2389 C 237.154 0.9824 -4.16573 0
M  V30 2390 C 236.48 2.18809 -4.8788 0
M  V30 2391 C 237.78 0.0292356 -5.22292 0
M  V30 2392 H 239.474 -0.26135 -2.98257 0
M  V30 2393 H 237.02 -0.127134 -1.43438 0
M  V30 2394 H 238.973 2.07773 -3.66617 0
M  V30 2395 H 237.697 2.18431 -2.42807 0
M  V30 2396 H 236.356 0.430119 -3.64068 0
M  V30 2397 H 236.004 2.85507 -4.14119 0
M  V30 2398 H 235.704 1.84615 -5.57845 0
M  V30 2399 H 237.228 2.76858 -5.44226 0
M  V30 2400 H 238.642 0.512976 -5.71 0
M  V30 2401 H 237.039 -0.2244 -5.9968 0
M  V30 2402 H 238.109 -0.912931 -4.76228 0
M  V30 2403 N 239.452 1.56882 -0.150215 0
M  V30 2404 C 240.677 2.01027 0.510184 0
M  V30 2405 C 241.102 1.02966 1.57415 0
M  V30 2406 O 240.46 0.00590158 1.81299 0
M  V30 2407 C 240.508 3.43899 1.08472 0
M  V30 2408 O 239.612 3.4885 2.19948 0
M  V30 2409 H 238.953 0.652233 0.124451 0
M  V30 2410 H 241.483 2.03093 -0.247894 0
M  V30 2411 H 241.493 3.82766 1.41259 0
M  V30 2412 H 240.168 4.14776 0.305582 0
M  V30 2413 H 238.745 3.21827 1.88366 0
M  V30 2414 N 240.93 -0.123565 1.57115 0
M  V30 2415 C 242.178 -0.83051 1.84247 0
M  V30 2416 C 242.499 -1.80629 0.73471 0
M  V30 2417 O 241.769 -1.94403 -0.241688 0
M  V30 2418 H 240.349 -0.309694 0.679778 0
M  V30 2419 H 243.011 -0.111976 1.94578 0
M  V30 2420 H 242.107 -1.37852 2.80006 0
M  V30 2421 N 242.408 -1.52605 -0.393616 0
M  V30 2422 C 243.638 -1.71046 -1.15874 0
M  V30 2423 C 244.046 -0.426483 -1.84331 0
M  V30 2424 O 243.389 0.608513 -1.73329 0
M  V30 2425 C 243.451 -2.80118 -2.25332 0
M  V30 2426 C 243.115 -4.21381 -1.76881 0
M  V30 2427 C 244.112 -5.04697 -1.24808 0
M  V30 2428 C 241.797 -4.67683 -1.83244 0
M  V30 2429 C 243.791 -6.32393 -0.797387 0
M  V30 2430 C 241.478 -5.95364 -1.37787 0
M  V30 2431 C 242.476 -6.77549 -0.861208 0
M  V30 2432 O 242.164 -8.02837 -0.413252 0
M  V30 2433 H 241.896 -0.576155 -0.353583 0
M  V30 2434 H 244.45 -2.00018 -0.467123 0
M  V30 2435 H 242.68 -2.46557 -2.97904 0
M  V30 2436 H 244.369 -2.87006 -2.87023 0
M  V30 2437 H 245.135 -4.70111 -1.19252 0
M  V30 2438 H 241.014 -4.03805 -2.22401 0
M  V30 2439 H 244.558 -6.9649 -0.393437 0
M  V30 2440 H 240.455 -6.29455 -1.43026 0
M  V30 2441 H 241.223 -8.16749 -0.53515 0
M  V30 2442 N 243.887 0.651787 -1.4349 0
M  V30 2443 C 244.835 1.78586 -1.49029 0
M  V30 2444 C 245.829 1.65448 -0.363767 0
M  V30 2445 O 247.035 1.71777 -0.537821 0
M  V30 2446 H 243.41 0.589236 -0.467231 0
M  V30 2447 H 245.381 1.71035 -2.44519 0
M  V30 2448 C 244.13 3.16851 -1.43181 0
M  V30 2449 H 243.453 3.27598 -2.29171 0
M  V30 2450 H 244.893 3.96156 -1.51118 0
M  V30 2451 C 243.352 3.36568 -0.149616 0
M  V30 2452 O 243.882 3.93885 0.788509 0
M  V30 2453 N 242.088 2.90539 -0.0593484 0
M  V30 2454 H 241.635 2.4408 -0.823575 0
M  V30 2455 H 241.593 3.04108 0.797853 0
M  V30 2456 N 245.365 1.30045 0.890287 0
M  V30 2457 C 246.593 1.21472 1.67487 0
M  V30 2458 C 247.008 -0.223241 1.87476 0
M  V30 2459 O 246.365 -1.14828 1.41847 0
M  V30 2460 C 246.416 1.93394 3.05419 0
M  V30 2461 O 246.137 3.31576 2.86337 0
M  V30 2462 C 247.638 1.91414 3.99844 0
M  V30 2463 H 244.858 0.420604 0.522813 0
M  V30 2464 H 247.402 1.7158 1.11268 0
M  V30 2465 H 245.557 1.47099 3.58386 0
M  V30 2466 H 245.971 3.67929 3.73802 0
M  V30 2467 H 247.445 2.46285 4.94012 0
M  V30 2468 H 247.922 0.891833 4.3005 0
M  V30 2469 H 248.528 2.37496 3.52811 0
M  V30 2470 N 246.843 -1.10192 1.12674 0
M  V30 2471 C 248.12 -1.78717 0.794965 0
M  V30 2472 C 248.5 -1.98628 -0.714853 0
M  V30 2473 O 247.848 -1.58135 -1.64941 0
M  V30 2474 C 248.058 -3.11546 1.5729 0
M  V30 2475 C 249.406 -3.86382 1.76052 0
M  V30 2476 O 250.43 -3.21274 1.53823 0
M  V30 2477 O 249.289 -5.03246 2.13087 0
M  V30 2478 H 246.383 -0.774702 0.289423 0
M  V30 2479 H 248.929 -1.16819 1.23091 0
M  V30 2480 H 247.701 -2.92489 2.59935 0
M  V30 2481 H 247.324 -3.81164 1.13137 0
M  V30 2482 N 248.321 -0.919034 -1.28029 0
M  V30 2483 C 249.568 -0.554934 -1.94748 0
M  V30 2484 C 249.896 0.90231 -1.72304 0
M  V30 2485 O 249.151 1.65767 -1.04018 0
M  V30 2486 C 249.45 -0.816855 -3.4794 0
M  V30 2487 C 249.116 -2.25448 -3.90492 0
M  V30 2488 C 247.778 -2.64752 -4.01821 0
M  V30 2489 C 250.13 -3.18977 -4.12193 0
M  V30 2490 C 247.458 -3.96727 -4.32232 0
M  V30 2491 C 249.81 -4.50523 -4.44086 0
M  V30 2492 C 248.474 -4.89673 -4.53626 0
M  V30 2493 H 247.744 -0.203065 -0.712633 0
M  V30 2494 H 250.391 -1.16136 -1.52265 0
M  V30 2495 H 248.696 -0.127677 -3.91592 0
M  V30 2496 H 250.393 -0.514238 -3.97689 0
M  V30 2497 H 246.983 -1.93952 -3.82205 0
M  V30 2498 H 251.167 -2.89817 -4.02889 0
M  V30 2499 H 246.423 -4.26754 -4.37825 0
M  V30 2500 H 250.597 -5.23005 -4.59825 0
M  V30 2501 H 248.224 -5.91969 -4.76946 0
M  V30 2502 N 249.799 1.42003 -0.683588 0
M  V30 2503 C 250.747 2.326 0.000815408 0
M  V30 2504 C 251.741 1.50308 0.781278 0
M  V30 2505 O 252.947 1.66322 0.688251 0
M  V30 2506 H 249.322 0.751758 0.0190616 0
M  V30 2507 H 251.293 2.88011 -0.780528 0
M  V30 2508 C 250.042 3.34978 0.93195 0
M  V30 2509 H 249.365 3.98345 0.340817 0
M  V30 2510 H 250.805 4.00936 1.37936 0
M  V30 2511 C 249.264 2.67925 2.04249 0
M  V30 2512 O 249.794 2.51788 3.12995 0
M  V30 2513 N 248 2.2681 1.81675 0
M  V30 2514 H 247.547 2.40135 0.932363 0
M  V30 2515 H 247.505 1.8228 2.56167 0
M  V30 2516 N 251.277 0.427512 1.51691 0
M  V30 2517 C 252.523 -0.142439 2.02299 0
M  V30 2518 C 252.856 -1.43214 1.31162 0
M  V30 2519 O 252.131 -1.89833 0.423511 0
M  V30 2520 C 252.414 -0.371301 3.58181 0
M  V30 2521 C 252.267 0.936358 4.39946 0
M  V30 2522 C 253.586 -1.14542 4.24933 0
M  V30 2523 H 250.705 -0.0502937 0.735282 0
M  V30 2524 H 253.347 0.564584 1.81418 0
M  V30 2525 H 251.497 -0.973559 3.76104 0
M  V30 2526 H 253.169 1.57184 4.33694 0
M  V30 2527 H 251.412 1.5432 4.05423 0
M  V30 2528 H 252.083 0.730388 5.47147 0
M  V30 2529 H 254.559 -0.635362 4.11221 0
M  V30 2530 H 253.435 -1.27431 5.33903 0
M  V30 2531 H 253.696 -2.17093 3.85127 0
M  V30 2532 N 252.755 -1.56801 0.158532 0
M  V30 2533 C 254.002 -1.9649 -0.489679 0
M  V30 2534 C 254.33 -1.04394 -1.6411 0
M  V30 2535 O 253.585 -0.0754401 -1.95555 0
M  V30 2536 C 253.884 -3.4235 -1.02623 0
M  V30 2537 C 253.55 -4.50899 0.00794526 0
M  V30 2538 C 252.212 -4.80312 0.292207 0
M  V30 2539 C 254.564 -5.16333 0.710584 0
M  V30 2540 C 251.892 -5.72461 1.28472 0
M  V30 2541 C 254.244 -6.09553 1.69199 0
M  V30 2542 C 252.908 -6.37339 1.98383 0
M  V30 2543 H 252.178 -0.719009 -0.179186 0
M  V30 2544 H 254.825 -1.8989 0.247798 0
M  V30 2545 H 253.13 -3.45838 -1.84128 0
M  V30 2546 H 254.827 -3.70393 -1.53656 0
M  V30 2547 H 251.417 -4.28015 -0.22379 0
M  V30 2548 H 255.601 -4.93732 0.504174 0
M  V30 2549 H 250.857 -5.92278 1.51714 0
M  V30 2550 H 255.031 -6.59327 2.24189 0
M  V30 2551 H 252.658 -7.08546 2.7544 0
M  V30 2552 N 254.233 0.115231 -1.57178 0
M  V30 2553 C 255.479 0.82357 -1.85325 0
M  V30 2554 C 255.812 1.79349 -0.744814 0
M  V30 2555 O 255.087 1.92899 0.249024 0
M  V30 2556 C 255.37 1.57014 -3.24066 0
M  V30 2557 C 255.223 0.619565 -4.45513 0
M  V30 2558 C 256.542 2.52545 -3.60429 0
M  V30 2559 H 253.661 0.297948 -0.674089 0
M  V30 2560 H 256.303 0.0877138 -1.89797 0
M  V30 2561 H 254.453 2.19742 -3.20383 0
M  V30 2562 H 256.125 0.000837639 -4.613 0
M  V30 2563 H 254.368 -0.0686174 -4.33746 0
M  V30 2564 H 255.039 1.17866 -5.3927 0
M  V30 2565 H 257.515 1.9992 -3.64926 0
M  V30 2566 H 256.391 3.01811 -4.58477 0
M  V30 2567 H 256.652 3.35383 -2.88047 0
M  V30 2568 N 255.711 1.52812 0.385517 0
M  V30 2569 C 256.988 1.5861 1.14465 0
M  V30 2570 C 257.368 0.381402 2.07626 0
M  V30 2571 O 256.716 -0.629999 2.19643 0
M  V30 2572 C 256.926 2.92664 1.90128 0
M  V30 2573 C 258.274 3.46526 2.45367 0
M  V30 2574 O 259.298 2.94562 2.0028 0
M  V30 2575 O 258.157 4.37323 3.27736 0
M  V30 2576 H 255.251 0.639855 0.523941 0
M  V30 2577 H 257.797 1.65149 0.390389 0
M  V30 2578 H 256.569 3.71788 1.22022 0
M  V30 2579 H 256.192 2.89527 2.72507 0
M  V30 2580 N 257.189 -0.644168 1.43834 0
M  V30 2581 C 258.466 -1.40188 1.36406 0
M  V30 2582 C 258.846 -2.11094 0.0163124 0
M  V30 2583 O 258.194 -2.05426 -1.00062 0
M  V30 2584 C 258.404 -2.3791 2.55343 0
M  V30 2585 C 259.752 -3.01637 2.98832 0
M  V30 2586 O 260.776 -2.48237 2.55455 0
M  V30 2587 O 259.635 -3.98477 3.74003 0
M  V30 2588 H 256.729 -0.626773 0.539523 0
M  V30 2589 H 259.275 -0.670317 1.559 0
M  V30 2590 H 258.047 -1.84525 3.4506 0
M  V30 2591 H 257.67 -3.18503 2.37995 0
M  V30 2592 N 258.668 -1.30515 -0.883378 0
M  V30 2593 C 259.917 -1.18795 -1.63005 0
M  V30 2594 C 260.23 0.255923 -1.93919 0
M  V30 2595 O 261.436 0.494654 -2.66956 0
M  V30 2596 C 259.892 -2.07878 -2.93794 0
M  V30 2597 C 259.5 -3.57184 -2.70414 0
M  V30 2598 C 261.244 -2.04924 -3.71761 0
M  V30 2599 C 259.151 -4.38317 -3.97029 0
M  V30 2600 H 258.081 -0.441031 -0.611562 0
M  V30 2601 H 260.732 -1.55275 -0.977854 0
M  V30 2602 H 259.114 -1.64283 -3.60315 0
M  V30 2603 H 260.288 -4.08937 -2.12384 0
M  V30 2604 H 258.603 -3.61976 -2.0582 0
M  V30 2605 H 261.2 -2.62792 -4.65665 0
M  V30 2606 H 261.543 -1.0331 -4.03277 0
M  V30 2607 H 262.076 -2.46649 -3.12104 0
M  V30 2608 H 258.815 -5.40632 -3.70671 0
M  V30 2609 H 258.335 -3.91326 -4.54559 0
M  V30 2610 H 260.014 -4.49834 -4.65036 0
M  V30 2611 N 260.146 1.09593 -1.13257 0
M  V30 2612 C 261.109 2.14359 -0.811358 0
M  V30 2613 C 262.109 1.59808 0.178377 0
M  V30 2614 O 263.299 1.74132 -0.0484911 0
M  V30 2615 C 260.431 3.40269 -0.207276 0
M  V30 2616 H 261.624 2.44284 -1.73969 0
M  V30 2617 H 259.177 1.25102 -0.936973 0
M  V30 2618 H 259.912 3.15969 0.73036 0
M  V30 2619 H 259.697 3.81154 -0.919992 0
M  V30 2620 H 261.187 4.176 0.000667944 0
M  V30 2621 N 261.624 0.925811 1.2754 0
M  V30 2622 C 263.04 0.625767 1.46821 0
M  V30 2623 C 263.24 -0.825506 1.83814 0
M  V30 2624 O 262.296 -1.60356 1.95044 0
M  V30 2625 C 263.609 1.57402 2.56213 0
M  V30 2626 C 265.157 1.58204 2.70075 0
M  V30 2627 C 265.632 2.51721 3.82623 0
M  V30 2628 N 267.123 2.49917 3.89994 0
M  V30 2629 C 267.858 3.18968 4.76494 0
M  V30 2630 N 267.354 3.97391 5.67496 0
M  V30 2631 N 269.147 3.07996 4.70208 0
M  V30 2632 H 261.298 1.86409 1.01811 0
M  V30 2633 H 263.561 0.800213 0.508295 0
M  V30 2634 H 263.267 2.60925 2.35819 0
M  V30 2635 H 263.141 1.31428 3.53563 0
M  V30 2636 H 265.528 0.554124 2.89851 0
M  V30 2637 H 265.609 1.88226 1.73218 0
M  V30 2638 H 265.253 3.54622 3.63601 0
M  V30 2639 H 265.183 2.18996 4.78903 0
M  V30 2640 H 267.674 1.9296 3.24923 0
M  V30 2641 H 267.987 4.4707 6.30356 0
M  V30 2642 H 266.332 4.01495 5.67298 0
M  V30 2643 H 269.523 2.46223 3.9811 0
M  V30 2644 H 269.696 3.6208 5.37403 0
M  V30 2645 N 263.102 -1.41638 0.69111 0
M  V30 2646 C 264.065 -2.29178 0.0319786 0
M  V30 2647 C 265.065 -1.44153 -0.712496 0
M  V30 2648 O 266.255 -1.65354 -0.548053 0
M  V30 2649 C 263.387 -3.26952 -0.965161 0
M  V30 2650 H 264.58 -2.88959 0.802681 0
M  V30 2651 H 262.133 -1.4955 0.454356 0
M  V30 2652 H 262.868 -2.72142 -1.76378 0
M  V30 2653 H 262.653 -3.89685 -0.434522 0
M  V30 2654 H 264.143 -3.92561 -1.42428 0
M  V30 2655 N 264.58 -0.43555 -1.51462 0
M  V30 2656 C 265.513 0.421989 -2.24264 0
M  V30 2657 C 266.491 1.02619 -1.26127 0
M  V30 2658 O 267.675 1.069 -1.55257 0
M  V30 2659 C 264.802 1.588 -2.99166 0
M  V30 2660 C 263.848 1.10465 -4.11946 0
M  V30 2661 S 264.681 0.048146 -5.35478 0
M  V30 2662 C 265.837 1.21887 -6.13917 0
M  V30 2663 H 266.07 -0.196102 -2.96653 0
M  V30 2664 H 263.603 -0.220054 -1.52824 0
M  V30 2665 H 265.561 2.25647 -3.42919 0
M  V30 2666 H 264.222 2.1775 -2.26371 0
M  V30 2667 H 263.415 1.97654 -4.63626 0
M  V30 2668 H 263.017 0.51445 -3.70445 0
M  V30 2669 H 265.309 2.13756 -6.42895 0
M  V30 2670 H 266.252 0.742076 -7.04201 0
M  V30 2671 H 266.66 1.45663 -5.45383 0
M  V30 2672 N 266.058 1.56714 -0.166846 0
M  V30 2673 C 266.988 2.20754 0.760913 0
M  V30 2674 C 267.969 1.16178 1.24244 0
M  V30 2675 O 269.154 1.44592 1.29641 0
M  V30 2676 C 266.284 2.84478 1.99223 0
M  V30 2677 C 265.238 3.95053 1.64672 0
M  V30 2678 C 264.564 4.45805 2.95232 0
M  V30 2679 C 265.864 5.14865 0.878155 0
M  V30 2680 H 267.558 2.98537 0.22713 0
M  V30 2681 H 265.104 1.43596 0.107805 0
M  V30 2682 H 267.057 3.27951 2.64624 0
M  V30 2683 H 265.781 2.04056 2.55007 0
M  V30 2684 H 264.44 3.52228 1.01641 0
M  V30 2685 H 264.088 3.62181 3.49047 0
M  V30 2686 H 263.788 5.204 2.7287 0
M  V30 2687 H 265.312 4.91962 3.6167 0
M  V30 2688 H 266.726 5.55059 1.43466 0
M  V30 2689 H 265.123 5.95348 0.753738 0
M  V30 2690 H 266.193 4.84735 -0.126377 0
M  V30 2691 N 267.536 -0.106894 1.57237 0
M  V30 2692 C 268.468 -1.15646 1.97885 0
M  V30 2693 C 269.481 -1.36981 0.879779 0
M  V30 2694 O 270.67 -1.35841 1.15799 0
M  V30 2695 C 267.77 -2.51425 2.27241 0
M  V30 2696 C 266.943 -2.50529 3.58545 0
M  V30 2697 C 266.002 -3.68145 3.75973 0
M  V30 2698 O 265.028 -3.51176 4.47956 0
M  V30 2699 N 266.23 -4.87177 3.15656 0
M  V30 2700 H 268.995 -0.81059 2.8853 0
M  V30 2701 H 266.556 -0.296024 1.59171 0
M  V30 2702 H 268.548 -3.28689 2.36105 0
M  V30 2703 H 267.118 -2.78147 1.42663 0
M  V30 2704 H 266.338 -1.58894 3.60758 0
M  V30 2705 H 267.626 -2.46997 4.44826 0
M  V30 2706 H 267.024 -5.03868 2.57165 0
M  V30 2707 H 265.581 -5.62075 3.30023 0
M  V30 2708 N 269.014 -1.53014 -0.377408 0
M  V30 2709 C 269.964 -1.74996 -1.46152 0
M  V30 2710 C 270.948 -0.604236 -1.49123 0
M  V30 2711 O 272.14 -0.862489 -1.54564 0
M  V30 2712 C 269.269 -1.93267 -2.8373 0
M  V30 2713 C 268.355 -3.13807 -2.85283 0
M  V30 2714 N 268.746 -4.35941 -2.56493 0
M  V30 2715 C 267.044 -3.14288 -3.16448 0
M  V30 2716 C 267.745 -5.17615 -2.65424 0
M  V30 2717 N 266.721 -4.53559 -2.99641 0
M  V30 2718 H 270.523 -2.67044 -1.22738 0
M  V30 2719 H 268.037 -1.51479 -0.585479 0
M  V30 2720 H 270.034 -2.0714 -3.61799 0
M  V30 2721 H 268.694 -1.0244 -3.08117 0
M  V30 2722 H 269.705 -4.63876 -2.30302 0
M  V30 2723 H 266.382 -2.33312 -3.46225 0
M  V30 2724 H 267.772 -6.25006 -2.46612 0
M  V30 2725 N 270.492 0.636531 -1.44174 0
M  V30 2726 C 271.908 0.954104 -1.27941 0
M  V30 2727 C 272.108 2.0039 -0.211248 0
M  V30 2728 O 271.164 2.49236 0.404695 0
M  V30 2729 C 272.477 1.4225 -2.64925 0
M  V30 2730 C 274.025 1.53827 -2.72592 0
M  V30 2731 C 274.5 2.04053 -4.10032 0
M  V30 2732 N 275.991 2.11331 -4.12182 0
M  V30 2733 C 276.726 2.51352 -5.15374 0
M  V30 2734 N 276.222 2.90549 -6.2893 0
M  V30 2735 N 278.015 2.51438 -5.02728 0
M  V30 2736 H 270.166 -0.0578386 -2.12321 0
M  V30 2737 H 272.429 0.0367406 -0.947288 0
M  V30 2738 H 272.135 0.725466 -3.44136 0
M  V30 2739 H 272.009 2.39451 -2.9145 0
M  V30 2740 H 274.396 2.22628 -1.93702 0
M  V30 2741 H 274.477 0.550154 -2.49814 0
M  V30 2742 H 274.121 1.35848 -4.89395 0
M  V30 2743 H 274.051 3.03726 -4.30184 0
M  V30 2744 H 276.542 1.83745 -3.30222 0
M  V30 2745 H 276.855 3.19884 -7.03487 0
M  V30 2746 H 275.2 2.88313 -6.32377 0
M  V30 2747 H 278.391 2.20203 -4.13072 0
M  V30 2748 H 278.564 2.82304 -5.83274 0
M  V30 2749 N 271.97 1.30982 0.876444 0
M  V30 2750 C 273.216 1.20474 1.63138 0
M  V30 2751 C 273.549 -0.238096 1.92735 0
M  V30 2752 O 272.824 -1.1692 1.55435 0
M  V30 2753 C 273.107 2.04244 2.96574 0
M  V30 2754 C 272.96 3.56793 2.73896 0
M  V30 2755 C 274.279 1.88684 3.97601 0
M  V30 2756 H 271.398 0.439001 0.591985 0
M  V30 2757 H 274.04 1.60704 1.01361 0
M  V30 2758 H 272.19 1.70063 3.493 0
M  V30 2759 H 273.862 4.01077 2.27892 0
M  V30 2760 H 272.105 3.80548 2.08245 0
M  V30 2761 H 272.776 4.10706 3.68815 0
M  V30 2762 H 275.252 2.18584 3.54062 0
M  V30 2763 H 274.128 2.4961 4.88862 0
M  V30 2764 H 274.389 0.848343 4.33884 0
M  V30 2765 N 273.449 -1.08991 1.13837 0
M  V30 2766 C 274.698 -1.80631 0.897509 0
M  V30 2767 C 275.011 -1.86872 -0.57777 0
M  V30 2768 O 276.217 -2.54866 -0.935701 0
M  V30 2769 C 274.673 -3.24517 1.55618 0
M  V30 2770 C 274.281 -3.26529 3.0673 0
M  V30 2771 C 276.025 -4.00882 1.3962 0
M  V30 2772 C 273.932 -4.64965 3.65461 0
M  V30 2773 H 272.862 -0.67691 0.332129 0
M  V30 2774 H 275.513 -1.2246 1.3666 0
M  V30 2775 H 273.895 -3.82778 1.01476 0
M  V30 2776 H 275.069 -2.78008 3.67489 0
M  V30 2777 H 273.384 -2.63656 3.22296 0
M  V30 2778 H 275.981 -5.03167 1.80906 0
M  V30 2779 H 276.324 -4.14896 0.341578 0
M  V30 2780 H 276.857 -3.49075 1.90766 0
M  V30 2781 H 273.596 -4.56153 4.70749 0
M  V30 2782 H 273.116 -5.13792 3.09481 0
M  V30 2783 H 274.795 -5.3394 3.654 0
M  V30 2784 N 274.927 -0.932562 -1.27047 0
M  V30 2785 C 276.173 -0.576412 -1.94436 0
M  V30 2786 C 276.506 0.880891 -1.73072 0
M  V30 2787 O 275.781 1.62905 -1.06264 0
M  V30 2788 C 276.064 -0.909031 -3.48437 0
M  V30 2789 C 275.917 -2.42044 -3.79123 0
M  V30 2790 C 277.236 -0.418341 -4.38107 0
M  V30 2791 H 274.355 -0.210888 -0.706184 0
M  V30 2792 H 276.997 -1.16522 -1.50075 0
M  V30 2793 H 275.147 -0.407947 -3.86352 0
M  V30 2794 H 276.819 -2.99359 -3.50973 0
M  V30 2795 H 275.062 -2.86758 -3.25503 0
M  V30 2796 H 275.733 -2.6037 -4.86736 0
M  V30 2797 H 278.209 -0.847856 -4.0737 0
M  V30 2798 H 277.085 -0.679981 -5.44672 0
M  V30 2799 H 277.346 0.681642 -4.36814 0
M  V30 2800 N 276.405 1.4127 -0.698611 0
M  V30 2801 C 277.654 2.00408 -0.227949 0
M  V30 2802 C 277.967 1.55981 1.18023 0
M  V30 2803 O 279.173 2.07699 1.74852 0
M  V30 2804 C 277.629 3.58129 -0.356636 0
M  V30 2805 C 277.237 4.11536 -1.77037 0
M  V30 2806 C 278.981 4.24466 0.0540969 0
M  V30 2807 C 276.888 5.61701 -1.85055 0
M  V30 2808 H 275.818 0.749586 -0.0814657 0
M  V30 2809 H 278.469 1.61713 -0.867249 0
M  V30 2810 H 276.851 3.94442 0.350965 0
M  V30 2811 H 278.025 3.86636 -2.50698 0
M  V30 2812 H 276.34 3.57736 -2.13105 0
M  V30 2813 H 278.937 5.34698 0.0146723 0
M  V30 2814 H 279.28 4.01687 1.09332 0
M  V30 2815 H 279.813 3.93198 -0.603337 0
M  V30 2816 H 276.552 5.89312 -2.8704 0
M  V30 2817 H 276.072 5.88519 -1.15783 0
M  V30 2818 H 277.751 6.26524 -1.61484 0
M  V30 2819 N 277.883 0.443576 1.51229 0
M  V30 2820 C 279.16 -0.181038 1.9476 0
M  V30 2821 C 279.54 -1.59523 1.38259 0
M  V30 2822 O 278.888 -2.2122 0.572198 0
M  V30 2823 C 279.098 -0.152422 3.48667 0
M  V30 2824 C 280.446 -0.354923 4.23114 0
M  V30 2825 O 281.47 -0.230257 3.55455 0
M  V30 2826 O 280.329 -0.603674 5.43156 0
M  V30 2827 H 277.423 -0.1266 0.817252 0
M  V30 2828 H 279.969 0.502004 1.62105 0
M  V30 2829 H 278.741 0.836022 3.82265 0
M  V30 2830 H 278.364 -0.878107 3.87782 0
M  V30 2831 N 279.361 -1.56624 0.175154 0
M  V30 2832 C 280.586 -2.01813 -0.478137 0
M  V30 2833 C 281.011 -1.05457 -1.55757 0
M  V30 2834 O 280.369 -0.0347439 -1.81267 0
M  V30 2835 C 280.417 -3.45581 -1.02987 0
M  V30 2836 O 279.521 -3.52305 -2.14371 0
M  V30 2837 H 278.862 -0.65413 -0.114059 0
M  V30 2838 H 281.392 -2.02673 0.280173 0
M  V30 2839 H 281.402 -3.84965 -1.35151 0
M  V30 2840 H 280.077 -4.1521 -0.239556 0
M  V30 2841 H 278.654 -3.24783 -1.83222 0
M  V30 2842 N 280.839 0.0985539 -1.57292 0
M  V30 2843 C 281.769 1.12064 -2.04851 0
M  V30 2844 C 282.75 1.41981 -0.936767 0
M  V30 2845 O 283.935 1.52071 -1.20781 0
M  V30 2846 C 281.065 2.44144 -2.47004 0
M  V30 2847 C 280.019 2.28643 -3.6181 0
M  V30 2848 C 279.345 3.65869 -3.89929 0
M  V30 2849 C 280.645 1.72986 -4.92822 0
M  V30 2850 H 282.339 0.724979 -2.9049 0
M  V30 2851 H 279.885 0.34729 -1.39749 0
M  V30 2852 H 281.838 3.15914 -2.78884 0
M  V30 2853 H 280.562 2.85639 -1.5836 0
M  V30 2854 H 279.221 1.59318 -3.30172 0
M  V30 2855 H 278.869 4.04885 -2.98458 0
M  V30 2856 H 278.569 3.56344 -4.67218 0
M  V30 2857 H 280.093 4.39112 -4.2428 0
M  V30 2858 H 281.507 2.34593 -5.23105 0
M  V30 2859 H 279.904 1.74229 -5.74251 0
M  V30 2860 H 280.974 0.689007 -4.7998 0
M  V30 2861 N 282.317 1.53212 0.369288 0
M  V30 2862 C 283.264 1.79388 1.45219 0
M  V30 2863 C 284.234 0.638059 1.53356 0
M  V30 2864 O 285.419 0.879852 1.69302 0
M  V30 2865 C 282.559 1.98623 2.82211 0
M  V30 2866 C 281.672 3.26337 2.8307 0
M  V30 2867 C 280.807 3.35779 4.11614 0
M  V30 2868 C 279.846 4.5754 4.06601 0
M  V30 2869 N 278.983 4.64155 5.26787 0
M  V30 2870 H 283.823 2.71794 1.22198 0
M  V30 2871 H 281.36 1.34642 0.592444 0
M  V30 2872 H 283.318 2.07761 3.61789 0
M  V30 2873 H 281.948 1.09558 3.03639 0
M  V30 2874 H 281 3.26171 1.95747 0
M  V30 2875 H 282.312 4.15988 2.75237 0
M  V30 2876 H 281.466 3.44208 4.99606 0
M  V30 2877 H 280.205 2.44137 4.22195 0
M  V30 2878 H 279.21 4.49215 3.16996 0
M  V30 2879 H 280.435 5.50519 3.97625 0
M  V30 2880 H 278.381 3.75413 5.3796 0
M  V30 2881 H 278.298 5.47706 5.21109 0
M  V30 2882 H 279.566 4.76863 6.16621 0
M  V30 2883 N 283.795 -0.628877 1.44509 0
M  V30 2884 C 284.743 -1.76193 1.51852 0
M  V30 2885 C 285.737 -1.64849 0.390042 0
M  V30 2886 O 286.943 -1.709 0.565082 0
M  V30 2887 H 283.318 -0.581728 0.476547 0
M  V30 2888 H 285.289 -1.67123 2.47209 0
M  V30 2889 C 284.038 -3.14533 1.48204 0
M  V30 2890 H 283.361 -3.23911 2.34354 0
M  V30 2891 H 284.801 -3.93701 1.57402 0
M  V30 2892 C 283.26 -3.36287 0.203142 0
M  V30 2893 O 283.79 -3.9509 -0.725745 0
M  V30 2894 N 281.996 -2.90408 0.105563 0
M  V30 2895 H 281.543 -2.42739 0.862301 0
M  V30 2896 H 281.501 -3.05339 -0.749371 0
M  V30 2897 N 285.273 -1.31445 -0.869486 0
M  V30 2898 C 286.519 -1.21337 -1.62496 0
M  V30 2899 C 286.852 0.227872 -1.92858 0
M  V30 2900 O 286.127 1.16094 -1.56053 0
M  V30 2901 C 286.41 -2.05814 -2.95487 0
M  V30 2902 C 286.263 -3.5824 -2.72 0
M  V30 2903 C 287.582 -1.9079 -3.96594 0
M  V30 2904 H 284.701 -0.442135 -0.589649 0
M  V30 2905 H 287.343 -1.6124 -1.00507 0
M  V30 2906 H 285.493 -1.71913 -3.48394 0
M  V30 2907 H 287.165 -4.0228 -2.25762 0
M  V30 2908 H 285.408 -3.81647 -2.06224 0
M  V30 2909 H 286.079 -4.12657 -3.66631 0
M  V30 2910 H 288.555 -2.20459 -3.52898 0
M  V30 2911 H 287.431 -2.52199 -4.87531 0
M  V30 2912 H 287.692 -0.871341 -4.33428 0
M  V30 2913 N 286.751 1.08385 -1.14413 0
M  V30 2914 C 288 1.80153 -0.907076 0
M  V30 2915 C 288.313 1.87176 0.567851 0
M  V30 2916 O 289.519 2.55359 0.922172 0
M  V30 2917 C 287.975 3.23687 -1.57336 0
M  V30 2918 C 287.583 3.24897 -3.08457 0
M  V30 2919 C 289.327 4.00136 -1.41744 0
M  V30 2920 C 287.234 4.6302 -3.67921 0
M  V30 2921 H 286.164 0.675139 -0.335714 0
M  V30 2922 H 288.815 1.21733 -1.37307 0
M  V30 2923 H 287.197 3.82234 -1.03505 0
M  V30 2924 H 288.371 2.76055 -3.68958 0
M  V30 2925 H 286.686 2.61943 -3.2369 0
M  V30 2926 H 289.283 5.02201 -1.83572 0
M  V30 2927 H 289.626 4.14709 -0.363576 0
M  V30 2928 H 290.159 3.48058 -1.92614 0
M  V30 2929 H 286.898 4.5365 -4.73161 0
M  V30 2930 H 286.418 5.12143 -3.12201 0
M  V30 2931 H 288.097 5.31994 -3.68227 0
M  V30 2932 N 288.23 0.939286 1.26551 0
M  V30 2933 C 289.478 0.58469 1.93457 0
M  V30 2934 C 289.799 -0.878774 1.74076 0
M  V30 2935 O 289.069 -1.62421 1.09528 0
M  V30 2936 H 287.649 0.21325 0.715914 0
M  V30 2937 H 290.311 1.1942 1.54029 0
M  V30 2938 H 289.407 0.800849 3.0165 0
M  V30 2939 N 289.708 -1.40897 0.706093 0
M  V30 2940 C 290.671 -2.29131 0.0562841 0
M  V30 2941 C 291.671 -1.44901 -0.697166 0
M  V30 2942 O 292.861 -1.65926 -0.530484 0
M  V30 2943 C 289.993 -3.27957 -0.93043 0
M  V30 2944 H 291.186 -2.88091 0.833284 0
M  V30 2945 H 288.739 -1.4906 0.470192 0
M  V30 2946 H 289.474 -2.73997 -1.73482 0
M  V30 2947 H 289.259 -3.90124 -0.393166 0
M  V30 2948 H 290.749 -3.94049 -1.38256 0
M  V30 2949 N 291.186 -0.45159 -1.50991 0
M  V30 2950 C 292.149 0.341117 -2.26647 0
M  V30 2951 C 293.149 0.937422 -1.30649 0
M  V30 2952 O 294.339 0.809644 -1.54241 0
M  V30 2953 C 291.471 1.48398 -3.06905 0
M  V30 2954 H 292.664 -0.322117 -2.98165 0
M  V30 2955 H 290.217 -0.205122 -1.54948 0
M  V30 2956 H 290.952 2.18284 -2.39838 0
M  V30 2957 H 290.737 1.06241 -3.77432 0
M  V30 2958 H 292.227 2.04367 -3.64176 0
M  V30 2959 N 292.664 1.56529 -0.183458 0
M  V30 2960 C 293.912 1.96855 0.457452 0
M  V30 2961 C 294.233 1.07104 1.62953 0
M  V30 2962 O 293.503 0.139887 1.954 0
M  V30 2963 H 292.083 0.72693 0.171992 0
M  V30 2964 H 294.745 1.93056 -0.267476 0
M  V30 2965 H 293.841 3.01423 0.809368 0
M  V30 2966 N 294.142 -0.090211 1.57342 0
M  V30 2967 C 295.39 -0.791241 1.85967 0
M  V30 2968 C 295.711 -1.7903 0.772859 0
M  V30 2969 O 294.981 -1.94872 -0.200398 0
M  V30 2970 H 293.561 -0.295205 0.686195 0
M  V30 2971 H 296.223 -0.0706782 1.94772 0
M  V30 2972 H 295.319 -1.31882 2.82867 0
M  V30 2973 N 295.62 -1.53406 -0.361157 0
M  V30 2974 C 296.568 -1.80832 -1.46296 0
M  V30 2975 C 297.562 -0.677699 -1.55253 0
M  V30 2976 O 298.768 -0.860723 -1.58087 0
M  V30 2977 H 295.143 -0.572627 -0.487445 0
M  V30 2978 H 297.114 -2.73045 -1.20371 0
M  V30 2979 C 295.863 -2.01907 -2.8307 0
M  V30 2980 H 295.186 -2.88349 -2.76938 0
M  V30 2981 H 296.626 -2.25072 -3.59331 0
M  V30 2982 C 295.085 -0.799449 -3.27277 0
M  V30 2983 O 295.615 0.00971761 -4.01699 0
M  V30 2984 N 293.821 -0.621637 -2.83873 0
M  V30 2985 H 293.368 -1.28126 -2.23476 0
M  V30 2986 H 293.326 0.19298 -3.13807 0
M  V30 2987 N 297.098 0.621204 -1.44841 0
M  V30 2988 C 298.326 1.40752 -1.51646 0
M  V30 2989 C 298.741 1.88246 -0.144549 0
M  V30 2990 O 298.098 1.61422 0.851416 0
M  V30 2991 C 298.149 2.62119 -2.4895 0
M  V30 2992 O 297.87 2.16602 -3.80808 0
M  V30 2993 C 299.371 3.55135 -2.65319 0
M  V30 2994 H 296.591 0.431325 -0.514004 0
M  V30 2995 H 299.135 0.758835 -1.899 0
M  V30 2996 H 297.29 3.23058 -2.13805 0
M  V30 2997 H 297.704 2.95358 -4.33433 0
M  V30 2998 H 299.178 4.36874 -3.37409 0
M  V30 2999 H 299.655 4.04592 -1.70886 0
M  V30 3000 H 300.261 3.00058 -3.01405 0
M  V30 3001 N 298.576 1.31904 0.862503 0
M  V30 3002 C 299.804 1.24998 1.64873 0
M  V30 3003 C 300.219 -0.183425 1.87907 0
M  V30 3004 O 299.576 -1.11794 1.44251 0
M  V30 3005 C 299.627 1.99829 3.01248 0
M  V30 3006 O 299.348 3.37575 2.79239 0
M  V30 3007 C 300.849 1.99852 3.95694 0
M  V30 3008 H 298.069 0.431599 0.513773 0
M  V30 3009 H 300.613 1.73901 1.07604 0
M  V30 3010 H 298.768 1.54668 3.55185 0
M  V30 3011 H 299.182 3.75776 3.65914 0
M  V30 3012 H 300.656 2.56709 4.88676 0
M  V30 3013 H 301.133 0.982852 4.28062 0
M  V30 3014 H 301.739 2.44926 3.47694 0
M  V30 3015 N 300.054 -1.07777 1.14986 0
M  V30 3016 C 301.279 -1.84558 0.946213 0
M  V30 3017 C 301.704 -1.81323 -0.500362 0
M  V30 3018 O 301.062 -1.20301 -1.35637 0
M  V30 3019 C 301.11 -3.29736 1.45968 0
M  V30 3020 O 300.214 -4.07149 0.65601 0
M  V30 3021 H 299.555 -0.571641 0.33782 0
M  V30 3022 H 302.085 -1.35991 1.52865 0
M  V30 3023 H 302.095 -3.80574 1.47063 0
M  V30 3024 H 300.77 -3.31406 2.51283 0
M  V30 3025 H 299.347 -3.65994 0.714322 0
M  V30 3026 N 301.532 -0.945985 -1.26051 0
M  V30 3027 C 302.78 -0.594941 -1.93145 0
M  V30 3028 C 303.101 0.86953 -1.7454 0
M  V30 3029 O 302.371 1.61838 -1.10387 0
M  V30 3030 H 300.951 -0.217044 -0.714773 0
M  V30 3031 H 303.613 -1.20235 -1.53393 0
M  V30 3032 H 302.709 -0.816835 -3.01221 0
M  V30 3033 N 303.011 1.40521 -0.713556 0
M  V30 3034 C 304.259 2.00527 -0.251692 0
M  V30 3035 C 304.58 1.56857 1.15848 0
M  V30 3036 O 303.85 0.807127 1.785 0
M  V30 3037 H 302.43 0.741551 -0.0900646 0
M  V30 3038 H 305.092 1.71887 -0.918733 0
M  V30 3039 H 304.188 3.10813 -0.283192 0
M  V30 3040 N 304.489 0.459591 1.5075 0
M  V30 3041 C 305.738 -0.100971 2.01447 0
M  V30 3042 C 306.051 -1.41816 1.34713 0
M  V30 3043 O 307.257 -2.06299 1.76502 0
M  V30 3044 C 305.713 -0.23047 3.59161 0
M  V30 3045 C 305.321 1.0776 4.34847 0
M  V30 3046 C 307.065 -0.743608 4.17936 0
M  V30 3047 C 304.972 0.91253 5.84317 0
M  V30 3048 H 303.902 -0.0415102 0.752856 0
M  V30 3049 H 306.553 0.592742 1.73663 0
M  V30 3050 H 304.935 -0.987703 3.83485 0
M  V30 3051 H 306.109 1.8449 4.22256 0
M  V30 3052 H 304.424 1.52097 3.87628 0
M  V30 3053 H 307.021 -0.883959 5.27343 0
M  V30 3054 H 307.364 -1.73196 3.78562 0
M  V30 3055 H 307.897 -0.04408 3.97776 0
M  V30 3056 H 304.636 1.87391 6.28144 0
M  V30 3057 H 304.156 0.185422 5.99513 0
M  V30 3058 H 305.835 0.574547 6.44444 0
M  V30 3059 N 305.967 -1.56429 0.191757 0
M  V30 3060 C 307.192 -2.02309 -0.456706 0
M  V30 3061 C 307.617 -1.07103 -1.5463 0
M  V30 3062 O 306.975 -0.0539677 -1.8122 0
M  V30 3063 C 307.023 -3.46654 -0.993159 0
M  V30 3064 O 306.127 -3.54559 -2.10622 0
M  V30 3065 H 305.468 -0.655303 -0.107114 0
M  V30 3066 H 307.998 -2.02364 0.301653 0
M  V30 3067 H 308.008 -3.86377 -1.31061 0
M  V30 3068 H 306.683 -4.1544 -0.195504 0
M  V30 3069 H 305.26 -3.26708 -1.79767 0
M  V30 3070 N 307.445 0.0818655 -1.57387 0
M  V30 3071 C 308.861 0.436412 -1.53517 0
M  V30 3072 C 309.061 1.79758 -0.910459 0
M  V30 3073 O 308.117 2.47324 -0.508636 0
M  V30 3074 C 309.43 0.386734 -2.98203 0
M  V30 3075 C 310.978 0.467644 -3.09487 0
M  V30 3076 C 311.453 0.447978 -4.55804 0
M  V30 3077 N 312.944 0.508348 -4.60402 0
M  V30 3078 C 313.679 0.515184 -5.71081 0
M  V30 3079 N 313.175 0.477435 -6.91153 0
M  V30 3080 N 314.968 0.560988 -5.59294 0
M  V30 3081 H 307.119 -0.809546 -1.96367 0
M  V30 3082 H 309.382 -0.302733 -0.898363 0
M  V30 3083 H 309.088 -0.546539 -3.47427 0
M  V30 3084 H 308.962 1.20075 -3.57578 0
M  V30 3085 H 311.349 1.39134 -2.60242 0
M  V30 3086 H 311.43 -0.374753 -2.5304 0
M  V30 3087 H 311.074 -0.471826 -5.05704 0
M  V30 3088 H 311.004 1.30777 -5.10103 0
M  V30 3089 H 313.495 0.54218 -3.7399 0
M  V30 3090 H 313.808 0.486299 -7.71268 0
M  V30 3091 H 312.153 0.444278 -6.93579 0
M  V30 3092 H 315.344 0.5881 -4.64391 0
M  V30 3093 H 315.517 0.562846 -6.45551 0
M  V30 3094 N 308.923 1.53595 0.353017 0
M  V30 3095 C 310.171 1.70049 1.09215 0
M  V30 3096 C 310.492 0.461406 1.89463 0
M  V30 3097 O 309.762 -0.524633 1.88744 0
M  V30 3098 H 308.342 0.626912 0.40619 0
M  V30 3099 H 311.004 1.90822 0.396585 0
M  V30 3100 H 310.1 2.56718 1.77488 0
M  V30 3101 N 310.401 -0.613514 1.45168 0
M  V30 3102 C 311.364 -1.7065 1.53007 0
M  V30 3103 C 312.364 -1.5548 0.410184 0
M  V30 3104 O 313.554 -1.60656 0.673455 0
M  V30 3105 C 310.686 -3.09875 1.42093 0
M  V30 3106 H 311.879 -1.65068 2.50385 0
M  V30 3107 H 309.432 -0.828728 1.32521 0
M  V30 3108 H 310.167 -3.21039 0.458769 0
M  V30 3109 H 309.952 -3.22293 2.23315 0
M  V30 3110 H 311.442 -3.895 1.50598 0
M  V30 3111 N 311.879 -1.3236 -0.855495 0
M  V30 3112 C 313.126 -1.22872 -1.60962 0
M  V30 3113 C 313.454 0.209658 -1.93367 0
M  V30 3114 O 312.709 1.16243 -1.57436 0
M  V30 3115 C 313.008 -2.03275 -2.93963 0
M  V30 3116 C 312.674 -3.5264 -2.80991 0
M  V30 3117 C 311.336 -3.93364 -2.7716 0
M  V30 3118 C 313.688 -4.47626 -2.66983 0
M  V30 3119 C 311.016 -5.27319 -2.572 0
M  V30 3120 C 313.368 -5.81723 -2.48558 0
M  V30 3121 C 312.032 -6.2165 -2.4312 0
M  V30 3122 H 311.302 -0.44962 -0.589001 0
M  V30 3123 H 313.949 -1.63777 -0.992442 0
M  V30 3124 H 312.254 -1.55095 -3.59795 0
M  V30 3125 H 313.951 -1.93303 -3.51333 0
M  V30 3126 H 310.541 -3.20295 -2.84797 0
M  V30 3127 H 314.725 -4.17084 -2.68988 0
M  V30 3128 H 309.981 -5.57311 -2.51424 0
M  V30 3129 H 314.155 -6.5494 -2.36699 0
M  V30 3130 H 311.782 -7.25388 -2.27412 0
M  V30 3131 N 313.357 1.07166 -1.15556 0
M  V30 3132 C 314.634 1.76546 -0.842069 0
M  V30 3133 C 315.014 2.00453 0.661939 0
M  V30 3134 O 314.362 1.62452 1.60691 0
M  V30 3135 C 314.572 3.07266 -1.65495 0
M  V30 3136 C 315.92 3.81578 -1.86234 0
M  V30 3137 O 316.944 3.17083 -1.62287 0
M  V30 3138 O 315.803 4.97419 -2.26355 0
M  V30 3139 H 312.897 0.766756 -0.309862 0
M  V30 3140 H 315.443 1.13514 -1.26145 0
M  V30 3141 H 314.215 2.85494 -2.67598 0
M  V30 3142 H 313.838 3.7803 -1.23203 0
M  V30 3143 N 314.835 0.952656 1.25548 0
M  V30 3144 C 315.765 0.489287 2.28316 0
M  V30 3145 C 316.746 -0.463359 1.63667 0
M  V30 3146 O 317.931 -0.36274 1.90782 0
M  V30 3147 C 315.061 -0.235603 3.465 0
M  V30 3148 C 314.015 0.631593 4.23314 0
M  V30 3149 C 313.341 -0.223923 5.34231 0
M  V30 3150 C 314.641 1.90871 4.86174 0
M  V30 3151 H 316.335 1.34822 2.67326 0
M  V30 3152 H 313.881 0.649728 1.28509 0
M  V30 3153 H 315.834 -0.570882 4.17515 0
M  V30 3154 H 314.558 -1.12877 3.06474 0
M  V30 3155 H 313.217 0.949929 3.54079 0
M  V30 3156 H 312.865 -1.11678 4.90446 0
M  V30 3157 H 312.565 0.35299 5.86539 0
M  V30 3158 H 314.089 -0.554214 6.0808 0
M  V30 3159 H 315.503 1.63997 5.49343 0
M  V30 3160 H 313.9 2.43112 5.4865 0
M  V30 3161 H 314.97 2.61304 4.08471 0
M  V30 3162 N 316.313 -1.40141 0.720998 0
M  V30 3163 C 317.243 -2.33339 0.0867621 0
M  V30 3164 C 318.224 -1.53178 -0.739622 0
M  V30 3165 O 319.409 -1.81625 -0.687449 0
M  V30 3166 C 316.539 -3.37194 -0.831728 0
M  V30 3167 C 315.493 -4.27857 -0.110558 0
M  V30 3168 C 314.819 -5.22294 -1.14513 0
M  V30 3169 C 316.119 -5.11872 1.0385 0
M  V30 3170 H 317.813 -2.86626 0.865219 0
M  V30 3171 H 315.359 -1.37814 0.417516 0
M  V30 3172 H 317.312 -4.01335 -1.28485 0
M  V30 3173 H 316.036 -2.82314 -1.64214 0
M  V30 3174 H 314.695 -3.65176 0.322797 0
M  V30 3175 H 314.343 -4.63717 -1.94874 0
M  V30 3176 H 314.043 -5.83797 -0.667446 0
M  V30 3177 H 315.567 -5.89312 -1.59824 0
M  V30 3178 H 316.981 -5.69436 0.664482 0
M  V30 3179 H 315.378 -5.82445 1.4449 0
M  V30 3180 H 316.448 -4.4753 1.86668 0
M  V30 3181 N 317.792 -0.46758 -1.50504 0
M  V30 3182 C 319.017 0.0886943 -2.0721 0
M  V30 3183 C 319.442 1.33057 -1.32956 0
M  V30 3184 O 318.8 1.77354 -0.376197 0
M  V30 3185 C 318.848 0.359202 -3.58806 0
M  V30 3186 O 317.952 1.44034 -3.8643 0
M  V30 3187 H 317.293 -0.0114349 -0.663902 0
M  V30 3188 H 319.823 -0.657613 -1.93744 0
M  V30 3189 H 319.833 0.600742 -4.03553 0
M  V30 3190 H 318.508 -0.548311 -4.1227 0
M  V30 3191 H 317.085 1.18638 -3.53524 0
M  V30 3192 N 319.27 1.56325 -0.20005 0
M  V30 3193 C 320.547 1.89484 0.48529 0
M  V30 3194 C 320.927 1.1143 1.79294 0
M  V30 3195 O 320.275 0.216919 2.27468 0
M  V30 3196 C 320.485 3.41923 0.699243 0
M  V30 3197 C 321.833 4.12256 1.01638 0
M  V30 3198 O 322.857 3.47402 0.786792 0
M  V30 3199 O 321.716 5.26887 1.45095 0
M  V30 3200 H 318.81 0.787144 0.253639 0
M  V30 3201 H 321.356 1.67985 -0.240633 0
M  V30 3202 H 320.128 3.90658 -0.224008 0
M  V30 3203 H 319.751 3.69131 1.47744 0
M  V30 3204 N 320.748 -0.0735177 1.57428 0
M  V30 3205 C 321.997 -0.771809 1.86349 0
M  V30 3206 C 322.31 -1.78828 0.792452 0
M  V30 3207 O 323.516 -2.53602 0.96945 0
M  V30 3208 C 321.972 -1.42358 3.30548 0
M  V30 3209 C 321.58 -0.445761 4.45777 0
M  V30 3210 C 323.324 -2.10434 3.6867 0
M  V30 3211 C 321.231 -1.10335 5.81016 0
M  V30 3212 H 320.161 -0.291999 0.695164 0
M  V30 3213 H 322.812 -0.0250749 1.83483 0
M  V30 3214 H 321.194 -2.21852 3.28021 0
M  V30 3215 H 322.368 0.319239 4.59693 0
M  V30 3216 H 320.683 0.130457 4.16196 0
M  V30 3217 H 323.28 -2.60405 4.67004 0
M  V30 3218 H 323.623 -2.90298 2.98383 0
M  V30 3219 H 324.156 -1.37773 3.7318 0
M  V30 3220 H 320.895 -0.345061 6.54591 0
M  V30 3221 H 320.415 -1.83925 5.70904 0
M  V30 3222 H 322.094 -1.62367 6.26295 0
M  V30 3223 N 322.226 -1.5378 -0.344866 0
M  V30 3224 C 323.474 -1.70625 -1.08311 0
M  V30 3225 C 323.795 -0.471447 -1.89215 0
M  V30 3226 O 323.065 0.514616 -1.8902 0
M  V30 3227 H 321.645 -0.629058 -0.402859 0
M  V30 3228 H 324.307 -1.9103 -0.386459 0
M  V30 3229 H 323.403 -2.57656 -1.76124 0
M  V30 3230 N 323.704 0.605807 -1.45491 0
M  V30 3231 C 324.667 1.69836 -1.5391 0
M  V30 3232 C 325.667 1.55261 -0.418424 0
M  V30 3233 O 326.857 1.60296 -0.681965 0
M  V30 3234 C 323.989 3.09117 -1.43734 0
M  V30 3235 H 325.182 1.63738 -2.51257 0
M  V30 3236 H 322.735 0.821689 -1.32959 0
M  V30 3237 H 323.47 3.20791 -0.475788 0
M  V30 3238 H 323.255 3.21104 -2.25021 0
M  V30 3239 H 324.745 3.88696 -1.52661 0
M  V30 3240 N 325.182 1.32811 0.848464 0
M  V30 3241 C 326.115 1.16601 1.96162 0
M  V30 3242 C 327.093 0.0638855 1.62474 0
M  V30 3243 O 328.277 0.224348 1.8716 0
M  V30 3244 C 325.404 0.786333 3.29446 0
M  V30 3245 C 324.45 1.89459 3.8211 0
M  V30 3246 S 325.283 3.50395 4.04949 0
M  V30 3247 C 326.439 3.14413 5.41198 0
M  V30 3248 H 326.672 2.10832 2.09612 0
M  V30 3249 H 324.205 1.17543 1.00115 0
M  V30 3250 H 326.163 0.574044 4.06466 0
M  V30 3251 H 324.824 -0.137218 3.138 0
M  V30 3252 H 324.017 1.58207 4.78526 0
M  V30 3253 H 323.619 2.06304 3.11953 0
M  V30 3254 H 325.911 2.64642 6.23675 0
M  V30 3255 H 326.854 4.09874 5.77416 0
M  V30 3256 H 327.262 2.51266 5.05495 0
M  V30 3257 N 326.66 -1.06551 1.16123 0
M  V30 3258 C 327.623 -2.12132 0.867906 0
M  V30 3259 C 328.623 -1.60224 -0.135944 0
M  V30 3260 O 329.813 -1.73943 0.0946422 0
M  V30 3261 C 326.945 -3.396 0.297419 0
M  V30 3262 H 328.138 -2.39586 1.80385 0
M  V30 3263 H 325.691 -1.22574 0.969812 0
M  V30 3264 H 326.426 -3.17794 -0.64633 0
M  V30 3265 H 326.211 -3.78581 1.02073 0
M  V30 3266 H 327.701 -4.17455 0.110052 0
M  V30 3267 N 328.138 -0.959301 -1.25041 0
M  V30 3268 C 329.101 -0.487677 -2.23952 0
M  V30 3269 C 330.101 0.41119 -1.55454 0
M  V30 3270 O 331.291 0.207825 -1.72956 0
M  V30 3271 C 328.423 0.294807 -3.39623 0
M  V30 3272 H 329.616 -1.36198 -2.67189 0
M  V30 3273 H 327.169 -0.743042 -1.37508 0
M  V30 3274 H 327.904 1.18658 -3.01813 0
M  V30 3275 H 327.689 -0.35012 -3.90534 0
M  V30 3276 H 329.179 0.614089 -4.1306 0
M  V30 3277 N 329.616 1.39756 -0.72842 0
M  V30 3278 C 330.841 2.05472 -0.282159 0
M  V30 3279 C 331.266 1.54549 1.07221 0
M  V30 3280 O 330.624 0.686372 1.67805 0
M  V30 3281 C 330.672 3.59462 -0.286264 0
M  V30 3282 O 329.776 4.05918 0.728298 0
M  V30 3283 H 329.117 0.651226 -0.129618 0
M  V30 3284 H 331.647 1.78915 -0.992499 0
M  V30 3285 H 331.657 4.07798 -0.128373 0
M  V30 3286 H 330.332 3.95889 -1.27456 0
M  V30 3287 H 328.909 3.69012 0.537081 0
M  V30 3288 N 331.094 0.475555 1.50254 0
M  V30 3289 C 332.51 0.12997 1.5907 0
M  V30 3290 C 332.71 -1.36385 1.48328 0
M  V30 3291 O 331.766 -2.13754 1.34407 0
M  V30 3292 C 333.079 0.684139 2.92814 0
M  V30 3293 C 334.627 0.647965 3.0622 0
M  V30 3294 C 335.102 1.17975 4.42545 0
M  V30 3295 N 336.593 1.13936 4.48969 0
M  V30 3296 C 337.328 1.52129 5.52851 0
M  V30 3297 N 336.824 1.97793 6.63965 0
M  V30 3298 N 338.617 1.43704 5.4342 0
M  V30 3299 H 330.768 1.44706 1.55479 0
M  V30 3300 H 333.031 0.598691 0.735033 0
M  V30 3301 H 332.737 1.73079 3.06164 0
M  V30 3302 H 332.611 0.130204 3.76975 0
M  V30 3303 H 334.998 -0.38979 2.92514 0
M  V30 3304 H 335.079 1.23876 2.23805 0
M  V30 3305 H 334.723 2.21616 4.57 0
M  V30 3306 H 334.653 0.565138 5.23559 0
M  V30 3307 H 337.144 0.804488 3.69238 0
M  V30 3308 H 337.457 2.25072 7.39299 0
M  V30 3309 H 335.802 2.01749 6.65073 0
M  V30 3310 H 338.993 1.07867 4.55502 0
M  V30 3311 H 339.166 1.73794 6.24259 0
M  V30 3312 N 332.573 -1.56217 0.208337 0
M  V30 3313 C 333.821 -1.97558 -0.426076 0
M  V30 3314 C 334.142 -1.09683 -1.61229 0
M  V30 3315 O 333.412 -0.170956 -1.95153 0
M  V30 3316 H 331.992 -0.729575 -0.160405 0
M  V30 3317 H 334.654 -1.92606 0.298155 0
M  V30 3318 H 333.75 -3.02672 -0.761312 0
M  V30 3319 N 334.051 0.0651679 -1.57465 0
M  V30 3320 C 335.291 0.768329 -1.8941 0
M  V30 3321 C 335.655 1.74406 -0.802894 0
M  V30 3322 O 336.856 2.49281 -1.0056 0
M  V30 3323 C 335.127 1.45199 -3.26576 0
M  V30 3324 S 336.686 2.1893 -3.80283 0
M  V30 3325 H 333.504 0.255359 -0.663561 0
M  V30 3326 H 336.106 0.024167 -1.95485 0
M  V30 3327 H 334.81 0.728123 -4.03889 0
M  V30 3328 H 334.341 2.23545 -3.23715 0
M  V30 3329 H 336.356 3.45551 -3.56102 0
M  V30 3330 N 335.529 1.53961 0.336706 0
M  V30 3331 C 336.775 1.7179 1.07777 0
M  V30 3332 C 337.108 0.483263 1.88091 0
M  V30 3333 O 336.383 -0.519747 1.87427 0
M  V30 3334 C 336.666 2.98558 2.01334 0
M  V30 3335 C 336.519 4.32245 1.24437 0
M  V30 3336 C 337.838 3.21023 3.01052 0
M  V30 3337 H 334.957 0.625089 0.390426 0
M  V30 3338 H 337.599 1.86641 0.35567 0
M  V30 3339 H 335.749 2.86028 2.62908 0
M  V30 3340 H 337.421 4.56637 0.654243 0
M  V30 3341 H 335.664 4.30344 0.546458 0
M  V30 3342 H 336.335 5.17137 1.93063 0
M  V30 3343 H 338.811 3.32929 2.49595 0
M  V30 3344 H 337.687 4.11104 3.6371 0
M  V30 3345 H 337.948 2.37637 3.72802 0
M  V30 3346 N 337.007 -0.598083 1.45811 0
M  V30 3347 C 338.253 -1.35882 1.50545 0
M  V30 3348 C 338.586 -1.93616 0.150445 0
M  V30 3349 O 337.861 -1.75604 -0.83628 0
M  V30 3350 C 338.144 -2.49966 2.59208 0
M  V30 3351 C 337.997 -1.97367 4.04186 0
M  V30 3352 C 339.316 -3.52068 2.64076 0
M  V30 3353 H 336.435 -0.492717 0.548087 0
M  V30 3354 H 339.077 -0.673319 1.77669 0
M  V30 3355 H 337.227 -3.08443 2.3621 0
M  V30 3356 H 338.899 -1.43466 4.38423 0
M  V30 3357 H 337.142 -1.283 4.14393 0
M  V30 3358 H 337.813 -2.79649 4.75921 0
M  V30 3359 H 340.289 -3.03448 2.84708 0
M  V30 3360 H 339.165 -4.2937 3.41954 0
M  V30 3361 H 339.426 -4.08304 1.69531 0
M  V30 3362 N 338.485 -1.33259 -0.841409 0
M  V30 3363 C 339.734 -1.23921 -1.59143 0
M  V30 3364 C 340.047 0.1941 -1.94635 0
M  V30 3365 O 341.253 0.409474 -2.68394 0
M  V30 3366 C 339.709 -2.17119 -2.87032 0
M  V30 3367 C 339.317 -3.65606 -2.58914 0
M  V30 3368 C 341.061 -2.16648 -3.65053 0
M  V30 3369 C 338.968 -4.50726 -3.82884 0
M  V30 3370 H 337.898 -0.460264 -0.597221 0
M  V30 3371 H 340.549 -1.58307 -0.927959 0
M  V30 3372 H 338.931 -1.75663 -3.54906 0
M  V30 3373 H 340.105 -4.15487 -1.99267 0
M  V30 3374 H 338.42 -3.68341 -1.942 0
M  V30 3375 H 341.017 -2.77474 -4.57069 0
M  V30 3376 H 341.36 -1.16088 -3.99787 0
M  V30 3377 H 341.893 -2.56453 -3.041 0
M  V30 3378 H 338.632 -5.52151 -3.53283 0
M  V30 3379 H 338.152 -4.0559 -4.41879 0
M  V30 3380 H 339.831 -4.64401 -4.50489 0
M  V30 3381 N 339.963 1.05934 -1.16686 0
M  V30 3382 C 340.926 2.11669 -0.879144 0
M  V30 3383 C 341.926 1.60294 0.127445 0
M  V30 3384 O 343.116 1.7389 -0.103865 0
M  V30 3385 C 340.248 3.39438 -0.315425 0
M  V30 3386 H 341.441 2.38626 -1.81653 0
M  V30 3387 H 338.994 1.22058 -0.976299 0
M  V30 3388 H 339.729 3.18132 0.629468 0
M  V30 3389 H 339.514 3.78034 -1.04079 0
M  V30 3390 H 341.004 4.17391 -0.132189 0
M  V30 3391 N 341.441 0.965919 1.2453 0
M  V30 3392 C 342.666 0.643971 1.97149 0
M  V30 3393 C 343.091 -0.779487 1.71189 0
M  V30 3394 O 342.449 -1.5288 0.974553 0
M  V30 3395 C 342.497 0.922557 3.48599 0
M  V30 3396 O 341.601 0.00707672 4.12399 0
M  V30 3397 H 340.942 0.243647 0.617683 0
M  V30 3398 H 343.472 1.29558 1.58353 0
M  V30 3399 H 343.482 0.853373 3.98976 0
M  V30 3400 H 342.157 1.95996 3.66822 0
M  V30 3401 H 340.734 0.12943 3.72675 0
M  V30 3402 N 342.919 -1.39368 0.735821 0
M  V30 3403 C 343.849 -2.33234 0.111506 0
M  V30 3404 C 344.83 -1.53954 -0.723334 0
M  V30 3405 O 346.015 -1.82344 -0.668147 0
M  V30 3406 C 343.145 -3.38057 -0.795917 0
M  V30 3407 C 342.099 -4.2795 -0.065172 0
M  V30 3408 C 341.425 -5.23479 -1.08967 0
M  V30 3409 C 342.725 -5.10741 1.09273 0
M  V30 3410 H 344.419 -2.85692 0.895571 0
M  V30 3411 H 341.965 -1.37364 0.432109 0
M  V30 3412 H 343.918 -4.02675 -1.24221 0
M  V30 3413 H 342.642 -2.8404 -1.61211 0
M  V30 3414 H 341.301 -3.64813 0.361511 0
M  V30 3415 H 340.949 -4.65758 -1.89944 0
M  V30 3416 H 340.649 -5.84472 -0.605489 0
M  V30 3417 H 342.173 -5.90974 -1.53565 0
M  V30 3418 H 343.587 -5.68699 0.724841 0
M  V30 3419 H 341.984 -5.8088 1.50659 0
M  V30 3420 H 343.054 -4.45525 1.91404 0
M  V30 3421 N 344.397 -0.483516 -1.5 0
M  V30 3422 C 345.345 0.318061 -2.30415 0
M  V30 3423 C 346.339 0.978988 -1.38247 0
M  V30 3424 O 347.545 0.908673 -1.55381 0
M  V30 3425 H 343.92 0.121419 -0.742133 0
M  V30 3426 H 345.891 -0.380403 -2.95965 0
M  V30 3427 C 344.64 1.38013 -3.19136 0
M  V30 3428 H 343.963 0.880952 -3.89973 0
M  V30 3429 H 345.403 1.91332 -3.78375 0
M  V30 3430 C 343.862 2.38884 -2.37563 0
M  V30 3431 O 344.392 3.44412 -2.06744 0
M  V30 3432 N 342.598 2.10912 -1.99911 0
M  V30 3433 H 342.145 1.25118 -2.25174 0
M  V30 3434 H 342.103 2.78635 -1.45636 0
M  V30 3435 N 345.875 1.56104 -0.216619 0
M  V30 3436 C 347.286 1.844 0.292128 0
M  V30 3437 C 347.637 1.13788 1.59833 0
M  V30 3438 O 346.762 0.405888 2.12559 0
M  V30 3439 C 347.357 3.3452 0.53681 0
M  V30 3440 C 345.916 3.63151 0.989876 0
M  V30 3441 C 345.063 2.77255 0.0502302 0
M  V30 3442 H 348.014 1.52481 -0.439926 0
M  V30 3443 H 348.035 3.54459 1.38345 0
M  V30 3444 H 347.547 3.85885 -0.414031 0
M  V30 3445 H 345.648 3.17238 1.95425 0
M  V30 3446 H 345.761 4.71177 0.867698 0
M  V30 3447 H 344.125 2.48555 0.556117 0
M  V30 3448 H 344.908 3.31416 -0.89544 0
M  V30 3449 N 347.353 -0.0568162 1.57498 0
M  V30 3450 C 348.581 -0.765626 1.92213 0
M  V30 3451 C 348.996 -1.70353 0.813961 0
M  V30 3452 O 348.353 -1.81268 -0.211701 0
M  V30 3453 C 348.404 -1.5465 3.2675 0
M  V30 3454 O 348.125 -0.646278 4.33307 0
M  V30 3455 C 349.626 -2.35497 3.75574 0
M  V30 3456 H 346.846 -0.216835 0.634999 0
M  V30 3457 H 349.39 -0.0226146 2.04487 0
M  V30 3458 H 347.545 -2.24165 3.15957 0
M  V30 3459 H 347.959 -1.19093 5.108 0
M  V30 3460 H 349.433 -2.85722 4.72299 0
M  V30 3461 H 349.91 -3.15692 3.05344 0
M  V30 3462 H 350.516 -1.7111 3.8936 0
M  V30 3463 N 348.832 -1.54138 -0.328536 0
M  V30 3464 C 350.057 -1.76378 -1.09112 0
M  V30 3465 C 350.482 -0.508596 -1.81094 0
M  V30 3466 O 349.84 0.539598 -1.73084 0
M  V30 3467 C 349.888 -2.95358 -2.06872 0
M  V30 3468 O 348.992 -2.66556 -3.14677 0
M  V30 3469 H 348.333 -0.584614 -0.314838 0
M  V30 3470 H 350.863 -2.01146 -0.374348 0
M  V30 3471 H 350.873 -3.22566 -2.4983 0
M  V30 3472 H 349.548 -3.86385 -1.5388 0
M  V30 3473 H 348.125 -2.50282 -2.7643 0
M  V30 3474 N 350.31 0.590341 -1.46126 0
M  V30 3475 C 351.258 1.72105 -1.5647 0
M  V30 3476 C 352.252 1.63756 -0.433612 0
M  V30 3477 O 353.458 1.69342 -0.610194 0
M  V30 3478 H 349.833 0.568889 -0.491802 0
M  V30 3479 H 351.804 1.6051 -2.51553 0
M  V30 3480 C 350.553 3.10493 -1.56491 0
M  V30 3481 H 349.876 3.17583 -2.4286 0
M  V30 3482 H 351.316 3.8939 -1.67785 0
M  V30 3483 C 349.775 3.3563 -0.292231 0
M  V30 3484 O 350.305 3.96875 0.620739 0
M  V30 3485 N 348.511 2.90026 -0.182523 0
M  V30 3486 H 348.058 2.40367 -0.926356 0
M  V30 3487 H 348.016 3.07218 0.668152 0
M  V30 3488 N 351.788 1.33704 0.83433 0
M  V30 3489 C 353.065 1.16011 1.57483 0
M  V30 3490 C 353.445 -0.27176 2.09343 0
M  V30 3491 O 352.793 -1.27146 1.89858 0
M  V30 3492 C 353.003 2.20507 2.70514 0
M  V30 3493 C 354.351 2.54898 3.39577 0
M  V30 3494 O 355.375 2.19209 2.80759 0
M  V30 3495 O 354.234 3.16158 4.45765 0
M  V30 3496 H 351.328 0.448992 0.694503 0
M  V30 3497 H 353.874 1.453 0.876691 0
M  V30 3498 H 352.646 3.16667 2.29865 0
M  V30 3499 H 352.269 1.92329 3.47987 0
M  V30 3500 N 353.266 -1.05314 1.17247 0
M  V30 3501 C 354.543 -1.75184 0.87005 0
M  V30 3502 C 354.923 -2.01481 -0.629965 0
M  V30 3503 O 354.271 -1.64988 -1.58086 0
M  V30 3504 C 354.481 -3.04594 1.70363 0
M  V30 3505 C 355.829 -3.78567 1.92281 0
M  V30 3506 O 356.853 -3.14461 1.67311 0
M  V30 3507 O 355.712 -4.93755 2.3424 0
M  V30 3508 H 352.806 -0.761729 0.322021 0
M  V30 3509 H 355.352 -1.11493 1.27935 0
M  V30 3510 H 354.124 -2.81201 2.72106 0
M  V30 3511 H 353.747 -3.76022 1.29202 0
M  V30 3512 N 354.744 -0.972509 -1.24016 0
M  V30 3513 C 355.691 -0.505969 -2.25186 0
M  V30 3514 C 356.661 0.451009 -1.5986 0
M  V30 3515 O 357.846 0.360307 -1.87367 0
M  V30 3516 C 354.986 0.193089 -3.44559 0
M  V30 3517 C 354.099 -0.803222 -4.24467 0
M  V30 3518 C 353.234 -0.0797793 -5.3114 0
M  V30 3519 C 352.273 -1.06583 -6.02749 0
M  V30 3520 N 351.41 -0.372074 -7.01113 0
M  V30 3521 H 356.25 -1.37351 -2.64459 0
M  V30 3522 H 353.787 -0.688419 -1.29997 0
M  V30 3523 H 355.745 0.615125 -4.1264 0
M  V30 3524 H 354.375 1.02455 -3.06109 0
M  V30 3525 H 353.427 -1.34368 -3.55878 0
M  V30 3526 H 354.739 -1.55494 -4.73944 0
M  V30 3527 H 353.893 0.400015 -6.0538 0
M  V30 3528 H 352.632 0.704597 -4.82583 0
M  V30 3529 H 351.637 -1.55645 -5.27309 0
M  V30 3530 H 352.862 -1.85074 -6.53395 0
M  V30 3531 H 350.808 0.393238 -6.5482 0
M  V30 3532 H 350.725 -1.06258 -7.48495 0
M  V30 3533 H 351.993 0.0855932 -7.79453 0
M  V30 3534 N 356.222 1.38976 -0.743202 0
M  V30 3535 C 357.471 1.99581 -0.291592 0
M  V30 3536 C 357.784 1.59656 1.13001 0
M  V30 3537 O 358.99 2.13157 1.68156 0
M  V30 3538 C 357.446 3.56813 -0.470391 0
M  V30 3539 C 357.054 4.05695 -1.90041 0
M  V30 3540 C 358.798 4.24423 -0.0809709 0
M  V30 3541 C 356.705 5.5553 -2.02832 0
M  V30 3542 H 355.635 0.746615 -0.105272 0
M  V30 3543 H 358.286 1.58872 -0.918258 0
M  V30 3544 H 356.668 3.95359 0.225299 0
M  V30 3545 H 357.842 3.78464 -2.62872 0
M  V30 3546 H 356.157 3.50775 -2.24379 0
M  V30 3547 H 358.754 5.34474 -0.155445 0
M  V30 3548 H 359.097 4.04962 0.96497 0
M  V30 3549 H 359.63 3.9108 -0.728124 0
M  V30 3550 H 356.369 5.79881 -3.05643 0
M  V30 3551 H 355.889 5.84537 -1.34448 0
M  V30 3552 H 357.568 6.21069 -1.81335 0
M  V30 3553 N 357.7 0.491464 1.49741 0
M  V30 3554 C 358.946 -0.0565092 2.02721 0
M  V30 3555 C 359.279 -1.37522 1.37118 0
M  V30 3556 O 358.554 -1.87866 0.503645 0
M  V30 3557 C 358.837 -0.219051 3.59433 0
M  V30 3558 C 358.69 1.12211 4.35579 0
M  V30 3559 C 360.009 -0.964157 4.29409 0
M  V30 3560 H 357.128 -0.0190627 0.736753 0
M  V30 3561 H 359.77 0.641021 1.7886 0
M  V30 3562 H 357.92 -0.813165 3.79895 0
M  V30 3563 H 359.592 1.75437 4.26637 0
M  V30 3564 H 357.835 1.71377 3.98513 0
M  V30 3565 H 358.506 0.961794 5.43556 0
M  V30 3566 H 360.982 -0.460378 4.13545 0
M  V30 3567 H 359.858 -1.04671 5.38828 0
M  V30 3568 H 360.119 -2.00563 3.93988 0
M  V30 3569 N 359.178 -1.55987 0.224894 0
M  V30 3570 C 360.088 -2.24066 -0.69511 0
M  V30 3571 C 361.104 -1.24939 -1.21104 0
M  V30 3572 O 362.28 -1.5776 -1.25195 0
M  V30 3573 C 359.345 -2.90983 -1.88493 0
M  V30 3574 C 358.406 -4.05462 -1.41064 0
M  V30 3575 C 357.639 -4.69179 -2.54375 0
M  V30 3576 O 357.862 -4.31895 -3.72589 0
M  V30 3577 O 356.796 -5.58108 -2.25386 0
M  V30 3578 H 360.622 -3.03353 -0.145149 0
M  V30 3579 H 358.207 -1.49399 -0.00569476 0
M  V30 3580 H 360.089 -3.33209 -2.57972 0
M  V30 3581 H 358.764 -2.14653 -2.42293 0
M  V30 3582 H 357.671 -3.67798 -0.683774 0
M  V30 3583 H 359.004 -4.83545 -0.918985 0
M  V30 3584 N 360.656 0.0484629 -1.57525 0
M  V30 3585 C 361.586 1.0549 -2.08313 0
M  V30 3586 C 362.567 1.38929 -0.981463 0
M  V30 3587 O 363.752 1.48151 -1.25558 0
M  V30 3588 C 360.882 2.36162 -2.54646 0
M  V30 3589 C 359.836 2.17016 -3.68901 0
M  V30 3590 C 359.162 3.53278 -4.01371 0
M  V30 3591 C 360.462 1.57219 -4.98076 0
M  V30 3592 H 362.156 0.632195 -2.92649 0
M  V30 3593 H 359.702 0.302654 -1.40784 0
M  V30 3594 H 361.655 3.06882 -2.88793 0
M  V30 3595 H 360.379 2.80456 -1.67368 0
M  V30 3596 H 359.038 1.48733 -3.35073 0
M  V30 3597 H 358.686 3.95185 -3.11188 0
M  V30 3598 H 358.386 3.41299 -4.78318 0
M  V30 3599 H 359.91 4.25391 -4.38035 0
M  V30 3600 H 361.324 2.17832 -5.30304 0
M  V30 3601 H 359.721 1.55871 -5.79503 0
M  V30 3602 H 360.791 0.535956 -4.81929 0
M  V30 3603 N 362.134 1.5431 0.320358 0
M  V30 3604 C 363.38 1.72924 1.05949 0
M  V30 3605 C 363.713 0.503185 1.87568 0
M  V30 3606 O 362.988 -0.499839 1.87968 0
M  V30 3607 C 363.271 3.00676 1.98156 0
M  V30 3608 C 363.124 4.3354 1.19845 0
M  V30 3609 C 364.443 3.24198 2.9763 0
M  V30 3610 H 361.562 0.629195 0.383774 0
M  V30 3611 H 364.204 1.87008 0.335854 0
M  V30 3612 H 362.354 2.888 2.59859 0
M  V30 3613 H 364.026 4.57305 0.605773 0
M  V30 3614 H 362.269 4.309 0.500784 0
M  V30 3615 H 362.94 5.19156 1.87567 0
M  V30 3616 H 365.416 3.35557 2.4605 0
M  V30 3617 H 364.292 4.14938 3.59329 0
M  V30 3618 H 364.553 2.41577 3.7026 0
M  V30 3619 N 363.613 -0.582584 1.46437 0
M  V30 3620 C 364.56 -1.69164 1.5701 0
M  V30 3621 C 365.53 -1.60847 0.414403 0
M  V30 3622 O 366.715 -1.80058 0.631171 0
M  V30 3623 C 363.855 -3.075 1.56646 0
M  V30 3624 C 362.968 -3.2644 2.82951 0
M  V30 3625 C 362.103 -4.55026 2.7409 0
M  V30 3626 C 361.142 -4.6731 3.95333 0
M  V30 3627 N 360.279 -5.87221 3.84858 0
M  V30 3628 H 365.119 -1.59464 2.51744 0
M  V30 3629 H 362.656 -0.777186 1.24893 0
M  V30 3630 H 364.614 -3.8757 1.5442 0
M  V30 3631 H 363.244 -3.16096 0.654439 0
M  V30 3632 H 362.296 -2.39974 2.95155 0
M  V30 3633 H 363.608 -3.31385 3.72808 0
M  V30 3634 H 362.762 -5.43324 2.6997 0
M  V30 3635 H 361.501 -4.52519 1.81873 0
M  V30 3636 H 360.506 -3.77429 3.99784 0
M  V30 3637 H 361.731 -4.71595 4.88646 0
M  V30 3638 H 359.677 -5.85712 2.95427 0
M  V30 3639 H 359.594 -5.93435 4.6837 0
M  V30 3640 H 360.862 -6.7795 3.84713 0
M  V30 3641 N 365.091 -1.34144 -0.827227 0
M  V30 3642 C 366.001 -1.27428 -1.96975 0
M  V30 3643 C 367.017 -0.182728 -1.73038 0
M  V30 3644 O 368.193 -0.408426 -1.97215 0
M  V30 3645 C 365.258 -1.02526 -3.31194 0
M  V30 3646 C 364.319 -2.20796 -3.68168 0
M  V30 3647 C 363.552 -1.97073 -4.95982 0
M  V30 3648 O 363.775 -0.926822 -5.6282 0
M  V30 3649 O 362.709 -2.83912 -5.30733 0
M  V30 3650 H 366.535 -2.23537 -2.05584 0
M  V30 3651 H 364.12 -1.14307 -0.961989 0
M  V30 3652 H 366.002 -0.904026 -4.11589 0
M  V30 3653 H 364.677 -0.0945389 -3.23562 0
M  V30 3654 H 363.584 -2.38477 -2.88235 0
M  V30 3655 H 364.917 -3.12243 -3.8048 0
M  V30 3656 N 366.569 1.04691 -1.17803 0
M  V30 3657 C 367.532 2.10724 -0.901545 0
M  V30 3658 C 368.532 1.6042 0.110437 0
M  V30 3659 O 369.722 1.7377 -0.122303 0
M  V30 3660 C 366.854 3.39084 -0.351409 0
M  V30 3661 H 368.047 2.36686 -1.84174 0
M  V30 3662 H 365.6 1.21015 -0.98919 0
M  V30 3663 H 366.335 3.18782 0.59569 0
M  V30 3664 H 366.12 3.76909 -1.08083 0
M  V30 3665 H 367.61 4.17227 -0.176451 0
M  V30 3666 N 368.047 0.979072 1.23499 0
M  V30 3667 C 369.272 0.664845 1.96455 0
M  V30 3668 C 369.697 -0.761287 1.72006 0
M  V30 3669 O 369.055 -1.51837 0.990713 0
M  V30 3670 C 369.103 0.959479 3.47601 0
M  V30 3671 O 368.207 0.0508168 4.12369 0
M  V30 3672 H 367.548 0.250185 0.615064 0
M  V30 3673 H 370.078 1.31231 1.5697 0
M  V30 3674 H 370.088 0.895642 3.98048 0
M  V30 3675 H 368.763 1.99876 3.64723 0
M  V30 3676 H 367.34 0.16895 3.72517 0
M  V30 3677 N 369.525 -1.3858 0.750561 0
M  V30 3678 C 370.941 -1.53759 0.427824 0
M  V30 3679 C 371.141 -1.71401 -1.05943 0
M  V30 3680 O 370.197 -1.72331 -1.84549 0
M  V30 3681 C 371.51 -2.74642 1.22443 0
M  V30 3682 C 373.058 -2.88489 1.2142 0
M  V30 3683 C 373.533 -4.12329 1.9937 0
M  V30 3684 N 375.024 -4.194 1.96616 0
M  V30 3685 C 375.759 -5.14209 2.53727 0
M  V30 3686 N 375.255 -6.14709 3.19539 0
M  V30 3687 N 377.048 -5.06537 2.43673 0
M  V30 3688 H 369.199 -1.25377 1.71447 0
M  V30 3689 H 371.462 -0.608844 0.726645 0
M  V30 3690 H 371.168 -2.68 2.27747 0
M  V30 3691 H 371.042 -3.67745 0.839273 0
M  V30 3692 H 373.429 -2.94614 0.169232 0
M  V30 3693 H 373.51 -1.96406 1.63885 0
M  V30 3694 H 373.154 -4.06966 3.03877 0
M  V30 3695 H 373.084 -5.03486 1.54302 0
M  V30 3696 H 375.575 -3.47421 1.48684 0
M  V30 3697 H 375.888 -6.8354 3.60545 0
M  V30 3698 H 374.233 -6.1505 3.23633 0
M  V30 3699 H 377.424 -4.26962 1.91889 0
M  V30 3700 H 377.597 -5.80245 2.88479 0
M  V30 3701 N 371.003 -0.499398 -1.49478 0
M  V30 3702 C 372.228 0.044722 -2.07352 0
M  V30 3703 C 372.653 1.30207 -1.35749 0
M  V30 3704 O 372.011 1.76516 -0.413732 0
M  V30 3705 C 372.059 0.283013 -3.59488 0
M  V30 3706 O 371.163 1.35804 -3.89398 0
M  V30 3707 H 370.504 -0.0255147 -0.66351 0
M  V30 3708 H 373.034 -0.698561 -1.92305 0
M  V30 3709 H 373.044 0.515007 -4.04737 0
M  V30 3710 H 371.719 -0.635636 -4.11014 0
M  V30 3711 H 370.296 1.11113 -3.55961 0
M  V30 3712 N 372.481 1.55866 -0.233164 0
M  V30 3713 C 373.429 2.22176 0.68851 0
M  V30 3714 C 374.423 1.20487 1.19076 0
M  V30 3715 O 375.629 1.38536 1.14925 0
M  V30 3716 H 372.004 0.712511 0.240483 0
M  V30 3717 H 373.975 2.98212 0.105935 0
M  V30 3718 C 372.724 2.92446 1.88071 0
M  V30 3719 H 372.047 3.70458 1.50337 0
M  V30 3720 H 373.487 3.42226 2.50314 0
M  V30 3721 C 371.946 1.95555 2.74335 0
M  V30 3722 O 372.476 1.47986 3.73447 0
M  V30 3723 N 370.682 1.62953 2.40613 0
M  V30 3724 H 370.229 2.01831 1.60069 0
M  V30 3725 H 370.187 0.983886 2.98609 0
M  V30 3726 N 373.959 -0.0401083 1.57549 0
M  V30 3727 C 375.184 -0.748931 1.93406 0
M  V30 3728 C 375.609 -1.68686 0.832274 0
M  V30 3729 O 374.967 -1.80047 -0.212818 0
M  V30 3730 C 375.015 -1.4916 3.28304 0
M  V30 3731 O 374.119 -2.6042 3.19774 0
M  V30 3732 H 373.46 -0.202212 0.63246 0
M  V30 3733 H 375.99 0.00112086 2.046 0
M  V30 3734 H 376 -1.86395 3.62934 0
M  V30 3735 H 374.675 -0.80364 4.08062 0
M  V30 3736 H 373.252 -2.25808 2.96758 0
M  V30 3737 N 375.437 -1.54477 -0.31217 0
M  V30 3738 C 376.665 -1.77205 -1.068 0
M  V30 3739 C 377.08 -0.526114 -1.81321 0
M  V30 3740 O 376.437 0.503647 -1.75413 0
M  V30 3741 C 376.488 -2.97253 -2.05725 0
M  V30 3742 O 376.209 -4.1703 -1.34228 0
M  V30 3743 C 377.71 -3.32281 -2.93435 0
M  V30 3744 H 374.93 -0.591287 -0.317208 0
M  V30 3745 H 377.474 -2.01398 -0.354834 0
M  V30 3746 H 375.629 -2.753 -2.72559 0
M  V30 3747 H 376.043 -4.84636 -2.00571 0
M  V30 3748 H 377.517 -4.19551 -3.58721 0
M  V30 3749 H 377.994 -2.49945 -3.61143 0
M  V30 3750 H 378.6 -3.56353 -2.32147 0
M  V30 3751 N 376.915 0.57481 -1.46744 0
M  V30 3752 C 378.14 1.36341 -1.56288 0
M  V30 3753 C 378.565 1.86954 -0.207347 0
M  V30 3754 O 377.923 1.62006 0.813871 0
M  V30 3755 C 377.971 2.52147 -2.57787 0
M  V30 3756 O 377.075 3.53834 -2.11838 0
M  V30 3757 H 376.416 0.405713 -0.525636 0
M  V30 3758 H 378.946 0.696453 -1.92382 0
M  V30 3759 H 378.956 2.98958 -2.77648 0
M  V30 3760 H 377.631 2.14663 -3.5622 0
M  V30 3761 H 376.208 3.1345 -2.01999 0
M  V30 3762 N 378.394 1.34581 0.820102 0
M  V30 3763 C 379.324 1.29038 1.94606 0
M  V30 3764 C 380.305 0.1673 1.69275 0
M  V30 3765 O 381.49 0.360112 1.90832 0
M  V30 3766 C 378.62 1.04793 3.31113 0
M  V30 3767 C 377.574 2.13597 3.70891 0
M  V30 3768 C 376.9 1.74537 5.05412 0
M  V30 3769 C 378.2 3.55451 3.8269 0
M  V30 3770 H 379.894 2.23248 1.99501 0
M  V30 3771 H 377.44 1.0747 0.958449 0
M  V30 3772 H 379.393 0.995592 4.0947 0
M  V30 3773 H 378.117 0.0702565 3.26524 0
M  V30 3774 H 376.776 2.17905 2.9481 0
M  V30 3775 H 376.424 0.754226 4.97313 0
M  V30 3776 H 376.124 2.47361 5.32997 0
M  V30 3777 H 377.648 1.70803 5.86224 0
M  V30 3778 H 379.062 3.5354 4.51312 0
M  V30 3779 H 377.459 4.26922 4.21732 0
M  V30 3780 H 378.529 3.92587 2.84611 0
M  V30 3781 N 379.872 -1.04064 1.18357 0
M  V30 3782 C 381.118 -1.77528 0.980397 0
M  V30 3783 C 381.451 -1.87948 -0.48879 0
M  V30 3784 O 380.726 -1.3876 -1.36293 0
M  V30 3785 C 381.009 -3.20797 1.63588 0
M  V30 3786 C 380.862 -3.1832 3.17793 0
M  V30 3787 C 382.181 -4.18911 1.34914 0
M  V30 3788 H 379.3 -0.644443 0.357578 0
M  V30 3789 H 381.942 -1.2156 1.46024 0
M  V30 3790 H 380.092 -3.68586 1.22788 0
M  V30 3791 H 381.764 -2.78521 3.67728 0
M  V30 3792 H 380.007 -2.56351 3.49952 0
M  V30 3793 H 380.678 -4.19489 3.58794 0
M  V30 3794 H 383.154 -3.7967 1.70265 0
M  V30 3795 H 382.03 -5.17374 1.83346 0
M  V30 3796 H 382.291 -4.41262 0.272027 0
M  V30 3797 N 381.35 -0.985608 -1.22978 0
M  V30 3798 C 382.599 -0.652881 -1.90841 0
M  V30 3799 C 382.912 0.817842 -1.77681 0
M  V30 3800 O 384.118 1.26185 -2.40395 0
M  V30 3801 C 382.574 -1.11717 -3.42122 0
M  V30 3802 C 382.182 -2.6126 -3.63933 0
M  V30 3803 C 383.926 -0.85843 -4.1573 0
M  V30 3804 C 381.833 -3.0133 -5.08876 0
M  V30 3805 H 380.763 -0.240491 -0.714619 0
M  V30 3806 H 383.414 -1.1942 -1.39324 0
M  V30 3807 H 381.796 -0.504027 -3.92779 0
M  V30 3808 H 382.97 -3.27858 -3.23799 0
M  V30 3809 H 381.285 -2.84937 -3.03644 0
M  V30 3810 H 383.882 -1.13359 -5.22546 0
M  V30 3811 H 384.225 0.205461 -4.15793 0
M  V30 3812 H 384.758 -1.43341 -3.71077 0
M  V30 3813 H 381.497 -4.06864 -5.13947 0
M  V30 3814 H 381.017 -2.3943 -5.49939 0
M  V30 3815 H 382.696 -2.92224 -5.77247 0
M  V30 3816 N 382.828 1.3818 -0.7579 0
M  V30 3817 C 384.053 2.04827 -0.325679 0
M  V30 3818 C 384.478 1.56788 1.03919 0
M  V30 3819 O 383.836 0.721811 1.66312 0
M  V30 3820 C 383.884 3.58774 -0.362447 0
M  V30 3821 O 382.988 4.07372 0.642033 0
M  V30 3822 H 382.329 0.64833 -0.143402 0
M  V30 3823 H 384.859 1.7677 -1.03023 0
M  V30 3824 H 384.869 4.07434 -0.214844 0
M  V30 3825 H 383.544 3.93096 -1.35824 0
M  V30 3826 H 382.121 3.70068 0.458688 0
M  V30 3827 N 384.306 0.507319 1.49211 0
M  V30 3828 C 385.534 -0.0315749 2.06876 0
M  V30 3829 C 385.949 -1.30241 1.36685 0
M  V30 3830 O 385.306 -1.76937 0.447152 0
M  V30 3831 C 385.357 -0.282627 3.60393 0
M  V30 3832 O 385.078 0.937835 4.27944 0
M  V30 3833 C 386.579 -0.864453 4.3479 0
M  V30 3834 H 383.799 0.0233048 0.670595 0
M  V30 3835 H 386.343 0.706484 1.91909 0
M  V30 3836 H 384.498 -0.97068 3.75042 0
M  V30 3837 H 384.912 0.704567 5.19746 0
M  V30 3838 H 386.386 -0.989664 5.43056 0
M  V30 3839 H 386.863 -1.86382 3.97692 0
M  V30 3840 H 387.469 -0.213672 4.24763 0
M  V30 3841 N 385.784 -1.5574 0.241426 0
M  V30 3842 C 387.061 -1.90704 -0.434881 0
M  V30 3843 C 387.441 -1.16145 -1.76277 0
M  V30 3844 O 386.789 -0.277152 -2.26813 0
M  V30 3845 C 386.999 -3.43657 -0.608343 0
M  V30 3846 C 388.347 -4.14806 -0.906725 0
M  V30 3847 O 389.371 -3.49366 -0.694408 0
M  V30 3848 O 388.23 -5.30548 -1.31075 0
M  V30 3849 H 385.324 -0.793592 -0.23268 0
M  V30 3850 H 387.87 -1.67288 0.285086 0
M  V30 3851 H 386.642 -3.89927 0.327505 0
M  V30 3852 H 386.265 -3.72918 -1.37906 0
M  V30 3853 N 387.262 0.0317525 -1.57568 0
M  V30 3854 C 388.508 0.724175 -1.8943 0
M  V30 3855 C 388.841 1.75149 -0.838836 0
M  V30 3856 O 388.116 1.93948 0.146422 0
M  V30 3857 C 388.399 1.39615 -3.31933 0
M  V30 3858 C 388.252 0.382537 -4.4817 0
M  V30 3859 C 389.571 2.33084 -3.73309 0
M  V30 3860 H 386.69 0.261797 -0.688935 0
M  V30 3861 H 389.332 -0.013017 -1.89996 0
M  V30 3862 H 387.482 2.02451 -3.31581 0
M  V30 3863 H 389.154 -0.243689 -4.60656 0
M  V30 3864 H 387.397 -0.29844 -4.32772 0
M  V30 3865 H 388.068 0.891145 -5.44759 0
M  V30 3866 H 390.544 1.80295 -3.7501 0
M  V30 3867 H 389.42 2.77084 -4.73831 0
M  V30 3868 H 389.681 3.19643 -3.05419 0
M  V30 3869 N 388.74 1.54641 0.303973 0
M  V30 3870 C 390.017 1.64455 1.05896 0
M  V30 3871 C 390.397 0.490923 2.05312 0
M  V30 3872 O 389.745 -0.512685 2.22674 0
M  V30 3873 C 389.955 3.02331 1.74347 0
M  V30 3874 C 391.303 3.59045 2.26653 0
M  V30 3875 O 392.327 3.04764 1.84384 0
M  V30 3876 O 391.186 4.54081 3.04093 0
M  V30 3877 H 388.28 0.666729 0.489287 0
M  V30 3878 H 390.826 1.66986 0.302298 0
M  V30 3879 H 389.598 3.77734 1.02142 0
M  V30 3880 H 389.221 3.03565 2.56777 0
M  V30 3881 N 390.218 -0.567019 1.47046 0
M  V30 3882 C 391.466 -1.322 1.52864 0
M  V30 3883 C 391.787 -1.94088 0.188388 0
M  V30 3884 O 391.057 -1.7941 -0.786693 0
M  V30 3885 H 389.637 -0.490894 0.563056 0
M  V30 3886 H 392.299 -0.662879 1.83281 0
M  V30 3887 H 391.395 -2.12062 2.2899 0
M  V30 3888 N 391.696 -1.35014 -0.812953 0
M  V30 3889 C 392.606 -1.2951 -1.95613 0
M  V30 3890 C 393.622 -0.20107 -1.72834 0
M  V30 3891 O 394.798 -0.42932 -1.96771 0
M  V30 3892 C 391.863 -1.06033 -3.30088 0
M  V30 3893 C 390.924 -2.24688 -3.65805 0
M  V30 3894 C 390.157 -2.02322 -4.93864 0
M  V30 3895 O 390.38 -0.986464 -5.61805 0
M  V30 3896 O 389.314 -2.89525 -5.27692 0
M  V30 3897 H 393.14 -2.25705 -2.03202 0
M  V30 3898 H 390.725 -1.15321 -0.949811 0
M  V30 3899 H 392.607 -0.94763 -4.10607 0
M  V30 3900 H 391.282 -0.128852 -3.23443 0
M  V30 3901 H 390.189 -2.41521 -2.85689 0
M  V30 3902 H 391.522 -3.16261 -3.77147 0
M  V30 3903 N 393.175 1.03435 -1.18907 0
M  V30 3904 C 394.421 1.7713 -0.99982 0
M  V30 3905 C 394.776 1.86695 0.465049 0
M  V30 3906 O 394.069 1.36866 1.34083 0
M  V30 3907 C 394.263 3.19792 -1.59586 0
M  V30 3908 C 394.092 3.24134 -3.11717 0
M  V30 3909 C 392.862 3.32398 -3.80578 0
M  V30 3910 C 395.06 3.11625 -4.09138 0
M  V30 3911 N 393.042 3.26055 -5.20155 0
M  V30 3912 C 394.413 3.12855 -5.35277 0
M  V30 3913 C 396.468 2.95713 -4.00572 0
M  V30 3914 C 395.171 2.99805 -6.53842 0
M  V30 3915 C 397.197 2.84011 -5.1874 0
M  V30 3916 C 396.559 2.8589 -6.43775 0
M  V30 3917 H 392.658 0.659683 -0.419931 0
M  V30 3918 H 395.242 1.2317 -1.50789 0
M  V30 3919 H 393.413 3.72085 -1.11389 0
M  V30 3920 H 395.145 3.81819 -1.3415 0
M  V30 3921 H 391.9 3.38392 -3.31342 0
M  V30 3922 H 392.324 3.26307 -5.93172 0
M  V30 3923 H 396.966 2.93086 -3.0473 0
M  V30 3924 H 394.684 3.01184 -7.49876 0
M  V30 3925 H 398.27 2.72744 -5.13909 0
M  V30 3926 H 397.15 2.76931 -7.33675 0
M  V30 3927 N 394.653 0.992116 1.22453 0
M  V30 3928 C 395.585 0.500024 2.23679 0
M  V30 3929 C 396.598 -0.404463 1.57696 0
M  V30 3930 O 397.787 -0.206722 1.77299 0
M  V30 3931 C 394.887 -0.294711 3.37616 0
M  V30 3932 C 394.06 0.605723 4.33186 0
M  V30 3933 C 393.119 -0.13717 5.26021 0
M  V30 3934 O 392.145 0.477164 5.67196 0
M  V30 3935 N 393.347 -1.4197 5.62872 0
M  V30 3936 H 396.112 1.37045 2.66531 0
M  V30 3937 H 393.673 0.866741 1.36745 0
M  V30 3938 H 395.665 -0.800329 3.96707 0
M  V30 3939 H 394.235 -1.06623 2.93854 0
M  V30 3940 H 393.455 1.29202 3.72425 0
M  V30 3941 H 394.743 1.21896 4.93983 0
M  V30 3942 H 394.141 -1.94015 5.31389 0
M  V30 3943 H 392.698 -1.87052 6.24383 0
M  V30 3944 N 396.131 -1.37776 0.765217 0
M  V30 3945 C 397.377 -2.00145 0.327072 0
M  V30 3946 C 397.71 -1.60607 -1.09175 0
M  V30 3947 O 396.985 -0.849127 -1.74986 0
M  V30 3948 C 397.268 -3.57109 0.46319 0
M  V30 3949 C 397.121 -4.06576 1.92395 0
M  V30 3950 C 398.44 -4.39888 -0.136473 0
M  V30 3951 H 395.559 -0.727113 0.120316 0
M  V30 3952 H 398.201 -1.63549 0.967039 0
M  V30 3953 H 396.351 -3.88414 -0.0816358 0
M  V30 3954 H 398.023 -3.85864 2.52798 0
M  V30 3955 H 396.266 -3.59011 2.43503 0
M  V30 3956 H 396.937 -5.15639 1.97028 0
M  V30 3957 H 399.413 -4.14803 0.328317 0
M  V30 3958 H 398.289 -5.48899 -0.0110582 0
M  V30 3959 H 398.55 -4.24758 -1.22608 0
M  V30 3960 N 397.609 -0.515225 -1.4894 0
M  V30 3961 C 398.539 0.244628 -2.32215 0
M  V30 3962 C 399.52 0.949136 -1.41157 0
M  V30 3963 O 400.705 0.937783 -1.70057 0
M  V30 3964 C 397.835 1.30096 -3.22013 0
M  V30 3965 C 396.789 0.715486 -4.21977 0
M  V30 3966 C 396.115 1.87339 -5.00808 0
M  V30 3967 C 397.415 -0.302982 -5.2142 0
M  V30 3968 H 399.109 -0.450501 -2.95991 0
M  V30 3969 H 396.655 -0.218098 -1.42339 0
M  V30 3970 H 398.608 1.84037 -3.79089 0
M  V30 3971 H 397.332 2.02547 -2.56207 0
M  V30 3972 H 395.991 0.197715 -3.66066 0
M  V30 3973 H 395.639 2.58592 -4.31438 0
M  V30 3974 H 395.339 1.48764 -5.68457 0
M  V30 3975 H 396.863 2.41686 -5.60732 0
M  V30 3976 H 398.277 0.148802 -5.73107 0
M  V30 3977 H 396.674 -0.60532 -5.97039 0
M  V30 3978 H 397.744 -1.21395 -4.69459 0
M  V30 3979 N 399.087 1.5561 -0.249682 0
M  V30 3980 C 400.315 2.03411 0.378352 0
M  V30 3981 C 400.73 1.12886 1.51335 0
M  V30 3982 O 400.087 0.143833 1.81932 0
M  V30 3983 C 400.138 3.50537 0.88351 0
M  V30 3984 O 399.859 4.37614 -0.20626 0
M  V30 3985 C 401.36 4.14113 1.58195 0
M  V30 3986 H 398.58 0.664994 0.08958 0
M  V30 3987 H 401.124 2.01044 -0.374357 0
M  V30 3988 H 399.279 3.5343 1.58639 0
M  V30 3989 H 399.693 5.24199 0.177782 0
M  V30 3990 H 401.167 5.18741 1.8871 0
M  V30 3991 H 401.644 3.60767 2.50487 0
M  V30 3992 H 402.25 4.15151 0.923573 0
M  V30 3993 N 400.565 -0.0233959 1.57583 0
M  V30 3994 C 401.981 -0.379134 1.55031 0
M  V30 3995 C 402.181 -1.76255 0.976548 0
M  V30 3996 O 401.237 -2.45266 0.600078 0
M  V30 3997 C 402.55 -0.275792 2.99433 0
M  V30 3998 C 404.098 -0.352458 3.11009 0
M  V30 3999 C 404.573 -0.278501 4.57152 0
M  V30 4000 N 406.064 -0.337123 4.61972 0
M  V30 4001 C 406.799 -0.302876 5.726 0
M  V30 4002 N 406.295 -0.220589 6.92449 0
M  V30 4003 N 408.088 -0.353023 5.6099 0
M  V30 4004 H 400.239 0.881869 1.93227 0
M  V30 4005 H 402.502 0.335867 0.886509 0
M  V30 4006 H 402.208 0.675108 3.4516 0
M  V30 4007 H 402.082 -1.06721 3.61788 0
M  V30 4008 H 404.469 -1.29379 2.65226 0
M  V30 4009 H 404.55 0.468409 2.51475 0
M  V30 4010 H 404.194 0.659189 5.03604 0
M  V30 4011 H 404.124 -1.11755 5.14605 0
M  V30 4012 H 406.615 -0.403002 3.75745 0
M  V30 4013 H 406.928 -0.199713 7.72542 0
M  V30 4014 H 405.273 -0.186555 6.9475 0
M  V30 4015 H 408.464 -0.415339 4.66254 0
M  V30 4016 H 408.637 -0.322866 6.47195 0
M  V30 4017 N 402.043 -1.548 -0.295768 0
M  V30 4018 C 403.271 -1.78327 -1.04914 0
M  V30 4019 C 403.686 -0.545316 -1.80753 0
M  V30 4020 O 403.043 0.485013 -1.75937 0
M  V30 4021 C 403.094 -2.99418 -2.02561 0
M  V30 4022 O 402.815 -4.18431 -1.29798 0
M  V30 4023 C 404.316 -3.35375 -2.89895 0
M  V30 4024 H 401.536 -0.594618 -0.310918 0
M  V30 4025 H 404.08 -2.01763 -0.333454 0
M  V30 4026 H 402.235 -2.78175 -2.69624 0
M  V30 4027 H 402.649 -4.86736 -1.95419 0
M  V30 4028 H 404.123 -4.23332 -3.54251 0
M  V30 4029 H 404.6 -2.53761 -3.58472 0
M  V30 4030 H 405.206 -3.58796 -2.28355 0
M  V30 4031 N 403.521 0.559213 -1.47345 0
M  V30 4032 C 404.769 1.31388 -1.53563 0
M  V30 4033 C 405.09 1.93985 -0.198678 0
M  V30 4034 O 404.36 1.79825 0.777167 0
M  V30 4035 H 402.94 0.487901 -0.565652 0
M  V30 4036 H 405.602 0.65315 -1.8363 0
M  V30 4037 H 404.698 2.10844 -2.30111 0
M  V30 4038 N 404.999 1.35443 0.805782 0
M  V30 4039 C 405.909 1.30546 1.94923 0
M  V30 4040 C 406.925 0.210233 1.72725 0
M  V30 4041 O 408.101 0.43975 1.9654 0
M  V30 4042 C 405.166 1.07782 3.29521 0
M  V30 4043 C 404.227 2.26625 3.64609 0
M  V30 4044 C 403.46 2.04938 4.92784 0
M  V30 4045 O 403.683 1.01624 5.61274 0
M  V30 4046 O 402.617 2.9232 5.26149 0
M  V30 4047 H 406.443 2.26779 2.02002 0
M  V30 4048 H 404.028 1.15823 0.943682 0
M  V30 4049 H 405.91 0.969392 4.10098 0
M  V30 4050 H 404.585 0.146003 3.23371 0
M  V30 4051 H 403.492 2.43033 2.84404 0
M  V30 4052 H 404.825 3.18257 3.75464 0
M  V30 4053 N 406.477 -1.02803 1.19454 0
M  V30 4054 C 407.725 -1.75869 0.995722 0
M  V30 4055 C 408.046 -1.89138 -0.474543 0
M  V30 4056 O 407.316 -1.42558 -1.34366 0
M  V30 4057 H 405.896 -0.651511 0.365435 0
M  V30 4058 H 408.558 -1.24004 1.50363 0
M  V30 4059 H 407.654 -2.76661 1.44447 0
M  V30 4060 N 407.956 -0.998596 -1.21925 0
M  V30 4061 C 408.886 -0.573688 -2.26343 0
M  V30 4062 C 409.867 0.402296 -1.65274 0
M  V30 4063 O 411.052 0.291683 -1.91997 0
M  V30 4064 C 408.182 0.106839 -3.47136 0
M  V30 4065 C 407.136 -0.788269 -4.20678 0
M  V30 4066 C 406.462 0.0254927 -5.34694 0
M  V30 4067 C 407.762 -2.08784 -4.78755 0
M  V30 4068 H 409.456 -1.44651 -2.62138 0
M  V30 4069 H 407.002 -0.696975 -1.26009 0
M  V30 4070 H 408.955 0.415531 -4.19346 0
M  V30 4071 H 407.679 1.01424 -3.10452 0
M  V30 4072 H 406.338 -1.08069 -3.50309 0
M  V30 4073 H 405.986 0.933989 -4.94253 0
M  V30 4074 H 405.686 -0.570437 -5.84825 0
M  V30 4075 H 407.21 0.328147 -6.09718 0
M  V30 4076 H 408.624 -1.84272 -5.42878 0
M  V30 4077 H 407.021 -2.63307 -5.39249 0
M  V30 4078 H 408.091 -2.76284 -3.98491 0
M  V30 4079 N 409.434 1.37368 -0.772513 0
M  V30 4080 C 410.366 2.28899 -0.117502 0
M  V30 4081 C 411.379 1.4867 0.663405 0
M  V30 4082 O 412.568 1.71314 0.501372 0
M  V30 4083 C 409.668 3.2788 0.857192 0
M  V30 4084 C 408.841 4.37207 0.129938 0
M  V30 4085 C 407.9 5.16257 1.01811 0
M  V30 4086 O 406.926 5.67159 0.481601 0
M  V30 4087 N 408.128 5.31058 2.3443 0
M  V30 4088 H 410.893 2.85752 -0.903662 0
M  V30 4089 H 408.454 1.49353 -0.62493 0
M  V30 4090 H 410.446 3.77647 1.45482 0
M  V30 4091 H 409.016 2.7179 1.54432 0
M  V30 4092 H 408.236 3.88827 -0.648605 0
M  V30 4093 H 409.524 5.07434 -0.372559 0
M  V30 4094 H 408.922 4.91287 2.80452 0
M  V30 4095 H 407.479 5.84131 2.89197 0
M  V30 4096 N 410.912 0.523116 1.48665 0
M  V30 4097 C 412.328 0.180511 1.58576 0
M  V30 4098 C 412.528 -1.31597 1.52592 0
M  V30 4099 O 411.584 -2.0937 1.4114 0
M  V30 4100 C 412.897 0.776949 2.90489 0
M  V30 4101 C 414.445 0.745058 3.04003 0
M  V30 4102 C 414.92 1.31995 4.38567 0
M  V30 4103 N 416.411 1.28162 4.45117 0
M  V30 4104 C 417.146 1.6964 5.47731 0
M  V30 4105 N 416.642 2.18816 6.57337 0
M  V30 4106 N 418.435 1.6092 5.38573 0
M  V30 4107 H 410.586 1.4958 1.50797 0
M  V30 4108 H 412.849 0.621772 0.715614 0
M  V30 4109 H 412.555 1.82732 3.00503 0
M  V30 4110 H 412.429 0.25007 3.7637 0
M  V30 4111 H 414.816 -0.296532 2.93606 0
M  V30 4112 H 414.897 1.30933 2.1975 0
M  V30 4113 H 414.541 2.36043 4.49718 0
M  V30 4114 H 414.471 0.731418 5.21496 0
M  V30 4115 H 416.962 0.92155 3.66491 0
M  V30 4116 H 417.275 2.48478 7.31764 0
M  V30 4117 H 415.62 2.22805 6.58318 0
M  V30 4118 H 418.811 1.22304 4.5184 0
M  V30 4119 H 418.984 1.93567 6.18414 0
M  V30 4120 N 412.39 -1.55475 0.257931 0
M  V30 4121 C 413.32 -2.24815 -0.630912 0
M  V30 4122 C 414.301 -1.23224 -1.17259 0
M  V30 4123 O 415.486 -1.51904 -1.20991 0
M  V30 4124 C 412.616 -2.95609 -1.82298 0
M  V30 4125 C 411.57 -4.03982 -1.41359 0
M  V30 4126 C 410.896 -4.6226 -2.68738 0
M  V30 4127 C 412.196 -5.19109 -0.57648 0
M  V30 4128 H 413.89 -2.99354 -0.0526878 0
M  V30 4129 H 411.436 -1.4398 -0.023901 0
M  V30 4130 H 413.389 -3.42822 -2.45054 0
M  V30 4131 H 412.113 -2.18577 -2.42676 0
M  V30 4132 H 410.772 -3.57555 -0.809324 0
M  V30 4133 H 410.42 -3.81915 -3.27338 0
M  V30 4134 H 410.12 -5.35424 -2.42065 0
M  V30 4135 H 411.644 -5.12212 -3.32372 0
M  V30 4136 H 413.058 -5.62479 -1.10861 0
M  V30 4137 H 411.455 -5.98729 -0.405351 0
M  V30 4138 H 412.525 -4.83174 0.408776 0
M  V30 4139 N 413.868 0.0150385 -1.57593 0
M  V30 4140 C 415.096 0.714395 -1.94175 0
M  V30 4141 C 415.511 1.68135 -0.858841 0
M  V30 4142 O 414.868 1.81766 0.163567 0
M  V30 4143 C 414.919 1.45933 -3.30735 0
M  V30 4144 O 414.64 0.531167 -4.34868 0
M  V30 4145 C 416.141 2.25456 -3.81686 0
M  V30 4146 H 413.361 0.199923 -0.640525 0
M  V30 4147 H 415.905 -0.0316096 -2.04476 0
M  V30 4148 H 414.06 2.15709 -3.21789 0
M  V30 4149 H 414.474 1.05509 -5.13778 0
M  V30 4150 H 415.948 2.731 -4.79709 0
M  V30 4151 H 416.425 3.07485 -3.13607 0
M  V30 4152 H 417.031 1.60727 -3.9376 0
M  V30 4153 N 415.346 1.54954 0.287554 0
M  V30 4154 C 416.296 1.8322 1.357 0
M  V30 4155 C 417.28 0.690152 1.45347 0
M  V30 4156 O 418.472 0.951137 1.49273 0
M  V30 4157 C 415.601 2.09481 2.71979 0
M  V30 4158 C 414.687 3.29906 2.66502 0
M  V30 4159 N 415.078 4.50154 2.30641 0
M  V30 4160 C 413.376 3.32203 2.97585 0
M  V30 4161 C 414.077 5.32209 2.34794 0
M  V30 4162 N 413.053 4.70258 2.72688 0
M  V30 4163 H 416.855 2.73746 1.0696 0
M  V30 4164 H 414.369 1.54635 0.496167 0
M  V30 4165 H 416.366 2.27882 3.49107 0
M  V30 4166 H 415.026 1.2023 3.0162 0
M  V30 4167 H 416.037 4.76515 2.02865 0
M  V30 4168 H 412.714 2.53101 3.32034 0
M  V30 4169 H 414.104 6.38321 2.09753 0
M  V30 4170 N 416.824 -0.551391 1.4764 0
M  V30 4171 C 418.052 -1.33357 1.58189 0
M  V30 4172 C 418.467 -1.87342 0.234199 0
M  V30 4173 O 417.824 -1.65301 -0.77343 0
M  V30 4174 C 417.875 -2.49942 2.61173 0
M  V30 4175 O 417.596 -1.98187 3.90709 0
M  V30 4176 C 419.097 -3.42072 2.8196 0
M  V30 4177 H 416.317 -0.40631 0.533998 0
M  V30 4178 H 418.861 -0.667367 1.93304 0
M  V30 4179 H 417.016 -3.12489 2.28975 0
M  V30 4180 H 417.43 -2.74342 4.47031 0
M  V30 4181 H 418.904 -4.20278 3.57869 0
M  V30 4182 H 419.381 -3.95978 1.89995 0
M  V30 4183 H 419.987 -2.85336 3.15378 0
M  V30 4184 N 418.302 -1.35869 -0.798587 0
M  V30 4185 C 419.232 -1.32118 -1.92528 0
M  V30 4186 C 420.213 -0.194209 -1.68988 0
M  V30 4187 O 421.398 -0.390426 -1.90235 0
M  V30 4188 C 418.528 -1.10047 -3.29404 0
M  V30 4189 C 417.482 -2.19471 -3.67446 0
M  V30 4190 C 416.808 -1.82555 -5.02571 0
M  V30 4191 C 418.108 -3.61495 -3.76987 0
M  V30 4192 H 419.802 -2.26394 -1.95924 0
M  V30 4193 H 417.348 -1.08981 -0.94123 0
M  V30 4194 H 419.301 -1.06061 -4.07835 0
M  V30 4195 H 418.025 -0.122195 -3.26371 0
M  V30 4196 H 416.684 -2.22568 -2.91306 0
M  V30 4197 H 416.332 -0.833249 -4.9605 0
M  V30 4198 H 416.032 -2.5581 -5.28995 0
M  V30 4199 H 417.556 -1.80108 -5.83432 0
M  V30 4200 H 418.97 -3.60676 -4.4563 0
M  V30 4201 H 417.367 -4.33577 -4.14887 0
M  V30 4202 H 418.437 -3.97065 -2.78329 0
M  V30 4203 N 419.78 1.02168 -1.19998 0
M  V30 4204 C 420.712 2.10705 -0.901994 0
M  V30 4205 C 421.725 1.6244 0.108216 0
M  V30 4206 O 422.914 1.78082 -0.12214 0
M  V30 4207 C 420.014 3.37291 -0.329834 0
M  V30 4208 C 419.187 4.14714 -1.39035 0
M  V30 4209 C 418.246 5.19606 -0.830432 0
M  V30 4210 O 417.272 5.48809 -1.50989 0
M  V30 4211 N 418.474 5.79366 0.362696 0
M  V30 4212 H 421.239 2.36856 -1.83628 0
M  V30 4213 H 418.8 1.18518 -1.10296 0
M  V30 4214 H 420.792 4.04657 0.0587633 0
M  V30 4215 H 419.362 3.0843 0.508891 0
M  V30 4216 H 418.582 3.42392 -1.9535 0
M  V30 4217 H 419.87 4.63226 -2.10474 0
M  V30 4218 H 419.268 5.57968 0.932081 0
M  V30 4219 H 417.825 6.48106 0.69299 0
M  V30 4220 N 421.258 1.00505 1.21394 0
M  V30 4221 C 422.486 0.706609 1.9446 0
M  V30 4222 C 422.901 -0.73081 1.74082 0
M  V30 4223 O 422.258 -1.49446 1.04747 0
M  V30 4224 C 422.309 1.01824 3.46863 0
M  V30 4225 O 422.03 2.39919 3.66566 0
M  V30 4226 C 423.531 0.739216 4.37093 0
M  V30 4227 H 420.751 0.260394 0.618414 0
M  V30 4228 H 423.295 1.34311 1.54211 0
M  V30 4229 H 421.45 0.427343 3.85036 0
M  V30 4230 H 421.864 2.50784 4.6066 0
M  V30 4231 H 423.338 1.00744 5.42729 0
M  V30 4232 H 423.815 -0.326746 4.37983 0
M  V30 4233 H 424.421 1.31173 4.04566 0
M  V30 4234 N 422.737 -1.36956 0.779787 0
M  V30 4235 C 423.962 -2.04283 0.358224 0
M  V30 4236 C 424.387 -1.58422 -1.01411 0
M  V30 4237 O 423.745 -0.748179 -1.65142 0
M  V30 4238 C 423.793 -3.58152 0.419479 0
M  V30 4239 O 422.897 -4.08342 -0.577142 0
M  V30 4240 H 422.238 -0.645967 0.153698 0
M  V30 4241 H 424.768 -1.75108 1.05822 0
M  V30 4242 H 424.778 -4.07041 0.279636 0
M  V30 4243 H 423.453 -3.90886 1.42061 0
M  V30 4244 H 422.03 -3.70751 -0.399755 0
M  V30 4245 N 424.215 -0.530993 -1.48385 0
M  V30 4246 C 425.445 -0.00133928 -2.066 0
M  V30 4247 C 425.853 1.28599 -1.38777 0
M  V30 4248 O 425.196 1.77599 -0.469495 0
M  V30 4249 C 425.258 0.292137 -3.58311 0
M  V30 4250 C 424.922 -0.901864 -4.48013 0
M  V30 4251 C 425.919 -1.80053 -4.87726 0
M  V30 4252 C 423.604 -1.10915 -4.89901 0
M  V30 4253 C 425.598 -2.89038 -5.68098 0
M  V30 4254 C 423.285 -2.20213 -5.70043 0
M  V30 4255 C 424.283 -3.09107 -6.0905 0
M  V30 4256 O 423.971 -4.16514 -6.87583 0
M  V30 4257 H 423.703 -0.0308475 -0.675296 0
M  V30 4258 H 426.257 -0.736335 -1.91748 0
M  V30 4259 H 424.487 1.08112 -3.7128 0
M  V30 4260 H 426.176 0.763994 -3.98645 0
M  V30 4261 H 426.942 -1.65234 -4.55986 0
M  V30 4262 H 422.821 -0.426498 -4.59023 0
M  V30 4263 H 426.365 -3.58451 -5.98464 0
M  V30 4264 H 422.262 -2.35016 -6.01197 0
M  V30 4265 H 423.03 -4.14237 -7.05939 0
M  V30 4266 N 425.693 1.55336 -0.266172 0
M  V30 4267 C 426.941 1.99003 0.35246 0
M  V30 4268 C 427.262 1.15591 1.57047 0
M  V30 4269 O 426.532 0.243268 1.94384 0
M  V30 4270 H 425.112 0.735025 0.133217 0
M  V30 4271 H 427.774 1.91367 -0.369434 0
M  V30 4272 H 426.87 3.05289 0.648453 0
M  V30 4273 N 427.171 -0.0066808 1.57599 0
M  V30 4274 C 428.081 -1.01671 2.11424 0
M  V30 4275 C 429.097 -1.38143 1.05795 0
M  V30 4276 O 430.273 -1.47011 1.37658 0
M  V30 4277 C 427.338 -2.29192 2.60139 0
M  V30 4278 C 426.399 -1.99094 3.80342 0
M  V30 4279 C 425.632 -3.20535 4.26724 0
M  V30 4280 O 425.855 -4.3199 3.72479 0
M  V30 4281 O 424.789 -3.04924 5.18946 0
M  V30 4282 H 428.615 -0.589181 2.9793 0
M  V30 4283 H 426.2 -0.225091 1.47695 0
M  V30 4284 H 428.082 -3.0412 2.917 0
M  V30 4285 H 426.757 -2.71195 1.76733 0
M  V30 4286 H 425.664 -1.21663 3.53764 0
M  V30 4287 H 426.997 -1.61931 4.648 0
M  V30 4288 N 428.649 -1.55105 -0.279332 0
M  V30 4289 C 429.599 -1.83937 -1.34727 0
M  V30 4290 C 430.583 -0.69785 -1.44979 0
M  V30 4291 O 431.775 -0.95904 -1.48766 0
M  V30 4292 C 428.904 -2.1092 -2.70864 0
M  V30 4293 C 427.99 -3.31314 -2.64748 0
M  V30 4294 N 428.381 -4.51371 -2.2825 0
M  V30 4295 C 426.679 -3.33777 -2.95819 0
M  V30 4296 C 427.38 -5.33447 -2.31969 0
M  V30 4297 N 426.356 -4.71697 -2.7019 0
M  V30 4298 H 430.158 -2.74309 -1.05506 0
M  V30 4299 H 427.672 -1.54896 -0.487959 0
M  V30 4300 H 429.669 -2.2973 -3.47893 0
M  V30 4301 H 428.329 -1.21828 -3.00979 0
M  V30 4302 H 429.34 -4.77584 -2.00335 0
M  V30 4303 H 426.017 -2.54858 -3.30687 0
M  V30 4304 H 427.407 -6.39424 -2.06365 0
M  V30 4305 N 430.127 0.543554 -1.4793 0
M  V30 4306 C 431.352 1.32995 -1.59145 0
M  V30 4307 C 431.777 1.86472 -0.246956 0
M  V30 4308 O 431.135 1.63696 0.779324 0
M  V30 4309 C 431.183 2.46623 -2.63077 0
M  V30 4310 O 430.287 3.49261 -2.19295 0
M  V30 4311 H 429.628 0.394472 -0.534124 0
M  V30 4312 H 432.158 0.655489 -1.93816 0
M  V30 4313 H 432.168 2.93001 -2.83926 0
M  V30 4314 H 430.843 2.07059 -3.60693 0
M  V30 4315 H 429.42 3.09094 -2.08603 0
M  V30 4316 N 431.605 1.3629 0.791371 0
M  V30 4317 C 432.851 1.30605 1.55146 0
M  V30 4318 C 433.184 -0.115042 1.93859 0
M  V30 4319 O 432.459 -1.06798 1.62556 0
M  V30 4320 C 432.742 2.22692 2.82985 0
M  V30 4321 C 432.595 3.73489 2.50651 0
M  V30 4322 C 433.914 2.13588 3.84796 0
M  V30 4323 H 431.033 0.475761 0.562868 0
M  V30 4324 H 433.675 1.66825 0.909358 0
M  V30 4325 H 431.825 1.91933 3.37778 0
M  V30 4326 H 433.497 4.14758 2.01924 0
M  V30 4327 H 431.74 3.93021 1.83622 0
M  V30 4328 H 432.411 4.3333 3.41949 0
M  V30 4329 H 434.887 2.40659 3.39445 0
M  V30 4330 H 433.763 2.80195 4.71998 0
M  V30 4331 H 434.024 1.12256 4.27611 0
M  V30 4332 N 433.083 -1.0153 1.20538 0
M  V30 4333 C 434.013 -2.11972 0.979295 0
M  V30 4334 C 434.994 -1.6985 -0.0921787 0
M  V30 4335 O 436.179 -1.94089 0.0655932 0
M  V30 4336 C 433.309 -3.43201 0.531984 0
M  V30 4337 C 432.263 -3.9907 1.54685 0
M  V30 4338 C 431.589 -5.26082 0.956127 0
M  V30 4339 C 432.889 -4.32313 2.93092 0
M  V30 4340 H 434.583 -2.31143 1.90298 0
M  V30 4341 H 432.129 -1.11079 0.916372 0
M  V30 4342 H 434.082 -4.1985 0.361044 0
M  V30 4343 H 432.806 -3.23792 -0.427327 0
M  V30 4344 H 431.465 -3.2453 1.70517 0
M  V30 4345 H 431.113 -5.02999 -0.0111538 0
M  V30 4346 H 430.813 -5.64426 1.63393 0
M  V30 4347 H 432.337 -6.05386 0.796284 0
M  V30 4348 H 433.751 -4.99845 2.80763 0
M  V30 4349 H 432.148 -4.81774 3.57791 0
M  V30 4350 H 433.218 -3.41025 3.44717 0
M  V30 4351 N 434.561 -1.01147 -1.20859 0
M  V30 4352 C 435.789 -0.716911 -1.94082 0
M  V30 4353 C 436.204 0.721568 -1.74467 0
M  V30 4354 O 435.561 1.48889 -1.05539 0
M  V30 4355 C 435.612 -1.03662 -3.46318 0
M  V30 4356 O 435.333 -2.4186 -3.65288 0
M  V30 4357 C 436.834 -0.762386 -4.36695 0
M  V30 4358 H 434.054 -0.26367 -0.617024 0
M  V30 4359 H 436.598 -1.35127 -1.53496 0
M  V30 4360 H 434.753 -0.447757 -3.84804 0
M  V30 4361 H 435.167 -2.53224 -4.59323 0
M  V30 4362 H 436.641 -1.03621 -5.42187 0
M  V30 4363 H 437.118 0.303514 -4.3815 0
M  V30 4364 H 437.724 -1.33316 -4.03865 0
M  V30 4365 N 436.039 1.36541 -0.78704 0
M  V30 4366 C 437.288 1.98552 -0.35494 0
M  V30 4367 C 437.601 1.63171 1.07864 0
M  V30 4368 O 438.807 2.18399 1.61289 0
M  V30 4369 C 437.263 3.55136 -0.583671 0
M  V30 4370 C 436.871 3.99444 -2.02851 0
M  V30 4371 C 438.615 4.2395 -0.215957 0
M  V30 4372 C 436.522 5.48796 -2.20403 0
M  V30 4373 H 435.452 0.742888 -0.128972 0
M  V30 4374 H 438.103 1.5587 -0.968337 0
M  V30 4375 H 436.485 3.95875 0.0994046 0
M  V30 4376 H 437.659 3.6991 -2.74779 0
M  V30 4377 H 435.974 3.43459 -2.35425 0
M  V30 4378 H 438.571 5.33709 -0.325405 0
M  V30 4379 H 438.914 4.07827 0.835646 0
M  V30 4380 H 439.447 3.88565 -0.852175 0
M  V30 4381 H 436.186 5.69864 -3.23937 0
M  V30 4382 H 435.706 5.79964 -1.52977 0
M  V30 4383 H 437.385 6.14986 -2.01002 0
M  V30 4384 N 437.518 0.538854 1.48102 0
M  V30 4385 C 438.468 -0.23907 2.26743 0
M  V30 4386 C 439.452 -0.901923 1.33245 0
M  V30 4387 O 440.644 -0.803263 1.57723 0
M  V30 4388 C 437.773 -1.2799 3.18549 0
M  V30 4389 C 436.859 -0.621388 4.19523 0
M  V30 4390 N 437.25 0.298004 5.04921 0
M  V30 4391 C 435.548 -0.877533 4.37282 0
M  V30 4392 C 436.249 0.678757 5.77726 0
M  V30 4393 N 435.225 0.0377881 5.43587 0
M  V30 4394 H 439.027 0.468096 2.90148 0
M  V30 4395 H 436.541 0.357497 1.58416 0
M  V30 4396 H 438.538 -1.851 3.73555 0
M  V30 4397 H 437.198 -1.98835 2.567 0
M  V30 4398 H 438.209 0.671126 5.13533 0
M  V30 4399 H 434.886 -1.57588 3.86616 0
M  V30 4400 H 436.276 1.43316 6.56437 0
M  V30 4401 N 438.996 -1.55193 0.274407 0
M  V30 4402 C 440.224 -2.03987 -0.345943 0
M  V30 4403 C 440.639 -1.15279 -1.4952 0
M  V30 4404 O 439.996 -0.172759 -1.8168 0
M  V30 4405 C 440.047 -3.51898 -0.827631 0
M  V30 4406 O 439.768 -4.37231 0.275855 0
M  V30 4407 C 441.269 -4.16577 -1.51587 0
M  V30 4408 H 438.489 -0.666335 -0.0789892 0
M  V30 4409 H 441.033 -2.00423 0.406294 0
M  V30 4410 H 439.188 -3.55909 -1.52996 0
M  V30 4411 H 439.602 -5.24415 -0.0943638 0
M  V30 4412 H 441.076 -5.21678 -1.80433 0
M  V30 4413 H 441.553 -3.64707 -2.44716 0
M  V30 4414 H 442.159 -4.16568 -0.857409 0
M  V30 4415 N 440.474 -0.00167713 -1.576 0
M  V30 4416 C 441.699 0.69739 -1.95323 0
M  V30 4417 C 442.124 1.6642 -0.876706 0
M  V30 4418 O 441.482 1.80548 0.165007 0
M  V30 4419 C 441.53 1.40403 -3.32144 0
M  V30 4420 O 440.634 2.5185 -3.26566 0
M  V30 4421 H 439.975 0.185373 -0.637599 0
M  V30 4422 H 442.505 -0.0553665 -2.04525 0
M  V30 4423 H 442.515 1.76707 -3.67748 0
M  V30 4424 H 441.19 0.695167 -4.10049 0
M  V30 4425 H 439.767 2.17861 -3.0264 0
M  V30 4426 N 441.952 1.55251 0.271103 0
M  V30 4427 C 442.899 1.88261 1.33516 0
M  V30 4428 C 443.869 0.734296 1.48988 0
M  V30 4429 O 445.054 0.985741 1.63364 0
M  V30 4430 C 442.194 2.16168 2.69008 0
M  V30 4431 C 441.307 3.43678 2.61743 0
M  V30 4432 C 440.442 3.61276 3.89427 0
M  V30 4433 C 439.481 4.82472 3.7668 0
M  V30 4434 N 438.618 4.96717 4.96202 0
M  V30 4435 H 443.458 2.79015 1.04665 0
M  V30 4436 H 440.995 1.38137 0.505618 0
M  V30 4437 H 442.953 2.30349 3.47844 0
M  V30 4438 H 441.583 1.28646 2.96057 0
M  V30 4439 H 440.635 3.37959 1.74607 0
M  V30 4440 H 441.947 4.3265 2.48224 0
M  V30 4441 H 441.101 3.75284 4.76704 0
M  V30 4442 H 439.84 2.70492 4.05814 0
M  V30 4443 H 438.845 4.68465 2.87786 0
M  V30 4444 H 440.07 5.74692 3.61809 0
M  V30 4445 H 438.016 4.08865 5.12997 0
M  V30 4446 H 437.933 5.79738 4.85222 0
M  V30 4447 H 439.201 5.15113 5.85046 0
M  V30 4448 N 443.43 -0.535701 1.48216 0
M  V30 4449 C 444.362 -1.65662 1.58394 0
M  V30 4450 C 445.375 -1.5591 0.468607 0
M  V30 4451 O 446.564 -1.62475 0.7392 0
M  V30 4452 C 443.664 -3.04276 1.4923 0
M  V30 4453 C 442.837 -3.39567 2.75705 0
M  V30 4454 C 441.896 -4.57436 2.60075 0
M  V30 4455 O 440.922 -4.60942 3.33948 0
M  V30 4456 N 442.124 -5.55259 1.69315 0
M  V30 4457 H 444.889 -1.5737 2.55058 0
M  V30 4458 H 442.45 -0.722845 1.44867 0
M  V30 4459 H 444.442 -3.80994 1.36477 0
M  V30 4460 H 443.012 -3.06677 0.605632 0
M  V30 4461 H 442.232 -2.52083 3.03064 0
M  V30 4462 H 443.52 -3.59929 3.59623 0
M  V30 4463 H 442.918 -5.552 1.08489 0
M  V30 4464 H 441.475 -6.31218 1.62504 0
M  V30 4465 N 444.908 -1.36708 -0.784132 0
M  V30 4466 C 446.133 -1.34565 -1.5782 0
M  V30 4467 C 446.558 0.0695257 -1.87971 0
M  V30 4468 O 445.916 1.04302 -1.48293 0
M  V30 4469 C 445.964 -2.17952 -2.87279 0
M  V30 4470 O 445.068 -1.57563 -3.81114 0
M  V30 4471 H 444.409 -0.460337 -0.478524 0
M  V30 4472 H 446.939 -1.80064 -0.971495 0
M  V30 4473 H 446.949 -2.30721 -3.365 0
M  V30 4474 H 445.624 -3.20823 -2.64661 0
M  V30 4475 H 444.201 -1.53764 -3.39722 0
M  V30 4476 N 446.386 1.0089 -1.21074 0
M  V30 4477 C 447.634 1.74262 -1.02358 0
M  V30 4478 C 447.955 1.89869 0.444393 0
M  V30 4479 O 447.225 1.44677 1.32081 0
M  V30 4480 H 445.805 0.645615 -0.375754 0
M  V30 4481 H 448.467 1.21596 -1.52317 0
M  V30 4482 H 447.563 2.74328 -1.4883 0
M  V30 4483 N 447.864 1.01787 1.20321 0
M  V30 4484 C 449.112 0.706538 1.89347 0
M  V30 4485 C 449.433 -0.766289 1.79313 0
M  V30 4486 O 448.703 -1.55126 1.19635 0
M  V30 4487 H 447.283 0.258348 0.700903 0
M  V30 4488 H 449.945 1.28974 1.46122 0
M  V30 4489 H 449.041 0.991066 2.95946 0
M  V30 4490 N 449.342 -1.36122 0.79427 0
M  V30 4491 C 450.289 -2.29982 0.194101 0
M  V30 4492 C 451.259 -1.52214 -0.664833 0
M  V30 4493 O 452.444 -1.80702 -0.612498 0
M  V30 4494 C 449.584 -3.38706 -0.661244 0
M  V30 4495 C 448.697 -4.31456 0.216766 0
M  V30 4496 C 447.832 -5.27265 -0.645411 0
M  V30 4497 C 446.871 -6.11653 0.233756 0
M  V30 4498 N 446.008 -6.99636 -0.587682 0
M  V30 4499 H 450.848 -2.80722 0.999965 0
M  V30 4500 H 448.385 -1.38172 0.504677 0
M  V30 4501 H 450.343 -4.00394 -1.17219 0
M  V30 4502 H 448.973 -2.89274 -1.43249 0
M  V30 4503 H 448.025 -3.7088 0.845724 0
M  V30 4504 H 449.337 -4.90724 0.893973 0
M  V30 4505 H 448.491 -5.94266 -1.22198 0
M  V30 4506 H 447.23 -4.68463 -1.35623 0
M  V30 4507 H 446.235 -5.4361 0.82269 0
M  V30 4508 H 447.46 -6.72531 0.942247 0
M  V30 4509 H 445.406 -6.43337 -1.2827 0
M  V30 4510 H 445.323 -7.55993 0.0317402 0
M  V30 4511 H 446.591 -7.71001 -1.14792 0
M  V30 4512 N 450.82 -0.546701 -1.47814 0
M  V30 4513 C 451.752 0.244196 -2.27895 0
M  V30 4514 C 452.765 0.88911 -1.36377 0
M  V30 4515 O 453.954 0.764733 -1.61289 0
M  V30 4516 C 451.054 1.36252 -3.10304 0
M  V30 4517 C 450.227 0.816382 -4.29714 0
M  V30 4518 C 449.286 1.81789 -4.93801 0
M  V30 4519 O 448.312 1.36818 -5.52512 0
M  V30 4520 N 449.514 3.15085 -4.87547 0
M  V30 4521 H 452.279 -0.442694 -2.96412 0
M  V30 4522 H 449.84 -0.382095 -1.57327 0
M  V30 4523 H 451.832 2.03102 -3.50045 0
M  V30 4524 H 450.402 1.95281 -2.44099 0
M  V30 4525 H 449.622 -0.0285981 -3.9419 0
M  V30 4526 H 450.91 0.430668 -5.06974 0
M  V30 4527 H 450.308 3.54275 -4.41028 0
M  V30 4528 H 448.865 3.77522 -5.31339 0
M  V30 4529 N 452.299 1.55045 -0.282633 0
M  V30 4530 C 453.262 2.21515 0.588539 0
M  V30 4531 C 454.262 1.19535 1.07554 0
M  V30 4532 O 455.452 1.44391 0.974514 0
M  V30 4533 C 452.584 2.88704 1.8128 0
M  V30 4534 H 453.777 2.99899 0.00806397 0
M  V30 4535 H 451.33 1.56265 -0.0333067 0
M  V30 4536 H 452.065 2.14352 2.43359 0
M  V30 4537 H 451.85 3.63443 1.47144 0
M  V30 4538 H 453.34 3.39465 2.43214 0
M  V30 4539 N 453.777 0.010035 1.57597 0
M  V30 4540 C 455.002 -0.687021 1.95691 0
M  V30 4541 C 455.427 -1.65952 0.885519 0
M  V30 4542 O 454.785 -1.80633 -0.15543 0
M  V30 4543 C 454.833 -1.3864 3.32884 0
M  V30 4544 O 453.937 -2.50115 3.27897 0
M  V30 4545 H 453.278 -0.181989 0.638573 0
M  V30 4546 H 455.808 0.0662122 2.04493 0
M  V30 4547 H 455.818 -1.74754 3.6868 0
M  V30 4548 H 454.493 -0.673411 4.10412 0
M  V30 4549 H 453.07 -2.16253 3.03791 0
M  V30 4550 N 455.255 -1.55392 -0.262866 0
M  V30 4551 C 456.503 -1.76127 -0.991147 0
M  V30 4552 C 456.824 -0.571083 -1.8645 0
M  V30 4553 O 456.094 0.413698 -1.91482 0
M  V30 4554 H 454.674 -0.649528 -0.368948 0
M  V30 4555 H 457.336 -1.9281 -0.284655 0
M  V30 4556 H 456.432 -2.6663 -1.62219 0
M  V30 4557 N 456.733 0.527833 -1.48498 0
M  V30 4558 C 457.68 1.6322 -1.6318 0
M  V30 4559 C 458.65 1.59199 -0.473815 0
M  V30 4560 O 459.835 1.77591 -0.697563 0
M  V30 4561 C 456.975 3.01474 -1.67951 0
M  V30 4562 C 456.088 3.15713 -2.94871 0
M  V30 4563 C 455.223 4.44539 -2.90789 0
M  V30 4564 C 454.262 4.52315 -4.12404 0
M  V30 4565 N 453.399 5.72533 -4.06387 0
M  V30 4566 H 458.239 1.50011 -2.57489 0
M  V30 4567 H 455.776 0.730298 -1.27691 0
M  V30 4568 H 457.734 3.81572 -1.68698 0
M  V30 4569 H 456.364 3.1345 -0.771306 0
M  V30 4570 H 455.416 2.28854 -3.03859 0
M  V30 4571 H 456.728 3.1732 -3.8485 0
M  V30 4572 H 455.882 5.3293 -2.89949 0
M  V30 4573 H 454.621 4.45457 -1.98542 0
M  V30 4574 H 453.626 3.62331 -4.13517 0
M  V30 4575 H 454.851 4.53134 -5.05812 0
M  V30 4576 H 452.797 5.74344 -3.16962 0
M  V30 4577 H 452.714 5.75643 -4.90073 0
M  V30 4578 H 453.982 6.63204 -4.0961 0
M  V30 4579 N 458.211 1.37122 0.776871 0
M  V30 4580 C 459.174 1.32301 1.8716 0
M  V30 4581 C 460.174 0.228099 1.59174 0
M  V30 4582 O 461.364 0.483642 1.67352 0
M  V30 4583 C 458.496 1.054 3.24197 0
M  V30 4584 H 459.689 2.29673 1.92848 0
M  V30 4585 H 457.242 1.22077 0.97606 0
M  V30 4586 H 457.977 0.0853872 3.24188 0
M  V30 4587 H 457.762 1.84648 3.45901 0
M  V30 4588 H 459.252 1.04664 4.04271 0
M  V30 4589 N 459.689 -1.00246 1.21608 0
M  V30 4590 C 460.938 -1.73476 1.02902 0
M  V30 4591 C 461.251 -1.90643 -0.437561 0
M  V30 4592 O 462.457 -2.61105 -0.74407 0
M  V30 4593 C 460.913 -3.12079 1.79261 0
M  V30 4594 C 460.521 -3.02877 3.30106 0
M  V30 4595 C 462.265 -3.89421 1.68972 0
M  V30 4596 C 460.172 -4.36575 3.98944 0
M  V30 4597 H 459.102 -0.650408 0.381425 0
M  V30 4598 H 461.753 -1.11985 1.45367 0
M  V30 4599 H 460.135 -3.74196 1.2959 0
M  V30 4600 H 461.309 -2.49983 3.87098 0
M  V30 4601 H 459.624 -2.39022 3.40965 0
M  V30 4602 H 462.221 -4.88362 2.17731 0
M  V30 4603 H 462.564 -4.1122 0.648397 0
M  V30 4604 H 463.097 -3.33963 2.16133 0
M  V30 4605 H 459.836 -4.19978 5.03288 0
M  V30 4606 H 459.356 -4.8942 3.4674 0
M  V30 4607 H 461.035 -5.05364 4.04 0
M  V30 4608 N 461.167 -1.02423 -1.1978 0
M  V30 4609 C 462.099 -0.559152 -2.22275 0
M  V30 4610 C 463.112 0.36251 -1.58713 0
M  V30 4611 O 464.301 0.159641 -1.77785 0
M  V30 4612 C 461.401 0.205094 -3.38279 0
M  V30 4613 C 460.574 -0.720361 -4.31427 0
M  V30 4614 C 459.633 -0.00234368 -5.262 0
M  V30 4615 O 458.659 -0.627378 -5.65732 0
M  V30 4616 N 459.861 1.26996 -5.66438 0
M  V30 4617 H 462.626 -1.44064 -2.62804 0
M  V30 4618 H 460.187 -0.902692 -1.34399 0
M  V30 4619 H 462.179 0.694868 -3.9869 0
M  V30 4620 H 460.749 0.987947 -2.96578 0
M  V30 4621 H 459.969 -1.39031 -3.68869 0
M  V30 4622 H 461.257 -1.3495 -4.90577 0
M  V30 4623 H 460.655 1.79858 -5.36347 0
M  V30 4624 H 459.212 1.70432 -6.29123 0
M  V30 4625 N 462.645 1.35699 -0.801477 0
M  V30 4626 C 463.873 2.03157 -0.391768 0
M  V30 4627 C 464.288 1.60412 0.995668 0
M  V30 4628 O 463.645 0.799228 1.64069 0
M  V30 4629 C 463.696 3.58566 -0.459671 0
M  V30 4630 O 463.417 3.99756 -1.7924 0
M  V30 4631 C 464.918 4.4328 -0.0421205 0
M  V30 4632 H 462.138 0.651688 -0.159825 0
M  V30 4633 H 464.682 1.73426 -1.08368 0
M  V30 4634 H 462.837 3.86963 0.183939 0
M  V30 4635 H 463.251 4.94387 -1.75162 0
M  V30 4636 H 464.725 5.51821 -0.140754 0
M  V30 4637 H 465.202 4.27383 1.01196 0
M  V30 4638 H 465.808 4.20168 -0.658687 0
M  V30 4639 N 464.123 0.554532 1.47522 0
M  V30 4640 C 465.369 0.0295227 2.02779 0
M  V30 4641 C 465.702 -1.31582 1.42828 0
M  V30 4642 O 464.977 -1.85561 0.582872 0
M  V30 4643 C 465.26 -0.0664057 3.60039 0
M  V30 4644 C 465.113 1.30585 4.30427 0
M  V30 4645 C 466.432 -0.781162 4.33112 0
M  V30 4646 H 463.551 0.0122027 0.736899 0
M  V30 4647 H 466.193 0.716305 1.7598 0
M  V30 4648 H 464.343 -0.651307 3.83002 0
M  V30 4649 H 466.015 1.93374 4.18813 0
M  V30 4650 H 464.258 1.88125 3.90886 0
M  V30 4651 H 464.929 1.19147 5.38988 0
M  V30 4652 H 467.405 -0.284565 4.15126 0
M  V30 4653 H 466.281 -0.817237 5.42782 0
M  V30 4654 H 466.542 -1.83672 4.0214 0
M  V30 4655 N 465.601 -1.54893 0.290851 0
M  V30 4656 C 466.85 -1.99111 -0.322113 0
M  V30 4657 C 467.163 -1.18283 -1.55784 0
M  V30 4658 O 468.369 -1.5272 -2.24475 0
M  V30 4659 C 466.825 -3.54442 -0.624438 0
M  V30 4660 C 466.433 -4.44066 0.592373 0
M  V30 4661 C 468.177 -4.07211 -1.19916 0
M  V30 4662 C 466.084 -5.90812 0.263762 0
M  V30 4663 H 465.014 -0.743712 -0.124133 0
M  V30 4664 H 467.665 -1.79132 0.39797 0
M  V30 4665 H 466.047 -3.70281 -1.40384 0
M  V30 4666 H 467.221 -4.39999 1.36886 0
M  V30 4667 H 465.536 -4.02015 1.08502 0
M  V30 4668 H 468.133 -5.14407 -1.45909 0
M  V30 4669 H 468.476 -3.57196 -2.13815 0
M  V30 4670 H 469.009 -3.94873 -0.481687 0
M  V30 4671 H 465.748 -6.44955 1.17105 0
M  V30 4672 H 465.268 -5.97911 -0.475655 0
M  V30 4673 H 466.947 -6.46852 -0.138354 0
M  V30 4674 N 467.08 -0.0183926 -1.57589 0
M  V30 4675 C 468.027 0.967022 -2.09565 0
M  V30 4676 C 468.997 1.32983 -0.995225 0
M  V30 4677 O 470.182 1.42501 -1.26878 0
M  V30 4678 C 467.322 2.24772 -2.61861 0
M  V30 4679 C 466.435 1.94232 -3.85873 0
M  V30 4680 C 465.57 3.16518 -4.26603 0
M  V30 4681 C 464.609 2.81748 -5.43401 0
M  V30 4682 N 463.746 3.96626 -5.79338 0
M  V30 4683 H 468.586 0.516874 -2.93483 0
M  V30 4684 H 466.123 0.243544 -1.4507 0
M  V30 4685 H 468.081 2.99667 -2.90268 0
M  V30 4686 H 466.711 2.67423 -1.8079 0
M  V30 4687 H 465.763 1.09625 -3.64262 0
M  V30 4688 H 467.075 1.64616 -4.70853 0
M  V30 4689 H 466.229 3.99743 -4.56389 0
M  V30 4690 H 464.968 3.49286 -3.40368 0
M  V30 4691 H 463.973 1.96933 -5.1332 0
M  V30 4692 H 465.198 2.50207 -6.31327 0
M  V30 4693 H 463.144 4.29257 -4.96059 0
M  V30 4694 H 463.061 3.70598 -6.58933 0
M  V30 4695 H 464.329 4.80586 -6.13724 0
M  V30 4696 N 468.558 1.5553 0.254621 0
M  V30 4697 C 469.506 1.9048 1.33492 0
M  V30 4698 C 470.5 0.78304 1.50216 0
M  V30 4699 O 471.706 0.967582 1.51782 0
M  V30 4700 H 468.081 0.604846 0.44684 0
M  V30 4701 H 470.052 2.80688 1.01275 0
M  V30 4702 C 468.801 2.20928 2.68489 0
M  V30 4703 H 468.124 3.06742 2.56417 0
M  V30 4704 H 469.564 2.49291 3.42972 0
M  V30 4705 C 468.023 1.023 3.20993 0
M  V30 4706 O 468.553 0.267027 4.00811 0
M  V30 4707 N 466.759 0.815714 2.78917 0
M  V30 4708 H 466.306 1.43217 2.14119 0
M  V30 4709 H 466.264 0.0236532 3.14391 0
M  V30 4710 N 470.036 -0.519951 1.48776 0
M  V30 4711 C 471.313 -1.28123 1.47797 0
M  V30 4712 C 471.693 -2.10196 0.195157 0
M  V30 4713 O 471.041 -2.13167 -0.822925 0
M  V30 4714 C 471.251 -2.15413 2.74587 0
M  V30 4715 C 472.599 -2.75225 3.23321 0
M  V30 4716 O 473.623 -2.25694 2.75574 0
M  V30 4717 O 472.482 -3.65346 4.06429 0
M  V30 4718 H 469.576 -0.578793 0.590701 0
M  V30 4719 H 472.122 -0.535779 1.6102 0
M  V30 4720 H 470.894 -1.54617 3.59457 0
M  V30 4721 H 470.517 -2.97186 2.64132 0
M  V30 4722 N 471.514 -1.37532 -0.769588 0
M  V30 4723 C 472.424 -1.35668 -1.91393 0
M  V30 4724 C 473.44 -0.255954 -1.72107 0
M  V30 4725 O 474.616 -0.491704 -1.95305 0
M  V30 4726 C 471.681 -1.16481 -3.26547 0
M  V30 4727 C 470.742 -2.36212 -3.58472 0
M  V30 4728 C 469.975 -2.17932 -4.87177 0
M  V30 4729 O 470.198 -1.1647 -5.58382 0
M  V30 4730 O 469.132 -3.06167 -5.18214 0
M  V30 4731 H 472.958 -2.32055 -1.95918 0
M  V30 4732 H 470.543 -1.18284 -0.912641 0
M  V30 4733 H 472.425 -1.07778 -4.07384 0
M  V30 4734 H 471.1 -0.231687 -3.2287 0
M  V30 4735 H 470.007 -2.50488 -2.77861 0
M  V30 4736 H 471.34 -3.281 -3.66894 0
M  V30 4737 N 472.992 0.995999 -1.22138 0
M  V30 4738 C 473.922 2.10387 -1.01289 0
M  V30 4739 C 474.903 1.69975 0.0651454 0
M  V30 4740 O 476.088 1.9396 -0.0964628 0
M  V30 4741 C 473.218 3.42312 -0.586517 0
M  V30 4742 C 472.172 3.96558 -1.61014 0
M  V30 4743 C 471.498 5.24494 -1.0397 0
M  V30 4744 C 472.798 4.27595 -2.99933 0
M  V30 4745 H 474.492 2.28086 -1.93951 0
M  V30 4746 H 472.038 1.09607 -0.933928 0
M  V30 4747 H 473.991 4.19223 -0.427793 0
M  V30 4748 H 472.715 3.24431 0.375761 0
M  V30 4749 H 471.374 3.21776 -1.75658 0
M  V30 4750 H 471.022 5.02953 -0.0688703 0
M  V30 4751 H 470.722 5.61755 -1.72352 0
M  V30 4752 H 472.246 6.04042 -0.892494 0
M  V30 4753 H 473.66 4.95315 -2.8868 0
M  V30 4754 H 472.057 4.76021 -3.6541 0
M  V30 4755 H 473.127 3.35498 -3.50099 0
M  V30 4756 N 474.47 1.03057 1.19235 0
M  V30 4757 C 475.38 0.622922 2.26179 0
M  V30 4758 C 476.396 -0.346113 1.70523 0
M  V30 4759 O 477.572 -0.203572 2.00369 0
M  V30 4760 C 474.637 -0.0182063 3.46695 0
M  V30 4761 C 473.698 0.998546 4.17526 0
M  V30 4762 C 472.931 0.387917 5.32288 0
M  V30 4763 O 473.154 -0.808668 5.64639 0
M  V30 4764 O 472.088 1.1116 5.91546 0
M  V30 4765 H 475.914 1.51363 2.63292 0
M  V30 4766 H 473.499 0.800856 1.26122 0
M  V30 4767 H 475.381 -0.375606 4.19723 0
M  V30 4768 H 474.056 -0.882895 3.11427 0
M  V30 4769 H 472.963 1.40756 3.4661 0
M  V30 4770 H 474.296 1.83366 4.56769 0
M  V30 4771 N 475.948 -1.35272 0.808662 0
M  V30 4772 C 477.173 -2.03477 0.401475 0
M  V30 4773 C 477.598 -1.60537 -0.980279 0
M  V30 4774 O 476.956 -0.78304 -1.63518 0
M  V30 4775 C 477.004 -3.57181 0.495354 0
M  V30 4776 O 476.108 -4.09474 -0.490397 0
M  V30 4777 H 475.449 -0.642561 0.167366 0
M  V30 4778 H 477.979 -1.72824 1.09512 0
M  V30 4779 H 477.989 -4.06356 0.365912 0
M  V30 4780 H 476.664 -3.87784 1.5032 0
M  V30 4781 H 475.241 -3.71516 -0.321023 0
M  V30 4782 N 477.426 -0.562348 -1.47226 0
M  V30 4783 C 478.672 -0.0402761 -2.0276 0
M  V30 4784 C 479.005 1.30823 -1.43523 0
M  V30 4785 O 478.28 1.85249 -0.592705 0
M  V30 4786 C 478.563 0.047311 -3.60069 0
M  V30 4787 C 478.416 -1.32865 -4.29729 0
M  V30 4788 C 479.735 0.758182 -4.3352 0
M  V30 4789 H 476.854 -0.0161105 -0.736824 0
M  V30 4790 H 479.496 -0.725628 -1.75598 0
M  V30 4791 H 477.646 0.630986 -3.83342 0
M  V30 4792 H 479.318 -1.95593 -4.17781 0
M  V30 4793 H 477.561 -1.90195 -3.89882 0
M  V30 4794 H 478.232 -1.22004 -5.38349 0
M  V30 4795 H 480.708 0.262546 -4.15271 0
M  V30 4796 H 479.584 0.78844 -5.43208 0
M  V30 4797 H 479.845 1.81537 -4.03109 0
M  V30 4798 N 478.904 1.54736 -0.299062 0
M  V30 4799 C 479.834 2.26409 0.571085 0
M  V30 4800 C 480.815 1.2629 1.13951 0
M  V30 4801 O 482 1.55059 1.16921 0
M  V30 4802 C 479.13 3.00338 1.74396 0
M  V30 4803 C 478.084 4.07588 1.30599 0
M  V30 4804 C 477.41 4.69222 2.56387 0
M  V30 4805 C 478.71 5.20455 0.438645 0
M  V30 4806 H 480.404 2.99388 -0.0266991 0
M  V30 4807 H 477.95 1.43993 -0.0142812 0
M  V30 4808 H 479.903 3.49198 2.35878 0
M  V30 4809 H 478.627 2.24934 2.36796 0
M  V30 4810 H 477.286 3.59575 0.71424 0
M  V30 4811 H 476.934 3.9046 3.17097 0
M  V30 4812 H 476.634 5.41653 2.27784 0
M  V30 4813 H 478.158 5.20844 3.18675 0
M  V30 4814 H 479.572 5.65221 0.959085 0
M  V30 4815 H 477.969 5.99594 0.246466 0
M  V30 4816 H 479.039 4.8192 -0.536738 0
M  V30 4817 N 480.382 0.0267497 1.57577 0
M  V30 4818 C 481.798 -0.32962 1.56159 0
M  V30 4819 C 481.998 -1.73059 1.03213 0
M  V30 4820 O 481.054 -2.43233 0.677804 0
M  V30 4821 C 482.367 -0.18039 3.00158 0
M  V30 4822 C 483.915 -0.253334 3.11973 0
M  V30 4823 C 484.39 -0.132921 4.57807 0
M  V30 4824 N 485.881 -0.189979 4.6281 0
M  V30 4825 C 486.616 -0.120554 5.73273 0
M  V30 4826 N 486.112 -0.000180315 6.928 0
M  V30 4827 N 487.905 -0.174369 5.61829 0
M  V30 4828 H 480.056 0.942896 1.90324 0
M  V30 4829 H 482.319 0.3639 0.875375 0
M  V30 4830 H 482.025 0.784576 3.42837 0
M  V30 4831 H 481.899 -0.951565 3.65 0
M  V30 4832 H 484.286 -1.20876 2.69208 0
M  V30 4833 H 484.367 0.548177 2.49857 0
M  V30 4834 H 484.011 0.819073 5.01252 0
M  V30 4835 H 483.941 -0.953264 5.179 0
M  V30 4836 H 486.432 -0.283257 3.76837 0
M  V30 4837 H 486.745 0.0461666 7.72786 0
M  V30 4838 H 485.09 0.034569 6.94991 0
M  V30 4839 H 488.281 -0.266794 4.67339 0
M  V30 4840 H 488.454 -0.116802 6.47895 0
M  V30 4841 N 481.861 -1.55662 -0.24637 0
M  V30 4842 C 483.277 -1.48098 -0.594907 0
M  V30 4843 C 483.477 -0.717044 -1.8831 0
M  V30 4844 O 482.533 -0.246618 -2.51293 0
M  V30 4845 C 483.846 -2.92507 -0.697146 0
M  V30 4846 C 485.394 -3.02881 -0.789436 0
M  V30 4847 C 485.869 -4.48598 -0.923232 0
M  V30 4848 N 487.36 -4.52538 -0.988088 0
M  V30 4849 C 488.095 -5.62536 -1.11089 0
M  V30 4850 N 487.591 -6.82342 -1.19919 0
M  V30 4851 N 489.384 -5.50334 -1.14408 0
M  V30 4852 H 481.535 -2.0377 0.599278 0
M  V30 4853 H 483.798 -0.925145 0.20691 0
M  V30 4854 H 483.504 -3.51242 0.179396 0
M  V30 4855 H 483.378 -3.43024 -1.5689 0
M  V30 4856 H 485.765 -2.44226 -1.65643 0
M  V30 4857 H 485.846 -2.55574 0.107482 0
M  V30 4858 H 485.49 -5.07864 -0.0607927 0
M  V30 4859 H 485.42 -4.93587 -1.8352 0
M  V30 4860 H 487.911 -3.66248 -0.931167 0
M  V30 4861 H 488.224 -7.61924 -1.29197 0
M  V30 4862 H 486.569 -6.85102 -1.16876 0
M  V30 4863 H 489.76 -4.5567 -1.07158 0
M  V30 4864 H 489.933 -6.36096 -1.23634 0
M  V30 4865 N 483.339 0.512053 -1.4905 0
M  V30 4866 C 484.269 1.62365 -1.67809 0
M  V30 4867 C 485.25 1.61737 -0.526809 0
M  V30 4868 O 486.435 1.78651 -0.761404 0
M  V30 4869 C 483.565 3.00895 -1.73435 0
M  V30 4870 C 482.519 3.16387 -2.88242 0
M  V30 4871 C 481.845 4.56157 -2.78971 0
M  V30 4872 C 483.145 2.97457 -4.29321 0
M  V30 4873 H 484.839 1.46921 -2.60873 0
M  V30 4874 H 482.385 0.705379 -1.2554 0
M  V30 4875 H 484.338 3.78549 -1.85145 0
M  V30 4876 H 483.062 3.17403 -0.769619 0
M  V30 4877 H 481.721 2.41155 -2.76116 0
M  V30 4878 H 481.369 4.69525 -1.8043 0
M  V30 4879 H 481.069 4.67465 -3.5602 0
M  V30 4880 H 482.593 5.35886 -2.92675 0
M  V30 4881 H 484.007 3.64888 -4.42187 0
M  V30 4882 H 482.404 3.20245 -5.07507 0
M  V30 4883 H 483.474 1.93692 -4.44535 0
M  V30 4884 N 484.817 1.37938 0.762283 0
M  V30 4885 C 486.045 1.36883 1.55147 0
M  V30 4886 C 486.46 -0.0435348 1.8875 0
M  V30 4887 O 485.817 -1.00786 1.52146 0
M  V30 4888 C 485.868 2.21624 2.85596 0
M  V30 4889 O 485.589 3.57358 2.5343 0
M  V30 4890 C 487.09 2.28653 3.7978 0
M  V30 4891 H 484.31 0.468521 0.480343 0
M  V30 4892 H 486.854 1.81404 0.944079 0
M  V30 4893 H 485.009 1.80588 3.42734 0
M  V30 4894 H 485.423 4.01883 3.37032 0
M  V30 4895 H 486.897 2.9225 4.68288 0
M  V30 4896 H 487.374 1.29767 4.19592 0
M  V30 4897 H 487.98 2.70043 3.28568 0
M  V30 4898 N 486.295 -0.989507 1.22664 0
M  V30 4899 C 487.52 -1.77031 1.08051 0
M  V30 4900 C 487.945 -1.84535 -0.364483 0
M  V30 4901 O 487.303 -1.3003 -1.2634 0
M  V30 4902 C 487.351 -3.18 1.70024 0
M  V30 4903 O 486.455 -4.01161 0.956216 0
M  V30 4904 H 485.796 -0.545008 0.379292 0
M  V30 4905 H 488.326 -1.24277 1.62531 0
M  V30 4906 H 488.336 -3.68616 1.74888 0
M  V30 4907 H 487.011 -3.11853 2.75174 0
M  V30 4908 H 485.588 -3.59687 0.98384 0
M  V30 4909 N 487.773 -1.03688 -1.18687 0
M  V30 4910 C 488.721 -0.618292 -2.24232 0
M  V30 4911 C 489.715 0.353045 -1.6568 0
M  V30 4912 O 490.921 0.220749 -1.78641 0
M  V30 4913 H 487.296 -0.181711 -0.729716 0
M  V30 4914 H 489.267 -1.51893 -2.56848 0
M  V30 4915 C 488.016 0.00677342 -3.47699 0
M  V30 4916 H 487.339 -0.731692 -3.93047 0
M  V30 4917 H 488.779 0.262492 -4.23187 0
M  V30 4918 C 487.238 1.25572 -3.12623 0
M  V30 4919 O 487.768 2.34691 -3.26011 0
M  V30 4920 N 485.974 1.14755 -2.66982 0
M  V30 4921 H 485.521 0.259601 -2.56289 0
M  V30 4922 H 485.479 1.98412 -2.43885 0
M  V30 4923 O 489.29 1.30511 -0.951271 0
M  V30 4924 H 489.981 1.84711 -0.583235 0
M  V30 END ATOM
M  V30 BEGIN BOND
M  V30 END BOND
M  V30 END CTAB
M  END
$$$$
