drugbank_target|Q95460 Major histocompatibility complex class I-related gene protein (DB00098)
 OpenBabel12092120343D

  0  0  0     0  0            999 V3000
M  V30 BEGIN CTAB
M  V30 COUNTS 13345 14316 0 0 0
M  V30 BEGIN ATOM
M  V30 1 H -1.547 9.37743 -1.21644 0
M  V30 2 O -1.44 8.89599 -0.40059 0
M  V30 3 P 0 8.91 0 0
M  V30 4 O 0.22 10.1746 0.733838 0
M  V30 5 O 0.79 8.73346 -1.23964 0
M  V30 6 O 0.25 7.66872 0.971405 0
M  V30 7 C -0.69 7.42405 2.04668 0
M  V30 8 C 0.04 6.86059 3.24661 0
M  V30 9 O 0.25 5.42934 3.03695 0
M  V30 10 C 1.44 7.41287 3.50796 0
M  V30 11 O 1.83 7.27073 4.86816 0
M  V30 12 C 2.32 6.5273 2.63741 0
M  V30 13 C 1.61 5.1842 2.73198 0
M  V30 14 N 1.66 4.38762 1.4784 0
M  V30 15 H -1.178 8.36899 2.3252 0
M  V30 16 H -1.45 6.70391 1.71179 0
M  V30 17 H -0.582 7.03638 4.13219 0
M  V30 18 H 2.073 4.59931 3.54016 0
M  V30 19 H 2.353 6.88995 1.59871 0
M  V30 20 H 3.344 6.4684 3.0373 0
M  V30 21 H 1.51 8.47002 3.20749 0
M  V30 22 P 3.37998 7.20834 5.23717 0
M  V30 23 O 3.59998 7.79853 6.57286 0
M  V30 24 O 4.16998 7.79239 4.12957 0
M  V30 25 O 3.62998 5.63315 5.29344 0
M  V30 26 C 2.68998 4.80255 6.01876 0
M  V30 27 C 3.41998 3.64202 6.65911 0
M  V30 28 O 3.62998 2.60694 5.64732 0
M  V30 29 C 4.81998 3.93473 7.1943 0
M  V30 30 O 5.20998 3.02071 8.21205 0
M  V30 31 C 5.69998 3.73047 5.97036 0
M  V30 32 C 4.98998 2.58828 5.25741 0
M  V30 33 N 5.03998 2.68068 3.77503 0
M  V30 34 C 4.95998 3.79715 2.96723 0
M  V30 35 N 5.03998 3.5377 1.68852 0
M  V30 36 C 5.17998 2.15054 1.63254 0
M  V30 37 C 5.30998 1.28964 0.518571 0
M  V30 38 O 5.32998 1.56826 -0.679156 0
M  V30 39 N 5.42998 -0.0538097 0.918425 0
M  V30 40 C 5.42998 -0.494275 2.22578 0
M  V30 41 N 5.55998 -1.81086 2.40434 0
M  V30 42 N 5.29998 0.313645 3.27502 0
M  V30 43 C 5.17998 1.61829 2.91033 0
M  V30 44 H 2.20098 5.40332 6.79951 0
M  V30 45 H 1.93098 4.41613 5.32378 0
M  V30 46 H 2.79798 3.26331 7.47797 0
M  V30 47 H 5.45298 1.63422 5.56814 0
M  V30 48 H 5.73198 4.63374 5.34244 0
M  V30 49 H 6.72398 3.44728 6.25838 0
M  V30 50 H 4.88998 4.96652 7.57263 0
M  V30 51 H 4.84098 4.80617 3.3614 0
M  V30 52 H 5.52298 -0.742702 0.199384 0
M  V30 53 H 5.55998 -2.20598 3.35588 0
M  V30 54 H 5.66098 -2.43518 1.58945 0
M  V30 55 P 6.75996 2.75334 8.47391 0
M  V30 56 O 6.97996 2.44571 9.90142 0
M  V30 57 O 7.54996 3.87688 7.92115 0
M  V30 58 O 7.00996 1.4459 7.59357 0
M  V30 59 C 6.06996 0.347608 7.69215 0
M  V30 60 C 6.79996 -0.96767 7.52806 0
M  V30 61 O 7.00996 -1.21036 6.1011 0
M  V30 62 C 8.19996 -1.04544 8.13308 0
M  V30 63 O 8.58996 -2.38311 8.41922 0
M  V30 64 C 9.07996 -0.491279 7.02284 0
M  V30 65 C 8.36996 -0.996264 5.77469 0
M  V30 66 N 8.41996 -0.0501916 4.62973 0
M  V30 67 H 5.58096 0.374722 8.67691 0
M  V30 68 H 5.31096 0.443485 6.90277 0
M  V30 69 H 6.17796 -1.75537 7.96793 0
M  V30 70 P 10.1399 -2.75334 8.47391 0
M  V30 71 O 10.3599 -3.84128 9.44797 0
M  V30 72 O 10.9299 -1.51947 8.68712 0
M  V30 73 O 10.3899 -3.29363 6.99321 0
M  V30 74 C 9.44994 -4.24011 6.4274 0
M  V30 75 C 10.1799 -5.20775 5.52155 0
M  V30 76 O 10.3899 -4.56534 4.22446 0
M  V30 77 C 11.5799 -5.62629 5.96531 0
M  V30 78 O 11.9699 -6.87667 5.41053 0
M  V30 79 C 12.4599 -4.52537 5.39283 0
M  V30 80 C 11.7499 -4.20027 4.08623 0
M  V30 81 N 11.7999 -2.76189 3.71603 0
M  V30 82 H 8.96094 -4.797 7.24003 0
M  V30 83 H 8.69094 -3.69856 5.84513 0
M  V30 84 H 9.55794 -6.10356 5.41441 0
M  V30 85 P 13.5199 -7.20834 5.23717 0
M  V30 86 O 13.7399 -8.66274 5.38678 0
M  V30 87 O 14.3099 -6.33687 6.13629 0
M  V30 88 O 13.7699 -6.7751 3.72168 0
M  V30 89 C 12.8299 -7.20919 2.70795 0
M  V30 90 C 13.5599 -7.45864 1.40599 0
M  V30 91 O 13.7699 -6.17751 0.734343 0
M  V30 92 C 14.9599 -8.05906 1.51917 0
M  V30 93 O 15.3499 -8.74358 0.335205 0
M  V30 94 C 15.8399 -6.83093 1.70294 0
M  V30 95 C 15.1299 -5.79992 0.836974 0
M  V30 96 N 15.1799 -4.41864 1.38293 0
M  V30 97 H 12.3419 -8.13738 3.03804 0
M  V30 98 H 12.0699 -6.42974 2.55559 0
M  V30 99 H 12.9379 -8.12139 0.792866 0
M  V30 100 H 15.5929 -5.80178 -0.160643 0
M  V30 101 H 15.8729 -6.51379 2.75643 0
M  V30 102 H 16.8639 -7.01832 1.3448 0
M  V30 103 H 15.0299 -8.73771 2.38364 0
M  V30 104 P 16.8999 -8.91 1.09116e-15 0
M  V30 105 O 17.1199 -10.1746 -0.733838 0
M  V30 106 O 17.6899 -8.73346 1.23964 0
M  V30 107 O 17.1499 -7.66872 -0.971405 0
M  V30 108 C 16.2099 -7.42405 -2.04668 0
M  V30 109 C 16.9399 -6.86059 -3.24661 0
M  V30 110 O 17.1499 -5.42934 -3.03695 0
M  V30 111 C 18.3399 -7.41287 -3.50796 0
M  V30 112 O 18.7299 -7.27073 -4.86816 0
M  V30 113 C 19.2199 -6.5273 -2.63741 0
M  V30 114 C 18.5099 -5.1842 -2.73198 0
M  V30 115 N 18.5599 -4.38762 -1.4784 0
M  V30 116 C 18.4799 -4.83651 -0.183876 0
M  V30 117 N 18.5499 -3.88759 0.699393 0
M  V30 118 C 18.6999 -2.7404 -0.0575568 0
M  V30 119 C 18.8299 -1.37902 0.293928 0
M  V30 120 N 18.8399 -0.938021 1.54797 0
M  V30 121 N 18.9499 -0.491817 -0.70549 0
M  V30 122 C 18.9399 -0.931735 -1.95979 0
M  V30 123 N 18.8199 -2.16017 -2.41481 0
M  V30 124 C 18.6999 -3.02547 -1.39121 0
M  V30 125 H 15.7219 -8.36899 -2.3252 0
M  V30 126 H 15.4499 -6.70391 -1.71179 0
M  V30 127 H 16.3179 -7.03638 -4.13219 0
M  V30 128 H 18.9729 -4.59931 -3.54016 0
M  V30 129 H 19.2529 -6.88995 -1.59871 0
M  V30 130 H 20.2439 -6.4684 -3.0373 0
M  V30 131 H 18.4099 -8.47002 -3.20749 0
M  V30 132 H 18.3689 -5.8885 0.0765548 0
M  V30 133 H 18.7499 -1.60276 2.32875 0
M  V30 134 H 18.9389 0.0699355 1.73859 0
M  V30 135 H 19.0469 -0.165507 -2.71897 0
M  V30 136 P 20.2799 -7.20834 -5.23717 0
M  V30 137 O 20.4999 -7.79853 -6.57286 0
M  V30 138 O 21.0699 -7.79239 -4.12957 0
M  V30 139 O 20.5299 -5.63315 -5.29344 0
M  V30 140 C 19.5899 -4.80255 -6.01876 0
M  V30 141 C 20.3199 -3.64202 -6.65911 0
M  V30 142 O 20.5299 -2.60694 -5.64732 0
M  V30 143 C 21.7199 -3.93473 -7.1943 0
M  V30 144 O 22.1099 -3.02071 -8.21205 0
M  V30 145 C 22.5999 -3.73047 -5.97036 0
M  V30 146 C 21.8899 -2.58828 -5.25741 0
M  V30 147 N 21.9399 -2.68068 -3.77503 0
M  V30 148 H 19.1009 -5.40332 -6.79951 0
M  V30 149 H 18.8309 -4.41613 -5.32378 0
M  V30 150 H 19.6979 -3.26331 -7.47797 0
M  V30 151 P 23.6599 -2.75334 -8.47391 0
M  V30 152 O 23.8799 -2.44571 -9.90142 0
M  V30 153 O 24.4499 -3.87688 -7.92115 0
M  V30 154 O 23.9099 -1.4459 -7.59357 0
M  V30 155 C 22.9699 -0.347608 -7.69215 0
M  V30 156 C 23.6999 0.96767 -7.52806 0
M  V30 157 O 23.9099 1.21036 -6.1011 0
M  V30 158 C 25.0999 1.04544 -8.13308 0
M  V30 159 O 25.4899 2.38311 -8.41922 0
M  V30 160 C 25.9799 0.491279 -7.02284 0
M  V30 161 C 25.2699 0.996264 -5.77469 0
M  V30 162 N 25.3199 0.0501916 -4.62973 0
M  V30 163 H 22.4809 -0.374722 -8.67691 0
M  V30 164 H 22.2109 -0.443485 -6.90277 0
M  V30 165 H 23.0779 1.75537 -7.96793 0
M  V30 166 P 27.0398 2.75334 -8.47391 0
M  V30 167 O 27.2598 3.84128 -9.44797 0
M  V30 168 O 27.8298 1.51947 -8.68712 0
M  V30 169 O 27.2898 3.29363 -6.99321 0
M  V30 170 C 26.3498 4.24011 -6.4274 0
M  V30 171 C 27.0798 5.20775 -5.52155 0
M  V30 172 O 27.2898 4.56534 -4.22446 0
M  V30 173 C 28.4798 5.62629 -5.96531 0
M  V30 174 O 28.8698 6.87667 -5.41053 0
M  V30 175 C 29.3598 4.52537 -5.39283 0
M  V30 176 C 28.6498 4.20027 -4.08623 0
M  V30 177 N 28.6998 2.76189 -3.71603 0
M  V30 178 H 25.8608 4.797 -7.24003 0
M  V30 179 H 25.5908 3.69856 -5.84513 0
M  V30 180 H 26.4578 6.10356 -5.41441 0
M  V30 181 P 30.4198 7.20834 -5.23717 0
M  V30 182 O 30.6398 8.66104 -5.38572 0
M  V30 183 O 31.2098 6.33544 -6.1349 0
M  V30 184 O 30.6698 6.7751 -3.72168 0
M  V30 185 C 29.7298 7.20825 -2.7076 0
M  V30 186 C 30.4598 7.45864 -1.40599 0
M  V30 187 O 30.6698 6.17651 -0.734225 0
M  V30 188 C 31.8598 8.05808 -1.51899 0
M  V30 189 O 32.2498 8.74358 -0.335205 0
M  V30 190 C 32.7398 6.83093 -1.70294 0
M  V30 191 C 32.0298 5.79992 -0.836974 0
M  V30 192 N 32.0798 4.41864 -1.38293 0
M  V30 193 H 29.2408 8.13644 -3.0377 0
M  V30 194 H 28.9708 6.42788 -2.55485 0
M  V30 195 H 29.8378 8.12039 -0.792769 0
M  V30 196 P 33.7998 8.91 -2.18232e-15 0
M  V30 197 O 34.0198 10.1726 0.733694 0
M  V30 198 O 34.5898 8.73148 -1.23936 0
M  V30 199 O 34.0498 7.66872 0.971405 0
M  V30 200 C 33.1098 7.42309 2.04641 0
M  V30 201 C 33.8398 6.86059 3.24661 0
M  V30 202 O 34.0498 5.42847 3.03646 0
M  V30 203 C 35.2398 7.41196 3.50753 0
M  V30 204 O 35.6298 7.27073 4.86816 0
M  V30 205 C 36.1198 6.5273 2.63741 0
M  V30 206 C 35.4098 5.1842 2.73198 0
M  V30 207 N 35.4598 4.38762 1.4784 0
M  V30 208 H 32.6208 8.36803 2.32493 0
M  V30 209 H 32.3508 6.70197 1.71129 0
M  V30 210 H 33.2178 7.03551 4.13168 0
M  V30 211 P 37.1798 7.20834 5.23717 0
M  V30 212 O 37.3998 7.79853 6.57286 0
M  V30 213 O 37.9698 7.79239 4.12957 0
M  V30 214 O 37.4298 5.63315 5.29344 0
M  V30 215 C 36.4898 4.80255 6.01876 0
M  V30 216 C 37.2198 3.64202 6.65911 0
M  V30 217 O 37.4298 2.60694 5.64732 0
M  V30 218 C 38.6198 3.93473 7.1943 0
M  V30 219 O 39.0098 3.02071 8.21205 0
M  V30 220 C 39.4998 3.73047 5.97036 0
M  V30 221 C 38.7898 2.58828 5.25741 0
M  V30 222 N 38.8398 2.68068 3.77503 0
M  V30 223 H 36.0008 5.40332 6.79951 0
M  V30 224 H 35.7308 4.41613 5.32378 0
M  V30 225 H 36.5978 3.26331 7.47797 0
M  V30 226 P 40.5598 2.75334 8.47391 0
M  V30 227 O 40.7798 2.44571 9.90142 0
M  V30 228 O 41.3498 3.87688 7.92115 0
M  V30 229 O 40.8098 1.4459 7.59357 0
M  V30 230 C 39.8698 0.347608 7.69215 0
M  V30 231 C 40.5998 -0.96767 7.52806 0
M  V30 232 O 40.8098 -1.21036 6.1011 0
M  V30 233 C 41.9998 -1.04544 8.13308 0
M  V30 234 O 42.3898 -2.38311 8.41922 0
M  V30 235 C 42.8798 -0.491279 7.02284 0
M  V30 236 C 42.1698 -0.996264 5.77469 0
M  V30 237 N 42.2198 -0.0501916 4.62973 0
M  V30 238 H 39.3808 0.374722 8.67691 0
M  V30 239 H 39.1108 0.443485 6.90277 0
M  V30 240 H 39.9778 -1.75537 7.96793 0
M  V30 241 P 43.9397 -2.75334 8.47391 0
M  V30 242 O 44.1597 -3.84128 9.44797 0
M  V30 243 O 44.7297 -1.51947 8.68712 0
M  V30 244 O 44.1897 -3.29363 6.99321 0
M  V30 245 C 43.2497 -4.24011 6.4274 0
M  V30 246 C 43.9797 -5.20775 5.52155 0
M  V30 247 O 44.1897 -4.56534 4.22446 0
M  V30 248 C 45.3797 -5.62629 5.96531 0
M  V30 249 O 45.7697 -6.87667 5.41053 0
M  V30 250 C 46.2597 -4.52537 5.39283 0
M  V30 251 C 45.5497 -4.20027 4.08623 0
M  V30 252 N 45.5997 -2.76189 3.71603 0
M  V30 253 H 42.7607 -4.797 7.24003 0
M  V30 254 H 42.4907 -3.69856 5.84513 0
M  V30 255 H 43.3577 -6.10356 5.41441 0
M  V30 256 P 47.3197 -7.20834 5.23717 0
M  V30 257 O 47.5397 -8.66104 5.38572 0
M  V30 258 O 48.1097 -6.33544 6.1349 0
M  V30 259 O 47.5697 -6.7751 3.72168 0
M  V30 260 C 46.6297 -7.20825 2.7076 0
M  V30 261 C 47.3597 -7.45864 1.40599 0
M  V30 262 O 47.5697 -6.17651 0.734225 0
M  V30 263 C 48.7597 -8.05808 1.51899 0
M  V30 264 O 49.1497 -8.74358 0.335205 0
M  V30 265 C 49.6397 -6.83093 1.70294 0
M  V30 266 C 48.9297 -5.79992 0.836974 0
M  V30 267 N 48.9797 -4.41864 1.38293 0
M  V30 268 H 46.1407 -8.13644 3.0377 0
M  V30 269 H 45.8707 -6.42788 2.55485 0
M  V30 270 H 46.7377 -8.12039 0.792769 0
M  V30 271 P 50.6997 -8.91 3.27348e-15 0
M  V30 272 O 50.9197 -10.1746 -0.733838 0
M  V30 273 O 51.4897 -8.73346 1.23964 0
M  V30 274 O 50.9497 -7.66872 -0.971405 0
M  V30 275 C 50.0097 -7.42405 -2.04668 0
M  V30 276 C 50.7397 -6.86059 -3.24661 0
M  V30 277 O 50.9497 -5.42934 -3.03695 0
M  V30 278 C 52.1397 -7.41287 -3.50796 0
M  V30 279 O 52.5297 -7.27073 -4.86816 0
M  V30 280 C 53.0197 -6.5273 -2.63741 0
M  V30 281 C 52.3097 -5.1842 -2.73198 0
M  V30 282 N 52.3597 -4.38762 -1.4784 0
M  V30 283 H 49.5217 -8.36899 -2.3252 0
M  V30 284 H 49.2497 -6.70391 -1.71179 0
M  V30 285 H 50.1177 -7.03638 -4.13219 0
M  V30 286 H 52.7727 -4.59931 -3.54016 0
M  V30 287 H 53.0527 -6.88995 -1.59871 0
M  V30 288 H 54.0437 -6.4684 -3.0373 0
M  V30 289 H 52.2097 -8.47002 -3.20749 0
M  V30 290 P 54.0797 -7.20834 -5.23717 0
M  V30 291 O 54.2997 -7.79853 -6.57286 0
M  V30 292 O 54.8697 -7.79239 -4.12957 0
M  V30 293 O 54.3297 -5.63315 -5.29344 0
M  V30 294 C 53.3897 -4.80255 -6.01876 0
M  V30 295 C 54.1197 -3.64202 -6.65911 0
M  V30 296 O 54.3297 -2.60694 -5.64732 0
M  V30 297 C 55.5197 -3.93473 -7.1943 0
M  V30 298 O 55.9097 -3.02071 -8.21205 0
M  V30 299 C 56.3997 -3.73047 -5.97036 0
M  V30 300 C 55.6897 -2.58828 -5.25741 0
M  V30 301 N 55.7397 -2.68068 -3.77503 0
M  V30 302 H 52.9007 -5.40332 -6.79951 0
M  V30 303 H 52.6307 -4.41613 -5.32378 0
M  V30 304 H 53.4977 -3.26331 -7.47797 0
M  V30 305 P 57.4597 -2.75334 -8.47391 0
M  V30 306 O 57.6797 -2.44571 -9.90142 0
M  V30 307 O 58.2497 -3.87688 -7.92115 0
M  V30 308 O 57.7097 -1.4459 -7.59357 0
M  V30 309 C 56.7697 -0.347608 -7.69215 0
M  V30 310 C 57.4997 0.96767 -7.52806 0
M  V30 311 O 57.7097 1.21036 -6.1011 0
M  V30 312 C 58.8997 1.04544 -8.13308 0
M  V30 313 O 59.2897 2.38311 -8.41922 0
M  V30 314 C 59.7797 0.491279 -7.02284 0
M  V30 315 C 59.0697 0.996264 -5.77469 0
M  V30 316 N 59.1197 0.0501916 -4.62973 0
M  V30 317 H 56.2807 -0.374722 -8.67691 0
M  V30 318 H 56.0107 -0.443485 -6.90277 0
M  V30 319 H 56.8777 1.75537 -7.96793 0
M  V30 320 P 60.8396 2.75334 -8.47391 0
M  V30 321 O 61.0596 3.84204 -9.44982 0
M  V30 322 O 61.6296 1.51982 -8.68909 0
M  V30 323 O 61.0896 3.29363 -6.99321 0
M  V30 324 C 60.1496 4.24066 -6.42823 0
M  V30 325 C 60.8796 5.20775 -5.52155 0
M  V30 326 O 61.0896 4.56607 -4.22514 0
M  V30 327 C 62.2796 5.62697 -5.96604 0
M  V30 328 O 62.6696 6.87667 -5.41053 0
M  V30 329 C 63.1596 4.52537 -5.39283 0
M  V30 330 C 62.4496 4.20027 -4.08623 0
M  V30 331 N 62.4996 2.76189 -3.71603 0
M  V30 332 H 59.6616 4.79756 -7.24086 0
M  V30 333 H 59.3896 3.69963 -5.84682 0
M  V30 334 H 60.2576 6.10431 -5.41508 0
M  V30 335 H 62.9126 4.78816 -3.28024 0
M  V30 336 H 63.1926 3.64957 -6.05871 0
M  V30 337 H 64.1836 4.88748 -5.21323 0
M  V30 338 H 62.3496 5.66789 -7.0643 0
M  V30 339 P 64.2196 7.20834 -5.23717 0
M  V30 340 O 64.4396 8.66104 -5.38572 0
M  V30 341 O 65.0096 6.33544 -6.1349 0
M  V30 342 O 64.4696 6.7751 -3.72168 0
M  V30 343 C 63.5296 7.20825 -2.7076 0
M  V30 344 C 64.2596 7.45864 -1.40599 0
M  V30 345 O 64.4696 6.17651 -0.734225 0
M  V30 346 C 65.6596 8.05808 -1.51899 0
M  V30 347 O 66.0496 8.74358 -0.335205 0
M  V30 348 C 66.5396 6.83093 -1.70294 0
M  V30 349 C 65.8296 5.79992 -0.836974 0
M  V30 350 N 65.8796 4.41864 -1.38293 0
M  V30 351 H 63.0406 8.13644 -3.0377 0
M  V30 352 H 62.7706 6.42788 -2.55485 0
M  V30 353 H 63.6376 8.12039 -0.792769 0
M  V30 354 P 67.5996 8.91 -4.36464e-15 0
M  V30 355 O 67.8196 10.1726 0.733694 0
M  V30 356 O 68.3896 8.73148 -1.23936 0
M  V30 357 O 67.8496 7.66872 0.971405 0
M  V30 358 C 66.9096 7.42309 2.04641 0
M  V30 359 C 67.6396 6.86059 3.24661 0
M  V30 360 O 67.8496 5.42847 3.03646 0
M  V30 361 C 69.0396 7.41196 3.50753 0
M  V30 362 O 69.4296 7.27073 4.86816 0
M  V30 363 C 69.9196 6.5273 2.63741 0
M  V30 364 C 69.2096 5.1842 2.73198 0
M  V30 365 N 69.2596 4.38762 1.4784 0
M  V30 366 H 66.4206 8.36803 2.32493 0
M  V30 367 H 66.1506 6.70197 1.71129 0
M  V30 368 H 67.0176 7.03551 4.13168 0
M  V30 369 P 70.9796 7.20834 5.23717 0
M  V30 370 O 71.1996 7.79853 6.57286 0
M  V30 371 O 71.7696 7.79239 4.12957 0
M  V30 372 O 71.2296 5.63315 5.29344 0
M  V30 373 C 70.2896 4.80255 6.01876 0
M  V30 374 C 71.0196 3.64202 6.65911 0
M  V30 375 O 71.2296 2.60694 5.64732 0
M  V30 376 C 72.4196 3.93473 7.1943 0
M  V30 377 O 72.8096 3.02071 8.21205 0
M  V30 378 C 73.2996 3.73047 5.97036 0
M  V30 379 C 72.5896 2.58828 5.25741 0
M  V30 380 N 72.6396 2.68068 3.77503 0
M  V30 381 H 69.8006 5.40332 6.79951 0
M  V30 382 H 69.5306 4.41613 5.32378 0
M  V30 383 H 70.3976 3.26331 7.47797 0
M  V30 384 P 74.3596 2.75334 8.47391 0
M  V30 385 O 74.5796 2.44571 9.90142 0
M  V30 386 O 75.1496 3.87688 7.92115 0
M  V30 387 O 74.6096 1.4459 7.59357 0
M  V30 388 C 73.6696 0.347608 7.69215 0
M  V30 389 C 74.3996 -0.96767 7.52806 0
M  V30 390 O 74.6096 -1.21036 6.1011 0
M  V30 391 C 75.7996 -1.04544 8.13308 0
M  V30 392 O 76.1896 -2.38311 8.41922 0
M  V30 393 C 76.6796 -0.491279 7.02284 0
M  V30 394 C 75.9696 -0.996264 5.77469 0
M  V30 395 N 76.0196 -0.0501916 4.62973 0
M  V30 396 C 75.9396 1.32786 4.63244 0
M  V30 397 N 76.0196 1.86957 3.44545 0
M  V30 398 C 76.1596 0.780241 2.58481 0
M  V30 399 C 76.2896 0.738536 1.17757 0
M  V30 400 N 76.4096 -0.58337 0.711393 0
M  V30 401 C 76.4096 -1.70816 1.51017 0
M  V30 402 N 76.5396 -2.87826 0.880757 0
M  V30 403 N 76.2796 -1.67126 2.8339 0
M  V30 404 C 76.1596 -0.401421 3.30572 0
M  V30 405 H 73.1806 0.374722 8.67691 0
M  V30 406 H 72.9106 0.443485 6.90277 0
M  V30 407 H 73.7776 -1.75537 7.96793 0
M  V30 408 P 77.7395 -2.75334 8.47391 0
M  V30 409 O 77.9595 -3.84166 9.4489 0
M  V30 410 O 78.5295 -1.51964 8.6881 0
M  V30 411 O 77.9895 -3.29363 6.99321 0
M  V30 412 C 77.0495 -4.23956 6.42656 0
M  V30 413 C 77.7795 -5.20775 5.52155 0
M  V30 414 O 77.9895 -4.56534 4.22446 0
M  V30 415 C 79.1795 -5.62629 5.96531 0
M  V30 416 O 79.5695 -6.87667 5.41053 0
M  V30 417 C 80.0595 -4.52537 5.39283 0
M  V30 418 C 79.3495 -4.20027 4.08623 0
M  V30 419 N 79.3995 -2.7613 3.71522 0
M  V30 420 C 79.5495 -2.45612 2.37989 0
M  V30 421 O 79.6395 -3.30919 1.51621 0
M  V30 422 N 79.5895 -1.10684 2.08435 0
M  V30 423 C 79.4995 -0.0690084 2.9792 0
M  V30 424 O 79.5495 1.10553 2.59426 0
M  V30 425 C 79.3495 -0.481522 4.35345 0
M  V30 426 C 79.2395 0.618778 5.36443 0
M  V30 427 C 79.2995 -1.78906 4.67968 0
M  V30 428 H 76.5595 -4.797 7.24003 0
M  V30 429 H 76.2905 -3.69802 5.84429 0
M  V30 430 H 77.1575 -6.10356 5.41441 0
M  V30 431 H 79.8125 -4.78651 3.27911 0
M  V30 432 H 80.0915 -3.64957 6.05871 0
M  V30 433 H 81.0835 -4.8868 5.2125 0
M  V30 434 H 79.2495 -5.66726 7.06352 0
M  V30 435 H 79.1785 -2.07737 5.72367 0
M  V30 436 H 80.2085 0.754375 5.86871 0
M  V30 437 H 78.4715 0.359721 6.10641 0
M  V30 438 H 78.9595 1.55533 4.8581 0
M  V30 439 H 79.6955 -0.862651 1.12037 0
M  V30 440 P 81.1195 -7.20834 5.23717 0
M  V30 441 O 81.3395 -8.66274 5.38678 0
M  V30 442 O 81.9095 -6.33687 6.13629 0
M  V30 443 O 81.3695 -6.7751 3.72168 0
M  V30 444 C 80.4295 -7.20919 2.70795 0
M  V30 445 C 81.1595 -7.45864 1.40599 0
M  V30 446 O 81.3695 -6.17751 0.734343 0
M  V30 447 C 82.5595 -8.05906 1.51917 0
M  V30 448 O 82.9495 -8.74358 0.335205 0
M  V30 449 C 83.4395 -6.83093 1.70294 0
M  V30 450 C 82.7295 -5.79992 0.836974 0
M  V30 451 N 82.7795 -4.41864 1.38293 0
M  V30 452 H 79.9415 -8.13738 3.03804 0
M  V30 453 H 79.6695 -6.42974 2.55559 0
M  V30 454 H 80.5375 -8.12139 0.792866 0
M  V30 455 H 83.1925 -5.80178 -0.160643 0
M  V30 456 H 83.4725 -6.51379 2.75643 0
M  V30 457 H 84.4635 -7.01832 1.3448 0
M  V30 458 H 82.6295 -8.73771 2.38364 0
M  V30 459 P 84.4995 -8.91 5.4558e-15 0
M  V30 460 O 84.7195 -10.1726 -0.733694 0
M  V30 461 O 85.2895 -8.73148 1.23936 0
M  V30 462 O 84.7495 -7.66872 -0.971405 0
M  V30 463 C 83.8095 -7.42309 -2.04641 0
M  V30 464 C 84.5395 -6.86059 -3.24661 0
M  V30 465 O 84.7495 -5.42847 -3.03646 0
M  V30 466 C 85.9395 -7.41196 -3.50753 0
M  V30 467 O 86.3295 -7.27073 -4.86816 0
M  V30 468 C 86.8195 -6.5273 -2.63741 0
M  V30 469 C 86.1095 -5.1842 -2.73198 0
M  V30 470 N 86.1595 -4.38762 -1.4784 0
M  V30 471 H 83.3205 -8.36803 -2.32493 0
M  V30 472 H 83.0505 -6.70197 -1.71129 0
M  V30 473 H 83.9175 -7.03551 -4.13168 0
M  V30 474 P 87.8795 -7.20834 -5.23717 0
M  V30 475 O 88.0995 -7.79853 -6.57286 0
M  V30 476 O 88.6695 -7.79239 -4.12957 0
M  V30 477 O 88.1295 -5.63315 -5.29344 0
M  V30 478 C 87.1895 -4.80255 -6.01876 0
M  V30 479 C 87.9195 -3.64202 -6.65911 0
M  V30 480 O 88.1295 -2.60694 -5.64732 0
M  V30 481 C 89.3195 -3.93473 -7.1943 0
M  V30 482 O 89.7095 -3.02071 -8.21205 0
M  V30 483 C 90.1995 -3.73047 -5.97036 0
M  V30 484 C 89.4895 -2.58828 -5.25741 0
M  V30 485 N 89.5395 -2.68068 -3.77503 0
M  V30 486 H 86.7005 -5.40332 -6.79951 0
M  V30 487 H 86.4305 -4.41613 -5.32378 0
M  V30 488 H 87.2975 -3.26331 -7.47797 0
M  V30 489 P 91.2595 -2.75334 -8.47391 0
M  V30 490 O 91.4795 -2.44571 -9.90142 0
M  V30 491 O 92.0495 -3.87688 -7.92115 0
M  V30 492 O 91.5095 -1.4459 -7.59357 0
M  V30 493 C 90.5695 -0.347608 -7.69215 0
M  V30 494 C 91.2995 0.96767 -7.52806 0
M  V30 495 O 91.5095 1.21036 -6.1011 0
M  V30 496 C 92.6995 1.04544 -8.13308 0
M  V30 497 O 93.0895 2.38311 -8.41922 0
M  V30 498 C 93.5795 0.491279 -7.02284 0
M  V30 499 C 92.8695 0.996264 -5.77469 0
M  V30 500 N 92.9195 0.0501916 -4.62973 0
M  V30 501 C 92.8395 -1.32786 -4.63244 0
M  V30 502 N 92.9195 -1.86957 -3.44545 0
M  V30 503 C 93.0595 -0.780241 -2.58481 0
M  V30 504 C 93.1895 -0.738536 -1.17757 0
M  V30 505 N 93.3095 0.58337 -0.711393 0
M  V30 506 C 93.3095 1.70816 -1.51017 0
M  V30 507 N 93.4395 2.87826 -0.880757 0
M  V30 508 N 93.1795 1.67126 -2.8339 0
M  V30 509 C 93.0595 0.401421 -3.30572 0
M  V30 510 H 90.0805 -0.374722 -8.67691 0
M  V30 511 H 89.8105 -0.443485 -6.90277 0
M  V30 512 H 90.6775 1.75537 -7.96793 0
M  V30 513 P 94.6394 2.75334 -8.47391 0
M  V30 514 O 94.8594 3.84166 -9.4489 0
M  V30 515 O 95.4294 1.51964 -8.6881 0
M  V30 516 O 94.8894 3.29363 -6.99321 0
M  V30 517 C 93.9494 4.23956 -6.42656 0
M  V30 518 C 94.6794 5.20775 -5.52155 0
M  V30 519 O 94.8894 4.56534 -4.22446 0
M  V30 520 C 96.0794 5.62629 -5.96531 0
M  V30 521 O 96.4694 6.87667 -5.41053 0
M  V30 522 C 96.9594 4.52537 -5.39283 0
M  V30 523 C 96.2494 4.20027 -4.08623 0
M  V30 524 N 96.2994 2.7613 -3.71522 0
M  V30 525 C 96.4494 2.45612 -2.37989 0
M  V30 526 O 96.5394 3.30919 -1.51621 0
M  V30 527 N 96.4894 1.10684 -2.08435 0
M  V30 528 C 96.3994 0.0690084 -2.9792 0
M  V30 529 C 96.2494 0.481522 -4.35345 0
M  V30 530 C 96.1994 1.78906 -4.67968 0
M  V30 531 H 93.4594 4.797 -7.24003 0
M  V30 532 H 93.1904 3.69802 -5.84429 0
M  V30 533 H 94.0574 6.10356 -5.41441 0
M  V30 534 H 96.7124 4.78651 -3.27911 0
M  V30 535 H 96.9914 3.64957 -6.05871 0
M  V30 536 H 97.9834 4.8868 -5.2125 0
M  V30 537 H 96.1494 5.66726 -7.06352 0
M  V30 538 H 96.0784 2.07737 -5.72367 0
M  V30 539 P 98.0194 7.20834 -5.23717 0
M  V30 540 O 98.2394 8.66104 -5.38572 0
M  V30 541 O 98.8094 6.33544 -6.1349 0
M  V30 542 O 98.2694 6.7751 -3.72168 0
M  V30 543 C 97.3294 7.20825 -2.7076 0
M  V30 544 C 98.0594 7.45864 -1.40599 0
M  V30 545 O 98.2694 6.17651 -0.734225 0
M  V30 546 C 99.4594 8.05808 -1.51899 0
M  V30 547 O 99.8494 8.74358 -0.335205 0
M  V30 548 C 100.339 6.83093 -1.70294 0
M  V30 549 C 99.6294 5.79992 -0.836974 0
M  V30 550 N 99.6794 4.41864 -1.38293 0
M  V30 551 H 96.8404 8.13644 -3.0377 0
M  V30 552 H 96.5704 6.42788 -2.55485 0
M  V30 553 H 97.4374 8.12039 -0.792769 0
M  V30 554 P 101.399 8.91 -6.54696e-15 0
M  V30 555 O 101.619 10.1726 0.733694 0
M  V30 556 O 102.189 8.73148 -1.23936 0
M  V30 557 O 101.649 7.66872 0.971405 0
M  V30 558 C 100.709 7.42309 2.04641 0
M  V30 559 C 101.439 6.86059 3.24661 0
M  V30 560 O 101.649 5.42847 3.03646 0
M  V30 561 C 102.839 7.41196 3.50753 0
M  V30 562 O 103.229 7.27073 4.86816 0
M  V30 563 C 103.719 6.5273 2.63741 0
M  V30 564 C 103.009 5.1842 2.73198 0
M  V30 565 N 103.059 4.38762 1.4784 0
M  V30 566 C 102.979 4.81605 0.168631 0
M  V30 567 N 103.059 3.85454 -0.713363 0
M  V30 568 C 103.199 2.6994 0.0566958 0
M  V30 569 C 103.329 1.34815 -0.338502 0
M  V30 570 N 103.449 0.496304 0.77465 0
M  V30 571 C 103.449 0.908403 2.09122 0
M  V30 572 N 103.579 -0.0517805 3.00955 0
M  V30 573 N 103.319 2.17875 2.46519 0
M  V30 574 C 103.199 3.01988 1.4033 0
M  V30 575 H 100.22 8.36803 2.32493 0
M  V30 576 H 99.9504 6.70197 1.71129 0
M  V30 577 H 100.817 7.03551 4.13168 0
M  V30 578 P 104.779 7.20834 5.23717 0
M  V30 579 O 104.999 7.79853 6.57286 0
M  V30 580 O 105.569 7.79239 4.12957 0
M  V30 581 O 105.029 5.63315 5.29344 0
M  V30 582 C 104.089 4.80255 6.01876 0
M  V30 583 C 104.819 3.64202 6.65911 0
M  V30 584 O 105.029 2.60694 5.64732 0
M  V30 585 C 106.219 3.93473 7.1943 0
M  V30 586 O 106.609 3.02071 8.21205 0
M  V30 587 C 107.099 3.73047 5.97036 0
M  V30 588 C 106.389 2.58828 5.25741 0
M  V30 589 N 106.439 2.68068 3.77503 0
M  V30 590 H 103.6 5.40332 6.79951 0
M  V30 591 H 103.33 4.41613 5.32378 0
M  V30 592 H 104.197 3.26331 7.47797 0
M  V30 593 P 108.159 2.75334 8.47391 0
M  V30 594 O 108.379 2.44571 9.90142 0
M  V30 595 O 108.949 3.87688 7.92115 0
M  V30 596 O 108.409 1.4459 7.59357 0
M  V30 597 C 107.469 0.347608 7.69215 0
M  V30 598 C 108.199 -0.96767 7.52806 0
M  V30 599 O 108.409 -1.21036 6.1011 0
M  V30 600 C 109.599 -1.04544 8.13308 0
M  V30 601 O 109.989 -2.38311 8.41922 0
M  V30 602 C 110.479 -0.491279 7.02284 0
M  V30 603 C 109.769 -0.996264 5.77469 0
M  V30 604 N 109.819 -0.0501916 4.62973 0
M  V30 605 C 109.739 1.32786 4.63244 0
M  V30 606 N 109.819 1.86957 3.44545 0
M  V30 607 C 109.959 0.780241 2.58481 0
M  V30 608 C 110.089 0.738536 1.17757 0
M  V30 609 O 110.109 1.66794 0.372349 0
M  V30 610 N 110.209 -0.58337 0.711393 0
M  V30 611 C 110.209 -1.70816 1.51017 0
M  V30 612 N 110.339 -2.87826 0.880757 0
M  V30 613 N 110.079 -1.67126 2.8339 0
M  V30 614 C 109.959 -0.401421 3.30572 0
M  V30 615 H 106.98 0.374722 8.67691 0
M  V30 616 H 106.71 0.443485 6.90277 0
M  V30 617 H 107.577 -1.75537 7.96793 0
M  V30 618 H 110.232 -1.95076 5.46529 0
M  V30 619 H 110.511 0.608565 7.04577 0
M  V30 620 H 111.503 -0.889672 7.08939 0
M  V30 621 H 109.669 -0.43308 9.04564 0
M  V30 622 H 109.62 1.91249 5.54442 0
M  V30 623 H 110.302 -0.718054 -0.275244 0
M  V30 624 H 110.339 -3.75721 1.41832 0
M  V30 625 H 110.44 -2.90436 -0.145468 0
M  V30 626 P 111.539 -2.75334 8.47391 0
M  V30 627 O 111.759 -3.84128 9.44797 0
M  V30 628 O 112.329 -1.51947 8.68712 0
M  V30 629 O 111.789 -3.29363 6.99321 0
M  V30 630 C 110.849 -4.24011 6.4274 0
M  V30 631 C 111.579 -5.20775 5.52155 0
M  V30 632 O 111.789 -4.56534 4.22446 0
M  V30 633 C 112.979 -5.62629 5.96531 0
M  V30 634 O 113.369 -6.87667 5.41053 0
M  V30 635 C 113.859 -4.52537 5.39283 0
M  V30 636 C 113.149 -4.20027 4.08623 0
M  V30 637 N 113.199 -2.76189 3.71603 0
M  V30 638 H 110.36 -4.797 7.24003 0
M  V30 639 H 110.09 -3.69856 5.84513 0
M  V30 640 H 110.957 -6.10356 5.41441 0
M  V30 641 P 114.919 -7.20834 5.23717 0
M  V30 642 O 115.139 -8.66104 5.38572 0
M  V30 643 O 115.709 -6.33544 6.1349 0
M  V30 644 O 115.169 -6.7751 3.72168 0
M  V30 645 C 114.229 -7.20825 2.7076 0
M  V30 646 C 114.959 -7.45864 1.40599 0
M  V30 647 O 115.169 -6.17651 0.734225 0
M  V30 648 C 116.359 -8.05808 1.51899 0
M  V30 649 O 116.749 -8.74358 0.335205 0
M  V30 650 C 117.239 -6.83093 1.70294 0
M  V30 651 C 116.529 -5.79992 0.836974 0
M  V30 652 N 116.579 -4.41864 1.38293 0
M  V30 653 H 113.74 -8.13644 3.0377 0
M  V30 654 H 113.47 -6.42788 2.55485 0
M  V30 655 H 114.337 -8.12039 0.792769 0
M  V30 656 P 118.299 -8.91 7.63812e-15 0
M  V30 657 O 118.519 -10.1726 -0.733694 0
M  V30 658 O 119.089 -8.73148 1.23936 0
M  V30 659 O 118.549 -7.66872 -0.971405 0
M  V30 660 C 117.609 -7.42309 -2.04641 0
M  V30 661 C 118.339 -6.86059 -3.24661 0
M  V30 662 O 118.549 -5.42847 -3.03646 0
M  V30 663 C 119.739 -7.41196 -3.50753 0
M  V30 664 O 120.129 -7.27073 -4.86816 0
M  V30 665 C 120.619 -6.5273 -2.63741 0
M  V30 666 C 119.909 -5.1842 -2.73198 0
M  V30 667 N 119.959 -4.38762 -1.4784 0
M  V30 668 H 117.12 -8.36803 -2.32493 0
M  V30 669 H 116.85 -6.70197 -1.71129 0
M  V30 670 H 117.717 -7.03551 -4.13168 0
M  V30 671 P 121.679 -7.20834 -5.23717 0
M  V30 672 O 121.899 -7.79853 -6.57286 0
M  V30 673 O 122.469 -7.79239 -4.12957 0
M  V30 674 O 121.929 -5.63315 -5.29344 0
M  V30 675 C 120.989 -4.80255 -6.01876 0
M  V30 676 C 121.719 -3.64202 -6.65911 0
M  V30 677 O 121.929 -2.60694 -5.64732 0
M  V30 678 C 123.119 -3.93473 -7.1943 0
M  V30 679 O 123.509 -3.02071 -8.21205 0
M  V30 680 C 123.999 -3.73047 -5.97036 0
M  V30 681 C 123.289 -2.58828 -5.25741 0
M  V30 682 N 123.339 -2.68068 -3.77503 0
M  V30 683 H 120.5 -5.40332 -6.79951 0
M  V30 684 H 120.23 -4.41613 -5.32378 0
M  V30 685 H 121.097 -3.26331 -7.47797 0
M  V30 686 P 125.059 -2.75334 -8.47391 0
M  V30 687 O 125.279 -2.44571 -9.90142 0
M  V30 688 O 125.849 -3.87688 -7.92115 0
M  V30 689 O 125.309 -1.4459 -7.59357 0
M  V30 690 C 124.369 -0.347608 -7.69215 0
M  V30 691 C 125.099 0.96767 -7.52806 0
M  V30 692 O 125.309 1.21036 -6.1011 0
M  V30 693 C 126.499 1.04544 -8.13308 0
M  V30 694 O 126.889 2.38311 -8.41922 0
M  V30 695 C 127.379 0.491279 -7.02284 0
M  V30 696 C 126.669 0.996264 -5.77469 0
M  V30 697 N 126.719 0.0501916 -4.62973 0
M  V30 698 H 123.88 -0.374722 -8.67691 0
M  V30 699 H 123.61 -0.443485 -6.90277 0
M  V30 700 H 124.477 1.75537 -7.96793 0
M  V30 701 P 128.439 2.75334 -8.47391 0
M  V30 702 O 128.659 3.84204 -9.44982 0
M  V30 703 O 129.229 1.51982 -8.68909 0
M  V30 704 O 128.689 3.29363 -6.99321 0
M  V30 705 C 127.749 4.24066 -6.42823 0
M  V30 706 C 128.479 5.20775 -5.52155 0
M  V30 707 O 128.689 4.56607 -4.22514 0
M  V30 708 C 129.879 5.62697 -5.96604 0
M  V30 709 O 130.269 6.87667 -5.41053 0
M  V30 710 C 130.759 4.52537 -5.39283 0
M  V30 711 C 130.049 4.20027 -4.08623 0
M  V30 712 N 130.099 2.76189 -3.71603 0
M  V30 713 H 127.261 4.79756 -7.24086 0
M  V30 714 H 126.989 3.69963 -5.84682 0
M  V30 715 H 127.857 6.10431 -5.41508 0
M  V30 716 H 130.512 4.78816 -3.28024 0
M  V30 717 H 130.792 3.64957 -6.05871 0
M  V30 718 H 131.783 4.88748 -5.21323 0
M  V30 719 H 129.949 5.66789 -7.0643 0
M  V30 720 P 131.819 7.20834 -5.23717 0
M  V30 721 O 132.039 8.66104 -5.38572 0
M  V30 722 O 132.609 6.33544 -6.1349 0
M  V30 723 O 132.069 6.7751 -3.72168 0
M  V30 724 C 131.129 7.20825 -2.7076 0
M  V30 725 C 131.859 7.45864 -1.40599 0
M  V30 726 O 132.069 6.17651 -0.734225 0
M  V30 727 C 133.259 8.05808 -1.51899 0
M  V30 728 O 133.649 8.74358 -0.335205 0
M  V30 729 C 134.139 6.83093 -1.70294 0
M  V30 730 C 133.429 5.79992 -0.836974 0
M  V30 731 N 133.479 4.41864 -1.38293 0
M  V30 732 C 133.399 3.99538 -2.69438 0
M  V30 733 N 133.479 2.69909 -2.84277 0
M  V30 734 C 133.619 2.21719 -1.5408 0
M  V30 735 C 133.749 0.891712 -1.06628 0
M  V30 736 O 133.769 -0.161298 -1.70137 0
M  V30 737 N 133.869 0.856846 0.334985 0
M  V30 738 C 133.869 1.9641 1.15789 0
M  V30 739 N 133.999 1.72708 2.46522 0
M  V30 740 N 133.739 3.21165 0.713741 0
M  V30 741 C 133.619 3.26797 -0.639748 0
M  V30 742 H 130.64 8.13644 -3.0377 0
M  V30 743 H 130.37 6.42788 -2.55485 0
M  V30 744 H 131.237 8.12039 -0.792769 0
M  V30 745 H 133.892 5.80061 0.166416 0
M  V30 746 H 134.171 6.51287 -2.75604 0
M  V30 747 H 135.163 7.01734 -1.34462 0
M  V30 748 H 133.329 8.73674 -2.38337 0
M  V30 749 H 133.28 4.68207 -3.53221 0
M  V30 750 H 133.962 -0.0398818 0.767965 0
M  V30 751 H 133.999 2.50995 3.13503 0
M  V30 752 H 134.1 0.759148 2.80716 0
M  V30 753 P 135.199 8.91 -8.72928e-15 0
M  V30 754 O 135.419 10.1726 0.733694 0
M  V30 755 O 135.989 8.73148 -1.23936 0
M  V30 756 O 135.449 7.66872 0.971405 0
M  V30 757 C 134.509 7.42309 2.04641 0
M  V30 758 C 135.239 6.86059 3.24661 0
M  V30 759 O 135.449 5.42847 3.03646 0
M  V30 760 C 136.639 7.41196 3.50753 0
M  V30 761 O 137.029 7.27073 4.86816 0
M  V30 762 C 137.519 6.5273 2.63741 0
M  V30 763 C 136.809 5.1842 2.73198 0
M  V30 764 N 136.859 4.38762 1.4784 0
M  V30 765 H 134.02 8.36803 2.32493 0
M  V30 766 H 133.75 6.70197 1.71129 0
M  V30 767 H 134.617 7.03551 4.13168 0
M  V30 768 P 138.579 7.20834 5.23717 0
M  V30 769 O 138.799 7.79853 6.57286 0
M  V30 770 O 139.369 7.79239 4.12957 0
M  V30 771 O 138.829 5.63315 5.29344 0
M  V30 772 C 137.889 4.80255 6.01876 0
M  V30 773 C 138.619 3.64202 6.65911 0
M  V30 774 O 138.829 2.60694 5.64732 0
M  V30 775 C 140.019 3.93473 7.1943 0
M  V30 776 O 140.409 3.02071 8.21205 0
M  V30 777 C 140.899 3.73047 5.97036 0
M  V30 778 C 140.189 2.58828 5.25741 0
M  V30 779 N 140.239 2.68068 3.77503 0
M  V30 780 H 137.4 5.40332 6.79951 0
M  V30 781 H 137.13 4.41613 5.32378 0
M  V30 782 H 137.997 3.26331 7.47797 0
M  V30 783 P 141.959 2.75334 8.47391 0
M  V30 784 O 142.179 2.44571 9.90142 0
M  V30 785 O 142.749 3.87688 7.92115 0
M  V30 786 O 142.209 1.4459 7.59357 0
M  V30 787 C 141.269 0.347608 7.69215 0
M  V30 788 C 141.999 -0.96767 7.52806 0
M  V30 789 O 142.209 -1.21036 6.1011 0
M  V30 790 C 143.399 -1.04544 8.13308 0
M  V30 791 O 143.789 -2.38311 8.41922 0
M  V30 792 C 144.279 -0.491279 7.02284 0
M  V30 793 C 143.569 -0.996264 5.77469 0
M  V30 794 N 143.619 -0.0501916 4.62973 0
M  V30 795 H 140.78 0.374722 8.67691 0
M  V30 796 H 140.51 0.443485 6.90277 0
M  V30 797 H 141.377 -1.75537 7.96793 0
M  V30 798 P 145.339 -2.75334 8.47391 0
M  V30 799 O 145.559 -3.84128 9.44797 0
M  V30 800 O 146.129 -1.51947 8.68712 0
M  V30 801 O 145.589 -3.29363 6.99321 0
M  V30 802 C 144.649 -4.24011 6.4274 0
M  V30 803 C 145.379 -5.20775 5.52155 0
M  V30 804 O 145.589 -4.56534 4.22446 0
M  V30 805 C 146.779 -5.62629 5.96531 0
M  V30 806 O 147.169 -6.87667 5.41053 0
M  V30 807 C 147.659 -4.52537 5.39283 0
M  V30 808 C 146.949 -4.20027 4.08623 0
M  V30 809 N 146.999 -2.76189 3.71603 0
M  V30 810 H 144.16 -4.797 7.24003 0
M  V30 811 H 143.89 -3.69856 5.84513 0
M  V30 812 H 144.757 -6.10356 5.41441 0
M  V30 813 P 148.719 -7.20834 5.23717 0
M  V30 814 O 148.939 -8.66104 5.38572 0
M  V30 815 O 149.509 -6.33544 6.1349 0
M  V30 816 O 148.969 -6.7751 3.72168 0
M  V30 817 C 148.029 -7.20825 2.7076 0
M  V30 818 C 148.759 -7.45864 1.40599 0
M  V30 819 O 148.969 -6.17651 0.734225 0
M  V30 820 C 150.159 -8.05808 1.51899 0
M  V30 821 O 150.549 -8.74358 0.335205 0
M  V30 822 C 151.039 -6.83093 1.70294 0
M  V30 823 C 150.329 -5.79992 0.836974 0
M  V30 824 N 150.379 -4.41864 1.38293 0
M  V30 825 H 147.54 -8.13644 3.0377 0
M  V30 826 H 147.27 -6.42788 2.55485 0
M  V30 827 H 148.137 -8.12039 0.792769 0
M  V30 828 P 152.099 -8.91 9.82044e-15 0
M  V30 829 O 152.319 -10.1726 -0.733694 0
M  V30 830 O 152.889 -8.73148 1.23936 0
M  V30 831 O 152.349 -7.66872 -0.971405 0
M  V30 832 C 151.409 -7.42309 -2.04641 0
M  V30 833 C 152.139 -6.86059 -3.24661 0
M  V30 834 O 152.349 -5.42847 -3.03646 0
M  V30 835 C 153.539 -7.41196 -3.50753 0
M  V30 836 O 153.929 -7.27073 -4.86816 0
M  V30 837 C 154.419 -6.5273 -2.63741 0
M  V30 838 C 153.709 -5.1842 -2.73198 0
M  V30 839 N 153.759 -4.38762 -1.4784 0
M  V30 840 H 150.92 -8.36803 -2.32493 0
M  V30 841 H 150.65 -6.70197 -1.71129 0
M  V30 842 H 151.517 -7.03551 -4.13168 0
M  V30 843 P 155.479 -7.20834 -5.23717 0
M  V30 844 O 155.699 -7.79853 -6.57286 0
M  V30 845 O 156.269 -7.79239 -4.12957 0
M  V30 846 O 155.729 -5.63315 -5.29344 0
M  V30 847 C 154.789 -4.80255 -6.01876 0
M  V30 848 C 155.519 -3.64202 -6.65911 0
M  V30 849 O 155.729 -2.60694 -5.64732 0
M  V30 850 C 156.919 -3.93473 -7.1943 0
M  V30 851 O 157.309 -3.02071 -8.21205 0
M  V30 852 C 157.799 -3.73047 -5.97036 0
M  V30 853 C 157.089 -2.58828 -5.25741 0
M  V30 854 N 157.139 -2.68068 -3.77503 0
M  V30 855 H 154.3 -5.40332 -6.79951 0
M  V30 856 H 154.03 -4.41613 -5.32378 0
M  V30 857 H 154.897 -3.26331 -7.47797 0
M  V30 858 P 158.859 -2.75334 -8.47391 0
M  V30 859 O 159.079 -2.44571 -9.90142 0
M  V30 860 O 159.649 -3.87688 -7.92115 0
M  V30 861 O 159.109 -1.4459 -7.59357 0
M  V30 862 C 158.169 -0.347608 -7.69215 0
M  V30 863 C 158.899 0.96767 -7.52806 0
M  V30 864 O 159.109 1.21036 -6.1011 0
M  V30 865 C 160.299 1.04544 -8.13308 0
M  V30 866 O 160.689 2.38311 -8.41922 0
M  V30 867 C 161.179 0.491279 -7.02284 0
M  V30 868 C 160.469 0.996264 -5.77469 0
M  V30 869 N 160.519 0.0501916 -4.62973 0
M  V30 870 C 160.439 -1.32786 -4.63244 0
M  V30 871 N 160.519 -1.86957 -3.44545 0
M  V30 872 C 160.659 -0.780241 -2.58481 0
M  V30 873 C 160.789 -0.738536 -1.17757 0
M  V30 874 O 160.809 -1.66794 -0.372349 0
M  V30 875 N 160.909 0.58337 -0.711393 0
M  V30 876 C 160.909 1.70816 -1.51017 0
M  V30 877 N 161.039 2.87826 -0.880757 0
M  V30 878 N 160.779 1.67126 -2.8339 0
M  V30 879 C 160.659 0.401421 -3.30572 0
M  V30 880 H 157.68 -0.374722 -8.67691 0
M  V30 881 H 157.41 -0.443485 -6.90277 0
M  V30 882 H 158.277 1.75537 -7.96793 0
M  V30 883 H 160.932 1.95076 -5.46529 0
M  V30 884 H 161.211 -0.608565 -7.04577 0
M  V30 885 H 162.203 0.889672 -7.08939 0
M  V30 886 H 160.369 0.43308 -9.04564 0
M  V30 887 H 160.32 -1.91249 -5.54442 0
M  V30 888 H 161.002 0.718054 0.275244 0
M  V30 889 H 161.039 3.75721 -1.41832 0
M  V30 890 H 161.14 2.90436 0.145468 0
M  V30 891 P 162.239 2.75334 -8.47391 0
M  V30 892 O 162.459 3.84166 -9.4489 0
M  V30 893 O 163.029 1.51964 -8.6881 0
M  V30 894 O 162.489 3.29363 -6.99321 0
M  V30 895 C 161.549 4.23956 -6.42656 0
M  V30 896 C 162.279 5.20775 -5.52155 0
M  V30 897 O 162.489 4.56534 -4.22446 0
M  V30 898 C 163.679 5.62629 -5.96531 0
M  V30 899 O 164.069 6.87667 -5.41053 0
M  V30 900 C 164.559 4.52537 -5.39283 0
M  V30 901 C 163.849 4.20027 -4.08623 0
M  V30 902 N 163.899 2.7613 -3.71522 0
M  V30 903 C 164.049 2.45612 -2.37989 0
M  V30 904 O 164.139 3.30919 -1.51621 0
M  V30 905 N 164.089 1.10684 -2.08435 0
M  V30 906 C 163.999 0.0690084 -2.9792 0
M  V30 907 C 163.849 0.481522 -4.35345 0
M  V30 908 C 163.799 1.78906 -4.67968 0
M  V30 909 H 161.059 4.797 -7.24003 0
M  V30 910 H 160.79 3.69802 -5.84429 0
M  V30 911 H 161.657 6.10356 -5.41441 0
M  V30 912 H 164.312 4.78651 -3.27911 0
M  V30 913 H 164.591 3.64957 -6.05871 0
M  V30 914 H 165.583 4.8868 -5.2125 0
M  V30 915 H 163.749 5.66726 -7.06352 0
M  V30 916 H 163.678 2.07737 -5.72367 0
M  V30 917 P 165.619 7.20834 -5.23717 0
M  V30 918 O 165.839 8.66104 -5.38572 0
M  V30 919 O 166.409 6.33544 -6.1349 0
M  V30 920 O 165.869 6.7751 -3.72168 0
M  V30 921 C 164.929 7.20825 -2.7076 0
M  V30 922 C 165.659 7.45864 -1.40599 0
M  V30 923 O 165.869 6.17651 -0.734225 0
M  V30 924 C 167.059 8.05808 -1.51899 0
M  V30 925 O 167.449 8.74358 -0.335205 0
M  V30 926 C 167.939 6.83093 -1.70294 0
M  V30 927 C 167.229 5.79992 -0.836974 0
M  V30 928 N 167.279 4.41864 -1.38293 0
M  V30 929 H 164.44 8.13644 -3.0377 0
M  V30 930 H 164.17 6.42788 -2.55485 0
M  V30 931 H 165.037 8.12039 -0.792769 0
M  V30 932 P 168.999 8.91 -1.09116e-14 0
M  V30 933 O 169.219 10.1726 0.733694 0
M  V30 934 O 169.789 8.73148 -1.23936 0
M  V30 935 O 169.249 7.66872 0.971405 0
M  V30 936 C 168.309 7.42309 2.04641 0
M  V30 937 C 169.039 6.86059 3.24661 0
M  V30 938 O 169.249 5.42847 3.03646 0
M  V30 939 C 170.439 7.41196 3.50753 0
M  V30 940 O 170.829 7.27073 4.86816 0
M  V30 941 C 171.319 6.5273 2.63741 0
M  V30 942 C 170.609 5.1842 2.73198 0
M  V30 943 N 170.659 4.38762 1.4784 0
M  V30 944 H 167.82 8.36803 2.32493 0
M  V30 945 H 167.55 6.70197 1.71129 0
M  V30 946 H 168.417 7.03551 4.13168 0
M  V30 947 P 172.379 7.20834 5.23717 0
M  V30 948 O 172.599 7.79853 6.57286 0
M  V30 949 O 173.169 7.79239 4.12957 0
M  V30 950 O 172.629 5.63315 5.29344 0
M  V30 951 C 171.689 4.80255 6.01876 0
M  V30 952 C 172.419 3.64202 6.65911 0
M  V30 953 O 172.629 2.60694 5.64732 0
M  V30 954 C 173.819 3.93473 7.1943 0
M  V30 955 O 174.209 3.02071 8.21205 0
M  V30 956 C 174.699 3.73047 5.97036 0
M  V30 957 C 173.989 2.58828 5.25741 0
M  V30 958 N 174.039 2.68068 3.77503 0
M  V30 959 H 171.2 5.40332 6.79951 0
M  V30 960 H 170.93 4.41613 5.32378 0
M  V30 961 H 171.797 3.26331 7.47797 0
M  V30 962 P 175.759 2.75334 8.47391 0
M  V30 963 O 175.979 2.44619 9.90336 0
M  V30 964 O 176.549 3.87776 7.92294 0
M  V30 965 O 176.009 1.4459 7.59357 0
M  V30 966 C 175.069 0.347653 7.69315 0
M  V30 967 C 175.799 -0.96767 7.52806 0
M  V30 968 O 176.009 -1.21055 6.10208 0
M  V30 969 C 177.199 -1.04557 8.13408 0
M  V30 970 O 177.589 -2.38311 8.41922 0
M  V30 971 C 178.079 -0.491279 7.02284 0
M  V30 972 C 177.369 -0.996264 5.77469 0
M  V30 973 N 177.419 -0.0501916 4.62973 0
M  V30 974 H 174.581 0.374765 8.67791 0
M  V30 975 H 174.309 0.443613 6.90476 0
M  V30 976 H 175.177 -1.75559 7.96891 0
M  V30 977 H 177.832 -1.94563 5.46818 0
M  V30 978 H 178.112 0.608651 7.04676 0
M  V30 979 H 179.103 -0.889796 7.09039 0
M  V30 980 H 177.269 -0.433128 9.04664 0
M  V30 981 P 179.139 -2.75334 8.47391 0
M  V30 982 O 179.359 -3.84128 9.44797 0
M  V30 983 O 179.929 -1.51947 8.68712 0
M  V30 984 O 179.389 -3.29363 6.99321 0
M  V30 985 C 178.449 -4.24011 6.4274 0
M  V30 986 C 179.179 -5.20775 5.52155 0
M  V30 987 O 179.389 -4.56534 4.22446 0
M  V30 988 C 180.579 -5.62629 5.96531 0
M  V30 989 O 180.969 -6.87667 5.41053 0
M  V30 990 C 181.459 -4.52537 5.39283 0
M  V30 991 C 180.749 -4.20027 4.08623 0
M  V30 992 N 180.799 -2.76189 3.71603 0
M  V30 993 H 177.96 -4.797 7.24003 0
M  V30 994 H 177.69 -3.69856 5.84513 0
M  V30 995 H 178.557 -6.10356 5.41441 0
M  V30 996 P 182.519 -7.20834 5.23717 0
M  V30 997 O 182.739 -8.66104 5.38572 0
M  V30 998 O 183.309 -6.33544 6.1349 0
M  V30 999 O 182.769 -6.7751 3.72168 0
M  V30 1000 C 181.829 -7.20825 2.7076 0
M  V30 1001 C 182.559 -7.45864 1.40599 0
M  V30 1002 O 182.769 -6.17651 0.734225 0
M  V30 1003 C 183.959 -8.05808 1.51899 0
M  V30 1004 O 184.349 -8.74358 0.335205 0
M  V30 1005 C 184.839 -6.83093 1.70294 0
M  V30 1006 C 184.129 -5.79992 0.836974 0
M  V30 1007 N 184.179 -4.41864 1.38293 0
M  V30 1008 H 181.34 -8.13644 3.0377 0
M  V30 1009 H 181.07 -6.42788 2.55485 0
M  V30 1010 H 181.937 -8.12039 0.792769 0
M  V30 1011 P 185.899 -8.91 -8.29613e-14 0
M  V30 1012 O 186.119 -10.1736 -0.733766 0
M  V30 1013 O 186.689 -8.73247 1.2395 0
M  V30 1014 O 186.149 -7.66872 -0.971405 0
M  V30 1015 C 185.209 -7.42212 -2.04614 0
M  V30 1016 C 185.939 -6.86059 -3.24661 0
M  V30 1017 O 186.149 -5.42847 -3.03646 0
M  V30 1018 C 187.339 -7.41196 -3.50753 0
M  V30 1019 O 187.729 -7.27073 -4.86816 0
M  V30 1020 C 188.219 -6.5273 -2.63741 0
M  V30 1021 C 187.509 -5.1842 -2.73198 0
M  V30 1022 N 187.559 -4.38668 -1.47808 0
M  V30 1023 C 187.709 -3.02239 -1.60048 0
M  V30 1024 O 187.799 -2.46459 -2.67869 0
M  V30 1025 N 187.749 -2.32436 -0.408571 0
M  V30 1026 C 187.659 -2.85471 0.854993 0
M  V30 1027 O 187.709 -2.12566 1.8531 0
M  V30 1028 C 187.509 -4.28918 0.887335 0
M  V30 1029 C 187.399 -4.91066 2.24619 0
M  V30 1030 C 187.459 -5.00349 -0.255399 0
M  V30 1031 H 184.719 -8.36803 -2.32493 0
M  V30 1032 H 184.45 -6.701 -1.71105 0
M  V30 1033 H 185.317 -7.03551 -4.13168 0
M  V30 1034 H 187.972 -4.59773 -3.53894 0
M  V30 1035 H 188.251 -6.88995 -1.59871 0
M  V30 1036 H 189.243 -6.46749 -3.03687 0
M  V30 1037 H 187.409 -8.46908 -3.20714 0
M  V30 1038 H 187.338 -6.08548 -0.206986 0
M  V30 1039 H 188.368 -5.34836 2.53099 0
M  V30 1040 H 186.631 -5.69638 2.2291 0
M  V30 1041 H 187.119 -4.13971 2.98044 0
M  V30 1042 H 187.855 -1.33211 -0.474216 0
M  V30 1043 P 189.279 -7.20834 -5.23717 0
M  V30 1044 O 189.499 -7.7993 -6.57351 0
M  V30 1045 O 190.069 -7.79328 -4.13004 0
M  V30 1046 O 189.529 -5.63315 -5.29344 0
M  V30 1047 C 188.589 -4.80193 -6.01798 0
M  V30 1048 C 189.319 -3.64202 -6.65911 0
M  V30 1049 O 189.529 -2.60694 -5.64732 0
M  V30 1050 C 190.719 -3.93473 -7.1943 0
M  V30 1051 O 191.109 -3.02071 -8.21205 0
M  V30 1052 C 191.599 -3.73047 -5.97036 0
M  V30 1053 C 190.889 -2.58828 -5.25741 0
M  V30 1054 N 190.939 -2.6801 -3.77422 0
M  V30 1055 C 191.089 -1.50443 -3.07133 0
M  V30 1056 O 191.179 -0.419406 -3.61576 0
M  V30 1057 N 191.129 -1.6403 -1.69677 0
M  V30 1058 C 191.039 -2.81206 -0.986255 0
M  V30 1059 O 191.089 -2.80892 0.249754 0
M  V30 1060 C 190.889 -3.99158 -1.80325 0
M  V30 1061 C 190.779 -5.29309 -1.06921 0
M  V30 1062 C 190.839 -3.89779 -3.1476 0
M  V30 1063 H 188.099 -5.40332 -6.79951 0
M  V30 1064 H 187.83 -4.41549 -5.32301 0
M  V30 1065 H 188.697 -3.26331 -7.47797 0
M  V30 1066 H 191.352 -1.6395 -5.56554 0
M  V30 1067 H 191.631 -4.63439 -5.3432 0
M  V30 1068 H 192.623 -3.44728 -6.25838 0
M  V30 1069 H 190.789 -4.96652 -7.57263 0
M  V30 1070 H 190.718 -4.80159 -3.74441 0
M  V30 1071 H 191.748 -5.81459 -1.09608 0
M  V30 1072 H 190.011 -5.9187 -1.54487 0
M  V30 1073 H 190.499 -5.10095 -0.0220288 0
M  V30 1074 H 191.235 -0.798962 -1.16664 0
M  V30 1075 P 192.659 -2.75334 -8.47391 0
M  V30 1076 O 192.879 -2.44595 -9.90239 0
M  V30 1077 O 193.449 -3.87732 -7.92204 0
M  V30 1078 O 192.909 -1.4459 -7.59357 0
M  V30 1079 C 191.969 -0.347563 -7.69115 0
M  V30 1080 C 192.699 0.96767 -7.52806 0
M  V30 1081 O 192.909 1.21036 -6.1011 0
M  V30 1082 C 194.099 1.04544 -8.13308 0
M  V30 1083 O 194.489 2.38311 -8.41922 0
M  V30 1084 C 194.979 0.491279 -7.02284 0
M  V30 1085 C 194.269 0.996264 -5.77469 0
M  V30 1086 N 194.319 0.0501808 -4.62873 0
M  V30 1087 C 194.469 0.588177 -3.36904 0
M  V30 1088 O 194.559 1.78598 -3.17173 0
M  V30 1089 N 194.509 -0.329694 -2.33686 0
M  V30 1090 C 194.419 -1.6953 -2.45079 0
M  V30 1091 C 194.269 -2.16933 -3.80505 0
M  V30 1092 C 194.219 -1.30326 -4.83752 0
M  V30 1093 H 191.479 -0.374722 -8.67691 0
M  V30 1094 H 191.21 -0.443421 -6.90177 0
M  V30 1095 H 192.077 1.75537 -7.96793 0
M  V30 1096 H 194.732 1.94496 -5.46629 0
M  V30 1097 H 195.011 -0.608651 -7.04676 0
M  V30 1098 H 196.003 0.889672 -7.08939 0
M  V30 1099 H 194.169 0.43308 -9.04564 0
M  V30 1100 H 194.098 -1.68366 -5.8516 0
M  V30 1101 P 196.039 2.75334 -8.47391 0
M  V30 1102 O 196.259 3.84128 -9.44797 0
M  V30 1103 O 196.829 1.51947 -8.68712 0
M  V30 1104 O 196.289 3.29363 -6.99321 0
M  V30 1105 C 195.349 4.24011 -6.4274 0
M  V30 1106 C 196.079 5.20775 -5.52155 0
M  V30 1107 O 196.289 4.56534 -4.22446 0
M  V30 1108 C 197.479 5.62629 -5.96531 0
M  V30 1109 O 197.869 6.87667 -5.41053 0
M  V30 1110 C 198.359 4.52537 -5.39283 0
M  V30 1111 C 197.649 4.20027 -4.08623 0
M  V30 1112 N 197.699 2.76189 -3.71603 0
M  V30 1113 H 194.86 4.797 -7.24003 0
M  V30 1114 H 194.59 3.69856 -5.84513 0
M  V30 1115 H 195.457 6.10356 -5.41441 0
M  V30 1116 P 199.419 7.20834 -5.23717 0
M  V30 1117 O 199.639 8.66104 -5.38572 0
M  V30 1118 O 200.209 6.33544 -6.1349 0
M  V30 1119 O 199.669 6.7751 -3.72168 0
M  V30 1120 C 198.729 7.20825 -2.7076 0
M  V30 1121 C 199.459 7.45864 -1.40599 0
M  V30 1122 O 199.669 6.17651 -0.734225 0
M  V30 1123 C 200.859 8.05808 -1.51899 0
M  V30 1124 O 201.249 8.74358 -0.335205 0
M  V30 1125 C 201.739 6.83093 -1.70294 0
M  V30 1126 C 201.029 5.79992 -0.836974 0
M  V30 1127 N 201.079 4.41864 -1.38293 0
M  V30 1128 H 198.24 8.13644 -3.0377 0
M  V30 1129 H 197.97 6.42788 -2.55485 0
M  V30 1130 H 198.837 8.12039 -0.792769 0
M  V30 1131 P 202.799 8.91 2.40144e-13 0
M  V30 1132 O 203.019 10.1726 0.733694 0
M  V30 1133 O 203.589 8.73148 -1.23936 0
M  V30 1134 O 203.049 7.66872 0.971405 0
M  V30 1135 C 202.109 7.42309 2.04641 0
M  V30 1136 C 202.839 6.86059 3.24661 0
M  V30 1137 O 203.049 5.42847 3.03646 0
M  V30 1138 C 204.239 7.41196 3.50753 0
M  V30 1139 O 204.629 7.27073 4.86816 0
M  V30 1140 C 205.119 6.5273 2.63741 0
M  V30 1141 C 204.409 5.1842 2.73198 0
M  V30 1142 N 204.459 4.38762 1.4784 0
M  V30 1143 H 201.62 8.36803 2.32493 0
M  V30 1144 H 201.35 6.70197 1.71129 0
M  V30 1145 H 202.217 7.03551 4.13168 0
M  V30 1146 P 206.179 7.20834 5.23717 0
M  V30 1147 O 206.399 7.7993 6.57351 0
M  V30 1148 O 206.969 7.79328 4.13004 0
M  V30 1149 O 206.429 5.63315 5.29344 0
M  V30 1150 C 205.489 4.80193 6.01798 0
M  V30 1151 C 206.219 3.64202 6.65911 0
M  V30 1152 O 206.429 2.60694 5.64732 0
M  V30 1153 C 207.619 3.93473 7.1943 0
M  V30 1154 O 208.009 3.02071 8.21205 0
M  V30 1155 C 208.499 3.73047 5.97036 0
M  V30 1156 C 207.789 2.58828 5.25741 0
M  V30 1157 N 207.839 2.6801 3.77422 0
M  V30 1158 C 207.989 1.50443 3.07133 0
M  V30 1159 O 208.079 0.419406 3.61576 0
M  V30 1160 N 208.029 1.6403 1.69677 0
M  V30 1161 C 207.939 2.81206 0.986255 0
M  V30 1162 O 207.989 2.80892 -0.249754 0
M  V30 1163 C 207.789 3.99158 1.80325 0
M  V30 1164 C 207.679 5.29309 1.06921 0
M  V30 1165 C 207.739 3.89779 3.1476 0
M  V30 1166 H 204.999 5.40332 6.79951 0
M  V30 1167 H 204.73 4.41549 5.32301 0
M  V30 1168 H 205.597 3.26331 7.47797 0
M  V30 1169 H 208.252 1.6395 5.56554 0
M  V30 1170 H 208.531 4.63439 5.3432 0
M  V30 1171 H 209.523 3.44728 6.25838 0
M  V30 1172 H 207.689 4.96652 7.57263 0
M  V30 1173 H 207.618 4.80159 3.74441 0
M  V30 1174 H 208.648 5.81459 1.09608 0
M  V30 1175 H 206.911 5.9187 1.54487 0
M  V30 1176 H 207.399 5.10095 0.0220288 0
M  V30 1177 H 208.135 0.798962 1.16664 0
M  V30 1178 P 209.559 2.75334 8.47391 0
M  V30 1179 O 209.779 2.44571 9.90142 0
M  V30 1180 O 210.349 3.87688 7.92115 0
M  V30 1181 O 209.809 1.4459 7.59357 0
M  V30 1182 C 208.869 0.347608 7.69215 0
M  V30 1183 C 209.599 -0.96767 7.52806 0
M  V30 1184 O 209.809 -1.21036 6.1011 0
M  V30 1185 C 210.999 -1.04544 8.13308 0
M  V30 1186 O 211.389 -2.38311 8.41922 0
M  V30 1187 C 211.879 -0.491279 7.02284 0
M  V30 1188 C 211.169 -0.996264 5.77469 0
M  V30 1189 N 211.219 -0.0501916 4.62973 0
M  V30 1190 C 211.139 1.32786 4.63244 0
M  V30 1191 N 211.219 1.86957 3.44545 0
M  V30 1192 C 211.359 0.780241 2.58481 0
M  V30 1193 C 211.489 0.738536 1.17757 0
M  V30 1194 N 211.609 -0.58337 0.711393 0
M  V30 1195 C 211.609 -1.70816 1.51017 0
M  V30 1196 N 211.739 -2.87826 0.880757 0
M  V30 1197 N 211.479 -1.67126 2.8339 0
M  V30 1198 C 211.359 -0.401421 3.30572 0
M  V30 1199 H 208.38 0.374722 8.67691 0
M  V30 1200 H 208.11 0.443485 6.90277 0
M  V30 1201 H 208.977 -1.75537 7.96793 0
M  V30 1202 P 212.939 -2.75334 8.47391 0
M  V30 1203 O 213.159 -3.84128 9.44797 0
M  V30 1204 O 213.729 -1.51947 8.68712 0
M  V30 1205 O 213.189 -3.29363 6.99321 0
M  V30 1206 C 212.249 -4.24011 6.4274 0
M  V30 1207 C 212.979 -5.20775 5.52155 0
M  V30 1208 O 213.189 -4.56534 4.22446 0
M  V30 1209 C 214.379 -5.62629 5.96531 0
M  V30 1210 O 214.769 -6.87667 5.41053 0
M  V30 1211 C 215.259 -4.52537 5.39283 0
M  V30 1212 C 214.549 -4.20027 4.08623 0
M  V30 1213 N 214.599 -2.76189 3.71603 0
M  V30 1214 H 211.76 -4.797 7.24003 0
M  V30 1215 H 211.49 -3.69856 5.84513 0
M  V30 1216 H 212.357 -6.10356 5.41441 0
M  V30 1217 P 216.319 -7.20834 5.23717 0
M  V30 1218 O 216.539 -8.66104 5.38572 0
M  V30 1219 O 217.109 -6.33544 6.1349 0
M  V30 1220 O 216.569 -6.7751 3.72168 0
M  V30 1221 C 215.629 -7.20825 2.7076 0
M  V30 1222 C 216.359 -7.45864 1.40599 0
M  V30 1223 O 216.569 -6.17651 0.734225 0
M  V30 1224 C 217.759 -8.05808 1.51899 0
M  V30 1225 O 218.149 -8.74358 0.335205 0
M  V30 1226 C 218.639 -6.83093 1.70294 0
M  V30 1227 C 217.929 -5.79992 0.836974 0
M  V30 1228 N 217.979 -4.41864 1.38293 0
M  V30 1229 H 215.14 -8.13644 3.0377 0
M  V30 1230 H 214.87 -6.42788 2.55485 0
M  V30 1231 H 215.737 -8.12039 0.792769 0
M  V30 1232 P 219.699 -8.91 -3.97326e-13 0
M  V30 1233 O 219.919 -10.1726 -0.733694 0
M  V30 1234 O 220.489 -8.73148 1.23936 0
M  V30 1235 O 219.949 -7.66872 -0.971405 0
M  V30 1236 C 219.009 -7.42309 -2.04641 0
M  V30 1237 C 219.739 -6.86059 -3.24661 0
M  V30 1238 O 219.949 -5.42847 -3.03646 0
M  V30 1239 C 221.139 -7.41196 -3.50753 0
M  V30 1240 O 221.529 -7.27073 -4.86816 0
M  V30 1241 C 222.019 -6.5273 -2.63741 0
M  V30 1242 C 221.309 -5.1842 -2.73198 0
M  V30 1243 N 221.359 -4.38762 -1.4784 0
M  V30 1244 H 218.52 -8.36803 -2.32493 0
M  V30 1245 H 218.25 -6.70197 -1.71129 0
M  V30 1246 H 219.117 -7.03551 -4.13168 0
M  V30 1247 P 223.079 -7.20834 -5.23717 0
M  V30 1248 O 223.299 -7.79853 -6.57286 0
M  V30 1249 O 223.869 -7.79239 -4.12957 0
M  V30 1250 O 223.329 -5.63315 -5.29344 0
M  V30 1251 C 222.389 -4.80255 -6.01876 0
M  V30 1252 C 223.119 -3.64202 -6.65911 0
M  V30 1253 O 223.329 -2.60694 -5.64732 0
M  V30 1254 C 224.519 -3.93473 -7.1943 0
M  V30 1255 O 224.909 -3.02071 -8.21205 0
M  V30 1256 C 225.399 -3.73047 -5.97036 0
M  V30 1257 C 224.689 -2.58828 -5.25741 0
M  V30 1258 N 224.739 -2.68068 -3.77503 0
M  V30 1259 H 221.9 -5.40332 -6.79951 0
M  V30 1260 H 221.63 -4.41613 -5.32378 0
M  V30 1261 H 222.497 -3.26331 -7.47797 0
M  V30 1262 P 226.459 -2.75334 -8.47391 0
M  V30 1263 O 226.679 -2.44571 -9.90142 0
M  V30 1264 O 227.249 -3.87688 -7.92115 0
M  V30 1265 O 226.709 -1.4459 -7.59357 0
M  V30 1266 C 225.769 -0.347608 -7.69215 0
M  V30 1267 C 226.499 0.96767 -7.52806 0
M  V30 1268 O 226.709 1.21036 -6.1011 0
M  V30 1269 C 227.899 1.04544 -8.13308 0
M  V30 1270 O 228.289 2.38311 -8.41922 0
M  V30 1271 C 228.779 0.491279 -7.02284 0
M  V30 1272 C 228.069 0.996264 -5.77469 0
M  V30 1273 N 228.119 0.0501916 -4.62973 0
M  V30 1274 C 228.039 -1.32786 -4.63244 0
M  V30 1275 N 228.119 -1.86957 -3.44545 0
M  V30 1276 C 228.259 -0.780241 -2.58481 0
M  V30 1277 C 228.389 -0.738536 -1.17757 0
M  V30 1278 N 228.509 0.58337 -0.711393 0
M  V30 1279 C 228.509 1.70816 -1.51017 0
M  V30 1280 N 228.639 2.87826 -0.880757 0
M  V30 1281 N 228.379 1.67126 -2.8339 0
M  V30 1282 C 228.259 0.401421 -3.30572 0
M  V30 1283 H 225.28 -0.374722 -8.67691 0
M  V30 1284 H 225.01 -0.443485 -6.90277 0
M  V30 1285 H 225.877 1.75537 -7.96793 0
M  V30 1286 P 229.839 2.75334 -8.47391 0
M  V30 1287 O 230.059 3.84204 -9.44982 0
M  V30 1288 O 230.629 1.51982 -8.68909 0
M  V30 1289 O 230.089 3.29363 -6.99321 0
M  V30 1290 C 229.149 4.24066 -6.42823 0
M  V30 1291 C 229.879 5.20775 -5.52155 0
M  V30 1292 O 230.089 4.56607 -4.22514 0
M  V30 1293 C 231.279 5.62697 -5.96604 0
M  V30 1294 O 231.669 6.87667 -5.41053 0
M  V30 1295 C 232.159 4.52537 -5.39283 0
M  V30 1296 C 231.449 4.20027 -4.08623 0
M  V30 1297 N 231.499 2.76189 -3.71603 0
M  V30 1298 C 231.419 1.66944 -4.54297 0
M  V30 1299 N 231.489 0.536169 -3.91344 0
M  V30 1300 C 231.639 0.901569 -2.58849 0
M  V30 1301 C 231.769 0.146599 -1.40236 0
M  V30 1302 N 231.779 -1.18234 -1.37046 0
M  V30 1303 N 231.889 0.822941 -0.249738 0
M  V30 1304 C 231.879 2.15179 -0.280525 0
M  V30 1305 N 231.759 2.96414 -1.30822 0
M  V30 1306 C 231.639 2.25804 -2.44748 0
M  V30 1307 H 228.661 4.79756 -7.24086 0
M  V30 1308 H 228.389 3.69963 -5.84682 0
M  V30 1309 H 229.257 6.10431 -5.41508 0
M  V30 1310 H 231.912 4.78816 -3.28024 0
M  V30 1311 H 232.192 3.64957 -6.05871 0
M  V30 1312 H 233.183 4.88748 -5.21323 0
M  V30 1313 H 231.349 5.66789 -7.0643 0
M  V30 1314 H 231.308 1.74684 -5.62396 0
M  V30 1315 H 231.689 -1.71949 -2.24394 0
M  V30 1316 H 231.878 -1.67511 -0.470742 0
M  V30 1317 H 231.986 2.63704 0.6828 0
M  V30 1318 P 233.219 7.20834 -5.23717 0
M  V30 1319 O 233.439 8.66104 -5.38572 0
M  V30 1320 O 234.009 6.33544 -6.1349 0
M  V30 1321 O 233.469 6.7751 -3.72168 0
M  V30 1322 C 232.529 7.20825 -2.7076 0
M  V30 1323 C 233.259 7.45864 -1.40599 0
M  V30 1324 O 233.469 6.17651 -0.734225 0
M  V30 1325 C 234.659 8.05808 -1.51899 0
M  V30 1326 O 235.049 8.74358 -0.335205 0
M  V30 1327 C 235.539 6.83093 -1.70294 0
M  V30 1328 C 234.829 5.79992 -0.836974 0
M  V30 1329 N 234.879 4.41864 -1.38293 0
M  V30 1330 H 232.04 8.13644 -3.0377 0
M  V30 1331 H 231.77 6.42788 -2.55485 0
M  V30 1332 H 232.637 8.12039 -0.792769 0
M  V30 1333 P 236.599 8.91 5.54508e-13 0
M  V30 1334 O 236.819 10.1746 0.733838 0
M  V30 1335 O 237.389 8.73346 -1.23964 0
M  V30 1336 O 236.849 7.66872 0.971405 0
M  V30 1337 C 235.909 7.42405 2.04668 0
M  V30 1338 C 236.639 6.86059 3.24661 0
M  V30 1339 O 236.849 5.42934 3.03695 0
M  V30 1340 C 238.039 7.41287 3.50796 0
M  V30 1341 O 238.429 7.27073 4.86816 0
M  V30 1342 C 238.919 6.5273 2.63741 0
M  V30 1343 C 238.209 5.1842 2.73198 0
M  V30 1344 N 238.259 4.38762 1.4784 0
M  V30 1345 H 235.421 8.36899 2.3252 0
M  V30 1346 H 235.149 6.70391 1.71179 0
M  V30 1347 H 236.017 7.03638 4.13219 0
M  V30 1348 H 238.672 4.59931 3.54016 0
M  V30 1349 H 238.952 6.88995 1.59871 0
M  V30 1350 H 239.943 6.4684 3.0373 0
M  V30 1351 H 238.109 8.47002 3.20749 0
M  V30 1352 P 239.979 7.20834 5.23717 0
M  V30 1353 O 240.199 7.80006 6.57415 0
M  V30 1354 O 240.769 7.79416 4.13051 0
M  V30 1355 O 240.229 5.63315 5.29344 0
M  V30 1356 C 239.289 4.80318 6.01954 0
M  V30 1357 C 240.019 3.64202 6.65911 0
M  V30 1358 O 240.229 2.60736 5.64823 0
M  V30 1359 C 241.419 3.93521 7.19518 0
M  V30 1360 O 241.809 3.02071 8.21205 0
M  V30 1361 C 242.299 3.73047 5.97036 0
M  V30 1362 C 241.589 2.58828 5.25741 0
M  V30 1363 N 241.639 2.68068 3.77503 0
M  V30 1364 H 238.801 5.40394 6.8003 0
M  V30 1365 H 238.529 4.41741 5.32532 0
M  V30 1366 H 239.397 3.26371 7.47889 0
M  V30 1367 H 242.052 1.64007 5.56746 0
M  V30 1368 H 242.332 4.63439 5.3432 0
M  V30 1369 H 243.323 3.44776 6.25925 0
M  V30 1370 H 241.489 4.96707 7.57347 0
M  V30 1371 P 243.359 2.75334 8.47391 0
M  V30 1372 O 243.579 2.44619 9.90336 0
M  V30 1373 O 244.149 3.87776 7.92294 0
M  V30 1374 O 243.609 1.4459 7.59357 0
M  V30 1375 C 242.669 0.347653 7.69315 0
M  V30 1376 C 243.399 -0.96767 7.52806 0
M  V30 1377 O 243.609 -1.21055 6.10208 0
M  V30 1378 C 244.799 -1.04557 8.13408 0
M  V30 1379 O 245.189 -2.38311 8.41922 0
M  V30 1380 C 245.679 -0.491279 7.02284 0
M  V30 1381 C 244.969 -0.996264 5.77469 0
M  V30 1382 N 245.019 -0.0501916 4.62973 0
M  V30 1383 C 244.939 1.31969 4.65661 0
M  V30 1384 N 245.009 1.86649 3.48119 0
M  V30 1385 C 245.159 0.792089 2.62406 0
M  V30 1386 C 245.289 0.705684 1.2207 0
M  V30 1387 N 245.299 1.76207 0.413762 0
M  V30 1388 N 245.409 -0.518981 0.685754 0
M  V30 1389 C 245.399 -1.57595 1.49174 0
M  V30 1390 N 245.279 -1.62909 2.80066 0
M  V30 1391 C 245.159 -0.388195 3.3073 0
M  V30 1392 H 242.181 0.374765 8.67791 0
M  V30 1393 H 241.909 0.443613 6.90476 0
M  V30 1394 H 242.777 -1.75559 7.96891 0
M  V30 1395 H 245.432 -1.94563 5.46818 0
M  V30 1396 H 245.712 0.608651 7.04676 0
M  V30 1397 H 246.703 -0.889796 7.09039 0
M  V30 1398 H 244.869 -0.433128 9.04664 0
M  V30 1399 H 244.828 1.89246 5.57664 0
M  V30 1400 H 245.209 2.71005 0.804694 0
M  V30 1401 H 245.398 1.63189 -0.603768 0
M  V30 1402 H 245.506 -2.53475 0.997614 0
M  V30 1403 P 246.739 -2.75334 8.47391 0
M  V30 1404 O 246.959 -3.84128 9.44797 0
M  V30 1405 O 247.529 -1.51947 8.68712 0
M  V30 1406 O 246.989 -3.29363 6.99321 0
M  V30 1407 C 246.049 -4.24011 6.4274 0
M  V30 1408 C 246.779 -5.20775 5.52155 0
M  V30 1409 O 246.989 -4.56534 4.22446 0
M  V30 1410 C 248.179 -5.62629 5.96531 0
M  V30 1411 O 248.569 -6.87667 5.41053 0
M  V30 1412 C 249.059 -4.52537 5.39283 0
M  V30 1413 C 248.349 -4.20027 4.08623 0
M  V30 1414 N 248.399 -2.76189 3.71603 0
M  V30 1415 H 245.56 -4.797 7.24003 0
M  V30 1416 H 245.29 -3.69856 5.84513 0
M  V30 1417 H 246.157 -6.10356 5.41441 0
M  V30 1418 P 250.119 -7.20834 5.23717 0
M  V30 1419 O 250.339 -8.66104 5.38572 0
M  V30 1420 O 250.909 -6.33544 6.1349 0
M  V30 1421 O 250.369 -6.7751 3.72168 0
M  V30 1422 C 249.429 -7.20825 2.7076 0
M  V30 1423 C 250.159 -7.45864 1.40599 0
M  V30 1424 O 250.369 -6.17651 0.734225 0
M  V30 1425 C 251.559 -8.05808 1.51899 0
M  V30 1426 O 251.949 -8.74358 0.335205 0
M  V30 1427 C 252.439 -6.83093 1.70294 0
M  V30 1428 C 251.729 -5.79992 0.836974 0
M  V30 1429 N 251.779 -4.41864 1.38293 0
M  V30 1430 H 248.94 -8.13644 3.0377 0
M  V30 1431 H 248.67 -6.42788 2.55485 0
M  V30 1432 H 249.537 -8.12039 0.792769 0
M  V30 1433 P 253.498 -8.91 -7.1169e-13 0
M  V30 1434 O 253.718 -10.1726 -0.733694 0
M  V30 1435 O 254.288 -8.73148 1.23936 0
M  V30 1436 O 253.748 -7.66872 -0.971405 0
M  V30 1437 C 252.808 -7.42309 -2.04641 0
M  V30 1438 C 253.538 -6.86059 -3.24661 0
M  V30 1439 O 253.748 -5.42847 -3.03646 0
M  V30 1440 C 254.938 -7.41196 -3.50753 0
M  V30 1441 O 255.328 -7.27073 -4.86816 0
M  V30 1442 C 255.818 -6.5273 -2.63741 0
M  V30 1443 C 255.108 -5.1842 -2.73198 0
M  V30 1444 N 255.158 -4.38762 -1.4784 0
M  V30 1445 H 252.319 -8.36803 -2.32493 0
M  V30 1446 H 252.049 -6.70197 -1.71129 0
M  V30 1447 H 252.916 -7.03551 -4.13168 0
M  V30 1448 P 256.878 -7.20834 -5.23717 0
M  V30 1449 O 257.098 -7.80006 -6.57415 0
M  V30 1450 O 257.668 -7.79416 -4.13051 0
M  V30 1451 O 257.128 -5.63315 -5.29344 0
M  V30 1452 C 256.188 -4.80318 -6.01954 0
M  V30 1453 C 256.918 -3.64202 -6.65911 0
M  V30 1454 O 257.128 -2.60736 -5.64823 0
M  V30 1455 C 258.318 -3.93521 -7.19518 0
M  V30 1456 O 258.708 -3.02071 -8.21205 0
M  V30 1457 C 259.198 -3.73047 -5.97036 0
M  V30 1458 C 258.488 -2.58828 -5.25741 0
M  V30 1459 N 258.538 -2.68068 -3.77503 0
M  V30 1460 C 258.458 -3.80474 -2.99159 0
M  V30 1461 N 258.528 -3.55622 -1.71925 0
M  V30 1462 C 258.678 -2.1832 -1.65733 0
M  V30 1463 C 258.808 -1.28842 -0.572777 0
M  V30 1464 N 258.818 -1.66875 0.70098 0
M  V30 1465 N 258.928 0.016788 -0.859836 0
M  V30 1466 C 258.918 0.398145 -2.13316 0
M  V30 1467 N 258.798 -0.328224 -3.22333 0
M  V30 1468 C 258.678 -1.62992 -2.90383 0
M  V30 1469 H 255.7 -5.40394 -6.8003 0
M  V30 1470 H 255.428 -4.41741 -5.32532 0
M  V30 1471 H 256.296 -3.26371 -7.47889 0
M  V30 1472 H 258.951 -1.64007 -5.56746 0
M  V30 1473 H 259.231 -4.63439 -5.3432 0
M  V30 1474 H 260.222 -3.44776 -6.25925 0
M  V30 1475 H 258.388 -4.96707 -7.57347 0
M  V30 1476 H 258.347 -4.8089 -3.39924 0
M  V30 1477 H 258.728 -2.66547 0.941919 0
M  V30 1478 H 258.917 -0.965341 1.44766 0
M  V30 1479 H 259.025 1.46427 -2.29697 0
M  V30 1480 P 260.258 -2.75334 -8.47391 0
M  V30 1481 O 260.478 -2.44571 -9.90142 0
M  V30 1482 O 261.048 -3.87688 -7.92115 0
M  V30 1483 O 260.508 -1.4459 -7.59357 0
M  V30 1484 C 259.568 -0.347608 -7.69215 0
M  V30 1485 C 260.298 0.96767 -7.52806 0
M  V30 1486 O 260.508 1.21036 -6.1011 0
M  V30 1487 C 261.698 1.04544 -8.13308 0
M  V30 1488 O 262.088 2.38311 -8.41922 0
M  V30 1489 C 262.578 0.491279 -7.02284 0
M  V30 1490 C 261.868 0.996264 -5.77469 0
M  V30 1491 N 261.918 0.0501916 -4.62973 0
M  V30 1492 H 259.079 -0.374722 -8.67691 0
M  V30 1493 H 258.809 -0.443485 -6.90277 0
M  V30 1494 H 259.676 1.75537 -7.96793 0
M  V30 1495 P 263.638 2.75334 -8.47391 0
M  V30 1496 O 263.858 3.84128 -9.44797 0
M  V30 1497 O 264.428 1.51947 -8.68712 0
M  V30 1498 O 263.888 3.29363 -6.99321 0
M  V30 1499 C 262.948 4.24011 -6.4274 0
M  V30 1500 C 263.678 5.20775 -5.52155 0
M  V30 1501 O 263.888 4.56534 -4.22446 0
M  V30 1502 C 265.078 5.62629 -5.96531 0
M  V30 1503 O 265.468 6.87667 -5.41053 0
M  V30 1504 C 265.958 4.52537 -5.39283 0
M  V30 1505 C 265.248 4.20027 -4.08623 0
M  V30 1506 N 265.298 2.76189 -3.71603 0
M  V30 1507 H 262.459 4.797 -7.24003 0
M  V30 1508 H 262.189 3.69856 -5.84513 0
M  V30 1509 H 263.056 6.10356 -5.41441 0
M  V30 1510 P 267.018 7.20834 -5.23717 0
M  V30 1511 O 267.238 8.66274 -5.38678 0
M  V30 1512 O 267.808 6.33687 -6.13629 0
M  V30 1513 O 267.268 6.7751 -3.72168 0
M  V30 1514 C 266.328 7.20919 -2.70795 0
M  V30 1515 C 267.058 7.45864 -1.40599 0
M  V30 1516 O 267.268 6.17751 -0.734343 0
M  V30 1517 C 268.458 8.05906 -1.51917 0
M  V30 1518 O 268.848 8.74358 -0.335205 0
M  V30 1519 C 269.338 6.83093 -1.70294 0
M  V30 1520 C 268.628 5.79992 -0.836974 0
M  V30 1521 N 268.678 4.41864 -1.38293 0
M  V30 1522 H 265.84 8.13738 -3.03804 0
M  V30 1523 H 265.568 6.42974 -2.55559 0
M  V30 1524 H 266.436 8.12139 -0.792866 0
M  V30 1525 H 269.091 5.80178 0.160643 0
M  V30 1526 H 269.371 6.51379 -2.75643 0
M  V30 1527 H 270.362 7.01832 -1.3448 0
M  V30 1528 H 268.528 8.73771 -2.38364 0
M  V30 1529 P 270.398 8.91 8.68872e-13 0
M  V30 1530 O 270.618 10.1746 0.733838 0
M  V30 1531 O 271.188 8.73346 -1.23964 0
M  V30 1532 O 270.648 7.66872 0.971405 0
M  V30 1533 C 269.708 7.42405 2.04668 0
M  V30 1534 C 270.438 6.86059 3.24661 0
M  V30 1535 O 270.648 5.42934 3.03695 0
M  V30 1536 C 271.838 7.41287 3.50796 0
M  V30 1537 O 272.228 7.27073 4.86816 0
M  V30 1538 C 272.718 6.5273 2.63741 0
M  V30 1539 C 272.008 5.1842 2.73198 0
M  V30 1540 N 272.058 4.38762 1.4784 0
M  V30 1541 H 269.22 8.36899 2.3252 0
M  V30 1542 H 268.948 6.70391 1.71179 0
M  V30 1543 H 269.816 7.03638 4.13219 0
M  V30 1544 H 272.471 4.59931 3.54016 0
M  V30 1545 H 272.751 6.88995 1.59871 0
M  V30 1546 H 273.742 6.4684 3.0373 0
M  V30 1547 H 271.908 8.47002 3.20749 0
M  V30 1548 P 273.778 7.20834 5.23717 0
M  V30 1549 O 273.998 7.79853 6.57286 0
M  V30 1550 O 274.568 7.79239 4.12957 0
M  V30 1551 O 274.028 5.63315 5.29344 0
M  V30 1552 C 273.088 4.80255 6.01876 0
M  V30 1553 C 273.818 3.64202 6.65911 0
M  V30 1554 O 274.028 2.60694 5.64732 0
M  V30 1555 C 275.218 3.93473 7.1943 0
M  V30 1556 O 275.608 3.02071 8.21205 0
M  V30 1557 C 276.098 3.73047 5.97036 0
M  V30 1558 C 275.388 2.58828 5.25741 0
M  V30 1559 N 275.438 2.68068 3.77503 0
M  V30 1560 H 272.599 5.40332 6.79951 0
M  V30 1561 H 272.329 4.41613 5.32378 0
M  V30 1562 H 273.196 3.26331 7.47797 0
M  V30 1563 P 277.158 2.75334 8.47391 0
M  V30 1564 O 277.378 2.44571 9.90142 0
M  V30 1565 O 277.948 3.87688 7.92115 0
M  V30 1566 O 277.408 1.4459 7.59357 0
M  V30 1567 C 276.468 0.347608 7.69215 0
M  V30 1568 C 277.198 -0.96767 7.52806 0
M  V30 1569 O 277.408 -1.21036 6.1011 0
M  V30 1570 C 278.598 -1.04544 8.13308 0
M  V30 1571 O 278.988 -2.38311 8.41922 0
M  V30 1572 C 279.478 -0.491279 7.02284 0
M  V30 1573 C 278.768 -0.996264 5.77469 0
M  V30 1574 N 278.818 -0.0501916 4.62973 0
M  V30 1575 C 278.738 1.32786 4.63244 0
M  V30 1576 N 278.818 1.86957 3.44545 0
M  V30 1577 C 278.958 0.780241 2.58481 0
M  V30 1578 C 279.088 0.738536 1.17757 0
M  V30 1579 N 279.208 -0.58337 0.711393 0
M  V30 1580 C 279.208 -1.70816 1.51017 0
M  V30 1581 N 279.338 -2.87826 0.880757 0
M  V30 1582 N 279.078 -1.67126 2.8339 0
M  V30 1583 C 278.958 -0.401421 3.30572 0
M  V30 1584 H 275.979 0.374722 8.67691 0
M  V30 1585 H 275.709 0.443485 6.90277 0
M  V30 1586 H 276.576 -1.75537 7.96793 0
M  V30 1587 P 280.538 -2.75334 8.47391 0
M  V30 1588 O 280.758 -3.84166 9.4489 0
M  V30 1589 O 281.328 -1.51964 8.6881 0
M  V30 1590 O 280.788 -3.29363 6.99321 0
M  V30 1591 C 279.848 -4.23956 6.42656 0
M  V30 1592 C 280.578 -5.20775 5.52155 0
M  V30 1593 O 280.788 -4.56534 4.22446 0
M  V30 1594 C 281.978 -5.62629 5.96531 0
M  V30 1595 O 282.368 -6.87667 5.41053 0
M  V30 1596 C 282.858 -4.52537 5.39283 0
M  V30 1597 C 282.148 -4.20027 4.08623 0
M  V30 1598 N 282.198 -2.7613 3.71522 0
M  V30 1599 C 282.348 -2.45612 2.37989 0
M  V30 1600 O 282.438 -3.30919 1.51621 0
M  V30 1601 N 282.388 -1.10684 2.08435 0
M  V30 1602 C 282.298 -0.0690084 2.9792 0
M  V30 1603 C 282.148 -0.481522 4.35345 0
M  V30 1604 C 282.098 -1.78906 4.67968 0
M  V30 1605 H 279.358 -4.797 7.24003 0
M  V30 1606 H 279.089 -3.69802 5.84429 0
M  V30 1607 H 279.956 -6.10356 5.41441 0
M  V30 1608 H 282.611 -4.78651 3.27911 0
M  V30 1609 H 282.89 -3.64957 6.05871 0
M  V30 1610 H 283.882 -4.8868 5.2125 0
M  V30 1611 H 282.048 -5.66726 7.06352 0
M  V30 1612 H 281.977 -2.07737 5.72367 0
M  V30 1613 P 283.918 -7.20834 5.23717 0
M  V30 1614 O 284.138 -8.66189 5.38625 0
M  V30 1615 O 284.708 -6.33615 6.1356 0
M  V30 1616 O 284.168 -6.7751 3.72168 0
M  V30 1617 C 283.228 -7.20732 2.70725 0
M  V30 1618 C 283.958 -7.45864 1.40599 0
M  V30 1619 O 284.168 -6.17651 0.734225 0
M  V30 1620 C 285.358 -8.05808 1.51899 0
M  V30 1621 O 285.748 -8.74358 0.335205 0
M  V30 1622 C 286.238 -6.83093 1.70294 0
M  V30 1623 C 285.528 -5.79992 0.836974 0
M  V30 1624 N 285.578 -4.41769 1.38263 0
M  V30 1625 C 285.728 -3.38591 0.481702 0
M  V30 1626 O 285.818 -3.56839 -0.718452 0
M  V30 1627 N 285.768 -2.1206 1.03569 0
M  V30 1628 C 285.678 -1.80696 2.36966 0
M  V30 1629 O 285.728 -0.630473 2.74862 0
M  V30 1630 C 285.528 -2.94845 3.23898 0
M  V30 1631 C 285.418 -2.65253 4.70362 0
M  V30 1632 C 285.478 -4.19803 2.73435 0
M  V30 1633 H 282.738 -8.13644 3.0377 0
M  V30 1634 H 282.469 -6.42695 2.55448 0
M  V30 1635 H 283.336 -8.12039 0.792769 0
M  V30 1636 H 285.991 -5.79978 -0.160587 0
M  V30 1637 H 286.27 -6.51379 2.75643 0
M  V30 1638 H 287.262 -7.01734 1.34462 0
M  V30 1639 H 285.428 -8.73674 2.38337 0
M  V30 1640 H 285.357 -5.04492 3.4095 0
M  V30 1641 H 286.387 -2.83924 5.1913 0
M  V30 1642 H 284.65 -3.29824 5.15163 0
M  V30 1643 H 285.138 -1.59723 4.84449 0
M  V30 1644 H 285.874 -1.35644 0.399345 0
M  V30 1645 P 287.298 -8.91 -1.02605e-12 0
M  V30 1646 O 287.518 -10.1726 -0.733694 0
M  V30 1647 O 288.088 -8.73148 1.23936 0
M  V30 1648 O 287.548 -7.66872 -0.971405 0
M  V30 1649 C 286.608 -7.42309 -2.04641 0
M  V30 1650 C 287.338 -6.86059 -3.24661 0
M  V30 1651 O 287.548 -5.42847 -3.03646 0
M  V30 1652 C 288.738 -7.41196 -3.50753 0
M  V30 1653 O 289.128 -7.27073 -4.86816 0
M  V30 1654 C 289.618 -6.5273 -2.63741 0
M  V30 1655 C 288.908 -5.1842 -2.73198 0
M  V30 1656 N 288.958 -4.38762 -1.4784 0
M  V30 1657 H 286.119 -8.36803 -2.32493 0
M  V30 1658 H 285.849 -6.70197 -1.71129 0
M  V30 1659 H 286.716 -7.03551 -4.13168 0
M  V30 1660 P 290.678 -7.20834 -5.23717 0
M  V30 1661 O 290.898 -7.79853 -6.57286 0
M  V30 1662 O 291.468 -7.79239 -4.12957 0
M  V30 1663 O 290.928 -5.63315 -5.29344 0
M  V30 1664 C 289.988 -4.80255 -6.01876 0
M  V30 1665 C 290.718 -3.64202 -6.65911 0
M  V30 1666 O 290.928 -2.60694 -5.64732 0
M  V30 1667 C 292.118 -3.93473 -7.1943 0
M  V30 1668 O 292.508 -3.02071 -8.21205 0
M  V30 1669 C 292.998 -3.73047 -5.97036 0
M  V30 1670 C 292.288 -2.58828 -5.25741 0
M  V30 1671 N 292.338 -2.68068 -3.77503 0
M  V30 1672 H 289.499 -5.40332 -6.79951 0
M  V30 1673 H 289.229 -4.41613 -5.32378 0
M  V30 1674 H 290.096 -3.26331 -7.47797 0
M  V30 1675 P 294.058 -2.75334 -8.47391 0
M  V30 1676 O 294.278 -2.44571 -9.90142 0
M  V30 1677 O 294.848 -3.87688 -7.92115 0
M  V30 1678 O 294.308 -1.4459 -7.59357 0
M  V30 1679 C 293.368 -0.347608 -7.69215 0
M  V30 1680 C 294.098 0.96767 -7.52806 0
M  V30 1681 O 294.308 1.21036 -6.1011 0
M  V30 1682 C 295.498 1.04544 -8.13308 0
M  V30 1683 O 295.888 2.38311 -8.41922 0
M  V30 1684 C 296.378 0.491279 -7.02284 0
M  V30 1685 C 295.668 0.996264 -5.77469 0
M  V30 1686 N 295.718 0.0501916 -4.62973 0
M  V30 1687 H 292.879 -0.374722 -8.67691 0
M  V30 1688 H 292.609 -0.443485 -6.90277 0
M  V30 1689 H 293.476 1.75537 -7.96793 0
M  V30 1690 P 297.438 2.75334 -8.47391 0
M  V30 1691 O 297.658 3.84128 -9.44797 0
M  V30 1692 O 298.228 1.51947 -8.68712 0
M  V30 1693 O 297.688 3.29363 -6.99321 0
M  V30 1694 C 296.748 4.24011 -6.4274 0
M  V30 1695 C 297.478 5.20775 -5.52155 0
M  V30 1696 O 297.688 4.56534 -4.22446 0
M  V30 1697 C 298.878 5.62629 -5.96531 0
M  V30 1698 O 299.268 6.87667 -5.41053 0
M  V30 1699 C 299.758 4.52537 -5.39283 0
M  V30 1700 C 299.048 4.20027 -4.08623 0
M  V30 1701 N 299.098 2.76189 -3.71603 0
M  V30 1702 C 299.018 1.64862 -4.52822 0
M  V30 1703 N 299.098 0.512671 -3.88633 0
M  V30 1704 C 299.238 0.888083 -2.54977 0
M  V30 1705 C 299.368 0.094668 -1.38677 0
M  V30 1706 N 299.488 0.890102 -0.232633 0
M  V30 1707 C 299.488 2.26958 -0.21772 0
M  V30 1708 N 299.618 2.84626 0.97925 0
M  V30 1709 N 299.358 3.0178 -1.31033 0
M  V30 1710 C 299.238 2.26781 -2.43843 0
M  V30 1711 H 296.259 4.797 -7.24003 0
M  V30 1712 H 295.989 3.69856 -5.84513 0
M  V30 1713 H 296.856 6.10356 -5.41441 0
M  V30 1714 P 300.818 7.20834 -5.23717 0
M  V30 1715 O 301.038 8.66104 -5.38572 0
M  V30 1716 O 301.608 6.33544 -6.1349 0
M  V30 1717 O 301.068 6.7751 -3.72168 0
M  V30 1718 C 300.128 7.20825 -2.7076 0
M  V30 1719 C 300.858 7.45864 -1.40599 0
M  V30 1720 O 301.068 6.17651 -0.734225 0
M  V30 1721 C 302.258 8.05808 -1.51899 0
M  V30 1722 O 302.648 8.74358 -0.335205 0
M  V30 1723 C 303.138 6.83093 -1.70294 0
M  V30 1724 C 302.428 5.79992 -0.836974 0
M  V30 1725 N 302.478 4.41864 -1.38293 0
M  V30 1726 C 302.398 3.99538 -2.69438 0
M  V30 1727 N 302.478 2.69909 -2.84277 0
M  V30 1728 C 302.618 2.21719 -1.5408 0
M  V30 1729 C 302.748 0.891712 -1.06628 0
M  V30 1730 O 302.768 -0.161298 -1.70137 0
M  V30 1731 N 302.868 0.856846 0.334985 0
M  V30 1732 C 302.868 1.9641 1.15789 0
M  V30 1733 N 302.998 1.72708 2.46522 0
M  V30 1734 N 302.738 3.21165 0.713741 0
M  V30 1735 C 302.618 3.26797 -0.639748 0
M  V30 1736 H 299.639 8.13644 -3.0377 0
M  V30 1737 H 299.369 6.42788 -2.55485 0
M  V30 1738 H 300.236 8.12039 -0.792769 0
M  V30 1739 H 302.891 5.80061 0.166416 0
M  V30 1740 H 303.17 6.51287 -2.75604 0
M  V30 1741 H 304.162 7.01734 -1.34462 0
M  V30 1742 H 302.328 8.73674 -2.38337 0
M  V30 1743 H 302.279 4.68207 -3.53221 0
M  V30 1744 H 302.961 -0.0398818 0.767965 0
M  V30 1745 H 302.998 2.50995 3.13503 0
M  V30 1746 H 303.099 0.759148 2.80716 0
M  V30 1747 P 304.198 8.91 1.18324e-12 0
M  V30 1748 O 304.418 10.1746 0.733838 0
M  V30 1749 O 304.988 8.73346 -1.23964 0
M  V30 1750 O 304.448 7.66872 0.971405 0
M  V30 1751 C 303.508 7.42405 2.04668 0
M  V30 1752 C 304.238 6.86059 3.24661 0
M  V30 1753 O 304.448 5.42934 3.03695 0
M  V30 1754 C 305.638 7.41287 3.50796 0
M  V30 1755 O 306.028 7.27073 4.86816 0
M  V30 1756 C 306.518 6.5273 2.63741 0
M  V30 1757 C 305.808 5.1842 2.73198 0
M  V30 1758 N 305.858 4.38762 1.4784 0
M  V30 1759 H 303.02 8.36899 2.3252 0
M  V30 1760 H 302.748 6.70391 1.71179 0
M  V30 1761 H 303.616 7.03638 4.13219 0
M  V30 1762 H 306.271 4.59931 3.54016 0
M  V30 1763 H 306.551 6.88995 1.59871 0
M  V30 1764 H 307.542 6.4684 3.0373 0
M  V30 1765 H 305.708 8.47002 3.20749 0
M  V30 1766 P 307.578 7.20834 5.23717 0
M  V30 1767 O 307.798 7.79853 6.57286 0
M  V30 1768 O 308.368 7.79239 4.12957 0
M  V30 1769 O 307.828 5.63315 5.29344 0
M  V30 1770 C 306.888 4.80255 6.01876 0
M  V30 1771 C 307.618 3.64202 6.65911 0
M  V30 1772 O 307.828 2.60694 5.64732 0
M  V30 1773 C 309.018 3.93473 7.1943 0
M  V30 1774 O 309.408 3.02071 8.21205 0
M  V30 1775 C 309.898 3.73047 5.97036 0
M  V30 1776 C 309.188 2.58828 5.25741 0
M  V30 1777 N 309.238 2.68068 3.77503 0
M  V30 1778 H 306.399 5.40332 6.79951 0
M  V30 1779 H 306.129 4.41613 5.32378 0
M  V30 1780 H 306.996 3.26331 7.47797 0
M  V30 1781 P 310.958 2.75334 8.47391 0
M  V30 1782 O 311.178 2.44571 9.90142 0
M  V30 1783 O 311.748 3.87688 7.92115 0
M  V30 1784 O 311.208 1.4459 7.59357 0
M  V30 1785 C 310.268 0.347608 7.69215 0
M  V30 1786 C 310.998 -0.96767 7.52806 0
M  V30 1787 O 311.208 -1.21036 6.1011 0
M  V30 1788 C 312.398 -1.04544 8.13308 0
M  V30 1789 O 312.788 -2.38311 8.41922 0
M  V30 1790 C 313.278 -0.491279 7.02284 0
M  V30 1791 C 312.568 -0.996264 5.77469 0
M  V30 1792 N 312.618 -0.0501916 4.62973 0
M  V30 1793 H 309.779 0.374722 8.67691 0
M  V30 1794 H 309.509 0.443485 6.90277 0
M  V30 1795 H 310.376 -1.75537 7.96793 0
M  V30 1796 P 314.338 -2.75334 8.47391 0
M  V30 1797 O 314.558 -3.84204 9.44982 0
M  V30 1798 O 315.128 -1.51982 8.68909 0
M  V30 1799 O 314.588 -3.29363 6.99321 0
M  V30 1800 C 313.648 -4.24066 6.42823 0
M  V30 1801 C 314.378 -5.20775 5.52155 0
M  V30 1802 O 314.588 -4.56607 4.22514 0
M  V30 1803 C 315.778 -5.62697 5.96604 0
M  V30 1804 O 316.168 -6.87667 5.41053 0
M  V30 1805 C 316.658 -4.52537 5.39283 0
M  V30 1806 C 315.948 -4.20027 4.08623 0
M  V30 1807 N 315.998 -2.76189 3.71603 0
M  V30 1808 H 313.16 -4.79756 7.24086 0
M  V30 1809 H 312.888 -3.69963 5.84682 0
M  V30 1810 H 313.756 -6.10431 5.41508 0
M  V30 1811 H 316.411 -4.78816 3.28024 0
M  V30 1812 H 316.691 -3.64957 6.05871 0
M  V30 1813 H 317.682 -4.88748 5.21323 0
M  V30 1814 H 315.848 -5.66789 7.0643 0
M  V30 1815 P 317.718 -7.20834 5.23717 0
M  V30 1816 O 317.938 -8.66104 5.38572 0
M  V30 1817 O 318.508 -6.33544 6.1349 0
M  V30 1818 O 317.968 -6.7751 3.72168 0
M  V30 1819 C 317.028 -7.20825 2.7076 0
M  V30 1820 C 317.758 -7.45864 1.40599 0
M  V30 1821 O 317.968 -6.17651 0.734225 0
M  V30 1822 C 319.158 -8.05808 1.51899 0
M  V30 1823 O 319.548 -8.74358 0.335205 0
M  V30 1824 C 320.038 -6.83093 1.70294 0
M  V30 1825 C 319.328 -5.79992 0.836974 0
M  V30 1826 N 319.378 -4.41864 1.38293 0
M  V30 1827 H 316.539 -8.13644 3.0377 0
M  V30 1828 H 316.269 -6.42788 2.55485 0
M  V30 1829 H 317.136 -8.12039 0.792769 0
M  V30 1830 P 321.098 -8.91 -1.34042e-12 0
M  V30 1831 O 321.318 -10.1726 -0.733694 0
M  V30 1832 O 321.888 -8.73148 1.23936 0
M  V30 1833 O 321.348 -7.66872 -0.971405 0
M  V30 1834 C 320.408 -7.42309 -2.04641 0
M  V30 1835 C 321.138 -6.86059 -3.24661 0
M  V30 1836 O 321.348 -5.42847 -3.03646 0
M  V30 1837 C 322.538 -7.41196 -3.50753 0
M  V30 1838 O 322.928 -7.27073 -4.86816 0
M  V30 1839 C 323.418 -6.5273 -2.63741 0
M  V30 1840 C 322.708 -5.1842 -2.73198 0
M  V30 1841 N 322.758 -4.38762 -1.4784 0
M  V30 1842 H 319.919 -8.36803 -2.32493 0
M  V30 1843 H 319.649 -6.70197 -1.71129 0
M  V30 1844 H 320.516 -7.03551 -4.13168 0
M  V30 1845 P 324.478 -7.20834 -5.23717 0
M  V30 1846 O 324.698 -7.79853 -6.57286 0
M  V30 1847 O 325.268 -7.79239 -4.12957 0
M  V30 1848 O 324.728 -5.63315 -5.29344 0
M  V30 1849 C 323.788 -4.80255 -6.01876 0
M  V30 1850 C 324.518 -3.64202 -6.65911 0
M  V30 1851 O 324.728 -2.60694 -5.64732 0
M  V30 1852 C 325.918 -3.93473 -7.1943 0
M  V30 1853 O 326.308 -3.02071 -8.21205 0
M  V30 1854 C 326.798 -3.73047 -5.97036 0
M  V30 1855 C 326.088 -2.58828 -5.25741 0
M  V30 1856 N 326.138 -2.68068 -3.77503 0
M  V30 1857 H 323.299 -5.40332 -6.79951 0
M  V30 1858 H 323.029 -4.41613 -5.32378 0
M  V30 1859 H 323.896 -3.26331 -7.47797 0
M  V30 1860 P 327.858 -2.75334 -8.47391 0
M  V30 1861 O 328.078 -2.44571 -9.90142 0
M  V30 1862 O 328.648 -3.87688 -7.92115 0
M  V30 1863 O 328.108 -1.4459 -7.59357 0
M  V30 1864 C 327.168 -0.347608 -7.69215 0
M  V30 1865 C 327.898 0.96767 -7.52806 0
M  V30 1866 O 328.108 1.21036 -6.1011 0
M  V30 1867 C 329.298 1.04544 -8.13308 0
M  V30 1868 O 329.688 2.38311 -8.41922 0
M  V30 1869 C 330.178 0.491279 -7.02284 0
M  V30 1870 C 329.468 0.996264 -5.77469 0
M  V30 1871 N 329.518 0.0501916 -4.62973 0
M  V30 1872 H 326.679 -0.374722 -8.67691 0
M  V30 1873 H 326.409 -0.443485 -6.90277 0
M  V30 1874 H 327.276 1.75537 -7.96793 0
M  V30 1875 P 331.238 2.75334 -8.47391 0
M  V30 1876 O 331.458 3.84128 -9.44797 0
M  V30 1877 O 332.028 1.51947 -8.68712 0
M  V30 1878 O 331.488 3.29363 -6.99321 0
M  V30 1879 C 330.548 4.24011 -6.4274 0
M  V30 1880 C 331.278 5.20775 -5.52155 0
M  V30 1881 O 331.488 4.56534 -4.22446 0
M  V30 1882 C 332.678 5.62629 -5.96531 0
M  V30 1883 O 333.068 6.87667 -5.41053 0
M  V30 1884 C 333.558 4.52537 -5.39283 0
M  V30 1885 C 332.848 4.20027 -4.08623 0
M  V30 1886 N 332.898 2.76189 -3.71603 0
M  V30 1887 H 330.059 4.797 -7.24003 0
M  V30 1888 H 329.789 3.69856 -5.84513 0
M  V30 1889 H 330.656 6.10356 -5.41441 0
M  V30 1890 P 334.618 7.20834 -5.23717 0
M  V30 1891 O 334.838 8.66104 -5.38572 0
M  V30 1892 O 335.408 6.33544 -6.1349 0
M  V30 1893 O 334.868 6.7751 -3.72168 0
M  V30 1894 C 333.928 7.20825 -2.7076 0
M  V30 1895 C 334.658 7.45864 -1.40599 0
M  V30 1896 O 334.868 6.17651 -0.734225 0
M  V30 1897 C 336.058 8.05808 -1.51899 0
M  V30 1898 O 336.448 8.74358 -0.335205 0
M  V30 1899 C 336.938 6.83093 -1.70294 0
M  V30 1900 C 336.228 5.79992 -0.836974 0
M  V30 1901 N 336.278 4.41864 -1.38293 0
M  V30 1902 H 333.439 8.13644 -3.0377 0
M  V30 1903 H 333.169 6.42788 -2.55485 0
M  V30 1904 H 334.036 8.12039 -0.792769 0
M  V30 1905 P 337.998 8.91 1.4976e-12 0
M  V30 1906 O 338.218 10.1726 0.733694 0
M  V30 1907 O 338.788 8.73148 -1.23936 0
M  V30 1908 O 338.248 7.66872 0.971405 0
M  V30 1909 C 337.308 7.42309 2.04641 0
M  V30 1910 C 338.038 6.86059 3.24661 0
M  V30 1911 O 338.248 5.42847 3.03646 0
M  V30 1912 C 339.438 7.41196 3.50753 0
M  V30 1913 O 339.828 7.27073 4.86816 0
M  V30 1914 C 340.318 6.5273 2.63741 0
M  V30 1915 C 339.608 5.1842 2.73198 0
M  V30 1916 N 339.658 4.38762 1.4784 0
M  V30 1917 C 339.578 4.81605 0.168631 0
M  V30 1918 N 339.658 3.85454 -0.713363 0
M  V30 1919 C 339.798 2.6994 0.0566958 0
M  V30 1920 C 339.928 1.34815 -0.338502 0
M  V30 1921 N 340.048 0.496304 0.77465 0
M  V30 1922 C 340.048 0.908403 2.09122 0
M  V30 1923 N 340.178 -0.0517805 3.00955 0
M  V30 1924 N 339.918 2.17875 2.46519 0
M  V30 1925 C 339.798 3.01988 1.4033 0
M  V30 1926 H 336.819 8.36803 2.32493 0
M  V30 1927 H 336.549 6.70197 1.71129 0
M  V30 1928 H 337.416 7.03551 4.13168 0
M  V30 1929 P 341.378 7.20834 5.23717 0
M  V30 1930 O 341.598 7.79853 6.57286 0
M  V30 1931 O 342.168 7.79239 4.12957 0
M  V30 1932 O 341.628 5.63315 5.29344 0
M  V30 1933 C 340.688 4.80255 6.01876 0
M  V30 1934 C 341.418 3.64202 6.65911 0
M  V30 1935 O 341.628 2.60694 5.64732 0
M  V30 1936 C 342.818 3.93473 7.1943 0
M  V30 1937 O 343.208 3.02071 8.21205 0
M  V30 1938 C 343.698 3.73047 5.97036 0
M  V30 1939 C 342.988 2.58828 5.25741 0
M  V30 1940 N 343.038 2.68068 3.77503 0
M  V30 1941 H 340.199 5.40332 6.79951 0
M  V30 1942 H 339.929 4.41613 5.32378 0
M  V30 1943 H 340.796 3.26331 7.47797 0
M  V30 1944 P 344.758 2.75334 8.47391 0
M  V30 1945 O 344.978 2.44571 9.90142 0
M  V30 1946 O 345.548 3.87688 7.92115 0
M  V30 1947 O 345.008 1.4459 7.59357 0
M  V30 1948 C 344.068 0.347608 7.69215 0
M  V30 1949 C 344.798 -0.96767 7.52806 0
M  V30 1950 O 345.008 -1.21036 6.1011 0
M  V30 1951 C 346.198 -1.04544 8.13308 0
M  V30 1952 O 346.588 -2.38311 8.41922 0
M  V30 1953 C 347.078 -0.491279 7.02284 0
M  V30 1954 C 346.368 -0.996264 5.77469 0
M  V30 1955 N 346.418 -0.0501916 4.62973 0
M  V30 1956 H 343.579 0.374722 8.67691 0
M  V30 1957 H 343.309 0.443485 6.90277 0
M  V30 1958 H 344.176 -1.75537 7.96793 0
M  V30 1959 P 348.138 -2.75334 8.47391 0
M  V30 1960 O 348.358 -3.84128 9.44797 0
M  V30 1961 O 348.928 -1.51947 8.68712 0
M  V30 1962 O 348.388 -3.29363 6.99321 0
M  V30 1963 C 347.448 -4.24011 6.4274 0
M  V30 1964 C 348.178 -5.20775 5.52155 0
M  V30 1965 O 348.388 -4.56534 4.22446 0
M  V30 1966 C 349.578 -5.62629 5.96531 0
M  V30 1967 O 349.968 -6.87667 5.41053 0
M  V30 1968 C 350.458 -4.52537 5.39283 0
M  V30 1969 C 349.748 -4.20027 4.08623 0
M  V30 1970 N 349.798 -2.76189 3.71603 0
M  V30 1971 C 349.718 -1.64862 4.52822 0
M  V30 1972 N 349.798 -0.512671 3.88633 0
M  V30 1973 C 349.938 -0.888083 2.54977 0
M  V30 1974 C 350.068 -0.094668 1.38677 0
M  V30 1975 N 350.188 -0.890102 0.232633 0
M  V30 1976 C 350.188 -2.26958 0.21772 0
M  V30 1977 N 350.318 -2.84626 -0.97925 0
M  V30 1978 N 350.058 -3.0178 1.31033 0
M  V30 1979 C 349.938 -2.26781 2.43843 0
M  V30 1980 H 346.959 -4.797 7.24003 0
M  V30 1981 H 346.689 -3.69856 5.84513 0
M  V30 1982 H 347.556 -6.10356 5.41441 0
M  V30 1983 P 351.518 -7.20834 5.23717 0
M  V30 1984 O 351.738 -8.66274 5.38678 0
M  V30 1985 O 352.308 -6.33687 6.13629 0
M  V30 1986 O 351.768 -6.7751 3.72168 0
M  V30 1987 C 350.828 -7.20919 2.70795 0
M  V30 1988 C 351.558 -7.45864 1.40599 0
M  V30 1989 O 351.768 -6.17751 0.734343 0
M  V30 1990 C 352.958 -8.05906 1.51917 0
M  V30 1991 O 353.348 -8.74358 0.335205 0
M  V30 1992 C 353.838 -6.83093 1.70294 0
M  V30 1993 C 353.128 -5.79992 0.836974 0
M  V30 1994 N 353.178 -4.41864 1.38293 0
M  V30 1995 H 350.34 -8.13738 3.03804 0
M  V30 1996 H 350.068 -6.42974 2.55559 0
M  V30 1997 H 350.936 -8.12139 0.792866 0
M  V30 1998 H 353.591 -5.80178 -0.160643 0
M  V30 1999 H 353.871 -6.51379 2.75643 0
M  V30 2000 H 354.862 -7.01832 1.3448 0
M  V30 2001 H 353.028 -8.73771 2.38364 0
M  V30 2002 P 354.898 -8.91 -1.65478e-12 0
M  V30 2003 O 355.118 -10.1736 -0.733766 0
M  V30 2004 O 355.688 -8.73247 1.2395 0
M  V30 2005 O 355.148 -7.66872 -0.971405 0
M  V30 2006 C 354.208 -7.42212 -2.04614 0
M  V30 2007 C 354.938 -6.86059 -3.24661 0
M  V30 2008 O 355.148 -5.42847 -3.03646 0
M  V30 2009 C 356.338 -7.41196 -3.50753 0
M  V30 2010 O 356.728 -7.27073 -4.86816 0
M  V30 2011 C 357.218 -6.5273 -2.63741 0
M  V30 2012 C 356.508 -5.1842 -2.73198 0
M  V30 2013 N 356.558 -4.38668 -1.47808 0
M  V30 2014 C 356.708 -3.02239 -1.60048 0
M  V30 2015 O 356.798 -2.46459 -2.67869 0
M  V30 2016 N 356.748 -2.32436 -0.408571 0
M  V30 2017 C 356.658 -2.85471 0.854993 0
M  V30 2018 C 356.508 -4.28918 0.887335 0
M  V30 2019 C 356.458 -5.00349 -0.255399 0
M  V30 2020 H 353.718 -8.36803 -2.32493 0
M  V30 2021 H 353.449 -6.701 -1.71105 0
M  V30 2022 H 354.316 -7.03551 -4.13168 0
M  V30 2023 H 356.971 -4.59773 -3.53894 0
M  V30 2024 H 357.25 -6.88995 -1.59871 0
M  V30 2025 H 358.242 -6.46749 -3.03687 0
M  V30 2026 H 356.408 -8.46908 -3.20714 0
M  V30 2027 H 356.337 -6.08548 -0.206986 0
M  V30 2028 P 358.278 -7.20834 -5.23717 0
M  V30 2029 O 358.498 -7.79853 -6.57286 0
M  V30 2030 O 359.068 -7.79239 -4.12957 0
M  V30 2031 O 358.528 -5.63315 -5.29344 0
M  V30 2032 C 357.588 -4.80255 -6.01876 0
M  V30 2033 C 358.318 -3.64202 -6.65911 0
M  V30 2034 O 358.528 -2.60694 -5.64732 0
M  V30 2035 C 359.718 -3.93473 -7.1943 0
M  V30 2036 O 360.108 -3.02071 -8.21205 0
M  V30 2037 C 360.598 -3.73047 -5.97036 0
M  V30 2038 C 359.888 -2.58828 -5.25741 0
M  V30 2039 N 359.938 -2.68068 -3.77503 0
M  V30 2040 H 357.099 -5.40332 -6.79951 0
M  V30 2041 H 356.829 -4.41613 -5.32378 0
M  V30 2042 H 357.696 -3.26331 -7.47797 0
M  V30 2043 P 361.658 -2.75334 -8.47391 0
M  V30 2044 O 361.878 -2.44619 -9.90336 0
M  V30 2045 O 362.448 -3.87776 -7.92294 0
M  V30 2046 O 361.908 -1.4459 -7.59357 0
M  V30 2047 C 360.968 -0.347653 -7.69315 0
M  V30 2048 C 361.698 0.96767 -7.52806 0
M  V30 2049 O 361.908 1.21055 -6.10208 0
M  V30 2050 C 363.098 1.04557 -8.13408 0
M  V30 2051 O 363.488 2.38311 -8.41922 0
M  V30 2052 C 363.978 0.491279 -7.02284 0
M  V30 2053 C 363.268 0.996264 -5.77469 0
M  V30 2054 N 363.318 0.0501916 -4.62973 0
M  V30 2055 H 360.48 -0.374765 -8.67791 0
M  V30 2056 H 360.208 -0.443613 -6.90476 0
M  V30 2057 H 361.076 1.75559 -7.96891 0
M  V30 2058 H 363.731 1.94563 -5.46818 0
M  V30 2059 H 364.011 -0.608651 -7.04676 0
M  V30 2060 H 365.002 0.889796 -7.09039 0
M  V30 2061 H 363.168 0.433128 -9.04664 0
M  V30 2062 P 365.038 2.75334 -8.47391 0
M  V30 2063 O 365.258 3.84128 -9.44797 0
M  V30 2064 O 365.828 1.51947 -8.68712 0
M  V30 2065 O 365.288 3.29363 -6.99321 0
M  V30 2066 C 364.348 4.24011 -6.4274 0
M  V30 2067 C 365.078 5.20775 -5.52155 0
M  V30 2068 O 365.288 4.56534 -4.22446 0
M  V30 2069 C 366.478 5.62629 -5.96531 0
M  V30 2070 O 366.868 6.87667 -5.41053 0
M  V30 2071 C 367.358 4.52537 -5.39283 0
M  V30 2072 C 366.648 4.20027 -4.08623 0
M  V30 2073 N 366.698 2.76189 -3.71603 0
M  V30 2074 H 363.859 4.797 -7.24003 0
M  V30 2075 H 363.589 3.69856 -5.84513 0
M  V30 2076 H 364.456 6.10356 -5.41441 0
M  V30 2077 P 368.418 7.20834 -5.23717 0
M  V30 2078 O 368.638 8.66104 -5.38572 0
M  V30 2079 O 369.208 6.33544 -6.1349 0
M  V30 2080 O 368.668 6.7751 -3.72168 0
M  V30 2081 C 367.728 7.20825 -2.7076 0
M  V30 2082 C 368.458 7.45864 -1.40599 0
M  V30 2083 O 368.668 6.17651 -0.734225 0
M  V30 2084 C 369.858 8.05808 -1.51899 0
M  V30 2085 O 370.248 8.74358 -0.335205 0
M  V30 2086 C 370.738 6.83093 -1.70294 0
M  V30 2087 C 370.028 5.79992 -0.836974 0
M  V30 2088 N 370.078 4.41864 -1.38293 0
M  V30 2089 C 369.998 3.99538 -2.69438 0
M  V30 2090 N 370.078 2.69909 -2.84277 0
M  V30 2091 C 370.218 2.21719 -1.5408 0
M  V30 2092 C 370.348 0.891712 -1.06628 0
M  V30 2093 O 370.368 -0.161298 -1.70137 0
M  V30 2094 N 370.468 0.856846 0.334985 0
M  V30 2095 C 370.468 1.9641 1.15789 0
M  V30 2096 N 370.598 1.72708 2.46522 0
M  V30 2097 N 370.338 3.21165 0.713741 0
M  V30 2098 C 370.218 3.26797 -0.639748 0
M  V30 2099 H 367.239 8.13644 -3.0377 0
M  V30 2100 H 366.969 6.42788 -2.55485 0
M  V30 2101 H 367.836 8.12039 -0.792769 0
M  V30 2102 H 370.491 5.80061 0.166416 0
M  V30 2103 H 370.77 6.51287 -2.75604 0
M  V30 2104 H 371.762 7.01734 -1.34462 0
M  V30 2105 H 369.928 8.73674 -2.38337 0
M  V30 2106 H 369.879 4.68207 -3.53221 0
M  V30 2107 H 370.561 -0.0398818 0.767965 0
M  V30 2108 H 370.598 2.50995 3.13503 0
M  V30 2109 H 370.699 0.759148 2.80716 0
M  V30 2110 P 371.798 8.91 1.81197e-12 0
M  V30 2111 O 372.018 10.1726 0.733694 0
M  V30 2112 O 372.588 8.73148 -1.23936 0
M  V30 2113 O 372.048 7.66872 0.971405 0
M  V30 2114 C 371.108 7.42309 2.04641 0
M  V30 2115 C 371.838 6.86059 3.24661 0
M  V30 2116 O 372.048 5.42847 3.03646 0
M  V30 2117 C 373.238 7.41196 3.50753 0
M  V30 2118 O 373.628 7.27073 4.86816 0
M  V30 2119 C 374.118 6.5273 2.63741 0
M  V30 2120 C 373.408 5.1842 2.73198 0
M  V30 2121 N 373.458 4.38762 1.4784 0
M  V30 2122 H 370.619 8.36803 2.32493 0
M  V30 2123 H 370.349 6.70197 1.71129 0
M  V30 2124 H 371.216 7.03551 4.13168 0
M  V30 2125 P 375.178 7.20834 5.23717 0
M  V30 2126 O 375.398 7.80006 6.57415 0
M  V30 2127 O 375.968 7.79416 4.13051 0
M  V30 2128 O 375.428 5.63315 5.29344 0
M  V30 2129 C 374.488 4.80318 6.01954 0
M  V30 2130 C 375.218 3.64202 6.65911 0
M  V30 2131 O 375.428 2.60736 5.64823 0
M  V30 2132 C 376.618 3.93521 7.19518 0
M  V30 2133 O 377.008 3.02071 8.21205 0
M  V30 2134 C 377.498 3.73047 5.97036 0
M  V30 2135 C 376.788 2.58828 5.25741 0
M  V30 2136 N 376.838 2.68068 3.77503 0
M  V30 2137 H 374 5.40394 6.8003 0
M  V30 2138 H 373.728 4.41741 5.32532 0
M  V30 2139 H 374.596 3.26371 7.47889 0
M  V30 2140 H 377.251 1.64007 5.56746 0
M  V30 2141 H 377.531 4.63439 5.3432 0
M  V30 2142 H 378.522 3.44776 6.25925 0
M  V30 2143 H 376.688 4.96707 7.57347 0
M  V30 2144 P 378.558 2.75334 8.47391 0
M  V30 2145 O 378.778 2.44595 9.90239 0
M  V30 2146 O 379.348 3.87732 7.92204 0
M  V30 2147 O 378.808 1.4459 7.59357 0
M  V30 2148 C 377.868 0.347563 7.69115 0
M  V30 2149 C 378.598 -0.96767 7.52806 0
M  V30 2150 O 378.808 -1.21036 6.1011 0
M  V30 2151 C 379.998 -1.04544 8.13308 0
M  V30 2152 O 380.388 -2.38311 8.41922 0
M  V30 2153 C 380.878 -0.491279 7.02284 0
M  V30 2154 C 380.168 -0.996264 5.77469 0
M  V30 2155 N 380.218 -0.0501808 4.62873 0
M  V30 2156 C 380.368 -0.588177 3.36904 0
M  V30 2157 O 380.458 -1.78598 3.17173 0
M  V30 2158 N 380.408 0.329694 2.33686 0
M  V30 2159 C 380.318 1.6953 2.45079 0
M  V30 2160 O 380.368 2.41926 1.44899 0
M  V30 2161 C 380.168 2.16933 3.80505 0
M  V30 2162 C 380.058 3.65373 3.97621 0
M  V30 2163 C 380.118 1.30326 4.83752 0
M  V30 2164 H 377.378 0.374722 8.67691 0
M  V30 2165 H 377.109 0.443421 6.90177 0
M  V30 2166 H 377.976 -1.75537 7.96793 0
M  V30 2167 H 380.631 -1.94496 5.46629 0
M  V30 2168 H 380.91 0.608651 7.04676 0
M  V30 2169 H 381.902 -0.889672 7.08939 0
M  V30 2170 H 380.068 -0.43308 9.04564 0
M  V30 2171 H 379.997 1.68366 5.8516 0
M  V30 2172 H 381.027 4.05985 4.30448 0
M  V30 2173 H 379.29 3.88028 4.72875 0
M  V30 2174 H 379.778 4.11381 3.01609 0
M  V30 2175 H 380.514 -0.0393617 1.41345 0
M  V30 2176 P 381.938 -2.75334 8.47391 0
M  V30 2177 O 382.158 -3.84166 9.4489 0
M  V30 2178 O 382.728 -1.51964 8.6881 0
M  V30 2179 O 382.188 -3.29363 6.99321 0
M  V30 2180 C 381.248 -4.23956 6.42656 0
M  V30 2181 C 381.978 -5.20775 5.52155 0
M  V30 2182 O 382.188 -4.56534 4.22446 0
M  V30 2183 C 383.378 -5.62629 5.96531 0
M  V30 2184 O 383.768 -6.87667 5.41053 0
M  V30 2185 C 384.258 -4.52537 5.39283 0
M  V30 2186 C 383.548 -4.20027 4.08623 0
M  V30 2187 N 383.598 -2.7613 3.71522 0
M  V30 2188 C 383.748 -2.45612 2.37989 0
M  V30 2189 O 383.838 -3.30919 1.51621 0
M  V30 2190 N 383.788 -1.10684 2.08435 0
M  V30 2191 C 383.698 -0.0690084 2.9792 0
M  V30 2192 C 383.548 -0.481522 4.35345 0
M  V30 2193 C 383.498 -1.78906 4.67968 0
M  V30 2194 H 380.758 -4.797 7.24003 0
M  V30 2195 H 380.489 -3.69802 5.84429 0
M  V30 2196 H 381.356 -6.10356 5.41441 0
M  V30 2197 H 384.011 -4.78651 3.27911 0
M  V30 2198 H 384.29 -3.64957 6.05871 0
M  V30 2199 H 385.282 -4.8868 5.2125 0
M  V30 2200 H 383.448 -5.66726 7.06352 0
M  V30 2201 H 383.377 -2.07737 5.72367 0
M  V30 2202 P 385.318 -7.20834 5.23717 0
M  V30 2203 O 385.538 -8.66104 5.38572 0
M  V30 2204 O 386.108 -6.33544 6.1349 0
M  V30 2205 O 385.568 -6.7751 3.72168 0
M  V30 2206 C 384.628 -7.20825 2.7076 0
M  V30 2207 C 385.358 -7.45864 1.40599 0
M  V30 2208 O 385.568 -6.17651 0.734225 0
M  V30 2209 C 386.758 -8.05808 1.51899 0
M  V30 2210 O 387.148 -8.74358 0.335205 0
M  V30 2211 C 387.638 -6.83093 1.70294 0
M  V30 2212 C 386.928 -5.79992 0.836974 0
M  V30 2213 N 386.978 -4.41864 1.38293 0
M  V30 2214 H 384.139 -8.13644 3.0377 0
M  V30 2215 H 383.869 -6.42788 2.55485 0
M  V30 2216 H 384.736 -8.12039 0.792769 0
M  V30 2217 P 388.698 -8.91 -1.96915e-12 0
M  V30 2218 O 388.918 -10.1726 -0.733694 0
M  V30 2219 O 389.488 -8.73148 1.23936 0
M  V30 2220 O 388.948 -7.66872 -0.971405 0
M  V30 2221 C 388.008 -7.42309 -2.04641 0
M  V30 2222 C 388.738 -6.86059 -3.24661 0
M  V30 2223 O 388.948 -5.42847 -3.03646 0
M  V30 2224 C 390.138 -7.41196 -3.50753 0
M  V30 2225 O 390.528 -7.27073 -4.86816 0
M  V30 2226 C 391.018 -6.5273 -2.63741 0
M  V30 2227 C 390.308 -5.1842 -2.73198 0
M  V30 2228 N 390.358 -4.38762 -1.4784 0
M  V30 2229 C 390.278 -4.81605 -0.168631 0
M  V30 2230 N 390.358 -3.85454 0.713363 0
M  V30 2231 C 390.498 -2.6994 -0.0566958 0
M  V30 2232 C 390.628 -1.34815 0.338502 0
M  V30 2233 N 390.748 -0.496304 -0.77465 0
M  V30 2234 C 390.748 -0.908403 -2.09122 0
M  V30 2235 N 390.878 0.0517805 -3.00955 0
M  V30 2236 N 390.618 -2.17875 -2.46519 0
M  V30 2237 C 390.498 -3.01988 -1.4033 0
M  V30 2238 H 387.519 -8.36803 -2.32493 0
M  V30 2239 H 387.249 -6.70197 -1.71129 0
M  V30 2240 H 388.116 -7.03551 -4.13168 0
M  V30 2241 P 392.078 -7.20834 -5.23717 0
M  V30 2242 O 392.298 -7.80006 -6.57415 0
M  V30 2243 O 392.868 -7.79416 -4.13051 0
M  V30 2244 O 392.328 -5.63315 -5.29344 0
M  V30 2245 C 391.388 -4.80318 -6.01954 0
M  V30 2246 C 392.118 -3.64202 -6.65911 0
M  V30 2247 O 392.328 -2.60736 -5.64823 0
M  V30 2248 C 393.518 -3.93521 -7.19518 0
M  V30 2249 O 393.908 -3.02071 -8.21205 0
M  V30 2250 C 394.398 -3.73047 -5.97036 0
M  V30 2251 C 393.688 -2.58828 -5.25741 0
M  V30 2252 N 393.738 -2.68068 -3.77503 0
M  V30 2253 H 390.9 -5.40394 -6.8003 0
M  V30 2254 H 390.628 -4.41741 -5.32532 0
M  V30 2255 H 391.496 -3.26371 -7.47889 0
M  V30 2256 H 394.151 -1.64007 -5.56746 0
M  V30 2257 H 394.431 -4.63439 -5.3432 0
M  V30 2258 H 395.422 -3.44776 -6.25925 0
M  V30 2259 H 393.588 -4.96707 -7.57347 0
M  V30 2260 P 395.458 -2.75334 -8.47391 0
M  V30 2261 O 395.678 -2.44571 -9.90142 0
M  V30 2262 O 396.248 -3.87688 -7.92115 0
M  V30 2263 O 395.708 -1.4459 -7.59357 0
M  V30 2264 C 394.768 -0.347608 -7.69215 0
M  V30 2265 C 395.498 0.96767 -7.52806 0
M  V30 2266 O 395.708 1.21036 -6.1011 0
M  V30 2267 C 396.898 1.04544 -8.13308 0
M  V30 2268 O 397.288 2.38311 -8.41922 0
M  V30 2269 C 397.778 0.491279 -7.02284 0
M  V30 2270 C 397.068 0.996264 -5.77469 0
M  V30 2271 N 397.118 0.0501916 -4.62973 0
M  V30 2272 H 394.279 -0.374722 -8.67691 0
M  V30 2273 H 394.009 -0.443485 -6.90277 0
M  V30 2274 H 394.876 1.75537 -7.96793 0
M  V30 2275 P 398.838 2.75334 -8.47391 0
M  V30 2276 O 399.058 3.84128 -9.44797 0
M  V30 2277 O 399.628 1.51947 -8.68712 0
M  V30 2278 O 399.088 3.29363 -6.99321 0
M  V30 2279 C 398.148 4.24011 -6.4274 0
M  V30 2280 C 398.878 5.20775 -5.52155 0
M  V30 2281 O 399.088 4.56534 -4.22446 0
M  V30 2282 C 400.278 5.62629 -5.96531 0
M  V30 2283 O 400.668 6.87667 -5.41053 0
M  V30 2284 C 401.158 4.52537 -5.39283 0
M  V30 2285 C 400.448 4.20027 -4.08623 0
M  V30 2286 N 400.498 2.76189 -3.71603 0
M  V30 2287 C 400.418 1.64862 -4.52822 0
M  V30 2288 N 400.498 0.512671 -3.88633 0
M  V30 2289 C 400.638 0.888083 -2.54977 0
M  V30 2290 C 400.768 0.094668 -1.38677 0
M  V30 2291 O 400.788 -1.13053 -1.28163 0
M  V30 2292 N 400.888 0.890102 -0.232633 0
M  V30 2293 C 400.888 2.26958 -0.21772 0
M  V30 2294 N 401.018 2.84626 0.97925 0
M  V30 2295 N 400.758 3.0178 -1.31033 0
M  V30 2296 C 400.638 2.26781 -2.43843 0
M  V30 2297 H 397.659 4.797 -7.24003 0
M  V30 2298 H 397.389 3.69856 -5.84513 0
M  V30 2299 H 398.256 6.10356 -5.41441 0
M  V30 2300 H 400.911 4.79061 -3.27488 0
M  V30 2301 H 401.19 3.64906 -6.05785 0
M  V30 2302 H 402.182 4.8868 -5.2125 0
M  V30 2303 H 400.348 5.66726 -7.06352 0
M  V30 2304 H 400.299 1.71169 -5.60966 0
M  V30 2305 H 400.981 0.419134 0.644739 0
M  V30 2306 H 401.018 3.87332 1.06098 0
M  V30 2307 H 401.119 2.26417 1.82483 0
M  V30 2308 P 402.218 7.20834 -5.23717 0
M  V30 2309 O 402.438 8.66189 -5.38625 0
M  V30 2310 O 403.008 6.33615 -6.1356 0
M  V30 2311 O 402.468 6.7751 -3.72168 0
M  V30 2312 C 401.528 7.20825 -2.7076 0
M  V30 2313 C 402.258 7.45864 -1.40599 0
M  V30 2314 O 402.468 6.17651 -0.734225 0
M  V30 2315 C 403.658 8.05808 -1.51899 0
M  V30 2316 O 404.048 8.74358 -0.335205 0
M  V30 2317 C 404.538 6.83093 -1.70294 0
M  V30 2318 C 403.828 5.79992 -0.836974 0
M  V30 2319 N 403.878 4.41769 -1.38263 0
M  V30 2320 C 404.028 3.36514 -0.485617 0
M  V30 2321 O 404.118 3.61814 0.724703 0
M  V30 2322 N 404.078 2.00746 -1.14492 0
M  V30 2323 C 403.978 1.85887 -2.27776 0
M  V30 2324 N 404.028 0.600907 -2.69379 0
M  V30 2325 C 403.828 2.92182 -3.22265 0
M  V30 2326 C 403.778 4.18399 -2.71925 0
M  V30 2327 H 401.038 8.1355 -3.03735 0
M  V30 2328 H 400.769 6.42695 -2.55448 0
M  V30 2329 H 401.636 8.12139 -0.792866 0
M  V30 2330 H 404.291 5.80078 0.160615 0
M  V30 2331 H 404.57 6.51379 -2.75643 0
M  V30 2332 H 405.562 7.01734 -1.34462 0
M  V30 2333 H 403.728 8.73674 -2.38337 0
M  V30 2334 H 403.656 5.02669 -3.39718 0
M  V30 2335 H 403.758 2.73001 -4.29239 0
M  V30 2336 H 404.146 -0.162318 -2.01146 0
M  V30 2337 H 403.949 0.387742 -3.69773 0
M  V30 2338 P 405.598 8.91 2.12633e-12 0
M  V30 2339 O 405.818 10.1726 0.733694 0
M  V30 2340 O 406.388 8.73148 -1.23936 0
M  V30 2341 O 405.848 7.66872 0.971405 0
M  V30 2342 C 404.908 7.42309 2.04641 0
M  V30 2343 C 405.638 6.86059 3.24661 0
M  V30 2344 O 405.848 5.42847 3.03646 0
M  V30 2345 C 407.038 7.41196 3.50753 0
M  V30 2346 O 407.428 7.27073 4.86816 0
M  V30 2347 C 407.918 6.5273 2.63741 0
M  V30 2348 C 407.208 5.1842 2.73198 0
M  V30 2349 N 407.258 4.38762 1.4784 0
M  V30 2350 H 404.419 8.36803 2.32493 0
M  V30 2351 H 404.149 6.70197 1.71129 0
M  V30 2352 H 405.016 7.03551 4.13168 0
M  V30 2353 P 408.978 7.20834 5.23717 0
M  V30 2354 O 409.198 7.79853 6.57286 0
M  V30 2355 O 409.768 7.79239 4.12957 0
M  V30 2356 O 409.228 5.63315 5.29344 0
M  V30 2357 C 408.288 4.80255 6.01876 0
M  V30 2358 C 409.018 3.64202 6.65911 0
M  V30 2359 O 409.228 2.60694 5.64732 0
M  V30 2360 C 410.418 3.93473 7.1943 0
M  V30 2361 O 410.808 3.02071 8.21205 0
M  V30 2362 C 411.298 3.73047 5.97036 0
M  V30 2363 C 410.588 2.58828 5.25741 0
M  V30 2364 N 410.638 2.68068 3.77503 0
M  V30 2365 H 407.799 5.40332 6.79951 0
M  V30 2366 H 407.529 4.41613 5.32378 0
M  V30 2367 H 408.396 3.26331 7.47797 0
M  V30 2368 P 412.358 2.75334 8.47391 0
M  V30 2369 O 412.578 2.44571 9.90142 0
M  V30 2370 O 413.148 3.87688 7.92115 0
M  V30 2371 O 412.608 1.4459 7.59357 0
M  V30 2372 C 411.668 0.347608 7.69215 0
M  V30 2373 C 412.398 -0.96767 7.52806 0
M  V30 2374 O 412.608 -1.21036 6.1011 0
M  V30 2375 C 413.798 -1.04544 8.13308 0
M  V30 2376 O 414.188 -2.38311 8.41922 0
M  V30 2377 C 414.678 -0.491279 7.02284 0
M  V30 2378 C 413.968 -0.996264 5.77469 0
M  V30 2379 N 414.018 -0.0501916 4.62973 0
M  V30 2380 H 411.179 0.374722 8.67691 0
M  V30 2381 H 410.909 0.443485 6.90277 0
M  V30 2382 H 411.776 -1.75537 7.96793 0
M  V30 2383 P 415.738 -2.75334 8.47391 0
M  V30 2384 O 415.958 -3.84128 9.44797 0
M  V30 2385 O 416.528 -1.51947 8.68712 0
M  V30 2386 O 415.988 -3.29363 6.99321 0
M  V30 2387 C 415.048 -4.24011 6.4274 0
M  V30 2388 C 415.778 -5.20775 5.52155 0
M  V30 2389 O 415.988 -4.56534 4.22446 0
M  V30 2390 C 417.178 -5.62629 5.96531 0
M  V30 2391 O 417.568 -6.87667 5.41053 0
M  V30 2392 C 418.058 -4.52537 5.39283 0
M  V30 2393 C 417.348 -4.20027 4.08623 0
M  V30 2394 N 417.398 -2.76189 3.71603 0
M  V30 2395 H 414.559 -4.797 7.24003 0
M  V30 2396 H 414.289 -3.69856 5.84513 0
M  V30 2397 H 415.156 -6.10356 5.41441 0
M  V30 2398 P 419.118 -7.20834 5.23717 0
M  V30 2399 O 419.338 -8.66104 5.38572 0
M  V30 2400 O 419.908 -6.33544 6.1349 0
M  V30 2401 O 419.368 -6.7751 3.72168 0
M  V30 2402 C 418.428 -7.20825 2.7076 0
M  V30 2403 C 419.158 -7.45864 1.40599 0
M  V30 2404 O 419.368 -6.17651 0.734225 0
M  V30 2405 C 420.558 -8.05808 1.51899 0
M  V30 2406 O 420.948 -8.74358 0.335205 0
M  V30 2407 C 421.438 -6.83093 1.70294 0
M  V30 2408 C 420.728 -5.79992 0.836974 0
M  V30 2409 N 420.778 -4.41864 1.38293 0
M  V30 2410 H 417.939 -8.13644 3.0377 0
M  V30 2411 H 417.669 -6.42788 2.55485 0
M  V30 2412 H 418.536 -8.12039 0.792769 0
M  V30 2413 P 422.497 -8.91 -2.28351e-12 0
M  V30 2414 O 422.717 -10.1726 -0.733694 0
M  V30 2415 O 423.287 -8.73148 1.23936 0
M  V30 2416 O 422.747 -7.66872 -0.971405 0
M  V30 2417 C 421.807 -7.42309 -2.04641 0
M  V30 2418 C 422.537 -6.86059 -3.24661 0
M  V30 2419 O 422.747 -5.42847 -3.03646 0
M  V30 2420 C 423.937 -7.41196 -3.50753 0
M  V30 2421 O 424.327 -7.27073 -4.86816 0
M  V30 2422 C 424.817 -6.5273 -2.63741 0
M  V30 2423 C 424.107 -5.1842 -2.73198 0
M  V30 2424 N 424.157 -4.38762 -1.4784 0
M  V30 2425 C 424.077 -4.81605 -0.168631 0
M  V30 2426 N 424.157 -3.85454 0.713363 0
M  V30 2427 C 424.297 -2.6994 -0.0566958 0
M  V30 2428 C 424.427 -1.34815 0.338502 0
M  V30 2429 O 424.447 -0.869548 1.47125 0
M  V30 2430 N 424.547 -0.496304 -0.77465 0
M  V30 2431 C 424.547 -0.908403 -2.09122 0
M  V30 2432 N 424.677 0.0517805 -3.00955 0
M  V30 2433 N 424.417 -2.17875 -2.46519 0
M  V30 2434 C 424.297 -3.01988 -1.4033 0
M  V30 2435 H 421.318 -8.36803 -2.32493 0
M  V30 2436 H 421.048 -6.70197 -1.71129 0
M  V30 2437 H 421.915 -7.03551 -4.13168 0
M  V30 2438 H 424.57 -4.59498 -3.54415 0
M  V30 2439 H 424.849 -6.88898 -1.59848 0
M  V30 2440 H 425.841 -6.46749 -3.03687 0
M  V30 2441 H 424.007 -8.46908 -3.20714 0
M  V30 2442 H 423.958 -5.86405 0.105564 0
M  V30 2443 H 424.64 0.483664 -0.597855 0
M  V30 2444 H 424.677 -0.187865 -4.0116 0
M  V30 2445 H 424.778 1.03585 -2.71726 0
M  V30 2446 P 425.877 -7.20834 -5.23717 0
M  V30 2447 O 426.097 -7.79853 -6.57286 0
M  V30 2448 O 426.667 -7.79239 -4.12957 0
M  V30 2449 O 426.127 -5.63315 -5.29344 0
M  V30 2450 C 425.187 -4.80255 -6.01876 0
M  V30 2451 C 425.917 -3.64202 -6.65911 0
M  V30 2452 O 426.127 -2.60694 -5.64732 0
M  V30 2453 C 427.317 -3.93473 -7.1943 0
M  V30 2454 O 427.707 -3.02071 -8.21205 0
M  V30 2455 C 428.197 -3.73047 -5.97036 0
M  V30 2456 C 427.487 -2.58828 -5.25741 0
M  V30 2457 N 427.537 -2.68068 -3.77503 0
M  V30 2458 H 424.698 -5.40332 -6.79951 0
M  V30 2459 H 424.428 -4.41613 -5.32378 0
M  V30 2460 H 425.295 -3.26331 -7.47797 0
M  V30 2461 P 429.257 -2.75334 -8.47391 0
M  V30 2462 O 429.477 -2.44595 -9.90239 0
M  V30 2463 O 430.047 -3.87732 -7.92204 0
M  V30 2464 O 429.507 -1.4459 -7.59357 0
M  V30 2465 C 428.567 -0.347563 -7.69115 0
M  V30 2466 C 429.297 0.96767 -7.52806 0
M  V30 2467 O 429.507 1.21036 -6.1011 0
M  V30 2468 C 430.697 1.04544 -8.13308 0
M  V30 2469 O 431.087 2.38311 -8.41922 0
M  V30 2470 C 431.577 0.491279 -7.02284 0
M  V30 2471 C 430.867 0.996264 -5.77469 0
M  V30 2472 N 430.917 0.0501808 -4.62873 0
M  V30 2473 C 431.067 0.588177 -3.36904 0
M  V30 2474 O 431.157 1.78598 -3.17173 0
M  V30 2475 N 431.107 -0.329694 -2.33686 0
M  V30 2476 C 431.017 -1.6953 -2.45079 0
M  V30 2477 O 431.067 -2.41926 -1.44899 0
M  V30 2478 C 430.867 -2.16933 -3.80505 0
M  V30 2479 C 430.757 -3.65373 -3.97621 0
M  V30 2480 C 430.817 -1.30326 -4.83752 0
M  V30 2481 H 428.077 -0.374722 -8.67691 0
M  V30 2482 H 427.808 -0.443421 -6.90177 0
M  V30 2483 H 428.675 1.75537 -7.96793 0
M  V30 2484 H 431.33 1.94496 -5.46629 0
M  V30 2485 H 431.609 -0.608651 -7.04676 0
M  V30 2486 H 432.601 0.889672 -7.08939 0
M  V30 2487 H 430.767 0.43308 -9.04564 0
M  V30 2488 H 430.696 -1.68366 -5.8516 0
M  V30 2489 H 431.726 -4.05985 -4.30448 0
M  V30 2490 H 429.989 -3.88028 -4.72875 0
M  V30 2491 H 430.477 -4.11381 -3.01609 0
M  V30 2492 H 431.213 0.0393617 -1.41345 0
M  V30 2493 P 432.637 2.75334 -8.47391 0
M  V30 2494 O 432.857 3.84166 -9.4489 0
M  V30 2495 O 433.427 1.51964 -8.6881 0
M  V30 2496 O 432.887 3.29363 -6.99321 0
M  V30 2497 C 431.947 4.23956 -6.42656 0
M  V30 2498 C 432.677 5.20775 -5.52155 0
M  V30 2499 O 432.887 4.56534 -4.22446 0
M  V30 2500 C 434.077 5.62629 -5.96531 0
M  V30 2501 O 434.467 6.87667 -5.41053 0
M  V30 2502 C 434.957 4.52537 -5.39283 0
M  V30 2503 C 434.247 4.20027 -4.08623 0
M  V30 2504 N 434.297 2.7613 -3.71522 0
M  V30 2505 C 434.447 2.45612 -2.37989 0
M  V30 2506 O 434.537 3.30919 -1.51621 0
M  V30 2507 N 434.487 1.10684 -2.08435 0
M  V30 2508 C 434.397 0.0690084 -2.9792 0
M  V30 2509 O 434.447 -1.10553 -2.59426 0
M  V30 2510 C 434.247 0.481522 -4.35345 0
M  V30 2511 C 434.137 -0.618778 -5.36443 0
M  V30 2512 C 434.197 1.78906 -4.67968 0
M  V30 2513 H 431.457 4.797 -7.24003 0
M  V30 2514 H 431.188 3.69802 -5.84429 0
M  V30 2515 H 432.055 6.10356 -5.41441 0
M  V30 2516 H 434.71 4.78651 -3.27911 0
M  V30 2517 H 434.989 3.64957 -6.05871 0
M  V30 2518 H 435.981 4.8868 -5.2125 0
M  V30 2519 H 434.147 5.66726 -7.06352 0
M  V30 2520 H 434.076 2.07737 -5.72367 0
M  V30 2521 H 435.106 -0.754375 -5.86871 0
M  V30 2522 H 433.369 -0.359721 -6.10641 0
M  V30 2523 H 433.857 -1.55533 -4.8581 0
M  V30 2524 H 434.593 0.862651 -1.12037 0
M  V30 2525 P 436.017 7.20834 -5.23717 0
M  V30 2526 O 436.237 8.66104 -5.38572 0
M  V30 2527 O 436.807 6.33544 -6.1349 0
M  V30 2528 O 436.267 6.7751 -3.72168 0
M  V30 2529 C 435.327 7.20825 -2.7076 0
M  V30 2530 C 436.057 7.45864 -1.40599 0
M  V30 2531 O 436.267 6.17651 -0.734225 0
M  V30 2532 C 437.457 8.05808 -1.51899 0
M  V30 2533 O 437.847 8.74358 -0.335205 0
M  V30 2534 C 438.337 6.83093 -1.70294 0
M  V30 2535 C 437.627 5.79992 -0.836974 0
M  V30 2536 N 437.677 4.41864 -1.38293 0
M  V30 2537 C 437.597 3.99538 -2.69438 0
M  V30 2538 N 437.677 2.69909 -2.84277 0
M  V30 2539 C 437.817 2.21719 -1.5408 0
M  V30 2540 C 437.947 0.891712 -1.06628 0
M  V30 2541 O 437.967 -0.161298 -1.70137 0
M  V30 2542 N 438.067 0.856846 0.334985 0
M  V30 2543 C 438.067 1.9641 1.15789 0
M  V30 2544 N 438.197 1.72708 2.46522 0
M  V30 2545 N 437.937 3.21165 0.713741 0
M  V30 2546 C 437.817 3.26797 -0.639748 0
M  V30 2547 H 434.838 8.13644 -3.0377 0
M  V30 2548 H 434.568 6.42788 -2.55485 0
M  V30 2549 H 435.435 8.12039 -0.792769 0
M  V30 2550 H 438.09 5.80061 0.166416 0
M  V30 2551 H 438.369 6.51287 -2.75604 0
M  V30 2552 H 439.361 7.01734 -1.34462 0
M  V30 2553 H 437.527 8.73674 -2.38337 0
M  V30 2554 H 437.478 4.68207 -3.53221 0
M  V30 2555 H 438.16 -0.0398818 0.767965 0
M  V30 2556 H 438.197 2.50995 3.13503 0
M  V30 2557 H 438.298 0.759148 2.80716 0
M  V30 2558 P 439.397 8.91 2.44069e-12 0
M  V30 2559 O 439.617 10.1726 0.733694 0
M  V30 2560 O 440.187 8.73148 -1.23936 0
M  V30 2561 O 439.647 7.66872 0.971405 0
M  V30 2562 C 438.707 7.42309 2.04641 0
M  V30 2563 C 439.437 6.86059 3.24661 0
M  V30 2564 O 439.647 5.42847 3.03646 0
M  V30 2565 C 440.837 7.41196 3.50753 0
M  V30 2566 O 441.227 7.27073 4.86816 0
M  V30 2567 C 441.717 6.5273 2.63741 0
M  V30 2568 C 441.007 5.1842 2.73198 0
M  V30 2569 N 441.057 4.38762 1.4784 0
M  V30 2570 H 438.218 8.36803 2.32493 0
M  V30 2571 H 437.948 6.70197 1.71129 0
M  V30 2572 H 438.815 7.03551 4.13168 0
M  V30 2573 P 442.777 7.20834 5.23717 0
M  V30 2574 O 442.997 7.79853 6.57286 0
M  V30 2575 O 443.567 7.79239 4.12957 0
M  V30 2576 O 443.027 5.63315 5.29344 0
M  V30 2577 C 442.087 4.80255 6.01876 0
M  V30 2578 C 442.817 3.64202 6.65911 0
M  V30 2579 O 443.027 2.60694 5.64732 0
M  V30 2580 C 444.217 3.93473 7.1943 0
M  V30 2581 O 444.607 3.02071 8.21205 0
M  V30 2582 C 445.097 3.73047 5.97036 0
M  V30 2583 C 444.387 2.58828 5.25741 0
M  V30 2584 N 444.437 2.68068 3.77503 0
M  V30 2585 H 441.598 5.40332 6.79951 0
M  V30 2586 H 441.328 4.41613 5.32378 0
M  V30 2587 H 442.195 3.26331 7.47797 0
M  V30 2588 P 446.157 2.75334 8.47391 0
M  V30 2589 O 446.377 2.44571 9.90142 0
M  V30 2590 O 446.947 3.87688 7.92115 0
M  V30 2591 O 446.407 1.4459 7.59357 0
M  V30 2592 C 445.467 0.347608 7.69215 0
M  V30 2593 C 446.197 -0.96767 7.52806 0
M  V30 2594 O 446.407 -1.21036 6.1011 0
M  V30 2595 C 447.597 -1.04544 8.13308 0
M  V30 2596 O 447.987 -2.38311 8.41922 0
M  V30 2597 C 448.477 -0.491279 7.02284 0
M  V30 2598 C 447.767 -0.996264 5.77469 0
M  V30 2599 N 447.817 -0.0501916 4.62973 0
M  V30 2600 H 444.978 0.374722 8.67691 0
M  V30 2601 H 444.708 0.443485 6.90277 0
M  V30 2602 H 445.575 -1.75537 7.96793 0
M  V30 2603 P 449.537 -2.75334 8.47391 0
M  V30 2604 O 449.757 -3.84166 9.4489 0
M  V30 2605 O 450.327 -1.51964 8.6881 0
M  V30 2606 O 449.787 -3.29363 6.99321 0
M  V30 2607 C 448.847 -4.23956 6.42656 0
M  V30 2608 C 449.577 -5.20775 5.52155 0
M  V30 2609 O 449.787 -4.56534 4.22446 0
M  V30 2610 C 450.977 -5.62629 5.96531 0
M  V30 2611 O 451.367 -6.87667 5.41053 0
M  V30 2612 C 451.857 -4.52537 5.39283 0
M  V30 2613 C 451.147 -4.20027 4.08623 0
M  V30 2614 N 451.197 -2.7613 3.71522 0
M  V30 2615 C 451.347 -2.45612 2.37989 0
M  V30 2616 O 451.437 -3.30919 1.51621 0
M  V30 2617 N 451.387 -1.10684 2.08435 0
M  V30 2618 C 451.297 -0.0690084 2.9792 0
M  V30 2619 C 451.147 -0.481522 4.35345 0
M  V30 2620 C 451.097 -1.78906 4.67968 0
M  V30 2621 H 448.357 -4.797 7.24003 0
M  V30 2622 H 448.088 -3.69802 5.84429 0
M  V30 2623 H 448.955 -6.10356 5.41441 0
M  V30 2624 H 451.61 -4.78651 3.27911 0
M  V30 2625 H 451.889 -3.64957 6.05871 0
M  V30 2626 H 452.881 -4.8868 5.2125 0
M  V30 2627 H 451.047 -5.66726 7.06352 0
M  V30 2628 H 450.976 -2.07737 5.72367 0
M  V30 2629 P 452.917 -7.20834 5.23717 0
M  V30 2630 O 453.137 -8.66274 5.38678 0
M  V30 2631 O 453.707 -6.33687 6.13629 0
M  V30 2632 O 453.167 -6.7751 3.72168 0
M  V30 2633 C 452.227 -7.20919 2.70795 0
M  V30 2634 C 452.957 -7.45864 1.40599 0
M  V30 2635 O 453.167 -6.17751 0.734343 0
M  V30 2636 C 454.357 -8.05906 1.51917 0
M  V30 2637 O 454.747 -8.74358 0.335205 0
M  V30 2638 C 455.237 -6.83093 1.70294 0
M  V30 2639 C 454.527 -5.79992 0.836974 0
M  V30 2640 N 454.577 -4.41864 1.38293 0
M  V30 2641 C 454.497 -4.02089 2.69407 0
M  V30 2642 N 454.567 -2.73403 2.85089 0
M  V30 2643 C 454.717 -2.25086 1.5642 0
M  V30 2644 C 454.847 -0.942887 1.04836 0
M  V30 2645 N 454.857 0.150999 1.80369 0
M  V30 2646 N 454.967 -0.812565 -0.28167 0
M  V30 2647 C 454.957 -1.90572 -1.03784 0
M  V30 2648 N 454.837 -3.167 -0.683905 0
M  V30 2649 C 454.717 -3.26538 0.652815 0
M  V30 2650 H 451.739 -8.13738 3.03804 0
M  V30 2651 H 451.467 -6.42974 2.55559 0
M  V30 2652 H 452.335 -8.12139 0.792866 0
M  V30 2653 H 454.99 -5.80178 -0.160643 0
M  V30 2654 H 455.27 -6.51379 2.75643 0
M  V30 2655 H 456.261 -7.01832 1.3448 0
M  V30 2656 H 454.427 -8.73771 2.38364 0
M  V30 2657 H 454.386 -4.7189 3.52311 0
M  V30 2658 H 454.767 0.0721434 2.82608 0
M  V30 2659 H 454.956 1.0785 1.36544 0
M  V30 2660 H 455.064 -1.73207 -2.10241 0
M  V30 2661 P 456.297 -8.91 -2.59788e-12 0
M  V30 2662 O 456.517 -10.1736 -0.733766 0
M  V30 2663 O 457.087 -8.73247 1.2395 0
M  V30 2664 O 456.547 -7.66872 -0.971405 0
M  V30 2665 C 455.607 -7.42212 -2.04614 0
M  V30 2666 C 456.337 -6.86059 -3.24661 0
M  V30 2667 O 456.547 -5.42847 -3.03646 0
M  V30 2668 C 457.737 -7.41196 -3.50753 0
M  V30 2669 O 458.127 -7.27073 -4.86816 0
M  V30 2670 C 458.617 -6.5273 -2.63741 0
M  V30 2671 C 457.907 -5.1842 -2.73198 0
M  V30 2672 N 457.957 -4.38668 -1.47808 0
M  V30 2673 C 458.107 -3.02239 -1.60048 0
M  V30 2674 O 458.197 -2.46459 -2.67869 0
M  V30 2675 N 458.147 -2.32436 -0.408571 0
M  V30 2676 C 458.057 -2.85471 0.854993 0
M  V30 2677 C 457.907 -4.28918 0.887335 0
M  V30 2678 C 457.857 -5.00349 -0.255399 0
M  V30 2679 H 455.117 -8.36803 -2.32493 0
M  V30 2680 H 454.848 -6.701 -1.71105 0
M  V30 2681 H 455.715 -7.03551 -4.13168 0
M  V30 2682 H 458.37 -4.59773 -3.53894 0
M  V30 2683 H 458.649 -6.88995 -1.59871 0
M  V30 2684 H 459.641 -6.46749 -3.03687 0
M  V30 2685 H 457.807 -8.46908 -3.20714 0
M  V30 2686 H 457.736 -6.08548 -0.206986 0
M  V30 2687 P 459.677 -7.20834 -5.23717 0
M  V30 2688 O 459.897 -7.79853 -6.57286 0
M  V30 2689 O 460.467 -7.79239 -4.12957 0
M  V30 2690 O 459.927 -5.63315 -5.29344 0
M  V30 2691 C 458.987 -4.80255 -6.01876 0
M  V30 2692 C 459.717 -3.64202 -6.65911 0
M  V30 2693 O 459.927 -2.60694 -5.64732 0
M  V30 2694 C 461.117 -3.93473 -7.1943 0
M  V30 2695 O 461.507 -3.02071 -8.21205 0
M  V30 2696 C 461.997 -3.73047 -5.97036 0
M  V30 2697 C 461.287 -2.58828 -5.25741 0
M  V30 2698 N 461.337 -2.68068 -3.77503 0
M  V30 2699 H 458.498 -5.40332 -6.79951 0
M  V30 2700 H 458.228 -4.41613 -5.32378 0
M  V30 2701 H 459.095 -3.26331 -7.47797 0
M  V30 2702 P 463.057 -2.75334 -8.47391 0
M  V30 2703 O 463.277 -2.44571 -9.90142 0
M  V30 2704 O 463.847 -3.87688 -7.92115 0
M  V30 2705 O 463.307 -1.4459 -7.59357 0
M  V30 2706 C 462.367 -0.347608 -7.69215 0
M  V30 2707 C 463.097 0.96767 -7.52806 0
M  V30 2708 O 463.307 1.21036 -6.1011 0
M  V30 2709 C 464.497 1.04544 -8.13308 0
M  V30 2710 O 464.887 2.38311 -8.41922 0
M  V30 2711 C 465.377 0.491279 -7.02284 0
M  V30 2712 C 464.667 0.996264 -5.77469 0
M  V30 2713 N 464.717 0.0501916 -4.62973 0
M  V30 2714 C 464.637 -1.32786 -4.63244 0
M  V30 2715 N 464.717 -1.86957 -3.44545 0
M  V30 2716 C 464.857 -0.780241 -2.58481 0
M  V30 2717 C 464.987 -0.738536 -1.17757 0
M  V30 2718 O 465.007 -1.66794 -0.372349 0
M  V30 2719 N 465.107 0.58337 -0.711393 0
M  V30 2720 C 465.107 1.70816 -1.51017 0
M  V30 2721 N 465.237 2.87826 -0.880757 0
M  V30 2722 N 464.977 1.67126 -2.8339 0
M  V30 2723 C 464.857 0.401421 -3.30572 0
M  V30 2724 H 461.878 -0.374722 -8.67691 0
M  V30 2725 H 461.608 -0.443485 -6.90277 0
M  V30 2726 H 462.475 1.75537 -7.96793 0
M  V30 2727 H 465.13 1.95076 -5.46529 0
M  V30 2728 H 465.409 -0.608565 -7.04577 0
M  V30 2729 H 466.401 0.889672 -7.08939 0
M  V30 2730 H 464.567 0.43308 -9.04564 0
M  V30 2731 H 464.518 -1.91249 -5.54442 0
M  V30 2732 H 465.2 0.718054 0.275244 0
M  V30 2733 H 465.237 3.75721 -1.41832 0
M  V30 2734 H 465.338 2.90436 0.145468 0
M  V30 2735 P 466.437 2.75334 -8.47391 0
M  V30 2736 O 466.657 3.84128 -9.44797 0
M  V30 2737 O 467.227 1.51947 -8.68712 0
M  V30 2738 O 466.687 3.29363 -6.99321 0
M  V30 2739 C 465.747 4.24011 -6.4274 0
M  V30 2740 C 466.477 5.20775 -5.52155 0
M  V30 2741 O 466.687 4.56534 -4.22446 0
M  V30 2742 C 467.877 5.62629 -5.96531 0
M  V30 2743 O 468.267 6.87667 -5.41053 0
M  V30 2744 C 468.757 4.52537 -5.39283 0
M  V30 2745 C 468.047 4.20027 -4.08623 0
M  V30 2746 N 468.097 2.76189 -3.71603 0
M  V30 2747 H 465.258 4.797 -7.24003 0
M  V30 2748 H 464.988 3.69856 -5.84513 0
M  V30 2749 H 465.855 6.10356 -5.41441 0
M  V30 2750 P 469.817 7.20834 -5.23717 0
M  V30 2751 O 470.037 8.66104 -5.38572 0
M  V30 2752 O 470.607 6.33544 -6.1349 0
M  V30 2753 O 470.067 6.7751 -3.72168 0
M  V30 2754 C 469.127 7.20825 -2.7076 0
M  V30 2755 C 469.857 7.45864 -1.40599 0
M  V30 2756 O 470.067 6.17651 -0.734225 0
M  V30 2757 C 471.257 8.05808 -1.51899 0
M  V30 2758 O 471.647 8.74358 -0.335205 0
M  V30 2759 C 472.137 6.83093 -1.70294 0
M  V30 2760 C 471.427 5.79992 -0.836974 0
M  V30 2761 N 471.477 4.41864 -1.38293 0
M  V30 2762 H 468.638 8.13644 -3.0377 0
M  V30 2763 H 468.368 6.42788 -2.55485 0
M  V30 2764 H 469.235 8.12039 -0.792769 0
M  V30 2765 P 473.197 8.91 2.75506e-12 0
M  V30 2766 O 473.417 10.1726 0.733694 0
M  V30 2767 O 473.987 8.73148 -1.23936 0
M  V30 2768 O 473.447 7.66872 0.971405 0
M  V30 2769 C 472.507 7.42309 2.04641 0
M  V30 2770 C 473.237 6.86059 3.24661 0
M  V30 2771 O 473.447 5.42847 3.03646 0
M  V30 2772 C 474.637 7.41196 3.50753 0
M  V30 2773 O 475.027 7.27073 4.86816 0
M  V30 2774 C 475.517 6.5273 2.63741 0
M  V30 2775 C 474.807 5.1842 2.73198 0
M  V30 2776 N 474.857 4.38762 1.4784 0
M  V30 2777 H 472.018 8.36803 2.32493 0
M  V30 2778 H 471.748 6.70197 1.71129 0
M  V30 2779 H 472.615 7.03551 4.13168 0
M  V30 2780 P 476.577 7.20834 5.23717 0
M  V30 2781 O 476.797 7.79853 6.57286 0
M  V30 2782 O 477.367 7.79239 4.12957 0
M  V30 2783 O 476.827 5.63315 5.29344 0
M  V30 2784 C 475.887 4.80255 6.01876 0
M  V30 2785 C 476.617 3.64202 6.65911 0
M  V30 2786 O 476.827 2.60694 5.64732 0
M  V30 2787 C 478.017 3.93473 7.1943 0
M  V30 2788 O 478.407 3.02071 8.21205 0
M  V30 2789 C 478.897 3.73047 5.97036 0
M  V30 2790 C 478.187 2.58828 5.25741 0
M  V30 2791 N 478.237 2.68068 3.77503 0
M  V30 2792 H 475.398 5.40332 6.79951 0
M  V30 2793 H 475.128 4.41613 5.32378 0
M  V30 2794 H 475.995 3.26331 7.47797 0
M  V30 2795 P 479.957 2.75334 8.47391 0
M  V30 2796 O 480.177 2.44571 9.90142 0
M  V30 2797 O 480.747 3.87688 7.92115 0
M  V30 2798 O 480.207 1.4459 7.59357 0
M  V30 2799 C 479.267 0.347608 7.69215 0
M  V30 2800 C 479.997 -0.96767 7.52806 0
M  V30 2801 O 480.207 -1.21036 6.1011 0
M  V30 2802 C 481.397 -1.04544 8.13308 0
M  V30 2803 O 481.787 -2.38311 8.41922 0
M  V30 2804 C 482.277 -0.491279 7.02284 0
M  V30 2805 C 481.567 -0.996264 5.77469 0
M  V30 2806 N 481.617 -0.0501916 4.62973 0
M  V30 2807 H 478.778 0.374722 8.67691 0
M  V30 2808 H 478.508 0.443485 6.90277 0
M  V30 2809 H 479.375 -1.75537 7.96793 0
M  V30 2810 P 483.337 -2.75334 8.47391 0
M  V30 2811 O 483.557 -3.84128 9.44797 0
M  V30 2812 O 484.127 -1.51947 8.68712 0
M  V30 2813 O 483.587 -3.29363 6.99321 0
M  V30 2814 C 482.647 -4.24011 6.4274 0
M  V30 2815 C 483.377 -5.20775 5.52155 0
M  V30 2816 O 483.587 -4.56534 4.22446 0
M  V30 2817 C 484.777 -5.62629 5.96531 0
M  V30 2818 O 485.167 -6.87667 5.41053 0
M  V30 2819 C 485.657 -4.52537 5.39283 0
M  V30 2820 C 484.947 -4.20027 4.08623 0
M  V30 2821 N 484.997 -2.76189 3.71603 0
M  V30 2822 H 482.158 -4.797 7.24003 0
M  V30 2823 H 481.888 -3.69856 5.84513 0
M  V30 2824 H 482.755 -6.10356 5.41441 0
M  V30 2825 P 486.717 -7.20834 5.23717 0
M  V30 2826 O 486.937 -8.66104 5.38572 0
M  V30 2827 O 487.507 -6.33544 6.1349 0
M  V30 2828 O 486.967 -6.7751 3.72168 0
M  V30 2829 C 486.027 -7.20825 2.7076 0
M  V30 2830 C 486.757 -7.45864 1.40599 0
M  V30 2831 O 486.967 -6.17651 0.734225 0
M  V30 2832 C 488.157 -8.05808 1.51899 0
M  V30 2833 O 488.547 -8.74358 0.335205 0
M  V30 2834 C 489.037 -6.83093 1.70294 0
M  V30 2835 C 488.327 -5.79992 0.836974 0
M  V30 2836 N 488.377 -4.41864 1.38293 0
M  V30 2837 H 485.538 -8.13644 3.0377 0
M  V30 2838 H 485.268 -6.42788 2.55485 0
M  V30 2839 H 486.135 -8.12039 0.792769 0
M  V30 2840 P 490.097 -8.91 -2.91224e-12 0
M  V30 2841 O 490.317 -10.1726 -0.733694 0
M  V30 2842 O 490.887 -8.73148 1.23936 0
M  V30 2843 O 490.347 -7.66872 -0.971405 0
M  V30 2844 C 489.407 -7.42309 -2.04641 0
M  V30 2845 C 490.137 -6.86059 -3.24661 0
M  V30 2846 O 490.347 -5.42847 -3.03646 0
M  V30 2847 C 491.537 -7.41196 -3.50753 0
M  V30 2848 O 491.927 -7.27073 -4.86816 0
M  V30 2849 C 492.417 -6.5273 -2.63741 0
M  V30 2850 C 491.707 -5.1842 -2.73198 0
M  V30 2851 N 491.757 -4.38762 -1.4784 0
M  V30 2852 H 488.918 -8.36803 -2.32493 0
M  V30 2853 H 488.648 -6.70197 -1.71129 0
M  V30 2854 H 489.515 -7.03551 -4.13168 0
M  V30 2855 P 493.477 -7.20834 -5.23717 0
M  V30 2856 O 493.697 -7.79853 -6.57286 0
M  V30 2857 O 494.267 -7.79239 -4.12957 0
M  V30 2858 O 493.727 -5.63315 -5.29344 0
M  V30 2859 C 492.787 -4.80255 -6.01876 0
M  V30 2860 C 493.517 -3.64202 -6.65911 0
M  V30 2861 O 493.727 -2.60694 -5.64732 0
M  V30 2862 C 494.917 -3.93473 -7.1943 0
M  V30 2863 O 495.307 -3.02071 -8.21205 0
M  V30 2864 C 495.797 -3.73047 -5.97036 0
M  V30 2865 C 495.087 -2.58828 -5.25741 0
M  V30 2866 N 495.137 -2.68068 -3.77503 0
M  V30 2867 H 492.298 -5.40332 -6.79951 0
M  V30 2868 H 492.028 -4.41613 -5.32378 0
M  V30 2869 H 492.895 -3.26331 -7.47797 0
M  V30 2870 P 496.857 -2.75334 -8.47391 0
M  V30 2871 O 497.077 -2.44595 -9.90239 0
M  V30 2872 O 497.647 -3.87732 -7.92204 0
M  V30 2873 O 497.107 -1.4459 -7.59357 0
M  V30 2874 C 496.167 -0.347563 -7.69115 0
M  V30 2875 C 496.897 0.96767 -7.52806 0
M  V30 2876 O 497.107 1.21036 -6.1011 0
M  V30 2877 C 498.297 1.04544 -8.13308 0
M  V30 2878 O 498.687 2.38311 -8.41922 0
M  V30 2879 C 499.177 0.491279 -7.02284 0
M  V30 2880 C 498.467 0.996264 -5.77469 0
M  V30 2881 N 498.517 0.0501808 -4.62873 0
M  V30 2882 C 498.667 0.588177 -3.36904 0
M  V30 2883 O 498.757 1.78598 -3.17173 0
M  V30 2884 N 498.707 -0.329694 -2.33686 0
M  V30 2885 C 498.617 -1.6953 -2.45079 0
M  V30 2886 O 498.667 -2.41926 -1.44899 0
M  V30 2887 C 498.467 -2.16933 -3.80505 0
M  V30 2888 C 498.357 -3.65373 -3.97621 0
M  V30 2889 C 498.417 -1.30326 -4.83752 0
M  V30 2890 H 495.677 -0.374722 -8.67691 0
M  V30 2891 H 495.408 -0.443421 -6.90177 0
M  V30 2892 H 496.275 1.75537 -7.96793 0
M  V30 2893 H 498.93 1.94496 -5.46629 0
M  V30 2894 H 499.209 -0.608651 -7.04676 0
M  V30 2895 H 500.201 0.889672 -7.08939 0
M  V30 2896 H 498.367 0.43308 -9.04564 0
M  V30 2897 H 498.296 -1.68366 -5.8516 0
M  V30 2898 H 499.326 -4.05985 -4.30448 0
M  V30 2899 H 497.589 -3.88028 -4.72875 0
M  V30 2900 H 498.077 -4.11381 -3.01609 0
M  V30 2901 H 498.813 0.0393617 -1.41345 0
M  V30 2902 P 500.237 2.75334 -8.47391 0
M  V30 2903 O 500.457 3.84128 -9.44797 0
M  V30 2904 O 501.027 1.51947 -8.68712 0
M  V30 2905 O 500.487 3.29363 -6.99321 0
M  V30 2906 C 499.547 4.24011 -6.4274 0
M  V30 2907 C 500.277 5.20775 -5.52155 0
M  V30 2908 O 500.487 4.56534 -4.22446 0
M  V30 2909 C 501.677 5.62629 -5.96531 0
M  V30 2910 O 502.067 6.87667 -5.41053 0
M  V30 2911 C 502.557 4.52537 -5.39283 0
M  V30 2912 C 501.847 4.20027 -4.08623 0
M  V30 2913 N 501.897 2.76189 -3.71603 0
M  V30 2914 H 499.058 4.797 -7.24003 0
M  V30 2915 H 498.788 3.69856 -5.84513 0
M  V30 2916 H 499.655 6.10356 -5.41441 0
M  V30 2917 P 503.617 7.20834 -5.23717 0
M  V30 2918 O 503.837 8.66104 -5.38572 0
M  V30 2919 O 504.407 6.33544 -6.1349 0
M  V30 2920 O 503.867 6.7751 -3.72168 0
M  V30 2921 C 502.927 7.20825 -2.7076 0
M  V30 2922 C 503.657 7.45864 -1.40599 0
M  V30 2923 O 503.867 6.17651 -0.734225 0
M  V30 2924 C 505.057 8.05808 -1.51899 0
M  V30 2925 O 505.447 8.74358 -0.335205 0
M  V30 2926 C 505.937 6.83093 -1.70294 0
M  V30 2927 C 505.227 5.79992 -0.836974 0
M  V30 2928 N 505.277 4.41864 -1.38293 0
M  V30 2929 H 502.438 8.13644 -3.0377 0
M  V30 2930 H 502.168 6.42788 -2.55485 0
M  V30 2931 H 503.035 8.12039 -0.792769 0
M  V30 2932 P 506.997 8.91 3.06942e-12 0
M  V30 2933 O 507.217 10.1746 0.733838 0
M  V30 2934 O 507.787 8.73346 -1.23964 0
M  V30 2935 O 507.247 7.66872 0.971405 0
M  V30 2936 C 506.307 7.42405 2.04668 0
M  V30 2937 C 507.037 6.86059 3.24661 0
M  V30 2938 O 507.247 5.42934 3.03695 0
M  V30 2939 C 508.437 7.41287 3.50796 0
M  V30 2940 O 508.827 7.27073 4.86816 0
M  V30 2941 C 509.317 6.5273 2.63741 0
M  V30 2942 C 508.607 5.1842 2.73198 0
M  V30 2943 N 508.657 4.38762 1.4784 0
M  V30 2944 H 505.819 8.36899 2.3252 0
M  V30 2945 H 505.547 6.70391 1.71179 0
M  V30 2946 H 506.415 7.03638 4.13219 0
M  V30 2947 H 509.07 4.59931 3.54016 0
M  V30 2948 H 509.35 6.88995 1.59871 0
M  V30 2949 H 510.341 6.4684 3.0373 0
M  V30 2950 H 508.507 8.47002 3.20749 0
M  V30 2951 P 510.377 7.20834 5.23717 0
M  V30 2952 O 510.597 7.79853 6.57286 0
M  V30 2953 O 511.167 7.79239 4.12957 0
M  V30 2954 O 510.627 5.63315 5.29344 0
M  V30 2955 C 509.687 4.80255 6.01876 0
M  V30 2956 C 510.417 3.64202 6.65911 0
M  V30 2957 O 510.627 2.60694 5.64732 0
M  V30 2958 C 511.817 3.93473 7.1943 0
M  V30 2959 O 512.207 3.02071 8.21205 0
M  V30 2960 C 512.697 3.73047 5.97036 0
M  V30 2961 C 511.987 2.58828 5.25741 0
M  V30 2962 N 512.037 2.68068 3.77503 0
M  V30 2963 H 509.198 5.40332 6.79951 0
M  V30 2964 H 508.928 4.41613 5.32378 0
M  V30 2965 H 509.795 3.26331 7.47797 0
M  V30 2966 P 513.757 2.75334 8.47391 0
M  V30 2967 O 513.977 2.44619 9.90336 0
M  V30 2968 O 514.547 3.87776 7.92294 0
M  V30 2969 O 514.007 1.4459 7.59357 0
M  V30 2970 C 513.067 0.347653 7.69315 0
M  V30 2971 C 513.797 -0.96767 7.52806 0
M  V30 2972 O 514.007 -1.21055 6.10208 0
M  V30 2973 C 515.197 -1.04557 8.13408 0
M  V30 2974 O 515.587 -2.38311 8.41922 0
M  V30 2975 C 516.077 -0.491279 7.02284 0
M  V30 2976 C 515.367 -0.996264 5.77469 0
M  V30 2977 N 515.417 -0.0501916 4.62973 0
M  V30 2978 C 515.337 1.31969 4.65661 0
M  V30 2979 N 515.407 1.86649 3.48119 0
M  V30 2980 C 515.557 0.792089 2.62406 0
M  V30 2981 C 515.687 0.705684 1.2207 0
M  V30 2982 N 515.697 1.76207 0.413762 0
M  V30 2983 N 515.807 -0.518981 0.685754 0
M  V30 2984 C 515.797 -1.57595 1.49174 0
M  V30 2985 N 515.677 -1.62909 2.80066 0
M  V30 2986 C 515.557 -0.388195 3.3073 0
M  V30 2987 H 512.579 0.374765 8.67791 0
M  V30 2988 H 512.307 0.443613 6.90476 0
M  V30 2989 H 513.175 -1.75559 7.96891 0
M  V30 2990 H 515.83 -1.94563 5.46818 0
M  V30 2991 H 516.11 0.608651 7.04676 0
M  V30 2992 H 517.101 -0.889796 7.09039 0
M  V30 2993 H 515.267 -0.433128 9.04664 0
M  V30 2994 H 515.226 1.89246 5.57664 0
M  V30 2995 H 515.607 2.71005 0.804694 0
M  V30 2996 H 515.796 1.63189 -0.603768 0
M  V30 2997 H 515.904 -2.53475 0.997614 0
M  V30 2998 P 517.137 -2.75334 8.47391 0
M  V30 2999 O 517.357 -3.84128 9.44797 0
M  V30 3000 O 517.927 -1.51947 8.68712 0
M  V30 3001 O 517.387 -3.29363 6.99321 0
M  V30 3002 C 516.447 -4.24011 6.4274 0
M  V30 3003 C 517.177 -5.20775 5.52155 0
M  V30 3004 O 517.387 -4.56534 4.22446 0
M  V30 3005 C 518.577 -5.62629 5.96531 0
M  V30 3006 O 518.967 -6.87667 5.41053 0
M  V30 3007 C 519.457 -4.52537 5.39283 0
M  V30 3008 C 518.747 -4.20027 4.08623 0
M  V30 3009 N 518.797 -2.76189 3.71603 0
M  V30 3010 H 515.958 -4.797 7.24003 0
M  V30 3011 H 515.688 -3.69856 5.84513 0
M  V30 3012 H 516.555 -6.10356 5.41441 0
M  V30 3013 P 520.517 -7.20834 5.23717 0
M  V30 3014 O 520.737 -8.66104 5.38572 0
M  V30 3015 O 521.307 -6.33544 6.1349 0
M  V30 3016 O 520.767 -6.7751 3.72168 0
M  V30 3017 C 519.827 -7.20825 2.7076 0
M  V30 3018 C 520.557 -7.45864 1.40599 0
M  V30 3019 O 520.767 -6.17651 0.734225 0
M  V30 3020 C 521.957 -8.05808 1.51899 0
M  V30 3021 O 522.347 -8.74358 0.335205 0
M  V30 3022 C 522.837 -6.83093 1.70294 0
M  V30 3023 C 522.127 -5.79992 0.836974 0
M  V30 3024 N 522.177 -4.41864 1.38293 0
M  V30 3025 H 519.338 -8.13644 3.0377 0
M  V30 3026 H 519.068 -6.42788 2.55485 0
M  V30 3027 H 519.935 -8.12039 0.792769 0
M  V30 3028 P 523.897 -8.91 -3.22661e-12 0
M  V30 3029 O 524.117 -10.1726 -0.733694 0
M  V30 3030 O 524.687 -8.73148 1.23936 0
M  V30 3031 O 524.147 -7.66872 -0.971405 0
M  V30 3032 C 523.207 -7.42309 -2.04641 0
M  V30 3033 C 523.937 -6.86059 -3.24661 0
M  V30 3034 O 524.147 -5.42847 -3.03646 0
M  V30 3035 C 525.337 -7.41196 -3.50753 0
M  V30 3036 O 525.727 -7.27073 -4.86816 0
M  V30 3037 C 526.217 -6.5273 -2.63741 0
M  V30 3038 C 525.507 -5.1842 -2.73198 0
M  V30 3039 N 525.557 -4.38762 -1.4784 0
M  V30 3040 H 522.718 -8.36803 -2.32493 0
M  V30 3041 H 522.448 -6.70197 -1.71129 0
M  V30 3042 H 523.315 -7.03551 -4.13168 0
M  V30 3043 P 527.277 -7.20834 -5.23717 0
M  V30 3044 O 527.497 -7.79853 -6.57286 0
M  V30 3045 O 528.067 -7.79239 -4.12957 0
M  V30 3046 O 527.527 -5.63315 -5.29344 0
M  V30 3047 C 526.587 -4.80255 -6.01876 0
M  V30 3048 C 527.317 -3.64202 -6.65911 0
M  V30 3049 O 527.527 -2.60694 -5.64732 0
M  V30 3050 C 528.717 -3.93473 -7.1943 0
M  V30 3051 O 529.107 -3.02071 -8.21205 0
M  V30 3052 C 529.597 -3.73047 -5.97036 0
M  V30 3053 C 528.887 -2.58828 -5.25741 0
M  V30 3054 N 528.937 -2.68068 -3.77503 0
M  V30 3055 H 526.098 -5.40332 -6.79951 0
M  V30 3056 H 525.828 -4.41613 -5.32378 0
M  V30 3057 H 526.695 -3.26331 -7.47797 0
M  V30 3058 P 530.657 -2.75334 -8.47391 0
M  V30 3059 O 530.877 -2.44619 -9.90336 0
M  V30 3060 O 531.447 -3.87776 -7.92294 0
M  V30 3061 O 530.907 -1.4459 -7.59357 0
M  V30 3062 C 529.967 -0.347653 -7.69315 0
M  V30 3063 C 530.697 0.96767 -7.52806 0
M  V30 3064 O 530.907 1.21055 -6.10208 0
M  V30 3065 C 532.097 1.04557 -8.13408 0
M  V30 3066 O 532.487 2.38311 -8.41922 0
M  V30 3067 C 532.977 0.491279 -7.02284 0
M  V30 3068 C 532.267 0.996264 -5.77469 0
M  V30 3069 N 532.317 0.0501916 -4.62973 0
M  V30 3070 C 532.237 -1.31969 -4.65661 0
M  V30 3071 N 532.307 -1.86649 -3.48119 0
M  V30 3072 C 532.457 -0.792089 -2.62406 0
M  V30 3073 C 532.587 -0.705684 -1.2207 0
M  V30 3074 N 532.597 -1.76207 -0.413762 0
M  V30 3075 N 532.707 0.518981 -0.685754 0
M  V30 3076 C 532.697 1.57595 -1.49174 0
M  V30 3077 N 532.577 1.62909 -2.80066 0
M  V30 3078 C 532.457 0.388195 -3.3073 0
M  V30 3079 H 529.479 -0.374765 -8.67791 0
M  V30 3080 H 529.207 -0.443613 -6.90476 0
M  V30 3081 H 530.075 1.75559 -7.96891 0
M  V30 3082 H 532.73 1.94563 -5.46818 0
M  V30 3083 H 533.01 -0.608651 -7.04676 0
M  V30 3084 H 534.001 0.889796 -7.09039 0
M  V30 3085 H 532.167 0.433128 -9.04664 0
M  V30 3086 H 532.126 -1.89246 -5.57664 0
M  V30 3087 H 532.507 -2.71005 -0.804694 0
M  V30 3088 H 532.696 -1.63189 0.603768 0
M  V30 3089 H 532.804 2.53475 -0.997614 0
M  V30 3090 P 534.037 2.75334 -8.47391 0
M  V30 3091 O 534.257 3.84204 -9.44982 0
M  V30 3092 O 534.827 1.51982 -8.68909 0
M  V30 3093 O 534.287 3.29363 -6.99321 0
M  V30 3094 C 533.347 4.24066 -6.42823 0
M  V30 3095 C 534.077 5.20775 -5.52155 0
M  V30 3096 O 534.287 4.56607 -4.22514 0
M  V30 3097 C 535.477 5.62697 -5.96604 0
M  V30 3098 O 535.867 6.87667 -5.41053 0
M  V30 3099 C 536.357 4.52537 -5.39283 0
M  V30 3100 C 535.647 4.20027 -4.08623 0
M  V30 3101 N 535.697 2.76189 -3.71603 0
M  V30 3102 H 532.859 4.79756 -7.24086 0
M  V30 3103 H 532.587 3.69963 -5.84682 0
M  V30 3104 H 533.455 6.10431 -5.41508 0
M  V30 3105 H 536.11 4.78816 -3.28024 0
M  V30 3106 H 536.39 3.64957 -6.05871 0
M  V30 3107 H 537.381 4.88748 -5.21323 0
M  V30 3108 H 535.547 5.66789 -7.0643 0
M  V30 3109 P 537.417 7.20834 -5.23717 0
M  V30 3110 O 537.637 8.66189 -5.38625 0
M  V30 3111 O 538.207 6.33615 -6.1356 0
M  V30 3112 O 537.667 6.7751 -3.72168 0
M  V30 3113 C 536.727 7.20732 -2.70725 0
M  V30 3114 C 537.457 7.45864 -1.40599 0
M  V30 3115 O 537.667 6.17651 -0.734225 0
M  V30 3116 C 538.857 8.05808 -1.51899 0
M  V30 3117 O 539.247 8.74358 -0.335205 0
M  V30 3118 C 539.737 6.83093 -1.70294 0
M  V30 3119 C 539.027 5.79992 -0.836974 0
M  V30 3120 N 539.077 4.41769 -1.38263 0
M  V30 3121 C 539.227 3.38591 -0.481702 0
M  V30 3122 O 539.317 3.56839 0.718452 0
M  V30 3123 N 539.267 2.1206 -1.03569 0
M  V30 3124 C 539.177 1.80696 -2.36966 0
M  V30 3125 O 539.227 0.630473 -2.74862 0
M  V30 3126 C 539.027 2.94845 -3.23898 0
M  V30 3127 C 538.917 2.65253 -4.70362 0
M  V30 3128 C 538.977 4.19803 -2.73435 0
M  V30 3129 H 536.237 8.13644 -3.0377 0
M  V30 3130 H 535.968 6.42695 -2.55448 0
M  V30 3131 H 536.835 8.12039 -0.792769 0
M  V30 3132 H 539.49 5.79978 0.160587 0
M  V30 3133 H 539.769 6.51379 -2.75643 0
M  V30 3134 H 540.761 7.01734 -1.34462 0
M  V30 3135 H 538.927 8.73674 -2.38337 0
M  V30 3136 H 538.856 5.04492 -3.4095 0
M  V30 3137 H 539.886 2.83924 -5.1913 0
M  V30 3138 H 538.149 3.29824 -5.15163 0
M  V30 3139 H 538.637 1.59723 -4.84449 0
M  V30 3140 H 539.373 1.35644 -0.399345 0
M  V30 3141 P 540.797 8.91 3.38379e-12 0
M  V30 3142 O 541.017 10.1726 0.733694 0
M  V30 3143 O 541.587 8.73148 -1.23936 0
M  V30 3144 O 541.047 7.66872 0.971405 0
M  V30 3145 C 540.107 7.42309 2.04641 0
M  V30 3146 C 540.837 6.86059 3.24661 0
M  V30 3147 O 541.047 5.42847 3.03646 0
M  V30 3148 C 542.237 7.41196 3.50753 0
M  V30 3149 O 542.627 7.27073 4.86816 0
M  V30 3150 C 543.117 6.5273 2.63741 0
M  V30 3151 C 542.407 5.1842 2.73198 0
M  V30 3152 N 542.457 4.38762 1.4784 0
M  V30 3153 H 539.618 8.36803 2.32493 0
M  V30 3154 H 539.348 6.70197 1.71129 0
M  V30 3155 H 540.215 7.03551 4.13168 0
M  V30 3156 P 544.177 7.20834 5.23717 0
M  V30 3157 O 544.397 7.79853 6.57286 0
M  V30 3158 O 544.967 7.79239 4.12957 0
M  V30 3159 O 544.427 5.63315 5.29344 0
M  V30 3160 C 543.487 4.80255 6.01876 0
M  V30 3161 C 544.217 3.64202 6.65911 0
M  V30 3162 O 544.427 2.60694 5.64732 0
M  V30 3163 C 545.617 3.93473 7.1943 0
M  V30 3164 O 546.007 3.02071 8.21205 0
M  V30 3165 C 546.497 3.73047 5.97036 0
M  V30 3166 C 545.787 2.58828 5.25741 0
M  V30 3167 N 545.837 2.68068 3.77503 0
M  V30 3168 H 542.998 5.40332 6.79951 0
M  V30 3169 H 542.728 4.41613 5.32378 0
M  V30 3170 H 543.595 3.26331 7.47797 0
M  V30 3171 P 547.557 2.75334 8.47391 0
M  V30 3172 O 547.777 2.44571 9.90142 0
M  V30 3173 O 548.347 3.87688 7.92115 0
M  V30 3174 O 547.807 1.4459 7.59357 0
M  V30 3175 C 546.867 0.347608 7.69215 0
M  V30 3176 C 547.597 -0.96767 7.52806 0
M  V30 3177 O 547.807 -1.21036 6.1011 0
M  V30 3178 C 548.997 -1.04544 8.13308 0
M  V30 3179 O 549.387 -2.38311 8.41922 0
M  V30 3180 C 549.877 -0.491279 7.02284 0
M  V30 3181 C 549.167 -0.996264 5.77469 0
M  V30 3182 N 549.217 -0.0501916 4.62973 0
M  V30 3183 H 546.378 0.374722 8.67691 0
M  V30 3184 H 546.108 0.443485 6.90277 0
M  V30 3185 H 546.975 -1.75537 7.96793 0
M  V30 3186 P 550.937 -2.75334 8.47391 0
M  V30 3187 O 551.157 -3.84204 9.44982 0
M  V30 3188 O 551.727 -1.51982 8.68909 0
M  V30 3189 O 551.187 -3.29363 6.99321 0
M  V30 3190 C 550.247 -4.24066 6.42823 0
M  V30 3191 C 550.977 -5.20775 5.52155 0
M  V30 3192 O 551.187 -4.56607 4.22514 0
M  V30 3193 C 552.377 -5.62697 5.96604 0
M  V30 3194 O 552.767 -6.87667 5.41053 0
M  V30 3195 C 553.257 -4.52537 5.39283 0
M  V30 3196 C 552.547 -4.20027 4.08623 0
M  V30 3197 N 552.597 -2.76189 3.71603 0
M  V30 3198 C 552.517 -1.66944 4.54297 0
M  V30 3199 N 552.587 -0.536169 3.91344 0
M  V30 3200 C 552.737 -0.901569 2.58849 0
M  V30 3201 C 552.867 -0.146599 1.40236 0
M  V30 3202 N 552.877 1.18234 1.37046 0
M  V30 3203 N 552.987 -0.822941 0.249738 0
M  V30 3204 C 552.977 -2.15179 0.280525 0
M  V30 3205 N 552.857 -2.96414 1.30822 0
M  V30 3206 C 552.737 -2.25804 2.44748 0
M  V30 3207 H 549.759 -4.79756 7.24086 0
M  V30 3208 H 549.487 -3.69963 5.84682 0
M  V30 3209 H 550.355 -6.10431 5.41508 0
M  V30 3210 H 553.01 -4.78816 3.28024 0
M  V30 3211 H 553.29 -3.64957 6.05871 0
M  V30 3212 H 554.281 -4.88748 5.21323 0
M  V30 3213 H 552.447 -5.66789 7.0643 0
M  V30 3214 H 552.406 -1.74684 5.62396 0
M  V30 3215 H 552.787 1.71949 2.24394 0
M  V30 3216 H 552.976 1.67511 0.470742 0
M  V30 3217 H 553.084 -2.63704 -0.6828 0
M  V30 3218 P 554.317 -7.20834 5.23717 0
M  V30 3219 O 554.537 -8.66274 5.38678 0
M  V30 3220 O 555.107 -6.33687 6.13629 0
M  V30 3221 O 554.567 -6.7751 3.72168 0
M  V30 3222 C 553.627 -7.20919 2.70795 0
M  V30 3223 C 554.357 -7.45864 1.40599 0
M  V30 3224 O 554.567 -6.17751 0.734343 0
M  V30 3225 C 555.757 -8.05906 1.51917 0
M  V30 3226 O 556.147 -8.74358 0.335205 0
M  V30 3227 C 556.637 -6.83093 1.70294 0
M  V30 3228 C 555.927 -5.79992 0.836974 0
M  V30 3229 N 555.977 -4.41864 1.38293 0
M  V30 3230 H 553.139 -8.13738 3.03804 0
M  V30 3231 H 552.867 -6.42974 2.55559 0
M  V30 3232 H 553.735 -8.12139 0.792866 0
M  V30 3233 H 556.39 -5.80178 -0.160643 0
M  V30 3234 H 556.67 -6.51379 2.75643 0
M  V30 3235 H 557.661 -7.01832 1.3448 0
M  V30 3236 H 555.827 -8.73771 2.38364 0
M  V30 3237 P 557.697 -8.91 -3.54097e-12 0
M  V30 3238 O 557.917 -10.1726 -0.733694 0
M  V30 3239 O 558.487 -8.73148 1.23936 0
M  V30 3240 O 557.947 -7.66872 -0.971405 0
M  V30 3241 C 557.007 -7.42309 -2.04641 0
M  V30 3242 C 557.737 -6.86059 -3.24661 0
M  V30 3243 O 557.947 -5.42847 -3.03646 0
M  V30 3244 C 559.137 -7.41196 -3.50753 0
M  V30 3245 O 559.527 -7.27073 -4.86816 0
M  V30 3246 C 560.017 -6.5273 -2.63741 0
M  V30 3247 C 559.307 -5.1842 -2.73198 0
M  V30 3248 N 559.357 -4.38762 -1.4784 0
M  V30 3249 H 556.518 -8.36803 -2.32493 0
M  V30 3250 H 556.248 -6.70197 -1.71129 0
M  V30 3251 H 557.115 -7.03551 -4.13168 0
M  V30 3252 P 561.077 -7.20834 -5.23717 0
M  V30 3253 O 561.297 -7.80006 -6.57415 0
M  V30 3254 O 561.867 -7.79416 -4.13051 0
M  V30 3255 O 561.327 -5.63315 -5.29344 0
M  V30 3256 C 560.387 -4.80318 -6.01954 0
M  V30 3257 C 561.117 -3.64202 -6.65911 0
M  V30 3258 O 561.327 -2.60736 -5.64823 0
M  V30 3259 C 562.517 -3.93521 -7.19518 0
M  V30 3260 O 562.907 -3.02071 -8.21205 0
M  V30 3261 C 563.397 -3.73047 -5.97036 0
M  V30 3262 C 562.687 -2.58828 -5.25741 0
M  V30 3263 N 562.737 -2.68068 -3.77503 0
M  V30 3264 C 562.657 -3.80474 -2.99159 0
M  V30 3265 N 562.727 -3.55622 -1.71925 0
M  V30 3266 C 562.877 -2.1832 -1.65733 0
M  V30 3267 C 563.007 -1.28842 -0.572777 0
M  V30 3268 N 563.017 -1.66875 0.70098 0
M  V30 3269 N 563.127 0.016788 -0.859836 0
M  V30 3270 C 563.117 0.398145 -2.13316 0
M  V30 3271 N 562.997 -0.328224 -3.22333 0
M  V30 3272 C 562.877 -1.62992 -2.90383 0
M  V30 3273 H 559.899 -5.40394 -6.8003 0
M  V30 3274 H 559.627 -4.41741 -5.32532 0
M  V30 3275 H 560.495 -3.26371 -7.47889 0
M  V30 3276 H 563.15 -1.64007 -5.56746 0
M  V30 3277 H 563.43 -4.63439 -5.3432 0
M  V30 3278 H 564.421 -3.44776 -6.25925 0
M  V30 3279 H 562.587 -4.96707 -7.57347 0
M  V30 3280 H 562.546 -4.8089 -3.39924 0
M  V30 3281 H 562.927 -2.66547 0.941919 0
M  V30 3282 H 563.116 -0.965341 1.44766 0
M  V30 3283 H 563.224 1.46427 -2.29697 0
M  V30 3284 P 564.457 -2.75334 -8.47391 0
M  V30 3285 O 564.677 -2.44571 -9.90142 0
M  V30 3286 O 565.247 -3.87688 -7.92115 0
M  V30 3287 O 564.707 -1.4459 -7.59357 0
M  V30 3288 C 563.767 -0.347608 -7.69215 0
M  V30 3289 C 564.497 0.96767 -7.52806 0
M  V30 3290 O 564.707 1.21036 -6.1011 0
M  V30 3291 C 565.897 1.04544 -8.13308 0
M  V30 3292 O 566.287 2.38311 -8.41922 0
M  V30 3293 C 566.777 0.491279 -7.02284 0
M  V30 3294 C 566.067 0.996264 -5.77469 0
M  V30 3295 N 566.117 0.0501916 -4.62973 0
M  V30 3296 H 563.278 -0.374722 -8.67691 0
M  V30 3297 H 563.008 -0.443485 -6.90277 0
M  V30 3298 H 563.875 1.75537 -7.96793 0
M  V30 3299 P 567.837 2.75334 -8.47391 0
M  V30 3300 O 568.057 3.84128 -9.44797 0
M  V30 3301 O 568.627 1.51947 -8.68712 0
M  V30 3302 O 568.087 3.29363 -6.99321 0
M  V30 3303 C 567.147 4.24011 -6.4274 0
M  V30 3304 C 567.877 5.20775 -5.52155 0
M  V30 3305 O 568.087 4.56534 -4.22446 0
M  V30 3306 C 569.277 5.62629 -5.96531 0
M  V30 3307 O 569.667 6.87667 -5.41053 0
M  V30 3308 C 570.157 4.52537 -5.39283 0
M  V30 3309 C 569.447 4.20027 -4.08623 0
M  V30 3310 N 569.497 2.76189 -3.71603 0
M  V30 3311 H 566.658 4.797 -7.24003 0
M  V30 3312 H 566.388 3.69856 -5.84513 0
M  V30 3313 H 567.255 6.10356 -5.41441 0
M  V30 3314 P 571.217 7.20834 -5.23717 0
M  V30 3315 O 571.437 8.66274 -5.38678 0
M  V30 3316 O 572.007 6.33687 -6.13629 0
M  V30 3317 O 571.467 6.7751 -3.72168 0
M  V30 3318 C 570.527 7.20919 -2.70795 0
M  V30 3319 C 571.257 7.45864 -1.40599 0
M  V30 3320 O 571.467 6.17751 -0.734343 0
M  V30 3321 C 572.657 8.05906 -1.51917 0
M  V30 3322 O 573.047 8.74358 -0.335205 0
M  V30 3323 C 573.537 6.83093 -1.70294 0
M  V30 3324 C 572.827 5.79992 -0.836974 0
M  V30 3325 N 572.877 4.41864 -1.38293 0
M  V30 3326 H 570.039 8.13738 -3.03804 0
M  V30 3327 H 569.767 6.42974 -2.55559 0
M  V30 3328 H 570.635 8.12139 -0.792866 0
M  V30 3329 H 573.29 5.80178 0.160643 0
M  V30 3330 H 573.57 6.51379 -2.75643 0
M  V30 3331 H 574.561 7.01832 -1.3448 0
M  V30 3332 H 572.727 8.73771 -2.38364 0
M  V30 3333 P 574.597 8.91 3.69815e-12 0
M  V30 3334 O 574.817 10.1726 0.733694 0
M  V30 3335 O 575.387 8.73148 -1.23936 0
M  V30 3336 O 574.847 7.66872 0.971405 0
M  V30 3337 C 573.907 7.42309 2.04641 0
M  V30 3338 C 574.637 6.86059 3.24661 0
M  V30 3339 O 574.847 5.42847 3.03646 0
M  V30 3340 C 576.037 7.41196 3.50753 0
M  V30 3341 O 576.427 7.27073 4.86816 0
M  V30 3342 C 576.917 6.5273 2.63741 0
M  V30 3343 C 576.207 5.1842 2.73198 0
M  V30 3344 N 576.257 4.38762 1.4784 0
M  V30 3345 H 573.418 8.36803 2.32493 0
M  V30 3346 H 573.148 6.70197 1.71129 0
M  V30 3347 H 574.015 7.03551 4.13168 0
M  V30 3348 P 577.977 7.20834 5.23717 0
M  V30 3349 O 578.197 7.79853 6.57286 0
M  V30 3350 O 578.767 7.79239 4.12957 0
M  V30 3351 O 578.227 5.63315 5.29344 0
M  V30 3352 C 577.287 4.80255 6.01876 0
M  V30 3353 C 578.017 3.64202 6.65911 0
M  V30 3354 O 578.227 2.60694 5.64732 0
M  V30 3355 C 579.417 3.93473 7.1943 0
M  V30 3356 O 579.807 3.02071 8.21205 0
M  V30 3357 C 580.297 3.73047 5.97036 0
M  V30 3358 C 579.587 2.58828 5.25741 0
M  V30 3359 N 579.637 2.68068 3.77503 0
M  V30 3360 H 576.798 5.40332 6.79951 0
M  V30 3361 H 576.528 4.41613 5.32378 0
M  V30 3362 H 577.395 3.26331 7.47797 0
M  V30 3363 P 581.357 2.75334 8.47391 0
M  V30 3364 O 581.577 2.44571 9.90142 0
M  V30 3365 O 582.147 3.87688 7.92115 0
M  V30 3366 O 581.607 1.4459 7.59357 0
M  V30 3367 C 580.667 0.347608 7.69215 0
M  V30 3368 C 581.397 -0.96767 7.52806 0
M  V30 3369 O 581.607 -1.21036 6.1011 0
M  V30 3370 C 582.797 -1.04544 8.13308 0
M  V30 3371 O 583.187 -2.38311 8.41922 0
M  V30 3372 C 583.677 -0.491279 7.02284 0
M  V30 3373 C 582.967 -0.996264 5.77469 0
M  V30 3374 N 583.017 -0.0501916 4.62973 0
M  V30 3375 H 580.178 0.374722 8.67691 0
M  V30 3376 H 579.908 0.443485 6.90277 0
M  V30 3377 H 580.775 -1.75537 7.96793 0
M  V30 3378 P 584.737 -2.75334 8.47391 0
M  V30 3379 O 584.957 -3.84166 9.4489 0
M  V30 3380 O 585.527 -1.51964 8.6881 0
M  V30 3381 O 584.987 -3.29363 6.99321 0
M  V30 3382 C 584.047 -4.23956 6.42656 0
M  V30 3383 C 584.777 -5.20775 5.52155 0
M  V30 3384 O 584.987 -4.56534 4.22446 0
M  V30 3385 C 586.177 -5.62629 5.96531 0
M  V30 3386 O 586.567 -6.87667 5.41053 0
M  V30 3387 C 587.057 -4.52537 5.39283 0
M  V30 3388 C 586.347 -4.20027 4.08623 0
M  V30 3389 N 586.397 -2.7613 3.71522 0
M  V30 3390 C 586.547 -2.45612 2.37989 0
M  V30 3391 O 586.637 -3.30919 1.51621 0
M  V30 3392 N 586.587 -1.10684 2.08435 0
M  V30 3393 C 586.497 -0.0690084 2.9792 0
M  V30 3394 C 586.347 -0.481522 4.35345 0
M  V30 3395 C 586.297 -1.78906 4.67968 0
M  V30 3396 H 583.557 -4.797 7.24003 0
M  V30 3397 H 583.288 -3.69802 5.84429 0
M  V30 3398 H 584.155 -6.10356 5.41441 0
M  V30 3399 H 586.81 -4.78651 3.27911 0
M  V30 3400 H 587.089 -3.64957 6.05871 0
M  V30 3401 H 588.081 -4.8868 5.2125 0
M  V30 3402 H 586.247 -5.66726 7.06352 0
M  V30 3403 H 586.176 -2.07737 5.72367 0
M  V30 3404 P 588.117 -7.20834 5.23717 0
M  V30 3405 O 588.337 -8.66104 5.38572 0
M  V30 3406 O 588.907 -6.33544 6.1349 0
M  V30 3407 O 588.367 -6.7751 3.72168 0
M  V30 3408 C 587.427 -7.20825 2.7076 0
M  V30 3409 C 588.157 -7.45864 1.40599 0
M  V30 3410 O 588.367 -6.17651 0.734225 0
M  V30 3411 C 589.557 -8.05808 1.51899 0
M  V30 3412 O 589.947 -8.74358 0.335205 0
M  V30 3413 C 590.437 -6.83093 1.70294 0
M  V30 3414 C 589.727 -5.79992 0.836974 0
M  V30 3415 N 589.777 -4.41864 1.38293 0
M  V30 3416 H 586.938 -8.13644 3.0377 0
M  V30 3417 H 586.668 -6.42788 2.55485 0
M  V30 3418 H 587.535 -8.12039 0.792769 0
M  V30 3419 P 591.496 -8.91 -3.85533e-12 0
M  V30 3420 O 591.716 -10.1726 -0.733694 0
M  V30 3421 O 592.286 -8.73148 1.23936 0
M  V30 3422 O 591.746 -7.66872 -0.971405 0
M  V30 3423 C 590.806 -7.42309 -2.04641 0
M  V30 3424 C 591.536 -6.86059 -3.24661 0
M  V30 3425 O 591.746 -5.42847 -3.03646 0
M  V30 3426 C 592.937 -7.41196 -3.50753 0
M  V30 3427 O 593.327 -7.27073 -4.86816 0
M  V30 3428 C 593.817 -6.5273 -2.63741 0
M  V30 3429 C 593.106 -5.1842 -2.73198 0
M  V30 3430 N 593.156 -4.38762 -1.4784 0
M  V30 3431 H 590.317 -8.36803 -2.32493 0
M  V30 3432 H 590.048 -6.70197 -1.71129 0
M  V30 3433 H 590.914 -7.03551 -4.13168 0
M  V30 3434 P 594.876 -7.20834 -5.23717 0
M  V30 3435 O 595.096 -7.79853 -6.57286 0
M  V30 3436 O 595.666 -7.79239 -4.12957 0
M  V30 3437 O 595.126 -5.63315 -5.29344 0
M  V30 3438 C 594.186 -4.80255 -6.01876 0
M  V30 3439 C 594.916 -3.64202 -6.65911 0
M  V30 3440 O 595.126 -2.60694 -5.64732 0
M  V30 3441 C 596.316 -3.93473 -7.1943 0
M  V30 3442 O 596.706 -3.02071 -8.21205 0
M  V30 3443 C 597.196 -3.73047 -5.97036 0
M  V30 3444 C 596.486 -2.58828 -5.25741 0
M  V30 3445 N 596.536 -2.68068 -3.77503 0
M  V30 3446 H 593.697 -5.40332 -6.79951 0
M  V30 3447 H 593.427 -4.41613 -5.32378 0
M  V30 3448 H 594.294 -3.26331 -7.47797 0
M  V30 3449 P 598.256 -2.75334 -8.47391 0
M  V30 3450 O 598.476 -2.44619 -9.90336 0
M  V30 3451 O 599.046 -3.87776 -7.92294 0
M  V30 3452 O 598.506 -1.4459 -7.59357 0
M  V30 3453 C 597.566 -0.347653 -7.69315 0
M  V30 3454 C 598.296 0.96767 -7.52806 0
M  V30 3455 O 598.506 1.21055 -6.10208 0
M  V30 3456 C 599.696 1.04557 -8.13408 0
M  V30 3457 O 600.086 2.38311 -8.41922 0
M  V30 3458 C 600.576 0.491279 -7.02284 0
M  V30 3459 C 599.866 0.996264 -5.77469 0
M  V30 3460 N 599.916 0.0501916 -4.62973 0
M  V30 3461 H 597.078 -0.374765 -8.67791 0
M  V30 3462 H 596.806 -0.443613 -6.90476 0
M  V30 3463 H 597.674 1.75559 -7.96891 0
M  V30 3464 H 600.329 1.94563 -5.46818 0
M  V30 3465 H 600.609 -0.608651 -7.04676 0
M  V30 3466 H 601.6 0.889796 -7.09039 0
M  V30 3467 H 599.766 0.433128 -9.04664 0
M  V30 3468 P 601.636 2.75334 -8.47391 0
M  V30 3469 O 601.856 3.84128 -9.44797 0
M  V30 3470 O 602.426 1.51947 -8.68712 0
M  V30 3471 O 601.886 3.29363 -6.99321 0
M  V30 3472 C 600.946 4.24011 -6.4274 0
M  V30 3473 C 601.676 5.20775 -5.52155 0
M  V30 3474 O 601.886 4.56534 -4.22446 0
M  V30 3475 C 603.076 5.62629 -5.96531 0
M  V30 3476 O 603.466 6.87667 -5.41053 0
M  V30 3477 C 603.956 4.52537 -5.39283 0
M  V30 3478 C 603.246 4.20027 -4.08623 0
M  V30 3479 N 603.296 2.76189 -3.71603 0
M  V30 3480 H 600.457 4.797 -7.24003 0
M  V30 3481 H 600.187 3.69856 -5.84513 0
M  V30 3482 H 601.054 6.10356 -5.41441 0
M  V30 3483 P 605.016 7.20834 -5.23717 0
M  V30 3484 O 605.236 8.66104 -5.38572 0
M  V30 3485 O 605.806 6.33544 -6.1349 0
M  V30 3486 O 605.266 6.7751 -3.72168 0
M  V30 3487 C 604.326 7.20825 -2.7076 0
M  V30 3488 C 605.056 7.45864 -1.40599 0
M  V30 3489 O 605.266 6.17651 -0.734225 0
M  V30 3490 C 606.456 8.05808 -1.51899 0
M  V30 3491 O 606.846 8.74358 -0.335205 0
M  V30 3492 C 607.336 6.83093 -1.70294 0
M  V30 3493 C 606.626 5.79992 -0.836974 0
M  V30 3494 N 606.676 4.41864 -1.38293 0
M  V30 3495 H 603.837 8.13644 -3.0377 0
M  V30 3496 H 603.567 6.42788 -2.55485 0
M  V30 3497 H 604.434 8.12039 -0.792769 0
M  V30 3498 P 608.396 8.91 4.01252e-12 0
M  V30 3499 O 608.616 10.1726 0.733694 0
M  V30 3500 O 609.186 8.73148 -1.23936 0
M  V30 3501 O 608.646 7.66872 0.971405 0
M  V30 3502 C 607.706 7.42309 2.04641 0
M  V30 3503 C 608.436 6.86059 3.24661 0
M  V30 3504 O 608.646 5.42847 3.03646 0
M  V30 3505 C 609.836 7.41196 3.50753 0
M  V30 3506 O 610.226 7.27073 4.86816 0
M  V30 3507 C 610.716 6.5273 2.63741 0
M  V30 3508 C 610.006 5.1842 2.73198 0
M  V30 3509 N 610.056 4.38762 1.4784 0
M  V30 3510 H 607.217 8.36803 2.32493 0
M  V30 3511 H 606.947 6.70197 1.71129 0
M  V30 3512 H 607.814 7.03551 4.13168 0
M  V30 3513 P 611.776 7.20834 5.23717 0
M  V30 3514 O 611.996 7.79853 6.57286 0
M  V30 3515 O 612.566 7.79239 4.12957 0
M  V30 3516 O 612.026 5.63315 5.29344 0
M  V30 3517 C 611.086 4.80255 6.01876 0
M  V30 3518 C 611.816 3.64202 6.65911 0
M  V30 3519 O 612.026 2.60694 5.64732 0
M  V30 3520 C 613.216 3.93473 7.1943 0
M  V30 3521 O 613.606 3.02071 8.21205 0
M  V30 3522 C 614.096 3.73047 5.97036 0
M  V30 3523 C 613.386 2.58828 5.25741 0
M  V30 3524 N 613.436 2.68068 3.77503 0
M  V30 3525 H 610.597 5.40332 6.79951 0
M  V30 3526 H 610.327 4.41613 5.32378 0
M  V30 3527 H 611.194 3.26331 7.47797 0
M  V30 3528 P 615.156 2.75334 8.47391 0
M  V30 3529 O 615.376 2.44595 9.90239 0
M  V30 3530 O 615.946 3.87732 7.92204 0
M  V30 3531 O 615.406 1.4459 7.59357 0
M  V30 3532 C 614.466 0.347608 7.69215 0
M  V30 3533 C 615.196 -0.96767 7.52806 0
M  V30 3534 O 615.406 -1.21036 6.1011 0
M  V30 3535 C 616.596 -1.04544 8.13308 0
M  V30 3536 O 616.986 -2.38311 8.41922 0
M  V30 3537 C 617.476 -0.491279 7.02284 0
M  V30 3538 C 616.766 -0.996264 5.77469 0
M  V30 3539 N 616.816 -0.0501808 4.62873 0
M  V30 3540 C 616.966 -0.578037 3.3505 0
M  V30 3541 O 617.056 -1.8073 3.21711 0
M  V30 3542 N 617.016 0.468541 2.263 0
M  V30 3543 C 616.916 1.59186 2.47176 0
M  V30 3544 N 616.966 2.37626 1.40392 0
M  V30 3545 C 616.766 2.16203 3.77467 0
M  V30 3546 C 616.716 1.29324 4.8195 0
M  V30 3547 H 613.976 0.374679 8.67591 0
M  V30 3548 H 613.707 0.443421 6.90177 0
M  V30 3549 H 614.574 -1.75559 7.96891 0
M  V30 3550 H 617.229 -1.94529 5.46723 0
M  V30 3551 H 617.508 0.608651 7.04676 0
M  V30 3552 H 618.5 -0.889672 7.08939 0
M  V30 3553 H 616.666 -0.43308 9.04564 0
M  V30 3554 H 616.594 1.67758 5.83046 0
M  V30 3555 H 616.696 3.23869 3.92281 0
M  V30 3556 H 617.084 1.96317 0.467202 0
M  V30 3557 H 616.887 3.39693 1.51142 0
M  V30 3558 P 618.536 -2.75334 8.47391 0
M  V30 3559 O 618.756 -3.84128 9.44797 0
M  V30 3560 O 619.326 -1.51947 8.68712 0
M  V30 3561 O 618.786 -3.29363 6.99321 0
M  V30 3562 C 617.846 -4.24011 6.4274 0
M  V30 3563 C 618.576 -5.20775 5.52155 0
M  V30 3564 O 618.786 -4.56534 4.22446 0
M  V30 3565 C 619.976 -5.62629 5.96531 0
M  V30 3566 O 620.366 -6.87667 5.41053 0
M  V30 3567 C 620.856 -4.52537 5.39283 0
M  V30 3568 C 620.146 -4.20027 4.08623 0
M  V30 3569 N 620.196 -2.76189 3.71603 0
M  V30 3570 H 617.357 -4.797 7.24003 0
M  V30 3571 H 617.087 -3.69856 5.84513 0
M  V30 3572 H 617.954 -6.10356 5.41441 0
M  V30 3573 P 621.916 -7.20834 5.23717 0
M  V30 3574 O 622.136 -8.66274 5.38678 0
M  V30 3575 O 622.706 -6.33687 6.13629 0
M  V30 3576 O 622.166 -6.7751 3.72168 0
M  V30 3577 C 621.226 -7.20919 2.70795 0
M  V30 3578 C 621.956 -7.45864 1.40599 0
M  V30 3579 O 622.166 -6.17751 0.734343 0
M  V30 3580 C 623.356 -8.05906 1.51917 0
M  V30 3581 O 623.746 -8.74358 0.335205 0
M  V30 3582 C 624.236 -6.83093 1.70294 0
M  V30 3583 C 623.526 -5.79992 0.836974 0
M  V30 3584 N 623.576 -4.41864 1.38293 0
M  V30 3585 C 623.496 -4.02089 2.69407 0
M  V30 3586 N 623.566 -2.73403 2.85089 0
M  V30 3587 C 623.716 -2.25086 1.5642 0
M  V30 3588 C 623.846 -0.942887 1.04836 0
M  V30 3589 N 623.856 0.150999 1.80369 0
M  V30 3590 N 623.966 -0.812565 -0.28167 0
M  V30 3591 C 623.956 -1.90572 -1.03784 0
M  V30 3592 N 623.836 -3.167 -0.683905 0
M  V30 3593 C 623.716 -3.26538 0.652815 0
M  V30 3594 H 620.738 -8.13738 3.03804 0
M  V30 3595 H 620.466 -6.42974 2.55559 0
M  V30 3596 H 621.334 -8.12139 0.792866 0
M  V30 3597 H 623.989 -5.80178 -0.160643 0
M  V30 3598 H 624.269 -6.51379 2.75643 0
M  V30 3599 H 625.26 -7.01832 1.3448 0
M  V30 3600 H 623.426 -8.73771 2.38364 0
M  V30 3601 H 623.385 -4.7189 3.52311 0
M  V30 3602 H 623.766 0.0721434 2.82608 0
M  V30 3603 H 623.955 1.0785 1.36544 0
M  V30 3604 H 624.063 -1.73207 -2.10241 0
M  V30 3605 P 625.296 -8.91 -4.1697e-12 0
M  V30 3606 O 625.516 -10.1746 -0.733838 0
M  V30 3607 O 626.086 -8.73346 1.23964 0
M  V30 3608 O 625.546 -7.66872 -0.971405 0
M  V30 3609 C 624.606 -7.42405 -2.04668 0
M  V30 3610 C 625.336 -6.86059 -3.24661 0
M  V30 3611 O 625.546 -5.42934 -3.03695 0
M  V30 3612 C 626.736 -7.41287 -3.50796 0
M  V30 3613 O 627.126 -7.27073 -4.86816 0
M  V30 3614 C 627.616 -6.5273 -2.63741 0
M  V30 3615 C 626.906 -5.1842 -2.73198 0
M  V30 3616 N 626.956 -4.38762 -1.4784 0
M  V30 3617 H 624.118 -8.36899 -2.3252 0
M  V30 3618 H 623.846 -6.70391 -1.71179 0
M  V30 3619 H 624.714 -7.03638 -4.13219 0
M  V30 3620 H 627.369 -4.59931 -3.54016 0
M  V30 3621 H 627.649 -6.88995 -1.59871 0
M  V30 3622 H 628.64 -6.4684 -3.0373 0
M  V30 3623 H 626.806 -8.47002 -3.20749 0
M  V30 3624 P 628.676 -7.20834 -5.23717 0
M  V30 3625 O 628.896 -7.79853 -6.57286 0
M  V30 3626 O 629.466 -7.79239 -4.12957 0
M  V30 3627 O 628.926 -5.63315 -5.29344 0
M  V30 3628 C 627.986 -4.80255 -6.01876 0
M  V30 3629 C 628.716 -3.64202 -6.65911 0
M  V30 3630 O 628.926 -2.60694 -5.64732 0
M  V30 3631 C 630.116 -3.93473 -7.1943 0
M  V30 3632 O 630.506 -3.02071 -8.21205 0
M  V30 3633 C 630.996 -3.73047 -5.97036 0
M  V30 3634 C 630.286 -2.58828 -5.25741 0
M  V30 3635 N 630.336 -2.68068 -3.77503 0
M  V30 3636 H 627.497 -5.40332 -6.79951 0
M  V30 3637 H 627.227 -4.41613 -5.32378 0
M  V30 3638 H 628.094 -3.26331 -7.47797 0
M  V30 3639 P 632.056 -2.75334 -8.47391 0
M  V30 3640 O 632.276 -2.44571 -9.90142 0
M  V30 3641 O 632.846 -3.87688 -7.92115 0
M  V30 3642 O 632.306 -1.4459 -7.59357 0
M  V30 3643 C 631.366 -0.347608 -7.69215 0
M  V30 3644 C 632.096 0.96767 -7.52806 0
M  V30 3645 O 632.306 1.21036 -6.1011 0
M  V30 3646 C 633.496 1.04544 -8.13308 0
M  V30 3647 O 633.886 2.38311 -8.41922 0
M  V30 3648 C 634.376 0.491279 -7.02284 0
M  V30 3649 C 633.666 0.996264 -5.77469 0
M  V30 3650 N 633.716 0.0501916 -4.62973 0
M  V30 3651 H 630.877 -0.374722 -8.67691 0
M  V30 3652 H 630.607 -0.443485 -6.90277 0
M  V30 3653 H 631.474 1.75537 -7.96793 0
M  V30 3654 P 635.436 2.75334 -8.47391 0
M  V30 3655 O 635.656 3.84128 -9.44797 0
M  V30 3656 O 636.226 1.51947 -8.68712 0
M  V30 3657 O 635.686 3.29363 -6.99321 0
M  V30 3658 C 634.746 4.24011 -6.4274 0
M  V30 3659 C 635.476 5.20775 -5.52155 0
M  V30 3660 O 635.686 4.56534 -4.22446 0
M  V30 3661 C 636.876 5.62629 -5.96531 0
M  V30 3662 O 637.266 6.87667 -5.41053 0
M  V30 3663 C 637.756 4.52537 -5.39283 0
M  V30 3664 C 637.046 4.20027 -4.08623 0
M  V30 3665 N 637.096 2.76189 -3.71603 0
M  V30 3666 C 637.016 1.64862 -4.52822 0
M  V30 3667 N 637.096 0.512671 -3.88633 0
M  V30 3668 C 637.236 0.888083 -2.54977 0
M  V30 3669 C 637.366 0.094668 -1.38677 0
M  V30 3670 N 637.486 0.890102 -0.232633 0
M  V30 3671 C 637.486 2.26958 -0.21772 0
M  V30 3672 N 637.616 2.84626 0.97925 0
M  V30 3673 N 637.356 3.0178 -1.31033 0
M  V30 3674 C 637.236 2.26781 -2.43843 0
M  V30 3675 H 634.257 4.797 -7.24003 0
M  V30 3676 H 633.987 3.69856 -5.84513 0
M  V30 3677 H 634.854 6.10356 -5.41441 0
M  V30 3678 P 638.816 7.20834 -5.23717 0
M  V30 3679 O 639.036 8.66104 -5.38572 0
M  V30 3680 O 639.606 6.33544 -6.1349 0
M  V30 3681 O 639.066 6.7751 -3.72168 0
M  V30 3682 C 638.126 7.20825 -2.7076 0
M  V30 3683 C 638.856 7.45864 -1.40599 0
M  V30 3684 O 639.066 6.17651 -0.734225 0
M  V30 3685 C 640.256 8.05808 -1.51899 0
M  V30 3686 O 640.646 8.74358 -0.335205 0
M  V30 3687 C 641.136 6.83093 -1.70294 0
M  V30 3688 C 640.426 5.79992 -0.836974 0
M  V30 3689 N 640.476 4.41864 -1.38293 0
M  V30 3690 H 637.637 8.13644 -3.0377 0
M  V30 3691 H 637.367 6.42788 -2.55485 0
M  V30 3692 H 638.234 8.12039 -0.792769 0
M  V30 3693 P 642.196 8.91 4.32688e-12 0
M  V30 3694 O 642.416 10.1726 0.733694 0
M  V30 3695 O 642.986 8.73148 -1.23936 0
M  V30 3696 O 642.446 7.66872 0.971405 0
M  V30 3697 C 641.506 7.42309 2.04641 0
M  V30 3698 C 642.236 6.86059 3.24661 0
M  V30 3699 O 642.446 5.42847 3.03646 0
M  V30 3700 C 643.636 7.41196 3.50753 0
M  V30 3701 O 644.026 7.27073 4.86816 0
M  V30 3702 C 644.516 6.5273 2.63741 0
M  V30 3703 C 643.806 5.1842 2.73198 0
M  V30 3704 N 643.856 4.38762 1.4784 0
M  V30 3705 H 641.017 8.36803 2.32493 0
M  V30 3706 H 640.747 6.70197 1.71129 0
M  V30 3707 H 641.614 7.03551 4.13168 0
M  V30 3708 P 645.576 7.20834 5.23717 0
M  V30 3709 O 645.796 7.79853 6.57286 0
M  V30 3710 O 646.366 7.79239 4.12957 0
M  V30 3711 O 645.826 5.63315 5.29344 0
M  V30 3712 C 644.886 4.80255 6.01876 0
M  V30 3713 C 645.616 3.64202 6.65911 0
M  V30 3714 O 645.826 2.60694 5.64732 0
M  V30 3715 C 647.016 3.93473 7.1943 0
M  V30 3716 O 647.406 3.02071 8.21205 0
M  V30 3717 C 647.896 3.73047 5.97036 0
M  V30 3718 C 647.186 2.58828 5.25741 0
M  V30 3719 N 647.236 2.68068 3.77503 0
M  V30 3720 H 644.397 5.40332 6.79951 0
M  V30 3721 H 644.127 4.41613 5.32378 0
M  V30 3722 H 644.994 3.26331 7.47797 0
M  V30 3723 P 648.956 2.75334 8.47391 0
M  V30 3724 O 649.176 2.44595 9.90239 0
M  V30 3725 O 649.746 3.87732 7.92204 0
M  V30 3726 O 649.206 1.4459 7.59357 0
M  V30 3727 C 648.266 0.347563 7.69115 0
M  V30 3728 C 648.996 -0.96767 7.52806 0
M  V30 3729 O 649.206 -1.21036 6.1011 0
M  V30 3730 C 650.396 -1.04544 8.13308 0
M  V30 3731 O 650.786 -2.38311 8.41922 0
M  V30 3732 C 651.276 -0.491279 7.02284 0
M  V30 3733 C 650.566 -0.996264 5.77469 0
M  V30 3734 N 650.616 -0.0501808 4.62873 0
M  V30 3735 C 650.766 -0.588177 3.36904 0
M  V30 3736 O 650.856 -1.78598 3.17173 0
M  V30 3737 N 650.806 0.329694 2.33686 0
M  V30 3738 C 650.716 1.6953 2.45079 0
M  V30 3739 C 650.566 2.16933 3.80505 0
M  V30 3740 C 650.516 1.30326 4.83752 0
M  V30 3741 H 647.776 0.374722 8.67691 0
M  V30 3742 H 647.507 0.443421 6.90177 0
M  V30 3743 H 648.374 -1.75537 7.96793 0
M  V30 3744 H 651.029 -1.94496 5.46629 0
M  V30 3745 H 651.308 0.608651 7.04676 0
M  V30 3746 H 652.3 -0.889672 7.08939 0
M  V30 3747 H 650.466 -0.43308 9.04564 0
M  V30 3748 H 650.395 1.68366 5.8516 0
M  V30 3749 P 652.336 -2.75334 8.47391 0
M  V30 3750 O 652.556 -3.84128 9.44797 0
M  V30 3751 O 653.126 -1.51947 8.68712 0
M  V30 3752 O 652.586 -3.29363 6.99321 0
M  V30 3753 C 651.646 -4.24011 6.4274 0
M  V30 3754 C 652.376 -5.20775 5.52155 0
M  V30 3755 O 652.586 -4.56534 4.22446 0
M  V30 3756 C 653.776 -5.62629 5.96531 0
M  V30 3757 O 654.166 -6.87667 5.41053 0
M  V30 3758 C 654.656 -4.52537 5.39283 0
M  V30 3759 C 653.946 -4.20027 4.08623 0
M  V30 3760 N 653.996 -2.76189 3.71603 0
M  V30 3761 C 653.916 -1.64862 4.52822 0
M  V30 3762 N 653.996 -0.512671 3.88633 0
M  V30 3763 C 654.136 -0.888083 2.54977 0
M  V30 3764 C 654.266 -0.094668 1.38677 0
M  V30 3765 O 654.286 1.13053 1.28163 0
M  V30 3766 N 654.386 -0.890102 0.232633 0
M  V30 3767 C 654.386 -2.26958 0.21772 0
M  V30 3768 N 654.516 -2.84626 -0.97925 0
M  V30 3769 N 654.256 -3.0178 1.31033 0
M  V30 3770 C 654.136 -2.26781 2.43843 0
M  V30 3771 H 651.157 -4.797 7.24003 0
M  V30 3772 H 650.887 -3.69856 5.84513 0
M  V30 3773 H 651.754 -6.10356 5.41441 0
M  V30 3774 H 654.409 -4.79061 3.27488 0
M  V30 3775 H 654.688 -3.64906 6.05785 0
M  V30 3776 H 655.68 -4.8868 5.2125 0
M  V30 3777 H 653.846 -5.66726 7.06352 0
M  V30 3778 H 653.797 -1.71169 5.60966 0
M  V30 3779 H 654.479 -0.419134 -0.644739 0
M  V30 3780 H 654.516 -3.87332 -1.06098 0
M  V30 3781 H 654.617 -2.26417 -1.82483 0
M  V30 3782 P 655.716 -7.20834 5.23717 0
M  V30 3783 O 655.936 -8.66104 5.38572 0
M  V30 3784 O 656.506 -6.33544 6.1349 0
M  V30 3785 O 655.966 -6.7751 3.72168 0
M  V30 3786 C 655.026 -7.20825 2.7076 0
M  V30 3787 C 655.756 -7.45864 1.40599 0
M  V30 3788 O 655.966 -6.17651 0.734225 0
M  V30 3789 C 657.156 -8.05808 1.51899 0
M  V30 3790 O 657.546 -8.74358 0.335205 0
M  V30 3791 C 658.036 -6.83093 1.70294 0
M  V30 3792 C 657.326 -5.79992 0.836974 0
M  V30 3793 N 657.376 -4.41864 1.38293 0
M  V30 3794 H 654.537 -8.13644 3.0377 0
M  V30 3795 H 654.267 -6.42788 2.55485 0
M  V30 3796 H 655.134 -8.12039 0.792769 0
M  V30 3797 P 659.096 -8.91 -4.48406e-12 0
M  V30 3798 O 659.316 -10.1726 -0.733694 0
M  V30 3799 O 659.886 -8.73148 1.23936 0
M  V30 3800 O 659.346 -7.66872 -0.971405 0
M  V30 3801 C 658.406 -7.42309 -2.04641 0
M  V30 3802 C 659.136 -6.86059 -3.24661 0
M  V30 3803 O 659.346 -5.42847 -3.03646 0
M  V30 3804 C 660.536 -7.41196 -3.50753 0
M  V30 3805 O 660.926 -7.27073 -4.86816 0
M  V30 3806 C 661.416 -6.5273 -2.63741 0
M  V30 3807 C 660.706 -5.1842 -2.73198 0
M  V30 3808 N 660.756 -4.38762 -1.4784 0
M  V30 3809 H 657.917 -8.36803 -2.32493 0
M  V30 3810 H 657.647 -6.70197 -1.71129 0
M  V30 3811 H 658.514 -7.03551 -4.13168 0
M  V30 3812 P 662.476 -7.20834 -5.23717 0
M  V30 3813 O 662.696 -7.7993 -6.57351 0
M  V30 3814 O 663.266 -7.79328 -4.13004 0
M  V30 3815 O 662.726 -5.63315 -5.29344 0
M  V30 3816 C 661.786 -4.80193 -6.01798 0
M  V30 3817 C 662.516 -3.64202 -6.65911 0
M  V30 3818 O 662.726 -2.60694 -5.64732 0
M  V30 3819 C 663.916 -3.93473 -7.1943 0
M  V30 3820 O 664.306 -3.02071 -8.21205 0
M  V30 3821 C 664.796 -3.73047 -5.97036 0
M  V30 3822 C 664.086 -2.58828 -5.25741 0
M  V30 3823 N 664.136 -2.6801 -3.77422 0
M  V30 3824 C 664.286 -1.50443 -3.07133 0
M  V30 3825 O 664.376 -0.419406 -3.61576 0
M  V30 3826 N 664.326 -1.6403 -1.69677 0
M  V30 3827 C 664.236 -2.81206 -0.986255 0
M  V30 3828 O 664.286 -2.80892 0.249754 0
M  V30 3829 C 664.086 -3.99158 -1.80325 0
M  V30 3830 C 663.976 -5.29309 -1.06921 0
M  V30 3831 C 664.036 -3.89779 -3.1476 0
M  V30 3832 H 661.296 -5.40332 -6.79951 0
M  V30 3833 H 661.027 -4.41549 -5.32301 0
M  V30 3834 H 661.894 -3.26331 -7.47797 0
M  V30 3835 H 664.549 -1.6395 -5.56554 0
M  V30 3836 H 664.828 -4.63439 -5.3432 0
M  V30 3837 H 665.82 -3.44728 -6.25838 0
M  V30 3838 H 663.986 -4.96652 -7.57263 0
M  V30 3839 H 663.915 -4.80159 -3.74441 0
M  V30 3840 H 664.945 -5.81459 -1.09608 0
M  V30 3841 H 663.208 -5.9187 -1.54487 0
M  V30 3842 H 663.696 -5.10095 -0.0220288 0
M  V30 3843 H 664.432 -0.798962 -1.16664 0
M  V30 3844 P 665.856 -2.75334 -8.47391 0
M  V30 3845 O 666.076 -2.44571 -9.90142 0
M  V30 3846 O 666.646 -3.87688 -7.92115 0
M  V30 3847 O 666.106 -1.4459 -7.59357 0
M  V30 3848 C 665.166 -0.347608 -7.69215 0
M  V30 3849 C 665.896 0.96767 -7.52806 0
M  V30 3850 O 666.106 1.21036 -6.1011 0
M  V30 3851 C 667.296 1.04544 -8.13308 0
M  V30 3852 O 667.686 2.38311 -8.41922 0
M  V30 3853 C 668.176 0.491279 -7.02284 0
M  V30 3854 C 667.466 0.996264 -5.77469 0
M  V30 3855 N 667.516 0.0501916 -4.62973 0
M  V30 3856 H 664.677 -0.374722 -8.67691 0
M  V30 3857 H 664.407 -0.443485 -6.90277 0
M  V30 3858 H 665.274 1.75537 -7.96793 0
M  V30 3859 P 669.236 2.75334 -8.47391 0
M  V30 3860 O 669.456 3.84128 -9.44797 0
M  V30 3861 O 670.026 1.51947 -8.68712 0
M  V30 3862 O 669.486 3.29363 -6.99321 0
M  V30 3863 C 668.546 4.24011 -6.4274 0
M  V30 3864 C 669.276 5.20775 -5.52155 0
M  V30 3865 O 669.486 4.56534 -4.22446 0
M  V30 3866 C 670.676 5.62629 -5.96531 0
M  V30 3867 O 671.066 6.87667 -5.41053 0
M  V30 3868 C 671.556 4.52537 -5.39283 0
M  V30 3869 C 670.846 4.20027 -4.08623 0
M  V30 3870 N 670.896 2.76189 -3.71603 0
M  V30 3871 H 668.057 4.797 -7.24003 0
M  V30 3872 H 667.787 3.69856 -5.84513 0
M  V30 3873 H 668.654 6.10356 -5.41441 0
M  V30 3874 P 672.616 7.20834 -5.23717 0
M  V30 3875 O 672.836 8.66104 -5.38572 0
M  V30 3876 O 673.406 6.33544 -6.1349 0
M  V30 3877 O 672.866 6.7751 -3.72168 0
M  V30 3878 C 671.926 7.20825 -2.7076 0
M  V30 3879 C 672.656 7.45864 -1.40599 0
M  V30 3880 O 672.866 6.17651 -0.734225 0
M  V30 3881 C 674.056 8.05808 -1.51899 0
M  V30 3882 O 674.446 8.74358 -0.335205 0
M  V30 3883 C 674.936 6.83093 -1.70294 0
M  V30 3884 C 674.226 5.79992 -0.836974 0
M  V30 3885 N 674.276 4.41864 -1.38293 0
M  V30 3886 C 674.196 3.99538 -2.69438 0
M  V30 3887 N 674.276 2.69909 -2.84277 0
M  V30 3888 C 674.416 2.21719 -1.5408 0
M  V30 3889 C 674.546 0.891712 -1.06628 0
M  V30 3890 N 674.666 0.856846 0.334985 0
M  V30 3891 C 674.666 1.9641 1.15789 0
M  V30 3892 N 674.796 1.72708 2.46522 0
M  V30 3893 N 674.536 3.21165 0.713741 0
M  V30 3894 C 674.416 3.26797 -0.639748 0
M  V30 3895 H 671.437 8.13644 -3.0377 0
M  V30 3896 H 671.167 6.42788 -2.55485 0
M  V30 3897 H 672.034 8.12039 -0.792769 0
M  V30 3898 P 675.996 8.91 4.64125e-12 0
M  V30 3899 O 676.216 10.1736 0.733766 0
M  V30 3900 O 676.786 8.73247 -1.2395 0
M  V30 3901 O 676.246 7.66872 0.971405 0
M  V30 3902 C 675.306 7.42212 2.04614 0
M  V30 3903 C 676.036 6.86059 3.24661 0
M  V30 3904 O 676.246 5.42847 3.03646 0
M  V30 3905 C 677.436 7.41196 3.50753 0
M  V30 3906 O 677.826 7.27073 4.86816 0
M  V30 3907 C 678.316 6.5273 2.63741 0
M  V30 3908 C 677.606 5.1842 2.73198 0
M  V30 3909 N 677.656 4.38668 1.47808 0
M  V30 3910 C 677.806 3.02239 1.60048 0
M  V30 3911 O 677.896 2.46459 2.67869 0
M  V30 3912 N 677.846 2.32436 0.408571 0
M  V30 3913 C 677.756 2.85471 -0.854993 0
M  V30 3914 O 677.806 2.12566 -1.8531 0
M  V30 3915 C 677.606 4.28918 -0.887335 0
M  V30 3916 C 677.496 4.91066 -2.24619 0
M  V30 3917 C 677.556 5.00349 0.255399 0
M  V30 3918 H 674.816 8.36803 2.32493 0
M  V30 3919 H 674.547 6.701 1.71105 0
M  V30 3920 H 675.414 7.03551 4.13168 0
M  V30 3921 H 678.069 4.59773 3.53894 0
M  V30 3922 H 678.348 6.88995 1.59871 0
M  V30 3923 H 679.34 6.46749 3.03687 0
M  V30 3924 H 677.506 8.46908 3.20714 0
M  V30 3925 H 677.435 6.08548 0.206986 0
M  V30 3926 H 678.465 5.34836 -2.53099 0
M  V30 3927 H 676.728 5.69638 -2.2291 0
M  V30 3928 H 677.216 4.13971 -2.98044 0
M  V30 3929 H 677.952 1.33211 0.474216 0
M  V30 3930 P 679.376 7.20834 5.23717 0
M  V30 3931 O 679.596 7.79853 6.57286 0
M  V30 3932 O 680.166 7.79239 4.12957 0
M  V30 3933 O 679.626 5.63315 5.29344 0
M  V30 3934 C 678.686 4.80255 6.01876 0
M  V30 3935 C 679.416 3.64202 6.65911 0
M  V30 3936 O 679.626 2.60694 5.64732 0
M  V30 3937 C 680.816 3.93473 7.1943 0
M  V30 3938 O 681.206 3.02071 8.21205 0
M  V30 3939 C 681.696 3.73047 5.97036 0
M  V30 3940 C 680.986 2.58828 5.25741 0
M  V30 3941 N 681.036 2.68068 3.77503 0
M  V30 3942 H 678.197 5.40332 6.79951 0
M  V30 3943 H 677.927 4.41613 5.32378 0
M  V30 3944 H 678.794 3.26331 7.47797 0
M  V30 3945 P 682.756 2.75334 8.47391 0
M  V30 3946 O 682.976 2.44571 9.90142 0
M  V30 3947 O 683.546 3.87688 7.92115 0
M  V30 3948 O 683.006 1.4459 7.59357 0
M  V30 3949 C 682.066 0.347608 7.69215 0
M  V30 3950 C 682.796 -0.96767 7.52806 0
M  V30 3951 O 683.006 -1.21036 6.1011 0
M  V30 3952 C 684.196 -1.04544 8.13308 0
M  V30 3953 O 684.586 -2.38311 8.41922 0
M  V30 3954 C 685.076 -0.491279 7.02284 0
M  V30 3955 C 684.366 -0.996264 5.77469 0
M  V30 3956 N 684.416 -0.0501916 4.62973 0
M  V30 3957 H 681.577 0.374722 8.67691 0
M  V30 3958 H 681.307 0.443485 6.90277 0
M  V30 3959 H 682.174 -1.75537 7.96793 0
M  V30 3960 P 686.136 -2.75334 8.47391 0
M  V30 3961 O 686.356 -3.84128 9.44797 0
M  V30 3962 O 686.926 -1.51947 8.68712 0
M  V30 3963 O 686.386 -3.29363 6.99321 0
M  V30 3964 C 685.446 -4.24011 6.4274 0
M  V30 3965 C 686.176 -5.20775 5.52155 0
M  V30 3966 O 686.386 -4.56534 4.22446 0
M  V30 3967 C 687.576 -5.62629 5.96531 0
M  V30 3968 O 687.966 -6.87667 5.41053 0
M  V30 3969 C 688.456 -4.52537 5.39283 0
M  V30 3970 C 687.746 -4.20027 4.08623 0
M  V30 3971 N 687.796 -2.76189 3.71603 0
M  V30 3972 H 684.957 -4.797 7.24003 0
M  V30 3973 H 684.687 -3.69856 5.84513 0
M  V30 3974 H 685.554 -6.10356 5.41441 0
M  V30 3975 P 689.516 -7.20834 5.23717 0
M  V30 3976 O 689.736 -8.66104 5.38572 0
M  V30 3977 O 690.306 -6.33544 6.1349 0
M  V30 3978 O 689.766 -6.7751 3.72168 0
M  V30 3979 C 688.826 -7.20825 2.7076 0
M  V30 3980 C 689.556 -7.45864 1.40599 0
M  V30 3981 O 689.766 -6.17651 0.734225 0
M  V30 3982 C 690.956 -8.05808 1.51899 0
M  V30 3983 O 691.346 -8.74358 0.335205 0
M  V30 3984 C 691.836 -6.83093 1.70294 0
M  V30 3985 C 691.126 -5.79992 0.836974 0
M  V30 3986 N 691.176 -4.41864 1.38293 0
M  V30 3987 H 688.337 -8.13644 3.0377 0
M  V30 3988 H 688.067 -6.42788 2.55485 0
M  V30 3989 H 688.934 -8.12039 0.792769 0
M  V30 3990 P 692.896 -8.91 -4.67181e-12 0
M  V30 3991 O 693.116 -10.1726 -0.733694 0
M  V30 3992 O 693.686 -8.73148 1.23936 0
M  V30 3993 O 693.146 -7.66872 -0.971405 0
M  V30 3994 C 692.206 -7.42309 -2.04641 0
M  V30 3995 C 692.936 -6.86059 -3.24661 0
M  V30 3996 O 693.146 -5.42847 -3.03646 0
M  V30 3997 C 694.336 -7.41196 -3.50753 0
M  V30 3998 O 694.726 -7.27073 -4.86816 0
M  V30 3999 C 695.216 -6.5273 -2.63741 0
M  V30 4000 C 694.506 -5.1842 -2.73198 0
M  V30 4001 N 694.556 -4.38762 -1.4784 0
M  V30 4002 H 691.717 -8.36803 -2.32493 0
M  V30 4003 H 691.447 -6.70197 -1.71129 0
M  V30 4004 H 692.314 -7.03551 -4.13168 0
M  V30 4005 P 696.276 -7.20834 -5.23717 0
M  V30 4006 O 696.496 -7.79853 -6.57286 0
M  V30 4007 O 697.066 -7.79239 -4.12957 0
M  V30 4008 O 696.526 -5.63315 -5.29344 0
M  V30 4009 C 695.586 -4.80255 -6.01876 0
M  V30 4010 C 696.316 -3.64202 -6.65911 0
M  V30 4011 O 696.526 -2.60694 -5.64732 0
M  V30 4012 C 697.716 -3.93473 -7.1943 0
M  V30 4013 O 698.106 -3.02071 -8.21205 0
M  V30 4014 C 698.596 -3.73047 -5.97036 0
M  V30 4015 C 697.886 -2.58828 -5.25741 0
M  V30 4016 N 697.936 -2.68068 -3.77503 0
M  V30 4017 C 697.856 -3.79715 -2.96723 0
M  V30 4018 N 697.936 -3.5377 -1.68852 0
M  V30 4019 C 698.076 -2.15054 -1.63254 0
M  V30 4020 C 698.206 -1.28964 -0.518571 0
M  V30 4021 N 698.326 0.0538097 -0.918425 0
M  V30 4022 C 698.326 0.494275 -2.22578 0
M  V30 4023 N 698.456 1.81086 -2.40434 0
M  V30 4024 N 698.196 -0.313645 -3.27502 0
M  V30 4025 C 698.076 -1.61829 -2.91033 0
M  V30 4026 H 695.097 -5.40332 -6.79951 0
M  V30 4027 H 694.827 -4.41613 -5.32378 0
M  V30 4028 H 695.694 -3.26331 -7.47797 0
M  V30 4029 P 699.656 -2.75334 -8.47391 0
M  V30 4030 O 699.876 -2.44571 -9.90142 0
M  V30 4031 O 700.446 -3.87688 -7.92115 0
M  V30 4032 O 699.906 -1.4459 -7.59357 0
M  V30 4033 C 698.966 -0.347608 -7.69215 0
M  V30 4034 C 699.696 0.96767 -7.52806 0
M  V30 4035 O 699.906 1.21036 -6.1011 0
M  V30 4036 C 701.096 1.04544 -8.13308 0
M  V30 4037 O 701.486 2.38311 -8.41922 0
M  V30 4038 C 701.976 0.491279 -7.02284 0
M  V30 4039 C 701.266 0.996264 -5.77469 0
M  V30 4040 N 701.316 0.0501916 -4.62973 0
M  V30 4041 H 698.477 -0.374722 -8.67691 0
M  V30 4042 H 698.207 -0.443485 -6.90277 0
M  V30 4043 H 699.074 1.75537 -7.96793 0
M  V30 4044 P 703.036 2.75334 -8.47391 0
M  V30 4045 O 703.256 3.84128 -9.44797 0
M  V30 4046 O 703.826 1.51947 -8.68712 0
M  V30 4047 O 703.286 3.29363 -6.99321 0
M  V30 4048 C 702.346 4.24011 -6.4274 0
M  V30 4049 C 703.076 5.20775 -5.52155 0
M  V30 4050 O 703.286 4.56534 -4.22446 0
M  V30 4051 C 704.476 5.62629 -5.96531 0
M  V30 4052 O 704.866 6.87667 -5.41053 0
M  V30 4053 C 705.356 4.52537 -5.39283 0
M  V30 4054 C 704.646 4.20027 -4.08623 0
M  V30 4055 N 704.696 2.76189 -3.71603 0
M  V30 4056 H 701.857 4.797 -7.24003 0
M  V30 4057 H 701.587 3.69856 -5.84513 0
M  V30 4058 H 702.454 6.10356 -5.41441 0
M  V30 4059 P 706.416 7.20834 -5.23717 0
M  V30 4060 O 706.636 8.66104 -5.38572 0
M  V30 4061 O 707.206 6.33544 -6.1349 0
M  V30 4062 O 706.666 6.7751 -3.72168 0
M  V30 4063 C 705.726 7.20825 -2.7076 0
M  V30 4064 C 706.456 7.45864 -1.40599 0
M  V30 4065 O 706.666 6.17651 -0.734225 0
M  V30 4066 C 707.856 8.05808 -1.51899 0
M  V30 4067 O 708.246 8.74358 -0.335205 0
M  V30 4068 C 708.736 6.83093 -1.70294 0
M  V30 4069 C 708.026 5.79992 -0.836974 0
M  V30 4070 N 708.076 4.41864 -1.38293 0
M  V30 4071 C 707.996 3.99538 -2.69438 0
M  V30 4072 N 708.076 2.69909 -2.84277 0
M  V30 4073 C 708.216 2.21719 -1.5408 0
M  V30 4074 C 708.346 0.891712 -1.06628 0
M  V30 4075 N 708.466 0.856846 0.334985 0
M  V30 4076 C 708.466 1.9641 1.15789 0
M  V30 4077 N 708.596 1.72708 2.46522 0
M  V30 4078 N 708.336 3.21165 0.713741 0
M  V30 4079 C 708.216 3.26797 -0.639748 0
M  V30 4080 H 705.237 8.13644 -3.0377 0
M  V30 4081 H 704.967 6.42788 -2.55485 0
M  V30 4082 H 705.834 8.12039 -0.792769 0
M  V30 4083 P 709.796 8.91 4.82899e-12 0
M  V30 4084 O 710.016 10.1726 0.733694 0
M  V30 4085 O 710.586 8.73148 -1.23936 0
M  V30 4086 O 710.046 7.66872 0.971405 0
M  V30 4087 C 709.106 7.42309 2.04641 0
M  V30 4088 C 709.836 6.86059 3.24661 0
M  V30 4089 O 710.046 5.42847 3.03646 0
M  V30 4090 C 711.236 7.41196 3.50753 0
M  V30 4091 O 711.626 7.27073 4.86816 0
M  V30 4092 C 712.116 6.5273 2.63741 0
M  V30 4093 C 711.406 5.1842 2.73198 0
M  V30 4094 N 711.456 4.38762 1.4784 0
M  V30 4095 H 708.617 8.36803 2.32493 0
M  V30 4096 H 708.347 6.70197 1.71129 0
M  V30 4097 H 709.214 7.03551 4.13168 0
M  V30 4098 P 713.176 7.20834 5.23717 0
M  V30 4099 O 713.396 7.79853 6.57286 0
M  V30 4100 O 713.966 7.79239 4.12957 0
M  V30 4101 O 713.426 5.63315 5.29344 0
M  V30 4102 C 712.486 4.80255 6.01876 0
M  V30 4103 C 713.216 3.64202 6.65911 0
M  V30 4104 O 713.426 2.60694 5.64732 0
M  V30 4105 C 714.616 3.93473 7.1943 0
M  V30 4106 O 715.006 3.02071 8.21205 0
M  V30 4107 C 715.496 3.73047 5.97036 0
M  V30 4108 C 714.786 2.58828 5.25741 0
M  V30 4109 N 714.836 2.68068 3.77503 0
M  V30 4110 H 711.997 5.40332 6.79951 0
M  V30 4111 H 711.727 4.41613 5.32378 0
M  V30 4112 H 712.594 3.26331 7.47797 0
M  V30 4113 P 716.556 2.75334 8.47391 0
M  V30 4114 O 716.776 2.44595 9.90239 0
M  V30 4115 O 717.346 3.87732 7.92204 0
M  V30 4116 O 716.806 1.4459 7.59357 0
M  V30 4117 C 715.866 0.347563 7.69115 0
M  V30 4118 C 716.596 -0.96767 7.52806 0
M  V30 4119 O 716.806 -1.21036 6.1011 0
M  V30 4120 C 717.996 -1.04544 8.13308 0
M  V30 4121 O 718.386 -2.38311 8.41922 0
M  V30 4122 C 718.876 -0.491279 7.02284 0
M  V30 4123 C 718.166 -0.996264 5.77469 0
M  V30 4124 N 718.216 -0.0501808 4.62873 0
M  V30 4125 C 718.366 -0.588177 3.36904 0
M  V30 4126 O 718.456 -1.78598 3.17173 0
M  V30 4127 N 718.406 0.329694 2.33686 0
M  V30 4128 C 718.316 1.6953 2.45079 0
M  V30 4129 O 718.366 2.41926 1.44899 0
M  V30 4130 C 718.166 2.16933 3.80505 0
M  V30 4131 C 718.056 3.65373 3.97621 0
M  V30 4132 C 718.116 1.30326 4.83752 0
M  V30 4133 H 715.376 0.374722 8.67691 0
M  V30 4134 H 715.107 0.443421 6.90177 0
M  V30 4135 H 715.974 -1.75537 7.96793 0
M  V30 4136 H 718.629 -1.94496 5.46629 0
M  V30 4137 H 718.908 0.608651 7.04676 0
M  V30 4138 H 719.9 -0.889672 7.08939 0
M  V30 4139 H 718.066 -0.43308 9.04564 0
M  V30 4140 H 717.995 1.68366 5.8516 0
M  V30 4141 H 719.025 4.05985 4.30448 0
M  V30 4142 H 717.288 3.88028 4.72875 0
M  V30 4143 H 717.776 4.11381 3.01609 0
M  V30 4144 H 718.512 -0.0393617 1.41345 0
M  V30 4145 P 719.936 -2.75334 8.47391 0
M  V30 4146 O 720.156 -3.84128 9.44797 0
M  V30 4147 O 720.726 -1.51947 8.68712 0
M  V30 4148 O 720.186 -3.29363 6.99321 0
M  V30 4149 C 719.246 -4.24011 6.4274 0
M  V30 4150 C 719.976 -5.20775 5.52155 0
M  V30 4151 O 720.186 -4.56534 4.22446 0
M  V30 4152 C 721.376 -5.62629 5.96531 0
M  V30 4153 O 721.766 -6.87667 5.41053 0
M  V30 4154 C 722.256 -4.52537 5.39283 0
M  V30 4155 C 721.546 -4.20027 4.08623 0
M  V30 4156 N 721.596 -2.76189 3.71603 0
M  V30 4157 H 718.757 -4.797 7.24003 0
M  V30 4158 H 718.487 -3.69856 5.84513 0
M  V30 4159 H 719.354 -6.10356 5.41441 0
M  V30 4160 P 723.316 -7.20834 5.23717 0
M  V30 4161 O 723.536 -8.66104 5.38572 0
M  V30 4162 O 724.106 -6.33544 6.1349 0
M  V30 4163 O 723.566 -6.7751 3.72168 0
M  V30 4164 C 722.626 -7.20825 2.7076 0
M  V30 4165 C 723.356 -7.45864 1.40599 0
M  V30 4166 O 723.566 -6.17651 0.734225 0
M  V30 4167 C 724.756 -8.05808 1.51899 0
M  V30 4168 O 725.146 -8.74358 0.335205 0
M  V30 4169 C 725.636 -6.83093 1.70294 0
M  V30 4170 C 724.926 -5.79992 0.836974 0
M  V30 4171 N 724.976 -4.41864 1.38293 0
M  V30 4172 H 722.137 -8.13644 3.0377 0
M  V30 4173 H 721.867 -6.42788 2.55485 0
M  V30 4174 H 722.734 -8.12039 0.792769 0
M  V30 4175 P 726.696 -8.91 -4.98617e-12 0
M  V30 4176 O 726.916 -10.1726 -0.733694 0
M  V30 4177 O 727.486 -8.73148 1.23936 0
M  V30 4178 O 726.946 -7.66872 -0.971405 0
M  V30 4179 C 726.006 -7.42309 -2.04641 0
M  V30 4180 C 726.736 -6.86059 -3.24661 0
M  V30 4181 O 726.946 -5.42847 -3.03646 0
M  V30 4182 C 728.136 -7.41196 -3.50753 0
M  V30 4183 O 728.526 -7.27073 -4.86816 0
M  V30 4184 C 729.016 -6.5273 -2.63741 0
M  V30 4185 C 728.306 -5.1842 -2.73198 0
M  V30 4186 N 728.356 -4.38762 -1.4784 0
M  V30 4187 C 728.276 -4.81605 -0.168631 0
M  V30 4188 N 728.356 -3.85454 0.713363 0
M  V30 4189 C 728.496 -2.6994 -0.0566958 0
M  V30 4190 C 728.626 -1.34815 0.338502 0
M  V30 4191 O 728.646 -0.869548 1.47125 0
M  V30 4192 N 728.746 -0.496304 -0.77465 0
M  V30 4193 C 728.746 -0.908403 -2.09122 0
M  V30 4194 N 728.876 0.0517805 -3.00955 0
M  V30 4195 N 728.616 -2.17875 -2.46519 0
M  V30 4196 C 728.496 -3.01988 -1.4033 0
M  V30 4197 H 725.517 -8.36803 -2.32493 0
M  V30 4198 H 725.247 -6.70197 -1.71129 0
M  V30 4199 H 726.114 -7.03551 -4.13168 0
M  V30 4200 H 728.769 -4.59498 -3.54415 0
M  V30 4201 H 729.048 -6.88898 -1.59848 0
M  V30 4202 H 730.04 -6.46749 -3.03687 0
M  V30 4203 H 728.206 -8.46908 -3.20714 0
M  V30 4204 H 728.157 -5.86405 0.105564 0
M  V30 4205 H 728.839 0.483664 -0.597855 0
M  V30 4206 H 728.876 -0.187865 -4.0116 0
M  V30 4207 H 728.977 1.03585 -2.71726 0
M  V30 4208 P 730.076 -7.20834 -5.23717 0
M  V30 4209 O 730.296 -7.79853 -6.57286 0
M  V30 4210 O 730.866 -7.79239 -4.12957 0
M  V30 4211 O 730.326 -5.63315 -5.29344 0
M  V30 4212 C 729.386 -4.80255 -6.01876 0
M  V30 4213 C 730.116 -3.64202 -6.65911 0
M  V30 4214 O 730.326 -2.60694 -5.64732 0
M  V30 4215 C 731.516 -3.93473 -7.1943 0
M  V30 4216 O 731.906 -3.02071 -8.21205 0
M  V30 4217 C 732.396 -3.73047 -5.97036 0
M  V30 4218 C 731.686 -2.58828 -5.25741 0
M  V30 4219 N 731.736 -2.68068 -3.77503 0
M  V30 4220 H 728.897 -5.40332 -6.79951 0
M  V30 4221 H 728.627 -4.41613 -5.32378 0
M  V30 4222 H 729.494 -3.26331 -7.47797 0
M  V30 4223 P 733.456 -2.75334 -8.47391 0
M  V30 4224 O 733.676 -2.44595 -9.90239 0
M  V30 4225 O 734.246 -3.87732 -7.92204 0
M  V30 4226 O 733.706 -1.4459 -7.59357 0
M  V30 4227 C 732.766 -0.347563 -7.69115 0
M  V30 4228 C 733.496 0.96767 -7.52806 0
M  V30 4229 O 733.706 1.21036 -6.1011 0
M  V30 4230 C 734.896 1.04544 -8.13308 0
M  V30 4231 O 735.286 2.38311 -8.41922 0
M  V30 4232 C 735.776 0.491279 -7.02284 0
M  V30 4233 C 735.066 0.996264 -5.77469 0
M  V30 4234 N 735.116 0.0501808 -4.62873 0
M  V30 4235 C 735.266 0.588177 -3.36904 0
M  V30 4236 O 735.356 1.78598 -3.17173 0
M  V30 4237 N 735.306 -0.329694 -2.33686 0
M  V30 4238 C 735.216 -1.6953 -2.45079 0
M  V30 4239 O 735.266 -2.41926 -1.44899 0
M  V30 4240 C 735.066 -2.16933 -3.80505 0
M  V30 4241 C 734.956 -3.65373 -3.97621 0
M  V30 4242 C 735.016 -1.30326 -4.83752 0
M  V30 4243 H 732.276 -0.374722 -8.67691 0
M  V30 4244 H 732.007 -0.443421 -6.90177 0
M  V30 4245 H 732.874 1.75537 -7.96793 0
M  V30 4246 H 735.529 1.94496 -5.46629 0
M  V30 4247 H 735.808 -0.608651 -7.04676 0
M  V30 4248 H 736.8 0.889672 -7.08939 0
M  V30 4249 H 734.966 0.43308 -9.04564 0
M  V30 4250 H 734.895 -1.68366 -5.8516 0
M  V30 4251 H 735.925 -4.05985 -4.30448 0
M  V30 4252 H 734.188 -3.88028 -4.72875 0
M  V30 4253 H 734.676 -4.11381 -3.01609 0
M  V30 4254 H 735.412 0.0393617 -1.41345 0
M  V30 4255 P 736.836 2.75334 -8.47391 0
M  V30 4256 O 737.056 3.84204 -9.44982 0
M  V30 4257 O 737.626 1.51982 -8.68909 0
M  V30 4258 O 737.086 3.29363 -6.99321 0
M  V30 4259 C 736.146 4.24066 -6.42823 0
M  V30 4260 C 736.876 5.20775 -5.52155 0
M  V30 4261 O 737.086 4.56607 -4.22514 0
M  V30 4262 C 738.276 5.62697 -5.96604 0
M  V30 4263 O 738.666 6.87667 -5.41053 0
M  V30 4264 C 739.156 4.52537 -5.39283 0
M  V30 4265 C 738.446 4.20027 -4.08623 0
M  V30 4266 N 738.496 2.76189 -3.71603 0
M  V30 4267 C 738.416 1.66944 -4.54297 0
M  V30 4268 N 738.486 0.536169 -3.91344 0
M  V30 4269 C 738.636 0.901569 -2.58849 0
M  V30 4270 C 738.766 0.146599 -1.40236 0
M  V30 4271 N 738.776 -1.18234 -1.37046 0
M  V30 4272 N 738.886 0.822941 -0.249738 0
M  V30 4273 C 738.876 2.15179 -0.280525 0
M  V30 4274 N 738.756 2.96414 -1.30822 0
M  V30 4275 C 738.636 2.25804 -2.44748 0
M  V30 4276 H 735.658 4.79756 -7.24086 0
M  V30 4277 H 735.386 3.69963 -5.84682 0
M  V30 4278 H 736.254 6.10431 -5.41508 0
M  V30 4279 H 738.909 4.78816 -3.28024 0
M  V30 4280 H 739.189 3.64957 -6.05871 0
M  V30 4281 H 740.18 4.88748 -5.21323 0
M  V30 4282 H 738.346 5.66789 -7.0643 0
M  V30 4283 H 738.305 1.74684 -5.62396 0
M  V30 4284 H 738.686 -1.71949 -2.24394 0
M  V30 4285 H 738.875 -1.67511 -0.470742 0
M  V30 4286 H 738.983 2.63704 0.6828 0
M  V30 4287 P 740.216 7.20834 -5.23717 0
M  V30 4288 O 740.436 8.66104 -5.38572 0
M  V30 4289 O 741.006 6.33544 -6.1349 0
M  V30 4290 O 740.466 6.7751 -3.72168 0
M  V30 4291 C 739.526 7.20825 -2.7076 0
M  V30 4292 C 740.256 7.45864 -1.40599 0
M  V30 4293 O 740.466 6.17651 -0.734225 0
M  V30 4294 C 741.656 8.05808 -1.51899 0
M  V30 4295 O 742.046 8.74358 -0.335205 0
M  V30 4296 C 742.536 6.83093 -1.70294 0
M  V30 4297 C 741.826 5.79992 -0.836974 0
M  V30 4298 N 741.876 4.41864 -1.38293 0
M  V30 4299 H 739.037 8.13644 -3.0377 0
M  V30 4300 H 738.767 6.42788 -2.55485 0
M  V30 4301 H 739.634 8.12039 -0.792769 0
M  V30 4302 P 743.596 8.91 5.14336e-12 0
M  V30 4303 O 743.816 10.1726 0.733694 0
M  V30 4304 O 744.386 8.73148 -1.23936 0
M  V30 4305 O 743.846 7.66872 0.971405 0
M  V30 4306 C 742.906 7.42309 2.04641 0
M  V30 4307 C 743.636 6.86059 3.24661 0
M  V30 4308 O 743.846 5.42847 3.03646 0
M  V30 4309 C 745.036 7.41196 3.50753 0
M  V30 4310 O 745.426 7.27073 4.86816 0
M  V30 4311 C 745.916 6.5273 2.63741 0
M  V30 4312 C 745.206 5.1842 2.73198 0
M  V30 4313 N 745.256 4.38762 1.4784 0
M  V30 4314 H 742.417 8.36803 2.32493 0
M  V30 4315 H 742.147 6.70197 1.71129 0
M  V30 4316 H 743.014 7.03551 4.13168 0
M  V30 4317 P 746.976 7.20834 5.23717 0
M  V30 4318 O 747.196 7.7993 6.57351 0
M  V30 4319 O 747.766 7.79328 4.13004 0
M  V30 4320 O 747.226 5.63315 5.29344 0
M  V30 4321 C 746.286 4.80255 6.01876 0
M  V30 4322 C 747.016 3.64202 6.65911 0
M  V30 4323 O 747.226 2.60694 5.64732 0
M  V30 4324 C 748.416 3.93473 7.1943 0
M  V30 4325 O 748.806 3.02071 8.21205 0
M  V30 4326 C 749.296 3.73047 5.97036 0
M  V30 4327 C 748.586 2.58828 5.25741 0
M  V30 4328 N 748.636 2.6801 3.77422 0
M  V30 4329 C 748.786 1.50173 3.05038 0
M  V30 4330 O 748.876 0.428832 3.665 0
M  V30 4331 N 748.836 1.70922 1.55541 0
M  V30 4332 C 748.736 2.7407 1.06402 0
M  V30 4333 N 748.786 2.74764 -0.260931 0
M  V30 4334 C 748.586 3.96781 1.78296 0
M  V30 4335 C 748.536 3.87909 3.13891 0
M  V30 4336 H 745.796 5.4027 6.79873 0
M  V30 4337 H 745.527 4.41549 5.32301 0
M  V30 4338 H 746.394 3.26371 7.47889 0
M  V30 4339 H 749.049 1.63978 5.5665 0
M  V30 4340 H 749.328 4.63439 5.3432 0
M  V30 4341 H 750.32 3.44728 6.25838 0
M  V30 4342 H 748.486 4.96652 7.57263 0
M  V30 4343 H 748.414 4.78425 3.73088 0
M  V30 4344 H 748.516 4.92593 1.26997 0
M  V30 4345 H 748.904 1.86285 -0.77595 0
M  V30 4346 H 748.707 3.63657 -0.773896 0
M  V30 4347 P 750.356 2.75334 8.47391 0
M  V30 4348 O 750.576 2.44571 9.90142 0
M  V30 4349 O 751.146 3.87688 7.92115 0
M  V30 4350 O 750.606 1.4459 7.59357 0
M  V30 4351 C 749.666 0.347608 7.69215 0
M  V30 4352 C 750.396 -0.96767 7.52806 0
M  V30 4353 O 750.606 -1.21036 6.1011 0
M  V30 4354 C 751.796 -1.04544 8.13308 0
M  V30 4355 O 752.186 -2.38311 8.41922 0
M  V30 4356 C 752.676 -0.491279 7.02284 0
M  V30 4357 C 751.966 -0.996264 5.77469 0
M  V30 4358 N 752.016 -0.0501916 4.62973 0
M  V30 4359 H 749.177 0.374722 8.67691 0
M  V30 4360 H 748.907 0.443485 6.90277 0
M  V30 4361 H 749.774 -1.75537 7.96793 0
M  V30 4362 P 753.736 -2.75334 8.47391 0
M  V30 4363 O 753.956 -3.84204 9.44982 0
M  V30 4364 O 754.526 -1.51982 8.68909 0
M  V30 4365 O 753.986 -3.29363 6.99321 0
M  V30 4366 C 753.046 -4.24066 6.42823 0
M  V30 4367 C 753.776 -5.20775 5.52155 0
M  V30 4368 O 753.986 -4.56607 4.22514 0
M  V30 4369 C 755.176 -5.62697 5.96604 0
M  V30 4370 O 755.566 -6.87667 5.41053 0
M  V30 4371 C 756.056 -4.52537 5.39283 0
M  V30 4372 C 755.346 -4.20027 4.08623 0
M  V30 4373 N 755.396 -2.76189 3.71603 0
M  V30 4374 C 755.316 -1.66944 4.54297 0
M  V30 4375 N 755.386 -0.536169 3.91344 0
M  V30 4376 C 755.536 -0.901569 2.58849 0
M  V30 4377 C 755.666 -0.146599 1.40236 0
M  V30 4378 N 755.676 1.18234 1.37046 0
M  V30 4379 N 755.786 -0.822941 0.249738 0
M  V30 4380 C 755.776 -2.15179 0.280525 0
M  V30 4381 N 755.656 -2.96414 1.30822 0
M  V30 4382 C 755.536 -2.25804 2.44748 0
M  V30 4383 H 752.558 -4.79756 7.24086 0
M  V30 4384 H 752.286 -3.69963 5.84682 0
M  V30 4385 H 753.154 -6.10431 5.41508 0
M  V30 4386 H 755.809 -4.78816 3.28024 0
M  V30 4387 H 756.089 -3.64957 6.05871 0
M  V30 4388 H 757.08 -4.88748 5.21323 0
M  V30 4389 H 755.246 -5.66789 7.0643 0
M  V30 4390 H 755.205 -1.74684 5.62396 0
M  V30 4391 H 755.586 1.71949 2.24394 0
M  V30 4392 H 755.775 1.67511 0.470742 0
M  V30 4393 H 755.883 -2.63704 -0.6828 0
M  V30 4394 P 757.116 -7.20834 5.23717 0
M  V30 4395 O 757.336 -8.66274 5.38678 0
M  V30 4396 O 757.906 -6.33687 6.13629 0
M  V30 4397 O 757.366 -6.7751 3.72168 0
M  V30 4398 C 756.426 -7.20919 2.70795 0
M  V30 4399 C 757.156 -7.45864 1.40599 0
M  V30 4400 O 757.366 -6.17751 0.734343 0
M  V30 4401 C 758.556 -8.05906 1.51917 0
M  V30 4402 O 758.946 -8.74358 0.335205 0
M  V30 4403 C 759.436 -6.83093 1.70294 0
M  V30 4404 C 758.726 -5.79992 0.836974 0
M  V30 4405 N 758.776 -4.41864 1.38293 0
M  V30 4406 H 755.938 -8.13738 3.03804 0
M  V30 4407 H 755.666 -6.42974 2.55559 0
M  V30 4408 H 756.534 -8.12139 0.792866 0
M  V30 4409 H 759.189 -5.80178 -0.160643 0
M  V30 4410 H 759.469 -6.51379 2.75643 0
M  V30 4411 H 760.46 -7.01832 1.3448 0
M  V30 4412 H 758.626 -8.73771 2.38364 0
M  V30 4413 P 760.496 -8.91 -5.30054e-12 0
M  V30 4414 O 760.716 -10.1726 -0.733694 0
M  V30 4415 O 761.286 -8.73148 1.23936 0
M  V30 4416 O 760.746 -7.66872 -0.971405 0
M  V30 4417 C 759.806 -7.42309 -2.04641 0
M  V30 4418 C 760.536 -6.86059 -3.24661 0
M  V30 4419 O 760.746 -5.42847 -3.03646 0
M  V30 4420 C 761.936 -7.41196 -3.50753 0
M  V30 4421 O 762.326 -7.27073 -4.86816 0
M  V30 4422 C 762.816 -6.5273 -2.63741 0
M  V30 4423 C 762.106 -5.1842 -2.73198 0
M  V30 4424 N 762.156 -4.38762 -1.4784 0
M  V30 4425 C 762.076 -4.81605 -0.168631 0
M  V30 4426 N 762.156 -3.85454 0.713363 0
M  V30 4427 C 762.296 -2.6994 -0.0566958 0
M  V30 4428 C 762.426 -1.34815 0.338502 0
M  V30 4429 O 762.446 -0.869548 1.47125 0
M  V30 4430 N 762.546 -0.496304 -0.77465 0
M  V30 4431 C 762.546 -0.908403 -2.09122 0
M  V30 4432 N 762.676 0.0517805 -3.00955 0
M  V30 4433 N 762.416 -2.17875 -2.46519 0
M  V30 4434 C 762.296 -3.01988 -1.4033 0
M  V30 4435 H 759.317 -8.36803 -2.32493 0
M  V30 4436 H 759.047 -6.70197 -1.71129 0
M  V30 4437 H 759.914 -7.03551 -4.13168 0
M  V30 4438 H 762.569 -4.59498 -3.54415 0
M  V30 4439 H 762.848 -6.88898 -1.59848 0
M  V30 4440 H 763.84 -6.46749 -3.03687 0
M  V30 4441 H 762.006 -8.46908 -3.20714 0
M  V30 4442 H 761.957 -5.86405 0.105564 0
M  V30 4443 H 762.639 0.483664 -0.597855 0
M  V30 4444 H 762.676 -0.187865 -4.0116 0
M  V30 4445 H 762.777 1.03585 -2.71726 0
M  V30 4446 P 763.875 -7.20834 -5.23717 0
M  V30 4447 O 764.095 -7.79853 -6.57286 0
M  V30 4448 O 764.665 -7.79239 -4.12957 0
M  V30 4449 O 764.125 -5.63315 -5.29344 0
M  V30 4450 C 763.185 -4.80255 -6.01876 0
M  V30 4451 C 763.915 -3.64202 -6.65911 0
M  V30 4452 O 764.125 -2.60694 -5.64732 0
M  V30 4453 C 765.315 -3.93473 -7.1943 0
M  V30 4454 O 765.705 -3.02071 -8.21205 0
M  V30 4455 C 766.195 -3.73047 -5.97036 0
M  V30 4456 C 765.485 -2.58828 -5.25741 0
M  V30 4457 N 765.535 -2.68068 -3.77503 0
M  V30 4458 H 762.696 -5.40332 -6.79951 0
M  V30 4459 H 762.426 -4.41613 -5.32378 0
M  V30 4460 H 763.293 -3.26331 -7.47797 0
M  V30 4461 P 767.255 -2.75334 -8.47391 0
M  V30 4462 O 767.475 -2.44595 -9.90239 0
M  V30 4463 O 768.045 -3.87732 -7.92204 0
M  V30 4464 O 767.505 -1.4459 -7.59357 0
M  V30 4465 C 766.565 -0.347563 -7.69115 0
M  V30 4466 C 767.295 0.96767 -7.52806 0
M  V30 4467 O 767.505 1.21036 -6.1011 0
M  V30 4468 C 768.695 1.04544 -8.13308 0
M  V30 4469 O 769.085 2.38311 -8.41922 0
M  V30 4470 C 769.575 0.491279 -7.02284 0
M  V30 4471 C 768.865 0.996264 -5.77469 0
M  V30 4472 N 768.915 0.0501808 -4.62873 0
M  V30 4473 C 769.065 0.588177 -3.36904 0
M  V30 4474 O 769.155 1.78598 -3.17173 0
M  V30 4475 N 769.105 -0.329694 -2.33686 0
M  V30 4476 C 769.015 -1.6953 -2.45079 0
M  V30 4477 C 768.865 -2.16933 -3.80505 0
M  V30 4478 C 768.815 -1.30326 -4.83752 0
M  V30 4479 H 766.075 -0.374722 -8.67691 0
M  V30 4480 H 765.806 -0.443421 -6.90177 0
M  V30 4481 H 766.673 1.75537 -7.96793 0
M  V30 4482 H 769.328 1.94496 -5.46629 0
M  V30 4483 H 769.607 -0.608651 -7.04676 0
M  V30 4484 H 770.599 0.889672 -7.08939 0
M  V30 4485 H 768.765 0.43308 -9.04564 0
M  V30 4486 H 768.694 -1.68366 -5.8516 0
M  V30 4487 P 770.635 2.75334 -8.47391 0
M  V30 4488 O 770.855 3.84128 -9.44797 0
M  V30 4489 O 771.425 1.51947 -8.68712 0
M  V30 4490 O 770.885 3.29363 -6.99321 0
M  V30 4491 C 769.945 4.24011 -6.4274 0
M  V30 4492 C 770.675 5.20775 -5.52155 0
M  V30 4493 O 770.885 4.56534 -4.22446 0
M  V30 4494 C 772.075 5.62629 -5.96531 0
M  V30 4495 O 772.465 6.87667 -5.41053 0
M  V30 4496 C 772.955 4.52537 -5.39283 0
M  V30 4497 C 772.245 4.20027 -4.08623 0
M  V30 4498 N 772.295 2.76189 -3.71603 0
M  V30 4499 H 769.456 4.797 -7.24003 0
M  V30 4500 H 769.186 3.69856 -5.84513 0
M  V30 4501 H 770.053 6.10356 -5.41441 0
M  V30 4502 P 774.015 7.20834 -5.23717 0
M  V30 4503 O 774.235 8.66104 -5.38572 0
M  V30 4504 O 774.805 6.33544 -6.1349 0
M  V30 4505 O 774.265 6.7751 -3.72168 0
M  V30 4506 C 773.325 7.20825 -2.7076 0
M  V30 4507 C 774.055 7.45864 -1.40599 0
M  V30 4508 O 774.265 6.17651 -0.734225 0
M  V30 4509 C 775.455 8.05808 -1.51899 0
M  V30 4510 O 775.845 8.74358 -0.335205 0
M  V30 4511 C 776.335 6.83093 -1.70294 0
M  V30 4512 C 775.625 5.79992 -0.836974 0
M  V30 4513 N 775.675 4.41864 -1.38293 0
M  V30 4514 H 772.836 8.13644 -3.0377 0
M  V30 4515 H 772.566 6.42788 -2.55485 0
M  V30 4516 H 773.433 8.12039 -0.792769 0
M  V30 4517 P 777.395 8.91 5.45772e-12 0
M  V30 4518 O 777.615 10.1726 0.733694 0
M  V30 4519 O 778.185 8.73148 -1.23936 0
M  V30 4520 O 777.645 7.66872 0.971405 0
M  V30 4521 C 776.705 7.42309 2.04641 0
M  V30 4522 C 777.435 6.86059 3.24661 0
M  V30 4523 O 777.645 5.42847 3.03646 0
M  V30 4524 C 778.835 7.41196 3.50753 0
M  V30 4525 O 779.225 7.27073 4.86816 0
M  V30 4526 C 779.715 6.5273 2.63741 0
M  V30 4527 C 779.005 5.1842 2.73198 0
M  V30 4528 N 779.055 4.38762 1.4784 0
M  V30 4529 H 776.216 8.36803 2.32493 0
M  V30 4530 H 775.946 6.70197 1.71129 0
M  V30 4531 H 776.813 7.03551 4.13168 0
M  V30 4532 P 780.775 7.20834 5.23717 0
M  V30 4533 O 780.995 7.79853 6.57286 0
M  V30 4534 O 781.565 7.79239 4.12957 0
M  V30 4535 O 781.025 5.63315 5.29344 0
M  V30 4536 C 780.085 4.80255 6.01876 0
M  V30 4537 C 780.815 3.64202 6.65911 0
M  V30 4538 O 781.025 2.60694 5.64732 0
M  V30 4539 C 782.215 3.93473 7.1943 0
M  V30 4540 O 782.605 3.02071 8.21205 0
M  V30 4541 C 783.095 3.73047 5.97036 0
M  V30 4542 C 782.385 2.58828 5.25741 0
M  V30 4543 N 782.435 2.68068 3.77503 0
M  V30 4544 H 779.596 5.40332 6.79951 0
M  V30 4545 H 779.326 4.41613 5.32378 0
M  V30 4546 H 780.193 3.26331 7.47797 0
M  V30 4547 P 784.155 2.75334 8.47391 0
M  V30 4548 O 784.375 2.44595 9.90239 0
M  V30 4549 O 784.945 3.87732 7.92204 0
M  V30 4550 O 784.405 1.4459 7.59357 0
M  V30 4551 C 783.465 0.347563 7.69115 0
M  V30 4552 C 784.195 -0.96767 7.52806 0
M  V30 4553 O 784.405 -1.21036 6.1011 0
M  V30 4554 C 785.595 -1.04544 8.13308 0
M  V30 4555 O 785.985 -2.38311 8.41922 0
M  V30 4556 C 786.475 -0.491279 7.02284 0
M  V30 4557 C 785.765 -0.996264 5.77469 0
M  V30 4558 N 785.815 -0.0501808 4.62873 0
M  V30 4559 C 785.965 -0.588177 3.36904 0
M  V30 4560 O 786.055 -1.78598 3.17173 0
M  V30 4561 N 786.005 0.329694 2.33686 0
M  V30 4562 C 785.915 1.6953 2.45079 0
M  V30 4563 C 785.765 2.16933 3.80505 0
M  V30 4564 C 785.715 1.30326 4.83752 0
M  V30 4565 H 782.975 0.374722 8.67691 0
M  V30 4566 H 782.706 0.443421 6.90177 0
M  V30 4567 H 783.573 -1.75537 7.96793 0
M  V30 4568 H 786.228 -1.94496 5.46629 0
M  V30 4569 H 786.507 0.608651 7.04676 0
M  V30 4570 H 787.499 -0.889672 7.08939 0
M  V30 4571 H 785.665 -0.43308 9.04564 0
M  V30 4572 H 785.594 1.68366 5.8516 0
M  V30 4573 P 787.535 -2.75334 8.47391 0
M  V30 4574 O 787.755 -3.84204 9.44982 0
M  V30 4575 O 788.325 -1.51982 8.68909 0
M  V30 4576 O 787.785 -3.29363 6.99321 0
M  V30 4577 C 786.845 -4.24066 6.42823 0
M  V30 4578 C 787.575 -5.20775 5.52155 0
M  V30 4579 O 787.785 -4.56607 4.22514 0
M  V30 4580 C 788.975 -5.62697 5.96604 0
M  V30 4581 O 789.365 -6.87667 5.41053 0
M  V30 4582 C 789.855 -4.52537 5.39283 0
M  V30 4583 C 789.145 -4.20027 4.08623 0
M  V30 4584 N 789.195 -2.76189 3.71603 0
M  V30 4585 H 786.357 -4.79756 7.24086 0
M  V30 4586 H 786.085 -3.69963 5.84682 0
M  V30 4587 H 786.953 -6.10431 5.41508 0
M  V30 4588 H 789.608 -4.78816 3.28024 0
M  V30 4589 H 789.888 -3.64957 6.05871 0
M  V30 4590 H 790.879 -4.88748 5.21323 0
M  V30 4591 H 789.045 -5.66789 7.0643 0
M  V30 4592 P 790.915 -7.20834 5.23717 0
M  V30 4593 O 791.135 -8.66189 5.38625 0
M  V30 4594 O 791.705 -6.33615 6.1356 0
M  V30 4595 O 791.165 -6.7751 3.72168 0
M  V30 4596 C 790.225 -7.20732 2.70725 0
M  V30 4597 C 790.955 -7.45864 1.40599 0
M  V30 4598 O 791.165 -6.17651 0.734225 0
M  V30 4599 C 792.355 -8.05808 1.51899 0
M  V30 4600 O 792.745 -8.74358 0.335205 0
M  V30 4601 C 793.235 -6.83093 1.70294 0
M  V30 4602 C 792.525 -5.79992 0.836974 0
M  V30 4603 N 792.575 -4.41769 1.38263 0
M  V30 4604 C 792.725 -3.38591 0.481702 0
M  V30 4605 O 792.815 -3.56839 -0.718452 0
M  V30 4606 N 792.765 -2.1206 1.03569 0
M  V30 4607 C 792.675 -1.80696 2.36966 0
M  V30 4608 O 792.725 -0.630473 2.74862 0
M  V30 4609 C 792.525 -2.94845 3.23898 0
M  V30 4610 C 792.415 -2.65253 4.70362 0
M  V30 4611 C 792.475 -4.19803 2.73435 0
M  V30 4612 H 789.735 -8.13644 3.0377 0
M  V30 4613 H 789.466 -6.42695 2.55448 0
M  V30 4614 H 790.333 -8.12039 0.792769 0
M  V30 4615 H 792.988 -5.79978 -0.160587 0
M  V30 4616 H 793.267 -6.51379 2.75643 0
M  V30 4617 H 794.259 -7.01734 1.34462 0
M  V30 4618 H 792.425 -8.73674 2.38337 0
M  V30 4619 H 792.354 -5.04492 3.4095 0
M  V30 4620 H 793.384 -2.83924 5.1913 0
M  V30 4621 H 791.647 -3.29824 5.15163 0
M  V30 4622 H 792.135 -1.59723 4.84449 0
M  V30 4623 H 792.871 -1.35644 0.399345 0
M  V30 4624 P 794.295 -8.91 -5.6149e-12 0
M  V30 4625 O 794.515 -10.1746 -0.733838 0
M  V30 4626 O 795.085 -8.73346 1.23964 0
M  V30 4627 O 794.545 -7.66872 -0.971405 0
M  V30 4628 C 793.605 -7.42405 -2.04668 0
M  V30 4629 C 794.335 -6.86059 -3.24661 0
M  V30 4630 O 794.545 -5.42934 -3.03695 0
M  V30 4631 C 795.735 -7.41287 -3.50796 0
M  V30 4632 O 796.125 -7.27073 -4.86816 0
M  V30 4633 C 796.615 -6.5273 -2.63741 0
M  V30 4634 C 795.905 -5.1842 -2.73198 0
M  V30 4635 N 795.955 -4.38762 -1.4784 0
M  V30 4636 H 793.117 -8.36899 -2.3252 0
M  V30 4637 H 792.845 -6.70391 -1.71179 0
M  V30 4638 H 793.713 -7.03638 -4.13219 0
M  V30 4639 H 796.368 -4.59931 -3.54016 0
M  V30 4640 H 796.648 -6.88995 -1.59871 0
M  V30 4641 H 797.639 -6.4684 -3.0373 0
M  V30 4642 H 795.805 -8.47002 -3.20749 0
M  V30 4643 P 797.675 -7.20834 -5.23717 0
M  V30 4644 O 797.895 -7.80006 -6.57415 0
M  V30 4645 O 798.465 -7.79416 -4.13051 0
M  V30 4646 O 797.925 -5.63315 -5.29344 0
M  V30 4647 C 796.985 -4.80318 -6.01954 0
M  V30 4648 C 797.715 -3.64202 -6.65911 0
M  V30 4649 O 797.925 -2.60736 -5.64823 0
M  V30 4650 C 799.115 -3.93521 -7.19518 0
M  V30 4651 O 799.505 -3.02071 -8.21205 0
M  V30 4652 C 799.995 -3.73047 -5.97036 0
M  V30 4653 C 799.285 -2.58828 -5.25741 0
M  V30 4654 N 799.335 -2.68068 -3.77503 0
M  V30 4655 H 796.497 -5.40394 -6.8003 0
M  V30 4656 H 796.225 -4.41741 -5.32532 0
M  V30 4657 H 797.093 -3.26371 -7.47889 0
M  V30 4658 H 799.748 -1.64007 -5.56746 0
M  V30 4659 H 800.028 -4.63439 -5.3432 0
M  V30 4660 H 801.019 -3.44776 -6.25925 0
M  V30 4661 H 799.185 -4.96707 -7.57347 0
M  V30 4662 P 801.055 -2.75334 -8.47391 0
M  V30 4663 O 801.275 -2.44571 -9.90142 0
M  V30 4664 O 801.845 -3.87688 -7.92115 0
M  V30 4665 O 801.305 -1.4459 -7.59357 0
M  V30 4666 C 800.365 -0.347608 -7.69215 0
M  V30 4667 C 801.095 0.96767 -7.52806 0
M  V30 4668 O 801.305 1.21036 -6.1011 0
M  V30 4669 C 802.495 1.04544 -8.13308 0
M  V30 4670 O 802.885 2.38311 -8.41922 0
M  V30 4671 C 803.375 0.491279 -7.02284 0
M  V30 4672 C 802.665 0.996264 -5.77469 0
M  V30 4673 N 802.715 0.0501916 -4.62973 0
M  V30 4674 H 799.876 -0.374722 -8.67691 0
M  V30 4675 H 799.606 -0.443485 -6.90277 0
M  V30 4676 H 800.473 1.75537 -7.96793 0
M  V30 4677 P 804.435 2.75334 -8.47391 0
M  V30 4678 O 804.655 3.84128 -9.44797 0
M  V30 4679 O 805.225 1.51947 -8.68712 0
M  V30 4680 O 804.685 3.29363 -6.99321 0
M  V30 4681 C 803.745 4.24011 -6.4274 0
M  V30 4682 C 804.475 5.20775 -5.52155 0
M  V30 4683 O 804.685 4.56534 -4.22446 0
M  V30 4684 C 805.875 5.62629 -5.96531 0
M  V30 4685 O 806.265 6.87667 -5.41053 0
M  V30 4686 C 806.755 4.52537 -5.39283 0
M  V30 4687 C 806.045 4.20027 -4.08623 0
M  V30 4688 N 806.095 2.76189 -3.71603 0
M  V30 4689 H 803.256 4.797 -7.24003 0
M  V30 4690 H 802.986 3.69856 -5.84513 0
M  V30 4691 H 803.853 6.10356 -5.41441 0
M  V30 4692 P 807.815 7.20834 -5.23717 0
M  V30 4693 O 808.035 8.66104 -5.38572 0
M  V30 4694 O 808.605 6.33544 -6.1349 0
M  V30 4695 O 808.065 6.7751 -3.72168 0
M  V30 4696 C 807.125 7.20825 -2.7076 0
M  V30 4697 C 807.855 7.45864 -1.40599 0
M  V30 4698 O 808.065 6.17651 -0.734225 0
M  V30 4699 C 809.255 8.05808 -1.51899 0
M  V30 4700 O 809.645 8.74358 -0.335205 0
M  V30 4701 C 810.135 6.83093 -1.70294 0
M  V30 4702 C 809.425 5.79992 -0.836974 0
M  V30 4703 N 809.475 4.41864 -1.38293 0
M  V30 4704 C 809.395 3.99538 -2.69438 0
M  V30 4705 N 809.475 2.69909 -2.84277 0
M  V30 4706 C 809.615 2.21719 -1.5408 0
M  V30 4707 C 809.745 0.891712 -1.06628 0
M  V30 4708 O 809.765 -0.161298 -1.70137 0
M  V30 4709 N 809.865 0.856846 0.334985 0
M  V30 4710 C 809.865 1.9641 1.15789 0
M  V30 4711 N 809.995 1.72708 2.46522 0
M  V30 4712 N 809.735 3.21165 0.713741 0
M  V30 4713 C 809.615 3.26797 -0.639748 0
M  V30 4714 H 806.636 8.13644 -3.0377 0
M  V30 4715 H 806.366 6.42788 -2.55485 0
M  V30 4716 H 807.233 8.12039 -0.792769 0
M  V30 4717 H 809.888 5.80061 0.166416 0
M  V30 4718 H 810.167 6.51287 -2.75604 0
M  V30 4719 H 811.159 7.01734 -1.34462 0
M  V30 4720 H 809.325 8.73674 -2.38337 0
M  V30 4721 H 809.276 4.68207 -3.53221 0
M  V30 4722 H 809.958 -0.0398818 0.767965 0
M  V30 4723 H 809.995 2.50995 3.13503 0
M  V30 4724 H 810.096 0.759148 2.80716 0
M  V30 4725 P 811.195 8.91 5.77209e-12 0
M  V30 4726 O 811.415 10.1726 0.733694 0
M  V30 4727 O 811.985 8.73148 -1.23936 0
M  V30 4728 O 811.445 7.66872 0.971405 0
M  V30 4729 C 810.505 7.42309 2.04641 0
M  V30 4730 C 811.235 6.86059 3.24661 0
M  V30 4731 O 811.445 5.42847 3.03646 0
M  V30 4732 C 812.635 7.41196 3.50753 0
M  V30 4733 O 813.025 7.27073 4.86816 0
M  V30 4734 C 813.515 6.5273 2.63741 0
M  V30 4735 C 812.805 5.1842 2.73198 0
M  V30 4736 N 812.855 4.38762 1.4784 0
M  V30 4737 H 810.016 8.36803 2.32493 0
M  V30 4738 H 809.746 6.70197 1.71129 0
M  V30 4739 H 810.613 7.03551 4.13168 0
M  V30 4740 P 814.575 7.20834 5.23717 0
M  V30 4741 O 814.795 7.79853 6.57286 0
M  V30 4742 O 815.365 7.79239 4.12957 0
M  V30 4743 O 814.825 5.63315 5.29344 0
M  V30 4744 C 813.885 4.80255 6.01876 0
M  V30 4745 C 814.615 3.64202 6.65911 0
M  V30 4746 O 814.825 2.60694 5.64732 0
M  V30 4747 C 816.015 3.93473 7.1943 0
M  V30 4748 O 816.405 3.02071 8.21205 0
M  V30 4749 C 816.895 3.73047 5.97036 0
M  V30 4750 C 816.185 2.58828 5.25741 0
M  V30 4751 N 816.235 2.68068 3.77503 0
M  V30 4752 H 813.396 5.40332 6.79951 0
M  V30 4753 H 813.126 4.41613 5.32378 0
M  V30 4754 H 813.993 3.26331 7.47797 0
M  V30 4755 P 817.955 2.75334 8.47391 0
M  V30 4756 O 818.175 2.44571 9.90142 0
M  V30 4757 O 818.745 3.87688 7.92115 0
M  V30 4758 O 818.205 1.4459 7.59357 0
M  V30 4759 C 817.265 0.347608 7.69215 0
M  V30 4760 C 817.995 -0.96767 7.52806 0
M  V30 4761 O 818.205 -1.21036 6.1011 0
M  V30 4762 C 819.395 -1.04544 8.13308 0
M  V30 4763 O 819.785 -2.38311 8.41922 0
M  V30 4764 C 820.275 -0.491279 7.02284 0
M  V30 4765 C 819.565 -0.996264 5.77469 0
M  V30 4766 N 819.615 -0.0501916 4.62973 0
M  V30 4767 H 816.776 0.374722 8.67691 0
M  V30 4768 H 816.506 0.443485 6.90277 0
M  V30 4769 H 817.373 -1.75537 7.96793 0
M  V30 4770 P 821.335 -2.75334 8.47391 0
M  V30 4771 O 821.555 -3.84128 9.44797 0
M  V30 4772 O 822.125 -1.51947 8.68712 0
M  V30 4773 O 821.585 -3.29363 6.99321 0
M  V30 4774 C 820.645 -4.24011 6.4274 0
M  V30 4775 C 821.375 -5.20775 5.52155 0
M  V30 4776 O 821.585 -4.56534 4.22446 0
M  V30 4777 C 822.775 -5.62629 5.96531 0
M  V30 4778 O 823.165 -6.87667 5.41053 0
M  V30 4779 C 823.655 -4.52537 5.39283 0
M  V30 4780 C 822.945 -4.20027 4.08623 0
M  V30 4781 N 822.995 -2.76189 3.71603 0
M  V30 4782 H 820.156 -4.797 7.24003 0
M  V30 4783 H 819.886 -3.69856 5.84513 0
M  V30 4784 H 820.753 -6.10356 5.41441 0
M  V30 4785 P 824.715 -7.20834 5.23717 0
M  V30 4786 O 824.935 -8.66104 5.38572 0
M  V30 4787 O 825.505 -6.33544 6.1349 0
M  V30 4788 O 824.965 -6.7751 3.72168 0
M  V30 4789 C 824.025 -7.20825 2.7076 0
M  V30 4790 C 824.755 -7.45864 1.40599 0
M  V30 4791 O 824.965 -6.17651 0.734225 0
M  V30 4792 C 826.155 -8.05808 1.51899 0
M  V30 4793 O 826.545 -8.74358 0.335205 0
M  V30 4794 C 827.035 -6.83093 1.70294 0
M  V30 4795 C 826.325 -5.79992 0.836974 0
M  V30 4796 N 826.375 -4.41864 1.38293 0
M  V30 4797 H 823.536 -8.13644 3.0377 0
M  V30 4798 H 823.266 -6.42788 2.55485 0
M  V30 4799 H 824.133 -8.12039 0.792769 0
M  V30 4800 P 828.095 -8.91 -5.92927e-12 0
M  V30 4801 O 828.315 -10.1726 -0.733694 0
M  V30 4802 O 828.885 -8.73148 1.23936 0
M  V30 4803 O 828.345 -7.66872 -0.971405 0
M  V30 4804 C 827.405 -7.42309 -2.04641 0
M  V30 4805 C 828.135 -6.86059 -3.24661 0
M  V30 4806 O 828.345 -5.42847 -3.03646 0
M  V30 4807 C 829.535 -7.41196 -3.50753 0
M  V30 4808 O 829.925 -7.27073 -4.86816 0
M  V30 4809 C 830.415 -6.5273 -2.63741 0
M  V30 4810 C 829.705 -5.1842 -2.73198 0
M  V30 4811 N 829.755 -4.38762 -1.4784 0
M  V30 4812 H 826.916 -8.36803 -2.32493 0
M  V30 4813 H 826.646 -6.70197 -1.71129 0
M  V30 4814 H 827.513 -7.03551 -4.13168 0
M  V30 4815 P 831.475 -7.20834 -5.23717 0
M  V30 4816 O 831.695 -7.79853 -6.57286 0
M  V30 4817 O 832.265 -7.79239 -4.12957 0
M  V30 4818 O 831.725 -5.63315 -5.29344 0
M  V30 4819 C 830.785 -4.80255 -6.01876 0
M  V30 4820 C 831.515 -3.64202 -6.65911 0
M  V30 4821 O 831.725 -2.60694 -5.64732 0
M  V30 4822 C 832.915 -3.93473 -7.1943 0
M  V30 4823 O 833.305 -3.02071 -8.21205 0
M  V30 4824 C 833.795 -3.73047 -5.97036 0
M  V30 4825 C 833.085 -2.58828 -5.25741 0
M  V30 4826 N 833.135 -2.68068 -3.77503 0
M  V30 4827 H 830.296 -5.40332 -6.79951 0
M  V30 4828 H 830.026 -4.41613 -5.32378 0
M  V30 4829 H 830.893 -3.26331 -7.47797 0
M  V30 4830 P 834.855 -2.75334 -8.47391 0
M  V30 4831 O 835.075 -2.44571 -9.90142 0
M  V30 4832 O 835.645 -3.87688 -7.92115 0
M  V30 4833 O 835.105 -1.4459 -7.59357 0
M  V30 4834 C 834.165 -0.347608 -7.69215 0
M  V30 4835 C 834.895 0.96767 -7.52806 0
M  V30 4836 O 835.105 1.21036 -6.1011 0
M  V30 4837 C 836.295 1.04544 -8.13308 0
M  V30 4838 O 836.685 2.38311 -8.41922 0
M  V30 4839 C 837.175 0.491279 -7.02284 0
M  V30 4840 C 836.465 0.996264 -5.77469 0
M  V30 4841 N 836.515 0.0501916 -4.62973 0
M  V30 4842 H 833.676 -0.374722 -8.67691 0
M  V30 4843 H 833.406 -0.443485 -6.90277 0
M  V30 4844 H 834.273 1.75537 -7.96793 0
M  V30 4845 P 838.235 2.75334 -8.47391 0
M  V30 4846 O 838.455 3.84166 -9.4489 0
M  V30 4847 O 839.025 1.51964 -8.6881 0
M  V30 4848 O 838.485 3.29363 -6.99321 0
M  V30 4849 C 837.545 4.23956 -6.42656 0
M  V30 4850 C 838.275 5.20775 -5.52155 0
M  V30 4851 O 838.485 4.56534 -4.22446 0
M  V30 4852 C 839.675 5.62629 -5.96531 0
M  V30 4853 O 840.065 6.87667 -5.41053 0
M  V30 4854 C 840.555 4.52537 -5.39283 0
M  V30 4855 C 839.845 4.20027 -4.08623 0
M  V30 4856 N 839.895 2.7613 -3.71522 0
M  V30 4857 C 840.045 2.45612 -2.37989 0
M  V30 4858 O 840.135 3.30919 -1.51621 0
M  V30 4859 N 840.085 1.10684 -2.08435 0
M  V30 4860 C 839.995 0.0690084 -2.9792 0
M  V30 4861 C 839.845 0.481522 -4.35345 0
M  V30 4862 C 839.795 1.78906 -4.67968 0
M  V30 4863 H 837.055 4.797 -7.24003 0
M  V30 4864 H 836.786 3.69802 -5.84429 0
M  V30 4865 H 837.653 6.10356 -5.41441 0
M  V30 4866 H 840.308 4.78651 -3.27911 0
M  V30 4867 H 840.587 3.64957 -6.05871 0
M  V30 4868 H 841.579 4.8868 -5.2125 0
M  V30 4869 H 839.745 5.66726 -7.06352 0
M  V30 4870 H 839.674 2.07737 -5.72367 0
M  V30 4871 P 841.615 7.20834 -5.23717 0
M  V30 4872 O 841.835 8.66104 -5.38572 0
M  V30 4873 O 842.405 6.33544 -6.1349 0
M  V30 4874 O 841.865 6.7751 -3.72168 0
M  V30 4875 C 840.925 7.20825 -2.7076 0
M  V30 4876 C 841.655 7.45864 -1.40599 0
M  V30 4877 O 841.865 6.17651 -0.734225 0
M  V30 4878 C 843.055 8.05808 -1.51899 0
M  V30 4879 O 843.445 8.74358 -0.335205 0
M  V30 4880 C 843.935 6.83093 -1.70294 0
M  V30 4881 C 843.225 5.79992 -0.836974 0
M  V30 4882 N 843.275 4.41864 -1.38293 0
M  V30 4883 C 843.195 3.99538 -2.69438 0
M  V30 4884 N 843.275 2.69909 -2.84277 0
M  V30 4885 C 843.415 2.21719 -1.5408 0
M  V30 4886 C 843.545 0.891712 -1.06628 0
M  V30 4887 O 843.565 -0.161298 -1.70137 0
M  V30 4888 N 843.665 0.856846 0.334985 0
M  V30 4889 C 843.665 1.9641 1.15789 0
M  V30 4890 N 843.795 1.72708 2.46522 0
M  V30 4891 N 843.535 3.21165 0.713741 0
M  V30 4892 C 843.415 3.26797 -0.639748 0
M  V30 4893 H 840.436 8.13644 -3.0377 0
M  V30 4894 H 840.166 6.42788 -2.55485 0
M  V30 4895 H 841.033 8.12039 -0.792769 0
M  V30 4896 H 843.688 5.80061 0.166416 0
M  V30 4897 H 843.967 6.51287 -2.75604 0
M  V30 4898 H 844.959 7.01734 -1.34462 0
M  V30 4899 H 843.125 8.73674 -2.38337 0
M  V30 4900 H 843.076 4.68207 -3.53221 0
M  V30 4901 H 843.758 -0.0398818 0.767965 0
M  V30 4902 H 843.795 2.50995 3.13503 0
M  V30 4903 H 843.896 0.759148 2.80716 0
M  V30 4904 P 844.995 8.91 6.08645e-12 0
M  V30 4905 O 845.215 10.1726 0.733694 0
M  V30 4906 O 845.785 8.73148 -1.23936 0
M  V30 4907 O 845.245 7.66872 0.971405 0
M  V30 4908 C 844.305 7.42309 2.04641 0
M  V30 4909 C 845.035 6.86059 3.24661 0
M  V30 4910 O 845.245 5.42847 3.03646 0
M  V30 4911 C 846.435 7.41196 3.50753 0
M  V30 4912 O 846.825 7.27073 4.86816 0
M  V30 4913 C 847.315 6.5273 2.63741 0
M  V30 4914 C 846.605 5.1842 2.73198 0
M  V30 4915 N 846.655 4.38762 1.4784 0
M  V30 4916 H 843.816 8.36803 2.32493 0
M  V30 4917 H 843.546 6.70197 1.71129 0
M  V30 4918 H 844.413 7.03551 4.13168 0
M  V30 4919 P 848.375 7.20834 5.23717 0
M  V30 4920 O 848.595 7.79853 6.57286 0
M  V30 4921 O 849.165 7.79239 4.12957 0
M  V30 4922 O 848.625 5.63315 5.29344 0
M  V30 4923 C 847.685 4.80255 6.01876 0
M  V30 4924 C 848.415 3.64202 6.65911 0
M  V30 4925 O 848.625 2.60694 5.64732 0
M  V30 4926 C 849.815 3.93473 7.1943 0
M  V30 4927 O 850.205 3.02071 8.21205 0
M  V30 4928 C 850.695 3.73047 5.97036 0
M  V30 4929 C 849.985 2.58828 5.25741 0
M  V30 4930 N 850.035 2.68068 3.77503 0
M  V30 4931 H 847.196 5.40332 6.79951 0
M  V30 4932 H 846.926 4.41613 5.32378 0
M  V30 4933 H 847.793 3.26331 7.47797 0
M  V30 4934 P 851.755 2.75334 8.47391 0
M  V30 4935 O 851.975 2.44571 9.90142 0
M  V30 4936 O 852.545 3.87688 7.92115 0
M  V30 4937 O 852.005 1.4459 7.59357 0
M  V30 4938 C 851.065 0.347608 7.69215 0
M  V30 4939 C 851.795 -0.96767 7.52806 0
M  V30 4940 O 852.005 -1.21036 6.1011 0
M  V30 4941 C 853.195 -1.04544 8.13308 0
M  V30 4942 O 853.585 -2.38311 8.41922 0
M  V30 4943 C 854.075 -0.491279 7.02284 0
M  V30 4944 C 853.365 -0.996264 5.77469 0
M  V30 4945 N 853.415 -0.0501916 4.62973 0
M  V30 4946 H 850.576 0.374722 8.67691 0
M  V30 4947 H 850.306 0.443485 6.90277 0
M  V30 4948 H 851.173 -1.75537 7.96793 0
M  V30 4949 P 855.135 -2.75334 8.47391 0
M  V30 4950 O 855.355 -3.84128 9.44797 0
M  V30 4951 O 855.925 -1.51947 8.68712 0
M  V30 4952 O 855.385 -3.29363 6.99321 0
M  V30 4953 C 854.445 -4.24011 6.4274 0
M  V30 4954 C 855.175 -5.20775 5.52155 0
M  V30 4955 O 855.385 -4.56534 4.22446 0
M  V30 4956 C 856.575 -5.62629 5.96531 0
M  V30 4957 O 856.965 -6.87667 5.41053 0
M  V30 4958 C 857.455 -4.52537 5.39283 0
M  V30 4959 C 856.745 -4.20027 4.08623 0
M  V30 4960 N 856.795 -2.76189 3.71603 0
M  V30 4961 H 853.956 -4.797 7.24003 0
M  V30 4962 H 853.686 -3.69856 5.84513 0
M  V30 4963 H 854.553 -6.10356 5.41441 0
M  V30 4964 P 858.515 -7.20834 5.23717 0
M  V30 4965 O 858.735 -8.66104 5.38572 0
M  V30 4966 O 859.305 -6.33544 6.1349 0
M  V30 4967 O 858.765 -6.7751 3.72168 0
M  V30 4968 C 857.825 -7.20825 2.7076 0
M  V30 4969 C 858.555 -7.45864 1.40599 0
M  V30 4970 O 858.765 -6.17651 0.734225 0
M  V30 4971 C 859.955 -8.05808 1.51899 0
M  V30 4972 O 860.345 -8.74358 0.335205 0
M  V30 4973 C 860.835 -6.83093 1.70294 0
M  V30 4974 C 860.125 -5.79992 0.836974 0
M  V30 4975 N 860.175 -4.41864 1.38293 0
M  V30 4976 H 857.336 -8.13644 3.0377 0
M  V30 4977 H 857.066 -6.42788 2.55485 0
M  V30 4978 H 857.933 -8.12039 0.792769 0
M  V30 4979 P 861.895 -8.91 -6.24363e-12 0
M  V30 4980 O 862.115 -10.1726 -0.733694 0
M  V30 4981 O 862.685 -8.73148 1.23936 0
M  V30 4982 O 862.145 -7.66872 -0.971405 0
M  V30 4983 C 861.205 -7.42309 -2.04641 0
M  V30 4984 C 861.935 -6.86059 -3.24661 0
M  V30 4985 O 862.145 -5.42847 -3.03646 0
M  V30 4986 C 863.335 -7.41196 -3.50753 0
M  V30 4987 O 863.725 -7.27073 -4.86816 0
M  V30 4988 C 864.215 -6.5273 -2.63741 0
M  V30 4989 C 863.505 -5.1842 -2.73198 0
M  V30 4990 N 863.555 -4.38762 -1.4784 0
M  V30 4991 C 863.475 -4.81605 -0.168631 0
M  V30 4992 N 863.555 -3.85454 0.713363 0
M  V30 4993 C 863.695 -2.6994 -0.0566958 0
M  V30 4994 C 863.825 -1.34815 0.338502 0
M  V30 4995 O 863.845 -0.869548 1.47125 0
M  V30 4996 N 863.945 -0.496304 -0.77465 0
M  V30 4997 C 863.945 -0.908403 -2.09122 0
M  V30 4998 N 864.075 0.0517805 -3.00955 0
M  V30 4999 N 863.815 -2.17875 -2.46519 0
M  V30 5000 C 863.695 -3.01988 -1.4033 0
M  V30 5001 H 860.716 -8.36803 -2.32493 0
M  V30 5002 H 860.446 -6.70197 -1.71129 0
M  V30 5003 H 861.313 -7.03551 -4.13168 0
M  V30 5004 H 863.968 -4.59498 -3.54415 0
M  V30 5005 H 864.247 -6.88898 -1.59848 0
M  V30 5006 H 865.239 -6.46749 -3.03687 0
M  V30 5007 H 863.405 -8.46908 -3.20714 0
M  V30 5008 H 863.356 -5.86405 0.105564 0
M  V30 5009 H 864.038 0.483664 -0.597855 0
M  V30 5010 H 864.075 -0.187865 -4.0116 0
M  V30 5011 H 864.176 1.03585 -2.71726 0
M  V30 5012 P 865.275 -7.20834 -5.23717 0
M  V30 5013 O 865.495 -7.79853 -6.57286 0
M  V30 5014 O 866.065 -7.79239 -4.12957 0
M  V30 5015 O 865.525 -5.63315 -5.29344 0
M  V30 5016 C 864.585 -4.80255 -6.01876 0
M  V30 5017 C 865.315 -3.64202 -6.65911 0
M  V30 5018 O 865.525 -2.60694 -5.64732 0
M  V30 5019 C 866.715 -3.93473 -7.1943 0
M  V30 5020 O 867.105 -3.02071 -8.21205 0
M  V30 5021 C 867.595 -3.73047 -5.97036 0
M  V30 5022 C 866.885 -2.58828 -5.25741 0
M  V30 5023 N 866.935 -2.68068 -3.77503 0
M  V30 5024 H 864.096 -5.40332 -6.79951 0
M  V30 5025 H 863.826 -4.41613 -5.32378 0
M  V30 5026 H 864.693 -3.26331 -7.47797 0
M  V30 5027 P 868.655 -2.75334 -8.47391 0
M  V30 5028 O 868.875 -2.44571 -9.90142 0
M  V30 5029 O 869.445 -3.87688 -7.92115 0
M  V30 5030 O 868.905 -1.4459 -7.59357 0
M  V30 5031 C 867.965 -0.347608 -7.69215 0
M  V30 5032 C 868.695 0.96767 -7.52806 0
M  V30 5033 O 868.905 1.21036 -6.1011 0
M  V30 5034 C 870.095 1.04544 -8.13308 0
M  V30 5035 O 870.485 2.38311 -8.41922 0
M  V30 5036 C 870.975 0.491279 -7.02284 0
M  V30 5037 C 870.265 0.996264 -5.77469 0
M  V30 5038 N 870.315 0.0501916 -4.62973 0
M  V30 5039 C 870.235 -1.32786 -4.63244 0
M  V30 5040 N 870.315 -1.86957 -3.44545 0
M  V30 5041 C 870.455 -0.780241 -2.58481 0
M  V30 5042 C 870.585 -0.738536 -1.17757 0
M  V30 5043 O 870.605 -1.66794 -0.372349 0
M  V30 5044 N 870.705 0.58337 -0.711393 0
M  V30 5045 C 870.705 1.70816 -1.51017 0
M  V30 5046 N 870.835 2.87826 -0.880757 0
M  V30 5047 N 870.575 1.67126 -2.8339 0
M  V30 5048 C 870.455 0.401421 -3.30572 0
M  V30 5049 H 867.476 -0.374722 -8.67691 0
M  V30 5050 H 867.206 -0.443485 -6.90277 0
M  V30 5051 H 868.073 1.75537 -7.96793 0
M  V30 5052 H 870.728 1.95076 -5.46529 0
M  V30 5053 H 871.007 -0.608565 -7.04577 0
M  V30 5054 H 871.999 0.889672 -7.08939 0
M  V30 5055 H 870.165 0.43308 -9.04564 0
M  V30 5056 H 870.116 -1.91249 -5.54442 0
M  V30 5057 H 870.798 0.718054 0.275244 0
M  V30 5058 H 870.835 3.75721 -1.41832 0
M  V30 5059 H 870.936 2.90436 0.145468 0
M  V30 5060 P 872.035 2.75334 -8.47391 0
M  V30 5061 O 872.255 3.84166 -9.4489 0
M  V30 5062 O 872.825 1.51964 -8.6881 0
M  V30 5063 O 872.285 3.29363 -6.99321 0
M  V30 5064 C 871.345 4.23956 -6.42656 0
M  V30 5065 C 872.075 5.20775 -5.52155 0
M  V30 5066 O 872.285 4.56534 -4.22446 0
M  V30 5067 C 873.475 5.62629 -5.96531 0
M  V30 5068 O 873.865 6.87667 -5.41053 0
M  V30 5069 C 874.355 4.52537 -5.39283 0
M  V30 5070 C 873.645 4.20027 -4.08623 0
M  V30 5071 N 873.695 2.7613 -3.71522 0
M  V30 5072 C 873.845 2.45612 -2.37989 0
M  V30 5073 O 873.935 3.30919 -1.51621 0
M  V30 5074 N 873.885 1.10684 -2.08435 0
M  V30 5075 C 873.795 0.0690084 -2.9792 0
M  V30 5076 O 873.845 -1.10553 -2.59426 0
M  V30 5077 C 873.645 0.481522 -4.35345 0
M  V30 5078 C 873.535 -0.618778 -5.36443 0
M  V30 5079 C 873.595 1.78906 -4.67968 0
M  V30 5080 H 870.855 4.797 -7.24003 0
M  V30 5081 H 870.586 3.69802 -5.84429 0
M  V30 5082 H 871.453 6.10356 -5.41441 0
M  V30 5083 H 874.108 4.78651 -3.27911 0
M  V30 5084 H 874.387 3.64957 -6.05871 0
M  V30 5085 H 875.379 4.8868 -5.2125 0
M  V30 5086 H 873.545 5.66726 -7.06352 0
M  V30 5087 H 873.474 2.07737 -5.72367 0
M  V30 5088 H 874.504 -0.754375 -5.86871 0
M  V30 5089 H 872.767 -0.359721 -6.10641 0
M  V30 5090 H 873.255 -1.55533 -4.8581 0
M  V30 5091 H 873.991 0.862651 -1.12037 0
M  V30 5092 P 875.415 7.20834 -5.23717 0
M  V30 5093 O 875.635 8.66189 -5.38625 0
M  V30 5094 O 876.205 6.33615 -6.1356 0
M  V30 5095 O 875.665 6.7751 -3.72168 0
M  V30 5096 C 874.725 7.20732 -2.70725 0
M  V30 5097 C 875.455 7.45864 -1.40599 0
M  V30 5098 O 875.665 6.17651 -0.734225 0
M  V30 5099 C 876.855 8.05808 -1.51899 0
M  V30 5100 O 877.245 8.74358 -0.335205 0
M  V30 5101 C 877.735 6.83093 -1.70294 0
M  V30 5102 C 877.025 5.79992 -0.836974 0
M  V30 5103 N 877.075 4.41769 -1.38263 0
M  V30 5104 C 877.225 3.38591 -0.481702 0
M  V30 5105 O 877.315 3.56839 0.718452 0
M  V30 5106 N 877.265 2.1206 -1.03569 0
M  V30 5107 C 877.175 1.80696 -2.36966 0
M  V30 5108 C 877.025 2.94845 -3.23898 0
M  V30 5109 C 876.975 4.19803 -2.73435 0
M  V30 5110 H 874.235 8.13644 -3.0377 0
M  V30 5111 H 873.966 6.42695 -2.55448 0
M  V30 5112 H 874.833 8.12039 -0.792769 0
M  V30 5113 H 877.488 5.79978 0.160587 0
M  V30 5114 H 877.767 6.51379 -2.75643 0
M  V30 5115 H 878.759 7.01734 -1.34462 0
M  V30 5116 H 876.925 8.73674 -2.38337 0
M  V30 5117 H 876.854 5.04492 -3.4095 0
M  V30 5118 P 878.795 8.91 6.40081e-12 0
M  V30 5119 O 879.015 10.1726 0.733694 0
M  V30 5120 O 879.585 8.73148 -1.23936 0
M  V30 5121 O 879.045 7.66872 0.971405 0
M  V30 5122 C 878.105 7.42309 2.04641 0
M  V30 5123 C 878.835 6.86059 3.24661 0
M  V30 5124 O 879.045 5.42847 3.03646 0
M  V30 5125 C 880.235 7.41196 3.50753 0
M  V30 5126 O 880.625 7.27073 4.86816 0
M  V30 5127 C 881.115 6.5273 2.63741 0
M  V30 5128 C 880.405 5.1842 2.73198 0
M  V30 5129 N 880.455 4.38762 1.4784 0
M  V30 5130 H 877.616 8.36803 2.32493 0
M  V30 5131 H 877.346 6.70197 1.71129 0
M  V30 5132 H 878.213 7.03551 4.13168 0
M  V30 5133 P 882.175 7.20834 5.23717 0
M  V30 5134 O 882.395 7.80006 6.57415 0
M  V30 5135 O 882.965 7.79416 4.13051 0
M  V30 5136 O 882.425 5.63315 5.29344 0
M  V30 5137 C 881.485 4.80318 6.01954 0
M  V30 5138 C 882.215 3.64202 6.65911 0
M  V30 5139 O 882.425 2.60736 5.64823 0
M  V30 5140 C 883.615 3.93521 7.19518 0
M  V30 5141 O 884.005 3.02071 8.21205 0
M  V30 5142 C 884.495 3.73047 5.97036 0
M  V30 5143 C 883.785 2.58828 5.25741 0
M  V30 5144 N 883.835 2.68068 3.77503 0
M  V30 5145 C 883.755 3.80474 2.99159 0
M  V30 5146 N 883.825 3.55622 1.71925 0
M  V30 5147 C 883.975 2.1832 1.65733 0
M  V30 5148 C 884.105 1.28842 0.572777 0
M  V30 5149 N 884.115 1.66875 -0.70098 0
M  V30 5150 N 884.225 -0.016788 0.859836 0
M  V30 5151 C 884.215 -0.398145 2.13316 0
M  V30 5152 N 884.095 0.328224 3.22333 0
M  V30 5153 C 883.975 1.62992 2.90383 0
M  V30 5154 H 880.997 5.40394 6.8003 0
M  V30 5155 H 880.725 4.41741 5.32532 0
M  V30 5156 H 881.593 3.26371 7.47889 0
M  V30 5157 H 884.248 1.64007 5.56746 0
M  V30 5158 H 884.528 4.63439 5.3432 0
M  V30 5159 H 885.519 3.44776 6.25925 0
M  V30 5160 H 883.685 4.96707 7.57347 0
M  V30 5161 H 883.644 4.8089 3.39924 0
M  V30 5162 H 884.025 2.66547 -0.941919 0
M  V30 5163 H 884.214 0.965341 -1.44766 0
M  V30 5164 H 884.322 -1.46427 2.29697 0
M  V30 5165 P 885.555 2.75334 8.47391 0
M  V30 5166 O 885.775 2.44619 9.90336 0
M  V30 5167 O 886.345 3.87776 7.92294 0
M  V30 5168 O 885.805 1.4459 7.59357 0
M  V30 5169 C 884.865 0.347653 7.69315 0
M  V30 5170 C 885.595 -0.96767 7.52806 0
M  V30 5171 O 885.805 -1.21055 6.10208 0
M  V30 5172 C 886.995 -1.04557 8.13408 0
M  V30 5173 O 887.385 -2.38311 8.41922 0
M  V30 5174 C 887.875 -0.491279 7.02284 0
M  V30 5175 C 887.165 -0.996264 5.77469 0
M  V30 5176 N 887.215 -0.0501916 4.62973 0
M  V30 5177 H 884.377 0.374765 8.67791 0
M  V30 5178 H 884.105 0.443613 6.90476 0
M  V30 5179 H 884.973 -1.75559 7.96891 0
M  V30 5180 H 887.628 -1.94563 5.46818 0
M  V30 5181 H 887.908 0.608651 7.04676 0
M  V30 5182 H 888.899 -0.889796 7.09039 0
M  V30 5183 H 887.065 -0.433128 9.04664 0
M  V30 5184 P 888.935 -2.75334 8.47391 0
M  V30 5185 O 889.155 -3.84204 9.44982 0
M  V30 5186 O 889.725 -1.51982 8.68909 0
M  V30 5187 O 889.185 -3.29363 6.99321 0
M  V30 5188 C 888.245 -4.24066 6.42823 0
M  V30 5189 C 888.975 -5.20775 5.52155 0
M  V30 5190 O 889.185 -4.56607 4.22514 0
M  V30 5191 C 890.375 -5.62697 5.96604 0
M  V30 5192 O 890.765 -6.87667 5.41053 0
M  V30 5193 C 891.255 -4.52537 5.39283 0
M  V30 5194 C 890.545 -4.20027 4.08623 0
M  V30 5195 N 890.595 -2.76189 3.71603 0
M  V30 5196 C 890.515 -1.66944 4.54297 0
M  V30 5197 N 890.585 -0.536169 3.91344 0
M  V30 5198 C 890.735 -0.901569 2.58849 0
M  V30 5199 C 890.865 -0.146599 1.40236 0
M  V30 5200 N 890.875 1.18234 1.37046 0
M  V30 5201 N 890.985 -0.822941 0.249738 0
M  V30 5202 C 890.975 -2.15179 0.280525 0
M  V30 5203 N 890.855 -2.96414 1.30822 0
M  V30 5204 C 890.735 -2.25804 2.44748 0
M  V30 5205 H 887.757 -4.79756 7.24086 0
M  V30 5206 H 887.485 -3.69963 5.84682 0
M  V30 5207 H 888.353 -6.10431 5.41508 0
M  V30 5208 H 891.008 -4.78816 3.28024 0
M  V30 5209 H 891.288 -3.64957 6.05871 0
M  V30 5210 H 892.279 -4.88748 5.21323 0
M  V30 5211 H 890.445 -5.66789 7.0643 0
M  V30 5212 H 890.404 -1.74684 5.62396 0
M  V30 5213 H 890.785 1.71949 2.24394 0
M  V30 5214 H 890.974 1.67511 0.470742 0
M  V30 5215 H 891.082 -2.63704 -0.6828 0
M  V30 5216 P 892.315 -7.20834 5.23717 0
M  V30 5217 O 892.535 -8.66104 5.38572 0
M  V30 5218 O 893.105 -6.33544 6.1349 0
M  V30 5219 O 892.565 -6.7751 3.72168 0
M  V30 5220 C 891.625 -7.20825 2.7076 0
M  V30 5221 C 892.355 -7.45864 1.40599 0
M  V30 5222 O 892.565 -6.17651 0.734225 0
M  V30 5223 C 893.755 -8.05808 1.51899 0
M  V30 5224 O 894.145 -8.74358 0.335205 0
M  V30 5225 C 894.635 -6.83093 1.70294 0
M  V30 5226 C 893.925 -5.79992 0.836974 0
M  V30 5227 N 893.975 -4.41864 1.38293 0
M  V30 5228 H 891.136 -8.13644 3.0377 0
M  V30 5229 H 890.866 -6.42788 2.55485 0
M  V30 5230 H 891.733 -8.12039 0.792769 0
M  V30 5231 P 895.695 -8.91 -6.558e-12 0
M  V30 5232 O 895.915 -10.1726 -0.733694 0
M  V30 5233 O 896.485 -8.73148 1.23936 0
M  V30 5234 O 895.945 -7.66872 -0.971405 0
M  V30 5235 C 895.005 -7.42309 -2.04641 0
M  V30 5236 C 895.735 -6.86059 -3.24661 0
M  V30 5237 O 895.945 -5.42847 -3.03646 0
M  V30 5238 C 897.135 -7.41196 -3.50753 0
M  V30 5239 O 897.525 -7.27073 -4.86816 0
M  V30 5240 C 898.015 -6.5273 -2.63741 0
M  V30 5241 C 897.305 -5.1842 -2.73198 0
M  V30 5242 N 897.355 -4.38762 -1.4784 0
M  V30 5243 H 894.516 -8.36803 -2.32493 0
M  V30 5244 H 894.246 -6.70197 -1.71129 0
M  V30 5245 H 895.113 -7.03551 -4.13168 0
M  V30 5246 P 899.075 -7.20834 -5.23717 0
M  V30 5247 O 899.295 -7.79853 -6.57286 0
M  V30 5248 O 899.865 -7.79239 -4.12957 0
M  V30 5249 O 899.325 -5.63315 -5.29344 0
M  V30 5250 C 898.385 -4.80255 -6.01876 0
M  V30 5251 C 899.115 -3.64202 -6.65911 0
M  V30 5252 O 899.325 -2.60694 -5.64732 0
M  V30 5253 C 900.515 -3.93473 -7.1943 0
M  V30 5254 O 900.905 -3.02071 -8.21205 0
M  V30 5255 C 901.395 -3.73047 -5.97036 0
M  V30 5256 C 900.685 -2.58828 -5.25741 0
M  V30 5257 N 900.735 -2.68068 -3.77503 0
M  V30 5258 H 897.896 -5.40332 -6.79951 0
M  V30 5259 H 897.626 -4.41613 -5.32378 0
M  V30 5260 H 898.493 -3.26331 -7.47797 0
M  V30 5261 P 902.455 -2.75334 -8.47391 0
M  V30 5262 O 902.675 -2.44571 -9.90142 0
M  V30 5263 O 903.245 -3.87688 -7.92115 0
M  V30 5264 O 902.705 -1.4459 -7.59357 0
M  V30 5265 C 901.765 -0.347608 -7.69215 0
M  V30 5266 C 902.495 0.96767 -7.52806 0
M  V30 5267 O 902.705 1.21036 -6.1011 0
M  V30 5268 C 903.895 1.04544 -8.13308 0
M  V30 5269 O 904.285 2.38311 -8.41922 0
M  V30 5270 C 904.775 0.491279 -7.02284 0
M  V30 5271 C 904.065 0.996264 -5.77469 0
M  V30 5272 N 904.115 0.0501916 -4.62973 0
M  V30 5273 H 901.276 -0.374722 -8.67691 0
M  V30 5274 H 901.006 -0.443485 -6.90277 0
M  V30 5275 H 901.873 1.75537 -7.96793 0
M  V30 5276 P 905.835 2.75334 -8.47391 0
M  V30 5277 O 906.055 3.84128 -9.44797 0
M  V30 5278 O 906.625 1.51947 -8.68712 0
M  V30 5279 O 906.085 3.29363 -6.99321 0
M  V30 5280 C 905.145 4.24011 -6.4274 0
M  V30 5281 C 905.875 5.20775 -5.52155 0
M  V30 5282 O 906.085 4.56534 -4.22446 0
M  V30 5283 C 907.275 5.62629 -5.96531 0
M  V30 5284 O 907.665 6.87667 -5.41053 0
M  V30 5285 C 908.155 4.52537 -5.39283 0
M  V30 5286 C 907.445 4.20027 -4.08623 0
M  V30 5287 N 907.495 2.76189 -3.71603 0
M  V30 5288 H 904.656 4.797 -7.24003 0
M  V30 5289 H 904.386 3.69856 -5.84513 0
M  V30 5290 H 905.253 6.10356 -5.41441 0
M  V30 5291 P 909.215 7.20834 -5.23717 0
M  V30 5292 O 909.435 8.66104 -5.38572 0
M  V30 5293 O 910.005 6.33544 -6.1349 0
M  V30 5294 O 909.465 6.7751 -3.72168 0
M  V30 5295 C 908.525 7.20825 -2.7076 0
M  V30 5296 C 909.255 7.45864 -1.40599 0
M  V30 5297 O 909.465 6.17651 -0.734225 0
M  V30 5298 C 910.655 8.05808 -1.51899 0
M  V30 5299 O 911.045 8.74358 -0.335205 0
M  V30 5300 C 911.535 6.83093 -1.70294 0
M  V30 5301 C 910.825 5.79992 -0.836974 0
M  V30 5302 N 910.875 4.41864 -1.38293 0
M  V30 5303 H 908.036 8.13644 -3.0377 0
M  V30 5304 H 907.766 6.42788 -2.55485 0
M  V30 5305 H 908.633 8.12039 -0.792769 0
M  V30 5306 P 912.595 8.91 6.71518e-12 0
M  V30 5307 O 912.815 10.1726 0.733694 0
M  V30 5308 O 913.385 8.73148 -1.23936 0
M  V30 5309 O 912.845 7.66872 0.971405 0
M  V30 5310 C 911.905 7.42309 2.04641 0
M  V30 5311 C 912.635 6.86059 3.24661 0
M  V30 5312 O 912.845 5.42847 3.03646 0
M  V30 5313 C 914.035 7.41196 3.50753 0
M  V30 5314 O 914.425 7.27073 4.86816 0
M  V30 5315 C 914.915 6.5273 2.63741 0
M  V30 5316 C 914.205 5.1842 2.73198 0
M  V30 5317 N 914.255 4.38762 1.4784 0
M  V30 5318 H 911.416 8.36803 2.32493 0
M  V30 5319 H 911.146 6.70197 1.71129 0
M  V30 5320 H 912.013 7.03551 4.13168 0
M  V30 5321 P 915.975 7.20834 5.23717 0
M  V30 5322 O 916.195 7.79853 6.57286 0
M  V30 5323 O 916.765 7.79239 4.12957 0
M  V30 5324 O 916.225 5.63315 5.29344 0
M  V30 5325 C 915.285 4.80255 6.01876 0
M  V30 5326 C 916.015 3.64202 6.65911 0
M  V30 5327 O 916.225 2.60694 5.64732 0
M  V30 5328 C 917.415 3.93473 7.1943 0
M  V30 5329 O 917.805 3.02071 8.21205 0
M  V30 5330 C 918.295 3.73047 5.97036 0
M  V30 5331 C 917.585 2.58828 5.25741 0
M  V30 5332 N 917.635 2.68068 3.77503 0
M  V30 5333 H 914.796 5.40332 6.79951 0
M  V30 5334 H 914.526 4.41613 5.32378 0
M  V30 5335 H 915.393 3.26331 7.47797 0
M  V30 5336 P 919.355 2.75334 8.47391 0
M  V30 5337 O 919.575 2.44571 9.90142 0
M  V30 5338 O 920.145 3.87688 7.92115 0
M  V30 5339 O 919.605 1.4459 7.59357 0
M  V30 5340 C 918.665 0.347608 7.69215 0
M  V30 5341 C 919.395 -0.96767 7.52806 0
M  V30 5342 O 919.605 -1.21036 6.1011 0
M  V30 5343 C 920.795 -1.04544 8.13308 0
M  V30 5344 O 921.185 -2.38311 8.41922 0
M  V30 5345 C 921.675 -0.491279 7.02284 0
M  V30 5346 C 920.965 -0.996264 5.77469 0
M  V30 5347 N 921.015 -0.0501916 4.62973 0
M  V30 5348 H 918.176 0.374722 8.67691 0
M  V30 5349 H 917.906 0.443485 6.90277 0
M  V30 5350 H 918.773 -1.75537 7.96793 0
M  V30 5351 P 922.735 -2.75334 8.47391 0
M  V30 5352 O 922.955 -3.84128 9.44797 0
M  V30 5353 O 923.525 -1.51947 8.68712 0
M  V30 5354 O 922.985 -3.29363 6.99321 0
M  V30 5355 C 922.045 -4.24011 6.4274 0
M  V30 5356 C 922.775 -5.20775 5.52155 0
M  V30 5357 O 922.985 -4.56534 4.22446 0
M  V30 5358 C 924.175 -5.62629 5.96531 0
M  V30 5359 O 924.565 -6.87667 5.41053 0
M  V30 5360 C 925.055 -4.52537 5.39283 0
M  V30 5361 C 924.345 -4.20027 4.08623 0
M  V30 5362 N 924.395 -2.76189 3.71603 0
M  V30 5363 H 921.556 -4.797 7.24003 0
M  V30 5364 H 921.286 -3.69856 5.84513 0
M  V30 5365 H 922.153 -6.10356 5.41441 0
M  V30 5366 P 926.115 -7.20834 5.23717 0
M  V30 5367 O 926.335 -8.66104 5.38572 0
M  V30 5368 O 926.905 -6.33544 6.1349 0
M  V30 5369 O 926.365 -6.7751 3.72168 0
M  V30 5370 C 925.425 -7.20825 2.7076 0
M  V30 5371 C 926.155 -7.45864 1.40599 0
M  V30 5372 O 926.365 -6.17651 0.734225 0
M  V30 5373 C 927.555 -8.05808 1.51899 0
M  V30 5374 O 927.945 -8.74358 0.335205 0
M  V30 5375 C 928.435 -6.83093 1.70294 0
M  V30 5376 C 927.725 -5.79992 0.836974 0
M  V30 5377 N 927.775 -4.41864 1.38293 0
M  V30 5378 H 924.936 -8.13644 3.0377 0
M  V30 5379 H 924.666 -6.42788 2.55485 0
M  V30 5380 H 925.533 -8.12039 0.792769 0
M  V30 5381 P 929.495 -8.91 -6.87236e-12 0
M  V30 5382 O 929.715 -10.1736 -0.733766 0
M  V30 5383 O 930.285 -8.73247 1.2395 0
M  V30 5384 O 929.745 -7.66872 -0.971405 0
M  V30 5385 C 928.805 -7.42212 -2.04614 0
M  V30 5386 C 929.535 -6.86059 -3.24661 0
M  V30 5387 O 929.745 -5.42847 -3.03646 0
M  V30 5388 C 930.935 -7.41196 -3.50753 0
M  V30 5389 O 931.325 -7.27073 -4.86816 0
M  V30 5390 C 931.815 -6.5273 -2.63741 0
M  V30 5391 C 931.105 -5.1842 -2.73198 0
M  V30 5392 N 931.155 -4.38668 -1.47808 0
M  V30 5393 C 931.305 -3.02239 -1.60048 0
M  V30 5394 O 931.395 -2.46459 -2.67869 0
M  V30 5395 N 931.345 -2.32436 -0.408571 0
M  V30 5396 C 931.255 -2.85471 0.854993 0
M  V30 5397 C 931.105 -4.28918 0.887335 0
M  V30 5398 C 931.055 -5.00349 -0.255399 0
M  V30 5399 H 928.315 -8.36803 -2.32493 0
M  V30 5400 H 928.046 -6.701 -1.71105 0
M  V30 5401 H 928.913 -7.03551 -4.13168 0
M  V30 5402 H 931.568 -4.59773 -3.53894 0
M  V30 5403 H 931.847 -6.88995 -1.59871 0
M  V30 5404 H 932.839 -6.46749 -3.03687 0
M  V30 5405 H 931.005 -8.46908 -3.20714 0
M  V30 5406 H 930.934 -6.08548 -0.206986 0
M  V30 5407 P 932.874 -7.20834 -5.23717 0
M  V30 5408 O 933.094 -7.79853 -6.57286 0
M  V30 5409 O 933.664 -7.79239 -4.12957 0
M  V30 5410 O 933.124 -5.63315 -5.29344 0
M  V30 5411 C 932.184 -4.80255 -6.01876 0
M  V30 5412 C 932.914 -3.64202 -6.65911 0
M  V30 5413 O 933.124 -2.60694 -5.64732 0
M  V30 5414 C 934.314 -3.93473 -7.1943 0
M  V30 5415 O 934.704 -3.02071 -8.21205 0
M  V30 5416 C 935.194 -3.73047 -5.97036 0
M  V30 5417 C 934.484 -2.58828 -5.25741 0
M  V30 5418 N 934.534 -2.68068 -3.77503 0
M  V30 5419 H 931.695 -5.40332 -6.79951 0
M  V30 5420 H 931.425 -4.41613 -5.32378 0
M  V30 5421 H 932.292 -3.26331 -7.47797 0
M  V30 5422 P 936.254 -2.75334 -8.47391 0
M  V30 5423 O 936.474 -2.44595 -9.90239 0
M  V30 5424 O 937.044 -3.87732 -7.92204 0
M  V30 5425 O 936.504 -1.4459 -7.59357 0
M  V30 5426 C 935.564 -0.347608 -7.69215 0
M  V30 5427 C 936.294 0.96767 -7.52806 0
M  V30 5428 O 936.504 1.21036 -6.1011 0
M  V30 5429 C 937.694 1.04544 -8.13308 0
M  V30 5430 O 938.084 2.38311 -8.41922 0
M  V30 5431 C 938.574 0.491279 -7.02284 0
M  V30 5432 C 937.864 0.996264 -5.77469 0
M  V30 5433 N 937.914 0.0501808 -4.62873 0
M  V30 5434 C 938.064 0.578037 -3.3505 0
M  V30 5435 O 938.154 1.8073 -3.21711 0
M  V30 5436 N 938.114 -0.468541 -2.263 0
M  V30 5437 C 938.014 -1.59186 -2.47176 0
M  V30 5438 N 938.064 -2.37626 -1.40392 0
M  V30 5439 C 937.864 -2.16203 -3.77467 0
M  V30 5440 C 937.814 -1.29324 -4.8195 0
M  V30 5441 H 935.074 -0.374679 -8.67591 0
M  V30 5442 H 934.805 -0.443421 -6.90177 0
M  V30 5443 H 935.672 1.75559 -7.96891 0
M  V30 5444 H 938.327 1.94529 -5.46723 0
M  V30 5445 H 938.606 -0.608651 -7.04676 0
M  V30 5446 H 939.598 0.889672 -7.08939 0
M  V30 5447 H 937.764 0.43308 -9.04564 0
M  V30 5448 H 937.692 -1.67758 -5.83046 0
M  V30 5449 H 937.794 -3.23869 -3.92281 0
M  V30 5450 H 938.182 -1.96317 -0.467202 0
M  V30 5451 H 937.985 -3.39693 -1.51142 0
M  V30 5452 P 939.634 2.75334 -8.47391 0
M  V30 5453 O 939.854 3.84204 -9.44982 0
M  V30 5454 O 940.424 1.51982 -8.68909 0
M  V30 5455 O 939.884 3.29363 -6.99321 0
M  V30 5456 C 938.944 4.24066 -6.42823 0
M  V30 5457 C 939.674 5.20775 -5.52155 0
M  V30 5458 O 939.884 4.56607 -4.22514 0
M  V30 5459 C 941.074 5.62697 -5.96604 0
M  V30 5460 O 941.464 6.87667 -5.41053 0
M  V30 5461 C 941.954 4.52537 -5.39283 0
M  V30 5462 C 941.244 4.20027 -4.08623 0
M  V30 5463 N 941.294 2.76189 -3.71603 0
M  V30 5464 H 938.456 4.79756 -7.24086 0
M  V30 5465 H 938.184 3.69963 -5.84682 0
M  V30 5466 H 939.052 6.10431 -5.41508 0
M  V30 5467 H 941.707 4.78816 -3.28024 0
M  V30 5468 H 941.987 3.64957 -6.05871 0
M  V30 5469 H 942.978 4.88748 -5.21323 0
M  V30 5470 H 941.144 5.66789 -7.0643 0
M  V30 5471 P 943.014 7.20834 -5.23717 0
M  V30 5472 O 943.234 8.66104 -5.38572 0
M  V30 5473 O 943.804 6.33544 -6.1349 0
M  V30 5474 O 943.264 6.7751 -3.72168 0
M  V30 5475 C 942.324 7.20825 -2.7076 0
M  V30 5476 C 943.054 7.45864 -1.40599 0
M  V30 5477 O 943.264 6.17651 -0.734225 0
M  V30 5478 C 944.454 8.05808 -1.51899 0
M  V30 5479 O 944.844 8.74358 -0.335205 0
M  V30 5480 C 945.334 6.83093 -1.70294 0
M  V30 5481 C 944.624 5.79992 -0.836974 0
M  V30 5482 N 944.674 4.41864 -1.38293 0
M  V30 5483 H 941.835 8.13644 -3.0377 0
M  V30 5484 H 941.565 6.42788 -2.55485 0
M  V30 5485 H 942.432 8.12039 -0.792769 0
M  V30 5486 P 946.394 8.91 7.02954e-12 0
M  V30 5487 O 946.614 10.1726 0.733694 0
M  V30 5488 O 947.184 8.73148 -1.23936 0
M  V30 5489 O 946.644 7.66872 0.971405 0
M  V30 5490 C 945.704 7.42309 2.04641 0
M  V30 5491 C 946.434 6.86059 3.24661 0
M  V30 5492 O 946.644 5.42847 3.03646 0
M  V30 5493 C 947.834 7.41196 3.50753 0
M  V30 5494 O 948.224 7.27073 4.86816 0
M  V30 5495 C 948.714 6.5273 2.63741 0
M  V30 5496 C 948.004 5.1842 2.73198 0
M  V30 5497 N 948.054 4.38762 1.4784 0
M  V30 5498 H 945.215 8.36803 2.32493 0
M  V30 5499 H 944.945 6.70197 1.71129 0
M  V30 5500 H 945.812 7.03551 4.13168 0
M  V30 5501 P 949.774 7.20834 5.23717 0
M  V30 5502 O 949.994 7.80006 6.57415 0
M  V30 5503 O 950.564 7.79416 4.13051 0
M  V30 5504 O 950.024 5.63315 5.29344 0
M  V30 5505 C 949.084 4.80318 6.01954 0
M  V30 5506 C 949.814 3.64202 6.65911 0
M  V30 5507 O 950.024 2.60736 5.64823 0
M  V30 5508 C 951.214 3.93521 7.19518 0
M  V30 5509 O 951.604 3.02071 8.21205 0
M  V30 5510 C 952.094 3.73047 5.97036 0
M  V30 5511 C 951.384 2.58828 5.25741 0
M  V30 5512 N 951.434 2.68068 3.77503 0
M  V30 5513 H 948.596 5.40394 6.8003 0
M  V30 5514 H 948.324 4.41741 5.32532 0
M  V30 5515 H 949.192 3.26371 7.47889 0
M  V30 5516 H 951.847 1.64007 5.56746 0
M  V30 5517 H 952.127 4.63439 5.3432 0
M  V30 5518 H 953.118 3.44776 6.25925 0
M  V30 5519 H 951.284 4.96707 7.57347 0
M  V30 5520 P 953.154 2.75334 8.47391 0
M  V30 5521 O 953.374 2.44595 9.90239 0
M  V30 5522 O 953.944 3.87732 7.92204 0
M  V30 5523 O 953.404 1.4459 7.59357 0
M  V30 5524 C 952.464 0.347608 7.69215 0
M  V30 5525 C 953.194 -0.96767 7.52806 0
M  V30 5526 O 953.404 -1.21036 6.1011 0
M  V30 5527 C 954.594 -1.04544 8.13308 0
M  V30 5528 O 954.984 -2.38311 8.41922 0
M  V30 5529 C 955.474 -0.491279 7.02284 0
M  V30 5530 C 954.764 -0.996264 5.77469 0
M  V30 5531 N 954.814 -0.0501808 4.62873 0
M  V30 5532 C 954.964 -0.578037 3.3505 0
M  V30 5533 O 955.054 -1.8073 3.21711 0
M  V30 5534 N 955.014 0.468541 2.263 0
M  V30 5535 C 954.914 1.59186 2.47176 0
M  V30 5536 N 954.964 2.37626 1.40392 0
M  V30 5537 C 954.764 2.16203 3.77467 0
M  V30 5538 C 954.714 1.29324 4.8195 0
M  V30 5539 H 951.974 0.374679 8.67591 0
M  V30 5540 H 951.705 0.443421 6.90177 0
M  V30 5541 H 952.572 -1.75559 7.96891 0
M  V30 5542 H 955.227 -1.94529 5.46723 0
M  V30 5543 H 955.506 0.608651 7.04676 0
M  V30 5544 H 956.498 -0.889672 7.08939 0
M  V30 5545 H 954.664 -0.43308 9.04564 0
M  V30 5546 H 954.592 1.67758 5.83046 0
M  V30 5547 H 954.694 3.23869 3.92281 0
M  V30 5548 H 955.082 1.96317 0.467202 0
M  V30 5549 H 954.885 3.39693 1.51142 0
M  V30 5550 P 956.534 -2.75334 8.47391 0
M  V30 5551 O 956.754 -3.84128 9.44797 0
M  V30 5552 O 957.324 -1.51947 8.68712 0
M  V30 5553 O 956.784 -3.29363 6.99321 0
M  V30 5554 C 955.844 -4.24011 6.4274 0
M  V30 5555 C 956.574 -5.20775 5.52155 0
M  V30 5556 O 956.784 -4.56534 4.22446 0
M  V30 5557 C 957.974 -5.62629 5.96531 0
M  V30 5558 O 958.364 -6.87667 5.41053 0
M  V30 5559 C 958.854 -4.52537 5.39283 0
M  V30 5560 C 958.144 -4.20027 4.08623 0
M  V30 5561 N 958.194 -2.76189 3.71603 0
M  V30 5562 C 958.114 -1.64862 4.52822 0
M  V30 5563 N 958.194 -0.512671 3.88633 0
M  V30 5564 C 958.334 -0.888083 2.54977 0
M  V30 5565 C 958.464 -0.094668 1.38677 0
M  V30 5566 O 958.484 1.13053 1.28163 0
M  V30 5567 N 958.584 -0.890102 0.232633 0
M  V30 5568 C 958.584 -2.26958 0.21772 0
M  V30 5569 N 958.714 -2.84626 -0.97925 0
M  V30 5570 N 958.454 -3.0178 1.31033 0
M  V30 5571 C 958.334 -2.26781 2.43843 0
M  V30 5572 H 955.355 -4.797 7.24003 0
M  V30 5573 H 955.085 -3.69856 5.84513 0
M  V30 5574 H 955.952 -6.10356 5.41441 0
M  V30 5575 H 958.607 -4.79061 3.27488 0
M  V30 5576 H 958.886 -3.64906 6.05785 0
M  V30 5577 H 959.878 -4.8868 5.2125 0
M  V30 5578 H 958.044 -5.66726 7.06352 0
M  V30 5579 H 957.995 -1.71169 5.60966 0
M  V30 5580 H 958.677 -0.419134 -0.644739 0
M  V30 5581 H 958.714 -3.87332 -1.06098 0
M  V30 5582 H 958.815 -2.26417 -1.82483 0
M  V30 5583 P 959.914 -7.20834 5.23717 0
M  V30 5584 O 960.134 -8.66104 5.38572 0
M  V30 5585 O 960.704 -6.33544 6.1349 0
M  V30 5586 O 960.164 -6.7751 3.72168 0
M  V30 5587 C 959.224 -7.20825 2.7076 0
M  V30 5588 C 959.954 -7.45864 1.40599 0
M  V30 5589 O 960.164 -6.17651 0.734225 0
M  V30 5590 C 961.354 -8.05808 1.51899 0
M  V30 5591 O 961.744 -8.74358 0.335205 0
M  V30 5592 C 962.234 -6.83093 1.70294 0
M  V30 5593 C 961.524 -5.79992 0.836974 0
M  V30 5594 N 961.574 -4.41864 1.38293 0
M  V30 5595 H 958.735 -8.13644 3.0377 0
M  V30 5596 H 958.465 -6.42788 2.55485 0
M  V30 5597 H 959.332 -8.12039 0.792769 0
M  V30 5598 P 963.294 -8.91 -7.18673e-12 0
M  V30 5599 O 963.514 -10.1746 -0.733838 0
M  V30 5600 O 964.084 -8.73346 1.23964 0
M  V30 5601 O 963.544 -7.66872 -0.971405 0
M  V30 5602 C 962.604 -7.42405 -2.04668 0
M  V30 5603 C 963.334 -6.86059 -3.24661 0
M  V30 5604 O 963.544 -5.42934 -3.03695 0
M  V30 5605 C 964.734 -7.41287 -3.50796 0
M  V30 5606 O 965.124 -7.27073 -4.86816 0
M  V30 5607 C 965.614 -6.5273 -2.63741 0
M  V30 5608 C 964.904 -5.1842 -2.73198 0
M  V30 5609 N 964.954 -4.38762 -1.4784 0
M  V30 5610 H 962.116 -8.36899 -2.3252 0
M  V30 5611 H 961.844 -6.70391 -1.71179 0
M  V30 5612 H 962.712 -7.03638 -4.13219 0
M  V30 5613 H 965.367 -4.59931 -3.54016 0
M  V30 5614 H 965.647 -6.88995 -1.59871 0
M  V30 5615 H 966.638 -6.4684 -3.0373 0
M  V30 5616 H 964.804 -8.47002 -3.20749 0
M  V30 5617 P 966.674 -7.20834 -5.23717 0
M  V30 5618 O 966.894 -7.80006 -6.57415 0
M  V30 5619 O 967.464 -7.79416 -4.13051 0
M  V30 5620 O 966.924 -5.63315 -5.29344 0
M  V30 5621 C 965.984 -4.80318 -6.01954 0
M  V30 5622 C 966.714 -3.64202 -6.65911 0
M  V30 5623 O 966.924 -2.60736 -5.64823 0
M  V30 5624 C 968.114 -3.93521 -7.19518 0
M  V30 5625 O 968.504 -3.02071 -8.21205 0
M  V30 5626 C 968.994 -3.73047 -5.97036 0
M  V30 5627 C 968.284 -2.58828 -5.25741 0
M  V30 5628 N 968.334 -2.68068 -3.77503 0
M  V30 5629 H 965.496 -5.40394 -6.8003 0
M  V30 5630 H 965.224 -4.41741 -5.32532 0
M  V30 5631 H 966.092 -3.26371 -7.47889 0
M  V30 5632 H 968.747 -1.64007 -5.56746 0
M  V30 5633 H 969.027 -4.63439 -5.3432 0
M  V30 5634 H 970.018 -3.44776 -6.25925 0
M  V30 5635 H 968.184 -4.96707 -7.57347 0
M  V30 5636 P 970.054 -2.75334 -8.47391 0
M  V30 5637 O 970.274 -2.44571 -9.90142 0
M  V30 5638 O 970.844 -3.87688 -7.92115 0
M  V30 5639 O 970.304 -1.4459 -7.59357 0
M  V30 5640 C 969.364 -0.347608 -7.69215 0
M  V30 5641 C 970.094 0.96767 -7.52806 0
M  V30 5642 O 970.304 1.21036 -6.1011 0
M  V30 5643 C 971.494 1.04544 -8.13308 0
M  V30 5644 O 971.884 2.38311 -8.41922 0
M  V30 5645 C 972.374 0.491279 -7.02284 0
M  V30 5646 C 971.664 0.996264 -5.77469 0
M  V30 5647 N 971.714 0.0501916 -4.62973 0
M  V30 5648 H 968.875 -0.374722 -8.67691 0
M  V30 5649 H 968.605 -0.443485 -6.90277 0
M  V30 5650 H 969.472 1.75537 -7.96793 0
M  V30 5651 P 973.434 2.75334 -8.47391 0
M  V30 5652 O 973.654 3.84128 -9.44797 0
M  V30 5653 O 974.224 1.51947 -8.68712 0
M  V30 5654 O 973.684 3.29363 -6.99321 0
M  V30 5655 C 972.744 4.24011 -6.4274 0
M  V30 5656 C 973.474 5.20775 -5.52155 0
M  V30 5657 O 973.684 4.56534 -4.22446 0
M  V30 5658 C 974.874 5.62629 -5.96531 0
M  V30 5659 O 975.264 6.87667 -5.41053 0
M  V30 5660 C 975.754 4.52537 -5.39283 0
M  V30 5661 C 975.044 4.20027 -4.08623 0
M  V30 5662 N 975.094 2.76189 -3.71603 0
M  V30 5663 H 972.255 4.797 -7.24003 0
M  V30 5664 H 971.985 3.69856 -5.84513 0
M  V30 5665 H 972.852 6.10356 -5.41441 0
M  V30 5666 P 976.814 7.20834 -5.23717 0
M  V30 5667 O 977.034 8.66104 -5.38572 0
M  V30 5668 O 977.604 6.33544 -6.1349 0
M  V30 5669 O 977.064 6.7751 -3.72168 0
M  V30 5670 C 976.124 7.20825 -2.7076 0
M  V30 5671 C 976.854 7.45864 -1.40599 0
M  V30 5672 O 977.064 6.17651 -0.734225 0
M  V30 5673 C 978.254 8.05808 -1.51899 0
M  V30 5674 O 978.644 8.74358 -0.335205 0
M  V30 5675 C 979.134 6.83093 -1.70294 0
M  V30 5676 C 978.424 5.79992 -0.836974 0
M  V30 5677 N 978.474 4.41864 -1.38293 0
M  V30 5678 H 975.635 8.13644 -3.0377 0
M  V30 5679 H 975.365 6.42788 -2.55485 0
M  V30 5680 H 976.232 8.12039 -0.792769 0
M  V30 5681 P 980.194 8.91 7.34391e-12 0
M  V30 5682 O 980.414 10.1726 0.733694 0
M  V30 5683 O 980.984 8.73148 -1.23936 0
M  V30 5684 O 980.444 7.66872 0.971405 0
M  V30 5685 C 979.504 7.42309 2.04641 0
M  V30 5686 C 980.234 6.86059 3.24661 0
M  V30 5687 O 980.444 5.42847 3.03646 0
M  V30 5688 C 981.634 7.41196 3.50753 0
M  V30 5689 O 982.024 7.27073 4.86816 0
M  V30 5690 C 982.514 6.5273 2.63741 0
M  V30 5691 C 981.804 5.1842 2.73198 0
M  V30 5692 N 981.854 4.38762 1.4784 0
M  V30 5693 H 979.015 8.36803 2.32493 0
M  V30 5694 H 978.745 6.70197 1.71129 0
M  V30 5695 H 979.612 7.03551 4.13168 0
M  V30 5696 P 983.574 7.20834 5.23717 0
M  V30 5697 O 983.794 7.79853 6.57286 0
M  V30 5698 O 984.364 7.79239 4.12957 0
M  V30 5699 O 983.824 5.63315 5.29344 0
M  V30 5700 C 982.884 4.80255 6.01876 0
M  V30 5701 C 983.614 3.64202 6.65911 0
M  V30 5702 O 983.824 2.60694 5.64732 0
M  V30 5703 C 985.014 3.93473 7.1943 0
M  V30 5704 O 985.404 3.02071 8.21205 0
M  V30 5705 C 985.894 3.73047 5.97036 0
M  V30 5706 C 985.184 2.58828 5.25741 0
M  V30 5707 N 985.234 2.68068 3.77503 0
M  V30 5708 H 982.395 5.40332 6.79951 0
M  V30 5709 H 982.125 4.41613 5.32378 0
M  V30 5710 H 982.992 3.26331 7.47797 0
M  V30 5711 P 986.954 2.75334 8.47391 0
M  V30 5712 O 987.174 2.44571 9.90142 0
M  V30 5713 O 987.744 3.87688 7.92115 0
M  V30 5714 O 987.204 1.4459 7.59357 0
M  V30 5715 C 986.264 0.347608 7.69215 0
M  V30 5716 C 986.994 -0.96767 7.52806 0
M  V30 5717 O 987.204 -1.21036 6.1011 0
M  V30 5718 C 988.394 -1.04544 8.13308 0
M  V30 5719 O 988.784 -2.38311 8.41922 0
M  V30 5720 C 989.274 -0.491279 7.02284 0
M  V30 5721 C 988.564 -0.996264 5.77469 0
M  V30 5722 N 988.614 -0.0501916 4.62973 0
M  V30 5723 H 985.775 0.374722 8.67691 0
M  V30 5724 H 985.505 0.443485 6.90277 0
M  V30 5725 H 986.372 -1.75537 7.96793 0
M  V30 5726 P 990.334 -2.75334 8.47391 0
M  V30 5727 O 990.554 -3.84128 9.44797 0
M  V30 5728 O 991.124 -1.51947 8.68712 0
M  V30 5729 O 990.584 -3.29363 6.99321 0
M  V30 5730 C 989.644 -4.24011 6.4274 0
M  V30 5731 C 990.374 -5.20775 5.52155 0
M  V30 5732 O 990.584 -4.56534 4.22446 0
M  V30 5733 C 991.774 -5.62629 5.96531 0
M  V30 5734 O 992.164 -6.87667 5.41053 0
M  V30 5735 C 992.654 -4.52537 5.39283 0
M  V30 5736 C 991.944 -4.20027 4.08623 0
M  V30 5737 N 991.994 -2.76189 3.71603 0
M  V30 5738 H 989.155 -4.797 7.24003 0
M  V30 5739 H 988.885 -3.69856 5.84513 0
M  V30 5740 H 989.752 -6.10356 5.41441 0
M  V30 5741 P 993.714 -7.20834 5.23717 0
M  V30 5742 O 993.934 -8.66104 5.38572 0
M  V30 5743 O 994.504 -6.33544 6.1349 0
M  V30 5744 O 993.964 -6.7751 3.72168 0
M  V30 5745 C 993.024 -7.20825 2.7076 0
M  V30 5746 C 993.754 -7.45864 1.40599 0
M  V30 5747 O 993.964 -6.17651 0.734225 0
M  V30 5748 C 995.154 -8.05808 1.51899 0
M  V30 5749 O 995.544 -8.74358 0.335205 0
M  V30 5750 C 996.034 -6.83093 1.70294 0
M  V30 5751 C 995.324 -5.79992 0.836974 0
M  V30 5752 N 995.374 -4.41864 1.38293 0
M  V30 5753 H 992.535 -8.13644 3.0377 0
M  V30 5754 H 992.265 -6.42788 2.55485 0
M  V30 5755 H 993.132 -8.12039 0.792769 0
M  V30 5756 P 997.094 -8.91 -7.50109e-12 0
M  V30 5757 O 997.314 -10.1726 -0.733694 0
M  V30 5758 O 997.884 -8.73148 1.23936 0
M  V30 5759 O 997.344 -7.66872 -0.971405 0
M  V30 5760 C 996.404 -7.42309 -2.04641 0
M  V30 5761 C 997.134 -6.86059 -3.24661 0
M  V30 5762 O 997.344 -5.42847 -3.03646 0
M  V30 5763 C 998.534 -7.41196 -3.50753 0
M  V30 5764 O 998.924 -7.27073 -4.86816 0
M  V30 5765 C 999.414 -6.5273 -2.63741 0
M  V30 5766 C 998.704 -5.1842 -2.73198 0
M  V30 5767 N 998.754 -4.38762 -1.4784 0
M  V30 5768 H 995.915 -8.36803 -2.32493 0
M  V30 5769 H 995.645 -6.70197 -1.71129 0
M  V30 5770 H 996.512 -7.03551 -4.13168 0
M  V30 5771 P 1000.47 -7.20834 -5.23717 0
M  V30 5772 O 1000.69 -7.7993 -6.57351 0
M  V30 5773 O 1001.26 -7.79328 -4.13004 0
M  V30 5774 O 1000.72 -5.63315 -5.29344 0
M  V30 5775 C 999.784 -4.80193 -6.01798 0
M  V30 5776 C 1000.51 -3.64202 -6.65911 0
M  V30 5777 O 1000.72 -2.60694 -5.64732 0
M  V30 5778 C 1001.91 -3.93473 -7.1943 0
M  V30 5779 O 1002.3 -3.02071 -8.21205 0
M  V30 5780 C 1002.79 -3.73047 -5.97036 0
M  V30 5781 C 1002.08 -2.58828 -5.25741 0
M  V30 5782 N 1002.13 -2.6801 -3.77422 0
M  V30 5783 C 1002.28 -1.50443 -3.07133 0
M  V30 5784 O 1002.37 -0.419406 -3.61576 0
M  V30 5785 N 1002.32 -1.6403 -1.69677 0
M  V30 5786 C 1002.23 -2.81206 -0.986255 0
M  V30 5787 O 1002.28 -2.80892 0.249754 0
M  V30 5788 C 1002.08 -3.99158 -1.80325 0
M  V30 5789 C 1001.97 -5.29309 -1.06921 0
M  V30 5790 C 1002.03 -3.89779 -3.1476 0
M  V30 5791 H 999.294 -5.40332 -6.79951 0
M  V30 5792 H 999.025 -4.41549 -5.32301 0
M  V30 5793 H 999.892 -3.26331 -7.47797 0
M  V30 5794 H 1002.55 -1.6395 -5.56554 0
M  V30 5795 H 1002.83 -4.63439 -5.3432 0
M  V30 5796 H 1003.82 -3.44728 -6.25838 0
M  V30 5797 H 1001.98 -4.96652 -7.57263 0
M  V30 5798 H 1001.91 -4.80159 -3.74441 0
M  V30 5799 H 1002.94 -5.81459 -1.09608 0
M  V30 5800 H 1001.21 -5.9187 -1.54487 0
M  V30 5801 H 1001.69 -5.10095 -0.0220288 0
M  V30 5802 H 1002.43 -0.798962 -1.16664 0
M  V30 5803 P 1003.85 -2.75334 -8.47391 0
M  V30 5804 O 1004.07 -2.44571 -9.90142 0
M  V30 5805 O 1004.64 -3.87688 -7.92115 0
M  V30 5806 O 1004.1 -1.4459 -7.59357 0
M  V30 5807 C 1003.16 -0.347608 -7.69215 0
M  V30 5808 C 1003.89 0.96767 -7.52806 0
M  V30 5809 O 1004.1 1.21036 -6.1011 0
M  V30 5810 C 1005.29 1.04544 -8.13308 0
M  V30 5811 O 1005.68 2.38311 -8.41922 0
M  V30 5812 C 1006.17 0.491279 -7.02284 0
M  V30 5813 C 1005.46 0.996264 -5.77469 0
M  V30 5814 N 1005.51 0.0501916 -4.62973 0
M  V30 5815 H 1002.68 -0.374722 -8.67691 0
M  V30 5816 H 1002.41 -0.443485 -6.90277 0
M  V30 5817 H 1003.27 1.75537 -7.96793 0
M  V30 5818 P 1007.23 2.75334 -8.47391 0
M  V30 5819 O 1007.45 3.84128 -9.44797 0
M  V30 5820 O 1008.02 1.51947 -8.68712 0
M  V30 5821 O 1007.48 3.29363 -6.99321 0
M  V30 5822 C 1006.54 4.24011 -6.4274 0
M  V30 5823 C 1007.27 5.20775 -5.52155 0
M  V30 5824 O 1007.48 4.56534 -4.22446 0
M  V30 5825 C 1008.67 5.62629 -5.96531 0
M  V30 5826 O 1009.06 6.87667 -5.41053 0
M  V30 5827 C 1009.55 4.52537 -5.39283 0
M  V30 5828 C 1008.84 4.20027 -4.08623 0
M  V30 5829 N 1008.89 2.76189 -3.71603 0
M  V30 5830 H 1006.06 4.797 -7.24003 0
M  V30 5831 H 1005.79 3.69856 -5.84513 0
M  V30 5832 H 1006.65 6.10356 -5.41441 0
M  V30 5833 P 1010.61 7.20834 -5.23717 0
M  V30 5834 O 1010.83 8.66104 -5.38572 0
M  V30 5835 O 1011.4 6.33544 -6.1349 0
M  V30 5836 O 1010.86 6.7751 -3.72168 0
M  V30 5837 C 1009.92 7.20825 -2.7076 0
M  V30 5838 C 1010.65 7.45864 -1.40599 0
M  V30 5839 O 1010.86 6.17651 -0.734225 0
M  V30 5840 C 1012.05 8.05808 -1.51899 0
M  V30 5841 O 1012.44 8.74358 -0.335205 0
M  V30 5842 C 1012.93 6.83093 -1.70294 0
M  V30 5843 C 1012.22 5.79992 -0.836974 0
M  V30 5844 N 1012.27 4.41864 -1.38293 0
M  V30 5845 H 1009.44 8.13644 -3.0377 0
M  V30 5846 H 1009.17 6.42788 -2.55485 0
M  V30 5847 H 1010.03 8.12039 -0.792769 0
M  V30 5848 P 1013.99 8.91 7.65827e-12 0
M  V30 5849 O 1014.21 10.1726 0.733694 0
M  V30 5850 O 1014.78 8.73148 -1.23936 0
M  V30 5851 O 1014.24 7.66872 0.971405 0
M  V30 5852 C 1013.3 7.42309 2.04641 0
M  V30 5853 C 1014.03 6.86059 3.24661 0
M  V30 5854 O 1014.24 5.42847 3.03646 0
M  V30 5855 C 1015.43 7.41196 3.50753 0
M  V30 5856 O 1015.82 7.27073 4.86816 0
M  V30 5857 C 1016.31 6.5273 2.63741 0
M  V30 5858 C 1015.6 5.1842 2.73198 0
M  V30 5859 N 1015.65 4.38762 1.4784 0
M  V30 5860 H 1012.82 8.36803 2.32493 0
M  V30 5861 H 1012.55 6.70197 1.71129 0
M  V30 5862 H 1013.41 7.03551 4.13168 0
M  V30 5863 P 1017.37 7.20834 5.23717 0
M  V30 5864 O 1017.59 7.80006 6.57415 0
M  V30 5865 O 1018.16 7.79416 4.13051 0
M  V30 5866 O 1017.62 5.63315 5.29344 0
M  V30 5867 C 1016.68 4.80318 6.01954 0
M  V30 5868 C 1017.41 3.64202 6.65911 0
M  V30 5869 O 1017.62 2.60736 5.64823 0
M  V30 5870 C 1018.81 3.93521 7.19518 0
M  V30 5871 O 1019.2 3.02071 8.21205 0
M  V30 5872 C 1019.69 3.73047 5.97036 0
M  V30 5873 C 1018.98 2.58828 5.25741 0
M  V30 5874 N 1019.03 2.68068 3.77503 0
M  V30 5875 H 1016.2 5.40394 6.8003 0
M  V30 5876 H 1015.92 4.41741 5.32532 0
M  V30 5877 H 1016.79 3.26371 7.47889 0
M  V30 5878 H 1019.45 1.64007 5.56746 0
M  V30 5879 H 1019.73 4.63439 5.3432 0
M  V30 5880 H 1020.72 3.44776 6.25925 0
M  V30 5881 H 1018.88 4.96707 7.57347 0
M  V30 5882 P 1020.75 2.75334 8.47391 0
M  V30 5883 O 1020.97 2.44571 9.90142 0
M  V30 5884 O 1021.54 3.87688 7.92115 0
M  V30 5885 O 1021 1.4459 7.59357 0
M  V30 5886 C 1020.06 0.347608 7.69215 0
M  V30 5887 C 1020.79 -0.96767 7.52806 0
M  V30 5888 O 1021 -1.21036 6.1011 0
M  V30 5889 C 1022.19 -1.04544 8.13308 0
M  V30 5890 O 1022.58 -2.38311 8.41922 0
M  V30 5891 C 1023.07 -0.491279 7.02284 0
M  V30 5892 C 1022.36 -0.996264 5.77469 0
M  V30 5893 N 1022.41 -0.0501916 4.62973 0
M  V30 5894 H 1019.57 0.374722 8.67691 0
M  V30 5895 H 1019.3 0.443485 6.90277 0
M  V30 5896 H 1020.17 -1.75537 7.96793 0
M  V30 5897 P 1024.13 -2.75334 8.47391 0
M  V30 5898 O 1024.35 -3.84204 9.44982 0
M  V30 5899 O 1024.92 -1.51982 8.68909 0
M  V30 5900 O 1024.38 -3.29363 6.99321 0
M  V30 5901 C 1023.44 -4.24066 6.42823 0
M  V30 5902 C 1024.17 -5.20775 5.52155 0
M  V30 5903 O 1024.38 -4.56607 4.22514 0
M  V30 5904 C 1025.57 -5.62697 5.96604 0
M  V30 5905 O 1025.96 -6.87667 5.41053 0
M  V30 5906 C 1026.45 -4.52537 5.39283 0
M  V30 5907 C 1025.74 -4.20027 4.08623 0
M  V30 5908 N 1025.79 -2.76189 3.71603 0
M  V30 5909 C 1025.71 -1.66944 4.54297 0
M  V30 5910 N 1025.78 -0.536169 3.91344 0
M  V30 5911 C 1025.93 -0.901569 2.58849 0
M  V30 5912 C 1026.06 -0.146599 1.40236 0
M  V30 5913 N 1026.07 1.18234 1.37046 0
M  V30 5914 N 1026.18 -0.822941 0.249738 0
M  V30 5915 C 1026.17 -2.15179 0.280525 0
M  V30 5916 N 1026.05 -2.96414 1.30822 0
M  V30 5917 C 1025.93 -2.25804 2.44748 0
M  V30 5918 H 1022.96 -4.79756 7.24086 0
M  V30 5919 H 1022.68 -3.69963 5.84682 0
M  V30 5920 H 1023.55 -6.10431 5.41508 0
M  V30 5921 H 1026.21 -4.78816 3.28024 0
M  V30 5922 H 1026.49 -3.64957 6.05871 0
M  V30 5923 H 1027.48 -4.88748 5.21323 0
M  V30 5924 H 1025.64 -5.66789 7.0643 0
M  V30 5925 H 1025.6 -1.74684 5.62396 0
M  V30 5926 H 1025.98 1.71949 2.24394 0
M  V30 5927 H 1026.17 1.67511 0.470742 0
M  V30 5928 H 1026.28 -2.63704 -0.6828 0
M  V30 5929 P 1027.51 -7.20834 5.23717 0
M  V30 5930 O 1027.73 -8.66104 5.38572 0
M  V30 5931 O 1028.3 -6.33544 6.1349 0
M  V30 5932 O 1027.76 -6.7751 3.72168 0
M  V30 5933 C 1026.82 -7.20825 2.7076 0
M  V30 5934 C 1027.55 -7.45864 1.40599 0
M  V30 5935 O 1027.76 -6.17651 0.734225 0
M  V30 5936 C 1028.95 -8.05808 1.51899 0
M  V30 5937 O 1029.34 -8.74358 0.335205 0
M  V30 5938 C 1029.83 -6.83093 1.70294 0
M  V30 5939 C 1029.12 -5.79992 0.836974 0
M  V30 5940 N 1029.17 -4.41864 1.38293 0
M  V30 5941 H 1026.33 -8.13644 3.0377 0
M  V30 5942 H 1026.06 -6.42788 2.55485 0
M  V30 5943 H 1026.93 -8.12039 0.792769 0
M  V30 5944 P 1030.89 -8.91 -7.81545e-12 0
M  V30 5945 O 1031.11 -10.1726 -0.733694 0
M  V30 5946 O 1031.68 -8.73148 1.23936 0
M  V30 5947 O 1031.14 -7.66872 -0.971405 0
M  V30 5948 C 1030.2 -7.42309 -2.04641 0
M  V30 5949 C 1030.93 -6.86059 -3.24661 0
M  V30 5950 O 1031.14 -5.42847 -3.03646 0
M  V30 5951 C 1032.33 -7.41196 -3.50753 0
M  V30 5952 O 1032.72 -7.27073 -4.86816 0
M  V30 5953 C 1033.21 -6.5273 -2.63741 0
M  V30 5954 C 1032.5 -5.1842 -2.73198 0
M  V30 5955 N 1032.55 -4.38762 -1.4784 0
M  V30 5956 H 1029.71 -8.36803 -2.32493 0
M  V30 5957 H 1029.44 -6.70197 -1.71129 0
M  V30 5958 H 1030.31 -7.03551 -4.13168 0
M  V30 5959 P 1034.27 -7.20834 -5.23717 0
M  V30 5960 O 1034.49 -7.79853 -6.57286 0
M  V30 5961 O 1035.06 -7.79239 -4.12957 0
M  V30 5962 O 1034.52 -5.63315 -5.29344 0
M  V30 5963 C 1033.58 -4.80255 -6.01876 0
M  V30 5964 C 1034.31 -3.64202 -6.65911 0
M  V30 5965 O 1034.52 -2.60694 -5.64732 0
M  V30 5966 C 1035.71 -3.93473 -7.1943 0
M  V30 5967 O 1036.1 -3.02071 -8.21205 0
M  V30 5968 C 1036.59 -3.73047 -5.97036 0
M  V30 5969 C 1035.88 -2.58828 -5.25741 0
M  V30 5970 N 1035.93 -2.68068 -3.77503 0
M  V30 5971 C 1035.85 -3.79715 -2.96723 0
M  V30 5972 N 1035.93 -3.5377 -1.68852 0
M  V30 5973 C 1036.07 -2.15054 -1.63254 0
M  V30 5974 C 1036.2 -1.28964 -0.518571 0
M  V30 5975 O 1036.22 -1.56826 0.679156 0
M  V30 5976 N 1036.32 0.0538097 -0.918425 0
M  V30 5977 C 1036.32 0.494275 -2.22578 0
M  V30 5978 N 1036.45 1.81086 -2.40434 0
M  V30 5979 N 1036.19 -0.313645 -3.27502 0
M  V30 5980 C 1036.07 -1.61829 -2.91033 0
M  V30 5981 H 1033.09 -5.40332 -6.79951 0
M  V30 5982 H 1032.82 -4.41613 -5.32378 0
M  V30 5983 H 1033.69 -3.26331 -7.47797 0
M  V30 5984 H 1036.35 -1.63422 -5.56814 0
M  V30 5985 H 1036.63 -4.63374 -5.34244 0
M  V30 5986 H 1037.62 -3.44728 -6.25838 0
M  V30 5987 H 1035.78 -4.96652 -7.57263 0
M  V30 5988 H 1035.73 -4.80617 -3.3614 0
M  V30 5989 H 1036.42 0.742702 -0.199384 0
M  V30 5990 H 1036.45 2.20598 -3.35588 0
M  V30 5991 H 1036.55 2.43518 -1.58945 0
M  V30 5992 P 1037.65 -2.75334 -8.47391 0
M  V30 5993 O 1037.87 -2.44571 -9.90142 0
M  V30 5994 O 1038.44 -3.87688 -7.92115 0
M  V30 5995 O 1037.9 -1.4459 -7.59357 0
M  V30 5996 C 1036.96 -0.347608 -7.69215 0
M  V30 5997 C 1037.69 0.96767 -7.52806 0
M  V30 5998 O 1037.9 1.21036 -6.1011 0
M  V30 5999 C 1039.09 1.04544 -8.13308 0
M  V30 6000 O 1039.48 2.38311 -8.41922 0
M  V30 6001 C 1039.97 0.491279 -7.02284 0
M  V30 6002 C 1039.26 0.996264 -5.77469 0
M  V30 6003 N 1039.31 0.0501916 -4.62973 0
M  V30 6004 H 1036.47 -0.374722 -8.67691 0
M  V30 6005 H 1036.2 -0.443485 -6.90277 0
M  V30 6006 H 1037.07 1.75537 -7.96793 0
M  V30 6007 P 1041.03 2.75334 -8.47391 0
M  V30 6008 O 1041.25 3.84128 -9.44797 0
M  V30 6009 O 1041.82 1.51947 -8.68712 0
M  V30 6010 O 1041.28 3.29363 -6.99321 0
M  V30 6011 C 1040.34 4.24011 -6.4274 0
M  V30 6012 C 1041.07 5.20775 -5.52155 0
M  V30 6013 O 1041.28 4.56534 -4.22446 0
M  V30 6014 C 1042.47 5.62629 -5.96531 0
M  V30 6015 O 1042.86 6.87667 -5.41053 0
M  V30 6016 C 1043.35 4.52537 -5.39283 0
M  V30 6017 C 1042.64 4.20027 -4.08623 0
M  V30 6018 N 1042.69 2.76189 -3.71603 0
M  V30 6019 H 1039.85 4.797 -7.24003 0
M  V30 6020 H 1039.58 3.69856 -5.84513 0
M  V30 6021 H 1040.45 6.10356 -5.41441 0
M  V30 6022 P 1044.41 7.20834 -5.23717 0
M  V30 6023 O 1044.63 8.66104 -5.38572 0
M  V30 6024 O 1045.2 6.33544 -6.1349 0
M  V30 6025 O 1044.66 6.7751 -3.72168 0
M  V30 6026 C 1043.72 7.20825 -2.7076 0
M  V30 6027 C 1044.45 7.45864 -1.40599 0
M  V30 6028 O 1044.66 6.17651 -0.734225 0
M  V30 6029 C 1045.85 8.05808 -1.51899 0
M  V30 6030 O 1046.24 8.74358 -0.335205 0
M  V30 6031 C 1046.73 6.83093 -1.70294 0
M  V30 6032 C 1046.02 5.79992 -0.836974 0
M  V30 6033 N 1046.07 4.41864 -1.38293 0
M  V30 6034 H 1043.23 8.13644 -3.0377 0
M  V30 6035 H 1042.96 6.42788 -2.55485 0
M  V30 6036 H 1043.83 8.12039 -0.792769 0
M  V30 6037 P 1047.79 8.91 7.97264e-12 0
M  V30 6038 O 1048.01 10.1726 0.733694 0
M  V30 6039 O 1048.58 8.73148 -1.23936 0
M  V30 6040 O 1048.04 7.66872 0.971405 0
M  V30 6041 C 1047.1 7.42309 2.04641 0
M  V30 6042 C 1047.83 6.86059 3.24661 0
M  V30 6043 O 1048.04 5.42847 3.03646 0
M  V30 6044 C 1049.23 7.41196 3.50753 0
M  V30 6045 O 1049.62 7.27073 4.86816 0
M  V30 6046 C 1050.11 6.5273 2.63741 0
M  V30 6047 C 1049.4 5.1842 2.73198 0
M  V30 6048 N 1049.45 4.38762 1.4784 0
M  V30 6049 H 1046.61 8.36803 2.32493 0
M  V30 6050 H 1046.34 6.70197 1.71129 0
M  V30 6051 H 1047.21 7.03551 4.13168 0
M  V30 6052 P 1051.17 7.20834 5.23717 0
M  V30 6053 O 1051.39 7.79853 6.57286 0
M  V30 6054 O 1051.96 7.79239 4.12957 0
M  V30 6055 O 1051.42 5.63315 5.29344 0
M  V30 6056 C 1050.48 4.80255 6.01876 0
M  V30 6057 C 1051.21 3.64202 6.65911 0
M  V30 6058 O 1051.42 2.60694 5.64732 0
M  V30 6059 C 1052.61 3.93473 7.1943 0
M  V30 6060 O 1053 3.02071 8.21205 0
M  V30 6061 C 1053.49 3.73047 5.97036 0
M  V30 6062 C 1052.78 2.58828 5.25741 0
M  V30 6063 N 1052.83 2.68068 3.77503 0
M  V30 6064 H 1049.99 5.40332 6.79951 0
M  V30 6065 H 1049.72 4.41613 5.32378 0
M  V30 6066 H 1050.59 3.26331 7.47797 0
M  V30 6067 P 1054.55 2.75334 8.47391 0
M  V30 6068 O 1054.77 2.44571 9.90142 0
M  V30 6069 O 1055.34 3.87688 7.92115 0
M  V30 6070 O 1054.8 1.4459 7.59357 0
M  V30 6071 C 1053.86 0.347608 7.69215 0
M  V30 6072 C 1054.59 -0.96767 7.52806 0
M  V30 6073 O 1054.8 -1.21036 6.1011 0
M  V30 6074 C 1055.99 -1.04544 8.13308 0
M  V30 6075 O 1056.38 -2.38311 8.41922 0
M  V30 6076 C 1056.87 -0.491279 7.02284 0
M  V30 6077 C 1056.16 -0.996264 5.77469 0
M  V30 6078 N 1056.21 -0.0501916 4.62973 0
M  V30 6079 H 1053.37 0.374722 8.67691 0
M  V30 6080 H 1053.1 0.443485 6.90277 0
M  V30 6081 H 1053.97 -1.75537 7.96793 0
M  V30 6082 P 1057.93 -2.75334 8.47391 0
M  V30 6083 O 1058.15 -3.84128 9.44797 0
M  V30 6084 O 1058.72 -1.51947 8.68712 0
M  V30 6085 O 1058.18 -3.29363 6.99321 0
M  V30 6086 C 1057.24 -4.24011 6.4274 0
M  V30 6087 C 1057.97 -5.20775 5.52155 0
M  V30 6088 O 1058.18 -4.56534 4.22446 0
M  V30 6089 C 1059.37 -5.62629 5.96531 0
M  V30 6090 O 1059.76 -6.87667 5.41053 0
M  V30 6091 C 1060.25 -4.52537 5.39283 0
M  V30 6092 C 1059.54 -4.20027 4.08623 0
M  V30 6093 N 1059.59 -2.76189 3.71603 0
M  V30 6094 H 1056.75 -4.797 7.24003 0
M  V30 6095 H 1056.48 -3.69856 5.84513 0
M  V30 6096 H 1057.35 -6.10356 5.41441 0
M  V30 6097 P 1061.31 -7.20834 5.23717 0
M  V30 6098 O 1061.53 -8.66104 5.38572 0
M  V30 6099 O 1062.1 -6.33544 6.1349 0
M  V30 6100 O 1061.56 -6.7751 3.72168 0
M  V30 6101 C 1060.62 -7.20825 2.7076 0
M  V30 6102 C 1061.35 -7.45864 1.40599 0
M  V30 6103 O 1061.56 -6.17651 0.734225 0
M  V30 6104 C 1062.75 -8.05808 1.51899 0
M  V30 6105 O 1063.14 -8.74358 0.335205 0
M  V30 6106 C 1063.63 -6.83093 1.70294 0
M  V30 6107 C 1062.92 -5.79992 0.836974 0
M  V30 6108 N 1062.97 -4.41864 1.38293 0
M  V30 6109 H 1060.13 -8.13644 3.0377 0
M  V30 6110 H 1059.86 -6.42788 2.55485 0
M  V30 6111 H 1060.73 -8.12039 0.792769 0
M  V30 6112 P 1064.69 -8.91 -8.12982e-12 0
M  V30 6113 O 1064.91 -10.1746 -0.733838 0
M  V30 6114 O 1065.48 -8.73346 1.23964 0
M  V30 6115 O 1064.94 -7.66872 -0.971405 0
M  V30 6116 C 1064 -7.42405 -2.04668 0
M  V30 6117 C 1064.73 -6.86059 -3.24661 0
M  V30 6118 O 1064.94 -5.42934 -3.03695 0
M  V30 6119 C 1066.13 -7.41287 -3.50796 0
M  V30 6120 O 1066.52 -7.27073 -4.86816 0
M  V30 6121 C 1067.01 -6.5273 -2.63741 0
M  V30 6122 C 1066.3 -5.1842 -2.73198 0
M  V30 6123 N 1066.35 -4.38762 -1.4784 0
M  V30 6124 C 1066.27 -4.83651 -0.183876 0
M  V30 6125 N 1066.34 -3.88759 0.699393 0
M  V30 6126 C 1066.49 -2.7404 -0.0575568 0
M  V30 6127 C 1066.62 -1.37902 0.293928 0
M  V30 6128 N 1066.63 -0.938021 1.54797 0
M  V30 6129 N 1066.74 -0.491817 -0.70549 0
M  V30 6130 C 1066.73 -0.931735 -1.95979 0
M  V30 6131 N 1066.61 -2.16017 -2.41481 0
M  V30 6132 C 1066.49 -3.02547 -1.39121 0
M  V30 6133 H 1063.52 -8.36899 -2.3252 0
M  V30 6134 H 1063.24 -6.70391 -1.71179 0
M  V30 6135 H 1064.11 -7.03638 -4.13219 0
M  V30 6136 H 1066.77 -4.59931 -3.54016 0
M  V30 6137 H 1067.05 -6.88995 -1.59871 0
M  V30 6138 H 1068.04 -6.4684 -3.0373 0
M  V30 6139 H 1066.2 -8.47002 -3.20749 0
M  V30 6140 H 1066.16 -5.8885 0.0765548 0
M  V30 6141 H 1066.54 -1.60276 2.32875 0
M  V30 6142 H 1066.73 0.0699355 1.73859 0
M  V30 6143 H 1066.84 -0.165507 -2.71897 0
M  V30 6144 P 1068.07 -7.20834 -5.23717 0
M  V30 6145 O 1068.29 -7.79853 -6.57286 0
M  V30 6146 O 1068.86 -7.79239 -4.12957 0
M  V30 6147 O 1068.32 -5.63315 -5.29344 0
M  V30 6148 C 1067.38 -4.80255 -6.01876 0
M  V30 6149 C 1068.11 -3.64202 -6.65911 0
M  V30 6150 O 1068.32 -2.60694 -5.64732 0
M  V30 6151 C 1069.51 -3.93473 -7.1943 0
M  V30 6152 O 1069.9 -3.02071 -8.21205 0
M  V30 6153 C 1070.39 -3.73047 -5.97036 0
M  V30 6154 C 1069.68 -2.58828 -5.25741 0
M  V30 6155 N 1069.73 -2.68068 -3.77503 0
M  V30 6156 C 1069.65 -3.79715 -2.96723 0
M  V30 6157 N 1069.73 -3.5377 -1.68852 0
M  V30 6158 C 1069.87 -2.15054 -1.63254 0
M  V30 6159 C 1070 -1.28964 -0.518571 0
M  V30 6160 O 1070.02 -1.56826 0.679156 0
M  V30 6161 N 1070.12 0.0538097 -0.918425 0
M  V30 6162 C 1070.12 0.494275 -2.22578 0
M  V30 6163 N 1070.25 1.81086 -2.40434 0
M  V30 6164 N 1069.99 -0.313645 -3.27502 0
M  V30 6165 C 1069.87 -1.61829 -2.91033 0
M  V30 6166 H 1066.89 -5.40332 -6.79951 0
M  V30 6167 H 1066.62 -4.41613 -5.32378 0
M  V30 6168 H 1067.49 -3.26331 -7.47797 0
M  V30 6169 H 1070.15 -1.63422 -5.56814 0
M  V30 6170 H 1070.43 -4.63374 -5.34244 0
M  V30 6171 H 1071.42 -3.44728 -6.25838 0
M  V30 6172 H 1069.58 -4.96652 -7.57263 0
M  V30 6173 H 1069.53 -4.80617 -3.3614 0
M  V30 6174 H 1070.22 0.742702 -0.199384 0
M  V30 6175 H 1070.25 2.20598 -3.35588 0
M  V30 6176 H 1070.35 2.43518 -1.58945 0
M  V30 6177 P 1071.45 -2.75334 -8.47391 0
M  V30 6178 O 1071.67 -2.44571 -9.90142 0
M  V30 6179 O 1072.24 -3.87688 -7.92115 0
M  V30 6180 O 1071.7 -1.4459 -7.59357 0
M  V30 6181 C 1070.76 -0.347608 -7.69215 0
M  V30 6182 C 1071.49 0.96767 -7.52806 0
M  V30 6183 O 1071.7 1.21036 -6.1011 0
M  V30 6184 C 1072.89 1.04544 -8.13308 0
M  V30 6185 O 1073.28 2.38311 -8.41922 0
M  V30 6186 C 1073.77 0.491279 -7.02284 0
M  V30 6187 C 1073.06 0.996264 -5.77469 0
M  V30 6188 N 1073.11 0.0501916 -4.62973 0
M  V30 6189 H 1070.27 -0.374722 -8.67691 0
M  V30 6190 H 1070 -0.443485 -6.90277 0
M  V30 6191 H 1070.87 1.75537 -7.96793 0
M  V30 6192 P 1074.83 2.75334 -8.47391 0
M  V30 6193 O 1075.05 3.84128 -9.44797 0
M  V30 6194 O 1075.62 1.51947 -8.68712 0
M  V30 6195 O 1075.08 3.29363 -6.99321 0
M  V30 6196 C 1074.14 4.24011 -6.4274 0
M  V30 6197 C 1074.87 5.20775 -5.52155 0
M  V30 6198 O 1075.08 4.56534 -4.22446 0
M  V30 6199 C 1076.27 5.62629 -5.96531 0
M  V30 6200 O 1076.66 6.87667 -5.41053 0
M  V30 6201 C 1077.15 4.52537 -5.39283 0
M  V30 6202 C 1076.44 4.20027 -4.08623 0
M  V30 6203 N 1076.49 2.76189 -3.71603 0
M  V30 6204 C 1076.41 1.64862 -4.52822 0
M  V30 6205 N 1076.49 0.512671 -3.88633 0
M  V30 6206 C 1076.63 0.888083 -2.54977 0
M  V30 6207 C 1076.76 0.094668 -1.38677 0
M  V30 6208 O 1076.78 -1.13053 -1.28163 0
M  V30 6209 N 1076.88 0.890102 -0.232633 0
M  V30 6210 C 1076.88 2.26958 -0.21772 0
M  V30 6211 N 1077.01 2.84626 0.97925 0
M  V30 6212 N 1076.75 3.0178 -1.31033 0
M  V30 6213 C 1076.63 2.26781 -2.43843 0
M  V30 6214 H 1073.65 4.797 -7.24003 0
M  V30 6215 H 1073.38 3.69856 -5.84513 0
M  V30 6216 H 1074.25 6.10356 -5.41441 0
M  V30 6217 H 1076.91 4.79061 -3.27488 0
M  V30 6218 H 1077.19 3.64906 -6.05785 0
M  V30 6219 H 1078.18 4.8868 -5.2125 0
M  V30 6220 H 1076.34 5.66726 -7.06352 0
M  V30 6221 H 1076.29 1.71169 -5.60966 0
M  V30 6222 H 1076.98 0.419134 0.644739 0
M  V30 6223 H 1077.01 3.87332 1.06098 0
M  V30 6224 H 1077.11 2.26417 1.82483 0
M  V30 6225 P 1078.21 7.20834 -5.23717 0
M  V30 6226 O 1078.43 8.66104 -5.38572 0
M  V30 6227 O 1079 6.33544 -6.1349 0
M  V30 6228 O 1078.46 6.7751 -3.72168 0
M  V30 6229 C 1077.52 7.20825 -2.7076 0
M  V30 6230 C 1078.25 7.45864 -1.40599 0
M  V30 6231 O 1078.46 6.17651 -0.734225 0
M  V30 6232 C 1079.65 8.05808 -1.51899 0
M  V30 6233 O 1080.04 8.74358 -0.335205 0
M  V30 6234 C 1080.53 6.83093 -1.70294 0
M  V30 6235 C 1079.82 5.79992 -0.836974 0
M  V30 6236 N 1079.87 4.41864 -1.38293 0
M  V30 6237 H 1077.03 8.13644 -3.0377 0
M  V30 6238 H 1076.76 6.42788 -2.55485 0
M  V30 6239 H 1077.63 8.12039 -0.792769 0
M  V30 6240 P 1081.59 8.91 8.287e-12 0
M  V30 6241 O 1081.81 10.1726 0.733694 0
M  V30 6242 O 1082.38 8.73148 -1.23936 0
M  V30 6243 O 1081.84 7.66872 0.971405 0
M  V30 6244 C 1080.9 7.42309 2.04641 0
M  V30 6245 C 1081.63 6.86059 3.24661 0
M  V30 6246 O 1081.84 5.42847 3.03646 0
M  V30 6247 C 1083.03 7.41196 3.50753 0
M  V30 6248 O 1083.42 7.27073 4.86816 0
M  V30 6249 C 1083.91 6.5273 2.63741 0
M  V30 6250 C 1083.2 5.1842 2.73198 0
M  V30 6251 N 1083.25 4.38762 1.4784 0
M  V30 6252 H 1080.41 8.36803 2.32493 0
M  V30 6253 H 1080.14 6.70197 1.71129 0
M  V30 6254 H 1081.01 7.03551 4.13168 0
M  V30 6255 P 1084.97 7.20834 5.23717 0
M  V30 6256 O 1085.19 7.79853 6.57286 0
M  V30 6257 O 1085.76 7.79239 4.12957 0
M  V30 6258 O 1085.22 5.63315 5.29344 0
M  V30 6259 C 1084.28 4.80255 6.01876 0
M  V30 6260 C 1085.01 3.64202 6.65911 0
M  V30 6261 O 1085.22 2.60694 5.64732 0
M  V30 6262 C 1086.41 3.93473 7.1943 0
M  V30 6263 O 1086.8 3.02071 8.21205 0
M  V30 6264 C 1087.29 3.73047 5.97036 0
M  V30 6265 C 1086.58 2.58828 5.25741 0
M  V30 6266 N 1086.63 2.68068 3.77503 0
M  V30 6267 H 1083.79 5.40332 6.79951 0
M  V30 6268 H 1083.52 4.41613 5.32378 0
M  V30 6269 H 1084.39 3.26331 7.47797 0
M  V30 6270 P 1088.35 2.75334 8.47391 0
M  V30 6271 O 1088.57 2.44619 9.90336 0
M  V30 6272 O 1089.14 3.87776 7.92294 0
M  V30 6273 O 1088.6 1.4459 7.59357 0
M  V30 6274 C 1087.66 0.347653 7.69315 0
M  V30 6275 C 1088.39 -0.96767 7.52806 0
M  V30 6276 O 1088.6 -1.21055 6.10208 0
M  V30 6277 C 1089.79 -1.04557 8.13408 0
M  V30 6278 O 1090.18 -2.38311 8.41922 0
M  V30 6279 C 1090.67 -0.491279 7.02284 0
M  V30 6280 C 1089.96 -0.996264 5.77469 0
M  V30 6281 N 1090.01 -0.0501916 4.62973 0
M  V30 6282 H 1087.18 0.374765 8.67791 0
M  V30 6283 H 1086.9 0.443613 6.90476 0
M  V30 6284 H 1087.77 -1.75559 7.96891 0
M  V30 6285 H 1090.43 -1.94563 5.46818 0
M  V30 6286 H 1090.71 0.608651 7.04676 0
M  V30 6287 H 1091.7 -0.889796 7.09039 0
M  V30 6288 H 1089.86 -0.433128 9.04664 0
M  V30 6289 P 1091.73 -2.75334 8.47391 0
M  V30 6290 O 1091.95 -3.84128 9.44797 0
M  V30 6291 O 1092.52 -1.51947 8.68712 0
M  V30 6292 O 1091.98 -3.29363 6.99321 0
M  V30 6293 C 1091.04 -4.24011 6.4274 0
M  V30 6294 C 1091.77 -5.20775 5.52155 0
M  V30 6295 O 1091.98 -4.56534 4.22446 0
M  V30 6296 C 1093.17 -5.62629 5.96531 0
M  V30 6297 O 1093.56 -6.87667 5.41053 0
M  V30 6298 C 1094.05 -4.52537 5.39283 0
M  V30 6299 C 1093.34 -4.20027 4.08623 0
M  V30 6300 N 1093.39 -2.76189 3.71603 0
M  V30 6301 C 1093.31 -1.64862 4.52822 0
M  V30 6302 N 1093.39 -0.512671 3.88633 0
M  V30 6303 C 1093.53 -0.888083 2.54977 0
M  V30 6304 C 1093.66 -0.094668 1.38677 0
M  V30 6305 N 1093.78 -0.890102 0.232633 0
M  V30 6306 C 1093.78 -2.26958 0.21772 0
M  V30 6307 N 1093.91 -2.84626 -0.97925 0
M  V30 6308 N 1093.65 -3.0178 1.31033 0
M  V30 6309 C 1093.53 -2.26781 2.43843 0
M  V30 6310 H 1090.55 -4.797 7.24003 0
M  V30 6311 H 1090.28 -3.69856 5.84513 0
M  V30 6312 H 1091.15 -6.10356 5.41441 0
M  V30 6313 P 1095.11 -7.20834 5.23717 0
M  V30 6314 O 1095.33 -8.66104 5.38572 0
M  V30 6315 O 1095.9 -6.33544 6.1349 0
M  V30 6316 O 1095.36 -6.7751 3.72168 0
M  V30 6317 C 1094.42 -7.20825 2.7076 0
M  V30 6318 C 1095.15 -7.45864 1.40599 0
M  V30 6319 O 1095.36 -6.17651 0.734225 0
M  V30 6320 C 1096.55 -8.05808 1.51899 0
M  V30 6321 O 1096.94 -8.74358 0.335205 0
M  V30 6322 C 1097.43 -6.83093 1.70294 0
M  V30 6323 C 1096.72 -5.79992 0.836974 0
M  V30 6324 N 1096.77 -4.41864 1.38293 0
M  V30 6325 C 1096.69 -3.99538 2.69438 0
M  V30 6326 N 1096.77 -2.69909 2.84277 0
M  V30 6327 C 1096.91 -2.21719 1.5408 0
M  V30 6328 C 1097.04 -0.891712 1.06628 0
M  V30 6329 N 1097.16 -0.856846 -0.334985 0
M  V30 6330 C 1097.16 -1.9641 -1.15789 0
M  V30 6331 N 1097.29 -1.72708 -2.46522 0
M  V30 6332 N 1097.03 -3.21165 -0.713741 0
M  V30 6333 C 1096.91 -3.26797 0.639748 0
M  V30 6334 H 1093.93 -8.13644 3.0377 0
M  V30 6335 H 1093.66 -6.42788 2.55485 0
M  V30 6336 H 1094.53 -8.12039 0.792769 0
M  V30 6337 P 1098.49 -8.91 -8.44418e-12 0
M  V30 6338 O 1098.71 -10.1726 -0.733694 0
M  V30 6339 O 1099.28 -8.73148 1.23936 0
M  V30 6340 O 1098.74 -7.66872 -0.971405 0
M  V30 6341 C 1097.8 -7.42309 -2.04641 0
M  V30 6342 C 1098.53 -6.86059 -3.24661 0
M  V30 6343 O 1098.74 -5.42847 -3.03646 0
M  V30 6344 C 1099.93 -7.41196 -3.50753 0
M  V30 6345 O 1100.32 -7.27073 -4.86816 0
M  V30 6346 C 1100.81 -6.5273 -2.63741 0
M  V30 6347 C 1100.1 -5.1842 -2.73198 0
M  V30 6348 N 1100.15 -4.38762 -1.4784 0
M  V30 6349 C 1100.07 -4.81605 -0.168631 0
M  V30 6350 N 1100.15 -3.85454 0.713363 0
M  V30 6351 C 1100.29 -2.6994 -0.0566958 0
M  V30 6352 C 1100.42 -1.34815 0.338502 0
M  V30 6353 N 1100.54 -0.496304 -0.77465 0
M  V30 6354 C 1100.54 -0.908403 -2.09122 0
M  V30 6355 N 1100.67 0.0517805 -3.00955 0
M  V30 6356 N 1100.41 -2.17875 -2.46519 0
M  V30 6357 C 1100.29 -3.01988 -1.4033 0
M  V30 6358 H 1097.31 -8.36803 -2.32493 0
M  V30 6359 H 1097.04 -6.70197 -1.71129 0
M  V30 6360 H 1097.91 -7.03551 -4.13168 0
M  V30 6361 P 1101.87 -7.20834 -5.23717 0
M  V30 6362 O 1102.09 -7.79853 -6.57286 0
M  V30 6363 O 1102.66 -7.79239 -4.12957 0
M  V30 6364 O 1102.12 -5.63315 -5.29344 0
M  V30 6365 C 1101.18 -4.80255 -6.01876 0
M  V30 6366 C 1101.91 -3.64202 -6.65911 0
M  V30 6367 O 1102.12 -2.60694 -5.64732 0
M  V30 6368 C 1103.31 -3.93473 -7.1943 0
M  V30 6369 O 1103.7 -3.02071 -8.21205 0
M  V30 6370 C 1104.19 -3.73047 -5.97036 0
M  V30 6371 C 1103.48 -2.58828 -5.25741 0
M  V30 6372 N 1103.53 -2.68068 -3.77503 0
M  V30 6373 H 1100.69 -5.40332 -6.79951 0
M  V30 6374 H 1100.42 -4.41613 -5.32378 0
M  V30 6375 H 1101.29 -3.26331 -7.47797 0
M  V30 6376 P 1105.25 -2.75334 -8.47391 0
M  V30 6377 O 1105.47 -2.44571 -9.90142 0
M  V30 6378 O 1106.04 -3.87688 -7.92115 0
M  V30 6379 O 1105.5 -1.4459 -7.59357 0
M  V30 6380 C 1104.56 -0.347608 -7.69215 0
M  V30 6381 C 1105.29 0.96767 -7.52806 0
M  V30 6382 O 1105.5 1.21036 -6.1011 0
M  V30 6383 C 1106.69 1.04544 -8.13308 0
M  V30 6384 O 1107.08 2.38311 -8.41922 0
M  V30 6385 C 1107.57 0.491279 -7.02284 0
M  V30 6386 C 1106.86 0.996264 -5.77469 0
M  V30 6387 N 1106.91 0.0501916 -4.62973 0
M  V30 6388 C 1106.83 -1.32786 -4.63244 0
M  V30 6389 N 1106.91 -1.86957 -3.44545 0
M  V30 6390 C 1107.05 -0.780241 -2.58481 0
M  V30 6391 C 1107.18 -0.738536 -1.17757 0
M  V30 6392 N 1107.3 0.58337 -0.711393 0
M  V30 6393 C 1107.3 1.70816 -1.51017 0
M  V30 6394 N 1107.43 2.87826 -0.880757 0
M  V30 6395 N 1107.17 1.67126 -2.8339 0
M  V30 6396 C 1107.05 0.401421 -3.30572 0
M  V30 6397 H 1104.07 -0.374722 -8.67691 0
M  V30 6398 H 1103.8 -0.443485 -6.90277 0
M  V30 6399 H 1104.67 1.75537 -7.96793 0
M  V30 6400 P 1108.63 2.75334 -8.47391 0
M  V30 6401 O 1108.85 3.84128 -9.44797 0
M  V30 6402 O 1109.42 1.51947 -8.68712 0
M  V30 6403 O 1108.88 3.29363 -6.99321 0
M  V30 6404 C 1107.94 4.24011 -6.4274 0
M  V30 6405 C 1108.67 5.20775 -5.52155 0
M  V30 6406 O 1108.88 4.56534 -4.22446 0
M  V30 6407 C 1110.07 5.62629 -5.96531 0
M  V30 6408 O 1110.46 6.87667 -5.41053 0
M  V30 6409 C 1110.95 4.52537 -5.39283 0
M  V30 6410 C 1110.24 4.20027 -4.08623 0
M  V30 6411 N 1110.29 2.76189 -3.71603 0
M  V30 6412 H 1107.45 4.797 -7.24003 0
M  V30 6413 H 1107.18 3.69856 -5.84513 0
M  V30 6414 H 1108.05 6.10356 -5.41441 0
M  V30 6415 P 1112.01 7.20834 -5.23717 0
M  V30 6416 O 1112.23 8.66104 -5.38572 0
M  V30 6417 O 1112.8 6.33544 -6.1349 0
M  V30 6418 O 1112.26 6.7751 -3.72168 0
M  V30 6419 C 1111.32 7.20825 -2.7076 0
M  V30 6420 C 1112.05 7.45864 -1.40599 0
M  V30 6421 O 1112.26 6.17651 -0.734225 0
M  V30 6422 C 1113.45 8.05808 -1.51899 0
M  V30 6423 O 1113.84 8.74358 -0.335205 0
M  V30 6424 C 1114.33 6.83093 -1.70294 0
M  V30 6425 C 1113.62 5.79992 -0.836974 0
M  V30 6426 N 1113.67 4.41864 -1.38293 0
M  V30 6427 H 1110.83 8.13644 -3.0377 0
M  V30 6428 H 1110.56 6.42788 -2.55485 0
M  V30 6429 H 1111.43 8.12039 -0.792769 0
M  V30 6430 P 1115.39 8.91 8.60137e-12 0
M  V30 6431 O 1115.61 10.1726 0.733694 0
M  V30 6432 O 1116.18 8.73148 -1.23936 0
M  V30 6433 O 1115.64 7.66872 0.971405 0
M  V30 6434 C 1114.7 7.42309 2.04641 0
M  V30 6435 C 1115.43 6.86059 3.24661 0
M  V30 6436 O 1115.64 5.42847 3.03646 0
M  V30 6437 C 1116.83 7.41196 3.50753 0
M  V30 6438 O 1117.22 7.27073 4.86816 0
M  V30 6439 C 1117.71 6.5273 2.63741 0
M  V30 6440 C 1117 5.1842 2.73198 0
M  V30 6441 N 1117.05 4.38762 1.4784 0
M  V30 6442 H 1114.21 8.36803 2.32493 0
M  V30 6443 H 1113.94 6.70197 1.71129 0
M  V30 6444 H 1114.81 7.03551 4.13168 0
M  V30 6445 P 1118.77 7.20834 5.23717 0
M  V30 6446 O 1118.99 7.79853 6.57286 0
M  V30 6447 O 1119.56 7.79239 4.12957 0
M  V30 6448 O 1119.02 5.63315 5.29344 0
M  V30 6449 C 1118.08 4.80255 6.01876 0
M  V30 6450 C 1118.81 3.64202 6.65911 0
M  V30 6451 O 1119.02 2.60694 5.64732 0
M  V30 6452 C 1120.21 3.93473 7.1943 0
M  V30 6453 O 1120.6 3.02071 8.21205 0
M  V30 6454 C 1121.09 3.73047 5.97036 0
M  V30 6455 C 1120.38 2.58828 5.25741 0
M  V30 6456 N 1120.43 2.68068 3.77503 0
M  V30 6457 C 1120.35 3.79715 2.96723 0
M  V30 6458 N 1120.43 3.5377 1.68852 0
M  V30 6459 C 1120.57 2.15054 1.63254 0
M  V30 6460 C 1120.7 1.28964 0.518571 0
M  V30 6461 O 1120.72 1.56826 -0.679156 0
M  V30 6462 N 1120.82 -0.0538097 0.918425 0
M  V30 6463 C 1120.82 -0.494275 2.22578 0
M  V30 6464 N 1120.95 -1.81086 2.40434 0
M  V30 6465 N 1120.69 0.313645 3.27502 0
M  V30 6466 C 1120.57 1.61829 2.91033 0
M  V30 6467 H 1117.59 5.40332 6.79951 0
M  V30 6468 H 1117.32 4.41613 5.32378 0
M  V30 6469 H 1118.19 3.26331 7.47797 0
M  V30 6470 H 1120.85 1.63422 5.56814 0
M  V30 6471 H 1121.13 4.63374 5.34244 0
M  V30 6472 H 1122.12 3.44728 6.25838 0
M  V30 6473 H 1120.28 4.96652 7.57263 0
M  V30 6474 H 1120.23 4.80617 3.3614 0
M  V30 6475 H 1120.92 -0.742702 0.199384 0
M  V30 6476 H 1120.95 -2.20598 3.35588 0
M  V30 6477 H 1121.05 -2.43518 1.58945 0
M  V30 6478 P 1122.15 2.75334 8.47391 0
M  V30 6479 O 1122.37 2.44619 9.90336 0
M  V30 6480 O 1122.94 3.87776 7.92294 0
M  V30 6481 O 1122.4 1.4459 7.59357 0
M  V30 6482 C 1121.46 0.347653 7.69315 0
M  V30 6483 C 1122.19 -0.96767 7.52806 0
M  V30 6484 O 1122.4 -1.21055 6.10208 0
M  V30 6485 C 1123.59 -1.04557 8.13408 0
M  V30 6486 O 1123.98 -2.38311 8.41922 0
M  V30 6487 C 1124.47 -0.491279 7.02284 0
M  V30 6488 C 1123.76 -0.996264 5.77469 0
M  V30 6489 N 1123.81 -0.0501916 4.62973 0
M  V30 6490 C 1123.73 1.31969 4.65661 0
M  V30 6491 N 1123.8 1.86649 3.48119 0
M  V30 6492 C 1123.95 0.792089 2.62406 0
M  V30 6493 C 1124.08 0.705684 1.2207 0
M  V30 6494 N 1124.09 1.76207 0.413762 0
M  V30 6495 N 1124.2 -0.518981 0.685754 0
M  V30 6496 C 1124.19 -1.57595 1.49174 0
M  V30 6497 N 1124.07 -1.62909 2.80066 0
M  V30 6498 C 1123.95 -0.388195 3.3073 0
M  V30 6499 H 1120.98 0.374765 8.67791 0
M  V30 6500 H 1120.7 0.443613 6.90476 0
M  V30 6501 H 1121.57 -1.75559 7.96891 0
M  V30 6502 H 1124.23 -1.94563 5.46818 0
M  V30 6503 H 1124.51 0.608651 7.04676 0
M  V30 6504 H 1125.5 -0.889796 7.09039 0
M  V30 6505 H 1123.66 -0.433128 9.04664 0
M  V30 6506 H 1123.62 1.89246 5.57664 0
M  V30 6507 H 1124 2.71005 0.804694 0
M  V30 6508 H 1124.19 1.63189 -0.603768 0
M  V30 6509 H 1124.3 -2.53475 0.997614 0
M  V30 6510 P 1125.53 -2.75334 8.47391 0
M  V30 6511 O 1125.75 -3.84128 9.44797 0
M  V30 6512 O 1126.32 -1.51947 8.68712 0
M  V30 6513 O 1125.78 -3.29363 6.99321 0
M  V30 6514 C 1124.84 -4.24011 6.4274 0
M  V30 6515 C 1125.57 -5.20775 5.52155 0
M  V30 6516 O 1125.78 -4.56534 4.22446 0
M  V30 6517 C 1126.97 -5.62629 5.96531 0
M  V30 6518 O 1127.36 -6.87667 5.41053 0
M  V30 6519 C 1127.85 -4.52537 5.39283 0
M  V30 6520 C 1127.14 -4.20027 4.08623 0
M  V30 6521 N 1127.19 -2.76189 3.71603 0
M  V30 6522 H 1124.35 -4.797 7.24003 0
M  V30 6523 H 1124.08 -3.69856 5.84513 0
M  V30 6524 H 1124.95 -6.10356 5.41441 0
M  V30 6525 P 1128.91 -7.20834 5.23717 0
M  V30 6526 O 1129.13 -8.66189 5.38625 0
M  V30 6527 O 1129.7 -6.33615 6.1356 0
M  V30 6528 O 1129.16 -6.7751 3.72168 0
M  V30 6529 C 1128.22 -7.20732 2.70725 0
M  V30 6530 C 1128.95 -7.45864 1.40599 0
M  V30 6531 O 1129.16 -6.17651 0.734225 0
M  V30 6532 C 1130.35 -8.05808 1.51899 0
M  V30 6533 O 1130.74 -8.74358 0.335205 0
M  V30 6534 C 1131.23 -6.83093 1.70294 0
M  V30 6535 C 1130.52 -5.79992 0.836974 0
M  V30 6536 N 1130.57 -4.41769 1.38263 0
M  V30 6537 C 1130.72 -3.38591 0.481702 0
M  V30 6538 O 1130.81 -3.56839 -0.718452 0
M  V30 6539 N 1130.76 -2.1206 1.03569 0
M  V30 6540 C 1130.67 -1.80696 2.36966 0
M  V30 6541 C 1130.52 -2.94845 3.23898 0
M  V30 6542 C 1130.47 -4.19803 2.73435 0
M  V30 6543 H 1127.73 -8.13644 3.0377 0
M  V30 6544 H 1127.46 -6.42695 2.55448 0
M  V30 6545 H 1128.33 -8.12039 0.792769 0
M  V30 6546 H 1130.99 -5.79978 -0.160587 0
M  V30 6547 H 1131.27 -6.51379 2.75643 0
M  V30 6548 H 1132.26 -7.01734 1.34462 0
M  V30 6549 H 1130.42 -8.73674 2.38337 0
M  V30 6550 H 1130.35 -5.04492 3.4095 0
M  V30 6551 P 1132.29 -8.91 -8.75855e-12 0
M  V30 6552 O 1132.51 -10.1726 -0.733694 0
M  V30 6553 O 1133.08 -8.73148 1.23936 0
M  V30 6554 O 1132.54 -7.66872 -0.971405 0
M  V30 6555 C 1131.6 -7.42309 -2.04641 0
M  V30 6556 C 1132.33 -6.86059 -3.24661 0
M  V30 6557 O 1132.54 -5.42847 -3.03646 0
M  V30 6558 C 1133.73 -7.41196 -3.50753 0
M  V30 6559 O 1134.12 -7.27073 -4.86816 0
M  V30 6560 C 1134.61 -6.5273 -2.63741 0
M  V30 6561 C 1133.9 -5.1842 -2.73198 0
M  V30 6562 N 1133.95 -4.38762 -1.4784 0
M  V30 6563 H 1131.11 -8.36803 -2.32493 0
M  V30 6564 H 1130.84 -6.70197 -1.71129 0
M  V30 6565 H 1131.71 -7.03551 -4.13168 0
M  V30 6566 P 1135.67 -7.20834 -5.23717 0
M  V30 6567 O 1135.89 -7.79853 -6.57286 0
M  V30 6568 O 1136.46 -7.79239 -4.12957 0
M  V30 6569 O 1135.92 -5.63315 -5.29344 0
M  V30 6570 C 1134.98 -4.80255 -6.01876 0
M  V30 6571 C 1135.71 -3.64202 -6.65911 0
M  V30 6572 O 1135.92 -2.60694 -5.64732 0
M  V30 6573 C 1137.11 -3.93473 -7.1943 0
M  V30 6574 O 1137.5 -3.02071 -8.21205 0
M  V30 6575 C 1137.99 -3.73047 -5.97036 0
M  V30 6576 C 1137.28 -2.58828 -5.25741 0
M  V30 6577 N 1137.33 -2.68068 -3.77503 0
M  V30 6578 H 1134.49 -5.40332 -6.79951 0
M  V30 6579 H 1134.22 -4.41613 -5.32378 0
M  V30 6580 H 1135.09 -3.26331 -7.47797 0
M  V30 6581 P 1139.05 -2.75334 -8.47391 0
M  V30 6582 O 1139.27 -2.44595 -9.90239 0
M  V30 6583 O 1139.84 -3.87732 -7.92204 0
M  V30 6584 O 1139.3 -1.4459 -7.59357 0
M  V30 6585 C 1138.36 -0.347563 -7.69115 0
M  V30 6586 C 1139.09 0.96767 -7.52806 0
M  V30 6587 O 1139.3 1.21036 -6.1011 0
M  V30 6588 C 1140.49 1.04544 -8.13308 0
M  V30 6589 O 1140.88 2.38311 -8.41922 0
M  V30 6590 C 1141.37 0.491279 -7.02284 0
M  V30 6591 C 1140.66 0.996264 -5.77469 0
M  V30 6592 N 1140.71 0.0501808 -4.62873 0
M  V30 6593 C 1140.86 0.588177 -3.36904 0
M  V30 6594 O 1140.95 1.78598 -3.17173 0
M  V30 6595 N 1140.9 -0.329694 -2.33686 0
M  V30 6596 C 1140.81 -1.6953 -2.45079 0
M  V30 6597 O 1140.86 -2.41926 -1.44899 0
M  V30 6598 C 1140.66 -2.16933 -3.80505 0
M  V30 6599 C 1140.55 -3.65373 -3.97621 0
M  V30 6600 C 1140.61 -1.30326 -4.83752 0
M  V30 6601 H 1137.87 -0.374722 -8.67691 0
M  V30 6602 H 1137.6 -0.443421 -6.90177 0
M  V30 6603 H 1138.47 1.75537 -7.96793 0
M  V30 6604 H 1141.13 1.94496 -5.46629 0
M  V30 6605 H 1141.41 -0.608651 -7.04676 0
M  V30 6606 H 1142.4 0.889672 -7.08939 0
M  V30 6607 H 1140.56 0.43308 -9.04564 0
M  V30 6608 H 1140.49 -1.68366 -5.8516 0
M  V30 6609 H 1141.52 -4.05985 -4.30448 0
M  V30 6610 H 1139.79 -3.88028 -4.72875 0
M  V30 6611 H 1140.27 -4.11381 -3.01609 0
M  V30 6612 H 1141.01 0.0393617 -1.41345 0
M  V30 6613 P 1142.43 2.75334 -8.47391 0
M  V30 6614 O 1142.65 3.84128 -9.44797 0
M  V30 6615 O 1143.22 1.51947 -8.68712 0
M  V30 6616 O 1142.68 3.29363 -6.99321 0
M  V30 6617 C 1141.74 4.24011 -6.4274 0
M  V30 6618 C 1142.47 5.20775 -5.52155 0
M  V30 6619 O 1142.68 4.56534 -4.22446 0
M  V30 6620 C 1143.87 5.62629 -5.96531 0
M  V30 6621 O 1144.26 6.87667 -5.41053 0
M  V30 6622 C 1144.75 4.52537 -5.39283 0
M  V30 6623 C 1144.04 4.20027 -4.08623 0
M  V30 6624 N 1144.09 2.76189 -3.71603 0
M  V30 6625 H 1141.25 4.797 -7.24003 0
M  V30 6626 H 1140.98 3.69856 -5.84513 0
M  V30 6627 H 1141.85 6.10356 -5.41441 0
M  V30 6628 P 1145.81 7.20834 -5.23717 0
M  V30 6629 O 1146.03 8.66104 -5.38572 0
M  V30 6630 O 1146.6 6.33544 -6.1349 0
M  V30 6631 O 1146.06 6.7751 -3.72168 0
M  V30 6632 C 1145.12 7.20825 -2.7076 0
M  V30 6633 C 1145.85 7.45864 -1.40599 0
M  V30 6634 O 1146.06 6.17651 -0.734225 0
M  V30 6635 C 1147.25 8.05808 -1.51899 0
M  V30 6636 O 1147.64 8.74358 -0.335205 0
M  V30 6637 C 1148.13 6.83093 -1.70294 0
M  V30 6638 C 1147.42 5.79992 -0.836974 0
M  V30 6639 N 1147.47 4.41864 -1.38293 0
M  V30 6640 H 1144.63 8.13644 -3.0377 0
M  V30 6641 H 1144.36 6.42788 -2.55485 0
M  V30 6642 H 1145.23 8.12039 -0.792769 0
M  V30 6643 P 1149.19 8.91 8.91573e-12 0
M  V30 6644 O 1149.41 10.1726 0.733694 0
M  V30 6645 O 1149.98 8.73148 -1.23936 0
M  V30 6646 O 1149.44 7.66872 0.971405 0
M  V30 6647 C 1148.5 7.42309 2.04641 0
M  V30 6648 C 1149.23 6.86059 3.24661 0
M  V30 6649 O 1149.44 5.42847 3.03646 0
M  V30 6650 C 1150.63 7.41196 3.50753 0
M  V30 6651 O 1151.02 7.27073 4.86816 0
M  V30 6652 C 1151.51 6.5273 2.63741 0
M  V30 6653 C 1150.8 5.1842 2.73198 0
M  V30 6654 N 1150.85 4.38762 1.4784 0
M  V30 6655 C 1150.77 4.81605 0.168631 0
M  V30 6656 N 1150.85 3.85454 -0.713363 0
M  V30 6657 C 1150.99 2.6994 0.0566958 0
M  V30 6658 C 1151.12 1.34815 -0.338502 0
M  V30 6659 N 1151.24 0.496304 0.77465 0
M  V30 6660 C 1151.24 0.908403 2.09122 0
M  V30 6661 N 1151.37 -0.0517805 3.00955 0
M  V30 6662 N 1151.11 2.17875 2.46519 0
M  V30 6663 C 1150.99 3.01988 1.4033 0
M  V30 6664 H 1148.01 8.36803 2.32493 0
M  V30 6665 H 1147.74 6.70197 1.71129 0
M  V30 6666 H 1148.61 7.03551 4.13168 0
M  V30 6667 H 1150.89 6.36132 5.14416 0
M  V30 6668 H 1154.91 -9.0732 -2.85239 0
M  V30 6669 O 1154.79 -8.67639 -2.00036 0
M  V30 6670 P 1153.35 -8.7635 -1.60911 0
M  V30 6671 O 1153.13 -10.1388 -1.11561 0
M  V30 6672 O 1152.56 -8.36503 -2.79617 0
M  V30 6673 O 1153.1 -7.71806 -0.42951 0
M  V30 6674 C 1154.04 -7.66948 0.673514 0
M  V30 6675 C 1153.31 -7.33374 1.95559 0
M  V30 6676 O 1153.1 -5.88721 2.00726 0
M  V30 6677 C 1151.91 -7.92218 2.1125 0
M  V30 6678 O 1151.52 -8.02971 3.47653 0
M  V30 6679 C 1151.03 -6.89504 1.41631 0
M  V30 6680 C 1151.74 -5.59106 1.75155 0
M  V30 6681 N 1151.69 -4.58136 0.662409 0
M  V30 6682 C 1151.54 -3.26059 1.02863 0
M  V30 6683 O 1151.45 -2.90743 2.19009 0
M  V30 6684 N 1151.5 -2.35995 -0.0155585 0
M  V30 6685 C 1151.59 -2.65248 -1.35603 0
M  V30 6686 C 1151.74 -4.05747 -1.64698 0
M  V30 6687 C 1151.79 -4.96734 -0.652411 0
M  V30 6688 H 1154.53 -8.64917 0.776982 0
M  V30 6689 H 1154.8 -6.89974 0.474015 0
M  V30 6690 H 1153.94 -7.66548 2.79458 0
M  V30 6691 H 1151.28 -5.16076 2.65138 0
M  V30 6692 H 1151 -7.06433 0.329384 0
M  V30 6693 H 1150.01 -6.90829 1.81996 0
M  V30 6694 H 1151.84 -8.90774 1.62639 0
M  V30 6695 H 1151.92 -6.02181 -0.895285 0
M  V30 6696 P 1149.97 -8.03563 3.84925 0
M  V30 6697 O 1149.75 -8.85821 5.0569 0
M  V30 6698 O 1149.18 -8.41101 2.65469 0
M  V30 6699 O 1149.72 -6.4965 4.18908 0
M  V30 6700 C 1150.66 -5.81037 5.05421 0
M  V30 6701 C 1149.93 -4.78366 5.89277 0
M  V30 6702 O 1149.72 -3.58302 5.08433 0
M  V30 6703 C 1148.53 -5.17448 6.36119 0
M  V30 6704 O 1148.14 -4.45271 7.53232 0
M  V30 6705 C 1147.65 -4.74639 5.19936 0
M  V30 6706 C 1148.36 -3.49432 4.70418 0
M  V30 6707 N 1148.31 -3.32099 3.22613 0
M  V30 6708 H 1151.15 -6.54213 5.71376 0
M  V30 6709 H 1151.42 -5.30936 4.43503 0
M  V30 6710 H 1150.56 -4.55889 6.76652 0
M  V30 6711 H 1147.9 -2.61715 5.17932 0
M  V30 6712 H 1147.62 -5.52155 4.41878 0
M  V30 6713 H 1146.63 -4.51981 5.53374 0
M  V30 6714 H 1148.46 -6.25124 6.55234 0
M  V30 6715 P 1146.59 -4.23843 7.83734 0
M  V30 6716 O 1146.37 -4.19407 9.29784 0
M  V30 6717 O 1145.8 -5.24426 7.09156 0
M  V30 6718 O 1146.34 -2.7935 7.20758 0
M  V30 6719 C 1147.28 -1.7299 7.50419 0
M  V30 6720 C 1146.55 -0.406376 7.57911 0
M  V30 6721 O 1146.34 0.0897726 6.21935 0
M  V30 6722 C 1145.15 -0.447224 8.1878 0
M  V30 6723 O 1144.76 0.825065 8.71101 0
M  V30 6724 C 1144.27 -0.783801 6.99623 0
M  V30 6725 C 1144.98 -0.0619192 5.85967 0
M  V30 6726 N 1144.93 -0.7859 4.56281 0
M  V30 6727 H 1147.77 -1.93423 8.4679 0
M  V30 6728 H 1148.04 -1.68181 6.71046 0
M  V30 6729 H 1147.18 0.289041 8.15388 0
M  V30 6730 P 1143.21 1.17771 8.83182 0
M  V30 6731 O 1142.99 2.07206 9.98732 0
M  V30 6732 O 1142.42 -0.0743816 8.81969 0
M  V30 6733 O 1142.96 1.97652 7.47304 0
M  V30 6734 C 1143.9 3.01133 7.08783 0
M  V30 6735 C 1143.17 4.12613 6.37049 0
M  V30 6736 O 1142.96 3.72827 4.97879 0
M  V30 6737 C 1141.77 4.45085 6.88694 0
M  V30 6738 O 1141.38 5.7877 6.5624 0
M  V30 6739 C 1140.89 3.47817 6.12078 0
M  V30 6740 C 1141.6 3.39414 4.77697 0
M  V30 6741 N 1141.55 2.04199 4.15538 0
M  V30 6742 C 1141.63 0.821545 4.76977 0
M  V30 6743 N 1141.56 -0.1794 3.94592 0
M  V30 6744 C 1141.41 0.419121 2.70776 0
M  V30 6745 C 1141.28 -0.109072 1.40577 0
M  V30 6746 N 1141.27 -1.4104 1.1344 0
M  V30 6747 N 1141.16 0.764381 0.39411 0
M  V30 6748 C 1141.17 2.06587 0.664135 0
M  V30 6749 N 1141.29 2.67948 1.82153 0
M  V30 6750 C 1141.41 1.77942 2.8147 0
M  V30 6751 H 1144.39 3.41248 7.98759 0
M  V30 6752 H 1144.66 2.57728 6.42 0
M  V30 6753 H 1143.8 5.02657 6.42673 0
M  V30 6754 H 1141.14 4.11708 4.08956 0
M  V30 6755 H 1140.86 2.49626 6.61679 0
M  V30 6756 H 1139.87 3.8662 6.00862 0
M  V30 6757 H 1141.7 4.29991 7.97006 0
M  V30 6758 H 1141.75 0.702451 5.84696 0
M  V30 6759 H 1141.36 -2.09647 1.89651 0
M  V30 6760 H 1141.18 -1.73358 0.160575 0
M  V30 6761 H 1141.07 2.71695 -0.195838 0
M  V30 6762 P 1139.83 6.144 6.45285 0
M  V30 6763 O 1139.61 7.54673 6.86199 0
M  V30 6764 O 1139.04 5.12391 7.179 0
M  V30 6765 O 1139.58 5.99158 4.88404 0
M  V30 6766 C 1140.52 6.60234 3.96415 0
M  V30 6767 C 1139.79 7.08259 2.72856 0
M  V30 6768 O 1139.58 5.9427 1.83651 0
M  V30 6769 C 1138.39 7.64886 2.9555 0
M  V30 6770 O 1138 8.53963 1.90717 0
M  V30 6771 C 1137.51 6.4116 2.90739 0
M  V30 6772 C 1138.22 5.55375 1.86963 0
M  V30 6773 N 1138.17 4.09664 2.15742 0
M  V30 6774 H 1141.01 7.45574 4.45629 0
M  V30 6775 H 1141.28 5.86232 3.67314 0
M  V30 6776 H 1140.42 7.84412 2.24479 0
M  V30 6777 P 1136.45 8.7635 1.60911 0
M  V30 6778 O 1136.23 10.1388 1.11561 0
M  V30 6779 O 1135.66 8.36503 2.79617 0
M  V30 6780 O 1136.2 7.71806 0.42951 0
M  V30 6781 C 1137.14 7.67148 -0.673689 0
M  V30 6782 C 1136.41 7.33374 -1.95559 0
M  V30 6783 O 1136.2 5.88721 -2.00726 0
M  V30 6784 C 1135.01 7.92526 -2.10483 0
M  V30 6785 O 1134.62 8.02971 -3.47653 0
M  V30 6786 C 1134.13 6.89602 -1.41652 0
M  V30 6787 C 1134.84 5.59201 -1.75185 0
M  V30 6788 N 1134.79 4.58235 -0.662552 0
M  V30 6789 H 1137.63 8.65116 -0.777161 0
M  V30 6790 H 1137.9 6.90173 -0.474152 0
M  V30 6791 H 1137.04 7.66548 -2.79458 0
M  V30 6792 P 1133.07 8.03563 -3.84925 0
M  V30 6793 O 1132.85 8.85821 -5.0569 0
M  V30 6794 O 1132.28 8.41101 -2.65469 0
M  V30 6795 O 1132.82 6.4965 -4.18908 0
M  V30 6796 C 1133.76 5.81037 -5.05421 0
M  V30 6797 C 1133.03 4.78366 -5.89277 0
M  V30 6798 O 1132.82 3.58302 -5.08433 0
M  V30 6799 C 1131.63 5.17448 -6.36119 0
M  V30 6800 O 1131.24 4.45271 -7.53232 0
M  V30 6801 C 1130.75 4.74639 -5.19936 0
M  V30 6802 C 1131.46 3.49432 -4.70418 0
M  V30 6803 N 1131.41 3.31776 -3.22945 0
M  V30 6804 C 1131.49 4.27147 -2.23315 0
M  V30 6805 N 1131.41 3.78447 -1.02186 0
M  V30 6806 C 1131.27 2.41001 -1.21732 0
M  V30 6807 C 1131.14 1.36111 -0.27694 0
M  V30 6808 N 1131.02 0.113683 -0.912949 0
M  V30 6809 C 1131.02 -0.0846396 -2.27943 0
M  V30 6810 N 1130.89 -1.34737 -2.6916 0
M  V30 6811 N 1131.15 0.902521 -3.16379 0
M  V30 6812 C 1131.27 2.11937 -2.56849 0
M  V30 6813 H 1134.25 6.54213 -5.71376 0
M  V30 6814 H 1134.52 5.30492 -4.44033 0
M  V30 6815 H 1133.66 4.55889 -6.76652 0
M  V30 6816 P 1129.69 4.23843 -7.83734 0
M  V30 6817 O 1129.47 4.19407 -9.29784 0
M  V30 6818 O 1128.9 5.24426 -7.09156 0
M  V30 6819 O 1129.44 2.7935 -7.20758 0
M  V30 6820 C 1130.38 1.7299 -7.50419 0
M  V30 6821 C 1129.65 0.406376 -7.57911 0
M  V30 6822 O 1129.44 -0.0897726 -6.21935 0
M  V30 6823 C 1128.25 0.447224 -8.1878 0
M  V30 6824 O 1127.86 -0.825065 -8.71101 0
M  V30 6825 C 1127.37 0.783801 -6.99623 0
M  V30 6826 C 1128.08 0.0619192 -5.85967 0
M  V30 6827 N 1128.03 0.7859 -4.56281 0
M  V30 6828 H 1130.87 1.93423 -8.4679 0
M  V30 6829 H 1131.14 1.68181 -6.71046 0
M  V30 6830 H 1130.28 -0.289041 -8.15388 0
M  V30 6831 P 1126.31 -1.17771 -8.83182 0
M  V30 6832 O 1126.09 -2.07206 -9.98732 0
M  V30 6833 O 1125.52 0.0743816 -8.81969 0
M  V30 6834 O 1126.06 -1.97652 -7.47304 0
M  V30 6835 C 1127 -3.01055 -7.08599 0
M  V30 6836 C 1126.27 -4.12613 -6.37049 0
M  V30 6837 O 1126.06 -3.72827 -4.97879 0
M  V30 6838 C 1124.87 -4.45719 -6.88164 0
M  V30 6839 O 1124.48 -5.7877 -6.5624 0
M  V30 6840 C 1123.99 -3.47768 -6.11991 0
M  V30 6841 C 1124.7 -3.39356 -4.77615 0
M  V30 6842 N 1124.65 -2.04571 -4.15244 0
M  V30 6843 C 1124.5 -1.98587 -2.78314 0
M  V30 6844 O 1124.41 -2.98134 -2.08835 0
M  V30 6845 N 1124.46 -0.714467 -2.24925 0
M  V30 6846 C 1124.55 0.470001 -2.94169 0
M  V30 6847 O 1124.5 1.55587 -2.35195 0
M  V30 6848 C 1124.7 0.312541 -4.36783 0
M  V30 6849 C 1124.81 1.57711 -5.16352 0
M  V30 6850 C 1124.75 -0.914512 -4.92583 0
M  V30 6851 H 1127.49 -3.41169 -7.98575 0
M  V30 6852 H 1127.76 -2.58295 -6.41556 0
M  V30 6853 H 1126.9 -5.02657 -6.42673 0
M  V30 6854 H 1124.24 -4.11637 -4.08885 0
M  V30 6855 H 1123.96 -2.49626 -6.61679 0
M  V30 6856 H 1122.97 -3.86566 -6.00778 0
M  V30 6857 H 1124.8 -4.29943 -7.96918 0
M  V30 6858 H 1124.88 -1.00937 -6.00374 0
M  V30 6859 H 1123.85 1.80153 -5.63503 0
M  V30 6860 H 1125.58 1.4566 -5.94104 0
M  V30 6861 H 1125.09 2.40664 -4.49645 0
M  V30 6862 H 1124.36 -0.647622 -1.25697 0
M  V30 6863 P 1122.93 -6.144 -6.45285 0
M  V30 6864 O 1122.71 -7.54673 -6.86199 0
M  V30 6865 O 1122.14 -5.12391 -7.179 0
M  V30 6866 O 1122.68 -5.99236 -4.88467 0
M  V30 6867 C 1123.62 -6.60234 -3.96415 0
M  V30 6868 C 1122.89 -7.08079 -2.736 0
M  V30 6869 O 1122.68 -5.94365 -1.8368 0
M  V30 6870 C 1121.49 -7.64886 -2.9555 0
M  V30 6871 O 1121.1 -8.5406 -1.90739 0
M  V30 6872 C 1120.61 -6.4116 -2.90739 0
M  V30 6873 C 1121.32 -5.55375 -1.86963 0
M  V30 6874 N 1121.27 -4.09664 -2.15742 0
M  V30 6875 C 1121.12 -3.22231 -1.08477 0
M  V30 6876 O 1121.03 -3.68951 0.0600489 0
M  V30 6877 N 1121.07 -1.76692 -1.48799 0
M  V30 6878 C 1121.17 -1.41695 -2.57602 0
M  V30 6879 N 1121.12 -0.107296 -2.75791 0
M  V30 6880 C 1121.32 -2.29178 -3.69733 0
M  V30 6881 C 1121.37 -3.62753 -3.42653 0
M  V30 6882 H 1124.11 -7.45488 -4.45578 0
M  V30 6883 H 1124.38 -5.86232 -3.67314 0
M  V30 6884 H 1123.52 -7.84508 -2.24507 0
M  V30 6885 H 1120.86 -5.73556 -0.888715 0
M  V30 6886 H 1120.58 -5.9096 -3.88638 0
M  V30 6887 H 1119.59 -6.66053 -2.58894 0
M  V30 6888 H 1121.42 -8.16339 -3.92049 0
M  V30 6889 H 1121.5 -4.33052 -4.24913 0
M  V30 6890 H 1121.39 -1.9103 -4.71577 0
M  V30 6891 H 1121.01 0.521221 -1.95056 0
M  V30 6892 H 1121.2 0.286429 -3.70695 0
M  V30 6893 P 1119.55 -8.7635 -1.60911 0
M  V30 6894 O 1119.33 -10.1388 -1.11561 0
M  V30 6895 O 1118.76 -8.36503 -2.79617 0
M  V30 6896 O 1119.3 -7.71806 -0.42951 0
M  V30 6897 C 1120.24 -7.67148 0.673689 0
M  V30 6898 C 1119.51 -7.33374 1.95559 0
M  V30 6899 O 1119.3 -5.88721 2.00726 0
M  V30 6900 C 1118.11 -7.92526 2.10483 0
M  V30 6901 O 1117.72 -8.02971 3.47653 0
M  V30 6902 C 1117.23 -6.89602 1.41652 0
M  V30 6903 C 1117.94 -5.59201 1.75185 0
M  V30 6904 N 1117.89 -4.58235 0.662552 0
M  V30 6905 H 1120.73 -8.65116 0.777161 0
M  V30 6906 H 1121 -6.90173 0.474152 0
M  V30 6907 H 1120.14 -7.66548 2.79458 0
M  V30 6908 P 1116.17 -8.03563 3.84925 0
M  V30 6909 O 1115.95 -8.85821 5.0569 0
M  V30 6910 O 1115.38 -8.41101 2.65469 0
M  V30 6911 O 1115.92 -6.4965 4.18908 0
M  V30 6912 C 1116.86 -5.81037 5.05421 0
M  V30 6913 C 1116.13 -4.78366 5.89277 0
M  V30 6914 O 1115.92 -3.58302 5.08433 0
M  V30 6915 C 1114.73 -5.17448 6.36119 0
M  V30 6916 O 1114.34 -4.45271 7.53232 0
M  V30 6917 C 1113.85 -4.74639 5.19936 0
M  V30 6918 C 1114.56 -3.49432 4.70418 0
M  V30 6919 N 1114.51 -3.31776 3.22945 0
M  V30 6920 H 1117.35 -6.54213 5.71376 0
M  V30 6921 H 1117.62 -5.30492 4.44033 0
M  V30 6922 H 1116.76 -4.55889 6.76652 0
M  V30 6923 P 1112.79 -4.23843 7.83734 0
M  V30 6924 O 1112.57 -4.19407 9.29784 0
M  V30 6925 O 1112 -5.24426 7.09156 0
M  V30 6926 O 1112.54 -2.7935 7.20758 0
M  V30 6927 C 1113.48 -1.7299 7.50419 0
M  V30 6928 C 1112.75 -0.406376 7.57911 0
M  V30 6929 O 1112.54 0.0897726 6.21935 0
M  V30 6930 C 1111.35 -0.447224 8.1878 0
M  V30 6931 O 1110.96 0.825065 8.71101 0
M  V30 6932 C 1110.47 -0.783801 6.99623 0
M  V30 6933 C 1111.18 -0.0619192 5.85967 0
M  V30 6934 N 1111.13 -0.7859 4.56281 0
M  V30 6935 H 1113.97 -1.93423 8.4679 0
M  V30 6936 H 1114.24 -1.68181 6.71046 0
M  V30 6937 H 1113.38 0.289041 8.15388 0
M  V30 6938 P 1109.41 1.17771 8.83182 0
M  V30 6939 O 1109.19 2.07206 9.98732 0
M  V30 6940 O 1108.62 -0.0743816 8.81969 0
M  V30 6941 O 1109.16 1.97652 7.47304 0
M  V30 6942 C 1110.1 3.01055 7.08599 0
M  V30 6943 C 1109.37 4.12613 6.37049 0
M  V30 6944 O 1109.16 3.72827 4.97879 0
M  V30 6945 C 1107.97 4.45719 6.88164 0
M  V30 6946 O 1107.58 5.7877 6.5624 0
M  V30 6947 C 1107.09 3.47768 6.11991 0
M  V30 6948 C 1107.8 3.39356 4.77615 0
M  V30 6949 N 1107.75 2.04571 4.15244 0
M  V30 6950 C 1107.6 1.98587 2.78314 0
M  V30 6951 O 1107.51 2.98134 2.08835 0
M  V30 6952 N 1107.56 0.714467 2.24925 0
M  V30 6953 C 1107.65 -0.470001 2.94169 0
M  V30 6954 C 1107.8 -0.312541 4.36783 0
M  V30 6955 C 1107.85 0.914512 4.92583 0
M  V30 6956 H 1110.59 3.41169 7.98575 0
M  V30 6957 H 1110.86 2.58295 6.41556 0
M  V30 6958 H 1110 5.02657 6.42673 0
M  V30 6959 H 1107.34 4.11637 4.08885 0
M  V30 6960 H 1107.06 2.49626 6.61679 0
M  V30 6961 H 1106.07 3.86566 6.00778 0
M  V30 6962 H 1107.9 4.29943 7.96918 0
M  V30 6963 H 1107.98 1.00937 6.00374 0
M  V30 6964 P 1106.03 6.144 6.45285 0
M  V30 6965 O 1105.81 7.54673 6.86199 0
M  V30 6966 O 1105.24 5.12391 7.179 0
M  V30 6967 O 1105.78 5.99158 4.88404 0
M  V30 6968 C 1106.72 6.60234 3.96415 0
M  V30 6969 C 1105.99 7.08259 2.72856 0
M  V30 6970 O 1105.78 5.9427 1.83651 0
M  V30 6971 C 1104.59 7.64886 2.9555 0
M  V30 6972 O 1104.2 8.53963 1.90717 0
M  V30 6973 C 1103.71 6.4116 2.90739 0
M  V30 6974 C 1104.42 5.55375 1.86963 0
M  V30 6975 N 1104.37 4.09664 2.15742 0
M  V30 6976 H 1107.21 7.45574 4.45629 0
M  V30 6977 H 1107.48 5.86232 3.67314 0
M  V30 6978 H 1106.62 7.84412 2.24479 0
M  V30 6979 P 1102.65 8.7635 1.60911 0
M  V30 6980 O 1102.43 10.1388 1.11561 0
M  V30 6981 O 1101.86 8.36503 2.79617 0
M  V30 6982 O 1102.4 7.71806 0.42951 0
M  V30 6983 C 1103.34 7.66948 -0.673514 0
M  V30 6984 C 1102.61 7.33374 -1.95559 0
M  V30 6985 O 1102.4 5.88721 -2.00726 0
M  V30 6986 C 1101.21 7.92218 -2.1125 0
M  V30 6987 O 1100.82 8.02971 -3.47653 0
M  V30 6988 C 1100.33 6.89504 -1.41631 0
M  V30 6989 C 1101.04 5.59106 -1.75155 0
M  V30 6990 N 1100.99 4.58136 -0.662409 0
M  V30 6991 C 1100.84 3.26059 -1.02863 0
M  V30 6992 O 1100.75 2.90743 -2.19009 0
M  V30 6993 N 1100.8 2.35995 0.0155585 0
M  V30 6994 C 1100.89 2.65248 1.35603 0
M  V30 6995 C 1101.04 4.05747 1.64698 0
M  V30 6996 C 1101.09 4.96734 0.652411 0
M  V30 6997 H 1103.83 8.64917 -0.776982 0
M  V30 6998 H 1104.1 6.89974 -0.474015 0
M  V30 6999 H 1103.24 7.66548 -2.79458 0
M  V30 7000 H 1100.58 5.16076 -2.65138 0
M  V30 7001 H 1100.3 7.06433 -0.329384 0
M  V30 7002 H 1099.31 6.90829 -1.81996 0
M  V30 7003 H 1101.14 8.90774 -1.62639 0
M  V30 7004 H 1101.22 6.02181 0.895285 0
M  V30 7005 P 1099.27 8.03563 -3.84925 0
M  V30 7006 O 1099.05 8.85821 -5.0569 0
M  V30 7007 O 1098.48 8.41101 -2.65469 0
M  V30 7008 O 1099.02 6.4965 -4.18908 0
M  V30 7009 C 1099.96 5.80886 -5.05289 0
M  V30 7010 C 1099.23 4.78366 -5.89277 0
M  V30 7011 O 1099.02 3.58302 -5.08433 0
M  V30 7012 C 1097.83 5.16748 -6.36559 0
M  V30 7013 O 1097.44 4.45271 -7.53232 0
M  V30 7014 C 1096.95 4.74572 -5.19863 0
M  V30 7015 C 1097.66 3.49373 -4.70338 0
M  V30 7016 N 1097.61 3.31704 -3.22876 0
M  V30 7017 C 1097.46 2.03326 -2.74871 0
M  V30 7018 O 1097.37 1.06486 -3.48076 0
M  V30 7019 N 1097.42 1.91838 -1.37456 0
M  V30 7020 C 1097.51 2.94295 -0.462035 0
M  V30 7021 C 1097.66 4.25064 -1.05249 0
M  V30 7022 C 1097.71 4.40214 -2.39192 0
M  V30 7023 H 1100.45 6.54063 -5.71245 0
M  V30 7024 H 1100.72 5.30339 -4.43905 0
M  V30 7025 H 1099.86 4.55889 -6.76652 0
M  V30 7026 H 1097.2 2.6167 -5.17842 0
M  V30 7027 H 1096.92 5.52155 -4.41878 0
M  V30 7028 H 1095.93 4.51918 -5.53297 0
M  V30 7029 H 1097.76 6.25055 -6.55162 0
M  V30 7030 H 1097.84 5.39798 -2.81523 0
M  V30 7031 P 1095.89 4.23843 -7.83734 0
M  V30 7032 O 1095.67 4.19407 -9.29784 0
M  V30 7033 O 1095.1 5.24426 -7.09156 0
M  V30 7034 O 1095.64 2.7935 -7.20758 0
M  V30 7035 C 1096.58 1.72945 -7.50224 0
M  V30 7036 C 1095.85 0.406376 -7.57911 0
M  V30 7037 O 1095.64 -0.0897726 -6.21935 0
M  V30 7038 C 1094.45 0.438983 -8.18724 0
M  V30 7039 O 1094.06 -0.825065 -8.71101 0
M  V30 7040 C 1093.57 0.783689 -6.99524 0
M  V30 7041 C 1094.28 0.0619086 -5.85867 0
M  V30 7042 N 1094.23 0.78573 -4.56183 0
M  V30 7043 C 1094.08 0.0292889 -3.41887 0
M  V30 7044 O 1093.99 -1.18445 -3.4419 0
M  V30 7045 N 1094.04 0.744061 -2.23964 0
M  V30 7046 C 1094.13 2.10932 -2.10362 0
M  V30 7047 C 1094.28 2.8202 -3.34994 0
M  V30 7048 C 1094.33 2.15547 -4.52261 0
M  V30 7049 H 1097.07 1.93379 -8.46595 0
M  V30 7050 H 1097.34 1.68132 -6.70852 0
M  V30 7051 H 1096.48 -0.289041 -8.15388 0
M  V30 7052 H 1093.82 -0.926847 -5.72749 0
M  V30 7053 H 1093.54 1.86973 -6.82036 0
M  V30 7054 H 1092.55 0.403896 -7.13257 0
M  V30 7055 H 1094.38 1.20585 -8.97435 0
M  V30 7056 H 1094.46 2.71231 -5.45042 0
M  V30 7057 P 1092.51 -1.17771 -8.83182 0
M  V30 7058 O 1092.29 -2.07206 -9.98732 0
M  V30 7059 O 1091.72 0.0743816 -8.81969 0
M  V30 7060 O 1092.26 -1.97652 -7.47304 0
M  V30 7061 C 1093.2 -3.01133 -7.08783 0
M  V30 7062 C 1092.47 -4.12613 -6.37049 0
M  V30 7063 O 1092.26 -3.72827 -4.97879 0
M  V30 7064 C 1091.07 -4.45085 -6.88694 0
M  V30 7065 O 1090.68 -5.7877 -6.5624 0
M  V30 7066 C 1090.19 -3.47817 -6.12078 0
M  V30 7067 C 1090.9 -3.39414 -4.77697 0
M  V30 7068 N 1090.85 -2.04615 -4.15333 0
M  V30 7069 H 1093.69 -3.41248 -7.98759 0
M  V30 7070 H 1093.96 -2.5837 -6.41742 0
M  V30 7071 H 1093.1 -5.02657 -6.42673 0
M  V30 7072 P 1089.13 -6.144 -6.45285 0
M  V30 7073 O 1088.91 -7.54673 -6.86199 0
M  V30 7074 O 1088.34 -5.12391 -7.179 0
M  V30 7075 O 1088.88 -5.99158 -4.88404 0
M  V30 7076 C 1089.82 -6.60234 -3.96415 0
M  V30 7077 C 1089.09 -7.08259 -2.72856 0
M  V30 7078 O 1088.88 -5.9427 -1.83651 0
M  V30 7079 C 1087.69 -7.64886 -2.9555 0
M  V30 7080 O 1087.3 -8.53963 -1.90717 0
M  V30 7081 C 1086.81 -6.4116 -2.90739 0
M  V30 7082 C 1087.52 -5.55375 -1.86963 0
M  V30 7083 N 1087.47 -4.09664 -2.15742 0
M  V30 7084 H 1090.31 -7.45574 -4.45629 0
M  V30 7085 H 1090.58 -5.86232 -3.67314 0
M  V30 7086 H 1089.72 -7.84412 -2.24479 0
M  V30 7087 P 1085.75 -8.7635 -1.60911 0
M  V30 7088 O 1085.53 -10.1388 -1.11561 0
M  V30 7089 O 1084.96 -8.36503 -2.79617 0
M  V30 7090 O 1085.5 -7.71806 -0.42951 0
M  V30 7091 C 1086.44 -7.67148 0.673689 0
M  V30 7092 C 1085.71 -7.33374 1.95559 0
M  V30 7093 O 1085.5 -5.88721 2.00726 0
M  V30 7094 C 1084.31 -7.92526 2.10483 0
M  V30 7095 O 1083.92 -8.02971 3.47653 0
M  V30 7096 C 1083.43 -6.89602 1.41652 0
M  V30 7097 C 1084.14 -5.59201 1.75185 0
M  V30 7098 N 1084.09 -4.58235 0.662552 0
M  V30 7099 H 1086.93 -8.65116 0.777161 0
M  V30 7100 H 1087.2 -6.90173 0.474152 0
M  V30 7101 H 1086.34 -7.66548 2.79458 0
M  V30 7102 P 1082.37 -8.03563 3.84925 0
M  V30 7103 O 1082.15 -8.85821 5.0569 0
M  V30 7104 O 1081.58 -8.41101 2.65469 0
M  V30 7105 O 1082.12 -6.4965 4.18908 0
M  V30 7106 C 1083.06 -5.81037 5.05421 0
M  V30 7107 C 1082.33 -4.78366 5.89277 0
M  V30 7108 O 1082.12 -3.58302 5.08433 0
M  V30 7109 C 1080.93 -5.17448 6.36119 0
M  V30 7110 O 1080.54 -4.45271 7.53232 0
M  V30 7111 C 1080.05 -4.74639 5.19936 0
M  V30 7112 C 1080.76 -3.49432 4.70418 0
M  V30 7113 N 1080.71 -3.31776 3.22945 0
M  V30 7114 H 1083.55 -6.54213 5.71376 0
M  V30 7115 H 1083.82 -5.30492 4.44033 0
M  V30 7116 H 1082.96 -4.55889 6.76652 0
M  V30 7117 P 1078.99 -4.23843 7.83734 0
M  V30 7118 O 1078.77 -4.19407 9.29784 0
M  V30 7119 O 1078.2 -5.24426 7.09156 0
M  V30 7120 O 1078.74 -2.79386 7.20852 0
M  V30 7121 C 1079.68 -1.7299 7.50419 0
M  V30 7122 C 1078.95 -0.41401 7.5797 0
M  V30 7123 O 1078.74 0.089787 6.22035 0
M  V30 7124 C 1077.55 -0.447224 8.1878 0
M  V30 7125 O 1077.16 0.825159 8.71201 0
M  V30 7126 C 1076.67 -0.783801 6.99623 0
M  V30 7127 C 1077.38 -0.0619192 5.85967 0
M  V30 7128 N 1077.33 -0.7859 4.56281 0
M  V30 7129 C 1077.18 -0.0359258 3.39981 0
M  V30 7130 O 1077.09 1.19723 3.49038 0
M  V30 7131 N 1077.13 -0.869151 2.14025 0
M  V30 7132 C 1077.23 -2.01207 2.14363 0
M  V30 7133 N 1077.18 -2.58978 0.954287 0
M  V30 7134 C 1077.38 -2.80817 3.32215 0
M  V30 7135 C 1077.43 -2.13785 4.50884 0
M  V30 7136 H 1080.17 -1.93401 8.46693 0
M  V30 7137 H 1080.44 -1.68181 6.71046 0
M  V30 7138 H 1079.58 0.289076 8.15488 0
M  V30 7139 H 1076.92 0.927166 5.72947 0
M  V30 7140 H 1076.64 -1.87 6.82132 0
M  V30 7141 H 1075.65 -0.404009 7.13457 0
M  V30 7142 H 1077.48 -1.20599 8.97534 0
M  V30 7143 H 1077.56 -2.70295 5.43162 0
M  V30 7144 H 1077.45 -3.89465 3.27406 0
M  V30 7145 H 1077.07 -2.01616 0.107046 0
M  V30 7146 H 1077.26 -3.61403 0.873101 0
M  V30 7147 P 1075.61 1.17771 8.83182 0
M  V30 7148 O 1075.39 2.07206 9.98732 0
M  V30 7149 O 1074.82 -0.0743816 8.81969 0
M  V30 7150 O 1075.36 1.97652 7.47304 0
M  V30 7151 C 1076.3 3.01133 7.08783 0
M  V30 7152 C 1075.57 4.12613 6.37049 0
M  V30 7153 O 1075.36 3.72827 4.97879 0
M  V30 7154 C 1074.17 4.45085 6.88694 0
M  V30 7155 O 1073.78 5.7877 6.5624 0
M  V30 7156 C 1073.29 3.47817 6.12078 0
M  V30 7157 C 1074 3.39414 4.77697 0
M  V30 7158 N 1073.95 2.04615 4.15333 0
M  V30 7159 H 1076.79 3.41248 7.98759 0
M  V30 7160 H 1077.06 2.5837 6.41742 0
M  V30 7161 H 1076.2 5.02657 6.42673 0
M  V30 7162 P 1072.23 6.144 6.45285 0
M  V30 7163 O 1072.01 7.54673 6.86199 0
M  V30 7164 O 1071.44 5.12391 7.179 0
M  V30 7165 O 1071.98 5.99236 4.88467 0
M  V30 7166 C 1072.92 6.60234 3.96415 0
M  V30 7167 C 1072.19 7.08079 2.736 0
M  V30 7168 O 1071.98 5.94365 1.8368 0
M  V30 7169 C 1070.79 7.64886 2.9555 0
M  V30 7170 O 1070.4 8.5406 1.90739 0
M  V30 7171 C 1069.91 6.4116 2.90739 0
M  V30 7172 C 1070.62 5.55375 1.86963 0
M  V30 7173 N 1070.57 4.09664 2.15742 0
M  V30 7174 C 1070.42 3.22231 1.08477 0
M  V30 7175 O 1070.33 3.68951 -0.0600489 0
M  V30 7176 N 1070.37 1.76692 1.48799 0
M  V30 7177 C 1070.47 1.41695 2.57602 0
M  V30 7178 N 1070.42 0.107296 2.75791 0
M  V30 7179 C 1070.62 2.29178 3.69733 0
M  V30 7180 C 1070.67 3.62753 3.42653 0
M  V30 7181 H 1073.41 7.45488 4.45578 0
M  V30 7182 H 1073.68 5.86232 3.67314 0
M  V30 7183 H 1072.82 7.84508 2.24507 0
M  V30 7184 H 1070.16 5.73556 0.888715 0
M  V30 7185 H 1069.88 5.9096 3.88638 0
M  V30 7186 H 1068.89 6.66053 2.58894 0
M  V30 7187 H 1070.72 8.16339 3.92049 0
M  V30 7188 H 1070.8 4.33052 4.24913 0
M  V30 7189 H 1070.69 1.9103 4.71577 0
M  V30 7190 H 1070.31 -0.521221 1.95056 0
M  V30 7191 H 1070.5 -0.286429 3.70695 0
M  V30 7192 P 1068.85 8.7635 1.60911 0
M  V30 7193 O 1068.63 10.1388 1.11561 0
M  V30 7194 O 1068.06 8.36503 2.79617 0
M  V30 7195 O 1068.6 7.71806 0.42951 0
M  V30 7196 C 1069.54 7.66948 -0.673514 0
M  V30 7197 C 1068.81 7.33374 -1.95559 0
M  V30 7198 O 1068.6 5.88721 -2.00726 0
M  V30 7199 C 1067.41 7.92218 -2.1125 0
M  V30 7200 O 1067.02 8.02971 -3.47653 0
M  V30 7201 C 1066.53 6.89504 -1.41631 0
M  V30 7202 C 1067.24 5.59106 -1.75155 0
M  V30 7203 N 1067.19 4.58136 -0.662409 0
M  V30 7204 C 1067.04 3.26059 -1.02863 0
M  V30 7205 O 1066.95 2.90743 -2.19009 0
M  V30 7206 N 1067 2.35995 0.0155585 0
M  V30 7207 C 1067.09 2.65248 1.35603 0
M  V30 7208 O 1067.04 1.75605 2.20651 0
M  V30 7209 C 1067.24 4.05747 1.64698 0
M  V30 7210 C 1067.35 4.42345 3.09553 0
M  V30 7211 C 1067.29 4.96734 0.652411 0
M  V30 7212 H 1070.03 8.64917 -0.776982 0
M  V30 7213 H 1070.3 6.89974 -0.474015 0
M  V30 7214 H 1069.44 7.66548 -2.79458 0
M  V30 7215 H 1066.78 5.16076 -2.65138 0
M  V30 7216 H 1066.5 7.06433 -0.329384 0
M  V30 7217 H 1065.51 6.90829 -1.81996 0
M  V30 7218 H 1067.34 8.90774 -1.62639 0
M  V30 7219 H 1067.42 6.02181 0.895285 0
M  V30 7220 H 1066.39 4.80252 3.45468 0
M  V30 7221 H 1068.12 5.20015 3.22119 0
M  V30 7222 H 1067.63 3.53269 3.67833 0
M  V30 7223 H 1066.9 1.39558 -0.227499 0
M  V30 7224 P 1065.47 8.03563 -3.84925 0
M  V30 7225 O 1065.25 8.85821 -5.0569 0
M  V30 7226 O 1064.68 8.41101 -2.65469 0
M  V30 7227 O 1065.22 6.4965 -4.18908 0
M  V30 7228 C 1066.16 5.81037 -5.05421 0
M  V30 7229 C 1065.43 4.78366 -5.89277 0
M  V30 7230 O 1065.22 3.58302 -5.08433 0
M  V30 7231 C 1064.03 5.17448 -6.36119 0
M  V30 7232 O 1063.64 4.45271 -7.53232 0
M  V30 7233 C 1063.15 4.74639 -5.19936 0
M  V30 7234 C 1063.86 3.49432 -4.70418 0
M  V30 7235 N 1063.81 3.31776 -3.22945 0
M  V30 7236 H 1066.65 6.54213 -5.71376 0
M  V30 7237 H 1066.92 5.30492 -4.44033 0
M  V30 7238 H 1066.06 4.55889 -6.76652 0
M  V30 7239 P 1062.09 4.23843 -7.83734 0
M  V30 7240 O 1061.87 4.19407 -9.29784 0
M  V30 7241 O 1061.3 5.24426 -7.09156 0
M  V30 7242 O 1061.84 2.7935 -7.20758 0
M  V30 7243 C 1062.78 1.7299 -7.50419 0
M  V30 7244 C 1062.05 0.406376 -7.57911 0
M  V30 7245 O 1061.84 -0.0897726 -6.21935 0
M  V30 7246 C 1060.65 0.447224 -8.1878 0
M  V30 7247 O 1060.26 -0.825065 -8.71101 0
M  V30 7248 C 1059.77 0.783801 -6.99623 0
M  V30 7249 C 1060.48 0.0619192 -5.85967 0
M  V30 7250 N 1060.43 0.7859 -4.56281 0
M  V30 7251 H 1063.27 1.93423 -8.4679 0
M  V30 7252 H 1063.54 1.68181 -6.71046 0
M  V30 7253 H 1062.68 -0.289041 -8.15388 0
M  V30 7254 P 1058.71 -1.17771 -8.83182 0
M  V30 7255 O 1058.49 -2.07206 -9.98732 0
M  V30 7256 O 1057.92 0.0743816 -8.81969 0
M  V30 7257 O 1058.46 -1.97652 -7.47304 0
M  V30 7258 C 1059.4 -3.01133 -7.08783 0
M  V30 7259 C 1058.67 -4.12613 -6.37049 0
M  V30 7260 O 1058.46 -3.72827 -4.97879 0
M  V30 7261 C 1057.27 -4.45085 -6.88694 0
M  V30 7262 O 1056.88 -5.7877 -6.5624 0
M  V30 7263 C 1056.39 -3.47817 -6.12078 0
M  V30 7264 C 1057.1 -3.39414 -4.77697 0
M  V30 7265 N 1057.05 -2.04615 -4.15333 0
M  V30 7266 H 1059.89 -3.41248 -7.98759 0
M  V30 7267 H 1060.16 -2.5837 -6.41742 0
M  V30 7268 H 1059.3 -5.02657 -6.42673 0
M  V30 7269 P 1055.33 -6.144 -6.45285 0
M  V30 7270 O 1055.11 -7.54673 -6.86199 0
M  V30 7271 O 1054.54 -5.12391 -7.179 0
M  V30 7272 O 1055.08 -5.99158 -4.88404 0
M  V30 7273 C 1056.02 -6.60234 -3.96415 0
M  V30 7274 C 1055.29 -7.08259 -2.72856 0
M  V30 7275 O 1055.08 -5.9427 -1.83651 0
M  V30 7276 C 1053.89 -7.64886 -2.9555 0
M  V30 7277 O 1053.5 -8.53963 -1.90717 0
M  V30 7278 C 1053.01 -6.4116 -2.90739 0
M  V30 7279 C 1053.72 -5.55375 -1.86963 0
M  V30 7280 N 1053.67 -4.09664 -2.15742 0
M  V30 7281 H 1056.51 -7.45574 -4.45629 0
M  V30 7282 H 1056.78 -5.86232 -3.67314 0
M  V30 7283 H 1055.92 -7.84412 -2.24479 0
M  V30 7284 P 1051.95 -8.7635 -1.60911 0
M  V30 7285 O 1051.73 -10.1388 -1.11561 0
M  V30 7286 O 1051.16 -8.36503 -2.79617 0
M  V30 7287 O 1051.7 -7.71806 -0.42951 0
M  V30 7288 C 1052.64 -7.67148 0.673689 0
M  V30 7289 C 1051.91 -7.33374 1.95559 0
M  V30 7290 O 1051.7 -5.88721 2.00726 0
M  V30 7291 C 1050.51 -7.92526 2.10483 0
M  V30 7292 O 1050.12 -8.02971 3.47653 0
M  V30 7293 C 1049.63 -6.89602 1.41652 0
M  V30 7294 C 1050.34 -5.59201 1.75185 0
M  V30 7295 N 1050.29 -4.58235 0.662552 0
M  V30 7296 H 1053.13 -8.65116 0.777161 0
M  V30 7297 H 1053.4 -6.90173 0.474152 0
M  V30 7298 H 1052.54 -7.66548 2.79458 0
M  V30 7299 P 1048.57 -8.03563 3.84925 0
M  V30 7300 O 1048.35 -8.85821 5.0569 0
M  V30 7301 O 1047.78 -8.41101 2.65469 0
M  V30 7302 O 1048.32 -6.4965 4.18908 0
M  V30 7303 C 1049.26 -5.81037 5.05421 0
M  V30 7304 C 1048.53 -4.78366 5.89277 0
M  V30 7305 O 1048.32 -3.58302 5.08433 0
M  V30 7306 C 1047.13 -5.17448 6.36119 0
M  V30 7307 O 1046.74 -4.45271 7.53232 0
M  V30 7308 C 1046.25 -4.74639 5.19936 0
M  V30 7309 C 1046.96 -3.49432 4.70418 0
M  V30 7310 N 1046.91 -3.31776 3.22945 0
M  V30 7311 H 1049.75 -6.54213 5.71376 0
M  V30 7312 H 1050.02 -5.30492 4.44033 0
M  V30 7313 H 1049.16 -4.55889 6.76652 0
M  V30 7314 P 1045.19 -4.23843 7.83734 0
M  V30 7315 O 1044.97 -4.19407 9.29784 0
M  V30 7316 O 1044.4 -5.24426 7.09156 0
M  V30 7317 O 1044.94 -2.7935 7.20758 0
M  V30 7318 C 1045.88 -1.7299 7.50419 0
M  V30 7319 C 1045.15 -0.406376 7.57911 0
M  V30 7320 O 1044.94 0.0897726 6.21935 0
M  V30 7321 C 1043.75 -0.447224 8.1878 0
M  V30 7322 O 1043.36 0.825065 8.71101 0
M  V30 7323 C 1042.87 -0.783801 6.99623 0
M  V30 7324 C 1043.58 -0.0619192 5.85967 0
M  V30 7325 N 1043.53 -0.7859 4.56281 0
M  V30 7326 H 1046.37 -1.93423 8.4679 0
M  V30 7327 H 1046.64 -1.68181 6.71046 0
M  V30 7328 H 1045.78 0.289041 8.15388 0
M  V30 7329 P 1041.81 1.17771 8.83182 0
M  V30 7330 O 1041.59 2.07206 9.98732 0
M  V30 7331 O 1041.02 -0.0743816 8.81969 0
M  V30 7332 O 1041.56 1.97652 7.47304 0
M  V30 7333 C 1042.5 3.01133 7.08783 0
M  V30 7334 C 1041.77 4.12613 6.37049 0
M  V30 7335 O 1041.56 3.72827 4.97879 0
M  V30 7336 C 1040.37 4.45085 6.88694 0
M  V30 7337 O 1039.98 5.7877 6.5624 0
M  V30 7338 C 1039.49 3.47817 6.12078 0
M  V30 7339 C 1040.2 3.39414 4.77697 0
M  V30 7340 N 1040.15 2.04199 4.15538 0
M  V30 7341 H 1042.99 3.41248 7.98759 0
M  V30 7342 H 1043.26 2.57728 6.42 0
M  V30 7343 H 1042.4 5.02657 6.42673 0
M  V30 7344 H 1039.74 4.11708 4.08956 0
M  V30 7345 H 1039.46 2.49626 6.61679 0
M  V30 7346 H 1038.47 3.8662 6.00862 0
M  V30 7347 H 1040.3 4.29991 7.97006 0
M  V30 7348 P 1038.43 6.144 6.45285 0
M  V30 7349 O 1038.21 7.54673 6.86199 0
M  V30 7350 O 1037.64 5.12391 7.179 0
M  V30 7351 O 1038.18 5.99236 4.88467 0
M  V30 7352 C 1039.12 6.60234 3.96415 0
M  V30 7353 C 1038.39 7.08079 2.736 0
M  V30 7354 O 1038.18 5.94365 1.8368 0
M  V30 7355 C 1036.99 7.64886 2.9555 0
M  V30 7356 O 1036.6 8.5406 1.90739 0
M  V30 7357 C 1036.11 6.4116 2.90739 0
M  V30 7358 C 1036.82 5.55375 1.86963 0
M  V30 7359 N 1036.77 4.09664 2.15742 0
M  V30 7360 C 1036.62 3.22231 1.08477 0
M  V30 7361 O 1036.53 3.68951 -0.0600489 0
M  V30 7362 N 1036.57 1.76692 1.48799 0
M  V30 7363 C 1036.67 1.41695 2.57602 0
M  V30 7364 N 1036.62 0.107296 2.75791 0
M  V30 7365 C 1036.82 2.29178 3.69733 0
M  V30 7366 C 1036.87 3.62753 3.42653 0
M  V30 7367 H 1039.61 7.45488 4.45578 0
M  V30 7368 H 1039.88 5.86232 3.67314 0
M  V30 7369 H 1039.02 7.84508 2.24507 0
M  V30 7370 H 1036.36 5.73556 0.888715 0
M  V30 7371 H 1036.08 5.9096 3.88638 0
M  V30 7372 H 1035.09 6.66053 2.58894 0
M  V30 7373 H 1036.92 8.16339 3.92049 0
M  V30 7374 H 1037 4.33052 4.24913 0
M  V30 7375 H 1036.89 1.9103 4.71577 0
M  V30 7376 H 1036.51 -0.521221 1.95056 0
M  V30 7377 H 1036.7 -0.286429 3.70695 0
M  V30 7378 P 1035.05 8.7635 1.60911 0
M  V30 7379 O 1034.83 10.1388 1.11561 0
M  V30 7380 O 1034.26 8.36503 2.79617 0
M  V30 7381 O 1034.8 7.71806 0.42951 0
M  V30 7382 C 1035.74 7.67148 -0.673689 0
M  V30 7383 C 1035.01 7.33374 -1.95559 0
M  V30 7384 O 1034.8 5.88721 -2.00726 0
M  V30 7385 C 1033.61 7.92526 -2.10483 0
M  V30 7386 O 1033.22 8.02971 -3.47653 0
M  V30 7387 C 1032.73 6.89602 -1.41652 0
M  V30 7388 C 1033.44 5.59201 -1.75185 0
M  V30 7389 N 1033.39 4.58301 -0.657969 0
M  V30 7390 H 1036.23 8.65116 -0.777161 0
M  V30 7391 H 1036.5 6.9022 -0.46725 0
M  V30 7392 H 1035.64 7.66548 -2.79458 0
M  V30 7393 H 1032.98 5.16165 -2.65183 0
M  V30 7394 H 1032.7 7.06433 -0.329384 0
M  V30 7395 H 1031.71 6.90926 -1.82021 0
M  V30 7396 H 1033.54 8.90873 -1.62657 0
M  V30 7397 P 1031.67 8.03563 -3.84925 0
M  V30 7398 O 1031.45 8.85821 -5.0569 0
M  V30 7399 O 1030.88 8.41101 -2.65469 0
M  V30 7400 O 1031.42 6.4965 -4.18908 0
M  V30 7401 C 1032.36 5.81037 -5.05421 0
M  V30 7402 C 1031.63 4.78366 -5.89277 0
M  V30 7403 O 1031.42 3.58302 -5.08433 0
M  V30 7404 C 1030.23 5.17448 -6.36119 0
M  V30 7405 O 1029.84 4.45271 -7.53232 0
M  V30 7406 C 1029.35 4.74639 -5.19936 0
M  V30 7407 C 1030.06 3.49432 -4.70418 0
M  V30 7408 N 1030.01 3.31776 -3.22945 0
M  V30 7409 H 1032.85 6.54213 -5.71376 0
M  V30 7410 H 1033.12 5.30492 -4.44033 0
M  V30 7411 H 1032.26 4.55889 -6.76652 0
M  V30 7412 P 1028.29 4.23843 -7.83734 0
M  V30 7413 O 1028.07 4.19407 -9.29784 0
M  V30 7414 O 1027.5 5.24426 -7.09156 0
M  V30 7415 O 1028.04 2.7935 -7.20758 0
M  V30 7416 C 1028.98 1.72945 -7.50224 0
M  V30 7417 C 1028.25 0.406376 -7.57911 0
M  V30 7418 O 1028.04 -0.0897726 -6.21935 0
M  V30 7419 C 1026.85 0.438983 -8.18724 0
M  V30 7420 O 1026.46 -0.825065 -8.71101 0
M  V30 7421 C 1025.97 0.783689 -6.99524 0
M  V30 7422 C 1026.68 0.0619086 -5.85867 0
M  V30 7423 N 1026.63 0.78573 -4.56183 0
M  V30 7424 C 1026.48 0.0292889 -3.41887 0
M  V30 7425 O 1026.39 -1.18445 -3.4419 0
M  V30 7426 N 1026.44 0.744061 -2.23964 0
M  V30 7427 C 1026.53 2.10932 -2.10362 0
M  V30 7428 O 1026.48 2.64117 -0.98825 0
M  V30 7429 C 1026.68 2.8202 -3.34994 0
M  V30 7430 C 1026.79 4.31095 -3.25037 0
M  V30 7431 C 1026.73 2.15547 -4.52261 0
M  V30 7432 H 1029.47 1.93379 -8.46595 0
M  V30 7433 H 1029.74 1.68132 -6.70852 0
M  V30 7434 H 1028.88 -0.289041 -8.15388 0
M  V30 7435 H 1026.22 -0.926847 -5.72749 0
M  V30 7436 H 1025.94 1.86973 -6.82036 0
M  V30 7437 H 1024.95 0.403896 -7.13257 0
M  V30 7438 H 1026.78 1.20585 -8.97435 0
M  V30 7439 H 1026.86 2.71231 -5.45042 0
M  V30 7440 H 1025.83 4.76966 -3.49992 0
M  V30 7441 H 1027.56 4.67047 -3.95024 0
M  V30 7442 H 1027.07 4.58996 -2.22312 0
M  V30 7443 H 1026.34 0.214893 -1.39758 0
M  V30 7444 P 1024.91 -1.17771 -8.83182 0
M  V30 7445 O 1024.69 -2.07206 -9.98732 0
M  V30 7446 O 1024.12 0.0743816 -8.81969 0
M  V30 7447 O 1024.66 -1.97652 -7.47304 0
M  V30 7448 C 1025.6 -3.01133 -7.08783 0
M  V30 7449 C 1024.87 -4.12613 -6.37049 0
M  V30 7450 O 1024.66 -3.72827 -4.97879 0
M  V30 7451 C 1023.47 -4.45085 -6.88694 0
M  V30 7452 O 1023.08 -5.7877 -6.5624 0
M  V30 7453 C 1022.59 -3.47817 -6.12078 0
M  V30 7454 C 1023.3 -3.39414 -4.77697 0
M  V30 7455 N 1023.25 -2.04199 -4.15538 0
M  V30 7456 H 1026.09 -3.41248 -7.98759 0
M  V30 7457 H 1026.36 -2.57728 -6.42 0
M  V30 7458 H 1025.5 -5.02657 -6.42673 0
M  V30 7459 H 1022.84 -4.11708 -4.08956 0
M  V30 7460 H 1022.56 -2.49626 -6.61679 0
M  V30 7461 H 1021.57 -3.8662 -6.00862 0
M  V30 7462 H 1023.4 -4.29991 -7.97006 0
M  V30 7463 P 1021.53 -6.144 -6.45285 0
M  V30 7464 O 1021.31 -7.54673 -6.86199 0
M  V30 7465 O 1020.74 -5.12391 -7.179 0
M  V30 7466 O 1021.28 -5.99158 -4.88404 0
M  V30 7467 C 1022.22 -6.60234 -3.96415 0
M  V30 7468 C 1021.49 -7.08259 -2.72856 0
M  V30 7469 O 1021.28 -5.9427 -1.83651 0
M  V30 7470 C 1020.09 -7.64886 -2.9555 0
M  V30 7471 O 1019.7 -8.53963 -1.90717 0
M  V30 7472 C 1019.21 -6.4116 -2.90739 0
M  V30 7473 C 1019.92 -5.55375 -1.86963 0
M  V30 7474 N 1019.87 -4.09664 -2.15742 0
M  V30 7475 H 1022.71 -7.45574 -4.45629 0
M  V30 7476 H 1022.98 -5.86232 -3.67314 0
M  V30 7477 H 1022.12 -7.84412 -2.24479 0
M  V30 7478 P 1018.15 -8.7635 -1.60911 0
M  V30 7479 O 1017.93 -10.1388 -1.11561 0
M  V30 7480 O 1017.36 -8.36503 -2.79617 0
M  V30 7481 O 1017.9 -7.71806 -0.42951 0
M  V30 7482 C 1018.84 -7.67148 0.673689 0
M  V30 7483 C 1018.11 -7.33374 1.95559 0
M  V30 7484 O 1017.9 -5.88721 2.00726 0
M  V30 7485 C 1016.71 -7.92526 2.10483 0
M  V30 7486 O 1016.32 -8.02971 3.47653 0
M  V30 7487 C 1015.83 -6.89602 1.41652 0
M  V30 7488 C 1016.54 -5.59201 1.75185 0
M  V30 7489 N 1016.49 -4.58235 0.662552 0
M  V30 7490 H 1019.33 -8.65116 0.777161 0
M  V30 7491 H 1019.61 -6.90173 0.474152 0
M  V30 7492 H 1018.74 -7.66548 2.79458 0
M  V30 7493 P 1014.77 -8.03563 3.84925 0
M  V30 7494 O 1014.55 -8.85821 5.0569 0
M  V30 7495 O 1013.98 -8.41101 2.65469 0
M  V30 7496 O 1014.52 -6.4965 4.18908 0
M  V30 7497 C 1015.46 -5.81037 5.05421 0
M  V30 7498 C 1014.73 -4.78366 5.89277 0
M  V30 7499 O 1014.52 -3.58302 5.08433 0
M  V30 7500 C 1013.33 -5.17448 6.36119 0
M  V30 7501 O 1012.94 -4.45271 7.53232 0
M  V30 7502 C 1012.45 -4.74639 5.19936 0
M  V30 7503 C 1013.16 -3.49432 4.70418 0
M  V30 7504 N 1013.11 -3.31776 3.22945 0
M  V30 7505 H 1015.95 -6.54213 5.71376 0
M  V30 7506 H 1016.23 -5.30492 4.44033 0
M  V30 7507 H 1015.36 -4.55889 6.76652 0
M  V30 7508 P 1011.39 -4.23843 7.83734 0
M  V30 7509 O 1011.17 -4.19407 9.29784 0
M  V30 7510 O 1010.6 -5.24426 7.09156 0
M  V30 7511 O 1011.14 -2.7935 7.20758 0
M  V30 7512 C 1012.08 -1.7299 7.50419 0
M  V30 7513 C 1011.35 -0.406376 7.57911 0
M  V30 7514 O 1011.14 0.0897726 6.21935 0
M  V30 7515 C 1009.95 -0.447224 8.1878 0
M  V30 7516 O 1009.56 0.825065 8.71101 0
M  V30 7517 C 1009.07 -0.783801 6.99623 0
M  V30 7518 C 1009.78 -0.0619192 5.85967 0
M  V30 7519 N 1009.73 -0.7859 4.56281 0
M  V30 7520 H 1012.57 -1.93423 8.4679 0
M  V30 7521 H 1012.85 -1.68181 6.71046 0
M  V30 7522 H 1011.98 0.289041 8.15388 0
M  V30 7523 P 1008.01 1.17771 8.83182 0
M  V30 7524 O 1007.79 2.07206 9.98732 0
M  V30 7525 O 1007.22 -0.0743816 8.81969 0
M  V30 7526 O 1007.76 1.97652 7.47304 0
M  V30 7527 C 1008.7 3.01133 7.08783 0
M  V30 7528 C 1007.97 4.12613 6.37049 0
M  V30 7529 O 1007.76 3.72827 4.97879 0
M  V30 7530 C 1006.57 4.45085 6.88694 0
M  V30 7531 O 1006.18 5.7877 6.5624 0
M  V30 7532 C 1005.69 3.47817 6.12078 0
M  V30 7533 C 1006.4 3.39414 4.77697 0
M  V30 7534 N 1006.35 2.04615 4.15333 0
M  V30 7535 H 1009.19 3.41248 7.98759 0
M  V30 7536 H 1009.47 2.5837 6.41742 0
M  V30 7537 H 1008.6 5.02657 6.42673 0
M  V30 7538 P 1004.63 6.144 6.45285 0
M  V30 7539 O 1004.41 7.54673 6.86199 0
M  V30 7540 O 1003.84 5.12391 7.179 0
M  V30 7541 O 1004.38 5.99158 4.88404 0
M  V30 7542 C 1005.32 6.60234 3.96415 0
M  V30 7543 C 1004.59 7.08259 2.72856 0
M  V30 7544 O 1004.38 5.9427 1.83651 0
M  V30 7545 C 1003.19 7.64886 2.9555 0
M  V30 7546 O 1002.8 8.53963 1.90717 0
M  V30 7547 C 1002.31 6.4116 2.90739 0
M  V30 7548 C 1003.02 5.55375 1.86963 0
M  V30 7549 N 1002.97 4.09448 2.16152 0
M  V30 7550 C 1003.05 3.46824 3.37593 0
M  V30 7551 N 1002.98 2.17422 3.29777 0
M  V30 7552 C 1002.83 1.93065 1.94427 0
M  V30 7553 C 1002.7 0.738053 1.20141 0
M  V30 7554 N 1002.69 -0.474256 1.74676 0
M  V30 7555 N 1002.58 0.850049 -0.13045 0
M  V30 7556 C 1002.59 2.06169 -0.676992 0
M  V30 7557 N 1002.71 3.23842 -0.101312 0
M  V30 7558 C 1002.83 3.09402 1.23122 0
M  V30 7559 H 1005.81 7.45574 4.45629 0
M  V30 7560 H 1006.09 5.85864 3.679 0
M  V30 7561 H 1005.22 7.84412 2.24479 0
M  V30 7562 H 1002.56 5.73457 0.888562 0
M  V30 7563 H 1002.28 5.90877 3.88583 0
M  V30 7564 H 1001.29 6.6596 2.58858 0
M  V30 7565 H 1003.13 8.16339 3.92049 0
M  V30 7566 H 1003.17 4.00505 4.3174 0
M  V30 7567 H 1002.79 -0.581337 2.76658 0
M  V30 7568 H 1002.6 -1.30811 1.14888 0
M  V30 7569 H 1002.49 2.08295 -1.75542 0
M  V30 7570 P 1001.25 8.7635 1.60911 0
M  V30 7571 O 1001.03 10.1388 1.11561 0
M  V30 7572 O 1000.46 8.36503 2.79617 0
M  V30 7573 O 1001 7.71806 0.42951 0
M  V30 7574 C 1001.94 7.67148 -0.673689 0
M  V30 7575 C 1001.21 7.33374 -1.95559 0
M  V30 7576 O 1001 5.88721 -2.00726 0
M  V30 7577 C 999.814 7.92526 -2.10483 0
M  V30 7578 O 999.424 8.02971 -3.47653 0
M  V30 7579 C 998.934 6.89602 -1.41652 0
M  V30 7580 C 999.644 5.59201 -1.75185 0
M  V30 7581 N 999.594 4.58235 -0.662552 0
M  V30 7582 H 1002.43 8.65116 -0.777161 0
M  V30 7583 H 1002.71 6.90173 -0.474152 0
M  V30 7584 H 1001.84 7.66548 -2.79458 0
M  V30 7585 P 997.874 8.03563 -3.84925 0
M  V30 7586 O 997.654 8.85821 -5.0569 0
M  V30 7587 O 997.084 8.41101 -2.65469 0
M  V30 7588 O 997.624 6.4965 -4.18908 0
M  V30 7589 C 998.564 5.81037 -5.05421 0
M  V30 7590 C 997.834 4.78366 -5.89277 0
M  V30 7591 O 997.624 3.58302 -5.08433 0
M  V30 7592 C 996.434 5.17448 -6.36119 0
M  V30 7593 O 996.044 4.45271 -7.53232 0
M  V30 7594 C 995.554 4.74639 -5.19936 0
M  V30 7595 C 996.264 3.49432 -4.70418 0
M  V30 7596 N 996.214 3.32099 -3.22613 0
M  V30 7597 H 999.053 6.54213 -5.71376 0
M  V30 7598 H 999.325 5.30936 -4.43503 0
M  V30 7599 H 998.457 4.55889 -6.76652 0
M  V30 7600 H 995.802 2.61715 -5.17932 0
M  V30 7601 H 995.522 5.52155 -4.41878 0
M  V30 7602 H 994.531 4.51981 -5.53374 0
M  V30 7603 H 996.365 6.25124 -6.55234 0
M  V30 7604 P 994.494 4.23843 -7.83734 0
M  V30 7605 O 994.274 4.19407 -9.29784 0
M  V30 7606 O 993.704 5.24426 -7.09156 0
M  V30 7607 O 994.244 2.7935 -7.20758 0
M  V30 7608 C 995.184 1.7299 -7.50419 0
M  V30 7609 C 994.454 0.406376 -7.57911 0
M  V30 7610 O 994.244 -0.0897726 -6.21935 0
M  V30 7611 C 993.054 0.447224 -8.1878 0
M  V30 7612 O 992.664 -0.825065 -8.71101 0
M  V30 7613 C 992.174 0.783801 -6.99623 0
M  V30 7614 C 992.884 0.0619192 -5.85967 0
M  V30 7615 N 992.834 0.7859 -4.56281 0
M  V30 7616 H 995.673 1.93423 -8.4679 0
M  V30 7617 H 995.945 1.68181 -6.71046 0
M  V30 7618 H 995.077 -0.289041 -8.15388 0
M  V30 7619 P 991.114 -1.17771 -8.83182 0
M  V30 7620 O 990.894 -2.07206 -9.98732 0
M  V30 7621 O 990.324 0.0743816 -8.81969 0
M  V30 7622 O 990.864 -1.97652 -7.47304 0
M  V30 7623 C 991.804 -3.01133 -7.08783 0
M  V30 7624 C 991.074 -4.12613 -6.37049 0
M  V30 7625 O 990.864 -3.72827 -4.97879 0
M  V30 7626 C 989.674 -4.45085 -6.88694 0
M  V30 7627 O 989.284 -5.7877 -6.5624 0
M  V30 7628 C 988.794 -3.47817 -6.12078 0
M  V30 7629 C 989.504 -3.39414 -4.77697 0
M  V30 7630 N 989.454 -2.04615 -4.15333 0
M  V30 7631 H 992.293 -3.41248 -7.98759 0
M  V30 7632 H 992.565 -2.5837 -6.41742 0
M  V30 7633 H 991.697 -5.02657 -6.42673 0
M  V30 7634 P 987.734 -6.144 -6.45285 0
M  V30 7635 O 987.514 -7.54673 -6.86199 0
M  V30 7636 O 986.944 -5.12391 -7.179 0
M  V30 7637 O 987.484 -5.99158 -4.88404 0
M  V30 7638 C 988.424 -6.60234 -3.96415 0
M  V30 7639 C 987.694 -7.08259 -2.72856 0
M  V30 7640 O 987.484 -5.9427 -1.83651 0
M  V30 7641 C 986.294 -7.64886 -2.9555 0
M  V30 7642 O 985.904 -8.53963 -1.90717 0
M  V30 7643 C 985.414 -6.4116 -2.90739 0
M  V30 7644 C 986.124 -5.55375 -1.86963 0
M  V30 7645 N 986.074 -4.09664 -2.15742 0
M  V30 7646 H 988.913 -7.45574 -4.45629 0
M  V30 7647 H 989.185 -5.86232 -3.67314 0
M  V30 7648 H 988.317 -7.84412 -2.24479 0
M  V30 7649 P 984.354 -8.7635 -1.60911 0
M  V30 7650 O 984.134 -10.1388 -1.11561 0
M  V30 7651 O 983.564 -8.36503 -2.79617 0
M  V30 7652 O 984.104 -7.71806 -0.42951 0
M  V30 7653 C 985.044 -7.67148 0.673689 0
M  V30 7654 C 984.314 -7.33374 1.95559 0
M  V30 7655 O 984.104 -5.88721 2.00726 0
M  V30 7656 C 982.914 -7.92526 2.10483 0
M  V30 7657 O 982.524 -8.02971 3.47653 0
M  V30 7658 C 982.034 -6.89602 1.41652 0
M  V30 7659 C 982.744 -5.59201 1.75185 0
M  V30 7660 N 982.694 -4.58235 0.662552 0
M  V30 7661 H 985.533 -8.65116 0.777161 0
M  V30 7662 H 985.805 -6.90173 0.474152 0
M  V30 7663 H 984.937 -7.66548 2.79458 0
M  V30 7664 P 980.974 -8.03563 3.84925 0
M  V30 7665 O 980.754 -8.85821 5.0569 0
M  V30 7666 O 980.184 -8.41101 2.65469 0
M  V30 7667 O 980.724 -6.4965 4.18908 0
M  V30 7668 C 981.664 -5.81037 5.05421 0
M  V30 7669 C 980.934 -4.78366 5.89277 0
M  V30 7670 O 980.724 -3.58302 5.08433 0
M  V30 7671 C 979.534 -5.17448 6.36119 0
M  V30 7672 O 979.144 -4.45271 7.53232 0
M  V30 7673 C 978.654 -4.74639 5.19936 0
M  V30 7674 C 979.364 -3.49432 4.70418 0
M  V30 7675 N 979.314 -3.31776 3.22945 0
M  V30 7676 H 982.153 -6.54213 5.71376 0
M  V30 7677 H 982.425 -5.30492 4.44033 0
M  V30 7678 H 981.557 -4.55889 6.76652 0
M  V30 7679 P 977.594 -4.23843 7.83734 0
M  V30 7680 O 977.374 -4.19407 9.29784 0
M  V30 7681 O 976.804 -5.24426 7.09156 0
M  V30 7682 O 977.344 -2.7935 7.20758 0
M  V30 7683 C 978.284 -1.7299 7.50419 0
M  V30 7684 C 977.554 -0.406376 7.57911 0
M  V30 7685 O 977.344 0.0897726 6.21935 0
M  V30 7686 C 976.154 -0.447224 8.1878 0
M  V30 7687 O 975.764 0.825065 8.71101 0
M  V30 7688 C 975.274 -0.783801 6.99623 0
M  V30 7689 C 975.984 -0.0619192 5.85967 0
M  V30 7690 N 975.934 -0.7859 4.56281 0
M  V30 7691 H 978.773 -1.93423 8.4679 0
M  V30 7692 H 979.045 -1.68181 6.71046 0
M  V30 7693 H 978.177 0.289041 8.15388 0
M  V30 7694 P 974.214 1.17771 8.83182 0
M  V30 7695 O 973.994 2.07206 9.98732 0
M  V30 7696 O 973.424 -0.0743816 8.81969 0
M  V30 7697 O 973.964 1.97652 7.47304 0
M  V30 7698 C 974.904 3.01133 7.08783 0
M  V30 7699 C 974.174 4.12613 6.37049 0
M  V30 7700 O 973.964 3.72827 4.97879 0
M  V30 7701 C 972.774 4.45085 6.88694 0
M  V30 7702 O 972.384 5.7877 6.5624 0
M  V30 7703 C 971.894 3.47817 6.12078 0
M  V30 7704 C 972.604 3.39414 4.77697 0
M  V30 7705 N 972.554 2.04615 4.15333 0
M  V30 7706 H 975.393 3.41248 7.98759 0
M  V30 7707 H 975.665 2.5837 6.41742 0
M  V30 7708 H 974.797 5.02657 6.42673 0
M  V30 7709 P 970.834 6.144 6.45285 0
M  V30 7710 O 970.614 7.54673 6.86199 0
M  V30 7711 O 970.044 5.12391 7.179 0
M  V30 7712 O 970.584 5.99158 4.88404 0
M  V30 7713 C 971.524 6.60234 3.96415 0
M  V30 7714 C 970.794 7.08259 2.72856 0
M  V30 7715 O 970.584 5.9427 1.83651 0
M  V30 7716 C 969.394 7.64886 2.9555 0
M  V30 7717 O 969.004 8.53963 1.90717 0
M  V30 7718 C 968.514 6.4116 2.90739 0
M  V30 7719 C 969.224 5.55375 1.86963 0
M  V30 7720 N 969.174 4.09664 2.15742 0
M  V30 7721 H 972.013 7.45574 4.45629 0
M  V30 7722 H 972.285 5.86232 3.67314 0
M  V30 7723 H 971.417 7.84412 2.24479 0
M  V30 7724 P 967.454 8.7635 1.60911 0
M  V30 7725 O 967.234 10.1388 1.11561 0
M  V30 7726 O 966.664 8.36503 2.79617 0
M  V30 7727 O 967.204 7.71806 0.42951 0
M  V30 7728 C 968.144 7.67148 -0.673689 0
M  V30 7729 C 967.414 7.33374 -1.95559 0
M  V30 7730 O 967.204 5.88721 -2.00726 0
M  V30 7731 C 966.014 7.92526 -2.10483 0
M  V30 7732 O 965.624 8.02971 -3.47653 0
M  V30 7733 C 965.134 6.89602 -1.41652 0
M  V30 7734 C 965.844 5.59201 -1.75185 0
M  V30 7735 N 965.794 4.58235 -0.662552 0
M  V30 7736 H 968.633 8.65116 -0.777161 0
M  V30 7737 H 968.905 6.90173 -0.474152 0
M  V30 7738 H 968.037 7.66548 -2.79458 0
M  V30 7739 P 964.074 8.03563 -3.84925 0
M  V30 7740 O 963.854 8.85821 -5.0569 0
M  V30 7741 O 963.284 8.41101 -2.65469 0
M  V30 7742 O 963.824 6.4965 -4.18908 0
M  V30 7743 C 964.764 5.81037 -5.05421 0
M  V30 7744 C 964.034 4.78366 -5.89277 0
M  V30 7745 O 963.824 3.58302 -5.08433 0
M  V30 7746 C 962.634 5.17448 -6.36119 0
M  V30 7747 O 962.244 4.45271 -7.53232 0
M  V30 7748 C 961.754 4.74639 -5.19936 0
M  V30 7749 C 962.464 3.49432 -4.70418 0
M  V30 7750 N 962.414 3.31776 -3.22945 0
M  V30 7751 H 965.253 6.54213 -5.71376 0
M  V30 7752 H 965.525 5.30492 -4.44033 0
M  V30 7753 H 964.657 4.55889 -6.76652 0
M  V30 7754 P 960.694 4.23843 -7.83734 0
M  V30 7755 O 960.474 4.19407 -9.29784 0
M  V30 7756 O 959.904 5.24426 -7.09156 0
M  V30 7757 O 960.444 2.79386 -7.20852 0
M  V30 7758 C 961.384 1.7299 -7.50419 0
M  V30 7759 C 960.654 0.41401 -7.5797 0
M  V30 7760 O 960.444 -0.089787 -6.22035 0
M  V30 7761 C 959.254 0.447224 -8.1878 0
M  V30 7762 O 958.864 -0.825159 -8.71201 0
M  V30 7763 C 958.374 0.783801 -6.99623 0
M  V30 7764 C 959.084 0.0619192 -5.85967 0
M  V30 7765 N 959.034 0.7859 -4.56281 0
M  V30 7766 C 958.884 0.0359258 -3.39981 0
M  V30 7767 O 958.794 -1.19723 -3.49038 0
M  V30 7768 N 958.834 0.869151 -2.14025 0
M  V30 7769 C 958.934 2.01207 -2.14363 0
M  V30 7770 N 958.884 2.58978 -0.954287 0
M  V30 7771 C 959.084 2.80817 -3.32215 0
M  V30 7772 C 959.134 2.13785 -4.50884 0
M  V30 7773 H 961.874 1.93401 -8.46693 0
M  V30 7774 H 962.144 1.68181 -6.71046 0
M  V30 7775 H 961.277 -0.289076 -8.15488 0
M  V30 7776 H 958.622 -0.927166 -5.72947 0
M  V30 7777 H 958.342 1.87 -6.82132 0
M  V30 7778 H 957.351 0.404009 -7.13457 0
M  V30 7779 H 959.185 1.20599 -8.97534 0
M  V30 7780 H 959.257 2.70295 -5.43162 0
M  V30 7781 H 959.155 3.89465 -3.27406 0
M  V30 7782 H 958.767 2.01616 -0.107046 0
M  V30 7783 H 958.963 3.61403 -0.873101 0
M  V30 7784 P 957.314 -1.17771 -8.83182 0
M  V30 7785 O 957.094 -2.07206 -9.98732 0
M  V30 7786 O 956.524 0.0743816 -8.81969 0
M  V30 7787 O 957.064 -1.97652 -7.47304 0
M  V30 7788 C 958.004 -3.01133 -7.08783 0
M  V30 7789 C 957.274 -4.12613 -6.37049 0
M  V30 7790 O 957.064 -3.72827 -4.97879 0
M  V30 7791 C 955.874 -4.45085 -6.88694 0
M  V30 7792 O 955.484 -5.7877 -6.5624 0
M  V30 7793 C 954.994 -3.47817 -6.12078 0
M  V30 7794 C 955.704 -3.39414 -4.77697 0
M  V30 7795 N 955.654 -2.04615 -4.15333 0
M  V30 7796 C 955.734 -0.803897 -4.75249 0
M  V30 7797 N 955.654 0.197615 -3.91502 0
M  V30 7798 C 955.514 -0.413002 -2.66823 0
M  V30 7799 C 955.384 0.157221 -1.38007 0
M  V30 7800 O 955.364 1.34419 -1.057 0
M  V30 7801 N 955.264 -0.833136 -0.390236 0
M  V30 7802 C 955.264 -2.19402 -0.623885 0
M  V30 7803 N 955.134 -2.97622 0.449677 0
M  V30 7804 N 955.394 -2.73005 -1.83601 0
M  V30 7805 C 955.514 -1.78786 -2.80935 0
M  V30 7806 H 958.493 -3.41248 -7.98759 0
M  V30 7807 H 958.765 -2.5837 -6.41742 0
M  V30 7808 H 957.897 -5.02657 -6.42673 0
M  V30 7809 H 955.242 -4.11779 -4.09026 0
M  V30 7810 H 954.962 -2.49661 -6.61772 0
M  V30 7811 H 953.971 -3.86674 -6.00946 0
M  V30 7812 H 955.805 -4.30038 -7.97094 0
M  V30 7813 H 955.854 -0.670579 -5.82754 0
M  V30 7814 H 955.172 -0.528446 0.557287 0
M  V30 7815 H 955.135 -4.00117 0.344773 0
M  V30 7816 H 955.034 -2.55448 1.38544 0
M  V30 7817 P 953.934 -6.144 -6.45285 0
M  V30 7818 O 953.714 -7.54673 -6.86199 0
M  V30 7819 O 953.144 -5.12391 -7.179 0
M  V30 7820 O 953.684 -5.99158 -4.88404 0
M  V30 7821 C 954.624 -6.60234 -3.96415 0
M  V30 7822 C 953.894 -7.08259 -2.72856 0
M  V30 7823 O 953.684 -5.9427 -1.83651 0
M  V30 7824 C 952.494 -7.64886 -2.9555 0
M  V30 7825 O 952.104 -8.53963 -1.90717 0
M  V30 7826 C 951.614 -6.4116 -2.90739 0
M  V30 7827 C 952.324 -5.55375 -1.86963 0
M  V30 7828 N 952.274 -4.09664 -2.15742 0
M  V30 7829 H 955.113 -7.45574 -4.45629 0
M  V30 7830 H 955.385 -5.86232 -3.67314 0
M  V30 7831 H 954.517 -7.84412 -2.24479 0
M  V30 7832 P 950.554 -8.7635 -1.60911 0
M  V30 7833 O 950.334 -10.1388 -1.11561 0
M  V30 7834 O 949.764 -8.36503 -2.79617 0
M  V30 7835 O 950.304 -7.71806 -0.42951 0
M  V30 7836 C 951.244 -7.67148 0.673689 0
M  V30 7837 C 950.514 -7.33374 1.95559 0
M  V30 7838 O 950.304 -5.88721 2.00726 0
M  V30 7839 C 949.114 -7.92526 2.10483 0
M  V30 7840 O 948.724 -8.02971 3.47653 0
M  V30 7841 C 948.234 -6.89602 1.41652 0
M  V30 7842 C 948.944 -5.59201 1.75185 0
M  V30 7843 N 948.894 -4.58235 0.662552 0
M  V30 7844 H 951.733 -8.65116 0.777161 0
M  V30 7845 H 952.005 -6.90173 0.474152 0
M  V30 7846 H 951.137 -7.66548 2.79458 0
M  V30 7847 P 947.174 -8.03563 3.84925 0
M  V30 7848 O 946.954 -8.85821 5.0569 0
M  V30 7849 O 946.384 -8.41101 2.65469 0
M  V30 7850 O 946.924 -6.4965 4.18908 0
M  V30 7851 C 947.864 -5.81037 5.05421 0
M  V30 7852 C 947.134 -4.78366 5.89277 0
M  V30 7853 O 946.924 -3.58302 5.08433 0
M  V30 7854 C 945.734 -5.17448 6.36119 0
M  V30 7855 O 945.344 -4.45271 7.53232 0
M  V30 7856 C 944.854 -4.74639 5.19936 0
M  V30 7857 C 945.564 -3.49432 4.70418 0
M  V30 7858 N 945.514 -3.31776 3.22945 0
M  V30 7859 H 948.353 -6.54213 5.71376 0
M  V30 7860 H 948.625 -5.30492 4.44033 0
M  V30 7861 H 947.757 -4.55889 6.76652 0
M  V30 7862 P 943.794 -4.23843 7.83734 0
M  V30 7863 O 943.574 -4.19407 9.29784 0
M  V30 7864 O 943.004 -5.24426 7.09156 0
M  V30 7865 O 943.544 -2.7935 7.20758 0
M  V30 7866 C 944.484 -1.7299 7.50419 0
M  V30 7867 C 943.754 -0.406376 7.57911 0
M  V30 7868 O 943.544 0.0897726 6.21935 0
M  V30 7869 C 942.354 -0.447224 8.1878 0
M  V30 7870 O 941.964 0.825065 8.71101 0
M  V30 7871 C 941.474 -0.783801 6.99623 0
M  V30 7872 C 942.184 -0.0619192 5.85967 0
M  V30 7873 N 942.134 -0.7859 4.56281 0
M  V30 7874 H 944.973 -1.93423 8.4679 0
M  V30 7875 H 945.245 -1.68181 6.71046 0
M  V30 7876 H 944.377 0.289041 8.15388 0
M  V30 7877 P 940.414 1.17771 8.83182 0
M  V30 7878 O 940.194 2.07206 9.98732 0
M  V30 7879 O 939.624 -0.0743816 8.81969 0
M  V30 7880 O 940.164 1.97652 7.47304 0
M  V30 7881 C 941.104 3.01133 7.08783 0
M  V30 7882 C 940.374 4.12613 6.37049 0
M  V30 7883 O 940.164 3.72827 4.97879 0
M  V30 7884 C 938.974 4.45085 6.88694 0
M  V30 7885 O 938.584 5.7877 6.5624 0
M  V30 7886 C 938.094 3.47817 6.12078 0
M  V30 7887 C 938.804 3.39414 4.77697 0
M  V30 7888 N 938.754 2.04615 4.15333 0
M  V30 7889 C 938.834 0.803897 4.75249 0
M  V30 7890 N 938.754 -0.197615 3.91502 0
M  V30 7891 C 938.614 0.413002 2.66823 0
M  V30 7892 C 938.484 -0.157221 1.38007 0
M  V30 7893 O 938.464 -1.34419 1.057 0
M  V30 7894 N 938.364 0.833136 0.390236 0
M  V30 7895 C 938.364 2.19402 0.623885 0
M  V30 7896 N 938.234 2.97622 -0.449677 0
M  V30 7897 N 938.494 2.73005 1.83601 0
M  V30 7898 C 938.614 1.78786 2.80935 0
M  V30 7899 H 941.593 3.41248 7.98759 0
M  V30 7900 H 941.865 2.5837 6.41742 0
M  V30 7901 H 940.997 5.02657 6.42673 0
M  V30 7902 H 938.342 4.11779 4.09026 0
M  V30 7903 H 938.062 2.49661 6.61772 0
M  V30 7904 H 937.071 3.86674 6.00946 0
M  V30 7905 H 938.905 4.30038 7.97094 0
M  V30 7906 H 938.954 0.670579 5.82754 0
M  V30 7907 H 938.272 0.528446 -0.557287 0
M  V30 7908 H 938.235 4.00117 -0.344773 0
M  V30 7909 H 938.134 2.55448 -1.38544 0
M  V30 7910 P 937.034 6.144 6.45285 0
M  V30 7911 O 936.814 7.54673 6.86199 0
M  V30 7912 O 936.244 5.12391 7.179 0
M  V30 7913 O 936.784 5.99158 4.88404 0
M  V30 7914 C 937.724 6.60234 3.96415 0
M  V30 7915 C 936.994 7.08259 2.72856 0
M  V30 7916 O 936.784 5.9427 1.83651 0
M  V30 7917 C 935.594 7.64886 2.9555 0
M  V30 7918 O 935.204 8.53963 1.90717 0
M  V30 7919 C 934.714 6.4116 2.90739 0
M  V30 7920 C 935.424 5.55375 1.86963 0
M  V30 7921 N 935.374 4.09448 2.16152 0
M  V30 7922 H 938.213 7.45574 4.45629 0
M  V30 7923 H 938.485 5.85864 3.679 0
M  V30 7924 H 937.617 7.84412 2.24479 0
M  V30 7925 H 934.962 5.73457 0.888562 0
M  V30 7926 H 934.682 5.90877 3.88583 0
M  V30 7927 H 933.691 6.6596 2.58858 0
M  V30 7928 H 935.525 8.16339 3.92049 0
M  V30 7929 P 933.655 8.7635 1.60911 0
M  V30 7930 O 933.435 10.1388 1.11561 0
M  V30 7931 O 932.865 8.36503 2.79617 0
M  V30 7932 O 933.405 7.71806 0.42951 0
M  V30 7933 C 934.345 7.67148 -0.673689 0
M  V30 7934 C 933.615 7.33374 -1.95559 0
M  V30 7935 O 933.405 5.88721 -2.00726 0
M  V30 7936 C 932.215 7.92526 -2.10483 0
M  V30 7937 O 931.825 8.02971 -3.47653 0
M  V30 7938 C 931.335 6.89602 -1.41652 0
M  V30 7939 C 932.045 5.59201 -1.75185 0
M  V30 7940 N 931.995 4.58235 -0.662552 0
M  V30 7941 C 932.075 4.7683 0.704049 0
M  V30 7942 N 931.995 3.66233 1.39775 0
M  V30 7943 C 931.855 2.66526 0.431739 0
M  V30 7944 C 931.725 1.26394 0.575992 0
M  V30 7945 N 931.605 0.62859 -0.67177 0
M  V30 7946 C 931.605 1.27134 -1.89385 0
M  V30 7947 N 931.475 0.492035 -2.96951 0
M  V30 7948 N 931.735 2.58978 -2.02907 0
M  V30 7949 C 931.855 3.22433 -0.832218 0
M  V30 7950 H 934.834 8.65116 -0.777161 0
M  V30 7951 H 935.106 6.90173 -0.474152 0
M  V30 7952 H 934.238 7.66548 -2.79458 0
M  V30 7953 P 930.275 8.03563 -3.84925 0
M  V30 7954 O 930.055 8.85821 -5.0569 0
M  V30 7955 O 929.485 8.41101 -2.65469 0
M  V30 7956 O 930.025 6.4965 -4.18908 0
M  V30 7957 C 930.965 5.81037 -5.05421 0
M  V30 7958 C 930.235 4.78366 -5.89277 0
M  V30 7959 O 930.025 3.58302 -5.08433 0
M  V30 7960 C 928.835 5.17448 -6.36119 0
M  V30 7961 O 928.445 4.45271 -7.53232 0
M  V30 7962 C 927.955 4.74639 -5.19936 0
M  V30 7963 C 928.665 3.49432 -4.70418 0
M  V30 7964 N 928.615 3.31776 -3.22945 0
M  V30 7965 H 931.454 6.54213 -5.71376 0
M  V30 7966 H 931.726 5.30492 -4.44033 0
M  V30 7967 H 930.858 4.55889 -6.76652 0
M  V30 7968 P 926.895 4.23843 -7.83734 0
M  V30 7969 O 926.675 4.19407 -9.29784 0
M  V30 7970 O 926.105 5.24426 -7.09156 0
M  V30 7971 O 926.645 2.7935 -7.20758 0
M  V30 7972 C 927.585 1.7299 -7.50419 0
M  V30 7973 C 926.855 0.406376 -7.57911 0
M  V30 7974 O 926.645 -0.0897726 -6.21935 0
M  V30 7975 C 925.455 0.447224 -8.1878 0
M  V30 7976 O 925.065 -0.825065 -8.71101 0
M  V30 7977 C 924.575 0.783801 -6.99623 0
M  V30 7978 C 925.285 0.0619192 -5.85967 0
M  V30 7979 N 925.235 0.7859 -4.56281 0
M  V30 7980 H 928.074 1.93423 -8.4679 0
M  V30 7981 H 928.346 1.68181 -6.71046 0
M  V30 7982 H 927.478 -0.289041 -8.15388 0
M  V30 7983 P 923.515 -1.17771 -8.83182 0
M  V30 7984 O 923.295 -2.07206 -9.98732 0
M  V30 7985 O 922.725 0.0743816 -8.81969 0
M  V30 7986 O 923.265 -1.97652 -7.47304 0
M  V30 7987 C 924.205 -3.01133 -7.08783 0
M  V30 7988 C 923.475 -4.12613 -6.37049 0
M  V30 7989 O 923.265 -3.72827 -4.97879 0
M  V30 7990 C 922.075 -4.45085 -6.88694 0
M  V30 7991 O 921.685 -5.7877 -6.5624 0
M  V30 7992 C 921.195 -3.47817 -6.12078 0
M  V30 7993 C 921.905 -3.39414 -4.77697 0
M  V30 7994 N 921.855 -2.04199 -4.15538 0
M  V30 7995 H 924.694 -3.41248 -7.98759 0
M  V30 7996 H 924.966 -2.57728 -6.42 0
M  V30 7997 H 924.098 -5.02657 -6.42673 0
M  V30 7998 H 921.443 -4.11708 -4.08956 0
M  V30 7999 H 921.163 -2.49626 -6.61679 0
M  V30 8000 H 920.172 -3.8662 -6.00862 0
M  V30 8001 H 922.006 -4.29991 -7.97006 0
M  V30 8002 P 920.135 -6.144 -6.45285 0
M  V30 8003 O 919.915 -7.54673 -6.86199 0
M  V30 8004 O 919.345 -5.12391 -7.179 0
M  V30 8005 O 919.885 -5.99158 -4.88404 0
M  V30 8006 C 920.825 -6.60234 -3.96415 0
M  V30 8007 C 920.095 -7.08259 -2.72856 0
M  V30 8008 O 919.885 -5.9427 -1.83651 0
M  V30 8009 C 918.695 -7.64886 -2.9555 0
M  V30 8010 O 918.305 -8.53963 -1.90717 0
M  V30 8011 C 917.815 -6.4116 -2.90739 0
M  V30 8012 C 918.525 -5.55375 -1.86963 0
M  V30 8013 N 918.475 -4.09448 -2.16152 0
M  V30 8014 H 921.314 -7.45574 -4.45629 0
M  V30 8015 H 921.586 -5.85864 -3.679 0
M  V30 8016 H 920.718 -7.84412 -2.24479 0
M  V30 8017 H 918.063 -5.73457 -0.888562 0
M  V30 8018 H 917.783 -5.90877 -3.88583 0
M  V30 8019 H 916.792 -6.6596 -2.58858 0
M  V30 8020 H 918.626 -8.16339 -3.92049 0
M  V30 8021 P 916.755 -8.7635 -1.60911 0
M  V30 8022 O 916.535 -10.1388 -1.11561 0
M  V30 8023 O 915.965 -8.36503 -2.79617 0
M  V30 8024 O 916.505 -7.71806 -0.42951 0
M  V30 8025 C 917.445 -7.67148 0.673689 0
M  V30 8026 C 916.715 -7.33374 1.95559 0
M  V30 8027 O 916.505 -5.88721 2.00726 0
M  V30 8028 C 915.315 -7.92526 2.10483 0
M  V30 8029 O 914.925 -8.02971 3.47653 0
M  V30 8030 C 914.435 -6.89602 1.41652 0
M  V30 8031 C 915.145 -5.59201 1.75185 0
M  V30 8032 N 915.095 -4.58235 0.662552 0
M  V30 8033 H 917.934 -8.65116 0.777161 0
M  V30 8034 H 918.206 -6.90173 0.474152 0
M  V30 8035 H 917.338 -7.66548 2.79458 0
M  V30 8036 P 913.375 -8.03563 3.84925 0
M  V30 8037 O 913.155 -8.85821 5.0569 0
M  V30 8038 O 912.585 -8.41101 2.65469 0
M  V30 8039 O 913.125 -6.4965 4.18908 0
M  V30 8040 C 914.065 -5.81037 5.05421 0
M  V30 8041 C 913.335 -4.78366 5.89277 0
M  V30 8042 O 913.125 -3.58302 5.08433 0
M  V30 8043 C 911.935 -5.17448 6.36119 0
M  V30 8044 O 911.545 -4.45271 7.53232 0
M  V30 8045 C 911.055 -4.74639 5.19936 0
M  V30 8046 C 911.765 -3.49432 4.70418 0
M  V30 8047 N 911.715 -3.31776 3.22945 0
M  V30 8048 H 914.554 -6.54213 5.71376 0
M  V30 8049 H 914.826 -5.30492 4.44033 0
M  V30 8050 H 913.958 -4.55889 6.76652 0
M  V30 8051 P 909.995 -4.23843 7.83734 0
M  V30 8052 O 909.775 -4.19407 9.29784 0
M  V30 8053 O 909.205 -5.24426 7.09156 0
M  V30 8054 O 909.745 -2.7935 7.20758 0
M  V30 8055 C 910.685 -1.7299 7.50419 0
M  V30 8056 C 909.955 -0.406376 7.57911 0
M  V30 8057 O 909.745 0.0897726 6.21935 0
M  V30 8058 C 908.555 -0.447224 8.1878 0
M  V30 8059 O 908.165 0.825065 8.71101 0
M  V30 8060 C 907.675 -0.783801 6.99623 0
M  V30 8061 C 908.385 -0.0619192 5.85967 0
M  V30 8062 N 908.335 -0.790462 4.56202 0
M  V30 8063 H 911.174 -1.93423 8.4679 0
M  V30 8064 H 911.446 -1.68852 6.70877 0
M  V30 8065 H 910.578 0.289041 8.15388 0
M  V30 8066 H 907.923 0.927006 5.72848 0
M  V30 8067 H 907.643 -1.86973 6.82036 0
M  V30 8068 H 906.652 -0.403953 7.13357 0
M  V30 8069 H 908.486 -1.20599 8.97534 0
M  V30 8070 P 906.615 1.17771 8.83182 0
M  V30 8071 O 906.395 2.07206 9.98732 0
M  V30 8072 O 905.825 -0.0743816 8.81969 0
M  V30 8073 O 906.365 1.97652 7.47304 0
M  V30 8074 C 907.305 3.01133 7.08783 0
M  V30 8075 C 906.575 4.12613 6.37049 0
M  V30 8076 O 906.365 3.72827 4.97879 0
M  V30 8077 C 905.175 4.45085 6.88694 0
M  V30 8078 O 904.785 5.7877 6.5624 0
M  V30 8079 C 904.295 3.47817 6.12078 0
M  V30 8080 C 905.005 3.39414 4.77697 0
M  V30 8081 N 904.955 2.04615 4.15333 0
M  V30 8082 H 907.794 3.41248 7.98759 0
M  V30 8083 H 908.066 2.5837 6.41742 0
M  V30 8084 H 907.198 5.02657 6.42673 0
M  V30 8085 P 903.235 6.144 6.45285 0
M  V30 8086 O 903.015 7.54673 6.86199 0
M  V30 8087 O 902.445 5.12391 7.179 0
M  V30 8088 O 902.985 5.99158 4.88404 0
M  V30 8089 C 903.925 6.60234 3.96415 0
M  V30 8090 C 903.195 7.08259 2.72856 0
M  V30 8091 O 902.985 5.9427 1.83651 0
M  V30 8092 C 901.795 7.64886 2.9555 0
M  V30 8093 O 901.405 8.53963 1.90717 0
M  V30 8094 C 900.915 6.4116 2.90739 0
M  V30 8095 C 901.625 5.55375 1.86963 0
M  V30 8096 N 901.575 4.09664 2.15742 0
M  V30 8097 H 904.414 7.45574 4.45629 0
M  V30 8098 H 904.686 5.86232 3.67314 0
M  V30 8099 H 903.818 7.84412 2.24479 0
M  V30 8100 P 899.855 8.7635 1.60911 0
M  V30 8101 O 899.635 10.1388 1.11561 0
M  V30 8102 O 899.065 8.36503 2.79617 0
M  V30 8103 O 899.605 7.71806 0.42951 0
M  V30 8104 C 900.545 7.67148 -0.673689 0
M  V30 8105 C 899.815 7.33374 -1.95559 0
M  V30 8106 O 899.605 5.88721 -2.00726 0
M  V30 8107 C 898.415 7.92526 -2.10483 0
M  V30 8108 O 898.025 8.02971 -3.47653 0
M  V30 8109 C 897.535 6.89602 -1.41652 0
M  V30 8110 C 898.245 5.59201 -1.75185 0
M  V30 8111 N 898.195 4.58235 -0.662552 0
M  V30 8112 H 901.034 8.65116 -0.777161 0
M  V30 8113 H 901.306 6.90173 -0.474152 0
M  V30 8114 H 900.438 7.66548 -2.79458 0
M  V30 8115 P 896.475 8.03563 -3.84925 0
M  V30 8116 O 896.255 8.85821 -5.0569 0
M  V30 8117 O 895.685 8.41101 -2.65469 0
M  V30 8118 O 896.225 6.4965 -4.18908 0
M  V30 8119 C 897.165 5.81037 -5.05421 0
M  V30 8120 C 896.435 4.78366 -5.89277 0
M  V30 8121 O 896.225 3.58302 -5.08433 0
M  V30 8122 C 895.035 5.17448 -6.36119 0
M  V30 8123 O 894.645 4.45271 -7.53232 0
M  V30 8124 C 894.155 4.74639 -5.19936 0
M  V30 8125 C 894.865 3.49432 -4.70418 0
M  V30 8126 N 894.815 3.32099 -3.22613 0
M  V30 8127 H 897.654 6.54213 -5.71376 0
M  V30 8128 H 897.926 5.30936 -4.43503 0
M  V30 8129 H 897.058 4.55889 -6.76652 0
M  V30 8130 H 894.403 2.61715 -5.17932 0
M  V30 8131 H 894.123 5.52155 -4.41878 0
M  V30 8132 H 893.132 4.51981 -5.53374 0
M  V30 8133 H 894.966 6.25124 -6.55234 0
M  V30 8134 P 893.095 4.23843 -7.83734 0
M  V30 8135 O 892.875 4.19407 -9.29784 0
M  V30 8136 O 892.305 5.24426 -7.09156 0
M  V30 8137 O 892.845 2.7935 -7.20758 0
M  V30 8138 C 893.785 1.72945 -7.50224 0
M  V30 8139 C 893.055 0.406376 -7.57911 0
M  V30 8140 O 892.845 -0.0897726 -6.21935 0
M  V30 8141 C 891.655 0.438983 -8.18724 0
M  V30 8142 O 891.265 -0.825065 -8.71101 0
M  V30 8143 C 890.775 0.783689 -6.99524 0
M  V30 8144 C 891.485 0.0619086 -5.85867 0
M  V30 8145 N 891.435 0.78573 -4.56183 0
M  V30 8146 C 891.285 0.0292889 -3.41887 0
M  V30 8147 O 891.195 -1.18445 -3.4419 0
M  V30 8148 N 891.245 0.744061 -2.23964 0
M  V30 8149 C 891.335 2.10932 -2.10362 0
M  V30 8150 O 891.285 2.64117 -0.98825 0
M  V30 8151 C 891.485 2.8202 -3.34994 0
M  V30 8152 C 891.595 4.31095 -3.25037 0
M  V30 8153 C 891.535 2.15547 -4.52261 0
M  V30 8154 H 894.276 1.93379 -8.46595 0
M  V30 8155 H 894.545 1.68132 -6.70852 0
M  V30 8156 H 893.678 -0.289041 -8.15388 0
M  V30 8157 H 891.023 -0.926847 -5.72749 0
M  V30 8158 H 890.744 1.86973 -6.82036 0
M  V30 8159 H 889.752 0.403896 -7.13257 0
M  V30 8160 H 891.586 1.20585 -8.97435 0
M  V30 8161 H 891.657 2.71231 -5.45042 0
M  V30 8162 H 890.627 4.76966 -3.49992 0
M  V30 8163 H 892.364 4.67047 -3.95024 0
M  V30 8164 H 891.876 4.58996 -2.22312 0
M  V30 8165 H 891.14 0.214893 -1.39758 0
M  V30 8166 P 889.715 -1.17771 -8.83182 0
M  V30 8167 O 889.495 -2.07206 -9.98732 0
M  V30 8168 O 888.925 0.0743816 -8.81969 0
M  V30 8169 O 889.465 -1.97652 -7.47304 0
M  V30 8170 C 890.405 -3.01133 -7.08783 0
M  V30 8171 C 889.675 -4.12613 -6.37049 0
M  V30 8172 O 889.465 -3.72827 -4.97879 0
M  V30 8173 C 888.275 -4.45085 -6.88694 0
M  V30 8174 O 887.885 -5.7877 -6.5624 0
M  V30 8175 C 887.395 -3.47817 -6.12078 0
M  V30 8176 C 888.105 -3.39414 -4.77697 0
M  V30 8177 N 888.055 -2.04615 -4.15333 0
M  V30 8178 H 890.894 -3.41248 -7.98759 0
M  V30 8179 H 891.166 -2.5837 -6.41742 0
M  V30 8180 H 890.298 -5.02657 -6.42673 0
M  V30 8181 P 886.335 -6.144 -6.45285 0
M  V30 8182 O 886.115 -7.54673 -6.86199 0
M  V30 8183 O 885.545 -5.12391 -7.179 0
M  V30 8184 O 886.085 -5.99158 -4.88404 0
M  V30 8185 C 887.025 -6.60062 -3.96313 0
M  V30 8186 C 886.295 -7.08259 -2.72856 0
M  V30 8187 O 886.085 -5.9427 -1.83651 0
M  V30 8188 C 884.895 -7.65087 -2.94749 0
M  V30 8189 O 884.505 -8.53963 -1.90717 0
M  V30 8190 C 884.015 -6.41069 -2.90698 0
M  V30 8191 C 884.725 -5.5528 -1.86931 0
M  V30 8192 N 884.675 -4.09575 -2.15696 0
M  V30 8193 C 884.525 -3.24249 -1.08435 0
M  V30 8194 O 884.435 -3.63946 0.0628747 0
M  V30 8195 N 884.485 -1.90009 -1.39973 0
M  V30 8196 C 884.575 -1.34884 -2.65614 0
M  V30 8197 O 884.525 -0.123716 -2.81728 0
M  V30 8198 C 884.725 -2.3145 -3.71736 0
M  V30 8199 C 884.835 -1.75913 -5.10438 0
M  V30 8200 C 884.775 -3.63518 -3.44754 0
M  V30 8201 H 887.516 -7.45402 -4.45526 0
M  V30 8202 H 887.785 -5.86062 -3.67208 0
M  V30 8203 H 886.918 -7.84412 -2.24479 0
M  V30 8204 H 884.263 -5.73358 -0.888409 0
M  V30 8205 H 883.984 -5.90877 -3.88583 0
M  V30 8206 H 882.992 -6.65867 -2.58821 0
M  V30 8207 H 884.826 -8.16248 -3.92006 0
M  V30 8208 H 884.897 -4.34551 -4.26383 0
M  V30 8209 H 883.867 -1.85471 -5.61775 0
M  V30 8210 H 885.604 -2.31364 -5.66257 0
M  V30 8211 H 885.116 -0.695936 -5.05229 0
M  V30 8212 H 884.38 -1.26277 -0.63625 0
M  V30 8213 P 882.955 -8.7635 -1.60911 0
M  V30 8214 O 882.735 -10.1388 -1.11561 0
M  V30 8215 O 882.165 -8.36503 -2.79617 0
M  V30 8216 O 882.705 -7.71806 -0.42951 0
M  V30 8217 C 883.645 -7.67148 0.673689 0
M  V30 8218 C 882.915 -7.33374 1.95559 0
M  V30 8219 O 882.705 -5.88721 2.00726 0
M  V30 8220 C 881.515 -7.92526 2.10483 0
M  V30 8221 O 881.125 -8.02971 3.47653 0
M  V30 8222 C 880.635 -6.89602 1.41652 0
M  V30 8223 C 881.345 -5.59201 1.75185 0
M  V30 8224 N 881.295 -4.58235 0.662552 0
M  V30 8225 H 884.134 -8.65116 0.777161 0
M  V30 8226 H 884.406 -6.90173 0.474152 0
M  V30 8227 H 883.538 -7.66548 2.79458 0
M  V30 8228 P 879.575 -8.03563 3.84925 0
M  V30 8229 O 879.355 -8.85821 5.0569 0
M  V30 8230 O 878.785 -8.41101 2.65469 0
M  V30 8231 O 879.325 -6.4965 4.18908 0
M  V30 8232 C 880.265 -5.81037 5.05421 0
M  V30 8233 C 879.535 -4.78366 5.89277 0
M  V30 8234 O 879.325 -3.58302 5.08433 0
M  V30 8235 C 878.135 -5.17448 6.36119 0
M  V30 8236 O 877.745 -4.45271 7.53232 0
M  V30 8237 C 877.255 -4.74639 5.19936 0
M  V30 8238 C 877.965 -3.49432 4.70418 0
M  V30 8239 N 877.915 -3.31776 3.22945 0
M  V30 8240 C 877.995 -4.27147 2.23315 0
M  V30 8241 N 877.915 -3.78447 1.02186 0
M  V30 8242 C 877.775 -2.41001 1.21732 0
M  V30 8243 C 877.645 -1.36111 0.27694 0
M  V30 8244 N 877.525 -0.113683 0.912949 0
M  V30 8245 C 877.525 0.0846396 2.27943 0
M  V30 8246 N 877.395 1.34737 2.6916 0
M  V30 8247 N 877.655 -0.902521 3.16379 0
M  V30 8248 C 877.775 -2.11937 2.56849 0
M  V30 8249 H 880.754 -6.54213 5.71376 0
M  V30 8250 H 881.026 -5.30492 4.44033 0
M  V30 8251 H 880.158 -4.55889 6.76652 0
M  V30 8252 P 876.195 -4.23843 7.83734 0
M  V30 8253 O 875.975 -4.19407 9.29784 0
M  V30 8254 O 875.405 -5.24426 7.09156 0
M  V30 8255 O 875.945 -2.7935 7.20758 0
M  V30 8256 C 876.885 -1.7299 7.50419 0
M  V30 8257 C 876.155 -0.406376 7.57911 0
M  V30 8258 O 875.945 0.0897726 6.21935 0
M  V30 8259 C 874.755 -0.447224 8.1878 0
M  V30 8260 O 874.365 0.825065 8.71101 0
M  V30 8261 C 873.875 -0.783801 6.99623 0
M  V30 8262 C 874.585 -0.0619192 5.85967 0
M  V30 8263 N 874.535 -0.790462 4.56202 0
M  V30 8264 C 874.615 -2.13895 4.34171 0
M  V30 8265 N 874.545 -2.46449 3.08687 0
M  V30 8266 C 874.395 -1.2525 2.43697 0
M  V30 8267 C 874.265 -0.914535 1.07318 0
M  V30 8268 N 874.255 -1.80782 0.0887348 0
M  V30 8269 N 874.145 0.386745 0.768133 0
M  V30 8270 C 874.155 1.28096 1.75159 0
M  V30 8271 N 874.275 1.09708 3.04861 0
M  V30 8272 C 874.395 -0.214857 3.32306 0
M  V30 8273 H 877.374 -1.93423 8.4679 0
M  V30 8274 H 877.646 -1.68852 6.70877 0
M  V30 8275 H 876.778 0.289041 8.15388 0
M  V30 8276 H 874.123 0.927006 5.72848 0
M  V30 8277 H 873.843 -1.86973 6.82036 0
M  V30 8278 H 872.852 -0.403953 7.13357 0
M  V30 8279 H 874.686 -1.20599 8.97534 0
M  V30 8280 H 874.727 -2.86846 5.14318 0
M  V30 8281 H 874.346 -2.81082 0.302037 0
M  V30 8282 H 874.157 -1.49688 -0.889064 0
M  V30 8283 H 874.049 2.31317 1.43855 0
M  V30 8284 P 872.815 1.17771 8.83182 0
M  V30 8285 O 872.595 2.07206 9.98732 0
M  V30 8286 O 872.025 -0.0743816 8.81969 0
M  V30 8287 O 872.565 1.97678 7.474 0
M  V30 8288 C 873.505 3.01133 7.08783 0
M  V30 8289 C 872.775 4.1203 6.37546 0
M  V30 8290 O 872.565 3.72887 4.9796 0
M  V30 8291 C 871.375 4.45085 6.88694 0
M  V30 8292 O 870.985 5.78836 6.56315 0
M  V30 8293 C 870.495 3.47817 6.12078 0
M  V30 8294 C 871.205 3.39414 4.77697 0
M  V30 8295 N 871.155 2.04615 4.15333 0
M  V30 8296 C 871.005 1.96929 2.77162 0
M  V30 8297 O 870.915 3.02017 2.12006 0
M  V30 8298 N 870.955 0.55485 2.24237 0
M  V30 8299 C 871.055 -0.367808 2.9169 0
M  V30 8300 N 871.005 -1.53426 2.29427 0
M  V30 8301 C 871.205 -0.319148 4.33828 0
M  V30 8302 C 871.255 0.920672 4.90433 0
M  V30 8303 H 873.995 3.41209 7.98667 0
M  V30 8304 H 874.265 2.5837 6.41742 0
M  V30 8305 H 873.398 5.02718 6.42752 0
M  V30 8306 H 870.743 4.11779 4.09026 0
M  V30 8307 H 870.463 2.49661 6.61772 0
M  V30 8308 H 869.472 3.86674 6.00946 0
M  V30 8309 H 871.306 4.29991 7.97006 0
M  V30 8310 H 871.378 1.00589 5.98303 0
M  V30 8311 H 871.276 -1.22639 4.93799 0
M  V30 8312 H 870.888 -1.56819 1.27167 0
M  V30 8313 H 871.084 -2.41062 2.83063 0
M  V30 8314 P 869.435 6.144 6.45285 0
M  V30 8315 O 869.215 7.54673 6.86199 0
M  V30 8316 O 868.645 5.12391 7.179 0
M  V30 8317 O 869.185 5.99158 4.88404 0
M  V30 8318 C 870.125 6.60234 3.96415 0
M  V30 8319 C 869.395 7.08259 2.72856 0
M  V30 8320 O 869.185 5.9427 1.83651 0
M  V30 8321 C 867.995 7.64886 2.9555 0
M  V30 8322 O 867.605 8.53963 1.90717 0
M  V30 8323 C 867.115 6.4116 2.90739 0
M  V30 8324 C 867.825 5.55375 1.86963 0
M  V30 8325 N 867.775 4.09448 2.16152 0
M  V30 8326 H 870.614 7.45574 4.45629 0
M  V30 8327 H 870.886 5.85864 3.679 0
M  V30 8328 H 870.018 7.84412 2.24479 0
M  V30 8329 H 867.363 5.73457 0.888562 0
M  V30 8330 H 867.083 5.90877 3.88583 0
M  V30 8331 H 866.092 6.6596 2.58858 0
M  V30 8332 H 867.926 8.16339 3.92049 0
M  V30 8333 P 866.055 8.7635 1.60911 0
M  V30 8334 O 865.835 10.1388 1.11561 0
M  V30 8335 O 865.265 8.36503 2.79617 0
M  V30 8336 O 865.805 7.71906 0.429565 0
M  V30 8337 C 866.745 7.67148 -0.673689 0
M  V30 8338 C 866.015 7.33666 -1.94851 0
M  V30 8339 O 865.805 5.88816 -2.00759 0
M  V30 8340 C 864.615 7.92526 -2.10483 0
M  V30 8341 O 864.225 8.03063 -3.47693 0
M  V30 8342 C 863.735 6.89602 -1.41652 0
M  V30 8343 C 864.445 5.59201 -1.75185 0
M  V30 8344 N 864.395 4.58235 -0.662552 0
M  V30 8345 C 864.245 3.24451 -1.01643 0
M  V30 8346 O 864.155 2.94958 -2.21722 0
M  V30 8347 N 864.195 2.30408 0.165238 0
M  V30 8348 C 864.295 2.66048 1.25118 0
M  V30 8349 N 864.245 1.70787 2.16813 0
M  V30 8350 C 864.445 4.02732 1.64413 0
M  V30 8351 C 864.495 4.9488 0.63991 0
M  V30 8352 H 867.235 8.65017 -0.777072 0
M  V30 8353 H 867.505 6.90173 -0.474152 0
M  V30 8354 H 866.638 7.66642 -2.79492 0
M  V30 8355 H 863.983 5.16254 -2.65229 0
M  V30 8356 H 863.703 7.06532 -0.329431 0
M  V30 8357 H 862.712 6.91023 -1.82047 0
M  V30 8358 H 864.546 8.90873 -1.62657 0
M  V30 8359 H 864.618 6.00104 0.892197 0
M  V30 8360 H 864.516 4.31733 2.69229 0
M  V30 8361 H 864.128 0.724835 1.8844 0
M  V30 8362 H 864.324 1.94716 3.16734 0
M  V30 8363 P 862.675 8.03563 -3.84925 0
M  V30 8364 O 862.455 8.85821 -5.0569 0
M  V30 8365 O 861.885 8.41101 -2.65469 0
M  V30 8366 O 862.425 6.4965 -4.18908 0
M  V30 8367 C 863.365 5.81037 -5.05421 0
M  V30 8368 C 862.635 4.78366 -5.89277 0
M  V30 8369 O 862.425 3.58302 -5.08433 0
M  V30 8370 C 861.235 5.17448 -6.36119 0
M  V30 8371 O 860.845 4.45271 -7.53232 0
M  V30 8372 C 860.355 4.74639 -5.19936 0
M  V30 8373 C 861.065 3.49432 -4.70418 0
M  V30 8374 N 861.015 3.32099 -3.22613 0
M  V30 8375 H 863.854 6.54213 -5.71376 0
M  V30 8376 H 864.126 5.30936 -4.43503 0
M  V30 8377 H 863.258 4.55889 -6.76652 0
M  V30 8378 H 860.603 2.61715 -5.17932 0
M  V30 8379 H 860.323 5.52155 -4.41878 0
M  V30 8380 H 859.332 4.51981 -5.53374 0
M  V30 8381 H 861.166 6.25124 -6.55234 0
M  V30 8382 P 859.295 4.23843 -7.83734 0
M  V30 8383 O 859.075 4.19407 -9.29784 0
M  V30 8384 O 858.505 5.24426 -7.09156 0
M  V30 8385 O 859.045 2.7935 -7.20758 0
M  V30 8386 C 859.985 1.7299 -7.50419 0
M  V30 8387 C 859.255 0.406376 -7.57911 0
M  V30 8388 O 859.045 -0.0897726 -6.21935 0
M  V30 8389 C 857.855 0.447224 -8.1878 0
M  V30 8390 O 857.465 -0.825065 -8.71101 0
M  V30 8391 C 856.975 0.783801 -6.99623 0
M  V30 8392 C 857.685 0.0619192 -5.85967 0
M  V30 8393 N 857.635 0.7859 -4.56281 0
M  V30 8394 H 860.474 1.93423 -8.4679 0
M  V30 8395 H 860.746 1.68181 -6.71046 0
M  V30 8396 H 859.878 -0.289041 -8.15388 0
M  V30 8397 P 855.915 -1.17771 -8.83182 0
M  V30 8398 O 855.695 -2.07206 -9.98732 0
M  V30 8399 O 855.125 0.0743816 -8.81969 0
M  V30 8400 O 855.665 -1.97652 -7.47304 0
M  V30 8401 C 856.605 -3.01133 -7.08783 0
M  V30 8402 C 855.875 -4.12613 -6.37049 0
M  V30 8403 O 855.665 -3.72827 -4.97879 0
M  V30 8404 C 854.475 -4.45085 -6.88694 0
M  V30 8405 O 854.085 -5.7877 -6.5624 0
M  V30 8406 C 853.595 -3.47817 -6.12078 0
M  V30 8407 C 854.305 -3.39414 -4.77697 0
M  V30 8408 N 854.255 -2.04615 -4.15333 0
M  V30 8409 H 857.094 -3.41248 -7.98759 0
M  V30 8410 H 857.366 -2.5837 -6.41742 0
M  V30 8411 H 856.498 -5.02657 -6.42673 0
M  V30 8412 P 852.535 -6.144 -6.45285 0
M  V30 8413 O 852.315 -7.54673 -6.86199 0
M  V30 8414 O 851.745 -5.12391 -7.179 0
M  V30 8415 O 852.285 -5.99158 -4.88404 0
M  V30 8416 C 853.225 -6.60234 -3.96415 0
M  V30 8417 C 852.495 -7.08259 -2.72856 0
M  V30 8418 O 852.285 -5.9427 -1.83651 0
M  V30 8419 C 851.095 -7.64886 -2.9555 0
M  V30 8420 O 850.705 -8.53963 -1.90717 0
M  V30 8421 C 850.215 -6.4116 -2.90739 0
M  V30 8422 C 850.925 -5.55375 -1.86963 0
M  V30 8423 N 850.875 -4.09664 -2.15742 0
M  V30 8424 H 853.714 -7.45574 -4.45629 0
M  V30 8425 H 853.986 -5.86232 -3.67314 0
M  V30 8426 H 853.118 -7.84412 -2.24479 0
M  V30 8427 P 849.155 -8.7635 -1.60911 0
M  V30 8428 O 848.935 -10.1388 -1.11561 0
M  V30 8429 O 848.365 -8.36503 -2.79617 0
M  V30 8430 O 848.905 -7.71806 -0.42951 0
M  V30 8431 C 849.845 -7.67148 0.673689 0
M  V30 8432 C 849.115 -7.33374 1.95559 0
M  V30 8433 O 848.905 -5.88721 2.00726 0
M  V30 8434 C 847.715 -7.92526 2.10483 0
M  V30 8435 O 847.325 -8.02971 3.47653 0
M  V30 8436 C 846.835 -6.89602 1.41652 0
M  V30 8437 C 847.545 -5.59201 1.75185 0
M  V30 8438 N 847.495 -4.58301 0.657969 0
M  V30 8439 H 850.334 -8.65116 0.777161 0
M  V30 8440 H 850.606 -6.9022 0.46725 0
M  V30 8441 H 849.738 -7.66548 2.79458 0
M  V30 8442 H 847.083 -5.16165 2.65183 0
M  V30 8443 H 846.803 -7.06433 0.329384 0
M  V30 8444 H 845.812 -6.90926 1.82021 0
M  V30 8445 H 847.646 -8.90873 1.62657 0
M  V30 8446 P 845.775 -8.03563 3.84925 0
M  V30 8447 O 845.555 -8.85821 5.0569 0
M  V30 8448 O 844.985 -8.41101 2.65469 0
M  V30 8449 O 845.525 -6.49734 4.18962 0
M  V30 8450 C 846.465 -5.81037 5.05421 0
M  V30 8451 C 845.735 -4.79018 5.88876 0
M  V30 8452 O 845.525 -3.58359 5.08515 0
M  V30 8453 C 844.335 -5.17448 6.36119 0
M  V30 8454 O 843.945 -4.45322 7.53318 0
M  V30 8455 C 843.455 -4.74639 5.19936 0
M  V30 8456 C 844.165 -3.49432 4.70418 0
M  V30 8457 N 844.115 -3.31776 3.22945 0
M  V30 8458 C 843.965 -2.02742 2.72939 0
M  V30 8459 O 843.875 -1.08301 3.52749 0
M  V30 8460 N 843.915 -1.96117 1.22063 0
M  V30 8461 C 844.015 -2.8878 0.551566 0
M  V30 8462 N 843.965 -2.65609 -0.750198 0
M  V30 8463 C 844.165 -4.22457 1.03707 0
M  V30 8464 C 844.215 -4.37979 2.39113 0
M  V30 8465 H 846.955 -6.54138 5.7131 0
M  V30 8466 H 847.225 -5.30492 4.44033 0
M  V30 8467 H 846.358 -4.55945 6.76735 0
M  V30 8468 H 843.703 -2.6176 5.18021 0
M  V30 8469 H 843.423 -5.52233 4.41941 0
M  V30 8470 H 842.432 -4.52045 5.53452 0
M  V30 8471 H 844.266 -6.25124 6.55234 0
M  V30 8472 H 844.338 -5.37936 2.80552 0
M  V30 8473 H 844.236 -5.07528 0.359553 0
M  V30 8474 H 843.848 -1.69403 -1.09847 0
M  V30 8475 H 844.044 -3.43701 -1.41792 0
M  V30 8476 P 842.395 -4.23843 7.83734 0
M  V30 8477 O 842.175 -4.19407 9.29784 0
M  V30 8478 O 841.605 -5.24426 7.09156 0
M  V30 8479 O 842.145 -2.7935 7.20758 0
M  V30 8480 C 843.085 -1.7299 7.50419 0
M  V30 8481 C 842.355 -0.406376 7.57911 0
M  V30 8482 O 842.145 0.0897726 6.21935 0
M  V30 8483 C 840.955 -0.447224 8.1878 0
M  V30 8484 O 840.565 0.825065 8.71101 0
M  V30 8485 C 840.075 -0.783801 6.99623 0
M  V30 8486 C 840.785 -0.0619192 5.85967 0
M  V30 8487 N 840.735 -0.7859 4.56281 0
M  V30 8488 C 840.815 -2.14308 4.31736 0
M  V30 8489 N 840.735 -2.46106 3.05116 0
M  V30 8490 C 840.595 -1.23422 2.4014 0
M  V30 8491 C 840.465 -0.938381 1.02409 0
M  V30 8492 N 840.345 0.444647 0.805413 0
M  V30 8493 C 840.345 1.40829 1.79435 0
M  V30 8494 N 840.215 2.67213 1.38558 0
M  V30 8495 N 840.475 1.12947 3.09005 0
M  V30 8496 C 840.595 -0.204887 3.32369 0
M  V30 8497 H 843.574 -1.93423 8.4679 0
M  V30 8498 H 843.846 -1.68181 6.71046 0
M  V30 8499 H 842.978 0.289041 8.15388 0
M  V30 8500 P 839.015 1.17771 8.83182 0
M  V30 8501 O 838.795 2.07206 9.98732 0
M  V30 8502 O 838.225 -0.0743816 8.81969 0
M  V30 8503 O 838.765 1.97652 7.47304 0
M  V30 8504 C 839.705 3.01133 7.08783 0
M  V30 8505 C 838.975 4.12613 6.37049 0
M  V30 8506 O 838.765 3.72827 4.97879 0
M  V30 8507 C 837.575 4.45085 6.88694 0
M  V30 8508 O 837.185 5.7877 6.5624 0
M  V30 8509 C 836.695 3.47817 6.12078 0
M  V30 8510 C 837.405 3.39414 4.77697 0
M  V30 8511 N 837.355 2.04199 4.15538 0
M  V30 8512 H 840.194 3.41248 7.98759 0
M  V30 8513 H 840.466 2.57728 6.42 0
M  V30 8514 H 839.598 5.02657 6.42673 0
M  V30 8515 H 836.943 4.11708 4.08956 0
M  V30 8516 H 836.663 2.49626 6.61679 0
M  V30 8517 H 835.672 3.8662 6.00862 0
M  V30 8518 H 837.506 4.29991 7.97006 0
M  V30 8519 P 835.635 6.144 6.45285 0
M  V30 8520 O 835.415 7.54673 6.86199 0
M  V30 8521 O 834.845 5.12391 7.179 0
M  V30 8522 O 835.385 5.99158 4.88404 0
M  V30 8523 C 836.325 6.60234 3.96415 0
M  V30 8524 C 835.595 7.08259 2.72856 0
M  V30 8525 O 835.385 5.9427 1.83651 0
M  V30 8526 C 834.195 7.64886 2.9555 0
M  V30 8527 O 833.805 8.53963 1.90717 0
M  V30 8528 C 833.315 6.4116 2.90739 0
M  V30 8529 C 834.025 5.55375 1.86963 0
M  V30 8530 N 833.975 4.09664 2.15742 0
M  V30 8531 H 836.814 7.45574 4.45629 0
M  V30 8532 H 837.086 5.86232 3.67314 0
M  V30 8533 H 836.218 7.84412 2.24479 0
M  V30 8534 P 832.255 8.7635 1.60911 0
M  V30 8535 O 832.035 10.1388 1.11561 0
M  V30 8536 O 831.465 8.36503 2.79617 0
M  V30 8537 O 832.005 7.71806 0.42951 0
M  V30 8538 C 832.945 7.67148 -0.673689 0
M  V30 8539 C 832.215 7.33374 -1.95559 0
M  V30 8540 O 832.005 5.88721 -2.00726 0
M  V30 8541 C 830.815 7.92526 -2.10483 0
M  V30 8542 O 830.425 8.02971 -3.47653 0
M  V30 8543 C 829.935 6.89602 -1.41652 0
M  V30 8544 C 830.645 5.59201 -1.75185 0
M  V30 8545 N 830.595 4.58235 -0.662552 0
M  V30 8546 H 833.434 8.65116 -0.777161 0
M  V30 8547 H 833.706 6.90173 -0.474152 0
M  V30 8548 H 832.838 7.66548 -2.79458 0
M  V30 8549 P 828.875 8.03563 -3.84925 0
M  V30 8550 O 828.655 8.85821 -5.0569 0
M  V30 8551 O 828.085 8.41101 -2.65469 0
M  V30 8552 O 828.625 6.4965 -4.18908 0
M  V30 8553 C 829.565 5.81037 -5.05421 0
M  V30 8554 C 828.835 4.78366 -5.89277 0
M  V30 8555 O 828.625 3.58302 -5.08433 0
M  V30 8556 C 827.435 5.17448 -6.36119 0
M  V30 8557 O 827.045 4.45271 -7.53232 0
M  V30 8558 C 826.555 4.74639 -5.19936 0
M  V30 8559 C 827.265 3.49432 -4.70418 0
M  V30 8560 N 827.215 3.31776 -3.22945 0
M  V30 8561 H 830.054 6.54213 -5.71376 0
M  V30 8562 H 830.326 5.30492 -4.44033 0
M  V30 8563 H 829.458 4.55889 -6.76652 0
M  V30 8564 P 825.495 4.23843 -7.83734 0
M  V30 8565 O 825.275 4.19407 -9.29784 0
M  V30 8566 O 824.705 5.24426 -7.09156 0
M  V30 8567 O 825.245 2.7935 -7.20758 0
M  V30 8568 C 826.185 1.7299 -7.50419 0
M  V30 8569 C 825.455 0.406376 -7.57911 0
M  V30 8570 O 825.245 -0.0897726 -6.21935 0
M  V30 8571 C 824.055 0.447224 -8.1878 0
M  V30 8572 O 823.665 -0.825065 -8.71101 0
M  V30 8573 C 823.175 0.783801 -6.99623 0
M  V30 8574 C 823.885 0.0619192 -5.85967 0
M  V30 8575 N 823.835 0.7859 -4.56281 0
M  V30 8576 H 826.674 1.93423 -8.4679 0
M  V30 8577 H 826.946 1.68181 -6.71046 0
M  V30 8578 H 826.078 -0.289041 -8.15388 0
M  V30 8579 P 822.115 -1.17771 -8.83182 0
M  V30 8580 O 821.895 -2.07206 -9.98732 0
M  V30 8581 O 821.325 0.0743816 -8.81969 0
M  V30 8582 O 821.865 -1.97652 -7.47304 0
M  V30 8583 C 822.805 -3.01133 -7.08783 0
M  V30 8584 C 822.075 -4.12613 -6.37049 0
M  V30 8585 O 821.865 -3.72827 -4.97879 0
M  V30 8586 C 820.675 -4.45085 -6.88694 0
M  V30 8587 O 820.285 -5.7877 -6.5624 0
M  V30 8588 C 819.795 -3.47817 -6.12078 0
M  V30 8589 C 820.505 -3.39414 -4.77697 0
M  V30 8590 N 820.455 -2.04615 -4.15333 0
M  V30 8591 H 823.294 -3.41248 -7.98759 0
M  V30 8592 H 823.566 -2.5837 -6.41742 0
M  V30 8593 H 822.698 -5.02657 -6.42673 0
M  V30 8594 P 818.735 -6.144 -6.45285 0
M  V30 8595 O 818.515 -7.54673 -6.86199 0
M  V30 8596 O 817.945 -5.12391 -7.179 0
M  V30 8597 O 818.485 -5.99158 -4.88404 0
M  V30 8598 C 819.425 -6.60234 -3.96415 0
M  V30 8599 C 818.695 -7.08259 -2.72856 0
M  V30 8600 O 818.485 -5.9427 -1.83651 0
M  V30 8601 C 817.295 -7.64886 -2.9555 0
M  V30 8602 O 816.905 -8.53963 -1.90717 0
M  V30 8603 C 816.415 -6.4116 -2.90739 0
M  V30 8604 C 817.125 -5.55375 -1.86963 0
M  V30 8605 N 817.075 -4.09664 -2.15742 0
M  V30 8606 H 819.914 -7.45574 -4.45629 0
M  V30 8607 H 820.186 -5.86232 -3.67314 0
M  V30 8608 H 819.318 -7.84412 -2.24479 0
M  V30 8609 P 815.355 -8.7635 -1.60911 0
M  V30 8610 O 815.135 -10.1388 -1.11561 0
M  V30 8611 O 814.565 -8.36503 -2.79617 0
M  V30 8612 O 815.105 -7.71806 -0.42951 0
M  V30 8613 C 816.045 -7.67148 0.673689 0
M  V30 8614 C 815.315 -7.33374 1.95559 0
M  V30 8615 O 815.105 -5.88721 2.00726 0
M  V30 8616 C 813.915 -7.92526 2.10483 0
M  V30 8617 O 813.525 -8.02971 3.47653 0
M  V30 8618 C 813.035 -6.89602 1.41652 0
M  V30 8619 C 813.745 -5.59201 1.75185 0
M  V30 8620 N 813.695 -4.58235 0.662552 0
M  V30 8621 H 816.534 -8.65116 0.777161 0
M  V30 8622 H 816.806 -6.90173 0.474152 0
M  V30 8623 H 815.938 -7.66548 2.79458 0
M  V30 8624 P 811.975 -8.03563 3.84925 0
M  V30 8625 O 811.755 -8.85821 5.0569 0
M  V30 8626 O 811.185 -8.41101 2.65469 0
M  V30 8627 O 811.725 -6.49734 4.18962 0
M  V30 8628 C 812.665 -5.81037 5.05421 0
M  V30 8629 C 811.935 -4.79018 5.88876 0
M  V30 8630 O 811.725 -3.58359 5.08515 0
M  V30 8631 C 810.535 -5.17448 6.36119 0
M  V30 8632 O 810.145 -4.45322 7.53318 0
M  V30 8633 C 809.655 -4.74639 5.19936 0
M  V30 8634 C 810.365 -3.49432 4.70418 0
M  V30 8635 N 810.315 -3.31776 3.22945 0
M  V30 8636 C 810.165 -2.02742 2.72939 0
M  V30 8637 O 810.075 -1.08301 3.52749 0
M  V30 8638 N 810.115 -1.96117 1.22063 0
M  V30 8639 C 810.215 -2.8878 0.551566 0
M  V30 8640 N 810.165 -2.65609 -0.750198 0
M  V30 8641 C 810.365 -4.22457 1.03707 0
M  V30 8642 C 810.415 -4.37979 2.39113 0
M  V30 8643 H 813.155 -6.54138 5.7131 0
M  V30 8644 H 813.425 -5.30492 4.44033 0
M  V30 8645 H 812.558 -4.55945 6.76735 0
M  V30 8646 H 809.903 -2.6176 5.18021 0
M  V30 8647 H 809.623 -5.52233 4.41941 0
M  V30 8648 H 808.632 -4.52045 5.53452 0
M  V30 8649 H 810.466 -6.25124 6.55234 0
M  V30 8650 H 810.538 -5.37936 2.80552 0
M  V30 8651 H 810.436 -5.07528 0.359553 0
M  V30 8652 H 810.048 -1.69403 -1.09847 0
M  V30 8653 H 810.244 -3.43701 -1.41792 0
M  V30 8654 P 808.595 -4.23843 7.83734 0
M  V30 8655 O 808.375 -4.19407 9.29784 0
M  V30 8656 O 807.805 -5.24426 7.09156 0
M  V30 8657 O 808.345 -2.7935 7.20758 0
M  V30 8658 C 809.285 -1.7299 7.50419 0
M  V30 8659 C 808.555 -0.406376 7.57911 0
M  V30 8660 O 808.345 0.0897726 6.21935 0
M  V30 8661 C 807.155 -0.447224 8.1878 0
M  V30 8662 O 806.765 0.825065 8.71101 0
M  V30 8663 C 806.275 -0.783801 6.99623 0
M  V30 8664 C 806.985 -0.0619192 5.85967 0
M  V30 8665 N 806.935 -0.7859 4.56281 0
M  V30 8666 H 809.774 -1.93423 8.4679 0
M  V30 8667 H 810.046 -1.68181 6.71046 0
M  V30 8668 H 809.178 0.289041 8.15388 0
M  V30 8669 P 805.215 1.17771 8.83182 0
M  V30 8670 O 804.995 2.07206 9.98732 0
M  V30 8671 O 804.425 -0.0743816 8.81969 0
M  V30 8672 O 804.965 1.97652 7.47304 0
M  V30 8673 C 805.905 3.01133 7.08783 0
M  V30 8674 C 805.175 4.12613 6.37049 0
M  V30 8675 O 804.965 3.72827 4.97879 0
M  V30 8676 C 803.775 4.45085 6.88694 0
M  V30 8677 O 803.385 5.7877 6.5624 0
M  V30 8678 C 802.895 3.47817 6.12078 0
M  V30 8679 C 803.605 3.39414 4.77697 0
M  V30 8680 N 803.555 2.04199 4.15538 0
M  V30 8681 H 806.394 3.41248 7.98759 0
M  V30 8682 H 806.666 2.57728 6.42 0
M  V30 8683 H 805.798 5.02657 6.42673 0
M  V30 8684 H 803.143 4.11708 4.08956 0
M  V30 8685 H 802.863 2.49626 6.61679 0
M  V30 8686 H 801.872 3.8662 6.00862 0
M  V30 8687 H 803.706 4.29991 7.97006 0
M  V30 8688 P 801.835 6.144 6.45285 0
M  V30 8689 O 801.615 7.54673 6.86199 0
M  V30 8690 O 801.045 5.12391 7.179 0
M  V30 8691 O 801.585 5.99158 4.88404 0
M  V30 8692 C 802.525 6.60234 3.96415 0
M  V30 8693 C 801.795 7.08259 2.72856 0
M  V30 8694 O 801.585 5.9427 1.83651 0
M  V30 8695 C 800.395 7.64886 2.9555 0
M  V30 8696 O 800.005 8.53963 1.90717 0
M  V30 8697 C 799.515 6.4116 2.90739 0
M  V30 8698 C 800.225 5.55375 1.86963 0
M  V30 8699 N 800.175 4.09664 2.15742 0
M  V30 8700 H 803.014 7.45574 4.45629 0
M  V30 8701 H 803.286 5.86232 3.67314 0
M  V30 8702 H 802.418 7.84412 2.24479 0
M  V30 8703 P 798.455 8.7635 1.60911 0
M  V30 8704 O 798.235 10.1388 1.11561 0
M  V30 8705 O 797.665 8.36503 2.79617 0
M  V30 8706 O 798.205 7.71806 0.42951 0
M  V30 8707 C 799.145 7.67148 -0.673689 0
M  V30 8708 C 798.415 7.33374 -1.95559 0
M  V30 8709 O 798.205 5.88721 -2.00726 0
M  V30 8710 C 797.015 7.92526 -2.10483 0
M  V30 8711 O 796.625 8.02971 -3.47653 0
M  V30 8712 C 796.135 6.89602 -1.41652 0
M  V30 8713 C 796.845 5.59201 -1.75185 0
M  V30 8714 N 796.795 4.58235 -0.662552 0
M  V30 8715 H 799.634 8.65116 -0.777161 0
M  V30 8716 H 799.906 6.90173 -0.474152 0
M  V30 8717 H 799.038 7.66548 -2.79458 0
M  V30 8718 P 795.075 8.03563 -3.84925 0
M  V30 8719 O 794.855 8.85821 -5.0569 0
M  V30 8720 O 794.285 8.41101 -2.65469 0
M  V30 8721 O 794.825 6.4965 -4.18908 0
M  V30 8722 C 795.765 5.81037 -5.05421 0
M  V30 8723 C 795.035 4.78366 -5.89277 0
M  V30 8724 O 794.825 3.58302 -5.08433 0
M  V30 8725 C 793.635 5.17448 -6.36119 0
M  V30 8726 O 793.245 4.45271 -7.53232 0
M  V30 8727 C 792.755 4.74639 -5.19936 0
M  V30 8728 C 793.465 3.49432 -4.70418 0
M  V30 8729 N 793.415 3.32099 -3.22613 0
M  V30 8730 C 793.495 4.28245 -2.25527 0
M  V30 8731 N 793.425 3.80823 -1.04874 0
M  V30 8732 C 793.275 2.44571 -1.23535 0
M  V30 8733 C 793.145 1.37068 -0.330675 0
M  V30 8734 N 793.135 1.51472 0.990824 0
M  V30 8735 N 793.025 0.138614 -0.848756 0
M  V30 8736 C 793.035 -0.00675923 -2.16999 0
M  V30 8737 N 793.155 0.904372 -3.11122 0
M  V30 8738 C 793.275 2.12707 -2.56212 0
M  V30 8739 H 796.254 6.54213 -5.71376 0
M  V30 8740 H 796.526 5.30936 -4.43503 0
M  V30 8741 H 795.658 4.55889 -6.76652 0
M  V30 8742 H 793.003 2.61715 -5.17932 0
M  V30 8743 H 792.723 5.52155 -4.41878 0
M  V30 8744 H 791.732 4.51981 -5.53374 0
M  V30 8745 H 793.566 6.25124 -6.55234 0
M  V30 8746 H 793.607 5.34372 -2.47488 0
M  V30 8747 H 793.226 2.45153 1.4078 0
M  V30 8748 H 793.037 0.688422 1.59911 0
M  V30 8749 H 792.929 -1.02584 -2.52346 0
M  V30 8750 P 791.695 4.23843 -7.83734 0
M  V30 8751 O 791.475 4.19407 -9.29784 0
M  V30 8752 O 790.905 5.24426 -7.09156 0
M  V30 8753 O 791.445 2.7935 -7.20758 0
M  V30 8754 C 792.385 1.7299 -7.50419 0
M  V30 8755 C 791.655 0.406376 -7.57911 0
M  V30 8756 O 791.445 -0.0897726 -6.21935 0
M  V30 8757 C 790.255 0.447224 -8.1878 0
M  V30 8758 O 789.865 -0.825065 -8.71101 0
M  V30 8759 C 789.375 0.783801 -6.99623 0
M  V30 8760 C 790.085 0.0619192 -5.85967 0
M  V30 8761 N 790.035 0.7859 -4.56281 0
M  V30 8762 H 792.874 1.93423 -8.4679 0
M  V30 8763 H 793.146 1.68181 -6.71046 0
M  V30 8764 H 792.278 -0.289041 -8.15388 0
M  V30 8765 P 788.315 -1.17771 -8.83182 0
M  V30 8766 O 788.095 -2.07206 -9.98732 0
M  V30 8767 O 787.525 0.0743816 -8.81969 0
M  V30 8768 O 788.065 -1.97652 -7.47304 0
M  V30 8769 C 789.005 -3.01133 -7.08783 0
M  V30 8770 C 788.275 -4.12613 -6.37049 0
M  V30 8771 O 788.065 -3.72827 -4.97879 0
M  V30 8772 C 786.875 -4.45085 -6.88694 0
M  V30 8773 O 786.485 -5.7877 -6.5624 0
M  V30 8774 C 785.995 -3.47817 -6.12078 0
M  V30 8775 C 786.705 -3.39414 -4.77697 0
M  V30 8776 N 786.655 -2.04615 -4.15333 0
M  V30 8777 C 786.735 -0.803897 -4.75249 0
M  V30 8778 N 786.655 0.197615 -3.91502 0
M  V30 8779 C 786.515 -0.413002 -2.66823 0
M  V30 8780 C 786.385 0.157221 -1.38007 0
M  V30 8781 N 786.265 -0.833136 -0.390236 0
M  V30 8782 C 786.265 -2.19402 -0.623885 0
M  V30 8783 N 786.135 -2.97622 0.449677 0
M  V30 8784 N 786.395 -2.73005 -1.83601 0
M  V30 8785 C 786.515 -1.78786 -2.80935 0
M  V30 8786 H 789.494 -3.41248 -7.98759 0
M  V30 8787 H 789.766 -2.5837 -6.41742 0
M  V30 8788 H 788.898 -5.02657 -6.42673 0
M  V30 8789 P 784.935 -6.144 -6.45285 0
M  V30 8790 O 784.715 -7.54673 -6.86199 0
M  V30 8791 O 784.145 -5.12391 -7.179 0
M  V30 8792 O 784.685 -5.99158 -4.88404 0
M  V30 8793 C 785.625 -6.60234 -3.96415 0
M  V30 8794 C 784.895 -7.08259 -2.72856 0
M  V30 8795 O 784.685 -5.9427 -1.83651 0
M  V30 8796 C 783.495 -7.64886 -2.9555 0
M  V30 8797 O 783.105 -8.53963 -1.90717 0
M  V30 8798 C 782.615 -6.4116 -2.90739 0
M  V30 8799 C 783.325 -5.55375 -1.86963 0
M  V30 8800 N 783.275 -4.09664 -2.15742 0
M  V30 8801 H 786.114 -7.45574 -4.45629 0
M  V30 8802 H 786.386 -5.86232 -3.67314 0
M  V30 8803 H 785.518 -7.84412 -2.24479 0
M  V30 8804 P 781.555 -8.7635 -1.60911 0
M  V30 8805 O 781.335 -10.1388 -1.11561 0
M  V30 8806 O 780.765 -8.36503 -2.79617 0
M  V30 8807 O 781.305 -7.71806 -0.42951 0
M  V30 8808 C 782.245 -7.67148 0.673689 0
M  V30 8809 C 781.515 -7.33374 1.95559 0
M  V30 8810 O 781.305 -5.88721 2.00726 0
M  V30 8811 C 780.115 -7.92526 2.10483 0
M  V30 8812 O 779.725 -8.02971 3.47653 0
M  V30 8813 C 779.235 -6.89602 1.41652 0
M  V30 8814 C 779.945 -5.59201 1.75185 0
M  V30 8815 N 779.895 -4.58235 0.662552 0
M  V30 8816 H 782.734 -8.65116 0.777161 0
M  V30 8817 H 783.006 -6.90173 0.474152 0
M  V30 8818 H 782.138 -7.66548 2.79458 0
M  V30 8819 P 778.175 -8.03563 3.84925 0
M  V30 8820 O 777.955 -8.85821 5.0569 0
M  V30 8821 O 777.385 -8.41101 2.65469 0
M  V30 8822 O 777.925 -6.4965 4.18908 0
M  V30 8823 C 778.865 -5.81037 5.05421 0
M  V30 8824 C 778.135 -4.78366 5.89277 0
M  V30 8825 O 777.925 -3.58302 5.08433 0
M  V30 8826 C 776.735 -5.17448 6.36119 0
M  V30 8827 O 776.345 -4.45271 7.53232 0
M  V30 8828 C 775.855 -4.74639 5.19936 0
M  V30 8829 C 776.565 -3.49432 4.70418 0
M  V30 8830 N 776.515 -3.31776 3.22945 0
M  V30 8831 H 779.354 -6.54213 5.71376 0
M  V30 8832 H 779.626 -5.30492 4.44033 0
M  V30 8833 H 778.758 -4.55889 6.76652 0
M  V30 8834 P 774.795 -4.23843 7.83734 0
M  V30 8835 O 774.575 -4.19407 9.29784 0
M  V30 8836 O 774.005 -5.24426 7.09156 0
M  V30 8837 O 774.545 -2.7935 7.20758 0
M  V30 8838 C 775.485 -1.7299 7.50419 0
M  V30 8839 C 774.755 -0.406376 7.57911 0
M  V30 8840 O 774.545 0.0897726 6.21935 0
M  V30 8841 C 773.355 -0.447224 8.1878 0
M  V30 8842 O 772.965 0.825065 8.71101 0
M  V30 8843 C 772.475 -0.783801 6.99623 0
M  V30 8844 C 773.185 -0.0619192 5.85967 0
M  V30 8845 N 773.135 -0.7859 4.56281 0
M  V30 8846 H 775.974 -1.93423 8.4679 0
M  V30 8847 H 776.246 -1.68181 6.71046 0
M  V30 8848 H 775.378 0.289041 8.15388 0
M  V30 8849 P 771.415 1.17771 8.83182 0
M  V30 8850 O 771.195 2.07206 9.98732 0
M  V30 8851 O 770.625 -0.0743816 8.81969 0
M  V30 8852 O 771.165 1.97652 7.47304 0
M  V30 8853 C 772.105 3.01133 7.08783 0
M  V30 8854 C 771.375 4.12613 6.37049 0
M  V30 8855 O 771.165 3.72827 4.97879 0
M  V30 8856 C 769.975 4.45085 6.88694 0
M  V30 8857 O 769.585 5.7877 6.5624 0
M  V30 8858 C 769.095 3.47817 6.12078 0
M  V30 8859 C 769.805 3.39414 4.77697 0
M  V30 8860 N 769.755 2.04615 4.15333 0
M  V30 8861 C 769.835 0.803897 4.75249 0
M  V30 8862 N 769.755 -0.197615 3.91502 0
M  V30 8863 C 769.615 0.413002 2.66823 0
M  V30 8864 C 769.485 -0.157221 1.38007 0
M  V30 8865 N 769.365 0.833136 0.390236 0
M  V30 8866 C 769.365 2.19402 0.623885 0
M  V30 8867 N 769.235 2.97622 -0.449677 0
M  V30 8868 N 769.495 2.73005 1.83601 0
M  V30 8869 C 769.615 1.78786 2.80935 0
M  V30 8870 H 772.594 3.41248 7.98759 0
M  V30 8871 H 772.866 2.5837 6.41742 0
M  V30 8872 H 771.998 5.02657 6.42673 0
M  V30 8873 P 768.035 6.144 6.45285 0
M  V30 8874 O 767.815 7.54673 6.86199 0
M  V30 8875 O 767.245 5.12391 7.179 0
M  V30 8876 O 767.785 5.99158 4.88404 0
M  V30 8877 C 768.725 6.60234 3.96415 0
M  V30 8878 C 767.995 7.08259 2.72856 0
M  V30 8879 O 767.785 5.9427 1.83651 0
M  V30 8880 C 766.595 7.64886 2.9555 0
M  V30 8881 O 766.205 8.53963 1.90717 0
M  V30 8882 C 765.715 6.4116 2.90739 0
M  V30 8883 C 766.425 5.55375 1.86963 0
M  V30 8884 N 766.375 4.09664 2.15742 0
M  V30 8885 H 769.214 7.45574 4.45629 0
M  V30 8886 H 769.486 5.86232 3.67314 0
M  V30 8887 H 768.618 7.84412 2.24479 0
M  V30 8888 P 764.656 8.7635 1.60911 0
M  V30 8889 O 764.436 10.1388 1.11561 0
M  V30 8890 O 763.866 8.36503 2.79617 0
M  V30 8891 O 764.406 7.71906 0.429565 0
M  V30 8892 C 765.346 7.67148 -0.673689 0
M  V30 8893 C 764.616 7.33666 -1.94851 0
M  V30 8894 O 764.406 5.88816 -2.00759 0
M  V30 8895 C 763.216 7.92526 -2.10483 0
M  V30 8896 O 762.826 8.03063 -3.47693 0
M  V30 8897 C 762.336 6.89602 -1.41652 0
M  V30 8898 C 763.046 5.59201 -1.75185 0
M  V30 8899 N 762.996 4.58235 -0.662552 0
M  V30 8900 C 762.846 3.24451 -1.01643 0
M  V30 8901 O 762.756 2.94958 -2.21722 0
M  V30 8902 N 762.796 2.30408 0.165238 0
M  V30 8903 C 762.896 2.66048 1.25118 0
M  V30 8904 N 762.846 1.70787 2.16813 0
M  V30 8905 C 763.046 4.02732 1.64413 0
M  V30 8906 C 763.096 4.9488 0.63991 0
M  V30 8907 H 765.836 8.65017 -0.777072 0
M  V30 8908 H 766.106 6.90173 -0.474152 0
M  V30 8909 H 765.239 7.66642 -2.79492 0
M  V30 8910 H 762.584 5.16254 -2.65229 0
M  V30 8911 H 762.304 7.06532 -0.329431 0
M  V30 8912 H 761.313 6.91023 -1.82047 0
M  V30 8913 H 763.147 8.90873 -1.62657 0
M  V30 8914 H 763.219 6.00104 0.892197 0
M  V30 8915 H 763.117 4.31733 2.69229 0
M  V30 8916 H 762.729 0.724835 1.8844 0
M  V30 8917 H 762.925 1.94716 3.16734 0
M  V30 8918 P 761.276 8.03563 -3.84925 0
M  V30 8919 O 761.056 8.85821 -5.0569 0
M  V30 8920 O 760.486 8.41101 -2.65469 0
M  V30 8921 O 761.026 6.4965 -4.18908 0
M  V30 8922 C 761.966 5.81037 -5.05421 0
M  V30 8923 C 761.236 4.78366 -5.89277 0
M  V30 8924 O 761.026 3.58302 -5.08433 0
M  V30 8925 C 759.836 5.17448 -6.36119 0
M  V30 8926 O 759.446 4.45271 -7.53232 0
M  V30 8927 C 758.956 4.74639 -5.19936 0
M  V30 8928 C 759.666 3.49432 -4.70418 0
M  V30 8929 N 759.616 3.31776 -3.22945 0
M  V30 8930 H 762.455 6.54213 -5.71376 0
M  V30 8931 H 762.727 5.30492 -4.44033 0
M  V30 8932 H 761.859 4.55889 -6.76652 0
M  V30 8933 P 757.896 4.23843 -7.83734 0
M  V30 8934 O 757.676 4.19407 -9.29784 0
M  V30 8935 O 757.106 5.24426 -7.09156 0
M  V30 8936 O 757.646 2.7935 -7.20758 0
M  V30 8937 C 758.586 1.72945 -7.50224 0
M  V30 8938 C 757.856 0.406376 -7.57911 0
M  V30 8939 O 757.646 -0.0897726 -6.21935 0
M  V30 8940 C 756.456 0.438983 -8.18724 0
M  V30 8941 O 756.066 -0.825065 -8.71101 0
M  V30 8942 C 755.576 0.783689 -6.99524 0
M  V30 8943 C 756.286 0.0619086 -5.85867 0
M  V30 8944 N 756.236 0.78573 -4.56183 0
M  V30 8945 C 756.086 0.0292889 -3.41887 0
M  V30 8946 O 755.996 -1.18445 -3.4419 0
M  V30 8947 N 756.046 0.744061 -2.23964 0
M  V30 8948 C 756.136 2.10932 -2.10362 0
M  V30 8949 O 756.086 2.64117 -0.98825 0
M  V30 8950 C 756.286 2.8202 -3.34994 0
M  V30 8951 C 756.396 4.31095 -3.25037 0
M  V30 8952 C 756.336 2.15547 -4.52261 0
M  V30 8953 H 759.077 1.93379 -8.46595 0
M  V30 8954 H 759.346 1.68132 -6.70852 0
M  V30 8955 H 758.479 -0.289041 -8.15388 0
M  V30 8956 H 755.824 -0.926847 -5.72749 0
M  V30 8957 H 755.545 1.86973 -6.82036 0
M  V30 8958 H 754.553 0.403896 -7.13257 0
M  V30 8959 H 756.387 1.20585 -8.97435 0
M  V30 8960 H 756.458 2.71231 -5.45042 0
M  V30 8961 H 755.428 4.76966 -3.49992 0
M  V30 8962 H 757.165 4.67047 -3.95024 0
M  V30 8963 H 756.677 4.58996 -2.22312 0
M  V30 8964 H 755.941 0.214893 -1.39758 0
M  V30 8965 P 754.516 -1.17771 -8.83182 0
M  V30 8966 O 754.296 -2.07206 -9.98732 0
M  V30 8967 O 753.726 0.0743816 -8.81969 0
M  V30 8968 O 754.266 -1.97652 -7.47304 0
M  V30 8969 C 755.206 -3.01133 -7.08783 0
M  V30 8970 C 754.476 -4.12613 -6.37049 0
M  V30 8971 O 754.266 -3.72827 -4.97879 0
M  V30 8972 C 753.076 -4.45085 -6.88694 0
M  V30 8973 O 752.686 -5.7877 -6.5624 0
M  V30 8974 C 752.196 -3.47817 -6.12078 0
M  V30 8975 C 752.906 -3.39414 -4.77697 0
M  V30 8976 N 752.856 -2.04199 -4.15538 0
M  V30 8977 H 755.695 -3.41248 -7.98759 0
M  V30 8978 H 755.967 -2.57728 -6.42 0
M  V30 8979 H 755.099 -5.02657 -6.42673 0
M  V30 8980 H 752.444 -4.11708 -4.08956 0
M  V30 8981 H 752.164 -2.49626 -6.61679 0
M  V30 8982 H 751.173 -3.8662 -6.00862 0
M  V30 8983 H 753.007 -4.29991 -7.97006 0
M  V30 8984 P 751.136 -6.144 -6.45285 0
M  V30 8985 O 750.916 -7.54673 -6.86199 0
M  V30 8986 O 750.346 -5.12391 -7.179 0
M  V30 8987 O 750.886 -5.99158 -4.88404 0
M  V30 8988 C 751.826 -6.60234 -3.96415 0
M  V30 8989 C 751.096 -7.08259 -2.72856 0
M  V30 8990 O 750.886 -5.9427 -1.83651 0
M  V30 8991 C 749.696 -7.64886 -2.9555 0
M  V30 8992 O 749.306 -8.53963 -1.90717 0
M  V30 8993 C 748.816 -6.4116 -2.90739 0
M  V30 8994 C 749.526 -5.55375 -1.86963 0
M  V30 8995 N 749.476 -4.09664 -2.15742 0
M  V30 8996 C 749.556 -3.44381 -3.37233 0
M  V30 8997 N 749.476 -2.14131 -3.28347 0
M  V30 8998 C 749.336 -1.90247 -1.91588 0
M  V30 8999 C 749.206 -0.683992 -1.20892 0
M  V30 9000 O 749.186 0.46618 -1.64523 0
M  V30 9001 N 749.086 -0.903396 0.173998 0
M  V30 9002 C 749.086 -2.14171 0.784879 0
M  V30 9003 N 748.956 -2.1435 2.11317 0
M  V30 9004 N 749.216 -3.28784 0.119316 0
M  V30 9005 C 749.336 -3.0977 -1.22194 0
M  V30 9006 H 752.315 -7.45574 -4.45629 0
M  V30 9007 H 752.587 -5.86232 -3.67314 0
M  V30 9008 H 751.719 -7.84412 -2.24479 0
M  V30 9009 H 749.064 -5.73556 -0.888715 0
M  V30 9010 H 748.784 -5.9096 -3.88638 0
M  V30 9011 H 747.793 -6.66053 -2.58894 0
M  V30 9012 H 749.627 -8.16429 -3.92093 0
M  V30 9013 H 749.676 -3.96785 -4.32043 0
M  V30 9014 H 748.994 -0.0999567 0.761467 0
M  V30 9015 H 748.957 -3.03436 2.63076 0
M  V30 9016 H 748.856 -1.25228 2.62233 0
M  V30 9017 P 747.756 -8.7635 -1.60911 0
M  V30 9018 O 747.536 -10.1388 -1.11561 0
M  V30 9019 O 746.966 -8.36503 -2.79617 0
M  V30 9020 O 747.506 -7.71806 -0.42951 0
M  V30 9021 C 748.446 -7.67148 0.673689 0
M  V30 9022 C 747.716 -7.33374 1.95559 0
M  V30 9023 O 747.506 -5.88721 2.00726 0
M  V30 9024 C 746.316 -7.92526 2.10483 0
M  V30 9025 O 745.926 -8.02971 3.47653 0
M  V30 9026 C 745.436 -6.89602 1.41652 0
M  V30 9027 C 746.146 -5.59201 1.75185 0
M  V30 9028 N 746.096 -4.58235 0.662552 0
M  V30 9029 H 748.935 -8.65116 0.777161 0
M  V30 9030 H 749.207 -6.90173 0.474152 0
M  V30 9031 H 748.339 -7.66548 2.79458 0
M  V30 9032 P 744.376 -8.03563 3.84925 0
M  V30 9033 O 744.156 -8.85821 5.0569 0
M  V30 9034 O 743.586 -8.41101 2.65469 0
M  V30 9035 O 744.126 -6.4965 4.18908 0
M  V30 9036 C 745.066 -5.81037 5.05421 0
M  V30 9037 C 744.336 -4.78366 5.89277 0
M  V30 9038 O 744.126 -3.58302 5.08433 0
M  V30 9039 C 742.936 -5.17448 6.36119 0
M  V30 9040 O 742.546 -4.45271 7.53232 0
M  V30 9041 C 742.056 -4.74639 5.19936 0
M  V30 9042 C 742.766 -3.49432 4.70418 0
M  V30 9043 N 742.716 -3.31776 3.22945 0
M  V30 9044 H 745.555 -6.54213 5.71376 0
M  V30 9045 H 745.827 -5.30492 4.44033 0
M  V30 9046 H 744.959 -4.55889 6.76652 0
M  V30 9047 P 740.996 -4.23843 7.83734 0
M  V30 9048 O 740.776 -4.19407 9.29784 0
M  V30 9049 O 740.206 -5.24426 7.09156 0
M  V30 9050 O 740.746 -2.7935 7.20758 0
M  V30 9051 C 741.686 -1.72945 7.50224 0
M  V30 9052 C 740.956 -0.406376 7.57911 0
M  V30 9053 O 740.746 0.0897726 6.21935 0
M  V30 9054 C 739.556 -0.438983 8.18724 0
M  V30 9055 O 739.166 0.825065 8.71101 0
M  V30 9056 C 738.676 -0.783689 6.99524 0
M  V30 9057 C 739.386 -0.0619086 5.85867 0
M  V30 9058 N 739.336 -0.78573 4.56183 0
M  V30 9059 C 739.186 -0.0292889 3.41887 0
M  V30 9060 O 739.096 1.18445 3.4419 0
M  V30 9061 N 739.146 -0.744061 2.23964 0
M  V30 9062 C 739.236 -2.10932 2.10362 0
M  V30 9063 O 739.186 -2.64117 0.98825 0
M  V30 9064 C 739.386 -2.8202 3.34994 0
M  V30 9065 C 739.496 -4.31095 3.25037 0
M  V30 9066 C 739.436 -2.15547 4.52261 0
M  V30 9067 H 742.177 -1.93379 8.46595 0
M  V30 9068 H 742.446 -1.68132 6.70852 0
M  V30 9069 H 741.579 0.289041 8.15388 0
M  V30 9070 H 738.924 0.926847 5.72749 0
M  V30 9071 H 738.645 -1.86973 6.82036 0
M  V30 9072 H 737.653 -0.403896 7.13257 0
M  V30 9073 H 739.487 -1.20585 8.97435 0
M  V30 9074 H 739.558 -2.71231 5.45042 0
M  V30 9075 H 738.528 -4.76966 3.49992 0
M  V30 9076 H 740.265 -4.67047 3.95024 0
M  V30 9077 H 739.777 -4.58996 2.22312 0
M  V30 9078 H 739.041 -0.214893 1.39758 0
M  V30 9079 P 737.616 1.17771 8.83182 0
M  V30 9080 O 737.396 2.07206 9.98732 0
M  V30 9081 O 736.826 -0.0743816 8.81969 0
M  V30 9082 O 737.366 1.97652 7.47304 0
M  V30 9083 C 738.306 3.01133 7.08783 0
M  V30 9084 C 737.576 4.12613 6.37049 0
M  V30 9085 O 737.366 3.72827 4.97879 0
M  V30 9086 C 736.176 4.45085 6.88694 0
M  V30 9087 O 735.786 5.7877 6.5624 0
M  V30 9088 C 735.296 3.47817 6.12078 0
M  V30 9089 C 736.006 3.39414 4.77697 0
M  V30 9090 N 735.956 2.04199 4.15538 0
M  V30 9091 C 736.036 0.821545 4.76977 0
M  V30 9092 N 735.966 -0.1794 3.94592 0
M  V30 9093 C 735.816 0.419121 2.70776 0
M  V30 9094 C 735.686 -0.109072 1.40577 0
M  V30 9095 N 735.676 -1.4104 1.1344 0
M  V30 9096 N 735.566 0.764381 0.39411 0
M  V30 9097 C 735.576 2.06587 0.664135 0
M  V30 9098 N 735.696 2.67948 1.82153 0
M  V30 9099 C 735.816 1.77942 2.8147 0
M  V30 9100 H 738.795 3.41248 7.98759 0
M  V30 9101 H 739.067 2.57728 6.42 0
M  V30 9102 H 738.199 5.02657 6.42673 0
M  V30 9103 H 735.544 4.11708 4.08956 0
M  V30 9104 H 735.264 2.49626 6.61679 0
M  V30 9105 H 734.273 3.8662 6.00862 0
M  V30 9106 H 736.107 4.29991 7.97006 0
M  V30 9107 H 736.148 0.702451 5.84696 0
M  V30 9108 H 735.767 -2.09647 1.89651 0
M  V30 9109 H 735.578 -1.73358 0.160575 0
M  V30 9110 H 735.47 2.71695 -0.195838 0
M  V30 9111 P 734.236 6.144 6.45285 0
M  V30 9112 O 734.016 7.54673 6.86199 0
M  V30 9113 O 733.446 5.12391 7.179 0
M  V30 9114 O 733.986 5.99158 4.88404 0
M  V30 9115 C 734.926 6.60234 3.96415 0
M  V30 9116 C 734.196 7.08259 2.72856 0
M  V30 9117 O 733.986 5.9427 1.83651 0
M  V30 9118 C 732.796 7.64886 2.9555 0
M  V30 9119 O 732.406 8.53963 1.90717 0
M  V30 9120 C 731.916 6.4116 2.90739 0
M  V30 9121 C 732.626 5.55375 1.86963 0
M  V30 9122 N 732.576 4.09664 2.15742 0
M  V30 9123 H 735.415 7.45574 4.45629 0
M  V30 9124 H 735.687 5.86232 3.67314 0
M  V30 9125 H 734.819 7.84412 2.24479 0
M  V30 9126 P 730.856 8.7635 1.60911 0
M  V30 9127 O 730.636 10.1388 1.11561 0
M  V30 9128 O 730.066 8.36503 2.79617 0
M  V30 9129 O 730.606 7.71906 0.429565 0
M  V30 9130 C 731.546 7.67148 -0.673689 0
M  V30 9131 C 730.816 7.33666 -1.94851 0
M  V30 9132 O 730.606 5.88816 -2.00759 0
M  V30 9133 C 729.416 7.92526 -2.10483 0
M  V30 9134 O 729.026 8.03063 -3.47693 0
M  V30 9135 C 728.536 6.89602 -1.41652 0
M  V30 9136 C 729.246 5.59201 -1.75185 0
M  V30 9137 N 729.196 4.58235 -0.662552 0
M  V30 9138 C 729.046 3.24451 -1.01643 0
M  V30 9139 O 728.956 2.94958 -2.21722 0
M  V30 9140 N 728.996 2.30408 0.165238 0
M  V30 9141 C 729.096 2.66048 1.25118 0
M  V30 9142 N 729.046 1.70787 2.16813 0
M  V30 9143 C 729.246 4.02732 1.64413 0
M  V30 9144 C 729.296 4.9488 0.63991 0
M  V30 9145 H 732.036 8.65017 -0.777072 0
M  V30 9146 H 732.306 6.90173 -0.474152 0
M  V30 9147 H 731.439 7.66642 -2.79492 0
M  V30 9148 H 728.784 5.16254 -2.65229 0
M  V30 9149 H 728.504 7.06532 -0.329431 0
M  V30 9150 H 727.513 6.91023 -1.82047 0
M  V30 9151 H 729.347 8.90873 -1.62657 0
M  V30 9152 H 729.419 6.00104 0.892197 0
M  V30 9153 H 729.317 4.31733 2.69229 0
M  V30 9154 H 728.929 0.724835 1.8844 0
M  V30 9155 H 729.125 1.94716 3.16734 0
M  V30 9156 P 727.476 8.03563 -3.84925 0
M  V30 9157 O 727.256 8.85821 -5.0569 0
M  V30 9158 O 726.686 8.41101 -2.65469 0
M  V30 9159 O 727.226 6.4965 -4.18908 0
M  V30 9160 C 728.166 5.81037 -5.05421 0
M  V30 9161 C 727.436 4.78366 -5.89277 0
M  V30 9162 O 727.226 3.58302 -5.08433 0
M  V30 9163 C 726.036 5.17448 -6.36119 0
M  V30 9164 O 725.646 4.45271 -7.53232 0
M  V30 9165 C 725.156 4.74639 -5.19936 0
M  V30 9166 C 725.866 3.49432 -4.70418 0
M  V30 9167 N 725.816 3.31776 -3.22945 0
M  V30 9168 H 728.655 6.54213 -5.71376 0
M  V30 9169 H 728.927 5.30492 -4.44033 0
M  V30 9170 H 728.059 4.55889 -6.76652 0
M  V30 9171 P 724.096 4.23843 -7.83734 0
M  V30 9172 O 723.876 4.19407 -9.29784 0
M  V30 9173 O 723.306 5.24426 -7.09156 0
M  V30 9174 O 723.846 2.7935 -7.20758 0
M  V30 9175 C 724.786 1.7299 -7.50419 0
M  V30 9176 C 724.056 0.406376 -7.57911 0
M  V30 9177 O 723.846 -0.0897726 -6.21935 0
M  V30 9178 C 722.656 0.447224 -8.1878 0
M  V30 9179 O 722.266 -0.825065 -8.71101 0
M  V30 9180 C 721.776 0.783801 -6.99623 0
M  V30 9181 C 722.486 0.0619192 -5.85967 0
M  V30 9182 N 722.436 0.7859 -4.56281 0
M  V30 9183 H 725.275 1.93423 -8.4679 0
M  V30 9184 H 725.547 1.68181 -6.71046 0
M  V30 9185 H 724.679 -0.289041 -8.15388 0
M  V30 9186 P 720.716 -1.17771 -8.83182 0
M  V30 9187 O 720.496 -2.07206 -9.98732 0
M  V30 9188 O 719.926 0.0743816 -8.81969 0
M  V30 9189 O 720.466 -1.97652 -7.47304 0
M  V30 9190 C 721.406 -3.01133 -7.08783 0
M  V30 9191 C 720.676 -4.12613 -6.37049 0
M  V30 9192 O 720.466 -3.72827 -4.97879 0
M  V30 9193 C 719.276 -4.45085 -6.88694 0
M  V30 9194 O 718.886 -5.7877 -6.5624 0
M  V30 9195 C 718.396 -3.47817 -6.12078 0
M  V30 9196 C 719.106 -3.39414 -4.77697 0
M  V30 9197 N 719.056 -2.04199 -4.15538 0
M  V30 9198 C 719.136 -0.821545 -4.76977 0
M  V30 9199 N 719.066 0.1794 -3.94592 0
M  V30 9200 C 718.916 -0.419121 -2.70776 0
M  V30 9201 C 718.786 0.109072 -1.40577 0
M  V30 9202 N 718.776 1.4104 -1.1344 0
M  V30 9203 N 718.666 -0.764381 -0.39411 0
M  V30 9204 C 718.676 -2.06587 -0.664135 0
M  V30 9205 N 718.796 -2.67948 -1.82153 0
M  V30 9206 C 718.916 -1.77942 -2.8147 0
M  V30 9207 H 721.895 -3.41248 -7.98759 0
M  V30 9208 H 722.167 -2.57728 -6.42 0
M  V30 9209 H 721.299 -5.02657 -6.42673 0
M  V30 9210 H 718.644 -4.11708 -4.08956 0
M  V30 9211 H 718.364 -2.49626 -6.61679 0
M  V30 9212 H 717.373 -3.8662 -6.00862 0
M  V30 9213 H 719.207 -4.29991 -7.97006 0
M  V30 9214 H 719.248 -0.702451 -5.84696 0
M  V30 9215 H 718.867 2.09647 -1.89651 0
M  V30 9216 H 718.678 1.73358 -0.160575 0
M  V30 9217 H 718.57 -2.71695 0.195838 0
M  V30 9218 P 717.336 -6.144 -6.45285 0
M  V30 9219 O 717.116 -7.54673 -6.86199 0
M  V30 9220 O 716.546 -5.12391 -7.179 0
M  V30 9221 O 717.086 -5.99158 -4.88404 0
M  V30 9222 C 718.026 -6.60234 -3.96415 0
M  V30 9223 C 717.296 -7.08259 -2.72856 0
M  V30 9224 O 717.086 -5.9427 -1.83651 0
M  V30 9225 C 715.896 -7.64886 -2.9555 0
M  V30 9226 O 715.506 -8.53963 -1.90717 0
M  V30 9227 C 715.016 -6.4116 -2.90739 0
M  V30 9228 C 715.726 -5.55375 -1.86963 0
M  V30 9229 N 715.676 -4.09664 -2.15742 0
M  V30 9230 H 718.515 -7.45574 -4.45629 0
M  V30 9231 H 718.787 -5.86232 -3.67314 0
M  V30 9232 H 717.919 -7.84412 -2.24479 0
M  V30 9233 P 713.956 -8.7635 -1.60911 0
M  V30 9234 O 713.736 -10.1388 -1.11561 0
M  V30 9235 O 713.166 -8.36503 -2.79617 0
M  V30 9236 O 713.706 -7.71806 -0.42951 0
M  V30 9237 C 714.646 -7.67148 0.673689 0
M  V30 9238 C 713.916 -7.33374 1.95559 0
M  V30 9239 O 713.706 -5.88721 2.00726 0
M  V30 9240 C 712.516 -7.92526 2.10483 0
M  V30 9241 O 712.126 -8.02971 3.47653 0
M  V30 9242 C 711.636 -6.89602 1.41652 0
M  V30 9243 C 712.346 -5.59201 1.75185 0
M  V30 9244 N 712.296 -4.58301 0.657969 0
M  V30 9245 H 715.135 -8.65116 0.777161 0
M  V30 9246 H 715.407 -6.9022 0.46725 0
M  V30 9247 H 714.539 -7.66548 2.79458 0
M  V30 9248 H 711.884 -5.16165 2.65183 0
M  V30 9249 H 711.604 -7.06433 0.329384 0
M  V30 9250 H 710.613 -6.90926 1.82021 0
M  V30 9251 H 712.447 -8.90873 1.62657 0
M  V30 9252 P 710.576 -8.03563 3.84925 0
M  V30 9253 O 710.356 -8.85821 5.0569 0
M  V30 9254 O 709.786 -8.41101 2.65469 0
M  V30 9255 O 710.326 -6.4965 4.18908 0
M  V30 9256 C 711.266 -5.80886 5.05289 0
M  V30 9257 C 710.536 -4.78366 5.89277 0
M  V30 9258 O 710.326 -3.58302 5.08433 0
M  V30 9259 C 709.136 -5.16748 6.36559 0
M  V30 9260 O 708.746 -4.45271 7.53232 0
M  V30 9261 C 708.256 -4.74572 5.19863 0
M  V30 9262 C 708.966 -3.49373 4.70338 0
M  V30 9263 N 708.916 -3.31704 3.22876 0
M  V30 9264 C 708.766 -2.03326 2.74871 0
M  V30 9265 O 708.676 -1.06486 3.48076 0
M  V30 9266 N 708.726 -1.91838 1.37456 0
M  V30 9267 C 708.816 -2.94295 0.462035 0
M  V30 9268 C 708.966 -4.25064 1.05249 0
M  V30 9269 C 709.016 -4.40214 2.39192 0
M  V30 9270 H 711.757 -6.54063 5.71245 0
M  V30 9271 H 712.026 -5.30339 4.43905 0
M  V30 9272 H 711.159 -4.55889 6.76652 0
M  V30 9273 H 708.504 -2.6167 5.17842 0
M  V30 9274 H 708.225 -5.52155 4.41878 0
M  V30 9275 H 707.233 -4.51918 5.53297 0
M  V30 9276 H 709.067 -6.25055 6.55162 0
M  V30 9277 H 709.138 -5.39798 2.81523 0
M  V30 9278 P 707.196 -4.23843 7.83734 0
M  V30 9279 O 706.976 -4.19407 9.29784 0
M  V30 9280 O 706.406 -5.24426 7.09156 0
M  V30 9281 O 706.946 -2.7935 7.20758 0
M  V30 9282 C 707.886 -1.7299 7.50419 0
M  V30 9283 C 707.156 -0.406376 7.57911 0
M  V30 9284 O 706.946 0.0897726 6.21935 0
M  V30 9285 C 705.756 -0.447224 8.1878 0
M  V30 9286 O 705.366 0.825065 8.71101 0
M  V30 9287 C 704.876 -0.783801 6.99623 0
M  V30 9288 C 705.586 -0.0619192 5.85967 0
M  V30 9289 N 705.536 -0.7859 4.56281 0
M  V30 9290 H 708.375 -1.93423 8.4679 0
M  V30 9291 H 708.647 -1.68181 6.71046 0
M  V30 9292 H 707.779 0.289041 8.15388 0
M  V30 9293 P 703.816 1.17771 8.83182 0
M  V30 9294 O 703.596 2.07206 9.98732 0
M  V30 9295 O 703.026 -0.0743816 8.81969 0
M  V30 9296 O 703.566 1.97652 7.47304 0
M  V30 9297 C 704.506 3.01133 7.08783 0
M  V30 9298 C 703.776 4.12613 6.37049 0
M  V30 9299 O 703.566 3.72827 4.97879 0
M  V30 9300 C 702.376 4.45085 6.88694 0
M  V30 9301 O 701.986 5.7877 6.5624 0
M  V30 9302 C 701.496 3.47817 6.12078 0
M  V30 9303 C 702.206 3.39414 4.77697 0
M  V30 9304 N 702.156 2.04615 4.15333 0
M  V30 9305 H 704.995 3.41248 7.98759 0
M  V30 9306 H 705.267 2.5837 6.41742 0
M  V30 9307 H 704.399 5.02657 6.42673 0
M  V30 9308 P 700.436 6.144 6.45285 0
M  V30 9309 O 700.216 7.54673 6.86199 0
M  V30 9310 O 699.646 5.12391 7.179 0
M  V30 9311 O 700.186 5.99158 4.88404 0
M  V30 9312 C 701.126 6.60062 3.96313 0
M  V30 9313 C 700.396 7.08259 2.72856 0
M  V30 9314 O 700.186 5.9427 1.83651 0
M  V30 9315 C 698.996 7.65087 2.94749 0
M  V30 9316 O 698.606 8.53963 1.90717 0
M  V30 9317 C 698.116 6.41069 2.90698 0
M  V30 9318 C 698.826 5.5528 1.86931 0
M  V30 9319 N 698.776 4.09575 2.15696 0
M  V30 9320 C 698.626 3.24249 1.08435 0
M  V30 9321 O 698.536 3.63946 -0.0628747 0
M  V30 9322 N 698.586 1.90009 1.39973 0
M  V30 9323 C 698.676 1.34884 2.65614 0
M  V30 9324 C 698.826 2.3145 3.71736 0
M  V30 9325 C 698.876 3.63518 3.44754 0
M  V30 9326 H 701.617 7.45402 4.45526 0
M  V30 9327 H 701.886 5.86062 3.67208 0
M  V30 9328 H 701.019 7.84412 2.24479 0
M  V30 9329 H 698.364 5.73358 0.888409 0
M  V30 9330 H 698.085 5.90877 3.88583 0
M  V30 9331 H 697.093 6.65867 2.58821 0
M  V30 9332 H 698.927 8.16248 3.92006 0
M  V30 9333 H 698.998 4.34551 4.26383 0
M  V30 9334 P 697.056 8.7635 1.60911 0
M  V30 9335 O 696.836 10.1388 1.11561 0
M  V30 9336 O 696.266 8.36503 2.79617 0
M  V30 9337 O 696.806 7.71806 0.42951 0
M  V30 9338 C 697.746 7.67148 -0.673689 0
M  V30 9339 C 697.016 7.33374 -1.95559 0
M  V30 9340 O 696.806 5.88721 -2.00726 0
M  V30 9341 C 695.616 7.92526 -2.10483 0
M  V30 9342 O 695.226 8.02971 -3.47653 0
M  V30 9343 C 694.736 6.89602 -1.41652 0
M  V30 9344 C 695.446 5.59201 -1.75185 0
M  V30 9345 N 695.396 4.58235 -0.662552 0
M  V30 9346 H 698.235 8.65116 -0.777161 0
M  V30 9347 H 698.507 6.90173 -0.474152 0
M  V30 9348 H 697.639 7.66548 -2.79458 0
M  V30 9349 P 693.676 8.03563 -3.84925 0
M  V30 9350 O 693.456 8.85821 -5.0569 0
M  V30 9351 O 692.886 8.41101 -2.65469 0
M  V30 9352 O 693.426 6.4965 -4.18908 0
M  V30 9353 C 694.366 5.81037 -5.05421 0
M  V30 9354 C 693.636 4.78366 -5.89277 0
M  V30 9355 O 693.426 3.58302 -5.08433 0
M  V30 9356 C 692.236 5.17448 -6.36119 0
M  V30 9357 O 691.846 4.45271 -7.53232 0
M  V30 9358 C 691.356 4.74639 -5.19936 0
M  V30 9359 C 692.066 3.49432 -4.70418 0
M  V30 9360 N 692.016 3.31776 -3.22945 0
M  V30 9361 H 694.855 6.54213 -5.71376 0
M  V30 9362 H 695.127 5.30492 -4.44033 0
M  V30 9363 H 694.259 4.55889 -6.76652 0
M  V30 9364 P 690.296 4.23843 -7.83734 0
M  V30 9365 O 690.076 4.19407 -9.29784 0
M  V30 9366 O 689.506 5.24426 -7.09156 0
M  V30 9367 O 690.046 2.7935 -7.20758 0
M  V30 9368 C 690.986 1.7299 -7.50419 0
M  V30 9369 C 690.256 0.406376 -7.57911 0
M  V30 9370 O 690.046 -0.0897726 -6.21935 0
M  V30 9371 C 688.856 0.447224 -8.1878 0
M  V30 9372 O 688.466 -0.825065 -8.71101 0
M  V30 9373 C 687.976 0.783801 -6.99623 0
M  V30 9374 C 688.686 0.0619192 -5.85967 0
M  V30 9375 N 688.636 0.7859 -4.56281 0
M  V30 9376 H 691.475 1.93423 -8.4679 0
M  V30 9377 H 691.747 1.68181 -6.71046 0
M  V30 9378 H 690.879 -0.289041 -8.15388 0
M  V30 9379 P 686.916 -1.17771 -8.83182 0
M  V30 9380 O 686.696 -2.07206 -9.98732 0
M  V30 9381 O 686.126 0.0743816 -8.81969 0
M  V30 9382 O 686.666 -1.97652 -7.47304 0
M  V30 9383 C 687.606 -3.01133 -7.08783 0
M  V30 9384 C 686.876 -4.12613 -6.37049 0
M  V30 9385 O 686.666 -3.72827 -4.97879 0
M  V30 9386 C 685.476 -4.45085 -6.88694 0
M  V30 9387 O 685.086 -5.7877 -6.5624 0
M  V30 9388 C 684.596 -3.47817 -6.12078 0
M  V30 9389 C 685.306 -3.39414 -4.77697 0
M  V30 9390 N 685.256 -2.04615 -4.15333 0
M  V30 9391 H 688.095 -3.41248 -7.98759 0
M  V30 9392 H 688.367 -2.5837 -6.41742 0
M  V30 9393 H 687.499 -5.02657 -6.42673 0
M  V30 9394 P 683.536 -6.144 -6.45285 0
M  V30 9395 O 683.316 -7.54673 -6.86199 0
M  V30 9396 O 682.746 -5.12391 -7.179 0
M  V30 9397 O 683.286 -5.99158 -4.88404 0
M  V30 9398 C 684.226 -6.60234 -3.96415 0
M  V30 9399 C 683.496 -7.08259 -2.72856 0
M  V30 9400 O 683.286 -5.9427 -1.83651 0
M  V30 9401 C 682.096 -7.64886 -2.9555 0
M  V30 9402 O 681.706 -8.53963 -1.90717 0
M  V30 9403 C 681.216 -6.4116 -2.90739 0
M  V30 9404 C 681.926 -5.55375 -1.86963 0
M  V30 9405 N 681.876 -4.09664 -2.15742 0
M  V30 9406 H 684.715 -7.45574 -4.45629 0
M  V30 9407 H 684.987 -5.86232 -3.67314 0
M  V30 9408 H 684.119 -7.84412 -2.24479 0
M  V30 9409 P 680.156 -8.7635 -1.60911 0
M  V30 9410 O 679.936 -10.1388 -1.11561 0
M  V30 9411 O 679.366 -8.36503 -2.79617 0
M  V30 9412 O 679.906 -7.71806 -0.42951 0
M  V30 9413 C 680.846 -7.67148 0.673689 0
M  V30 9414 C 680.116 -7.33374 1.95559 0
M  V30 9415 O 679.906 -5.88721 2.00726 0
M  V30 9416 C 678.716 -7.92526 2.10483 0
M  V30 9417 O 678.326 -8.02971 3.47653 0
M  V30 9418 C 677.836 -6.89602 1.41652 0
M  V30 9419 C 678.546 -5.59201 1.75185 0
M  V30 9420 N 678.496 -4.58301 0.657969 0
M  V30 9421 C 678.576 -4.79019 -0.692603 0
M  V30 9422 N 678.506 -3.69736 -1.38998 0
M  V30 9423 C 678.356 -2.70474 -0.438135 0
M  V30 9424 C 678.226 -1.30327 -0.538142 0
M  V30 9425 N 678.216 -0.64304 -1.69192 0
M  V30 9426 N 678.106 -0.611027 0.605183 0
M  V30 9427 C 678.116 -1.27002 1.75953 0
M  V30 9428 N 678.236 -2.56038 1.98546 0
M  V30 9429 C 678.356 -3.22681 0.822541 0
M  V30 9430 H 681.335 -8.65116 0.777161 0
M  V30 9431 H 681.607 -6.9022 0.46725 0
M  V30 9432 H 680.739 -7.66548 2.79458 0
M  V30 9433 H 678.084 -5.16165 2.65183 0
M  V30 9434 H 677.804 -7.06433 0.329384 0
M  V30 9435 H 676.813 -6.90926 1.82021 0
M  V30 9436 H 678.647 -8.90873 1.62657 0
M  V30 9437 H 678.688 -5.77785 -1.13874 0
M  V30 9438 H 678.307 -1.15585 -2.57991 0
M  V30 9439 H 678.118 0.382989 -1.69835 0
M  V30 9440 H 678.01 -0.653331 2.64449 0
M  V30 9441 P 676.776 -8.03563 3.84925 0
M  V30 9442 O 676.556 -8.85821 5.0569 0
M  V30 9443 O 675.986 -8.41101 2.65469 0
M  V30 9444 O 676.526 -6.4965 4.18908 0
M  V30 9445 C 677.466 -5.80886 5.05289 0
M  V30 9446 C 676.736 -4.78366 5.89277 0
M  V30 9447 O 676.526 -3.58302 5.08433 0
M  V30 9448 C 675.336 -5.16748 6.36559 0
M  V30 9449 O 674.946 -4.45271 7.53232 0
M  V30 9450 C 674.456 -4.74572 5.19863 0
M  V30 9451 C 675.166 -3.49373 4.70338 0
M  V30 9452 N 675.116 -3.31704 3.22876 0
M  V30 9453 C 674.966 -2.03326 2.74871 0
M  V30 9454 O 674.876 -1.06486 3.48076 0
M  V30 9455 N 674.926 -1.91838 1.37456 0
M  V30 9456 C 675.016 -2.94295 0.462035 0
M  V30 9457 C 675.166 -4.25064 1.05249 0
M  V30 9458 C 675.216 -4.40214 2.39192 0
M  V30 9459 H 677.957 -6.54063 5.71245 0
M  V30 9460 H 678.226 -5.30339 4.43905 0
M  V30 9461 H 677.359 -4.55889 6.76652 0
M  V30 9462 H 674.704 -2.6167 5.17842 0
M  V30 9463 H 674.425 -5.52155 4.41878 0
M  V30 9464 H 673.433 -4.51918 5.53297 0
M  V30 9465 H 675.267 -6.25055 6.55162 0
M  V30 9466 H 675.338 -5.39798 2.81523 0
M  V30 9467 P 673.396 -4.23843 7.83734 0
M  V30 9468 O 673.176 -4.19407 9.29784 0
M  V30 9469 O 672.606 -5.24426 7.09156 0
M  V30 9470 O 673.146 -2.7935 7.20758 0
M  V30 9471 C 674.086 -1.7299 7.50419 0
M  V30 9472 C 673.356 -0.406376 7.57911 0
M  V30 9473 O 673.146 0.0897726 6.21935 0
M  V30 9474 C 671.956 -0.447224 8.1878 0
M  V30 9475 O 671.566 0.825065 8.71101 0
M  V30 9476 C 671.076 -0.783801 6.99623 0
M  V30 9477 C 671.786 -0.0619192 5.85967 0
M  V30 9478 N 671.736 -0.7859 4.56281 0
M  V30 9479 H 674.575 -1.93423 8.4679 0
M  V30 9480 H 674.847 -1.68181 6.71046 0
M  V30 9481 H 673.979 0.289041 8.15388 0
M  V30 9482 P 670.016 1.17771 8.83182 0
M  V30 9483 O 669.796 2.07206 9.98732 0
M  V30 9484 O 669.226 -0.0743816 8.81969 0
M  V30 9485 O 669.766 1.97652 7.47304 0
M  V30 9486 C 670.706 3.01133 7.08783 0
M  V30 9487 C 669.976 4.12613 6.37049 0
M  V30 9488 O 669.766 3.72827 4.97879 0
M  V30 9489 C 668.576 4.45085 6.88694 0
M  V30 9490 O 668.186 5.7877 6.5624 0
M  V30 9491 C 667.696 3.47817 6.12078 0
M  V30 9492 C 668.406 3.39414 4.77697 0
M  V30 9493 N 668.356 2.04615 4.15333 0
M  V30 9494 H 671.195 3.41248 7.98759 0
M  V30 9495 H 671.467 2.5837 6.41742 0
M  V30 9496 H 670.599 5.02657 6.42673 0
M  V30 9497 P 666.636 6.144 6.45285 0
M  V30 9498 O 666.416 7.54673 6.86199 0
M  V30 9499 O 665.846 5.12391 7.179 0
M  V30 9500 O 666.386 5.99158 4.88404 0
M  V30 9501 C 667.326 6.60234 3.96415 0
M  V30 9502 C 666.596 7.08259 2.72856 0
M  V30 9503 O 666.386 5.9427 1.83651 0
M  V30 9504 C 665.196 7.64886 2.9555 0
M  V30 9505 O 664.806 8.53963 1.90717 0
M  V30 9506 C 664.316 6.4116 2.90739 0
M  V30 9507 C 665.026 5.55375 1.86963 0
M  V30 9508 N 664.976 4.09448 2.16152 0
M  V30 9509 C 665.056 3.46824 3.37593 0
M  V30 9510 N 664.986 2.17422 3.29777 0
M  V30 9511 C 664.836 1.93065 1.94427 0
M  V30 9512 C 664.706 0.738053 1.20141 0
M  V30 9513 N 664.696 -0.474256 1.74676 0
M  V30 9514 N 664.586 0.850049 -0.13045 0
M  V30 9515 C 664.596 2.06169 -0.676992 0
M  V30 9516 N 664.716 3.23842 -0.101312 0
M  V30 9517 C 664.836 3.09402 1.23122 0
M  V30 9518 H 667.815 7.45574 4.45629 0
M  V30 9519 H 668.087 5.85864 3.679 0
M  V30 9520 H 667.219 7.84412 2.24479 0
M  V30 9521 H 664.564 5.73457 0.888562 0
M  V30 9522 H 664.284 5.90877 3.88583 0
M  V30 9523 H 663.293 6.6596 2.58858 0
M  V30 9524 H 665.127 8.16339 3.92049 0
M  V30 9525 H 665.168 4.00505 4.3174 0
M  V30 9526 H 664.787 -0.581337 2.76658 0
M  V30 9527 H 664.598 -1.30811 1.14888 0
M  V30 9528 H 664.49 2.08295 -1.75542 0
M  V30 9529 P 663.256 8.7635 1.60911 0
M  V30 9530 O 663.036 10.1388 1.11561 0
M  V30 9531 O 662.466 8.36503 2.79617 0
M  V30 9532 O 663.006 7.71806 0.42951 0
M  V30 9533 C 663.946 7.67148 -0.673689 0
M  V30 9534 C 663.216 7.33374 -1.95559 0
M  V30 9535 O 663.006 5.88721 -2.00726 0
M  V30 9536 C 661.816 7.92526 -2.10483 0
M  V30 9537 O 661.426 8.02971 -3.47653 0
M  V30 9538 C 660.936 6.89602 -1.41652 0
M  V30 9539 C 661.646 5.59201 -1.75185 0
M  V30 9540 N 661.596 4.58301 -0.657969 0
M  V30 9541 H 664.435 8.65116 -0.777161 0
M  V30 9542 H 664.707 6.9022 -0.46725 0
M  V30 9543 H 663.839 7.66548 -2.79458 0
M  V30 9544 H 661.184 5.16165 -2.65183 0
M  V30 9545 H 660.904 7.06433 -0.329384 0
M  V30 9546 H 659.913 6.90926 -1.82021 0
M  V30 9547 H 661.747 8.90873 -1.62657 0
M  V30 9548 P 659.876 8.03563 -3.84925 0
M  V30 9549 O 659.656 8.85821 -5.0569 0
M  V30 9550 O 659.086 8.41101 -2.65469 0
M  V30 9551 O 659.626 6.4965 -4.18908 0
M  V30 9552 C 660.566 5.81037 -5.05421 0
M  V30 9553 C 659.836 4.78366 -5.89277 0
M  V30 9554 O 659.626 3.58302 -5.08433 0
M  V30 9555 C 658.436 5.17448 -6.36119 0
M  V30 9556 O 658.046 4.45271 -7.53232 0
M  V30 9557 C 657.556 4.74639 -5.19936 0
M  V30 9558 C 658.266 3.49432 -4.70418 0
M  V30 9559 N 658.216 3.32099 -3.22613 0
M  V30 9560 H 661.055 6.54213 -5.71376 0
M  V30 9561 H 661.327 5.30936 -4.43503 0
M  V30 9562 H 660.459 4.55889 -6.76652 0
M  V30 9563 H 657.804 2.61715 -5.17932 0
M  V30 9564 H 657.524 5.52155 -4.41878 0
M  V30 9565 H 656.533 4.51981 -5.53374 0
M  V30 9566 H 658.367 6.25124 -6.55234 0
M  V30 9567 P 656.496 4.23843 -7.83734 0
M  V30 9568 O 656.276 4.19407 -9.29784 0
M  V30 9569 O 655.706 5.24426 -7.09156 0
M  V30 9570 O 656.246 2.79386 -7.20852 0
M  V30 9571 C 657.186 1.7299 -7.50419 0
M  V30 9572 C 656.456 0.41401 -7.5797 0
M  V30 9573 O 656.246 -0.089787 -6.22035 0
M  V30 9574 C 655.056 0.447224 -8.1878 0
M  V30 9575 O 654.666 -0.825159 -8.71201 0
M  V30 9576 C 654.176 0.783801 -6.99623 0
M  V30 9577 C 654.886 0.0619192 -5.85967 0
M  V30 9578 N 654.836 0.7859 -4.56281 0
M  V30 9579 C 654.686 0.0359258 -3.39981 0
M  V30 9580 O 654.596 -1.19723 -3.49038 0
M  V30 9581 N 654.636 0.869151 -2.14025 0
M  V30 9582 C 654.736 2.01207 -2.14363 0
M  V30 9583 N 654.686 2.58978 -0.954287 0
M  V30 9584 C 654.886 2.80817 -3.32215 0
M  V30 9585 C 654.936 2.13785 -4.50884 0
M  V30 9586 H 657.676 1.93401 -8.46693 0
M  V30 9587 H 657.946 1.68181 -6.71046 0
M  V30 9588 H 657.079 -0.289076 -8.15488 0
M  V30 9589 H 654.424 -0.927166 -5.72947 0
M  V30 9590 H 654.144 1.87 -6.82132 0
M  V30 9591 H 653.153 0.404009 -7.13457 0
M  V30 9592 H 654.987 1.20599 -8.97534 0
M  V30 9593 H 655.059 2.70295 -5.43162 0
M  V30 9594 H 654.957 3.89465 -3.27406 0
M  V30 9595 H 654.569 2.01616 -0.107046 0
M  V30 9596 H 654.765 3.61403 -0.873101 0
M  V30 9597 P 653.116 -1.17771 -8.83182 0
M  V30 9598 O 652.896 -2.07206 -9.98732 0
M  V30 9599 O 652.326 0.0743816 -8.81969 0
M  V30 9600 O 652.866 -1.97652 -7.47304 0
M  V30 9601 C 653.806 -3.01133 -7.08783 0
M  V30 9602 C 653.076 -4.12613 -6.37049 0
M  V30 9603 O 652.866 -3.72827 -4.97879 0
M  V30 9604 C 651.676 -4.45085 -6.88694 0
M  V30 9605 O 651.286 -5.7877 -6.5624 0
M  V30 9606 C 650.796 -3.47817 -6.12078 0
M  V30 9607 C 651.506 -3.39414 -4.77697 0
M  V30 9608 N 651.456 -2.04615 -4.15333 0
M  V30 9609 C 651.536 -0.803897 -4.75249 0
M  V30 9610 N 651.456 0.197615 -3.91502 0
M  V30 9611 C 651.316 -0.413002 -2.66823 0
M  V30 9612 C 651.186 0.157221 -1.38007 0
M  V30 9613 N 651.066 -0.833136 -0.390236 0
M  V30 9614 C 651.066 -2.19402 -0.623885 0
M  V30 9615 N 650.936 -2.97622 0.449677 0
M  V30 9616 N 651.196 -2.73005 -1.83601 0
M  V30 9617 C 651.316 -1.78786 -2.80935 0
M  V30 9618 H 654.295 -3.41248 -7.98759 0
M  V30 9619 H 654.567 -2.5837 -6.41742 0
M  V30 9620 H 653.699 -5.02657 -6.42673 0
M  V30 9621 P 649.736 -6.144 -6.45285 0
M  V30 9622 O 649.516 -7.54673 -6.86199 0
M  V30 9623 O 648.946 -5.12391 -7.179 0
M  V30 9624 O 649.486 -5.99158 -4.88404 0
M  V30 9625 C 650.426 -6.60234 -3.96415 0
M  V30 9626 C 649.696 -7.08259 -2.72856 0
M  V30 9627 O 649.486 -5.9427 -1.83651 0
M  V30 9628 C 648.296 -7.64886 -2.9555 0
M  V30 9629 O 647.906 -8.53963 -1.90717 0
M  V30 9630 C 647.416 -6.4116 -2.90739 0
M  V30 9631 C 648.126 -5.55375 -1.86963 0
M  V30 9632 N 648.076 -4.09664 -2.15742 0
M  V30 9633 H 650.915 -7.45574 -4.45629 0
M  V30 9634 H 651.187 -5.86232 -3.67314 0
M  V30 9635 H 650.319 -7.84412 -2.24479 0
M  V30 9636 P 646.356 -8.7635 -1.60911 0
M  V30 9637 O 646.136 -10.1388 -1.11561 0
M  V30 9638 O 645.566 -8.36503 -2.79617 0
M  V30 9639 O 646.106 -7.71806 -0.42951 0
M  V30 9640 C 647.046 -7.67148 0.673689 0
M  V30 9641 C 646.316 -7.33374 1.95559 0
M  V30 9642 O 646.106 -5.88721 2.00726 0
M  V30 9643 C 644.916 -7.92526 2.10483 0
M  V30 9644 O 644.526 -8.02971 3.47653 0
M  V30 9645 C 644.036 -6.89602 1.41652 0
M  V30 9646 C 644.746 -5.59201 1.75185 0
M  V30 9647 N 644.696 -4.58235 0.662552 0
M  V30 9648 H 647.535 -8.65116 0.777161 0
M  V30 9649 H 647.807 -6.90173 0.474152 0
M  V30 9650 H 646.939 -7.66548 2.79458 0
M  V30 9651 P 642.976 -8.03563 3.84925 0
M  V30 9652 O 642.756 -8.85821 5.0569 0
M  V30 9653 O 642.186 -8.41101 2.65469 0
M  V30 9654 O 642.726 -6.4965 4.18908 0
M  V30 9655 C 643.666 -5.81037 5.05421 0
M  V30 9656 C 642.936 -4.78366 5.89277 0
M  V30 9657 O 642.726 -3.58302 5.08433 0
M  V30 9658 C 641.536 -5.17448 6.36119 0
M  V30 9659 O 641.146 -4.45271 7.53232 0
M  V30 9660 C 640.656 -4.74639 5.19936 0
M  V30 9661 C 641.366 -3.49432 4.70418 0
M  V30 9662 N 641.316 -3.31776 3.22945 0
M  V30 9663 H 644.155 -6.54213 5.71376 0
M  V30 9664 H 644.427 -5.30492 4.44033 0
M  V30 9665 H 643.559 -4.55889 6.76652 0
M  V30 9666 P 639.596 -4.23843 7.83734 0
M  V30 9667 O 639.376 -4.19407 9.29784 0
M  V30 9668 O 638.806 -5.24426 7.09156 0
M  V30 9669 O 639.346 -2.7935 7.20758 0
M  V30 9670 C 640.286 -1.72945 7.50224 0
M  V30 9671 C 639.556 -0.406376 7.57911 0
M  V30 9672 O 639.346 0.0897726 6.21935 0
M  V30 9673 C 638.156 -0.438983 8.18724 0
M  V30 9674 O 637.766 0.825065 8.71101 0
M  V30 9675 C 637.276 -0.783689 6.99524 0
M  V30 9676 C 637.986 -0.0619086 5.85867 0
M  V30 9677 N 637.936 -0.78573 4.56183 0
M  V30 9678 C 637.786 -0.0292889 3.41887 0
M  V30 9679 O 637.696 1.18445 3.4419 0
M  V30 9680 N 637.746 -0.744061 2.23964 0
M  V30 9681 C 637.836 -2.10932 2.10362 0
M  V30 9682 C 637.986 -2.8202 3.34994 0
M  V30 9683 C 638.036 -2.15547 4.52261 0
M  V30 9684 H 640.777 -1.93379 8.46595 0
M  V30 9685 H 641.046 -1.68132 6.70852 0
M  V30 9686 H 640.179 0.289041 8.15388 0
M  V30 9687 H 637.524 0.926847 5.72749 0
M  V30 9688 H 637.245 -1.86973 6.82036 0
M  V30 9689 H 636.253 -0.403896 7.13257 0
M  V30 9690 H 638.087 -1.20585 8.97435 0
M  V30 9691 H 638.158 -2.71231 5.45042 0
M  V30 9692 P 636.216 1.17771 8.83182 0
M  V30 9693 O 635.996 2.07206 9.98732 0
M  V30 9694 O 635.426 -0.0743816 8.81969 0
M  V30 9695 O 635.966 1.97652 7.47304 0
M  V30 9696 C 636.906 3.01133 7.08783 0
M  V30 9697 C 636.176 4.12613 6.37049 0
M  V30 9698 O 635.966 3.72827 4.97879 0
M  V30 9699 C 634.776 4.45085 6.88694 0
M  V30 9700 O 634.386 5.7877 6.5624 0
M  V30 9701 C 633.896 3.47817 6.12078 0
M  V30 9702 C 634.606 3.39414 4.77697 0
M  V30 9703 N 634.556 2.04199 4.15538 0
M  V30 9704 H 637.395 3.41248 7.98759 0
M  V30 9705 H 637.667 2.57728 6.42 0
M  V30 9706 H 636.799 5.02657 6.42673 0
M  V30 9707 H 634.144 4.11708 4.08956 0
M  V30 9708 H 633.864 2.49626 6.61679 0
M  V30 9709 H 632.873 3.8662 6.00862 0
M  V30 9710 H 634.707 4.29991 7.97006 0
M  V30 9711 P 632.836 6.144 6.45285 0
M  V30 9712 O 632.616 7.54673 6.86199 0
M  V30 9713 O 632.046 5.12391 7.179 0
M  V30 9714 O 632.586 5.99158 4.88404 0
M  V30 9715 C 633.526 6.60234 3.96415 0
M  V30 9716 C 632.796 7.08259 2.72856 0
M  V30 9717 O 632.586 5.9427 1.83651 0
M  V30 9718 C 631.396 7.64886 2.9555 0
M  V30 9719 O 631.006 8.53963 1.90717 0
M  V30 9720 C 630.516 6.4116 2.90739 0
M  V30 9721 C 631.226 5.55375 1.86963 0
M  V30 9722 N 631.176 4.09664 2.15742 0
M  V30 9723 H 634.015 7.45574 4.45629 0
M  V30 9724 H 634.287 5.86232 3.67314 0
M  V30 9725 H 633.419 7.84412 2.24479 0
M  V30 9726 P 629.456 8.7635 1.60911 0
M  V30 9727 O 629.236 10.1388 1.11561 0
M  V30 9728 O 628.666 8.36503 2.79617 0
M  V30 9729 O 629.206 7.71806 0.42951 0
M  V30 9730 C 630.146 7.67148 -0.673689 0
M  V30 9731 C 629.416 7.33374 -1.95559 0
M  V30 9732 O 629.206 5.88721 -2.00726 0
M  V30 9733 C 628.016 7.92526 -2.10483 0
M  V30 9734 O 627.626 8.02971 -3.47653 0
M  V30 9735 C 627.136 6.89602 -1.41652 0
M  V30 9736 C 627.846 5.59201 -1.75185 0
M  V30 9737 N 627.796 4.58235 -0.662552 0
M  V30 9738 H 630.635 8.65116 -0.777161 0
M  V30 9739 H 630.907 6.90173 -0.474152 0
M  V30 9740 H 630.039 7.66548 -2.79458 0
M  V30 9741 P 626.076 8.03563 -3.84925 0
M  V30 9742 O 625.856 8.85821 -5.0569 0
M  V30 9743 O 625.286 8.41101 -2.65469 0
M  V30 9744 O 625.826 6.4965 -4.18908 0
M  V30 9745 C 626.766 5.80886 -5.05289 0
M  V30 9746 C 626.036 4.78366 -5.89277 0
M  V30 9747 O 625.826 3.58302 -5.08433 0
M  V30 9748 C 624.636 5.16748 -6.36559 0
M  V30 9749 O 624.246 4.45271 -7.53232 0
M  V30 9750 C 623.756 4.74572 -5.19863 0
M  V30 9751 C 624.466 3.49373 -4.70338 0
M  V30 9752 N 624.416 3.31704 -3.22876 0
M  V30 9753 C 624.266 2.03326 -2.74871 0
M  V30 9754 O 624.176 1.06486 -3.48076 0
M  V30 9755 N 624.226 1.91838 -1.37456 0
M  V30 9756 C 624.316 2.94295 -0.462035 0
M  V30 9757 O 624.266 2.71763 0.752928 0
M  V30 9758 C 624.466 4.25064 -1.05249 0
M  V30 9759 C 624.576 5.39815 -0.095697 0
M  V30 9760 C 624.516 4.40214 -2.39192 0
M  V30 9761 H 627.257 6.54063 -5.71245 0
M  V30 9762 H 627.526 5.30339 -4.43905 0
M  V30 9763 H 626.659 4.55889 -6.76652 0
M  V30 9764 H 624.004 2.6167 -5.17842 0
M  V30 9765 H 623.725 5.52155 -4.41878 0
M  V30 9766 H 622.733 4.51918 -5.53297 0
M  V30 9767 H 624.567 6.25055 -6.55162 0
M  V30 9768 H 624.638 5.39798 -2.81523 0
M  V30 9769 H 623.608 5.91593 -0.0279582 0
M  V30 9770 H 625.345 6.10038 -0.450573 0
M  V30 9771 H 624.857 5.02007 0.89937 0
M  V30 9772 H 624.121 0.995326 -1.00435 0
M  V30 9773 P 622.696 4.23843 -7.83734 0
M  V30 9774 O 622.476 4.19407 -9.29784 0
M  V30 9775 O 621.906 5.24426 -7.09156 0
M  V30 9776 O 622.446 2.7935 -7.20758 0
M  V30 9777 C 623.386 1.7299 -7.50419 0
M  V30 9778 C 622.656 0.406376 -7.57911 0
M  V30 9779 O 622.446 -0.0897726 -6.21935 0
M  V30 9780 C 621.256 0.447224 -8.1878 0
M  V30 9781 O 620.866 -0.825065 -8.71101 0
M  V30 9782 C 620.376 0.783801 -6.99623 0
M  V30 9783 C 621.086 0.0619192 -5.85967 0
M  V30 9784 N 621.036 0.7859 -4.56281 0
M  V30 9785 H 623.875 1.93423 -8.4679 0
M  V30 9786 H 624.147 1.68181 -6.71046 0
M  V30 9787 H 623.279 -0.289041 -8.15388 0
M  V30 9788 P 619.316 -1.17771 -8.83182 0
M  V30 9789 O 619.096 -2.07206 -9.98732 0
M  V30 9790 O 618.526 0.0743816 -8.81969 0
M  V30 9791 O 619.066 -1.97652 -7.47304 0
M  V30 9792 C 620.006 -3.01133 -7.08783 0
M  V30 9793 C 619.276 -4.12613 -6.37049 0
M  V30 9794 O 619.066 -3.72827 -4.97879 0
M  V30 9795 C 617.876 -4.45085 -6.88694 0
M  V30 9796 O 617.486 -5.7877 -6.5624 0
M  V30 9797 C 616.996 -3.47817 -6.12078 0
M  V30 9798 C 617.706 -3.39414 -4.77697 0
M  V30 9799 N 617.656 -2.04615 -4.15333 0
M  V30 9800 C 617.736 -0.803897 -4.75249 0
M  V30 9801 N 617.656 0.197615 -3.91502 0
M  V30 9802 C 617.516 -0.413002 -2.66823 0
M  V30 9803 C 617.386 0.157221 -1.38007 0
M  V30 9804 O 617.366 1.34419 -1.057 0
M  V30 9805 N 617.266 -0.833136 -0.390236 0
M  V30 9806 C 617.266 -2.19402 -0.623885 0
M  V30 9807 N 617.136 -2.97622 0.449677 0
M  V30 9808 N 617.396 -2.73005 -1.83601 0
M  V30 9809 C 617.516 -1.78786 -2.80935 0
M  V30 9810 H 620.495 -3.41248 -7.98759 0
M  V30 9811 H 620.767 -2.5837 -6.41742 0
M  V30 9812 H 619.899 -5.02657 -6.42673 0
M  V30 9813 H 617.244 -4.11779 -4.09026 0
M  V30 9814 H 616.964 -2.49661 -6.61772 0
M  V30 9815 H 615.973 -3.86674 -6.00946 0
M  V30 9816 H 617.807 -4.30038 -7.97094 0
M  V30 9817 H 617.856 -0.670579 -5.82754 0
M  V30 9818 H 617.174 -0.528446 0.557287 0
M  V30 9819 H 617.137 -4.00117 0.344773 0
M  V30 9820 H 617.036 -2.55448 1.38544 0
M  V30 9821 P 615.936 -6.144 -6.45285 0
M  V30 9822 O 615.716 -7.54673 -6.86199 0
M  V30 9823 O 615.146 -5.12391 -7.179 0
M  V30 9824 O 615.686 -5.99158 -4.88404 0
M  V30 9825 C 616.626 -6.60234 -3.96415 0
M  V30 9826 C 615.896 -7.08259 -2.72856 0
M  V30 9827 O 615.686 -5.9427 -1.83651 0
M  V30 9828 C 614.496 -7.64886 -2.9555 0
M  V30 9829 O 614.106 -8.53963 -1.90717 0
M  V30 9830 C 613.616 -6.4116 -2.90739 0
M  V30 9831 C 614.326 -5.55375 -1.86963 0
M  V30 9832 N 614.276 -4.09664 -2.15742 0
M  V30 9833 H 617.115 -7.45574 -4.45629 0
M  V30 9834 H 617.387 -5.86232 -3.67314 0
M  V30 9835 H 616.519 -7.84412 -2.24479 0
M  V30 9836 P 612.556 -8.7635 -1.60911 0
M  V30 9837 O 612.336 -10.1388 -1.11561 0
M  V30 9838 O 611.766 -8.36503 -2.79617 0
M  V30 9839 O 612.306 -7.71806 -0.42951 0
M  V30 9840 C 613.246 -7.67148 0.673689 0
M  V30 9841 C 612.516 -7.33374 1.95559 0
M  V30 9842 O 612.306 -5.88721 2.00726 0
M  V30 9843 C 611.116 -7.92526 2.10483 0
M  V30 9844 O 610.726 -8.02971 3.47653 0
M  V30 9845 C 610.236 -6.89602 1.41652 0
M  V30 9846 C 610.946 -5.59201 1.75185 0
M  V30 9847 N 610.896 -4.58235 0.662552 0
M  V30 9848 H 613.735 -8.65116 0.777161 0
M  V30 9849 H 614.007 -6.90173 0.474152 0
M  V30 9850 H 613.139 -7.66548 2.79458 0
M  V30 9851 P 609.176 -8.03563 3.84925 0
M  V30 9852 O 608.956 -8.85821 5.0569 0
M  V30 9853 O 608.386 -8.41101 2.65469 0
M  V30 9854 O 608.926 -6.4965 4.18908 0
M  V30 9855 C 609.866 -5.81037 5.05421 0
M  V30 9856 C 609.136 -4.78366 5.89277 0
M  V30 9857 O 608.926 -3.58302 5.08433 0
M  V30 9858 C 607.736 -5.17448 6.36119 0
M  V30 9859 O 607.346 -4.45271 7.53232 0
M  V30 9860 C 606.856 -4.74639 5.19936 0
M  V30 9861 C 607.566 -3.49432 4.70418 0
M  V30 9862 N 607.516 -3.31776 3.22945 0
M  V30 9863 H 610.355 -6.54213 5.71376 0
M  V30 9864 H 610.627 -5.30492 4.44033 0
M  V30 9865 H 609.759 -4.55889 6.76652 0
M  V30 9866 P 605.796 -4.23843 7.83734 0
M  V30 9867 O 605.576 -4.19407 9.29784 0
M  V30 9868 O 605.006 -5.24426 7.09156 0
M  V30 9869 O 605.546 -2.7935 7.20758 0
M  V30 9870 C 606.486 -1.7299 7.50419 0
M  V30 9871 C 605.756 -0.406376 7.57911 0
M  V30 9872 O 605.546 0.0897726 6.21935 0
M  V30 9873 C 604.356 -0.447224 8.1878 0
M  V30 9874 O 603.966 0.825065 8.71101 0
M  V30 9875 C 603.476 -0.783801 6.99623 0
M  V30 9876 C 604.186 -0.0619192 5.85967 0
M  V30 9877 N 604.136 -0.7859 4.56281 0
M  V30 9878 H 606.975 -1.93423 8.4679 0
M  V30 9879 H 607.247 -1.68181 6.71046 0
M  V30 9880 H 606.379 0.289041 8.15388 0
M  V30 9881 P 602.416 1.17771 8.83182 0
M  V30 9882 O 602.196 2.07206 9.98732 0
M  V30 9883 O 601.626 -0.0743816 8.81969 0
M  V30 9884 O 602.166 1.97652 7.47304 0
M  V30 9885 C 603.106 3.01133 7.08783 0
M  V30 9886 C 602.376 4.12613 6.37049 0
M  V30 9887 O 602.166 3.72827 4.97879 0
M  V30 9888 C 600.976 4.45085 6.88694 0
M  V30 9889 O 600.586 5.7877 6.5624 0
M  V30 9890 C 600.096 3.47817 6.12078 0
M  V30 9891 C 600.806 3.39414 4.77697 0
M  V30 9892 N 600.756 2.04615 4.15333 0
M  V30 9893 H 603.595 3.41248 7.98759 0
M  V30 9894 H 603.867 2.5837 6.41742 0
M  V30 9895 H 602.999 5.02657 6.42673 0
M  V30 9896 P 599.036 6.144 6.45285 0
M  V30 9897 O 598.816 7.54673 6.86199 0
M  V30 9898 O 598.246 5.12391 7.179 0
M  V30 9899 O 598.786 5.99158 4.88404 0
M  V30 9900 C 599.726 6.60234 3.96415 0
M  V30 9901 C 598.996 7.08259 2.72856 0
M  V30 9902 O 598.786 5.9427 1.83651 0
M  V30 9903 C 597.596 7.64886 2.9555 0
M  V30 9904 O 597.206 8.53963 1.90717 0
M  V30 9905 C 596.716 6.4116 2.90739 0
M  V30 9906 C 597.426 5.55375 1.86963 0
M  V30 9907 N 597.376 4.09664 2.15742 0
M  V30 9908 H 600.215 7.45574 4.45629 0
M  V30 9909 H 600.487 5.86232 3.67314 0
M  V30 9910 H 599.619 7.84412 2.24479 0
M  V30 9911 P 595.656 8.7635 1.60911 0
M  V30 9912 O 595.437 10.1388 1.11561 0
M  V30 9913 O 594.866 8.36503 2.79617 0
M  V30 9914 O 595.406 7.71806 0.42951 0
M  V30 9915 C 596.346 7.67148 -0.673689 0
M  V30 9916 C 595.616 7.33374 -1.95559 0
M  V30 9917 O 595.406 5.88721 -2.00726 0
M  V30 9918 C 594.216 7.92526 -2.10483 0
M  V30 9919 O 593.827 8.02971 -3.47653 0
M  V30 9920 C 593.337 6.89602 -1.41652 0
M  V30 9921 C 594.046 5.59201 -1.75185 0
M  V30 9922 N 593.996 4.58301 -0.657969 0
M  V30 9923 H 596.836 8.65116 -0.777161 0
M  V30 9924 H 597.107 6.9022 -0.46725 0
M  V30 9925 H 596.24 7.66548 -2.79458 0
M  V30 9926 H 593.584 5.16165 -2.65183 0
M  V30 9927 H 593.304 7.06433 -0.329384 0
M  V30 9928 H 592.313 6.90926 -1.82021 0
M  V30 9929 H 594.147 8.90873 -1.62657 0
M  V30 9930 P 592.277 8.03563 -3.84925 0
M  V30 9931 O 592.057 8.85821 -5.0569 0
M  V30 9932 O 591.487 8.41101 -2.65469 0
M  V30 9933 O 592.027 6.4965 -4.18908 0
M  V30 9934 C 592.967 5.81037 -5.05421 0
M  V30 9935 C 592.237 4.78366 -5.89277 0
M  V30 9936 O 592.027 3.58302 -5.08433 0
M  V30 9937 C 590.837 5.17448 -6.36119 0
M  V30 9938 O 590.447 4.45271 -7.53232 0
M  V30 9939 C 589.957 4.74639 -5.19936 0
M  V30 9940 C 590.667 3.49432 -4.70418 0
M  V30 9941 N 590.617 3.31776 -3.22945 0
M  V30 9942 H 593.456 6.54213 -5.71376 0
M  V30 9943 H 593.728 5.30492 -4.44033 0
M  V30 9944 H 592.86 4.55889 -6.76652 0
M  V30 9945 P 588.897 4.23843 -7.83734 0
M  V30 9946 O 588.677 4.19407 -9.29784 0
M  V30 9947 O 588.107 5.24426 -7.09156 0
M  V30 9948 O 588.647 2.7935 -7.20758 0
M  V30 9949 C 589.587 1.7299 -7.50419 0
M  V30 9950 C 588.857 0.406376 -7.57911 0
M  V30 9951 O 588.647 -0.0897726 -6.21935 0
M  V30 9952 C 587.457 0.447224 -8.1878 0
M  V30 9953 O 587.067 -0.825065 -8.71101 0
M  V30 9954 C 586.577 0.783801 -6.99623 0
M  V30 9955 C 587.287 0.0619192 -5.85967 0
M  V30 9956 N 587.237 0.7859 -4.56281 0
M  V30 9957 C 587.317 2.14308 -4.31736 0
M  V30 9958 N 587.237 2.46106 -3.05116 0
M  V30 9959 C 587.097 1.23422 -2.4014 0
M  V30 9960 C 586.967 0.938381 -1.02409 0
M  V30 9961 N 586.847 -0.444647 -0.805413 0
M  V30 9962 C 586.847 -1.40829 -1.79435 0
M  V30 9963 N 586.717 -2.67213 -1.38558 0
M  V30 9964 N 586.977 -1.12947 -3.09005 0
M  V30 9965 C 587.097 0.204887 -3.32369 0
M  V30 9966 H 590.076 1.93423 -8.4679 0
M  V30 9967 H 590.348 1.68181 -6.71046 0
M  V30 9968 H 589.48 -0.289041 -8.15388 0
M  V30 9969 P 585.517 -1.17771 -8.83182 0
M  V30 9970 O 585.297 -2.07206 -9.98732 0
M  V30 9971 O 584.727 0.0743816 -8.81969 0
M  V30 9972 O 585.267 -1.97652 -7.47304 0
M  V30 9973 C 586.207 -3.01133 -7.08783 0
M  V30 9974 C 585.477 -4.12613 -6.37049 0
M  V30 9975 O 585.267 -3.72827 -4.97879 0
M  V30 9976 C 584.077 -4.45085 -6.88694 0
M  V30 9977 O 583.687 -5.7877 -6.5624 0
M  V30 9978 C 583.197 -3.47817 -6.12078 0
M  V30 9979 C 583.907 -3.39414 -4.77697 0
M  V30 9980 N 583.857 -2.04615 -4.15333 0
M  V30 9981 H 586.696 -3.41248 -7.98759 0
M  V30 9982 H 586.968 -2.5837 -6.41742 0
M  V30 9983 H 586.1 -5.02657 -6.42673 0
M  V30 9984 P 582.137 -6.144 -6.45285 0
M  V30 9985 O 581.917 -7.54673 -6.86199 0
M  V30 9986 O 581.347 -5.12391 -7.179 0
M  V30 9987 O 581.887 -5.99158 -4.88404 0
M  V30 9988 C 582.827 -6.60234 -3.96415 0
M  V30 9989 C 582.097 -7.08259 -2.72856 0
M  V30 9990 O 581.887 -5.9427 -1.83651 0
M  V30 9991 C 580.697 -7.64886 -2.9555 0
M  V30 9992 O 580.307 -8.53963 -1.90717 0
M  V30 9993 C 579.817 -6.4116 -2.90739 0
M  V30 9994 C 580.527 -5.55375 -1.86963 0
M  V30 9995 N 580.477 -4.09664 -2.15742 0
M  V30 9996 H 583.316 -7.45574 -4.45629 0
M  V30 9997 H 583.588 -5.86232 -3.67314 0
M  V30 9998 H 582.72 -7.84412 -2.24479 0
M  V30 9999 P 578.757 -8.7635 -1.60911 0
M  V30 10000 O 578.537 -10.1388 -1.11561 0
M  V30 10001 O 577.967 -8.36503 -2.79617 0
M  V30 10002 O 578.507 -7.71806 -0.42951 0
M  V30 10003 C 579.447 -7.67148 0.673689 0
M  V30 10004 C 578.717 -7.33374 1.95559 0
M  V30 10005 O 578.507 -5.88721 2.00726 0
M  V30 10006 C 577.317 -7.92526 2.10483 0
M  V30 10007 O 576.927 -8.02971 3.47653 0
M  V30 10008 C 576.437 -6.89602 1.41652 0
M  V30 10009 C 577.147 -5.59201 1.75185 0
M  V30 10010 N 577.097 -4.58235 0.662552 0
M  V30 10011 H 579.936 -8.65116 0.777161 0
M  V30 10012 H 580.208 -6.90173 0.474152 0
M  V30 10013 H 579.34 -7.66548 2.79458 0
M  V30 10014 P 575.377 -8.03563 3.84925 0
M  V30 10015 O 575.157 -8.85821 5.0569 0
M  V30 10016 O 574.587 -8.41101 2.65469 0
M  V30 10017 O 575.127 -6.4965 4.18908 0
M  V30 10018 C 576.067 -5.81037 5.05421 0
M  V30 10019 C 575.337 -4.78366 5.89277 0
M  V30 10020 O 575.127 -3.58302 5.08433 0
M  V30 10021 C 573.937 -5.17448 6.36119 0
M  V30 10022 O 573.547 -4.45271 7.53232 0
M  V30 10023 C 573.057 -4.74639 5.19936 0
M  V30 10024 C 573.767 -3.49432 4.70418 0
M  V30 10025 N 573.717 -3.31776 3.22945 0
M  V30 10026 H 576.556 -6.54213 5.71376 0
M  V30 10027 H 576.828 -5.30492 4.44033 0
M  V30 10028 H 575.96 -4.55889 6.76652 0
M  V30 10029 P 571.997 -4.23843 7.83734 0
M  V30 10030 O 571.777 -4.19407 9.29784 0
M  V30 10031 O 571.207 -5.24426 7.09156 0
M  V30 10032 O 571.747 -2.7935 7.20758 0
M  V30 10033 C 572.687 -1.7299 7.50419 0
M  V30 10034 C 571.957 -0.406376 7.57911 0
M  V30 10035 O 571.747 0.0897726 6.21935 0
M  V30 10036 C 570.557 -0.447224 8.1878 0
M  V30 10037 O 570.167 0.825065 8.71101 0
M  V30 10038 C 569.677 -0.783801 6.99623 0
M  V30 10039 C 570.387 -0.0619192 5.85967 0
M  V30 10040 N 570.337 -0.7859 4.56281 0
M  V30 10041 H 573.176 -1.93423 8.4679 0
M  V30 10042 H 573.448 -1.68181 6.71046 0
M  V30 10043 H 572.58 0.289041 8.15388 0
M  V30 10044 P 568.617 1.17771 8.83182 0
M  V30 10045 O 568.397 2.07206 9.98732 0
M  V30 10046 O 567.827 -0.0743816 8.81969 0
M  V30 10047 O 568.367 1.97652 7.47304 0
M  V30 10048 C 569.307 3.01133 7.08783 0
M  V30 10049 C 568.577 4.12613 6.37049 0
M  V30 10050 O 568.367 3.72827 4.97879 0
M  V30 10051 C 567.177 4.45085 6.88694 0
M  V30 10052 O 566.787 5.7877 6.5624 0
M  V30 10053 C 566.297 3.47817 6.12078 0
M  V30 10054 C 567.007 3.39414 4.77697 0
M  V30 10055 N 566.957 2.04615 4.15333 0
M  V30 10056 H 569.796 3.41248 7.98759 0
M  V30 10057 H 570.068 2.5837 6.41742 0
M  V30 10058 H 569.2 5.02657 6.42673 0
M  V30 10059 P 565.237 6.144 6.45285 0
M  V30 10060 O 565.017 7.54673 6.86199 0
M  V30 10061 O 564.447 5.12391 7.179 0
M  V30 10062 O 564.987 5.99158 4.88404 0
M  V30 10063 C 565.927 6.60062 3.96313 0
M  V30 10064 C 565.197 7.08259 2.72856 0
M  V30 10065 O 564.987 5.9427 1.83651 0
M  V30 10066 C 563.797 7.65087 2.94749 0
M  V30 10067 O 563.407 8.53963 1.90717 0
M  V30 10068 C 562.917 6.41069 2.90698 0
M  V30 10069 C 563.627 5.5528 1.86931 0
M  V30 10070 N 563.577 4.09575 2.15696 0
M  V30 10071 C 563.427 3.24249 1.08435 0
M  V30 10072 O 563.337 3.63946 -0.0628747 0
M  V30 10073 N 563.387 1.90009 1.39973 0
M  V30 10074 C 563.477 1.34884 2.65614 0
M  V30 10075 O 563.427 0.123716 2.81728 0
M  V30 10076 C 563.627 2.3145 3.71736 0
M  V30 10077 C 563.737 1.75913 5.10438 0
M  V30 10078 C 563.677 3.63518 3.44754 0
M  V30 10079 H 566.418 7.45402 4.45526 0
M  V30 10080 H 566.687 5.86062 3.67208 0
M  V30 10081 H 565.82 7.84412 2.24479 0
M  V30 10082 H 563.165 5.73358 0.888409 0
M  V30 10083 H 562.886 5.90877 3.88583 0
M  V30 10084 H 561.894 6.65867 2.58821 0
M  V30 10085 H 563.728 8.16248 3.92006 0
M  V30 10086 H 563.799 4.34551 4.26383 0
M  V30 10087 H 562.769 1.85471 5.61775 0
M  V30 10088 H 564.506 2.31364 5.66257 0
M  V30 10089 H 564.018 0.695936 5.05229 0
M  V30 10090 H 563.282 1.26277 0.63625 0
M  V30 10091 P 561.857 8.7635 1.60911 0
M  V30 10092 O 561.637 10.1388 1.11561 0
M  V30 10093 O 561.067 8.36503 2.79617 0
M  V30 10094 O 561.607 7.71806 0.42951 0
M  V30 10095 C 562.547 7.67148 -0.673689 0
M  V30 10096 C 561.817 7.33374 -1.95559 0
M  V30 10097 O 561.607 5.88721 -2.00726 0
M  V30 10098 C 560.417 7.92526 -2.10483 0
M  V30 10099 O 560.027 8.02971 -3.47653 0
M  V30 10100 C 559.537 6.89602 -1.41652 0
M  V30 10101 C 560.247 5.59201 -1.75185 0
M  V30 10102 N 560.197 4.58235 -0.662552 0
M  V30 10103 H 563.036 8.65116 -0.777161 0
M  V30 10104 H 563.308 6.90173 -0.474152 0
M  V30 10105 H 562.44 7.66548 -2.79458 0
M  V30 10106 P 558.477 8.03563 -3.84925 0
M  V30 10107 O 558.257 8.85821 -5.0569 0
M  V30 10108 O 557.687 8.41101 -2.65469 0
M  V30 10109 O 558.227 6.4965 -4.18908 0
M  V30 10110 C 559.167 5.81037 -5.05421 0
M  V30 10111 C 558.437 4.78366 -5.89277 0
M  V30 10112 O 558.227 3.58302 -5.08433 0
M  V30 10113 C 557.037 5.17448 -6.36119 0
M  V30 10114 O 556.647 4.45271 -7.53232 0
M  V30 10115 C 556.157 4.74639 -5.19936 0
M  V30 10116 C 556.867 3.49432 -4.70418 0
M  V30 10117 N 556.817 3.31776 -3.22945 0
M  V30 10118 H 559.656 6.54213 -5.71376 0
M  V30 10119 H 559.928 5.30492 -4.44033 0
M  V30 10120 H 559.06 4.55889 -6.76652 0
M  V30 10121 P 555.097 4.23843 -7.83734 0
M  V30 10122 O 554.877 4.19407 -9.29784 0
M  V30 10123 O 554.307 5.24426 -7.09156 0
M  V30 10124 O 554.847 2.7935 -7.20758 0
M  V30 10125 C 555.787 1.72945 -7.50224 0
M  V30 10126 C 555.057 0.406376 -7.57911 0
M  V30 10127 O 554.847 -0.0897726 -6.21935 0
M  V30 10128 C 553.657 0.438983 -8.18724 0
M  V30 10129 O 553.267 -0.825065 -8.71101 0
M  V30 10130 C 552.777 0.783689 -6.99524 0
M  V30 10131 C 553.487 0.0619086 -5.85867 0
M  V30 10132 N 553.437 0.78573 -4.56183 0
M  V30 10133 C 553.287 0.0292889 -3.41887 0
M  V30 10134 O 553.197 -1.18445 -3.4419 0
M  V30 10135 N 553.247 0.744061 -2.23964 0
M  V30 10136 C 553.337 2.10932 -2.10362 0
M  V30 10137 O 553.287 2.64117 -0.98825 0
M  V30 10138 C 553.487 2.8202 -3.34994 0
M  V30 10139 C 553.597 4.31095 -3.25037 0
M  V30 10140 C 553.537 2.15547 -4.52261 0
M  V30 10141 H 556.278 1.93379 -8.46595 0
M  V30 10142 H 556.547 1.68132 -6.70852 0
M  V30 10143 H 555.68 -0.289041 -8.15388 0
M  V30 10144 H 553.025 -0.926847 -5.72749 0
M  V30 10145 H 552.746 1.86973 -6.82036 0
M  V30 10146 H 551.754 0.403896 -7.13257 0
M  V30 10147 H 553.588 1.20585 -8.97435 0
M  V30 10148 H 553.659 2.71231 -5.45042 0
M  V30 10149 H 552.629 4.76966 -3.49992 0
M  V30 10150 H 554.366 4.67047 -3.95024 0
M  V30 10151 H 553.878 4.58996 -2.22312 0
M  V30 10152 H 553.142 0.214893 -1.39758 0
M  V30 10153 P 551.717 -1.17771 -8.83182 0
M  V30 10154 O 551.497 -2.07206 -9.98732 0
M  V30 10155 O 550.927 0.0743816 -8.81969 0
M  V30 10156 O 551.467 -1.97652 -7.47304 0
M  V30 10157 C 552.407 -3.01133 -7.08783 0
M  V30 10158 C 551.677 -4.12613 -6.37049 0
M  V30 10159 O 551.467 -3.72827 -4.97879 0
M  V30 10160 C 550.277 -4.45085 -6.88694 0
M  V30 10161 O 549.887 -5.7877 -6.5624 0
M  V30 10162 C 549.397 -3.47817 -6.12078 0
M  V30 10163 C 550.107 -3.39414 -4.77697 0
M  V30 10164 N 550.057 -2.04615 -4.15333 0
M  V30 10165 H 552.896 -3.41248 -7.98759 0
M  V30 10166 H 553.168 -2.5837 -6.41742 0
M  V30 10167 H 552.3 -5.02657 -6.42673 0
M  V30 10168 P 548.337 -6.144 -6.45285 0
M  V30 10169 O 548.117 -7.54673 -6.86199 0
M  V30 10170 O 547.547 -5.12391 -7.179 0
M  V30 10171 O 548.087 -5.99158 -4.88404 0
M  V30 10172 C 549.027 -6.60234 -3.96415 0
M  V30 10173 C 548.297 -7.08259 -2.72856 0
M  V30 10174 O 548.087 -5.9427 -1.83651 0
M  V30 10175 C 546.897 -7.64886 -2.9555 0
M  V30 10176 O 546.507 -8.53963 -1.90717 0
M  V30 10177 C 546.017 -6.4116 -2.90739 0
M  V30 10178 C 546.727 -5.55375 -1.86963 0
M  V30 10179 N 546.677 -4.09448 -2.16152 0
M  V30 10180 H 549.516 -7.45574 -4.45629 0
M  V30 10181 H 549.788 -5.85864 -3.679 0
M  V30 10182 H 548.92 -7.84412 -2.24479 0
M  V30 10183 H 546.265 -5.73457 -0.888562 0
M  V30 10184 H 545.985 -5.90877 -3.88583 0
M  V30 10185 H 544.994 -6.6596 -2.58858 0
M  V30 10186 H 546.828 -8.16339 -3.92049 0
M  V30 10187 P 544.957 -8.7635 -1.60911 0
M  V30 10188 O 544.737 -10.1388 -1.11561 0
M  V30 10189 O 544.167 -8.36503 -2.79617 0
M  V30 10190 O 544.707 -7.71806 -0.42951 0
M  V30 10191 C 545.647 -7.67148 0.673689 0
M  V30 10192 C 544.917 -7.33374 1.95559 0
M  V30 10193 O 544.707 -5.88721 2.00726 0
M  V30 10194 C 543.517 -7.92526 2.10483 0
M  V30 10195 O 543.127 -8.02971 3.47653 0
M  V30 10196 C 542.637 -6.89602 1.41652 0
M  V30 10197 C 543.347 -5.59201 1.75185 0
M  V30 10198 N 543.297 -4.58235 0.662552 0
M  V30 10199 H 546.136 -8.65116 0.777161 0
M  V30 10200 H 546.408 -6.90173 0.474152 0
M  V30 10201 H 545.54 -7.66548 2.79458 0
M  V30 10202 P 541.577 -8.03563 3.84925 0
M  V30 10203 O 541.357 -8.85821 5.0569 0
M  V30 10204 O 540.787 -8.41101 2.65469 0
M  V30 10205 O 541.327 -6.4965 4.18908 0
M  V30 10206 C 542.267 -5.81037 5.05421 0
M  V30 10207 C 541.537 -4.78366 5.89277 0
M  V30 10208 O 541.327 -3.58302 5.08433 0
M  V30 10209 C 540.137 -5.17448 6.36119 0
M  V30 10210 O 539.747 -4.45271 7.53232 0
M  V30 10211 C 539.257 -4.74639 5.19936 0
M  V30 10212 C 539.967 -3.49432 4.70418 0
M  V30 10213 N 539.917 -3.32099 3.22613 0
M  V30 10214 C 539.997 -4.28245 2.25527 0
M  V30 10215 N 539.927 -3.80823 1.04874 0
M  V30 10216 C 539.777 -2.44571 1.23535 0
M  V30 10217 C 539.647 -1.37068 0.330675 0
M  V30 10218 N 539.637 -1.51472 -0.990824 0
M  V30 10219 N 539.527 -0.138614 0.848756 0
M  V30 10220 C 539.537 0.00675923 2.16999 0
M  V30 10221 N 539.657 -0.904372 3.11122 0
M  V30 10222 C 539.777 -2.12707 2.56212 0
M  V30 10223 H 542.756 -6.54213 5.71376 0
M  V30 10224 H 543.028 -5.30936 4.43503 0
M  V30 10225 H 542.16 -4.55889 6.76652 0
M  V30 10226 H 539.505 -2.61715 5.17932 0
M  V30 10227 H 539.225 -5.52155 4.41878 0
M  V30 10228 H 538.234 -4.51981 5.53374 0
M  V30 10229 H 540.068 -6.25124 6.55234 0
M  V30 10230 H 540.109 -5.34372 2.47488 0
M  V30 10231 H 539.728 -2.45153 -1.4078 0
M  V30 10232 H 539.539 -0.688422 -1.59911 0
M  V30 10233 H 539.431 1.02584 2.52346 0
M  V30 10234 P 538.197 -4.23843 7.83734 0
M  V30 10235 O 537.977 -4.19407 9.29784 0
M  V30 10236 O 537.407 -5.24426 7.09156 0
M  V30 10237 O 537.947 -2.7935 7.20758 0
M  V30 10238 C 538.887 -1.7299 7.50419 0
M  V30 10239 C 538.157 -0.406376 7.57911 0
M  V30 10240 O 537.947 0.0897726 6.21935 0
M  V30 10241 C 536.757 -0.447224 8.1878 0
M  V30 10242 O 536.367 0.825065 8.71101 0
M  V30 10243 C 535.877 -0.783801 6.99623 0
M  V30 10244 C 536.587 -0.0619192 5.85967 0
M  V30 10245 N 536.537 -0.7859 4.56281 0
M  V30 10246 H 539.376 -1.93423 8.4679 0
M  V30 10247 H 539.648 -1.68181 6.71046 0
M  V30 10248 H 538.78 0.289041 8.15388 0
M  V30 10249 P 534.817 1.17771 8.83182 0
M  V30 10250 O 534.597 2.07206 9.98732 0
M  V30 10251 O 534.027 -0.0743816 8.81969 0
M  V30 10252 O 534.567 1.97652 7.47304 0
M  V30 10253 C 535.507 3.01055 7.08599 0
M  V30 10254 C 534.777 4.12613 6.37049 0
M  V30 10255 O 534.567 3.72827 4.97879 0
M  V30 10256 C 533.377 4.45719 6.88164 0
M  V30 10257 O 532.987 5.7877 6.5624 0
M  V30 10258 C 532.497 3.47768 6.11991 0
M  V30 10259 C 533.207 3.39356 4.77615 0
M  V30 10260 N 533.157 2.04571 4.15244 0
M  V30 10261 C 533.007 1.98587 2.78314 0
M  V30 10262 O 532.917 2.98134 2.08835 0
M  V30 10263 N 532.967 0.714467 2.24925 0
M  V30 10264 C 533.057 -0.470001 2.94169 0
M  V30 10265 O 533.007 -1.55587 2.35195 0
M  V30 10266 C 533.207 -0.312541 4.36783 0
M  V30 10267 C 533.317 -1.57711 5.16352 0
M  V30 10268 C 533.257 0.914512 4.92583 0
M  V30 10269 H 535.998 3.41169 7.98575 0
M  V30 10270 H 536.267 2.58295 6.41556 0
M  V30 10271 H 535.4 5.02657 6.42673 0
M  V30 10272 H 532.745 4.11637 4.08885 0
M  V30 10273 H 532.466 2.49626 6.61679 0
M  V30 10274 H 531.474 3.86566 6.00778 0
M  V30 10275 H 533.308 4.29943 7.96918 0
M  V30 10276 H 533.379 1.00937 6.00374 0
M  V30 10277 H 532.349 -1.80153 5.63503 0
M  V30 10278 H 534.086 -1.4566 5.94104 0
M  V30 10279 H 533.598 -2.40664 4.49645 0
M  V30 10280 H 532.862 0.647622 1.25697 0
M  V30 10281 P 531.437 6.144 6.45285 0
M  V30 10282 O 531.217 7.54673 6.86199 0
M  V30 10283 O 530.647 5.12391 7.179 0
M  V30 10284 O 531.187 5.99158 4.88404 0
M  V30 10285 C 532.127 6.60234 3.96415 0
M  V30 10286 C 531.397 7.08259 2.72856 0
M  V30 10287 O 531.187 5.9427 1.83651 0
M  V30 10288 C 529.997 7.64886 2.9555 0
M  V30 10289 O 529.607 8.53963 1.90717 0
M  V30 10290 C 529.117 6.4116 2.90739 0
M  V30 10291 C 529.827 5.55375 1.86963 0
M  V30 10292 N 529.777 4.09664 2.15742 0
M  V30 10293 H 532.616 7.45574 4.45629 0
M  V30 10294 H 532.888 5.86232 3.67314 0
M  V30 10295 H 532.02 7.84412 2.24479 0
M  V30 10296 P 528.057 8.7635 1.60911 0
M  V30 10297 O 527.837 10.1388 1.11561 0
M  V30 10298 O 527.267 8.36503 2.79617 0
M  V30 10299 O 527.807 7.71806 0.42951 0
M  V30 10300 C 528.747 7.67148 -0.673689 0
M  V30 10301 C 528.017 7.33374 -1.95559 0
M  V30 10302 O 527.807 5.88721 -2.00726 0
M  V30 10303 C 526.617 7.92526 -2.10483 0
M  V30 10304 O 526.227 8.02971 -3.47653 0
M  V30 10305 C 525.737 6.89602 -1.41652 0
M  V30 10306 C 526.447 5.59201 -1.75185 0
M  V30 10307 N 526.397 4.58235 -0.662552 0
M  V30 10308 H 529.236 8.65116 -0.777161 0
M  V30 10309 H 529.508 6.90173 -0.474152 0
M  V30 10310 H 528.64 7.66548 -2.79458 0
M  V30 10311 P 524.677 8.03563 -3.84925 0
M  V30 10312 O 524.457 8.85821 -5.0569 0
M  V30 10313 O 523.887 8.41101 -2.65469 0
M  V30 10314 O 524.427 6.4965 -4.18908 0
M  V30 10315 C 525.367 5.81037 -5.05421 0
M  V30 10316 C 524.637 4.78366 -5.89277 0
M  V30 10317 O 524.427 3.58302 -5.08433 0
M  V30 10318 C 523.237 5.17448 -6.36119 0
M  V30 10319 O 522.847 4.45271 -7.53232 0
M  V30 10320 C 522.357 4.74639 -5.19936 0
M  V30 10321 C 523.067 3.49432 -4.70418 0
M  V30 10322 N 523.017 3.32099 -3.22613 0
M  V30 10323 H 525.856 6.54213 -5.71376 0
M  V30 10324 H 526.128 5.30936 -4.43503 0
M  V30 10325 H 525.26 4.55889 -6.76652 0
M  V30 10326 H 522.605 2.61715 -5.17932 0
M  V30 10327 H 522.325 5.52155 -4.41878 0
M  V30 10328 H 521.334 4.51981 -5.53374 0
M  V30 10329 H 523.168 6.25124 -6.55234 0
M  V30 10330 P 521.297 4.23843 -7.83734 0
M  V30 10331 O 521.077 4.19407 -9.29784 0
M  V30 10332 O 520.507 5.24426 -7.09156 0
M  V30 10333 O 521.047 2.7935 -7.20758 0
M  V30 10334 C 521.987 1.7299 -7.50419 0
M  V30 10335 C 521.257 0.406376 -7.57911 0
M  V30 10336 O 521.047 -0.0897726 -6.21935 0
M  V30 10337 C 519.857 0.447224 -8.1878 0
M  V30 10338 O 519.467 -0.825065 -8.71101 0
M  V30 10339 C 518.977 0.783801 -6.99623 0
M  V30 10340 C 519.687 0.0619192 -5.85967 0
M  V30 10341 N 519.637 0.7859 -4.56281 0
M  V30 10342 H 522.476 1.93423 -8.4679 0
M  V30 10343 H 522.748 1.68181 -6.71046 0
M  V30 10344 H 521.88 -0.289041 -8.15388 0
M  V30 10345 P 517.917 -1.17771 -8.83182 0
M  V30 10346 O 517.697 -2.07206 -9.98732 0
M  V30 10347 O 517.127 0.0743816 -8.81969 0
M  V30 10348 O 517.667 -1.97652 -7.47304 0
M  V30 10349 C 518.607 -3.01055 -7.08599 0
M  V30 10350 C 517.877 -4.12613 -6.37049 0
M  V30 10351 O 517.667 -3.72827 -4.97879 0
M  V30 10352 C 516.477 -4.45719 -6.88164 0
M  V30 10353 O 516.087 -5.7877 -6.5624 0
M  V30 10354 C 515.597 -3.47768 -6.11991 0
M  V30 10355 C 516.307 -3.39356 -4.77615 0
M  V30 10356 N 516.257 -2.04571 -4.15244 0
M  V30 10357 C 516.107 -1.98587 -2.78314 0
M  V30 10358 O 516.017 -2.98134 -2.08835 0
M  V30 10359 N 516.067 -0.714467 -2.24925 0
M  V30 10360 C 516.157 0.470001 -2.94169 0
M  V30 10361 O 516.107 1.55587 -2.35195 0
M  V30 10362 C 516.307 0.312541 -4.36783 0
M  V30 10363 C 516.417 1.57711 -5.16352 0
M  V30 10364 C 516.357 -0.914512 -4.92583 0
M  V30 10365 H 519.098 -3.41169 -7.98575 0
M  V30 10366 H 519.367 -2.58295 -6.41556 0
M  V30 10367 H 518.5 -5.02657 -6.42673 0
M  V30 10368 H 515.845 -4.11637 -4.08885 0
M  V30 10369 H 515.566 -2.49626 -6.61679 0
M  V30 10370 H 514.574 -3.86566 -6.00778 0
M  V30 10371 H 516.408 -4.29943 -7.96918 0
M  V30 10372 H 516.479 -1.00937 -6.00374 0
M  V30 10373 H 515.449 1.80153 -5.63503 0
M  V30 10374 H 517.186 1.4566 -5.94104 0
M  V30 10375 H 516.698 2.40664 -4.49645 0
M  V30 10376 H 515.962 -0.647622 -1.25697 0
M  V30 10377 P 514.537 -6.144 -6.45285 0
M  V30 10378 O 514.317 -7.54673 -6.86199 0
M  V30 10379 O 513.747 -5.12391 -7.179 0
M  V30 10380 O 514.287 -5.99158 -4.88404 0
M  V30 10381 C 515.227 -6.60234 -3.96415 0
M  V30 10382 C 514.497 -7.08259 -2.72856 0
M  V30 10383 O 514.287 -5.9427 -1.83651 0
M  V30 10384 C 513.097 -7.64886 -2.9555 0
M  V30 10385 O 512.707 -8.53963 -1.90717 0
M  V30 10386 C 512.217 -6.4116 -2.90739 0
M  V30 10387 C 512.927 -5.55375 -1.86963 0
M  V30 10388 N 512.877 -4.09664 -2.15742 0
M  V30 10389 H 515.716 -7.45574 -4.45629 0
M  V30 10390 H 515.988 -5.86232 -3.67314 0
M  V30 10391 H 515.12 -7.84412 -2.24479 0
M  V30 10392 P 511.157 -8.7635 -1.60911 0
M  V30 10393 O 510.937 -10.1388 -1.11561 0
M  V30 10394 O 510.367 -8.36503 -2.79617 0
M  V30 10395 O 510.907 -7.71806 -0.42951 0
M  V30 10396 C 511.847 -7.67148 0.673689 0
M  V30 10397 C 511.117 -7.33374 1.95559 0
M  V30 10398 O 510.907 -5.88721 2.00726 0
M  V30 10399 C 509.717 -7.92526 2.10483 0
M  V30 10400 O 509.327 -8.02971 3.47653 0
M  V30 10401 C 508.837 -6.89602 1.41652 0
M  V30 10402 C 509.547 -5.59201 1.75185 0
M  V30 10403 N 509.497 -4.58235 0.662552 0
M  V30 10404 H 512.336 -8.65116 0.777161 0
M  V30 10405 H 512.608 -6.90173 0.474152 0
M  V30 10406 H 511.74 -7.66548 2.79458 0
M  V30 10407 P 507.777 -8.03563 3.84925 0
M  V30 10408 O 507.557 -8.85821 5.0569 0
M  V30 10409 O 506.987 -8.41101 2.65469 0
M  V30 10410 O 507.527 -6.4965 4.18908 0
M  V30 10411 C 508.467 -5.81037 5.05421 0
M  V30 10412 C 507.737 -4.78366 5.89277 0
M  V30 10413 O 507.527 -3.58302 5.08433 0
M  V30 10414 C 506.337 -5.17448 6.36119 0
M  V30 10415 O 505.947 -4.45271 7.53232 0
M  V30 10416 C 505.457 -4.74639 5.19936 0
M  V30 10417 C 506.167 -3.49432 4.70418 0
M  V30 10418 N 506.117 -3.32099 3.22613 0
M  V30 10419 H 508.956 -6.54213 5.71376 0
M  V30 10420 H 509.228 -5.30936 4.43503 0
M  V30 10421 H 508.36 -4.55889 6.76652 0
M  V30 10422 H 505.705 -2.61715 5.17932 0
M  V30 10423 H 505.425 -5.52155 4.41878 0
M  V30 10424 H 504.434 -4.51981 5.53374 0
M  V30 10425 H 506.268 -6.25124 6.55234 0
M  V30 10426 P 504.397 -4.23843 7.83734 0
M  V30 10427 O 504.177 -4.19407 9.29784 0
M  V30 10428 O 503.607 -5.24426 7.09156 0
M  V30 10429 O 504.147 -2.7935 7.20758 0
M  V30 10430 C 505.087 -1.7299 7.50419 0
M  V30 10431 C 504.357 -0.406376 7.57911 0
M  V30 10432 O 504.147 0.0897726 6.21935 0
M  V30 10433 C 502.957 -0.447224 8.1878 0
M  V30 10434 O 502.567 0.825065 8.71101 0
M  V30 10435 C 502.077 -0.783801 6.99623 0
M  V30 10436 C 502.787 -0.0619192 5.85967 0
M  V30 10437 N 502.737 -0.7859 4.56281 0
M  V30 10438 H 505.576 -1.93423 8.4679 0
M  V30 10439 H 505.848 -1.68181 6.71046 0
M  V30 10440 H 504.98 0.289041 8.15388 0
M  V30 10441 P 501.017 1.17771 8.83182 0
M  V30 10442 O 500.797 2.07206 9.98732 0
M  V30 10443 O 500.227 -0.0743816 8.81969 0
M  V30 10444 O 500.767 1.97652 7.47304 0
M  V30 10445 C 501.707 3.01133 7.08783 0
M  V30 10446 C 500.977 4.12613 6.37049 0
M  V30 10447 O 500.767 3.72827 4.97879 0
M  V30 10448 C 499.577 4.45085 6.88694 0
M  V30 10449 O 499.187 5.7877 6.5624 0
M  V30 10450 C 498.697 3.47817 6.12078 0
M  V30 10451 C 499.407 3.39414 4.77697 0
M  V30 10452 N 499.357 2.04199 4.15538 0
M  V30 10453 C 499.437 0.821545 4.76977 0
M  V30 10454 N 499.367 -0.1794 3.94592 0
M  V30 10455 C 499.217 0.419121 2.70776 0
M  V30 10456 C 499.087 -0.109072 1.40577 0
M  V30 10457 N 499.077 -1.4104 1.1344 0
M  V30 10458 N 498.967 0.764381 0.39411 0
M  V30 10459 C 498.977 2.06587 0.664135 0
M  V30 10460 N 499.097 2.67948 1.82153 0
M  V30 10461 C 499.217 1.77942 2.8147 0
M  V30 10462 H 502.196 3.41248 7.98759 0
M  V30 10463 H 502.468 2.57728 6.42 0
M  V30 10464 H 501.6 5.02657 6.42673 0
M  V30 10465 H 498.945 4.11708 4.08956 0
M  V30 10466 H 498.665 2.49626 6.61679 0
M  V30 10467 H 497.674 3.8662 6.00862 0
M  V30 10468 H 499.508 4.29991 7.97006 0
M  V30 10469 H 499.549 0.702451 5.84696 0
M  V30 10470 H 499.168 -2.09647 1.89651 0
M  V30 10471 H 498.979 -1.73358 0.160575 0
M  V30 10472 H 498.871 2.71695 -0.195838 0
M  V30 10473 P 497.637 6.144 6.45285 0
M  V30 10474 O 497.417 7.54673 6.86199 0
M  V30 10475 O 496.847 5.12391 7.179 0
M  V30 10476 O 497.387 5.99158 4.88404 0
M  V30 10477 C 498.327 6.60234 3.96415 0
M  V30 10478 C 497.597 7.08259 2.72856 0
M  V30 10479 O 497.387 5.9427 1.83651 0
M  V30 10480 C 496.197 7.64886 2.9555 0
M  V30 10481 O 495.807 8.53963 1.90717 0
M  V30 10482 C 495.317 6.4116 2.90739 0
M  V30 10483 C 496.027 5.55375 1.86963 0
M  V30 10484 N 495.977 4.09448 2.16152 0
M  V30 10485 H 498.816 7.45574 4.45629 0
M  V30 10486 H 499.088 5.85864 3.679 0
M  V30 10487 H 498.22 7.84412 2.24479 0
M  V30 10488 H 495.565 5.73457 0.888562 0
M  V30 10489 H 495.285 5.90877 3.88583 0
M  V30 10490 H 494.294 6.6596 2.58858 0
M  V30 10491 H 496.128 8.16339 3.92049 0
M  V30 10492 P 494.257 8.7635 1.60911 0
M  V30 10493 O 494.037 10.1388 1.11561 0
M  V30 10494 O 493.467 8.36503 2.79617 0
M  V30 10495 O 494.007 7.71806 0.42951 0
M  V30 10496 C 494.947 7.67148 -0.673689 0
M  V30 10497 C 494.217 7.33374 -1.95559 0
M  V30 10498 O 494.007 5.88721 -2.00726 0
M  V30 10499 C 492.817 7.92526 -2.10483 0
M  V30 10500 O 492.427 8.02971 -3.47653 0
M  V30 10501 C 491.937 6.89602 -1.41652 0
M  V30 10502 C 492.647 5.59201 -1.75185 0
M  V30 10503 N 492.597 4.58301 -0.657969 0
M  V30 10504 H 495.436 8.65116 -0.777161 0
M  V30 10505 H 495.708 6.9022 -0.46725 0
M  V30 10506 H 494.84 7.66548 -2.79458 0
M  V30 10507 H 492.185 5.16165 -2.65183 0
M  V30 10508 H 491.905 7.06433 -0.329384 0
M  V30 10509 H 490.914 6.90926 -1.82021 0
M  V30 10510 H 492.748 8.90873 -1.62657 0
M  V30 10511 P 490.877 8.03563 -3.84925 0
M  V30 10512 O 490.657 8.85821 -5.0569 0
M  V30 10513 O 490.087 8.41101 -2.65469 0
M  V30 10514 O 490.627 6.4965 -4.18908 0
M  V30 10515 C 491.567 5.81037 -5.05421 0
M  V30 10516 C 490.837 4.78366 -5.89277 0
M  V30 10517 O 490.627 3.58302 -5.08433 0
M  V30 10518 C 489.437 5.17448 -6.36119 0
M  V30 10519 O 489.047 4.45271 -7.53232 0
M  V30 10520 C 488.557 4.74639 -5.19936 0
M  V30 10521 C 489.267 3.49432 -4.70418 0
M  V30 10522 N 489.217 3.31776 -3.22945 0
M  V30 10523 H 492.056 6.54213 -5.71376 0
M  V30 10524 H 492.328 5.30492 -4.44033 0
M  V30 10525 H 491.46 4.55889 -6.76652 0
M  V30 10526 P 487.497 4.23843 -7.83734 0
M  V30 10527 O 487.277 4.19407 -9.29784 0
M  V30 10528 O 486.707 5.24426 -7.09156 0
M  V30 10529 O 487.247 2.7935 -7.20758 0
M  V30 10530 C 488.187 1.7299 -7.50419 0
M  V30 10531 C 487.457 0.406376 -7.57911 0
M  V30 10532 O 487.247 -0.0897726 -6.21935 0
M  V30 10533 C 486.057 0.447224 -8.1878 0
M  V30 10534 O 485.667 -0.825065 -8.71101 0
M  V30 10535 C 485.177 0.783801 -6.99623 0
M  V30 10536 C 485.887 0.0619192 -5.85967 0
M  V30 10537 N 485.837 0.7859 -4.56281 0
M  V30 10538 H 488.676 1.93423 -8.4679 0
M  V30 10539 H 488.948 1.68181 -6.71046 0
M  V30 10540 H 488.08 -0.289041 -8.15388 0
M  V30 10541 P 484.117 -1.17771 -8.83182 0
M  V30 10542 O 483.897 -2.07206 -9.98732 0
M  V30 10543 O 483.327 0.0743816 -8.81969 0
M  V30 10544 O 483.867 -1.97652 -7.47304 0
M  V30 10545 C 484.807 -3.01133 -7.08783 0
M  V30 10546 C 484.077 -4.12613 -6.37049 0
M  V30 10547 O 483.867 -3.72827 -4.97879 0
M  V30 10548 C 482.677 -4.45085 -6.88694 0
M  V30 10549 O 482.287 -5.7877 -6.5624 0
M  V30 10550 C 481.797 -3.47817 -6.12078 0
M  V30 10551 C 482.507 -3.39414 -4.77697 0
M  V30 10552 N 482.457 -2.04615 -4.15333 0
M  V30 10553 H 485.296 -3.41248 -7.98759 0
M  V30 10554 H 485.568 -2.5837 -6.41742 0
M  V30 10555 H 484.7 -5.02657 -6.42673 0
M  V30 10556 P 480.737 -6.144 -6.45285 0
M  V30 10557 O 480.517 -7.54673 -6.86199 0
M  V30 10558 O 479.947 -5.12391 -7.179 0
M  V30 10559 O 480.487 -5.99158 -4.88404 0
M  V30 10560 C 481.427 -6.60234 -3.96415 0
M  V30 10561 C 480.697 -7.08259 -2.72856 0
M  V30 10562 O 480.487 -5.9427 -1.83651 0
M  V30 10563 C 479.297 -7.64886 -2.9555 0
M  V30 10564 O 478.907 -8.53963 -1.90717 0
M  V30 10565 C 478.417 -6.4116 -2.90739 0
M  V30 10566 C 479.127 -5.55375 -1.86963 0
M  V30 10567 N 479.077 -4.09664 -2.15742 0
M  V30 10568 H 481.916 -7.45574 -4.45629 0
M  V30 10569 H 482.188 -5.86232 -3.67314 0
M  V30 10570 H 481.32 -7.84412 -2.24479 0
M  V30 10571 P 477.357 -8.7635 -1.60911 0
M  V30 10572 O 477.137 -10.1388 -1.11561 0
M  V30 10573 O 476.567 -8.36503 -2.79617 0
M  V30 10574 O 477.107 -7.71806 -0.42951 0
M  V30 10575 C 478.047 -7.67148 0.673689 0
M  V30 10576 C 477.317 -7.33374 1.95559 0
M  V30 10577 O 477.107 -5.88721 2.00726 0
M  V30 10578 C 475.917 -7.92526 2.10483 0
M  V30 10579 O 475.527 -8.02971 3.47653 0
M  V30 10580 C 475.037 -6.89602 1.41652 0
M  V30 10581 C 475.747 -5.59201 1.75185 0
M  V30 10582 N 475.697 -4.58235 0.662552 0
M  V30 10583 H 478.536 -8.65116 0.777161 0
M  V30 10584 H 478.808 -6.90173 0.474152 0
M  V30 10585 H 477.94 -7.66548 2.79458 0
M  V30 10586 P 473.977 -8.03563 3.84925 0
M  V30 10587 O 473.757 -8.85821 5.0569 0
M  V30 10588 O 473.187 -8.41101 2.65469 0
M  V30 10589 O 473.727 -6.4965 4.18908 0
M  V30 10590 C 474.667 -5.81037 5.05421 0
M  V30 10591 C 473.937 -4.78366 5.89277 0
M  V30 10592 O 473.727 -3.58302 5.08433 0
M  V30 10593 C 472.537 -5.17448 6.36119 0
M  V30 10594 O 472.147 -4.45271 7.53232 0
M  V30 10595 C 471.657 -4.74639 5.19936 0
M  V30 10596 C 472.367 -3.49432 4.70418 0
M  V30 10597 N 472.317 -3.32099 3.22613 0
M  V30 10598 H 475.156 -6.54213 5.71376 0
M  V30 10599 H 475.428 -5.30936 4.43503 0
M  V30 10600 H 474.56 -4.55889 6.76652 0
M  V30 10601 H 471.905 -2.61715 5.17932 0
M  V30 10602 H 471.625 -5.52155 4.41878 0
M  V30 10603 H 470.634 -4.51981 5.53374 0
M  V30 10604 H 472.468 -6.25124 6.55234 0
M  V30 10605 P 470.597 -4.23843 7.83734 0
M  V30 10606 O 470.377 -4.19407 9.29784 0
M  V30 10607 O 469.807 -5.24426 7.09156 0
M  V30 10608 O 470.347 -2.7935 7.20758 0
M  V30 10609 C 471.287 -1.7299 7.50419 0
M  V30 10610 C 470.557 -0.406376 7.57911 0
M  V30 10611 O 470.347 0.0897726 6.21935 0
M  V30 10612 C 469.157 -0.447224 8.1878 0
M  V30 10613 O 468.767 0.825065 8.71101 0
M  V30 10614 C 468.277 -0.783801 6.99623 0
M  V30 10615 C 468.987 -0.0619192 5.85967 0
M  V30 10616 N 468.937 -0.7859 4.56281 0
M  V30 10617 H 471.776 -1.93423 8.4679 0
M  V30 10618 H 472.048 -1.68181 6.71046 0
M  V30 10619 H 471.18 0.289041 8.15388 0
M  V30 10620 P 467.217 1.17771 8.83182 0
M  V30 10621 O 466.997 2.07206 9.98732 0
M  V30 10622 O 466.427 -0.0743816 8.81969 0
M  V30 10623 O 466.967 1.97678 7.474 0
M  V30 10624 C 467.907 3.01133 7.08783 0
M  V30 10625 C 467.177 4.1203 6.37546 0
M  V30 10626 O 466.967 3.72887 4.9796 0
M  V30 10627 C 465.777 4.45085 6.88694 0
M  V30 10628 O 465.387 5.78836 6.56315 0
M  V30 10629 C 464.897 3.47817 6.12078 0
M  V30 10630 C 465.607 3.39414 4.77697 0
M  V30 10631 N 465.557 2.04615 4.15333 0
M  V30 10632 C 465.407 1.96929 2.77162 0
M  V30 10633 O 465.317 3.02017 2.12006 0
M  V30 10634 N 465.357 0.55485 2.24237 0
M  V30 10635 C 465.457 -0.367808 2.9169 0
M  V30 10636 N 465.407 -1.53426 2.29427 0
M  V30 10637 C 465.607 -0.319148 4.33828 0
M  V30 10638 C 465.657 0.920672 4.90433 0
M  V30 10639 H 468.397 3.41209 7.98667 0
M  V30 10640 H 468.667 2.5837 6.41742 0
M  V30 10641 H 467.8 5.02718 6.42752 0
M  V30 10642 H 465.145 4.11779 4.09026 0
M  V30 10643 H 464.865 2.49661 6.61772 0
M  V30 10644 H 463.874 3.86674 6.00946 0
M  V30 10645 H 465.708 4.29991 7.97006 0
M  V30 10646 H 465.78 1.00589 5.98303 0
M  V30 10647 H 465.678 -1.22639 4.93799 0
M  V30 10648 H 465.29 -1.56819 1.27167 0
M  V30 10649 H 465.486 -2.41062 2.83063 0
M  V30 10650 P 463.837 6.144 6.45285 0
M  V30 10651 O 463.617 7.54673 6.86199 0
M  V30 10652 O 463.047 5.12391 7.179 0
M  V30 10653 O 463.587 5.99158 4.88404 0
M  V30 10654 C 464.527 6.60234 3.96415 0
M  V30 10655 C 463.797 7.08259 2.72856 0
M  V30 10656 O 463.587 5.9427 1.83651 0
M  V30 10657 C 462.397 7.64886 2.9555 0
M  V30 10658 O 462.007 8.53963 1.90717 0
M  V30 10659 C 461.517 6.4116 2.90739 0
M  V30 10660 C 462.227 5.55375 1.86963 0
M  V30 10661 N 462.177 4.09448 2.16152 0
M  V30 10662 H 465.016 7.45574 4.45629 0
M  V30 10663 H 465.288 5.85864 3.679 0
M  V30 10664 H 464.42 7.84412 2.24479 0
M  V30 10665 H 461.765 5.73457 0.888562 0
M  V30 10666 H 461.485 5.90877 3.88583 0
M  V30 10667 H 460.494 6.6596 2.58858 0
M  V30 10668 H 462.328 8.16339 3.92049 0
M  V30 10669 P 460.457 8.7635 1.60911 0
M  V30 10670 O 460.237 10.1388 1.11561 0
M  V30 10671 O 459.667 8.36503 2.79617 0
M  V30 10672 O 460.207 7.71806 0.42951 0
M  V30 10673 C 461.147 7.67148 -0.673689 0
M  V30 10674 C 460.417 7.33374 -1.95559 0
M  V30 10675 O 460.207 5.88721 -2.00726 0
M  V30 10676 C 459.017 7.92526 -2.10483 0
M  V30 10677 O 458.627 8.02971 -3.47653 0
M  V30 10678 C 458.137 6.89602 -1.41652 0
M  V30 10679 C 458.847 5.59201 -1.75185 0
M  V30 10680 N 458.797 4.58235 -0.662552 0
M  V30 10681 C 458.877 4.7683 0.704049 0
M  V30 10682 N 458.797 3.66233 1.39775 0
M  V30 10683 C 458.657 2.66526 0.431739 0
M  V30 10684 C 458.527 1.26394 0.575992 0
M  V30 10685 N 458.407 0.62859 -0.67177 0
M  V30 10686 C 458.407 1.27134 -1.89385 0
M  V30 10687 N 458.277 0.492035 -2.96951 0
M  V30 10688 N 458.537 2.58978 -2.02907 0
M  V30 10689 C 458.657 3.22433 -0.832218 0
M  V30 10690 H 461.636 8.65116 -0.777161 0
M  V30 10691 H 461.908 6.90173 -0.474152 0
M  V30 10692 H 461.04 7.66548 -2.79458 0
M  V30 10693 P 457.077 8.03563 -3.84925 0
M  V30 10694 O 456.857 8.85821 -5.0569 0
M  V30 10695 O 456.287 8.41101 -2.65469 0
M  V30 10696 O 456.827 6.4965 -4.18908 0
M  V30 10697 C 457.767 5.80886 -5.05289 0
M  V30 10698 C 457.037 4.78366 -5.89277 0
M  V30 10699 O 456.827 3.58302 -5.08433 0
M  V30 10700 C 455.637 5.16748 -6.36559 0
M  V30 10701 O 455.247 4.45271 -7.53232 0
M  V30 10702 C 454.757 4.74572 -5.19863 0
M  V30 10703 C 455.467 3.49373 -4.70338 0
M  V30 10704 N 455.417 3.31704 -3.22876 0
M  V30 10705 C 455.267 2.03326 -2.74871 0
M  V30 10706 O 455.177 1.06486 -3.48076 0
M  V30 10707 N 455.227 1.91838 -1.37456 0
M  V30 10708 C 455.317 2.94295 -0.462035 0
M  V30 10709 O 455.267 2.71763 0.752928 0
M  V30 10710 C 455.467 4.25064 -1.05249 0
M  V30 10711 C 455.577 5.39815 -0.095697 0
M  V30 10712 C 455.517 4.40214 -2.39192 0
M  V30 10713 H 458.258 6.54063 -5.71245 0
M  V30 10714 H 458.527 5.30339 -4.43905 0
M  V30 10715 H 457.66 4.55889 -6.76652 0
M  V30 10716 H 455.005 2.6167 -5.17842 0
M  V30 10717 H 454.726 5.52155 -4.41878 0
M  V30 10718 H 453.734 4.51918 -5.53297 0
M  V30 10719 H 455.568 6.25055 -6.55162 0
M  V30 10720 H 455.639 5.39798 -2.81523 0
M  V30 10721 H 454.609 5.91593 -0.0279582 0
M  V30 10722 H 456.346 6.10038 -0.450573 0
M  V30 10723 H 455.858 5.02007 0.89937 0
M  V30 10724 H 455.122 0.995326 -1.00435 0
M  V30 10725 P 453.697 4.23843 -7.83734 0
M  V30 10726 O 453.477 4.19407 -9.29784 0
M  V30 10727 O 452.907 5.24426 -7.09156 0
M  V30 10728 O 453.447 2.7935 -7.20758 0
M  V30 10729 C 454.387 1.7299 -7.50419 0
M  V30 10730 C 453.657 0.406376 -7.57911 0
M  V30 10731 O 453.447 -0.0897726 -6.21935 0
M  V30 10732 C 452.257 0.447224 -8.1878 0
M  V30 10733 O 451.867 -0.825065 -8.71101 0
M  V30 10734 C 451.377 0.783801 -6.99623 0
M  V30 10735 C 452.087 0.0619192 -5.85967 0
M  V30 10736 N 452.037 0.7859 -4.56281 0
M  V30 10737 C 452.117 2.14308 -4.31736 0
M  V30 10738 N 452.037 2.46106 -3.05116 0
M  V30 10739 C 451.897 1.23422 -2.4014 0
M  V30 10740 C 451.767 0.938381 -1.02409 0
M  V30 10741 N 451.647 -0.444647 -0.805413 0
M  V30 10742 C 451.647 -1.40829 -1.79435 0
M  V30 10743 N 451.517 -2.67213 -1.38558 0
M  V30 10744 N 451.777 -1.12947 -3.09005 0
M  V30 10745 C 451.897 0.204887 -3.32369 0
M  V30 10746 H 454.876 1.93423 -8.4679 0
M  V30 10747 H 455.148 1.68181 -6.71046 0
M  V30 10748 H 454.28 -0.289041 -8.15388 0
M  V30 10749 P 450.317 -1.17771 -8.83182 0
M  V30 10750 O 450.097 -2.07206 -9.98732 0
M  V30 10751 O 449.527 0.0743816 -8.81969 0
M  V30 10752 O 450.067 -1.97652 -7.47304 0
M  V30 10753 C 451.007 -3.01133 -7.08783 0
M  V30 10754 C 450.277 -4.12613 -6.37049 0
M  V30 10755 O 450.067 -3.72827 -4.97879 0
M  V30 10756 C 448.877 -4.45085 -6.88694 0
M  V30 10757 O 448.487 -5.7877 -6.5624 0
M  V30 10758 C 447.997 -3.47817 -6.12078 0
M  V30 10759 C 448.707 -3.39414 -4.77697 0
M  V30 10760 N 448.657 -2.04615 -4.15333 0
M  V30 10761 H 451.496 -3.41248 -7.98759 0
M  V30 10762 H 451.768 -2.5837 -6.41742 0
M  V30 10763 H 450.9 -5.02657 -6.42673 0
M  V30 10764 P 446.937 -6.144 -6.45285 0
M  V30 10765 O 446.717 -7.54673 -6.86199 0
M  V30 10766 O 446.147 -5.12391 -7.179 0
M  V30 10767 O 446.687 -5.99158 -4.88404 0
M  V30 10768 C 447.627 -6.60234 -3.96415 0
M  V30 10769 C 446.897 -7.08259 -2.72856 0
M  V30 10770 O 446.687 -5.9427 -1.83651 0
M  V30 10771 C 445.497 -7.64886 -2.9555 0
M  V30 10772 O 445.107 -8.53963 -1.90717 0
M  V30 10773 C 444.617 -6.4116 -2.90739 0
M  V30 10774 C 445.327 -5.55375 -1.86963 0
M  V30 10775 N 445.277 -4.09664 -2.15742 0
M  V30 10776 H 448.116 -7.45574 -4.45629 0
M  V30 10777 H 448.388 -5.86232 -3.67314 0
M  V30 10778 H 447.52 -7.84412 -2.24479 0
M  V30 10779 P 443.557 -8.7635 -1.60911 0
M  V30 10780 O 443.337 -10.1388 -1.11561 0
M  V30 10781 O 442.767 -8.36503 -2.79617 0
M  V30 10782 O 443.307 -7.71806 -0.42951 0
M  V30 10783 C 444.247 -7.67148 0.673689 0
M  V30 10784 C 443.517 -7.33374 1.95559 0
M  V30 10785 O 443.307 -5.88721 2.00726 0
M  V30 10786 C 442.117 -7.92526 2.10483 0
M  V30 10787 O 441.727 -8.02971 3.47653 0
M  V30 10788 C 441.237 -6.89602 1.41652 0
M  V30 10789 C 441.947 -5.59201 1.75185 0
M  V30 10790 N 441.897 -4.58235 0.662552 0
M  V30 10791 H 444.736 -8.65116 0.777161 0
M  V30 10792 H 445.008 -6.90173 0.474152 0
M  V30 10793 H 444.14 -7.66548 2.79458 0
M  V30 10794 P 440.177 -8.03563 3.84925 0
M  V30 10795 O 439.957 -8.85821 5.0569 0
M  V30 10796 O 439.387 -8.41101 2.65469 0
M  V30 10797 O 439.927 -6.49734 4.18962 0
M  V30 10798 C 440.867 -5.81037 5.05421 0
M  V30 10799 C 440.137 -4.79018 5.88876 0
M  V30 10800 O 439.927 -3.58359 5.08515 0
M  V30 10801 C 438.737 -5.17448 6.36119 0
M  V30 10802 O 438.347 -4.45322 7.53318 0
M  V30 10803 C 437.857 -4.74639 5.19936 0
M  V30 10804 C 438.567 -3.49432 4.70418 0
M  V30 10805 N 438.517 -3.31776 3.22945 0
M  V30 10806 C 438.367 -2.02742 2.72939 0
M  V30 10807 O 438.277 -1.08301 3.52749 0
M  V30 10808 N 438.317 -1.96117 1.22063 0
M  V30 10809 C 438.417 -2.8878 0.551566 0
M  V30 10810 N 438.367 -2.65609 -0.750198 0
M  V30 10811 C 438.567 -4.22457 1.03707 0
M  V30 10812 C 438.617 -4.37979 2.39113 0
M  V30 10813 H 441.357 -6.54138 5.7131 0
M  V30 10814 H 441.627 -5.30492 4.44033 0
M  V30 10815 H 440.76 -4.55945 6.76735 0
M  V30 10816 H 438.105 -2.6176 5.18021 0
M  V30 10817 H 437.825 -5.52233 4.41941 0
M  V30 10818 H 436.834 -4.52045 5.53452 0
M  V30 10819 H 438.668 -6.25124 6.55234 0
M  V30 10820 H 438.74 -5.37936 2.80552 0
M  V30 10821 H 438.638 -5.07528 0.359553 0
M  V30 10822 H 438.25 -1.69403 -1.09847 0
M  V30 10823 H 438.446 -3.43701 -1.41792 0
M  V30 10824 P 436.797 -4.23843 7.83734 0
M  V30 10825 O 436.577 -4.19407 9.29784 0
M  V30 10826 O 436.007 -5.24426 7.09156 0
M  V30 10827 O 436.547 -2.7935 7.20758 0
M  V30 10828 C 437.487 -1.7299 7.50419 0
M  V30 10829 C 436.757 -0.406376 7.57911 0
M  V30 10830 O 436.547 0.0897726 6.21935 0
M  V30 10831 C 435.357 -0.447224 8.1878 0
M  V30 10832 O 434.967 0.825065 8.71101 0
M  V30 10833 C 434.477 -0.783801 6.99623 0
M  V30 10834 C 435.187 -0.0619192 5.85967 0
M  V30 10835 N 435.137 -0.790462 4.56202 0
M  V30 10836 C 435.217 -2.13895 4.34171 0
M  V30 10837 N 435.147 -2.46449 3.08687 0
M  V30 10838 C 434.997 -1.2525 2.43697 0
M  V30 10839 C 434.867 -0.914535 1.07318 0
M  V30 10840 N 434.857 -1.80782 0.0887348 0
M  V30 10841 N 434.747 0.386745 0.768133 0
M  V30 10842 C 434.757 1.28096 1.75159 0
M  V30 10843 N 434.877 1.09708 3.04861 0
M  V30 10844 C 434.997 -0.214857 3.32306 0
M  V30 10845 H 437.976 -1.93423 8.4679 0
M  V30 10846 H 438.248 -1.68852 6.70877 0
M  V30 10847 H 437.38 0.289041 8.15388 0
M  V30 10848 H 434.725 0.927006 5.72848 0
M  V30 10849 H 434.445 -1.86973 6.82036 0
M  V30 10850 H 433.454 -0.403953 7.13357 0
M  V30 10851 H 435.288 -1.20599 8.97534 0
M  V30 10852 H 435.329 -2.86846 5.14318 0
M  V30 10853 H 434.948 -2.81082 0.302037 0
M  V30 10854 H 434.759 -1.49688 -0.889064 0
M  V30 10855 H 434.651 2.31317 1.43855 0
M  V30 10856 P 433.417 1.17771 8.83182 0
M  V30 10857 O 433.197 2.07206 9.98732 0
M  V30 10858 O 432.627 -0.0743816 8.81969 0
M  V30 10859 O 433.167 1.97652 7.47304 0
M  V30 10860 C 434.107 3.01133 7.08783 0
M  V30 10861 C 433.377 4.12613 6.37049 0
M  V30 10862 O 433.167 3.72827 4.97879 0
M  V30 10863 C 431.977 4.45085 6.88694 0
M  V30 10864 O 431.587 5.7877 6.5624 0
M  V30 10865 C 431.097 3.47817 6.12078 0
M  V30 10866 C 431.807 3.39414 4.77697 0
M  V30 10867 N 431.757 2.04199 4.15538 0
M  V30 10868 C 431.837 0.821545 4.76977 0
M  V30 10869 N 431.767 -0.1794 3.94592 0
M  V30 10870 C 431.617 0.419121 2.70776 0
M  V30 10871 C 431.487 -0.109072 1.40577 0
M  V30 10872 N 431.477 -1.4104 1.1344 0
M  V30 10873 N 431.367 0.764381 0.39411 0
M  V30 10874 C 431.377 2.06587 0.664135 0
M  V30 10875 N 431.497 2.67948 1.82153 0
M  V30 10876 C 431.617 1.77942 2.8147 0
M  V30 10877 H 434.596 3.41248 7.98759 0
M  V30 10878 H 434.868 2.57728 6.42 0
M  V30 10879 H 434 5.02657 6.42673 0
M  V30 10880 H 431.345 4.11708 4.08956 0
M  V30 10881 H 431.065 2.49626 6.61679 0
M  V30 10882 H 430.074 3.8662 6.00862 0
M  V30 10883 H 431.908 4.29991 7.97006 0
M  V30 10884 H 431.949 0.702451 5.84696 0
M  V30 10885 H 431.568 -2.09647 1.89651 0
M  V30 10886 H 431.379 -1.73358 0.160575 0
M  V30 10887 H 431.271 2.71695 -0.195838 0
M  V30 10888 P 430.037 6.144 6.45285 0
M  V30 10889 O 429.817 7.54673 6.86199 0
M  V30 10890 O 429.247 5.12391 7.179 0
M  V30 10891 O 429.787 5.99158 4.88404 0
M  V30 10892 C 430.727 6.60234 3.96415 0
M  V30 10893 C 429.997 7.08259 2.72856 0
M  V30 10894 O 429.787 5.9427 1.83651 0
M  V30 10895 C 428.597 7.64886 2.9555 0
M  V30 10896 O 428.207 8.53963 1.90717 0
M  V30 10897 C 427.717 6.4116 2.90739 0
M  V30 10898 C 428.427 5.55375 1.86963 0
M  V30 10899 N 428.377 4.09448 2.16152 0
M  V30 10900 H 431.216 7.45574 4.45629 0
M  V30 10901 H 431.488 5.85864 3.679 0
M  V30 10902 H 430.62 7.84412 2.24479 0
M  V30 10903 H 427.965 5.73457 0.888562 0
M  V30 10904 H 427.685 5.90877 3.88583 0
M  V30 10905 H 426.694 6.6596 2.58858 0
M  V30 10906 H 428.528 8.16339 3.92049 0
M  V30 10907 P 426.657 8.7635 1.60911 0
M  V30 10908 O 426.437 10.1388 1.11561 0
M  V30 10909 O 425.867 8.36503 2.79617 0
M  V30 10910 O 426.407 7.71906 0.429565 0
M  V30 10911 C 427.347 7.67148 -0.673689 0
M  V30 10912 C 426.617 7.33666 -1.94851 0
M  V30 10913 O 426.407 5.88816 -2.00759 0
M  V30 10914 C 425.217 7.92526 -2.10483 0
M  V30 10915 O 424.827 8.03063 -3.47693 0
M  V30 10916 C 424.337 6.89602 -1.41652 0
M  V30 10917 C 425.047 5.59201 -1.75185 0
M  V30 10918 N 424.997 4.58235 -0.662552 0
M  V30 10919 C 424.847 3.24451 -1.01643 0
M  V30 10920 O 424.757 2.94958 -2.21722 0
M  V30 10921 N 424.797 2.30408 0.165238 0
M  V30 10922 C 424.897 2.66048 1.25118 0
M  V30 10923 N 424.847 1.70787 2.16813 0
M  V30 10924 C 425.047 4.02732 1.64413 0
M  V30 10925 C 425.097 4.9488 0.63991 0
M  V30 10926 H 427.837 8.65017 -0.777072 0
M  V30 10927 H 428.107 6.90173 -0.474152 0
M  V30 10928 H 427.24 7.66642 -2.79492 0
M  V30 10929 H 424.585 5.16254 -2.65229 0
M  V30 10930 H 424.305 7.06532 -0.329431 0
M  V30 10931 H 423.314 6.91023 -1.82047 0
M  V30 10932 H 425.148 8.90873 -1.62657 0
M  V30 10933 H 425.22 6.00104 0.892197 0
M  V30 10934 H 425.118 4.31733 2.69229 0
M  V30 10935 H 424.73 0.724835 1.8844 0
M  V30 10936 H 424.926 1.94716 3.16734 0
M  V30 10937 P 423.278 8.03563 -3.84925 0
M  V30 10938 O 423.058 8.85821 -5.0569 0
M  V30 10939 O 422.488 8.41101 -2.65469 0
M  V30 10940 O 423.028 6.4965 -4.18908 0
M  V30 10941 C 423.968 5.81037 -5.05421 0
M  V30 10942 C 423.238 4.78366 -5.89277 0
M  V30 10943 O 423.028 3.58302 -5.08433 0
M  V30 10944 C 421.838 5.17448 -6.36119 0
M  V30 10945 O 421.448 4.45271 -7.53232 0
M  V30 10946 C 420.958 4.74639 -5.19936 0
M  V30 10947 C 421.668 3.49432 -4.70418 0
M  V30 10948 N 421.618 3.32099 -3.22613 0
M  V30 10949 H 424.457 6.54213 -5.71376 0
M  V30 10950 H 424.729 5.30936 -4.43503 0
M  V30 10951 H 423.861 4.55889 -6.76652 0
M  V30 10952 H 421.206 2.61715 -5.17932 0
M  V30 10953 H 420.926 5.52155 -4.41878 0
M  V30 10954 H 419.935 4.51981 -5.53374 0
M  V30 10955 H 421.769 6.25124 -6.55234 0
M  V30 10956 P 419.898 4.23843 -7.83734 0
M  V30 10957 O 419.678 4.19407 -9.29784 0
M  V30 10958 O 419.108 5.24426 -7.09156 0
M  V30 10959 O 419.648 2.7935 -7.20758 0
M  V30 10960 C 420.588 1.7299 -7.50419 0
M  V30 10961 C 419.858 0.406376 -7.57911 0
M  V30 10962 O 419.648 -0.0897726 -6.21935 0
M  V30 10963 C 418.458 0.447224 -8.1878 0
M  V30 10964 O 418.068 -0.825065 -8.71101 0
M  V30 10965 C 417.578 0.783801 -6.99623 0
M  V30 10966 C 418.288 0.0619192 -5.85967 0
M  V30 10967 N 418.238 0.7859 -4.56281 0
M  V30 10968 H 421.077 1.93423 -8.4679 0
M  V30 10969 H 421.349 1.68181 -6.71046 0
M  V30 10970 H 420.481 -0.289041 -8.15388 0
M  V30 10971 P 416.518 -1.17771 -8.83182 0
M  V30 10972 O 416.298 -2.07206 -9.98732 0
M  V30 10973 O 415.728 0.0743816 -8.81969 0
M  V30 10974 O 416.268 -1.97652 -7.47304 0
M  V30 10975 C 417.208 -3.01133 -7.08783 0
M  V30 10976 C 416.478 -4.12613 -6.37049 0
M  V30 10977 O 416.268 -3.72827 -4.97879 0
M  V30 10978 C 415.078 -4.45085 -6.88694 0
M  V30 10979 O 414.688 -5.7877 -6.5624 0
M  V30 10980 C 414.198 -3.47817 -6.12078 0
M  V30 10981 C 414.908 -3.39414 -4.77697 0
M  V30 10982 N 414.858 -2.04615 -4.15333 0
M  V30 10983 H 417.697 -3.41248 -7.98759 0
M  V30 10984 H 417.969 -2.5837 -6.41742 0
M  V30 10985 H 417.101 -5.02657 -6.42673 0
M  V30 10986 P 413.138 -6.144 -6.45285 0
M  V30 10987 O 412.918 -7.54673 -6.86199 0
M  V30 10988 O 412.348 -5.12391 -7.179 0
M  V30 10989 O 412.888 -5.99158 -4.88404 0
M  V30 10990 C 413.828 -6.60234 -3.96415 0
M  V30 10991 C 413.098 -7.08259 -2.72856 0
M  V30 10992 O 412.888 -5.9427 -1.83651 0
M  V30 10993 C 411.698 -7.64886 -2.9555 0
M  V30 10994 O 411.308 -8.53963 -1.90717 0
M  V30 10995 C 410.818 -6.4116 -2.90739 0
M  V30 10996 C 411.528 -5.55375 -1.86963 0
M  V30 10997 N 411.478 -4.09664 -2.15742 0
M  V30 10998 H 414.317 -7.45574 -4.45629 0
M  V30 10999 H 414.589 -5.86232 -3.67314 0
M  V30 11000 H 413.721 -7.84412 -2.24479 0
M  V30 11001 P 409.758 -8.7635 -1.60911 0
M  V30 11002 O 409.538 -10.1388 -1.11561 0
M  V30 11003 O 408.968 -8.36503 -2.79617 0
M  V30 11004 O 409.508 -7.71806 -0.42951 0
M  V30 11005 C 410.448 -7.67148 0.673689 0
M  V30 11006 C 409.718 -7.33374 1.95559 0
M  V30 11007 O 409.508 -5.88721 2.00726 0
M  V30 11008 C 408.318 -7.92526 2.10483 0
M  V30 11009 O 407.928 -8.02971 3.47653 0
M  V30 11010 C 407.438 -6.89602 1.41652 0
M  V30 11011 C 408.148 -5.59201 1.75185 0
M  V30 11012 N 408.098 -4.58235 0.662552 0
M  V30 11013 H 410.937 -8.65116 0.777161 0
M  V30 11014 H 411.209 -6.90173 0.474152 0
M  V30 11015 H 410.341 -7.66548 2.79458 0
M  V30 11016 P 406.378 -8.03563 3.84925 0
M  V30 11017 O 406.158 -8.85821 5.0569 0
M  V30 11018 O 405.588 -8.41101 2.65469 0
M  V30 11019 O 406.128 -6.4965 4.18908 0
M  V30 11020 C 407.068 -5.81037 5.05421 0
M  V30 11021 C 406.338 -4.78366 5.89277 0
M  V30 11022 O 406.128 -3.58302 5.08433 0
M  V30 11023 C 404.938 -5.17448 6.36119 0
M  V30 11024 O 404.548 -4.45271 7.53232 0
M  V30 11025 C 404.058 -4.74639 5.19936 0
M  V30 11026 C 404.768 -3.49432 4.70418 0
M  V30 11027 N 404.718 -3.31776 3.22945 0
M  V30 11028 C 404.798 -4.27147 2.23315 0
M  V30 11029 N 404.718 -3.78447 1.02186 0
M  V30 11030 C 404.578 -2.41001 1.21732 0
M  V30 11031 C 404.448 -1.36111 0.27694 0
M  V30 11032 O 404.428 -1.42065 -0.951767 0
M  V30 11033 N 404.328 -0.113683 0.912949 0
M  V30 11034 C 404.328 0.0846396 2.27943 0
M  V30 11035 N 404.198 1.34737 2.6916 0
M  V30 11036 N 404.458 -0.902521 3.16379 0
M  V30 11037 C 404.578 -2.11937 2.56849 0
M  V30 11038 H 407.557 -6.54213 5.71376 0
M  V30 11039 H 407.829 -5.30492 4.44033 0
M  V30 11040 H 406.961 -4.55889 6.76652 0
M  V30 11041 H 404.306 -2.6176 5.18021 0
M  V30 11042 H 404.026 -5.52233 4.41941 0
M  V30 11043 H 403.035 -4.52045 5.53452 0
M  V30 11044 H 404.869 -6.25193 6.55307 0
M  V30 11045 H 404.918 -5.3351 2.43857 0
M  V30 11046 H 404.236 0.69331 0.330371 0
M  V30 11047 H 404.199 1.56433 3.6988 0
M  V30 11048 H 404.098 2.10701 2.00133 0
M  V30 11049 P 402.998 -4.23843 7.83734 0
M  V30 11050 O 402.778 -4.19407 9.29784 0
M  V30 11051 O 402.208 -5.24426 7.09156 0
M  V30 11052 O 402.748 -2.79386 7.20852 0
M  V30 11053 C 403.688 -1.7299 7.50419 0
M  V30 11054 C 402.958 -0.41401 7.5797 0
M  V30 11055 O 402.748 0.089787 6.22035 0
M  V30 11056 C 401.558 -0.447224 8.1878 0
M  V30 11057 O 401.168 0.825159 8.71201 0
M  V30 11058 C 400.678 -0.783801 6.99623 0
M  V30 11059 C 401.388 -0.0619192 5.85967 0
M  V30 11060 N 401.338 -0.7859 4.56281 0
M  V30 11061 C 401.188 -0.0359258 3.39981 0
M  V30 11062 O 401.098 1.19723 3.49038 0
M  V30 11063 N 401.138 -0.869151 2.14025 0
M  V30 11064 C 401.238 -2.01207 2.14363 0
M  V30 11065 N 401.188 -2.58978 0.954287 0
M  V30 11066 C 401.388 -2.80817 3.32215 0
M  V30 11067 C 401.438 -2.13785 4.50884 0
M  V30 11068 H 404.178 -1.93401 8.46693 0
M  V30 11069 H 404.448 -1.68181 6.71046 0
M  V30 11070 H 403.581 0.289076 8.15488 0
M  V30 11071 H 400.926 0.927166 5.72947 0
M  V30 11072 H 400.646 -1.87 6.82132 0
M  V30 11073 H 399.655 -0.404009 7.13457 0
M  V30 11074 H 401.489 -1.20599 8.97534 0
M  V30 11075 H 401.561 -2.70295 5.43162 0
M  V30 11076 H 401.459 -3.89465 3.27406 0
M  V30 11077 H 401.071 -2.01616 0.107046 0
M  V30 11078 H 401.267 -3.61403 0.873101 0
M  V30 11079 P 399.618 1.17771 8.83182 0
M  V30 11080 O 399.398 2.07206 9.98732 0
M  V30 11081 O 398.828 -0.0743816 8.81969 0
M  V30 11082 O 399.368 1.97652 7.47304 0
M  V30 11083 C 400.308 3.01133 7.08783 0
M  V30 11084 C 399.578 4.12613 6.37049 0
M  V30 11085 O 399.368 3.72827 4.97879 0
M  V30 11086 C 398.178 4.45085 6.88694 0
M  V30 11087 O 397.788 5.7877 6.5624 0
M  V30 11088 C 397.298 3.47817 6.12078 0
M  V30 11089 C 398.008 3.39414 4.77697 0
M  V30 11090 N 397.958 2.04615 4.15333 0
M  V30 11091 H 400.797 3.41248 7.98759 0
M  V30 11092 H 401.069 2.5837 6.41742 0
M  V30 11093 H 400.201 5.02657 6.42673 0
M  V30 11094 P 396.238 6.144 6.45285 0
M  V30 11095 O 396.018 7.54673 6.86199 0
M  V30 11096 O 395.448 5.12391 7.179 0
M  V30 11097 O 395.988 5.99158 4.88404 0
M  V30 11098 C 396.928 6.60234 3.96415 0
M  V30 11099 C 396.198 7.08259 2.72856 0
M  V30 11100 O 395.988 5.9427 1.83651 0
M  V30 11101 C 394.798 7.64886 2.9555 0
M  V30 11102 O 394.408 8.53963 1.90717 0
M  V30 11103 C 393.918 6.4116 2.90739 0
M  V30 11104 C 394.628 5.55375 1.86963 0
M  V30 11105 N 394.578 4.09664 2.15742 0
M  V30 11106 H 397.417 7.45574 4.45629 0
M  V30 11107 H 397.689 5.86232 3.67314 0
M  V30 11108 H 396.821 7.84412 2.24479 0
M  V30 11109 P 392.858 8.7635 1.60911 0
M  V30 11110 O 392.638 10.1388 1.11561 0
M  V30 11111 O 392.068 8.36503 2.79617 0
M  V30 11112 O 392.608 7.71806 0.42951 0
M  V30 11113 C 393.548 7.66948 -0.673514 0
M  V30 11114 C 392.818 7.33374 -1.95559 0
M  V30 11115 O 392.608 5.88721 -2.00726 0
M  V30 11116 C 391.418 7.92218 -2.1125 0
M  V30 11117 O 391.028 8.02971 -3.47653 0
M  V30 11118 C 390.538 6.89504 -1.41631 0
M  V30 11119 C 391.248 5.59106 -1.75155 0
M  V30 11120 N 391.198 4.58136 -0.662409 0
M  V30 11121 C 391.048 3.26059 -1.02863 0
M  V30 11122 O 390.958 2.90743 -2.19009 0
M  V30 11123 N 391.008 2.35995 0.0155585 0
M  V30 11124 C 391.098 2.65248 1.35603 0
M  V30 11125 C 391.248 4.05747 1.64698 0
M  V30 11126 C 391.298 4.96734 0.652411 0
M  V30 11127 H 394.039 8.64917 -0.776982 0
M  V30 11128 H 394.308 6.89974 -0.474015 0
M  V30 11129 H 393.441 7.66548 -2.79458 0
M  V30 11130 H 390.786 5.16076 -2.65138 0
M  V30 11131 H 390.507 7.06433 -0.329384 0
M  V30 11132 H 389.515 6.90829 -1.81996 0
M  V30 11133 H 391.349 8.90774 -1.62639 0
M  V30 11134 H 391.42 6.02181 0.895285 0
M  V30 11135 P 389.478 8.03563 -3.84925 0
M  V30 11136 O 389.258 8.85821 -5.0569 0
M  V30 11137 O 388.688 8.41101 -2.65469 0
M  V30 11138 O 389.228 6.4965 -4.18908 0
M  V30 11139 C 390.168 5.81037 -5.05421 0
M  V30 11140 C 389.438 4.78366 -5.89277 0
M  V30 11141 O 389.228 3.58302 -5.08433 0
M  V30 11142 C 388.038 5.17448 -6.36119 0
M  V30 11143 O 387.648 4.45271 -7.53232 0
M  V30 11144 C 387.158 4.74639 -5.19936 0
M  V30 11145 C 387.868 3.49432 -4.70418 0
M  V30 11146 N 387.818 3.31776 -3.22945 0
M  V30 11147 H 390.657 6.54213 -5.71376 0
M  V30 11148 H 390.929 5.30492 -4.44033 0
M  V30 11149 H 390.061 4.55889 -6.76652 0
M  V30 11150 P 386.098 4.23843 -7.83734 0
M  V30 11151 O 385.878 4.19407 -9.29784 0
M  V30 11152 O 385.308 5.24426 -7.09156 0
M  V30 11153 O 385.848 2.7935 -7.20758 0
M  V30 11154 C 386.788 1.7299 -7.50419 0
M  V30 11155 C 386.058 0.406376 -7.57911 0
M  V30 11156 O 385.848 -0.0897726 -6.21935 0
M  V30 11157 C 384.658 0.447224 -8.1878 0
M  V30 11158 O 384.268 -0.825065 -8.71101 0
M  V30 11159 C 383.778 0.783801 -6.99623 0
M  V30 11160 C 384.488 0.0619192 -5.85967 0
M  V30 11161 N 384.438 0.7859 -4.56281 0
M  V30 11162 C 384.518 2.14308 -4.31736 0
M  V30 11163 N 384.438 2.46106 -3.05116 0
M  V30 11164 C 384.298 1.23422 -2.4014 0
M  V30 11165 C 384.168 0.938381 -1.02409 0
M  V30 11166 N 384.048 -0.444647 -0.805413 0
M  V30 11167 C 384.048 -1.40829 -1.79435 0
M  V30 11168 N 383.918 -2.67213 -1.38558 0
M  V30 11169 N 384.178 -1.12947 -3.09005 0
M  V30 11170 C 384.298 0.204887 -3.32369 0
M  V30 11171 H 387.277 1.93423 -8.4679 0
M  V30 11172 H 387.549 1.68181 -6.71046 0
M  V30 11173 H 386.681 -0.289041 -8.15388 0
M  V30 11174 P 382.718 -1.17771 -8.83182 0
M  V30 11175 O 382.498 -2.07206 -9.98732 0
M  V30 11176 O 381.928 0.0743816 -8.81969 0
M  V30 11177 O 382.468 -1.97652 -7.47304 0
M  V30 11178 C 383.408 -3.01133 -7.08783 0
M  V30 11179 C 382.678 -4.12613 -6.37049 0
M  V30 11180 O 382.468 -3.72827 -4.97879 0
M  V30 11181 C 381.278 -4.45085 -6.88694 0
M  V30 11182 O 380.888 -5.7877 -6.5624 0
M  V30 11183 C 380.398 -3.47817 -6.12078 0
M  V30 11184 C 381.108 -3.39414 -4.77697 0
M  V30 11185 N 381.058 -2.04199 -4.15538 0
M  V30 11186 C 381.138 -0.821545 -4.76977 0
M  V30 11187 N 381.068 0.1794 -3.94592 0
M  V30 11188 C 380.918 -0.419121 -2.70776 0
M  V30 11189 C 380.788 0.109072 -1.40577 0
M  V30 11190 N 380.778 1.4104 -1.1344 0
M  V30 11191 N 380.668 -0.764381 -0.39411 0
M  V30 11192 C 380.678 -2.06587 -0.664135 0
M  V30 11193 N 380.798 -2.67948 -1.82153 0
M  V30 11194 C 380.918 -1.77942 -2.8147 0
M  V30 11195 H 383.897 -3.41248 -7.98759 0
M  V30 11196 H 384.169 -2.57728 -6.42 0
M  V30 11197 H 383.301 -5.02657 -6.42673 0
M  V30 11198 H 380.646 -4.11708 -4.08956 0
M  V30 11199 H 380.366 -2.49626 -6.61679 0
M  V30 11200 H 379.375 -3.8662 -6.00862 0
M  V30 11201 H 381.209 -4.29991 -7.97006 0
M  V30 11202 H 381.25 -0.702451 -5.84696 0
M  V30 11203 H 380.869 2.09647 -1.89651 0
M  V30 11204 H 380.68 1.73358 -0.160575 0
M  V30 11205 H 380.572 -2.71695 0.195838 0
M  V30 11206 P 379.338 -6.144 -6.45285 0
M  V30 11207 O 379.118 -7.54673 -6.86199 0
M  V30 11208 O 378.548 -5.12391 -7.179 0
M  V30 11209 O 379.088 -5.99158 -4.88404 0
M  V30 11210 C 380.028 -6.60234 -3.96415 0
M  V30 11211 C 379.298 -7.08259 -2.72856 0
M  V30 11212 O 379.088 -5.9427 -1.83651 0
M  V30 11213 C 377.898 -7.64886 -2.9555 0
M  V30 11214 O 377.508 -8.53963 -1.90717 0
M  V30 11215 C 377.018 -6.4116 -2.90739 0
M  V30 11216 C 377.728 -5.55375 -1.86963 0
M  V30 11217 N 377.678 -4.09664 -2.15742 0
M  V30 11218 H 380.517 -7.45574 -4.45629 0
M  V30 11219 H 380.789 -5.86232 -3.67314 0
M  V30 11220 H 379.921 -7.84412 -2.24479 0
M  V30 11221 P 375.958 -8.7635 -1.60911 0
M  V30 11222 O 375.738 -10.1388 -1.11561 0
M  V30 11223 O 375.168 -8.36503 -2.79617 0
M  V30 11224 O 375.708 -7.71806 -0.42951 0
M  V30 11225 C 376.648 -7.67148 0.673689 0
M  V30 11226 C 375.918 -7.33374 1.95559 0
M  V30 11227 O 375.708 -5.88721 2.00726 0
M  V30 11228 C 374.518 -7.92526 2.10483 0
M  V30 11229 O 374.128 -8.02971 3.47653 0
M  V30 11230 C 373.638 -6.89602 1.41652 0
M  V30 11231 C 374.348 -5.59201 1.75185 0
M  V30 11232 N 374.298 -4.58301 0.657969 0
M  V30 11233 H 377.137 -8.65116 0.777161 0
M  V30 11234 H 377.409 -6.9022 0.46725 0
M  V30 11235 H 376.541 -7.66548 2.79458 0
M  V30 11236 H 373.886 -5.16165 2.65183 0
M  V30 11237 H 373.606 -7.06433 0.329384 0
M  V30 11238 H 372.615 -6.90926 1.82021 0
M  V30 11239 H 374.449 -8.90873 1.62657 0
M  V30 11240 P 372.578 -8.03563 3.84925 0
M  V30 11241 O 372.358 -8.85821 5.0569 0
M  V30 11242 O 371.788 -8.41101 2.65469 0
M  V30 11243 O 372.328 -6.49734 4.18962 0
M  V30 11244 C 373.268 -5.81037 5.05421 0
M  V30 11245 C 372.538 -4.79018 5.88876 0
M  V30 11246 O 372.328 -3.58359 5.08515 0
M  V30 11247 C 371.138 -5.17448 6.36119 0
M  V30 11248 O 370.748 -4.45322 7.53318 0
M  V30 11249 C 370.258 -4.74639 5.19936 0
M  V30 11250 C 370.968 -3.49432 4.70418 0
M  V30 11251 N 370.918 -3.31776 3.22945 0
M  V30 11252 C 370.768 -2.02742 2.72939 0
M  V30 11253 O 370.678 -1.08301 3.52749 0
M  V30 11254 N 370.718 -1.96117 1.22063 0
M  V30 11255 C 370.818 -2.8878 0.551566 0
M  V30 11256 N 370.768 -2.65609 -0.750198 0
M  V30 11257 C 370.968 -4.22457 1.03707 0
M  V30 11258 C 371.018 -4.37979 2.39113 0
M  V30 11259 H 373.758 -6.54138 5.7131 0
M  V30 11260 H 374.028 -5.30492 4.44033 0
M  V30 11261 H 373.161 -4.55945 6.76735 0
M  V30 11262 H 370.506 -2.6176 5.18021 0
M  V30 11263 H 370.226 -5.52233 4.41941 0
M  V30 11264 H 369.235 -4.52045 5.53452 0
M  V30 11265 H 371.069 -6.25124 6.55234 0
M  V30 11266 H 371.141 -5.37936 2.80552 0
M  V30 11267 H 371.039 -5.07528 0.359553 0
M  V30 11268 H 370.651 -1.69403 -1.09847 0
M  V30 11269 H 370.847 -3.43701 -1.41792 0
M  V30 11270 P 369.198 -4.23843 7.83734 0
M  V30 11271 O 368.978 -4.19407 9.29784 0
M  V30 11272 O 368.408 -5.24426 7.09156 0
M  V30 11273 O 368.948 -2.7935 7.20758 0
M  V30 11274 C 369.888 -1.7299 7.50419 0
M  V30 11275 C 369.158 -0.406376 7.57911 0
M  V30 11276 O 368.948 0.0897726 6.21935 0
M  V30 11277 C 367.758 -0.447224 8.1878 0
M  V30 11278 O 367.368 0.825065 8.71101 0
M  V30 11279 C 366.878 -0.783801 6.99623 0
M  V30 11280 C 367.588 -0.0619192 5.85967 0
M  V30 11281 N 367.538 -0.790462 4.56202 0
M  V30 11282 H 370.377 -1.93423 8.4679 0
M  V30 11283 H 370.649 -1.68852 6.70877 0
M  V30 11284 H 369.781 0.289041 8.15388 0
M  V30 11285 H 367.126 0.927006 5.72848 0
M  V30 11286 H 366.846 -1.86973 6.82036 0
M  V30 11287 H 365.855 -0.403953 7.13357 0
M  V30 11288 H 367.689 -1.20599 8.97534 0
M  V30 11289 P 365.818 1.17771 8.83182 0
M  V30 11290 O 365.598 2.07206 9.98732 0
M  V30 11291 O 365.028 -0.0743816 8.81969 0
M  V30 11292 O 365.568 1.97652 7.47304 0
M  V30 11293 C 366.508 3.01133 7.08783 0
M  V30 11294 C 365.778 4.12613 6.37049 0
M  V30 11295 O 365.568 3.72827 4.97879 0
M  V30 11296 C 364.378 4.45085 6.88694 0
M  V30 11297 O 363.988 5.7877 6.5624 0
M  V30 11298 C 363.498 3.47817 6.12078 0
M  V30 11299 C 364.208 3.39414 4.77697 0
M  V30 11300 N 364.158 2.04615 4.15333 0
M  V30 11301 H 366.997 3.41248 7.98759 0
M  V30 11302 H 367.269 2.5837 6.41742 0
M  V30 11303 H 366.401 5.02657 6.42673 0
M  V30 11304 P 362.438 6.144 6.45285 0
M  V30 11305 O 362.218 7.54673 6.86199 0
M  V30 11306 O 361.648 5.12391 7.179 0
M  V30 11307 O 362.188 5.99158 4.88404 0
M  V30 11308 C 363.128 6.60234 3.96415 0
M  V30 11309 C 362.398 7.08259 2.72856 0
M  V30 11310 O 362.188 5.9427 1.83651 0
M  V30 11311 C 360.998 7.64886 2.9555 0
M  V30 11312 O 360.608 8.53963 1.90717 0
M  V30 11313 C 360.118 6.4116 2.90739 0
M  V30 11314 C 360.828 5.55375 1.86963 0
M  V30 11315 N 360.778 4.09664 2.15742 0
M  V30 11316 H 363.617 7.45574 4.45629 0
M  V30 11317 H 363.889 5.86232 3.67314 0
M  V30 11318 H 363.021 7.84412 2.24479 0
M  V30 11319 P 359.058 8.7635 1.60911 0
M  V30 11320 O 358.838 10.1388 1.11561 0
M  V30 11321 O 358.268 8.36503 2.79617 0
M  V30 11322 O 358.808 7.71806 0.42951 0
M  V30 11323 C 359.748 7.67148 -0.673689 0
M  V30 11324 C 359.018 7.33374 -1.95559 0
M  V30 11325 O 358.808 5.88721 -2.00726 0
M  V30 11326 C 357.618 7.92526 -2.10483 0
M  V30 11327 O 357.228 8.02971 -3.47653 0
M  V30 11328 C 356.738 6.89602 -1.41652 0
M  V30 11329 C 357.448 5.59201 -1.75185 0
M  V30 11330 N 357.398 4.58235 -0.662552 0
M  V30 11331 C 357.478 4.7683 0.704049 0
M  V30 11332 N 357.398 3.66233 1.39775 0
M  V30 11333 C 357.258 2.66526 0.431739 0
M  V30 11334 C 357.128 1.26394 0.575992 0
M  V30 11335 N 357.008 0.62859 -0.67177 0
M  V30 11336 C 357.008 1.27134 -1.89385 0
M  V30 11337 N 356.878 0.492035 -2.96951 0
M  V30 11338 N 357.138 2.58978 -2.02907 0
M  V30 11339 C 357.258 3.22433 -0.832218 0
M  V30 11340 H 360.237 8.65116 -0.777161 0
M  V30 11341 H 360.509 6.90173 -0.474152 0
M  V30 11342 H 359.641 7.66548 -2.79458 0
M  V30 11343 P 355.678 8.03563 -3.84925 0
M  V30 11344 O 355.458 8.85821 -5.0569 0
M  V30 11345 O 354.888 8.41101 -2.65469 0
M  V30 11346 O 355.428 6.4965 -4.18908 0
M  V30 11347 C 356.368 5.81037 -5.05421 0
M  V30 11348 C 355.638 4.78366 -5.89277 0
M  V30 11349 O 355.428 3.58302 -5.08433 0
M  V30 11350 C 354.238 5.17448 -6.36119 0
M  V30 11351 O 353.848 4.45271 -7.53232 0
M  V30 11352 C 353.358 4.74639 -5.19936 0
M  V30 11353 C 354.068 3.49432 -4.70418 0
M  V30 11354 N 354.018 3.31776 -3.22945 0
M  V30 11355 H 356.857 6.54213 -5.71376 0
M  V30 11356 H 357.129 5.30492 -4.44033 0
M  V30 11357 H 356.261 4.55889 -6.76652 0
M  V30 11358 P 352.298 4.23843 -7.83734 0
M  V30 11359 O 352.078 4.19407 -9.29784 0
M  V30 11360 O 351.508 5.24426 -7.09156 0
M  V30 11361 O 352.048 2.7935 -7.20758 0
M  V30 11362 C 352.988 1.72945 -7.50224 0
M  V30 11363 C 352.258 0.406376 -7.57911 0
M  V30 11364 O 352.048 -0.0897726 -6.21935 0
M  V30 11365 C 350.858 0.438983 -8.18724 0
M  V30 11366 O 350.468 -0.825065 -8.71101 0
M  V30 11367 C 349.978 0.783689 -6.99524 0
M  V30 11368 C 350.688 0.0619086 -5.85867 0
M  V30 11369 N 350.638 0.78573 -4.56183 0
M  V30 11370 C 350.488 0.0292889 -3.41887 0
M  V30 11371 O 350.398 -1.18445 -3.4419 0
M  V30 11372 N 350.448 0.744061 -2.23964 0
M  V30 11373 C 350.538 2.10932 -2.10362 0
M  V30 11374 C 350.688 2.8202 -3.34994 0
M  V30 11375 C 350.738 2.15547 -4.52261 0
M  V30 11376 H 353.479 1.93379 -8.46595 0
M  V30 11377 H 353.748 1.68132 -6.70852 0
M  V30 11378 H 352.881 -0.289041 -8.15388 0
M  V30 11379 H 350.226 -0.926847 -5.72749 0
M  V30 11380 H 349.947 1.86973 -6.82036 0
M  V30 11381 H 348.955 0.403896 -7.13257 0
M  V30 11382 H 350.789 1.20585 -8.97435 0
M  V30 11383 H 350.86 2.71231 -5.45042 0
M  V30 11384 P 348.918 -1.17771 -8.83182 0
M  V30 11385 O 348.698 -2.07206 -9.98732 0
M  V30 11386 O 348.128 0.0743816 -8.81969 0
M  V30 11387 O 348.668 -1.97652 -7.47304 0
M  V30 11388 C 349.608 -3.01133 -7.08783 0
M  V30 11389 C 348.878 -4.12613 -6.37049 0
M  V30 11390 O 348.668 -3.72827 -4.97879 0
M  V30 11391 C 347.478 -4.45085 -6.88694 0
M  V30 11392 O 347.088 -5.7877 -6.5624 0
M  V30 11393 C 346.598 -3.47817 -6.12078 0
M  V30 11394 C 347.308 -3.39414 -4.77697 0
M  V30 11395 N 347.258 -2.04615 -4.15333 0
M  V30 11396 H 350.097 -3.41248 -7.98759 0
M  V30 11397 H 350.369 -2.5837 -6.41742 0
M  V30 11398 H 349.501 -5.02657 -6.42673 0
M  V30 11399 P 345.538 -6.144 -6.45285 0
M  V30 11400 O 345.318 -7.54673 -6.86199 0
M  V30 11401 O 344.748 -5.12391 -7.179 0
M  V30 11402 O 345.288 -5.99158 -4.88404 0
M  V30 11403 C 346.228 -6.60234 -3.96415 0
M  V30 11404 C 345.498 -7.08259 -2.72856 0
M  V30 11405 O 345.288 -5.9427 -1.83651 0
M  V30 11406 C 344.098 -7.64886 -2.9555 0
M  V30 11407 O 343.708 -8.53963 -1.90717 0
M  V30 11408 C 343.218 -6.4116 -2.90739 0
M  V30 11409 C 343.928 -5.55375 -1.86963 0
M  V30 11410 N 343.878 -4.09664 -2.15742 0
M  V30 11411 H 346.717 -7.45574 -4.45629 0
M  V30 11412 H 346.989 -5.86232 -3.67314 0
M  V30 11413 H 346.121 -7.84412 -2.24479 0
M  V30 11414 P 342.158 -8.7635 -1.60911 0
M  V30 11415 O 341.938 -10.1388 -1.11561 0
M  V30 11416 O 341.368 -8.36503 -2.79617 0
M  V30 11417 O 341.908 -7.71806 -0.42951 0
M  V30 11418 C 342.848 -7.66948 0.673514 0
M  V30 11419 C 342.118 -7.33374 1.95559 0
M  V30 11420 O 341.908 -5.88721 2.00726 0
M  V30 11421 C 340.718 -7.92218 2.1125 0
M  V30 11422 O 340.328 -8.02971 3.47653 0
M  V30 11423 C 339.838 -6.89504 1.41631 0
M  V30 11424 C 340.548 -5.59106 1.75155 0
M  V30 11425 N 340.498 -4.58136 0.662409 0
M  V30 11426 C 340.348 -3.26059 1.02863 0
M  V30 11427 O 340.258 -2.90743 2.19009 0
M  V30 11428 N 340.308 -2.35995 -0.0155585 0
M  V30 11429 C 340.398 -2.65248 -1.35603 0
M  V30 11430 C 340.548 -4.05747 -1.64698 0
M  V30 11431 C 340.598 -4.96734 -0.652411 0
M  V30 11432 H 343.339 -8.64917 0.776982 0
M  V30 11433 H 343.608 -6.89974 0.474015 0
M  V30 11434 H 342.741 -7.66548 2.79458 0
M  V30 11435 H 340.086 -5.16076 2.65138 0
M  V30 11436 H 339.807 -7.06433 0.329384 0
M  V30 11437 H 338.815 -6.90829 1.81996 0
M  V30 11438 H 340.649 -8.90774 1.62639 0
M  V30 11439 H 340.72 -6.02181 -0.895285 0
M  V30 11440 P 338.778 -8.03563 3.84925 0
M  V30 11441 O 338.558 -8.85821 5.0569 0
M  V30 11442 O 337.988 -8.41101 2.65469 0
M  V30 11443 O 338.528 -6.4965 4.18908 0
M  V30 11444 C 339.468 -5.81037 5.05421 0
M  V30 11445 C 338.738 -4.78366 5.89277 0
M  V30 11446 O 338.528 -3.58302 5.08433 0
M  V30 11447 C 337.338 -5.17448 6.36119 0
M  V30 11448 O 336.948 -4.45271 7.53232 0
M  V30 11449 C 336.458 -4.74639 5.19936 0
M  V30 11450 C 337.168 -3.49432 4.70418 0
M  V30 11451 N 337.118 -3.32099 3.22613 0
M  V30 11452 H 339.957 -6.54213 5.71376 0
M  V30 11453 H 340.229 -5.30936 4.43503 0
M  V30 11454 H 339.361 -4.55889 6.76652 0
M  V30 11455 H 336.706 -2.61715 5.17932 0
M  V30 11456 H 336.426 -5.52155 4.41878 0
M  V30 11457 H 335.435 -4.51981 5.53374 0
M  V30 11458 H 337.269 -6.25124 6.55234 0
M  V30 11459 P 335.398 -4.23843 7.83734 0
M  V30 11460 O 335.178 -4.19407 9.29784 0
M  V30 11461 O 334.608 -5.24426 7.09156 0
M  V30 11462 O 335.148 -2.7935 7.20758 0
M  V30 11463 C 336.088 -1.7299 7.50419 0
M  V30 11464 C 335.358 -0.406376 7.57911 0
M  V30 11465 O 335.148 0.0897726 6.21935 0
M  V30 11466 C 333.958 -0.447224 8.1878 0
M  V30 11467 O 333.568 0.825065 8.71101 0
M  V30 11468 C 333.078 -0.783801 6.99623 0
M  V30 11469 C 333.788 -0.0619192 5.85967 0
M  V30 11470 N 333.738 -0.7859 4.56281 0
M  V30 11471 H 336.577 -1.93423 8.4679 0
M  V30 11472 H 336.849 -1.68181 6.71046 0
M  V30 11473 H 335.981 0.289041 8.15388 0
M  V30 11474 P 332.018 1.17771 8.83182 0
M  V30 11475 O 331.798 2.07206 9.98732 0
M  V30 11476 O 331.228 -0.0743816 8.81969 0
M  V30 11477 O 331.768 1.97652 7.47304 0
M  V30 11478 C 332.708 3.01133 7.08783 0
M  V30 11479 C 331.978 4.12613 6.37049 0
M  V30 11480 O 331.768 3.72827 4.97879 0
M  V30 11481 C 330.578 4.45085 6.88694 0
M  V30 11482 O 330.188 5.7877 6.5624 0
M  V30 11483 C 329.698 3.47817 6.12078 0
M  V30 11484 C 330.408 3.39414 4.77697 0
M  V30 11485 N 330.358 2.04615 4.15333 0
M  V30 11486 H 333.197 3.41248 7.98759 0
M  V30 11487 H 333.469 2.5837 6.41742 0
M  V30 11488 H 332.601 5.02657 6.42673 0
M  V30 11489 P 328.638 6.144 6.45285 0
M  V30 11490 O 328.418 7.54673 6.86199 0
M  V30 11491 O 327.848 5.12391 7.179 0
M  V30 11492 O 328.388 5.99158 4.88404 0
M  V30 11493 C 329.328 6.60234 3.96415 0
M  V30 11494 C 328.598 7.08259 2.72856 0
M  V30 11495 O 328.388 5.9427 1.83651 0
M  V30 11496 C 327.198 7.64886 2.9555 0
M  V30 11497 O 326.808 8.53963 1.90717 0
M  V30 11498 C 326.318 6.4116 2.90739 0
M  V30 11499 C 327.028 5.55375 1.86963 0
M  V30 11500 N 326.978 4.09664 2.15742 0
M  V30 11501 H 329.817 7.45574 4.45629 0
M  V30 11502 H 330.089 5.86232 3.67314 0
M  V30 11503 H 329.221 7.84412 2.24479 0
M  V30 11504 P 325.258 8.7635 1.60911 0
M  V30 11505 O 325.038 10.1388 1.11561 0
M  V30 11506 O 324.468 8.36503 2.79617 0
M  V30 11507 O 325.008 7.71806 0.42951 0
M  V30 11508 C 325.948 7.67148 -0.673689 0
M  V30 11509 C 325.218 7.33374 -1.95559 0
M  V30 11510 O 325.008 5.88721 -2.00726 0
M  V30 11511 C 323.818 7.92526 -2.10483 0
M  V30 11512 O 323.428 8.02971 -3.47653 0
M  V30 11513 C 322.938 6.89602 -1.41652 0
M  V30 11514 C 323.648 5.59201 -1.75185 0
M  V30 11515 N 323.598 4.58301 -0.657969 0
M  V30 11516 H 326.437 8.65116 -0.777161 0
M  V30 11517 H 326.709 6.9022 -0.46725 0
M  V30 11518 H 325.841 7.66548 -2.79458 0
M  V30 11519 H 323.186 5.16165 -2.65183 0
M  V30 11520 H 322.906 7.06433 -0.329384 0
M  V30 11521 H 321.915 6.90926 -1.82021 0
M  V30 11522 H 323.749 8.90873 -1.62657 0
M  V30 11523 P 321.878 8.03563 -3.84925 0
M  V30 11524 O 321.658 8.85821 -5.0569 0
M  V30 11525 O 321.088 8.41101 -2.65469 0
M  V30 11526 O 321.628 6.4965 -4.18908 0
M  V30 11527 C 322.568 5.81037 -5.05421 0
M  V30 11528 C 321.838 4.78366 -5.89277 0
M  V30 11529 O 321.628 3.58302 -5.08433 0
M  V30 11530 C 320.438 5.17448 -6.36119 0
M  V30 11531 O 320.048 4.45271 -7.53232 0
M  V30 11532 C 319.558 4.74639 -5.19936 0
M  V30 11533 C 320.268 3.49432 -4.70418 0
M  V30 11534 N 320.218 3.31776 -3.22945 0
M  V30 11535 H 323.057 6.54213 -5.71376 0
M  V30 11536 H 323.329 5.30492 -4.44033 0
M  V30 11537 H 322.461 4.55889 -6.76652 0
M  V30 11538 P 318.498 4.23843 -7.83734 0
M  V30 11539 O 318.278 4.19407 -9.29784 0
M  V30 11540 O 317.708 5.24426 -7.09156 0
M  V30 11541 O 318.248 2.7935 -7.20758 0
M  V30 11542 C 319.188 1.7299 -7.50419 0
M  V30 11543 C 318.458 0.406376 -7.57911 0
M  V30 11544 O 318.248 -0.0897726 -6.21935 0
M  V30 11545 C 317.058 0.447224 -8.1878 0
M  V30 11546 O 316.668 -0.825065 -8.71101 0
M  V30 11547 C 316.178 0.783801 -6.99623 0
M  V30 11548 C 316.888 0.0619192 -5.85967 0
M  V30 11549 N 316.838 0.7859 -4.56281 0
M  V30 11550 H 319.677 1.93423 -8.4679 0
M  V30 11551 H 319.949 1.68181 -6.71046 0
M  V30 11552 H 319.081 -0.289041 -8.15388 0
M  V30 11553 P 315.118 -1.17771 -8.83182 0
M  V30 11554 O 314.898 -2.07206 -9.98732 0
M  V30 11555 O 314.328 0.0743816 -8.81969 0
M  V30 11556 O 314.868 -1.97652 -7.47304 0
M  V30 11557 C 315.808 -3.01133 -7.08783 0
M  V30 11558 C 315.078 -4.12613 -6.37049 0
M  V30 11559 O 314.868 -3.72827 -4.97879 0
M  V30 11560 C 313.678 -4.45085 -6.88694 0
M  V30 11561 O 313.288 -5.7877 -6.5624 0
M  V30 11562 C 312.798 -3.47817 -6.12078 0
M  V30 11563 C 313.508 -3.39414 -4.77697 0
M  V30 11564 N 313.458 -2.04615 -4.15333 0
M  V30 11565 H 316.297 -3.41248 -7.98759 0
M  V30 11566 H 316.569 -2.5837 -6.41742 0
M  V30 11567 H 315.701 -5.02657 -6.42673 0
M  V30 11568 P 311.738 -6.144 -6.45285 0
M  V30 11569 O 311.518 -7.54673 -6.86199 0
M  V30 11570 O 310.948 -5.12391 -7.179 0
M  V30 11571 O 311.488 -5.99158 -4.88404 0
M  V30 11572 C 312.428 -6.60234 -3.96415 0
M  V30 11573 C 311.698 -7.08259 -2.72856 0
M  V30 11574 O 311.488 -5.9427 -1.83651 0
M  V30 11575 C 310.298 -7.64886 -2.9555 0
M  V30 11576 O 309.908 -8.53963 -1.90717 0
M  V30 11577 C 309.418 -6.4116 -2.90739 0
M  V30 11578 C 310.128 -5.55375 -1.86963 0
M  V30 11579 N 310.078 -4.09664 -2.15742 0
M  V30 11580 H 312.917 -7.45574 -4.45629 0
M  V30 11581 H 313.189 -5.86232 -3.67314 0
M  V30 11582 H 312.321 -7.84412 -2.24479 0
M  V30 11583 P 308.358 -8.7635 -1.60911 0
M  V30 11584 O 308.138 -10.1388 -1.11561 0
M  V30 11585 O 307.568 -8.36503 -2.79617 0
M  V30 11586 O 308.108 -7.71806 -0.42951 0
M  V30 11587 C 309.048 -7.67148 0.673689 0
M  V30 11588 C 308.318 -7.33374 1.95559 0
M  V30 11589 O 308.108 -5.88721 2.00726 0
M  V30 11590 C 306.918 -7.92526 2.10483 0
M  V30 11591 O 306.528 -8.02971 3.47653 0
M  V30 11592 C 306.038 -6.89602 1.41652 0
M  V30 11593 C 306.748 -5.59201 1.75185 0
M  V30 11594 N 306.698 -4.58235 0.662552 0
M  V30 11595 H 309.537 -8.65116 0.777161 0
M  V30 11596 H 309.809 -6.90173 0.474152 0
M  V30 11597 H 308.941 -7.66548 2.79458 0
M  V30 11598 P 304.978 -8.03563 3.84925 0
M  V30 11599 O 304.758 -8.85821 5.0569 0
M  V30 11600 O 304.188 -8.41101 2.65469 0
M  V30 11601 O 304.728 -6.49734 4.18962 0
M  V30 11602 C 305.668 -5.81037 5.05421 0
M  V30 11603 C 304.938 -4.79018 5.88876 0
M  V30 11604 O 304.728 -3.58359 5.08515 0
M  V30 11605 C 303.538 -5.17448 6.36119 0
M  V30 11606 O 303.148 -4.45322 7.53318 0
M  V30 11607 C 302.658 -4.74639 5.19936 0
M  V30 11608 C 303.368 -3.49432 4.70418 0
M  V30 11609 N 303.318 -3.31776 3.22945 0
M  V30 11610 C 303.168 -2.02742 2.72939 0
M  V30 11611 O 303.078 -1.08301 3.52749 0
M  V30 11612 N 303.118 -1.96117 1.22063 0
M  V30 11613 C 303.218 -2.8878 0.551566 0
M  V30 11614 N 303.168 -2.65609 -0.750198 0
M  V30 11615 C 303.368 -4.22457 1.03707 0
M  V30 11616 C 303.418 -4.37979 2.39113 0
M  V30 11617 H 306.158 -6.54138 5.7131 0
M  V30 11618 H 306.428 -5.30492 4.44033 0
M  V30 11619 H 305.561 -4.55945 6.76735 0
M  V30 11620 H 302.906 -2.6176 5.18021 0
M  V30 11621 H 302.626 -5.52233 4.41941 0
M  V30 11622 H 301.635 -4.52045 5.53452 0
M  V30 11623 H 303.469 -6.25124 6.55234 0
M  V30 11624 H 303.541 -5.37936 2.80552 0
M  V30 11625 H 303.439 -5.07528 0.359553 0
M  V30 11626 H 303.051 -1.69403 -1.09847 0
M  V30 11627 H 303.247 -3.43701 -1.41792 0
M  V30 11628 P 301.598 -4.23843 7.83734 0
M  V30 11629 O 301.378 -4.19407 9.29784 0
M  V30 11630 O 300.808 -5.24426 7.09156 0
M  V30 11631 O 301.348 -2.7935 7.20758 0
M  V30 11632 C 302.288 -1.72945 7.50224 0
M  V30 11633 C 301.558 -0.406376 7.57911 0
M  V30 11634 O 301.348 0.0897726 6.21935 0
M  V30 11635 C 300.158 -0.438983 8.18724 0
M  V30 11636 O 299.768 0.825065 8.71101 0
M  V30 11637 C 299.278 -0.783689 6.99524 0
M  V30 11638 C 299.988 -0.0619086 5.85867 0
M  V30 11639 N 299.938 -0.78573 4.56183 0
M  V30 11640 C 299.788 -0.0292889 3.41887 0
M  V30 11641 O 299.698 1.18445 3.4419 0
M  V30 11642 N 299.748 -0.744061 2.23964 0
M  V30 11643 C 299.838 -2.10932 2.10362 0
M  V30 11644 C 299.988 -2.8202 3.34994 0
M  V30 11645 C 300.038 -2.15547 4.52261 0
M  V30 11646 H 302.779 -1.93379 8.46595 0
M  V30 11647 H 303.048 -1.68132 6.70852 0
M  V30 11648 H 302.181 0.289041 8.15388 0
M  V30 11649 H 299.526 0.926847 5.72749 0
M  V30 11650 H 299.247 -1.86973 6.82036 0
M  V30 11651 H 298.255 -0.403896 7.13257 0
M  V30 11652 H 300.089 -1.20585 8.97435 0
M  V30 11653 H 300.16 -2.71231 5.45042 0
M  V30 11654 P 298.218 1.17771 8.83182 0
M  V30 11655 O 297.998 2.07206 9.98732 0
M  V30 11656 O 297.428 -0.0743816 8.81969 0
M  V30 11657 O 297.968 1.97652 7.47304 0
M  V30 11658 C 298.908 3.01133 7.08783 0
M  V30 11659 C 298.178 4.12613 6.37049 0
M  V30 11660 O 297.968 3.72827 4.97879 0
M  V30 11661 C 296.778 4.45085 6.88694 0
M  V30 11662 O 296.388 5.7877 6.5624 0
M  V30 11663 C 295.898 3.47817 6.12078 0
M  V30 11664 C 296.608 3.39414 4.77697 0
M  V30 11665 N 296.558 2.04615 4.15333 0
M  V30 11666 H 299.397 3.41248 7.98759 0
M  V30 11667 H 299.669 2.5837 6.41742 0
M  V30 11668 H 298.801 5.02657 6.42673 0
M  V30 11669 P 294.838 6.144 6.45285 0
M  V30 11670 O 294.618 7.54673 6.86199 0
M  V30 11671 O 294.048 5.12391 7.179 0
M  V30 11672 O 294.588 5.99158 4.88404 0
M  V30 11673 C 295.528 6.60234 3.96415 0
M  V30 11674 C 294.798 7.08259 2.72856 0
M  V30 11675 O 294.588 5.9427 1.83651 0
M  V30 11676 C 293.398 7.64886 2.9555 0
M  V30 11677 O 293.008 8.53963 1.90717 0
M  V30 11678 C 292.518 6.4116 2.90739 0
M  V30 11679 C 293.228 5.55375 1.86963 0
M  V30 11680 N 293.178 4.09664 2.15742 0
M  V30 11681 H 296.017 7.45574 4.45629 0
M  V30 11682 H 296.289 5.86232 3.67314 0
M  V30 11683 H 295.421 7.84412 2.24479 0
M  V30 11684 P 291.458 8.7635 1.60911 0
M  V30 11685 O 291.238 10.1388 1.11561 0
M  V30 11686 O 290.668 8.36503 2.79617 0
M  V30 11687 O 291.208 7.71806 0.42951 0
M  V30 11688 C 292.148 7.67148 -0.673689 0
M  V30 11689 C 291.418 7.33374 -1.95559 0
M  V30 11690 O 291.208 5.88721 -2.00726 0
M  V30 11691 C 290.018 7.92526 -2.10483 0
M  V30 11692 O 289.628 8.02971 -3.47653 0
M  V30 11693 C 289.138 6.89602 -1.41652 0
M  V30 11694 C 289.848 5.59201 -1.75185 0
M  V30 11695 N 289.798 4.58235 -0.662552 0
M  V30 11696 H 292.637 8.65116 -0.777161 0
M  V30 11697 H 292.909 6.90173 -0.474152 0
M  V30 11698 H 292.041 7.66548 -2.79458 0
M  V30 11699 P 288.078 8.03563 -3.84925 0
M  V30 11700 O 287.858 8.85821 -5.0569 0
M  V30 11701 O 287.288 8.41101 -2.65469 0
M  V30 11702 O 287.828 6.4965 -4.18908 0
M  V30 11703 C 288.768 5.81037 -5.05421 0
M  V30 11704 C 288.038 4.78366 -5.89277 0
M  V30 11705 O 287.828 3.58302 -5.08433 0
M  V30 11706 C 286.638 5.17448 -6.36119 0
M  V30 11707 O 286.248 4.45271 -7.53232 0
M  V30 11708 C 285.758 4.74639 -5.19936 0
M  V30 11709 C 286.468 3.49432 -4.70418 0
M  V30 11710 N 286.418 3.32099 -3.22613 0
M  V30 11711 C 286.498 4.28245 -2.25527 0
M  V30 11712 N 286.428 3.80823 -1.04874 0
M  V30 11713 C 286.278 2.44571 -1.23535 0
M  V30 11714 C 286.148 1.37068 -0.330675 0
M  V30 11715 N 286.138 1.51472 0.990824 0
M  V30 11716 N 286.028 0.138614 -0.848756 0
M  V30 11717 C 286.038 -0.00675923 -2.16999 0
M  V30 11718 N 286.158 0.904372 -3.11122 0
M  V30 11719 C 286.278 2.12707 -2.56212 0
M  V30 11720 H 289.257 6.54213 -5.71376 0
M  V30 11721 H 289.529 5.30936 -4.43503 0
M  V30 11722 H 288.661 4.55889 -6.76652 0
M  V30 11723 H 286.006 2.61715 -5.17932 0
M  V30 11724 H 285.726 5.52155 -4.41878 0
M  V30 11725 H 284.735 4.51981 -5.53374 0
M  V30 11726 H 286.569 6.25124 -6.55234 0
M  V30 11727 H 286.61 5.34372 -2.47488 0
M  V30 11728 H 286.229 2.45153 1.4078 0
M  V30 11729 H 286.04 0.688422 1.59911 0
M  V30 11730 H 285.932 -1.02584 -2.52346 0
M  V30 11731 P 284.698 4.23843 -7.83734 0
M  V30 11732 O 284.478 4.19407 -9.29784 0
M  V30 11733 O 283.908 5.24426 -7.09156 0
M  V30 11734 O 284.448 2.7935 -7.20758 0
M  V30 11735 C 285.388 1.7299 -7.50419 0
M  V30 11736 C 284.658 0.406376 -7.57911 0
M  V30 11737 O 284.448 -0.0897726 -6.21935 0
M  V30 11738 C 283.258 0.447224 -8.1878 0
M  V30 11739 O 282.868 -0.825065 -8.71101 0
M  V30 11740 C 282.378 0.783801 -6.99623 0
M  V30 11741 C 283.088 0.0619192 -5.85967 0
M  V30 11742 N 283.038 0.7859 -4.56281 0
M  V30 11743 C 283.118 2.14308 -4.31736 0
M  V30 11744 N 283.038 2.46106 -3.05116 0
M  V30 11745 C 282.898 1.23422 -2.4014 0
M  V30 11746 C 282.768 0.938381 -1.02409 0
M  V30 11747 N 282.648 -0.444647 -0.805413 0
M  V30 11748 C 282.648 -1.40829 -1.79435 0
M  V30 11749 N 282.518 -2.67213 -1.38558 0
M  V30 11750 N 282.778 -1.12947 -3.09005 0
M  V30 11751 C 282.898 0.204887 -3.32369 0
M  V30 11752 H 285.877 1.93423 -8.4679 0
M  V30 11753 H 286.149 1.68181 -6.71046 0
M  V30 11754 H 285.281 -0.289041 -8.15388 0
M  V30 11755 P 281.318 -1.17771 -8.83182 0
M  V30 11756 O 281.098 -2.07206 -9.98732 0
M  V30 11757 O 280.528 0.0743816 -8.81969 0
M  V30 11758 O 281.068 -1.97652 -7.47304 0
M  V30 11759 C 282.008 -3.01055 -7.08599 0
M  V30 11760 C 281.278 -4.12613 -6.37049 0
M  V30 11761 O 281.068 -3.72827 -4.97879 0
M  V30 11762 C 279.878 -4.45719 -6.88164 0
M  V30 11763 O 279.488 -5.7877 -6.5624 0
M  V30 11764 C 278.998 -3.47768 -6.11991 0
M  V30 11765 C 279.708 -3.39356 -4.77615 0
M  V30 11766 N 279.658 -2.04571 -4.15244 0
M  V30 11767 C 279.508 -1.98587 -2.78314 0
M  V30 11768 O 279.418 -2.98134 -2.08835 0
M  V30 11769 N 279.468 -0.714467 -2.24925 0
M  V30 11770 C 279.558 0.470001 -2.94169 0
M  V30 11771 C 279.708 0.312541 -4.36783 0
M  V30 11772 C 279.758 -0.914512 -4.92583 0
M  V30 11773 H 282.499 -3.41169 -7.98575 0
M  V30 11774 H 282.768 -2.58295 -6.41556 0
M  V30 11775 H 281.901 -5.02657 -6.42673 0
M  V30 11776 H 279.246 -4.11637 -4.08885 0
M  V30 11777 H 278.967 -2.49626 -6.61679 0
M  V30 11778 H 277.975 -3.86566 -6.00778 0
M  V30 11779 H 279.809 -4.29943 -7.96918 0
M  V30 11780 H 279.88 -1.00937 -6.00374 0
M  V30 11781 P 277.938 -6.144 -6.45285 0
M  V30 11782 O 277.718 -7.54673 -6.86199 0
M  V30 11783 O 277.148 -5.12391 -7.179 0
M  V30 11784 O 277.688 -5.99158 -4.88404 0
M  V30 11785 C 278.628 -6.60234 -3.96415 0
M  V30 11786 C 277.898 -7.08259 -2.72856 0
M  V30 11787 O 277.688 -5.9427 -1.83651 0
M  V30 11788 C 276.498 -7.64886 -2.9555 0
M  V30 11789 O 276.108 -8.53963 -1.90717 0
M  V30 11790 C 275.618 -6.4116 -2.90739 0
M  V30 11791 C 276.328 -5.55375 -1.86963 0
M  V30 11792 N 276.278 -4.09664 -2.15742 0
M  V30 11793 H 279.117 -7.45574 -4.45629 0
M  V30 11794 H 279.389 -5.86232 -3.67314 0
M  V30 11795 H 278.521 -7.84412 -2.24479 0
M  V30 11796 P 274.558 -8.7635 -1.60911 0
M  V30 11797 O 274.338 -10.1388 -1.11561 0
M  V30 11798 O 273.768 -8.36503 -2.79617 0
M  V30 11799 O 274.308 -7.71806 -0.42951 0
M  V30 11800 C 275.248 -7.67148 0.673689 0
M  V30 11801 C 274.518 -7.33374 1.95559 0
M  V30 11802 O 274.308 -5.88721 2.00726 0
M  V30 11803 C 273.118 -7.92526 2.10483 0
M  V30 11804 O 272.728 -8.02971 3.47653 0
M  V30 11805 C 272.238 -6.89602 1.41652 0
M  V30 11806 C 272.948 -5.59201 1.75185 0
M  V30 11807 N 272.898 -4.58235 0.662552 0
M  V30 11808 H 275.737 -8.65116 0.777161 0
M  V30 11809 H 276.009 -6.90173 0.474152 0
M  V30 11810 H 275.141 -7.66548 2.79458 0
M  V30 11811 P 271.178 -8.03563 3.84925 0
M  V30 11812 O 270.958 -8.85821 5.0569 0
M  V30 11813 O 270.388 -8.41101 2.65469 0
M  V30 11814 O 270.928 -6.4965 4.18908 0
M  V30 11815 C 271.868 -5.81037 5.05421 0
M  V30 11816 C 271.138 -4.78366 5.89277 0
M  V30 11817 O 270.928 -3.58302 5.08433 0
M  V30 11818 C 269.738 -5.17448 6.36119 0
M  V30 11819 O 269.348 -4.45271 7.53232 0
M  V30 11820 C 268.858 -4.74639 5.19936 0
M  V30 11821 C 269.568 -3.49432 4.70418 0
M  V30 11822 N 269.518 -3.31776 3.22945 0
M  V30 11823 H 272.357 -6.54213 5.71376 0
M  V30 11824 H 272.629 -5.30492 4.44033 0
M  V30 11825 H 271.761 -4.55889 6.76652 0
M  V30 11826 P 267.798 -4.23843 7.83734 0
M  V30 11827 O 267.578 -4.19407 9.29784 0
M  V30 11828 O 267.008 -5.24426 7.09156 0
M  V30 11829 O 267.548 -2.7935 7.20758 0
M  V30 11830 C 268.488 -1.7299 7.50419 0
M  V30 11831 C 267.758 -0.406376 7.57911 0
M  V30 11832 O 267.548 0.0897726 6.21935 0
M  V30 11833 C 266.358 -0.447224 8.1878 0
M  V30 11834 O 265.968 0.825065 8.71101 0
M  V30 11835 C 265.478 -0.783801 6.99623 0
M  V30 11836 C 266.188 -0.0619192 5.85967 0
M  V30 11837 N 266.138 -0.790462 4.56202 0
M  V30 11838 H 268.977 -1.93423 8.4679 0
M  V30 11839 H 269.249 -1.68852 6.70877 0
M  V30 11840 H 268.381 0.289041 8.15388 0
M  V30 11841 H 265.726 0.927006 5.72848 0
M  V30 11842 H 265.446 -1.86973 6.82036 0
M  V30 11843 H 264.455 -0.403953 7.13357 0
M  V30 11844 H 266.289 -1.20599 8.97534 0
M  V30 11845 P 264.418 1.17771 8.83182 0
M  V30 11846 O 264.198 2.07206 9.98732 0
M  V30 11847 O 263.628 -0.0743816 8.81969 0
M  V30 11848 O 264.168 1.97652 7.47304 0
M  V30 11849 C 265.108 3.01133 7.08783 0
M  V30 11850 C 264.378 4.12613 6.37049 0
M  V30 11851 O 264.168 3.72827 4.97879 0
M  V30 11852 C 262.978 4.45085 6.88694 0
M  V30 11853 O 262.588 5.7877 6.5624 0
M  V30 11854 C 262.098 3.47817 6.12078 0
M  V30 11855 C 262.808 3.39414 4.77697 0
M  V30 11856 N 262.758 2.04615 4.15333 0
M  V30 11857 H 265.597 3.41248 7.98759 0
M  V30 11858 H 265.869 2.5837 6.41742 0
M  V30 11859 H 265.001 5.02657 6.42673 0
M  V30 11860 P 261.038 6.144 6.45285 0
M  V30 11861 O 260.818 7.54673 6.86199 0
M  V30 11862 O 260.248 5.12391 7.179 0
M  V30 11863 O 260.788 5.99158 4.88404 0
M  V30 11864 C 261.728 6.60062 3.96313 0
M  V30 11865 C 260.998 7.08259 2.72856 0
M  V30 11866 O 260.788 5.9427 1.83651 0
M  V30 11867 C 259.598 7.65087 2.94749 0
M  V30 11868 O 259.208 8.53963 1.90717 0
M  V30 11869 C 258.718 6.41069 2.90698 0
M  V30 11870 C 259.428 5.5528 1.86931 0
M  V30 11871 N 259.378 4.09575 2.15696 0
M  V30 11872 C 259.228 3.24249 1.08435 0
M  V30 11873 O 259.138 3.63946 -0.0628747 0
M  V30 11874 N 259.188 1.90009 1.39973 0
M  V30 11875 C 259.278 1.34884 2.65614 0
M  V30 11876 O 259.228 0.123716 2.81728 0
M  V30 11877 C 259.428 2.3145 3.71736 0
M  V30 11878 C 259.538 1.75913 5.10438 0
M  V30 11879 C 259.478 3.63518 3.44754 0
M  V30 11880 H 262.219 7.45402 4.45526 0
M  V30 11881 H 262.488 5.86062 3.67208 0
M  V30 11882 H 261.621 7.84412 2.24479 0
M  V30 11883 H 258.966 5.73358 0.888409 0
M  V30 11884 H 258.687 5.90877 3.88583 0
M  V30 11885 H 257.695 6.65867 2.58821 0
M  V30 11886 H 259.529 8.16248 3.92006 0
M  V30 11887 H 259.6 4.34551 4.26383 0
M  V30 11888 H 258.57 1.85471 5.61775 0
M  V30 11889 H 260.307 2.31364 5.66257 0
M  V30 11890 H 259.819 0.695936 5.05229 0
M  V30 11891 H 259.083 1.26277 0.63625 0
M  V30 11892 P 257.658 8.7635 1.60911 0
M  V30 11893 O 257.438 10.1388 1.11561 0
M  V30 11894 O 256.868 8.36503 2.79617 0
M  V30 11895 O 257.408 7.71806 0.42951 0
M  V30 11896 C 258.348 7.67148 -0.673689 0
M  V30 11897 C 257.618 7.33374 -1.95559 0
M  V30 11898 O 257.408 5.88721 -2.00726 0
M  V30 11899 C 256.218 7.92526 -2.10483 0
M  V30 11900 O 255.828 8.02971 -3.47653 0
M  V30 11901 C 255.338 6.89602 -1.41652 0
M  V30 11902 C 256.048 5.59201 -1.75185 0
M  V30 11903 N 255.998 4.58235 -0.662552 0
M  V30 11904 H 258.837 8.65116 -0.777161 0
M  V30 11905 H 259.109 6.90173 -0.474152 0
M  V30 11906 H 258.241 7.66548 -2.79458 0
M  V30 11907 P 254.279 8.03563 -3.84925 0
M  V30 11908 O 254.059 8.85821 -5.0569 0
M  V30 11909 O 253.489 8.41101 -2.65469 0
M  V30 11910 O 254.029 6.4965 -4.18908 0
M  V30 11911 C 254.969 5.81037 -5.05421 0
M  V30 11912 C 254.239 4.78366 -5.89277 0
M  V30 11913 O 254.029 3.58302 -5.08433 0
M  V30 11914 C 252.839 5.17448 -6.36119 0
M  V30 11915 O 252.449 4.45271 -7.53232 0
M  V30 11916 C 251.959 4.74639 -5.19936 0
M  V30 11917 C 252.669 3.49432 -4.70418 0
M  V30 11918 N 252.619 3.31776 -3.22945 0
M  V30 11919 H 255.458 6.54213 -5.71376 0
M  V30 11920 H 255.73 5.30492 -4.44033 0
M  V30 11921 H 254.862 4.55889 -6.76652 0
M  V30 11922 P 250.899 4.23843 -7.83734 0
M  V30 11923 O 250.679 4.19407 -9.29784 0
M  V30 11924 O 250.109 5.24426 -7.09156 0
M  V30 11925 O 250.649 2.7935 -7.20758 0
M  V30 11926 C 251.589 1.7299 -7.50419 0
M  V30 11927 C 250.859 0.406376 -7.57911 0
M  V30 11928 O 250.649 -0.0897726 -6.21935 0
M  V30 11929 C 249.459 0.447224 -8.1878 0
M  V30 11930 O 249.069 -0.825065 -8.71101 0
M  V30 11931 C 248.579 0.783801 -6.99623 0
M  V30 11932 C 249.289 0.0619192 -5.85967 0
M  V30 11933 N 249.239 0.7859 -4.56281 0
M  V30 11934 H 252.078 1.93423 -8.4679 0
M  V30 11935 H 252.35 1.68181 -6.71046 0
M  V30 11936 H 251.482 -0.289041 -8.15388 0
M  V30 11937 P 247.519 -1.17771 -8.83182 0
M  V30 11938 O 247.299 -2.07206 -9.98732 0
M  V30 11939 O 246.729 0.0743816 -8.81969 0
M  V30 11940 O 247.269 -1.97652 -7.47304 0
M  V30 11941 C 248.209 -3.01055 -7.08599 0
M  V30 11942 C 247.479 -4.12613 -6.37049 0
M  V30 11943 O 247.269 -3.72827 -4.97879 0
M  V30 11944 C 246.079 -4.45719 -6.88164 0
M  V30 11945 O 245.689 -5.7877 -6.5624 0
M  V30 11946 C 245.199 -3.47768 -6.11991 0
M  V30 11947 C 245.909 -3.39356 -4.77615 0
M  V30 11948 N 245.859 -2.04571 -4.15244 0
M  V30 11949 C 245.709 -1.98587 -2.78314 0
M  V30 11950 O 245.619 -2.98134 -2.08835 0
M  V30 11951 N 245.669 -0.714467 -2.24925 0
M  V30 11952 C 245.759 0.470001 -2.94169 0
M  V30 11953 O 245.709 1.55587 -2.35195 0
M  V30 11954 C 245.909 0.312541 -4.36783 0
M  V30 11955 C 246.019 1.57711 -5.16352 0
M  V30 11956 C 245.959 -0.914512 -4.92583 0
M  V30 11957 H 248.7 -3.41169 -7.98575 0
M  V30 11958 H 248.969 -2.58295 -6.41556 0
M  V30 11959 H 248.102 -5.02657 -6.42673 0
M  V30 11960 H 245.447 -4.11637 -4.08885 0
M  V30 11961 H 245.168 -2.49626 -6.61679 0
M  V30 11962 H 244.176 -3.86566 -6.00778 0
M  V30 11963 H 246.01 -4.29943 -7.96918 0
M  V30 11964 H 246.081 -1.00937 -6.00374 0
M  V30 11965 H 245.051 1.80153 -5.63503 0
M  V30 11966 H 246.788 1.4566 -5.94104 0
M  V30 11967 H 246.3 2.40664 -4.49645 0
M  V30 11968 H 245.564 -0.647622 -1.25697 0
M  V30 11969 P 244.139 -6.144 -6.45285 0
M  V30 11970 O 243.919 -7.54673 -6.86199 0
M  V30 11971 O 243.349 -5.12391 -7.179 0
M  V30 11972 O 243.889 -5.99158 -4.88404 0
M  V30 11973 C 244.829 -6.60234 -3.96415 0
M  V30 11974 C 244.099 -7.08259 -2.72856 0
M  V30 11975 O 243.889 -5.9427 -1.83651 0
M  V30 11976 C 242.699 -7.64886 -2.9555 0
M  V30 11977 O 242.309 -8.53963 -1.90717 0
M  V30 11978 C 241.819 -6.4116 -2.90739 0
M  V30 11979 C 242.529 -5.55375 -1.86963 0
M  V30 11980 N 242.479 -4.09664 -2.15742 0
M  V30 11981 H 245.318 -7.45574 -4.45629 0
M  V30 11982 H 245.59 -5.86232 -3.67314 0
M  V30 11983 H 244.722 -7.84412 -2.24479 0
M  V30 11984 P 240.759 -8.7635 -1.60911 0
M  V30 11985 O 240.539 -10.1388 -1.11561 0
M  V30 11986 O 239.969 -8.36503 -2.79617 0
M  V30 11987 O 240.509 -7.71806 -0.42951 0
M  V30 11988 C 241.449 -7.67148 0.673689 0
M  V30 11989 C 240.719 -7.33374 1.95559 0
M  V30 11990 O 240.509 -5.88721 2.00726 0
M  V30 11991 C 239.319 -7.92526 2.10483 0
M  V30 11992 O 238.929 -8.02971 3.47653 0
M  V30 11993 C 238.439 -6.89602 1.41652 0
M  V30 11994 C 239.149 -5.59201 1.75185 0
M  V30 11995 N 239.099 -4.58235 0.662552 0
M  V30 11996 H 241.938 -8.65116 0.777161 0
M  V30 11997 H 242.21 -6.90173 0.474152 0
M  V30 11998 H 241.342 -7.66548 2.79458 0
M  V30 11999 P 237.379 -8.03563 3.84925 0
M  V30 12000 O 237.159 -8.85821 5.0569 0
M  V30 12001 O 236.589 -8.41101 2.65469 0
M  V30 12002 O 237.129 -6.4965 4.18908 0
M  V30 12003 C 238.069 -5.81037 5.05421 0
M  V30 12004 C 237.339 -4.78366 5.89277 0
M  V30 12005 O 237.129 -3.58302 5.08433 0
M  V30 12006 C 235.939 -5.17448 6.36119 0
M  V30 12007 O 235.549 -4.45271 7.53232 0
M  V30 12008 C 235.059 -4.74639 5.19936 0
M  V30 12009 C 235.769 -3.49432 4.70418 0
M  V30 12010 N 235.719 -3.31776 3.22945 0
M  V30 12011 H 238.558 -6.54213 5.71376 0
M  V30 12012 H 238.83 -5.30492 4.44033 0
M  V30 12013 H 237.962 -4.55889 6.76652 0
M  V30 12014 P 233.999 -4.23843 7.83734 0
M  V30 12015 O 233.779 -4.19407 9.29784 0
M  V30 12016 O 233.209 -5.24426 7.09156 0
M  V30 12017 O 233.749 -2.7935 7.20758 0
M  V30 12018 C 234.689 -1.72945 7.50224 0
M  V30 12019 C 233.959 -0.406376 7.57911 0
M  V30 12020 O 233.749 0.0897726 6.21935 0
M  V30 12021 C 232.559 -0.438983 8.18724 0
M  V30 12022 O 232.169 0.825065 8.71101 0
M  V30 12023 C 231.679 -0.783689 6.99524 0
M  V30 12024 C 232.389 -0.0619086 5.85867 0
M  V30 12025 N 232.339 -0.78573 4.56183 0
M  V30 12026 C 232.189 -0.0292889 3.41887 0
M  V30 12027 O 232.099 1.18445 3.4419 0
M  V30 12028 N 232.149 -0.744061 2.23964 0
M  V30 12029 C 232.239 -2.10932 2.10362 0
M  V30 12030 O 232.189 -2.64117 0.98825 0
M  V30 12031 C 232.389 -2.8202 3.34994 0
M  V30 12032 C 232.499 -4.31095 3.25037 0
M  V30 12033 C 232.439 -2.15547 4.52261 0
M  V30 12034 H 235.18 -1.93379 8.46595 0
M  V30 12035 H 235.449 -1.68132 6.70852 0
M  V30 12036 H 234.582 0.289041 8.15388 0
M  V30 12037 H 231.927 0.926847 5.72749 0
M  V30 12038 H 231.648 -1.86973 6.82036 0
M  V30 12039 H 230.656 -0.403896 7.13257 0
M  V30 12040 H 232.49 -1.20585 8.97435 0
M  V30 12041 H 232.561 -2.71231 5.45042 0
M  V30 12042 H 231.531 -4.76966 3.49992 0
M  V30 12043 H 233.268 -4.67047 3.95024 0
M  V30 12044 H 232.78 -4.58996 2.22312 0
M  V30 12045 H 232.044 -0.214893 1.39758 0
M  V30 12046 P 230.619 1.17771 8.83182 0
M  V30 12047 O 230.399 2.07206 9.98732 0
M  V30 12048 O 229.829 -0.0743816 8.81969 0
M  V30 12049 O 230.369 1.97652 7.47304 0
M  V30 12050 C 231.309 3.01055 7.08599 0
M  V30 12051 C 230.579 4.12613 6.37049 0
M  V30 12052 O 230.369 3.72827 4.97879 0
M  V30 12053 C 229.179 4.45719 6.88164 0
M  V30 12054 O 228.789 5.7877 6.5624 0
M  V30 12055 C 228.299 3.47768 6.11991 0
M  V30 12056 C 229.009 3.39356 4.77615 0
M  V30 12057 N 228.959 2.04571 4.15244 0
M  V30 12058 C 228.809 1.98587 2.78314 0
M  V30 12059 O 228.719 2.98134 2.08835 0
M  V30 12060 N 228.769 0.714467 2.24925 0
M  V30 12061 C 228.859 -0.470001 2.94169 0
M  V30 12062 C 229.009 -0.312541 4.36783 0
M  V30 12063 C 229.059 0.914512 4.92583 0
M  V30 12064 H 231.8 3.41169 7.98575 0
M  V30 12065 H 232.069 2.58295 6.41556 0
M  V30 12066 H 231.202 5.02657 6.42673 0
M  V30 12067 H 228.547 4.11637 4.08885 0
M  V30 12068 H 228.268 2.49626 6.61679 0
M  V30 12069 H 227.276 3.86566 6.00778 0
M  V30 12070 H 229.11 4.29943 7.96918 0
M  V30 12071 H 229.181 1.00937 6.00374 0
M  V30 12072 P 227.239 6.144 6.45285 0
M  V30 12073 O 227.019 7.54673 6.86199 0
M  V30 12074 O 226.449 5.12391 7.179 0
M  V30 12075 O 226.989 5.99158 4.88404 0
M  V30 12076 C 227.929 6.60234 3.96415 0
M  V30 12077 C 227.199 7.08259 2.72856 0
M  V30 12078 O 226.989 5.9427 1.83651 0
M  V30 12079 C 225.799 7.64886 2.9555 0
M  V30 12080 O 225.409 8.53963 1.90717 0
M  V30 12081 C 224.919 6.4116 2.90739 0
M  V30 12082 C 225.629 5.55375 1.86963 0
M  V30 12083 N 225.579 4.09664 2.15742 0
M  V30 12084 H 228.418 7.45574 4.45629 0
M  V30 12085 H 228.69 5.86232 3.67314 0
M  V30 12086 H 227.822 7.84412 2.24479 0
M  V30 12087 P 223.859 8.7635 1.60911 0
M  V30 12088 O 223.639 10.1388 1.11561 0
M  V30 12089 O 223.069 8.36503 2.79617 0
M  V30 12090 O 223.609 7.71806 0.42951 0
M  V30 12091 C 224.549 7.67148 -0.673689 0
M  V30 12092 C 223.819 7.33374 -1.95559 0
M  V30 12093 O 223.609 5.88721 -2.00726 0
M  V30 12094 C 222.419 7.92526 -2.10483 0
M  V30 12095 O 222.029 8.02971 -3.47653 0
M  V30 12096 C 221.539 6.89602 -1.41652 0
M  V30 12097 C 222.249 5.59201 -1.75185 0
M  V30 12098 N 222.199 4.58235 -0.662552 0
M  V30 12099 H 225.038 8.65116 -0.777161 0
M  V30 12100 H 225.31 6.90173 -0.474152 0
M  V30 12101 H 224.442 7.66548 -2.79458 0
M  V30 12102 P 220.479 8.03563 -3.84925 0
M  V30 12103 O 220.259 8.85821 -5.0569 0
M  V30 12104 O 219.689 8.41101 -2.65469 0
M  V30 12105 O 220.229 6.4965 -4.18908 0
M  V30 12106 C 221.169 5.81037 -5.05421 0
M  V30 12107 C 220.439 4.78366 -5.89277 0
M  V30 12108 O 220.229 3.58302 -5.08433 0
M  V30 12109 C 219.039 5.17448 -6.36119 0
M  V30 12110 O 218.649 4.45271 -7.53232 0
M  V30 12111 C 218.159 4.74639 -5.19936 0
M  V30 12112 C 218.869 3.49432 -4.70418 0
M  V30 12113 N 218.819 3.32099 -3.22613 0
M  V30 12114 H 221.658 6.54213 -5.71376 0
M  V30 12115 H 221.93 5.30936 -4.43503 0
M  V30 12116 H 221.062 4.55889 -6.76652 0
M  V30 12117 H 218.407 2.61715 -5.17932 0
M  V30 12118 H 218.127 5.52155 -4.41878 0
M  V30 12119 H 217.136 4.51981 -5.53374 0
M  V30 12120 H 218.97 6.25124 -6.55234 0
M  V30 12121 P 217.099 4.23843 -7.83734 0
M  V30 12122 O 216.879 4.19407 -9.29784 0
M  V30 12123 O 216.309 5.24426 -7.09156 0
M  V30 12124 O 216.849 2.7935 -7.20758 0
M  V30 12125 C 217.789 1.7299 -7.50419 0
M  V30 12126 C 217.059 0.406376 -7.57911 0
M  V30 12127 O 216.849 -0.0897726 -6.21935 0
M  V30 12128 C 215.659 0.447224 -8.1878 0
M  V30 12129 O 215.269 -0.825065 -8.71101 0
M  V30 12130 C 214.779 0.783801 -6.99623 0
M  V30 12131 C 215.489 0.0619192 -5.85967 0
M  V30 12132 N 215.439 0.7859 -4.56281 0
M  V30 12133 H 218.278 1.93423 -8.4679 0
M  V30 12134 H 218.55 1.68181 -6.71046 0
M  V30 12135 H 217.682 -0.289041 -8.15388 0
M  V30 12136 P 213.719 -1.17771 -8.83182 0
M  V30 12137 O 213.499 -2.07206 -9.98732 0
M  V30 12138 O 212.929 0.0743816 -8.81969 0
M  V30 12139 O 213.469 -1.97652 -7.47304 0
M  V30 12140 C 214.409 -3.01055 -7.08599 0
M  V30 12141 C 213.679 -4.12613 -6.37049 0
M  V30 12142 O 213.469 -3.72827 -4.97879 0
M  V30 12143 C 212.279 -4.45719 -6.88164 0
M  V30 12144 O 211.889 -5.7877 -6.5624 0
M  V30 12145 C 211.399 -3.47768 -6.11991 0
M  V30 12146 C 212.109 -3.39356 -4.77615 0
M  V30 12147 N 212.059 -2.04571 -4.15244 0
M  V30 12148 C 211.909 -1.98587 -2.78314 0
M  V30 12149 O 211.819 -2.98134 -2.08835 0
M  V30 12150 N 211.869 -0.714467 -2.24925 0
M  V30 12151 C 211.959 0.470001 -2.94169 0
M  V30 12152 C 212.109 0.312541 -4.36783 0
M  V30 12153 C 212.159 -0.914512 -4.92583 0
M  V30 12154 H 214.9 -3.41169 -7.98575 0
M  V30 12155 H 215.169 -2.58295 -6.41556 0
M  V30 12156 H 214.302 -5.02657 -6.42673 0
M  V30 12157 H 211.647 -4.11637 -4.08885 0
M  V30 12158 H 211.368 -2.49626 -6.61679 0
M  V30 12159 H 210.376 -3.86566 -6.00778 0
M  V30 12160 H 212.21 -4.29943 -7.96918 0
M  V30 12161 H 212.281 -1.00937 -6.00374 0
M  V30 12162 P 210.339 -6.144 -6.45285 0
M  V30 12163 O 210.119 -7.54673 -6.86199 0
M  V30 12164 O 209.549 -5.12391 -7.179 0
M  V30 12165 O 210.089 -5.99158 -4.88404 0
M  V30 12166 C 211.029 -6.60234 -3.96415 0
M  V30 12167 C 210.299 -7.08259 -2.72856 0
M  V30 12168 O 210.089 -5.9427 -1.83651 0
M  V30 12169 C 208.899 -7.64886 -2.9555 0
M  V30 12170 O 208.509 -8.53963 -1.90717 0
M  V30 12171 C 208.019 -6.4116 -2.90739 0
M  V30 12172 C 208.729 -5.55375 -1.86963 0
M  V30 12173 N 208.679 -4.09448 -2.16152 0
M  V30 12174 C 208.759 -3.46824 -3.37593 0
M  V30 12175 N 208.689 -2.17422 -3.29777 0
M  V30 12176 C 208.539 -1.93065 -1.94427 0
M  V30 12177 C 208.409 -0.738053 -1.20141 0
M  V30 12178 N 208.399 0.474256 -1.74676 0
M  V30 12179 N 208.289 -0.850049 0.13045 0
M  V30 12180 C 208.299 -2.06169 0.676992 0
M  V30 12181 N 208.419 -3.23842 0.101312 0
M  V30 12182 C 208.539 -3.09402 -1.23122 0
M  V30 12183 H 211.518 -7.45574 -4.45629 0
M  V30 12184 H 211.79 -5.85864 -3.679 0
M  V30 12185 H 210.922 -7.84412 -2.24479 0
M  V30 12186 H 208.267 -5.73457 -0.888562 0
M  V30 12187 H 207.987 -5.90877 -3.88583 0
M  V30 12188 H 206.996 -6.6596 -2.58858 0
M  V30 12189 H 208.83 -8.16339 -3.92049 0
M  V30 12190 H 208.871 -4.00505 -4.3174 0
M  V30 12191 H 208.49 0.581337 -2.76658 0
M  V30 12192 H 208.301 1.30811 -1.14888 0
M  V30 12193 H 208.193 -2.08295 1.75542 0
M  V30 12194 P 206.959 -8.7635 -1.60911 0
M  V30 12195 O 206.739 -10.1388 -1.11561 0
M  V30 12196 O 206.169 -8.36503 -2.79617 0
M  V30 12197 O 206.709 -7.71806 -0.42951 0
M  V30 12198 C 207.649 -7.67148 0.673689 0
M  V30 12199 C 206.919 -7.33374 1.95559 0
M  V30 12200 O 206.709 -5.88721 2.00726 0
M  V30 12201 C 205.519 -7.92526 2.10483 0
M  V30 12202 O 205.129 -8.02971 3.47653 0
M  V30 12203 C 204.639 -6.89602 1.41652 0
M  V30 12204 C 205.349 -5.59201 1.75185 0
M  V30 12205 N 205.299 -4.58235 0.662552 0
M  V30 12206 H 208.138 -8.65116 0.777161 0
M  V30 12207 H 208.41 -6.90173 0.474152 0
M  V30 12208 H 207.542 -7.66548 2.79458 0
M  V30 12209 P 203.579 -8.03563 3.84925 0
M  V30 12210 O 203.359 -8.85821 5.0569 0
M  V30 12211 O 202.789 -8.41101 2.65469 0
M  V30 12212 O 203.329 -6.4965 4.18908 0
M  V30 12213 C 204.269 -5.81037 5.05421 0
M  V30 12214 C 203.539 -4.78366 5.89277 0
M  V30 12215 O 203.329 -3.58302 5.08433 0
M  V30 12216 C 202.139 -5.17448 6.36119 0
M  V30 12217 O 201.749 -4.45271 7.53232 0
M  V30 12218 C 201.259 -4.74639 5.19936 0
M  V30 12219 C 201.969 -3.49432 4.70418 0
M  V30 12220 N 201.919 -3.32099 3.22613 0
M  V30 12221 H 204.758 -6.54213 5.71376 0
M  V30 12222 H 205.03 -5.30936 4.43503 0
M  V30 12223 H 204.162 -4.55889 6.76652 0
M  V30 12224 H 201.507 -2.61715 5.17932 0
M  V30 12225 H 201.227 -5.52155 4.41878 0
M  V30 12226 H 200.236 -4.51981 5.53374 0
M  V30 12227 H 202.07 -6.25124 6.55234 0
M  V30 12228 P 200.199 -4.23843 7.83734 0
M  V30 12229 O 199.979 -4.19407 9.29784 0
M  V30 12230 O 199.409 -5.24426 7.09156 0
M  V30 12231 O 199.949 -2.7935 7.20758 0
M  V30 12232 C 200.889 -1.7299 7.50419 0
M  V30 12233 C 200.159 -0.406376 7.57911 0
M  V30 12234 O 199.949 0.0897726 6.21935 0
M  V30 12235 C 198.759 -0.447224 8.1878 0
M  V30 12236 O 198.369 0.825065 8.71101 0
M  V30 12237 C 197.879 -0.783801 6.99623 0
M  V30 12238 C 198.589 -0.0619192 5.85967 0
M  V30 12239 N 198.539 -0.790462 4.56202 0
M  V30 12240 H 201.378 -1.93423 8.4679 0
M  V30 12241 H 201.65 -1.68852 6.70877 0
M  V30 12242 H 200.782 0.289041 8.15388 0
M  V30 12243 H 198.127 0.927006 5.72848 0
M  V30 12244 H 197.847 -1.86973 6.82036 0
M  V30 12245 H 196.856 -0.403953 7.13357 0
M  V30 12246 H 198.69 -1.20599 8.97534 0
M  V30 12247 P 196.819 1.17771 8.83182 0
M  V30 12248 O 196.599 2.07206 9.98732 0
M  V30 12249 O 196.029 -0.0743816 8.81969 0
M  V30 12250 O 196.569 1.97652 7.47304 0
M  V30 12251 C 197.509 3.01133 7.08783 0
M  V30 12252 C 196.779 4.12613 6.37049 0
M  V30 12253 O 196.569 3.72827 4.97879 0
M  V30 12254 C 195.379 4.45085 6.88694 0
M  V30 12255 O 194.989 5.7877 6.5624 0
M  V30 12256 C 194.499 3.47817 6.12078 0
M  V30 12257 C 195.209 3.39414 4.77697 0
M  V30 12258 N 195.159 2.04615 4.15333 0
M  V30 12259 C 195.239 0.803897 4.75249 0
M  V30 12260 N 195.159 -0.197615 3.91502 0
M  V30 12261 C 195.019 0.413002 2.66823 0
M  V30 12262 C 194.889 -0.157221 1.38007 0
M  V30 12263 N 194.769 0.833136 0.390236 0
M  V30 12264 C 194.769 2.19402 0.623885 0
M  V30 12265 N 194.639 2.97622 -0.449677 0
M  V30 12266 N 194.899 2.73005 1.83601 0
M  V30 12267 C 195.019 1.78786 2.80935 0
M  V30 12268 H 197.998 3.41248 7.98759 0
M  V30 12269 H 198.27 2.5837 6.41742 0
M  V30 12270 H 197.402 5.02657 6.42673 0
M  V30 12271 P 193.439 6.144 6.45285 0
M  V30 12272 O 193.219 7.54673 6.86199 0
M  V30 12273 O 192.649 5.12391 7.179 0
M  V30 12274 O 193.189 5.99158 4.88404 0
M  V30 12275 C 194.129 6.60234 3.96415 0
M  V30 12276 C 193.399 7.08259 2.72856 0
M  V30 12277 O 193.189 5.9427 1.83651 0
M  V30 12278 C 191.999 7.64886 2.9555 0
M  V30 12279 O 191.609 8.53963 1.90717 0
M  V30 12280 C 191.119 6.4116 2.90739 0
M  V30 12281 C 191.829 5.55375 1.86963 0
M  V30 12282 N 191.779 4.09448 2.16152 0
M  V30 12283 C 191.859 3.46824 3.37593 0
M  V30 12284 N 191.789 2.17422 3.29777 0
M  V30 12285 C 191.639 1.93065 1.94427 0
M  V30 12286 C 191.509 0.738053 1.20141 0
M  V30 12287 N 191.499 -0.474256 1.74676 0
M  V30 12288 N 191.389 0.850049 -0.13045 0
M  V30 12289 C 191.399 2.06169 -0.676992 0
M  V30 12290 N 191.519 3.23842 -0.101312 0
M  V30 12291 C 191.639 3.09402 1.23122 0
M  V30 12292 H 194.618 7.45574 4.45629 0
M  V30 12293 H 194.89 5.85864 3.679 0
M  V30 12294 H 194.022 7.84412 2.24479 0
M  V30 12295 H 191.367 5.73457 0.888562 0
M  V30 12296 H 191.087 5.90877 3.88583 0
M  V30 12297 H 190.096 6.6596 2.58858 0
M  V30 12298 H 191.93 8.16339 3.92049 0
M  V30 12299 H 191.971 4.00505 4.3174 0
M  V30 12300 H 191.59 -0.581337 2.76658 0
M  V30 12301 H 191.401 -1.30811 1.14888 0
M  V30 12302 H 191.293 2.08295 -1.75542 0
M  V30 12303 P 190.059 8.7635 1.60911 0
M  V30 12304 O 189.839 10.1388 1.11561 0
M  V30 12305 O 189.269 8.36503 2.79617 0
M  V30 12306 O 189.809 7.71806 0.42951 0
M  V30 12307 C 190.749 7.67148 -0.673689 0
M  V30 12308 C 190.019 7.33374 -1.95559 0
M  V30 12309 O 189.809 5.88721 -2.00726 0
M  V30 12310 C 188.619 7.92526 -2.10483 0
M  V30 12311 O 188.229 8.02971 -3.47653 0
M  V30 12312 C 187.739 6.89602 -1.41652 0
M  V30 12313 C 188.449 5.59201 -1.75185 0
M  V30 12314 N 188.399 4.58301 -0.657969 0
M  V30 12315 C 188.479 4.79019 0.692603 0
M  V30 12316 N 188.409 3.69736 1.38998 0
M  V30 12317 C 188.259 2.70474 0.438135 0
M  V30 12318 C 188.129 1.30327 0.538142 0
M  V30 12319 N 188.119 0.64304 1.69192 0
M  V30 12320 N 188.009 0.611027 -0.605183 0
M  V30 12321 C 188.019 1.27002 -1.75953 0
M  V30 12322 N 188.139 2.56038 -1.98546 0
M  V30 12323 C 188.259 3.22681 -0.822541 0
M  V30 12324 H 191.238 8.65116 -0.777161 0
M  V30 12325 H 191.51 6.9022 -0.46725 0
M  V30 12326 H 190.642 7.66548 -2.79458 0
M  V30 12327 H 187.987 5.16165 -2.65183 0
M  V30 12328 H 187.707 7.06433 -0.329384 0
M  V30 12329 H 186.716 6.90926 -1.82021 0
M  V30 12330 H 188.55 8.90873 -1.62657 0
M  V30 12331 H 188.591 5.77785 1.13874 0
M  V30 12332 H 188.21 1.15585 2.57991 0
M  V30 12333 H 188.021 -0.382989 1.69835 0
M  V30 12334 H 187.913 0.653331 -2.64449 0
M  V30 12335 P 186.679 8.03563 -3.84925 0
M  V30 12336 O 186.459 8.85821 -5.0569 0
M  V30 12337 O 185.889 8.41101 -2.65469 0
M  V30 12338 O 186.429 6.4965 -4.18908 0
M  V30 12339 C 187.369 5.81037 -5.05421 0
M  V30 12340 C 186.639 4.78366 -5.89277 0
M  V30 12341 O 186.429 3.58302 -5.08433 0
M  V30 12342 C 185.239 5.17448 -6.36119 0
M  V30 12343 O 184.849 4.45271 -7.53232 0
M  V30 12344 C 184.359 4.74639 -5.19936 0
M  V30 12345 C 185.069 3.49432 -4.70418 0
M  V30 12346 N 185.019 3.31776 -3.22945 0
M  V30 12347 H 187.858 6.54213 -5.71376 0
M  V30 12348 H 188.13 5.30492 -4.44033 0
M  V30 12349 H 187.262 4.55889 -6.76652 0
M  V30 12350 P 183.299 4.23843 -7.83734 0
M  V30 12351 O 183.079 4.19407 -9.29784 0
M  V30 12352 O 182.509 5.24426 -7.09156 0
M  V30 12353 O 183.049 2.7935 -7.20758 0
M  V30 12354 C 183.989 1.7299 -7.50419 0
M  V30 12355 C 183.259 0.406376 -7.57911 0
M  V30 12356 O 183.049 -0.0897726 -6.21935 0
M  V30 12357 C 181.859 0.447224 -8.1878 0
M  V30 12358 O 181.469 -0.825065 -8.71101 0
M  V30 12359 C 180.979 0.783801 -6.99623 0
M  V30 12360 C 181.689 0.0619192 -5.85967 0
M  V30 12361 N 181.639 0.7859 -4.56281 0
M  V30 12362 H 184.478 1.93423 -8.4679 0
M  V30 12363 H 184.75 1.68181 -6.71046 0
M  V30 12364 H 183.882 -0.289041 -8.15388 0
M  V30 12365 P 179.919 -1.17771 -8.83182 0
M  V30 12366 O 179.699 -2.07206 -9.98732 0
M  V30 12367 O 179.129 0.0743816 -8.81969 0
M  V30 12368 O 179.669 -1.97652 -7.47304 0
M  V30 12369 C 180.609 -3.01133 -7.08783 0
M  V30 12370 C 179.879 -4.12613 -6.37049 0
M  V30 12371 O 179.669 -3.72827 -4.97879 0
M  V30 12372 C 178.479 -4.45085 -6.88694 0
M  V30 12373 O 178.089 -5.7877 -6.5624 0
M  V30 12374 C 177.599 -3.47817 -6.12078 0
M  V30 12375 C 178.309 -3.39414 -4.77697 0
M  V30 12376 N 178.259 -2.04615 -4.15333 0
M  V30 12377 H 181.098 -3.41248 -7.98759 0
M  V30 12378 H 181.37 -2.5837 -6.41742 0
M  V30 12379 H 180.502 -5.02657 -6.42673 0
M  V30 12380 P 176.539 -6.144 -6.45285 0
M  V30 12381 O 176.319 -7.54673 -6.86199 0
M  V30 12382 O 175.749 -5.12391 -7.179 0
M  V30 12383 O 176.289 -5.99158 -4.88404 0
M  V30 12384 C 177.229 -6.60234 -3.96415 0
M  V30 12385 C 176.499 -7.08259 -2.72856 0
M  V30 12386 O 176.289 -5.9427 -1.83651 0
M  V30 12387 C 175.099 -7.64886 -2.9555 0
M  V30 12388 O 174.709 -8.53963 -1.90717 0
M  V30 12389 C 174.219 -6.4116 -2.90739 0
M  V30 12390 C 174.929 -5.55375 -1.86963 0
M  V30 12391 N 174.879 -4.09448 -2.16152 0
M  V30 12392 H 177.718 -7.45574 -4.45629 0
M  V30 12393 H 177.99 -5.85864 -3.679 0
M  V30 12394 H 177.122 -7.84412 -2.24479 0
M  V30 12395 H 174.467 -5.73457 -0.888562 0
M  V30 12396 H 174.187 -5.90877 -3.88583 0
M  V30 12397 H 173.196 -6.6596 -2.58858 0
M  V30 12398 H 175.03 -8.16339 -3.92049 0
M  V30 12399 P 173.159 -8.7635 -1.60911 0
M  V30 12400 O 172.939 -10.1388 -1.11561 0
M  V30 12401 O 172.369 -8.36503 -2.79617 0
M  V30 12402 O 172.909 -7.71806 -0.42951 0
M  V30 12403 C 173.849 -7.67148 0.673689 0
M  V30 12404 C 173.119 -7.33374 1.95559 0
M  V30 12405 O 172.909 -5.88721 2.00726 0
M  V30 12406 C 171.719 -7.92526 2.10483 0
M  V30 12407 O 171.329 -8.02971 3.47653 0
M  V30 12408 C 170.839 -6.89602 1.41652 0
M  V30 12409 C 171.549 -5.59201 1.75185 0
M  V30 12410 N 171.499 -4.58301 0.657969 0
M  V30 12411 H 174.338 -8.65116 0.777161 0
M  V30 12412 H 174.61 -6.9022 0.46725 0
M  V30 12413 H 173.742 -7.66548 2.79458 0
M  V30 12414 H 171.087 -5.16165 2.65183 0
M  V30 12415 H 170.807 -7.06433 0.329384 0
M  V30 12416 H 169.816 -6.90926 1.82021 0
M  V30 12417 H 171.65 -8.90873 1.62657 0
M  V30 12418 P 169.779 -8.03563 3.84925 0
M  V30 12419 O 169.559 -8.85821 5.0569 0
M  V30 12420 O 168.989 -8.41101 2.65469 0
M  V30 12421 O 169.529 -6.4965 4.18908 0
M  V30 12422 C 170.469 -5.81037 5.05421 0
M  V30 12423 C 169.739 -4.78366 5.89277 0
M  V30 12424 O 169.529 -3.58302 5.08433 0
M  V30 12425 C 168.339 -5.17448 6.36119 0
M  V30 12426 O 167.949 -4.45271 7.53232 0
M  V30 12427 C 167.459 -4.74639 5.19936 0
M  V30 12428 C 168.169 -3.49432 4.70418 0
M  V30 12429 N 168.119 -3.31776 3.22945 0
M  V30 12430 H 170.958 -6.54213 5.71376 0
M  V30 12431 H 171.23 -5.30492 4.44033 0
M  V30 12432 H 170.362 -4.55889 6.76652 0
M  V30 12433 P 166.399 -4.23843 7.83734 0
M  V30 12434 O 166.179 -4.19407 9.29784 0
M  V30 12435 O 165.609 -5.24426 7.09156 0
M  V30 12436 O 166.149 -2.7935 7.20758 0
M  V30 12437 C 167.089 -1.7299 7.50419 0
M  V30 12438 C 166.359 -0.406376 7.57911 0
M  V30 12439 O 166.149 0.0897726 6.21935 0
M  V30 12440 C 164.959 -0.447224 8.1878 0
M  V30 12441 O 164.569 0.825065 8.71101 0
M  V30 12442 C 164.079 -0.783801 6.99623 0
M  V30 12443 C 164.789 -0.0619192 5.85967 0
M  V30 12444 N 164.739 -0.7859 4.56281 0
M  V30 12445 C 164.819 -2.14308 4.31736 0
M  V30 12446 N 164.739 -2.46106 3.05116 0
M  V30 12447 C 164.599 -1.23422 2.4014 0
M  V30 12448 C 164.469 -0.938381 1.02409 0
M  V30 12449 N 164.349 0.444647 0.805413 0
M  V30 12450 C 164.349 1.40829 1.79435 0
M  V30 12451 N 164.219 2.67213 1.38558 0
M  V30 12452 N 164.479 1.12947 3.09005 0
M  V30 12453 C 164.599 -0.204887 3.32369 0
M  V30 12454 H 167.578 -1.93423 8.4679 0
M  V30 12455 H 167.85 -1.68181 6.71046 0
M  V30 12456 H 166.982 0.289041 8.15388 0
M  V30 12457 P 163.019 1.17771 8.83182 0
M  V30 12458 O 162.799 2.07206 9.98732 0
M  V30 12459 O 162.229 -0.0743816 8.81969 0
M  V30 12460 O 162.769 1.97678 7.474 0
M  V30 12461 C 163.709 3.01133 7.08783 0
M  V30 12462 C 162.979 4.1203 6.37546 0
M  V30 12463 O 162.769 3.72887 4.9796 0
M  V30 12464 C 161.579 4.45085 6.88694 0
M  V30 12465 O 161.189 5.78836 6.56315 0
M  V30 12466 C 160.699 3.47817 6.12078 0
M  V30 12467 C 161.409 3.39414 4.77697 0
M  V30 12468 N 161.359 2.04615 4.15333 0
M  V30 12469 C 161.209 1.96929 2.77162 0
M  V30 12470 O 161.119 3.02017 2.12006 0
M  V30 12471 N 161.159 0.55485 2.24237 0
M  V30 12472 C 161.259 -0.367808 2.9169 0
M  V30 12473 N 161.209 -1.53426 2.29427 0
M  V30 12474 C 161.409 -0.319148 4.33828 0
M  V30 12475 C 161.459 0.920672 4.90433 0
M  V30 12476 H 164.199 3.41209 7.98667 0
M  V30 12477 H 164.469 2.5837 6.41742 0
M  V30 12478 H 163.602 5.02718 6.42752 0
M  V30 12479 H 160.947 4.11779 4.09026 0
M  V30 12480 H 160.667 2.49661 6.61772 0
M  V30 12481 H 159.676 3.86674 6.00946 0
M  V30 12482 H 161.51 4.29991 7.97006 0
M  V30 12483 H 161.582 1.00589 5.98303 0
M  V30 12484 H 161.48 -1.22639 4.93799 0
M  V30 12485 H 161.092 -1.56819 1.27167 0
M  V30 12486 H 161.288 -2.41062 2.83063 0
M  V30 12487 P 159.639 6.144 6.45285 0
M  V30 12488 O 159.419 7.54673 6.86199 0
M  V30 12489 O 158.849 5.12391 7.179 0
M  V30 12490 O 159.389 5.99158 4.88404 0
M  V30 12491 C 160.329 6.60234 3.96415 0
M  V30 12492 C 159.599 7.08259 2.72856 0
M  V30 12493 O 159.389 5.9427 1.83651 0
M  V30 12494 C 158.199 7.64886 2.9555 0
M  V30 12495 O 157.809 8.53963 1.90717 0
M  V30 12496 C 157.319 6.4116 2.90739 0
M  V30 12497 C 158.029 5.55375 1.86963 0
M  V30 12498 N 157.979 4.09664 2.15742 0
M  V30 12499 H 160.818 7.45574 4.45629 0
M  V30 12500 H 161.09 5.86232 3.67314 0
M  V30 12501 H 160.222 7.84412 2.24479 0
M  V30 12502 P 156.259 8.7635 1.60911 0
M  V30 12503 O 156.039 10.1388 1.11561 0
M  V30 12504 O 155.469 8.36503 2.79617 0
M  V30 12505 O 156.009 7.71806 0.42951 0
M  V30 12506 C 156.949 7.67148 -0.673689 0
M  V30 12507 C 156.219 7.33374 -1.95559 0
M  V30 12508 O 156.009 5.88721 -2.00726 0
M  V30 12509 C 154.819 7.92526 -2.10483 0
M  V30 12510 O 154.429 8.02971 -3.47653 0
M  V30 12511 C 153.939 6.89602 -1.41652 0
M  V30 12512 C 154.649 5.59201 -1.75185 0
M  V30 12513 N 154.599 4.58301 -0.657969 0
M  V30 12514 H 157.438 8.65116 -0.777161 0
M  V30 12515 H 157.71 6.9022 -0.46725 0
M  V30 12516 H 156.842 7.66548 -2.79458 0
M  V30 12517 H 154.187 5.16165 -2.65183 0
M  V30 12518 H 153.907 7.06433 -0.329384 0
M  V30 12519 H 152.916 6.90926 -1.82021 0
M  V30 12520 H 154.75 8.90873 -1.62657 0
M  V30 12521 P 152.879 8.03563 -3.84925 0
M  V30 12522 O 152.659 8.85821 -5.0569 0
M  V30 12523 O 152.089 8.41101 -2.65469 0
M  V30 12524 O 152.629 6.4965 -4.18908 0
M  V30 12525 C 153.569 5.81037 -5.05421 0
M  V30 12526 C 152.839 4.78366 -5.89277 0
M  V30 12527 O 152.629 3.58302 -5.08433 0
M  V30 12528 C 151.439 5.17448 -6.36119 0
M  V30 12529 O 151.049 4.45271 -7.53232 0
M  V30 12530 C 150.559 4.74639 -5.19936 0
M  V30 12531 C 151.269 3.49432 -4.70418 0
M  V30 12532 N 151.219 3.31776 -3.22945 0
M  V30 12533 H 154.058 6.54213 -5.71376 0
M  V30 12534 H 154.33 5.30492 -4.44033 0
M  V30 12535 H 153.462 4.55889 -6.76652 0
M  V30 12536 P 149.499 4.23843 -7.83734 0
M  V30 12537 O 149.279 4.19407 -9.29784 0
M  V30 12538 O 148.709 5.24426 -7.09156 0
M  V30 12539 O 149.249 2.7935 -7.20758 0
M  V30 12540 C 150.189 1.7299 -7.50419 0
M  V30 12541 C 149.459 0.406376 -7.57911 0
M  V30 12542 O 149.249 -0.0897726 -6.21935 0
M  V30 12543 C 148.059 0.447224 -8.1878 0
M  V30 12544 O 147.669 -0.825065 -8.71101 0
M  V30 12545 C 147.179 0.783801 -6.99623 0
M  V30 12546 C 147.889 0.0619192 -5.85967 0
M  V30 12547 N 147.839 0.7859 -4.56281 0
M  V30 12548 H 150.678 1.93423 -8.4679 0
M  V30 12549 H 150.95 1.68181 -6.71046 0
M  V30 12550 H 150.082 -0.289041 -8.15388 0
M  V30 12551 P 146.119 -1.17771 -8.83182 0
M  V30 12552 O 145.899 -2.07206 -9.98732 0
M  V30 12553 O 145.329 0.0743816 -8.81969 0
M  V30 12554 O 145.869 -1.97652 -7.47304 0
M  V30 12555 C 146.809 -3.01133 -7.08783 0
M  V30 12556 C 146.079 -4.12613 -6.37049 0
M  V30 12557 O 145.869 -3.72827 -4.97879 0
M  V30 12558 C 144.679 -4.45085 -6.88694 0
M  V30 12559 O 144.289 -5.7877 -6.5624 0
M  V30 12560 C 143.799 -3.47817 -6.12078 0
M  V30 12561 C 144.509 -3.39414 -4.77697 0
M  V30 12562 N 144.459 -2.04615 -4.15333 0
M  V30 12563 H 147.298 -3.41248 -7.98759 0
M  V30 12564 H 147.57 -2.5837 -6.41742 0
M  V30 12565 H 146.702 -5.02657 -6.42673 0
M  V30 12566 P 142.739 -6.144 -6.45285 0
M  V30 12567 O 142.519 -7.54673 -6.86199 0
M  V30 12568 O 141.949 -5.12391 -7.179 0
M  V30 12569 O 142.489 -5.99158 -4.88404 0
M  V30 12570 C 143.429 -6.60234 -3.96415 0
M  V30 12571 C 142.699 -7.08259 -2.72856 0
M  V30 12572 O 142.489 -5.9427 -1.83651 0
M  V30 12573 C 141.299 -7.64886 -2.9555 0
M  V30 12574 O 140.909 -8.53963 -1.90717 0
M  V30 12575 C 140.419 -6.4116 -2.90739 0
M  V30 12576 C 141.129 -5.55375 -1.86963 0
M  V30 12577 N 141.079 -4.09664 -2.15742 0
M  V30 12578 H 143.918 -7.45574 -4.45629 0
M  V30 12579 H 144.19 -5.86232 -3.67314 0
M  V30 12580 H 143.322 -7.84412 -2.24479 0
M  V30 12581 P 139.359 -8.7635 -1.60911 0
M  V30 12582 O 139.139 -10.1388 -1.11561 0
M  V30 12583 O 138.569 -8.36503 -2.79617 0
M  V30 12584 O 139.109 -7.71806 -0.42951 0
M  V30 12585 C 140.049 -7.67148 0.673689 0
M  V30 12586 C 139.319 -7.33374 1.95559 0
M  V30 12587 O 139.109 -5.88721 2.00726 0
M  V30 12588 C 137.919 -7.92526 2.10483 0
M  V30 12589 O 137.529 -8.02971 3.47653 0
M  V30 12590 C 137.039 -6.89602 1.41652 0
M  V30 12591 C 137.749 -5.59201 1.75185 0
M  V30 12592 N 137.699 -4.58235 0.662552 0
M  V30 12593 H 140.538 -8.65116 0.777161 0
M  V30 12594 H 140.81 -6.90173 0.474152 0
M  V30 12595 H 139.942 -7.66548 2.79458 0
M  V30 12596 P 135.979 -8.03563 3.84925 0
M  V30 12597 O 135.759 -8.85821 5.0569 0
M  V30 12598 O 135.189 -8.41101 2.65469 0
M  V30 12599 O 135.729 -6.49734 4.18962 0
M  V30 12600 C 136.669 -5.81037 5.05421 0
M  V30 12601 C 135.939 -4.79018 5.88876 0
M  V30 12602 O 135.729 -3.58359 5.08515 0
M  V30 12603 C 134.539 -5.17448 6.36119 0
M  V30 12604 O 134.149 -4.45322 7.53318 0
M  V30 12605 C 133.659 -4.74639 5.19936 0
M  V30 12606 C 134.369 -3.49432 4.70418 0
M  V30 12607 N 134.319 -3.31776 3.22945 0
M  V30 12608 C 134.169 -2.02742 2.72939 0
M  V30 12609 O 134.079 -1.08301 3.52749 0
M  V30 12610 N 134.119 -1.96117 1.22063 0
M  V30 12611 C 134.219 -2.8878 0.551566 0
M  V30 12612 N 134.169 -2.65609 -0.750198 0
M  V30 12613 C 134.369 -4.22457 1.03707 0
M  V30 12614 C 134.419 -4.37979 2.39113 0
M  V30 12615 H 137.159 -6.54138 5.7131 0
M  V30 12616 H 137.429 -5.30492 4.44033 0
M  V30 12617 H 136.562 -4.55945 6.76735 0
M  V30 12618 H 133.907 -2.6176 5.18021 0
M  V30 12619 H 133.627 -5.52233 4.41941 0
M  V30 12620 H 132.636 -4.52045 5.53452 0
M  V30 12621 H 134.47 -6.25124 6.55234 0
M  V30 12622 H 134.542 -5.37936 2.80552 0
M  V30 12623 H 134.44 -5.07528 0.359553 0
M  V30 12624 H 134.052 -1.69403 -1.09847 0
M  V30 12625 H 134.248 -3.43701 -1.41792 0
M  V30 12626 P 132.599 -4.23843 7.83734 0
M  V30 12627 O 132.379 -4.19407 9.29784 0
M  V30 12628 O 131.809 -5.24426 7.09156 0
M  V30 12629 O 132.349 -2.7935 7.20758 0
M  V30 12630 C 133.289 -1.7299 7.50419 0
M  V30 12631 C 132.559 -0.406376 7.57911 0
M  V30 12632 O 132.349 0.0897726 6.21935 0
M  V30 12633 C 131.159 -0.447224 8.1878 0
M  V30 12634 O 130.769 0.825065 8.71101 0
M  V30 12635 C 130.279 -0.783801 6.99623 0
M  V30 12636 C 130.989 -0.0619192 5.85967 0
M  V30 12637 N 130.939 -0.7859 4.56281 0
M  V30 12638 H 133.778 -1.93423 8.4679 0
M  V30 12639 H 134.05 -1.68181 6.71046 0
M  V30 12640 H 133.182 0.289041 8.15388 0
M  V30 12641 P 129.219 1.17771 8.83182 0
M  V30 12642 O 128.999 2.07206 9.98732 0
M  V30 12643 O 128.429 -0.0743816 8.81969 0
M  V30 12644 O 128.969 1.97652 7.47304 0
M  V30 12645 C 129.909 3.01133 7.08783 0
M  V30 12646 C 129.179 4.12613 6.37049 0
M  V30 12647 O 128.969 3.72827 4.97879 0
M  V30 12648 C 127.779 4.45085 6.88694 0
M  V30 12649 O 127.389 5.7877 6.5624 0
M  V30 12650 C 126.899 3.47817 6.12078 0
M  V30 12651 C 127.609 3.39414 4.77697 0
M  V30 12652 N 127.559 2.04615 4.15333 0
M  V30 12653 H 130.398 3.41248 7.98759 0
M  V30 12654 H 130.67 2.5837 6.41742 0
M  V30 12655 H 129.802 5.02657 6.42673 0
M  V30 12656 P 125.839 6.144 6.45285 0
M  V30 12657 O 125.619 7.54673 6.86199 0
M  V30 12658 O 125.049 5.12391 7.179 0
M  V30 12659 O 125.589 5.99158 4.88404 0
M  V30 12660 C 126.529 6.60234 3.96415 0
M  V30 12661 C 125.799 7.08259 2.72856 0
M  V30 12662 O 125.589 5.9427 1.83651 0
M  V30 12663 C 124.399 7.64886 2.9555 0
M  V30 12664 O 124.009 8.53963 1.90717 0
M  V30 12665 C 123.519 6.4116 2.90739 0
M  V30 12666 C 124.229 5.55375 1.86963 0
M  V30 12667 N 124.179 4.09664 2.15742 0
M  V30 12668 H 127.018 7.45574 4.45629 0
M  V30 12669 H 127.29 5.86232 3.67314 0
M  V30 12670 H 126.422 7.84412 2.24479 0
M  V30 12671 P 122.459 8.7635 1.60911 0
M  V30 12672 O 122.239 10.1388 1.11561 0
M  V30 12673 O 121.669 8.36503 2.79617 0
M  V30 12674 O 122.209 7.71806 0.42951 0
M  V30 12675 C 123.149 7.67148 -0.673689 0
M  V30 12676 C 122.419 7.33374 -1.95559 0
M  V30 12677 O 122.209 5.88721 -2.00726 0
M  V30 12678 C 121.019 7.92526 -2.10483 0
M  V30 12679 O 120.629 8.02971 -3.47653 0
M  V30 12680 C 120.139 6.89602 -1.41652 0
M  V30 12681 C 120.849 5.59201 -1.75185 0
M  V30 12682 N 120.799 4.58301 -0.657969 0
M  V30 12683 H 123.638 8.65116 -0.777161 0
M  V30 12684 H 123.91 6.9022 -0.46725 0
M  V30 12685 H 123.042 7.66548 -2.79458 0
M  V30 12686 H 120.387 5.16165 -2.65183 0
M  V30 12687 H 120.107 7.06433 -0.329384 0
M  V30 12688 H 119.116 6.90926 -1.82021 0
M  V30 12689 H 120.95 8.90873 -1.62657 0
M  V30 12690 P 119.079 8.03563 -3.84925 0
M  V30 12691 O 118.859 8.85821 -5.0569 0
M  V30 12692 O 118.289 8.41101 -2.65469 0
M  V30 12693 O 118.829 6.4965 -4.18908 0
M  V30 12694 C 119.769 5.81037 -5.05421 0
M  V30 12695 C 119.039 4.78366 -5.89277 0
M  V30 12696 O 118.829 3.58302 -5.08433 0
M  V30 12697 C 117.639 5.17448 -6.36119 0
M  V30 12698 O 117.249 4.45271 -7.53232 0
M  V30 12699 C 116.759 4.74639 -5.19936 0
M  V30 12700 C 117.469 3.49432 -4.70418 0
M  V30 12701 N 117.419 3.32099 -3.22613 0
M  V30 12702 H 120.258 6.54213 -5.71376 0
M  V30 12703 H 120.53 5.30936 -4.43503 0
M  V30 12704 H 119.662 4.55889 -6.76652 0
M  V30 12705 H 117.007 2.61715 -5.17932 0
M  V30 12706 H 116.727 5.52155 -4.41878 0
M  V30 12707 H 115.736 4.51981 -5.53374 0
M  V30 12708 H 117.57 6.25124 -6.55234 0
M  V30 12709 P 115.699 4.23843 -7.83734 0
M  V30 12710 O 115.479 4.19407 -9.29784 0
M  V30 12711 O 114.909 5.24426 -7.09156 0
M  V30 12712 O 115.449 2.7935 -7.20758 0
M  V30 12713 C 116.389 1.7299 -7.50419 0
M  V30 12714 C 115.659 0.406376 -7.57911 0
M  V30 12715 O 115.449 -0.0897726 -6.21935 0
M  V30 12716 C 114.259 0.447224 -8.1878 0
M  V30 12717 O 113.869 -0.825065 -8.71101 0
M  V30 12718 C 113.379 0.783801 -6.99623 0
M  V30 12719 C 114.089 0.0619192 -5.85967 0
M  V30 12720 N 114.039 0.7859 -4.56281 0
M  V30 12721 H 116.878 1.93423 -8.4679 0
M  V30 12722 H 117.15 1.68181 -6.71046 0
M  V30 12723 H 116.282 -0.289041 -8.15388 0
M  V30 12724 P 112.319 -1.17771 -8.83182 0
M  V30 12725 O 112.099 -2.07206 -9.98732 0
M  V30 12726 O 111.529 0.0743816 -8.81969 0
M  V30 12727 O 112.069 -1.97678 -7.474 0
M  V30 12728 C 113.009 -3.01133 -7.08783 0
M  V30 12729 C 112.279 -4.1203 -6.37546 0
M  V30 12730 O 112.069 -3.72887 -4.9796 0
M  V30 12731 C 110.879 -4.45085 -6.88694 0
M  V30 12732 O 110.489 -5.78836 -6.56315 0
M  V30 12733 C 109.999 -3.47817 -6.12078 0
M  V30 12734 C 110.709 -3.39414 -4.77697 0
M  V30 12735 N 110.659 -2.04615 -4.15333 0
M  V30 12736 C 110.509 -1.96929 -2.77162 0
M  V30 12737 O 110.419 -3.02017 -2.12006 0
M  V30 12738 N 110.459 -0.55485 -2.24237 0
M  V30 12739 C 110.559 0.367808 -2.9169 0
M  V30 12740 N 110.509 1.53426 -2.29427 0
M  V30 12741 C 110.709 0.319148 -4.33828 0
M  V30 12742 C 110.759 -0.920672 -4.90433 0
M  V30 12743 H 113.499 -3.41209 -7.98667 0
M  V30 12744 H 113.769 -2.5837 -6.41742 0
M  V30 12745 H 112.902 -5.02718 -6.42752 0
M  V30 12746 H 110.247 -4.11779 -4.09026 0
M  V30 12747 H 109.967 -2.49661 -6.61772 0
M  V30 12748 H 108.976 -3.86674 -6.00946 0
M  V30 12749 H 110.81 -4.29991 -7.97006 0
M  V30 12750 H 110.882 -1.00589 -5.98303 0
M  V30 12751 H 110.78 1.22639 -4.93799 0
M  V30 12752 H 110.392 1.56819 -1.27167 0
M  V30 12753 H 110.588 2.41062 -2.83063 0
M  V30 12754 P 108.939 -6.144 -6.45285 0
M  V30 12755 O 108.719 -7.54673 -6.86199 0
M  V30 12756 O 108.149 -5.12391 -7.179 0
M  V30 12757 O 108.689 -5.99158 -4.88404 0
M  V30 12758 C 109.629 -6.60234 -3.96415 0
M  V30 12759 C 108.899 -7.08259 -2.72856 0
M  V30 12760 O 108.689 -5.9427 -1.83651 0
M  V30 12761 C 107.499 -7.64886 -2.9555 0
M  V30 12762 O 107.109 -8.53963 -1.90717 0
M  V30 12763 C 106.619 -6.4116 -2.90739 0
M  V30 12764 C 107.329 -5.55375 -1.86963 0
M  V30 12765 N 107.279 -4.09664 -2.15742 0
M  V30 12766 H 110.118 -7.45574 -4.45629 0
M  V30 12767 H 110.39 -5.86232 -3.67314 0
M  V30 12768 H 109.522 -7.84412 -2.24479 0
M  V30 12769 P 105.559 -8.7635 -1.60911 0
M  V30 12770 O 105.339 -10.1388 -1.11561 0
M  V30 12771 O 104.769 -8.36503 -2.79617 0
M  V30 12772 O 105.309 -7.71806 -0.42951 0
M  V30 12773 C 106.249 -7.66948 0.673514 0
M  V30 12774 C 105.519 -7.33374 1.95559 0
M  V30 12775 O 105.309 -5.88721 2.00726 0
M  V30 12776 C 104.119 -7.92218 2.1125 0
M  V30 12777 O 103.729 -8.02971 3.47653 0
M  V30 12778 C 103.239 -6.89504 1.41631 0
M  V30 12779 C 103.949 -5.59106 1.75155 0
M  V30 12780 N 103.899 -4.58136 0.662409 0
M  V30 12781 C 103.749 -3.26059 1.02863 0
M  V30 12782 O 103.659 -2.90743 2.19009 0
M  V30 12783 N 103.709 -2.35995 -0.0155585 0
M  V30 12784 C 103.799 -2.65248 -1.35603 0
M  V30 12785 C 103.949 -4.05747 -1.64698 0
M  V30 12786 C 103.999 -4.96734 -0.652411 0
M  V30 12787 H 106.74 -8.64917 0.776982 0
M  V30 12788 H 107.009 -6.89974 0.474015 0
M  V30 12789 H 106.142 -7.66548 2.79458 0
M  V30 12790 H 103.487 -5.16076 2.65138 0
M  V30 12791 H 103.208 -7.06433 0.329384 0
M  V30 12792 H 102.216 -6.90829 1.81996 0
M  V30 12793 H 104.05 -8.90774 1.62639 0
M  V30 12794 H 104.121 -6.02181 -0.895285 0
M  V30 12795 P 102.179 -8.03563 3.84925 0
M  V30 12796 O 101.959 -8.85821 5.0569 0
M  V30 12797 O 101.389 -8.41101 2.65469 0
M  V30 12798 O 101.929 -6.4965 4.18908 0
M  V30 12799 C 102.869 -5.81037 5.05421 0
M  V30 12800 C 102.139 -4.78366 5.89277 0
M  V30 12801 O 101.929 -3.58302 5.08433 0
M  V30 12802 C 100.739 -5.17448 6.36119 0
M  V30 12803 O 100.349 -4.45271 7.53232 0
M  V30 12804 C 99.8594 -4.74639 5.19936 0
M  V30 12805 C 100.569 -3.49432 4.70418 0
M  V30 12806 N 100.519 -3.31776 3.22945 0
M  V30 12807 H 103.358 -6.54213 5.71376 0
M  V30 12808 H 103.63 -5.30492 4.44033 0
M  V30 12809 H 102.762 -4.55889 6.76652 0
M  V30 12810 P 98.7994 -4.23843 7.83734 0
M  V30 12811 O 98.5794 -4.19407 9.29784 0
M  V30 12812 O 98.0094 -5.24426 7.09156 0
M  V30 12813 O 98.5494 -2.7935 7.20758 0
M  V30 12814 C 99.4894 -1.7299 7.50419 0
M  V30 12815 C 98.7594 -0.406376 7.57911 0
M  V30 12816 O 98.5494 0.0897726 6.21935 0
M  V30 12817 C 97.3594 -0.447224 8.1878 0
M  V30 12818 O 96.9694 0.825065 8.71101 0
M  V30 12819 C 96.4794 -0.783801 6.99623 0
M  V30 12820 C 97.1894 -0.0619192 5.85967 0
M  V30 12821 N 97.1394 -0.7859 4.56281 0
M  V30 12822 C 97.2194 -2.14308 4.31736 0
M  V30 12823 N 97.1394 -2.46106 3.05116 0
M  V30 12824 C 96.9994 -1.23422 2.4014 0
M  V30 12825 C 96.8694 -0.938381 1.02409 0
M  V30 12826 N 96.7494 0.444647 0.805413 0
M  V30 12827 C 96.7494 1.40829 1.79435 0
M  V30 12828 N 96.6194 2.67213 1.38558 0
M  V30 12829 N 96.8794 1.12947 3.09005 0
M  V30 12830 C 96.9994 -0.204887 3.32369 0
M  V30 12831 H 99.9784 -1.93423 8.4679 0
M  V30 12832 H 100.25 -1.68181 6.71046 0
M  V30 12833 H 99.3824 0.289041 8.15388 0
M  V30 12834 P 95.4195 1.17771 8.83182 0
M  V30 12835 O 95.1995 2.07206 9.98732 0
M  V30 12836 O 94.6295 -0.0743816 8.81969 0
M  V30 12837 O 95.1695 1.97652 7.47304 0
M  V30 12838 C 96.1095 3.01055 7.08599 0
M  V30 12839 C 95.3795 4.12613 6.37049 0
M  V30 12840 O 95.1695 3.72827 4.97879 0
M  V30 12841 C 93.9795 4.45719 6.88164 0
M  V30 12842 O 93.5895 5.7877 6.5624 0
M  V30 12843 C 93.0995 3.47768 6.11991 0
M  V30 12844 C 93.8095 3.39356 4.77615 0
M  V30 12845 N 93.7595 2.04571 4.15244 0
M  V30 12846 C 93.6095 1.98587 2.78314 0
M  V30 12847 O 93.5195 2.98134 2.08835 0
M  V30 12848 N 93.5695 0.714467 2.24925 0
M  V30 12849 C 93.6595 -0.470001 2.94169 0
M  V30 12850 C 93.8095 -0.312541 4.36783 0
M  V30 12851 C 93.8595 0.914512 4.92583 0
M  V30 12852 H 96.6005 3.41169 7.98575 0
M  V30 12853 H 96.8695 2.58295 6.41556 0
M  V30 12854 H 96.0025 5.02657 6.42673 0
M  V30 12855 H 93.3475 4.11637 4.08885 0
M  V30 12856 H 93.0685 2.49626 6.61679 0
M  V30 12857 H 92.0765 3.86566 6.00778 0
M  V30 12858 H 93.9105 4.29943 7.96918 0
M  V30 12859 H 93.9815 1.00937 6.00374 0
M  V30 12860 P 92.0395 6.144 6.45285 0
M  V30 12861 O 91.8195 7.54673 6.86199 0
M  V30 12862 O 91.2495 5.12391 7.179 0
M  V30 12863 O 91.7895 5.99158 4.88404 0
M  V30 12864 C 92.7295 6.60234 3.96415 0
M  V30 12865 C 91.9995 7.08259 2.72856 0
M  V30 12866 O 91.7895 5.9427 1.83651 0
M  V30 12867 C 90.5995 7.64886 2.9555 0
M  V30 12868 O 90.2095 8.53963 1.90717 0
M  V30 12869 C 89.7195 6.4116 2.90739 0
M  V30 12870 C 90.4295 5.55375 1.86963 0
M  V30 12871 N 90.3795 4.09664 2.15742 0
M  V30 12872 H 93.2185 7.45574 4.45629 0
M  V30 12873 H 93.4905 5.86232 3.67314 0
M  V30 12874 H 92.6225 7.84412 2.24479 0
M  V30 12875 P 88.6595 8.7635 1.60911 0
M  V30 12876 O 88.4395 10.1388 1.11561 0
M  V30 12877 O 87.8695 8.36503 2.79617 0
M  V30 12878 O 88.4095 7.71806 0.42951 0
M  V30 12879 C 89.3495 7.67148 -0.673689 0
M  V30 12880 C 88.6195 7.33374 -1.95559 0
M  V30 12881 O 88.4095 5.88721 -2.00726 0
M  V30 12882 C 87.2195 7.92526 -2.10483 0
M  V30 12883 O 86.8295 8.02971 -3.47653 0
M  V30 12884 C 86.3395 6.89602 -1.41652 0
M  V30 12885 C 87.0495 5.59201 -1.75185 0
M  V30 12886 N 86.9995 4.58301 -0.657969 0
M  V30 12887 H 89.8385 8.65116 -0.777161 0
M  V30 12888 H 90.1105 6.9022 -0.46725 0
M  V30 12889 H 89.2425 7.66548 -2.79458 0
M  V30 12890 H 86.5875 5.16165 -2.65183 0
M  V30 12891 H 86.3075 7.06433 -0.329384 0
M  V30 12892 H 85.3165 6.90926 -1.82021 0
M  V30 12893 H 87.1505 8.90873 -1.62657 0
M  V30 12894 P 85.2795 8.03563 -3.84925 0
M  V30 12895 O 85.0595 8.85821 -5.0569 0
M  V30 12896 O 84.4895 8.41101 -2.65469 0
M  V30 12897 O 85.0295 6.4965 -4.18908 0
M  V30 12898 C 85.9695 5.81037 -5.05421 0
M  V30 12899 C 85.2395 4.78366 -5.89277 0
M  V30 12900 O 85.0295 3.58302 -5.08433 0
M  V30 12901 C 83.8395 5.17448 -6.36119 0
M  V30 12902 O 83.4495 4.45271 -7.53232 0
M  V30 12903 C 82.9595 4.74639 -5.19936 0
M  V30 12904 C 83.6695 3.49432 -4.70418 0
M  V30 12905 N 83.6195 3.31776 -3.22945 0
M  V30 12906 H 86.4585 6.54213 -5.71376 0
M  V30 12907 H 86.7305 5.30492 -4.44033 0
M  V30 12908 H 85.8625 4.55889 -6.76652 0
M  V30 12909 P 81.8995 4.23843 -7.83734 0
M  V30 12910 O 81.6795 4.19407 -9.29784 0
M  V30 12911 O 81.1095 5.24426 -7.09156 0
M  V30 12912 O 81.6495 2.7935 -7.20758 0
M  V30 12913 C 82.5895 1.7299 -7.50419 0
M  V30 12914 C 81.8595 0.406376 -7.57911 0
M  V30 12915 O 81.6495 -0.0897726 -6.21935 0
M  V30 12916 C 80.4595 0.447224 -8.1878 0
M  V30 12917 O 80.0695 -0.825065 -8.71101 0
M  V30 12918 C 79.5795 0.783801 -6.99623 0
M  V30 12919 C 80.2895 0.0619192 -5.85967 0
M  V30 12920 N 80.2395 0.790462 -4.56202 0
M  V30 12921 C 80.3195 2.13895 -4.34171 0
M  V30 12922 N 80.2495 2.46449 -3.08687 0
M  V30 12923 C 80.0995 1.2525 -2.43697 0
M  V30 12924 C 79.9695 0.914535 -1.07318 0
M  V30 12925 N 79.9595 1.80782 -0.0887348 0
M  V30 12926 N 79.8495 -0.386745 -0.768133 0
M  V30 12927 C 79.8595 -1.28096 -1.75159 0
M  V30 12928 N 79.9795 -1.09708 -3.04861 0
M  V30 12929 C 80.0995 0.214857 -3.32306 0
M  V30 12930 H 83.0785 1.93423 -8.4679 0
M  V30 12931 H 83.3505 1.68852 -6.70877 0
M  V30 12932 H 82.4825 -0.289041 -8.15388 0
M  V30 12933 H 79.8275 -0.927006 -5.72848 0
M  V30 12934 H 79.5475 1.86973 -6.82036 0
M  V30 12935 H 78.5565 0.403953 -7.13357 0
M  V30 12936 H 80.3905 1.20599 -8.97534 0
M  V30 12937 H 80.4315 2.86846 -5.14318 0
M  V30 12938 H 80.0505 2.81082 -0.302037 0
M  V30 12939 H 79.8615 1.49688 0.889064 0
M  V30 12940 H 79.7535 -2.31317 -1.43855 0
M  V30 12941 P 78.5196 -1.17771 -8.83182 0
M  V30 12942 O 78.2996 -2.07206 -9.98732 0
M  V30 12943 O 77.7296 0.0743816 -8.81969 0
M  V30 12944 O 78.2696 -1.97652 -7.47304 0
M  V30 12945 C 79.2096 -3.01055 -7.08599 0
M  V30 12946 C 78.4796 -4.12613 -6.37049 0
M  V30 12947 O 78.2696 -3.72827 -4.97879 0
M  V30 12948 C 77.0796 -4.45719 -6.88164 0
M  V30 12949 O 76.6896 -5.7877 -6.5624 0
M  V30 12950 C 76.1996 -3.47768 -6.11991 0
M  V30 12951 C 76.9096 -3.39356 -4.77615 0
M  V30 12952 N 76.8596 -2.04571 -4.15244 0
M  V30 12953 C 76.7096 -1.98587 -2.78314 0
M  V30 12954 O 76.6196 -2.98134 -2.08835 0
M  V30 12955 N 76.6696 -0.714467 -2.24925 0
M  V30 12956 C 76.7596 0.470001 -2.94169 0
M  V30 12957 C 76.9096 0.312541 -4.36783 0
M  V30 12958 C 76.9596 -0.914512 -4.92583 0
M  V30 12959 H 79.7006 -3.41169 -7.98575 0
M  V30 12960 H 79.9696 -2.58295 -6.41556 0
M  V30 12961 H 79.1026 -5.02657 -6.42673 0
M  V30 12962 H 76.4476 -4.11637 -4.08885 0
M  V30 12963 H 76.1686 -2.49626 -6.61679 0
M  V30 12964 H 75.1766 -3.86566 -6.00778 0
M  V30 12965 H 77.0106 -4.29943 -7.96918 0
M  V30 12966 H 77.0816 -1.00937 -6.00374 0
M  V30 12967 P 75.1396 -6.144 -6.45285 0
M  V30 12968 O 74.9196 -7.54673 -6.86199 0
M  V30 12969 O 74.3496 -5.12391 -7.179 0
M  V30 12970 O 74.8896 -5.99158 -4.88404 0
M  V30 12971 C 75.8296 -6.60234 -3.96415 0
M  V30 12972 C 75.0996 -7.08259 -2.72856 0
M  V30 12973 O 74.8896 -5.9427 -1.83651 0
M  V30 12974 C 73.6996 -7.64886 -2.9555 0
M  V30 12975 O 73.3096 -8.53963 -1.90717 0
M  V30 12976 C 72.8196 -6.4116 -2.90739 0
M  V30 12977 C 73.5296 -5.55375 -1.86963 0
M  V30 12978 N 73.4796 -4.09448 -2.16152 0
M  V30 12979 H 76.3186 -7.45574 -4.45629 0
M  V30 12980 H 76.5906 -5.85864 -3.679 0
M  V30 12981 H 75.7226 -7.84412 -2.24479 0
M  V30 12982 H 73.0676 -5.73457 -0.888562 0
M  V30 12983 H 72.7876 -5.90877 -3.88583 0
M  V30 12984 H 71.7966 -6.6596 -2.58858 0
M  V30 12985 H 73.6306 -8.16339 -3.92049 0
M  V30 12986 P 71.7596 -8.7635 -1.60911 0
M  V30 12987 O 71.5396 -10.1388 -1.11561 0
M  V30 12988 O 70.9696 -8.36503 -2.79617 0
M  V30 12989 O 71.5096 -7.71806 -0.42951 0
M  V30 12990 C 72.4496 -7.67148 0.673689 0
M  V30 12991 C 71.7196 -7.33374 1.95559 0
M  V30 12992 O 71.5096 -5.88721 2.00726 0
M  V30 12993 C 70.3196 -7.92526 2.10483 0
M  V30 12994 O 69.9296 -8.02971 3.47653 0
M  V30 12995 C 69.4396 -6.89602 1.41652 0
M  V30 12996 C 70.1496 -5.59201 1.75185 0
M  V30 12997 N 70.0996 -4.58301 0.657969 0
M  V30 12998 H 72.9386 -8.65116 0.777161 0
M  V30 12999 H 73.2106 -6.9022 0.46725 0
M  V30 13000 H 72.3426 -7.66548 2.79458 0
M  V30 13001 H 69.6876 -5.16165 2.65183 0
M  V30 13002 H 69.4076 -7.06433 0.329384 0
M  V30 13003 H 68.4166 -6.90926 1.82021 0
M  V30 13004 H 70.2506 -8.90873 1.62657 0
M  V30 13005 P 68.3796 -8.03563 3.84925 0
M  V30 13006 O 68.1596 -8.85821 5.0569 0
M  V30 13007 O 67.5896 -8.41101 2.65469 0
M  V30 13008 O 68.1296 -6.4965 4.18908 0
M  V30 13009 C 69.0696 -5.81037 5.05421 0
M  V30 13010 C 68.3396 -4.78366 5.89277 0
M  V30 13011 O 68.1296 -3.58302 5.08433 0
M  V30 13012 C 66.9396 -5.17448 6.36119 0
M  V30 13013 O 66.5496 -4.45271 7.53232 0
M  V30 13014 C 66.0596 -4.74639 5.19936 0
M  V30 13015 C 66.7696 -3.49432 4.70418 0
M  V30 13016 N 66.7196 -3.32099 3.22613 0
M  V30 13017 H 69.5586 -6.54213 5.71376 0
M  V30 13018 H 69.8306 -5.30936 4.43503 0
M  V30 13019 H 68.9626 -4.55889 6.76652 0
M  V30 13020 H 66.3076 -2.61715 5.17932 0
M  V30 13021 H 66.0276 -5.52155 4.41878 0
M  V30 13022 H 65.0366 -4.51981 5.53374 0
M  V30 13023 H 66.8706 -6.25124 6.55234 0
M  V30 13024 P 64.9996 -4.23843 7.83734 0
M  V30 13025 O 64.7796 -4.19407 9.29784 0
M  V30 13026 O 64.2096 -5.24426 7.09156 0
M  V30 13027 O 64.7496 -2.7935 7.20758 0
M  V30 13028 C 65.6896 -1.7299 7.50419 0
M  V30 13029 C 64.9596 -0.406376 7.57911 0
M  V30 13030 O 64.7496 0.0897726 6.21935 0
M  V30 13031 C 63.5596 -0.447224 8.1878 0
M  V30 13032 O 63.1696 0.825065 8.71101 0
M  V30 13033 C 62.6796 -0.783801 6.99623 0
M  V30 13034 C 63.3896 -0.0619192 5.85967 0
M  V30 13035 N 63.3396 -0.7859 4.56281 0
M  V30 13036 H 66.1786 -1.93423 8.4679 0
M  V30 13037 H 66.4506 -1.68181 6.71046 0
M  V30 13038 H 65.5826 0.289041 8.15388 0
M  V30 13039 P 61.6197 1.17771 8.83182 0
M  V30 13040 O 61.3997 2.07206 9.98732 0
M  V30 13041 O 60.8297 -0.0743816 8.81969 0
M  V30 13042 O 61.3697 1.97652 7.47304 0
M  V30 13043 C 62.3097 3.01133 7.08783 0
M  V30 13044 C 61.5797 4.12613 6.37049 0
M  V30 13045 O 61.3697 3.72827 4.97879 0
M  V30 13046 C 60.1797 4.45085 6.88694 0
M  V30 13047 O 59.7897 5.7877 6.5624 0
M  V30 13048 C 59.2997 3.47817 6.12078 0
M  V30 13049 C 60.0097 3.39414 4.77697 0
M  V30 13050 N 59.9597 2.04199 4.15538 0
M  V30 13051 H 62.7987 3.41248 7.98759 0
M  V30 13052 H 63.0707 2.57728 6.42 0
M  V30 13053 H 62.2027 5.02657 6.42673 0
M  V30 13054 H 59.5477 4.11708 4.08956 0
M  V30 13055 H 59.2677 2.49626 6.61679 0
M  V30 13056 H 58.2767 3.8662 6.00862 0
M  V30 13057 H 60.1107 4.29991 7.97006 0
M  V30 13058 P 58.2397 6.144 6.45285 0
M  V30 13059 O 58.0197 7.54673 6.86199 0
M  V30 13060 O 57.4497 5.12391 7.179 0
M  V30 13061 O 57.9897 5.99158 4.88404 0
M  V30 13062 C 58.9297 6.60234 3.96415 0
M  V30 13063 C 58.1997 7.08259 2.72856 0
M  V30 13064 O 57.9897 5.9427 1.83651 0
M  V30 13065 C 56.7997 7.64886 2.9555 0
M  V30 13066 O 56.4097 8.53963 1.90717 0
M  V30 13067 C 55.9197 6.4116 2.90739 0
M  V30 13068 C 56.6297 5.55375 1.86963 0
M  V30 13069 N 56.5797 4.09664 2.15742 0
M  V30 13070 H 59.4187 7.45574 4.45629 0
M  V30 13071 H 59.6907 5.86232 3.67314 0
M  V30 13072 H 58.8227 7.84412 2.24479 0
M  V30 13073 P 54.8597 8.7635 1.60911 0
M  V30 13074 O 54.6397 10.1388 1.11561 0
M  V30 13075 O 54.0697 8.36503 2.79617 0
M  V30 13076 O 54.6097 7.71806 0.42951 0
M  V30 13077 C 55.5497 7.67148 -0.673689 0
M  V30 13078 C 54.8197 7.33374 -1.95559 0
M  V30 13079 O 54.6097 5.88721 -2.00726 0
M  V30 13080 C 53.4197 7.92526 -2.10483 0
M  V30 13081 O 53.0297 8.02971 -3.47653 0
M  V30 13082 C 52.5397 6.89602 -1.41652 0
M  V30 13083 C 53.2497 5.59201 -1.75185 0
M  V30 13084 N 53.1997 4.58235 -0.662552 0
M  V30 13085 H 56.0387 8.65116 -0.777161 0
M  V30 13086 H 56.3107 6.90173 -0.474152 0
M  V30 13087 H 55.4427 7.66548 -2.79458 0
M  V30 13088 P 51.4797 8.03563 -3.84925 0
M  V30 13089 O 51.2597 8.85821 -5.0569 0
M  V30 13090 O 50.6897 8.41101 -2.65469 0
M  V30 13091 O 51.2297 6.4965 -4.18908 0
M  V30 13092 C 52.1697 5.81037 -5.05421 0
M  V30 13093 C 51.4397 4.78366 -5.89277 0
M  V30 13094 O 51.2297 3.58302 -5.08433 0
M  V30 13095 C 50.0397 5.17448 -6.36119 0
M  V30 13096 O 49.6497 4.45271 -7.53232 0
M  V30 13097 C 49.1597 4.74639 -5.19936 0
M  V30 13098 C 49.8697 3.49432 -4.70418 0
M  V30 13099 N 49.8197 3.31776 -3.22945 0
M  V30 13100 H 52.6587 6.54213 -5.71376 0
M  V30 13101 H 52.9307 5.30492 -4.44033 0
M  V30 13102 H 52.0627 4.55889 -6.76652 0
M  V30 13103 P 48.0997 4.23843 -7.83734 0
M  V30 13104 O 47.8797 4.19407 -9.29784 0
M  V30 13105 O 47.3097 5.24426 -7.09156 0
M  V30 13106 O 47.8497 2.7935 -7.20758 0
M  V30 13107 C 48.7897 1.7299 -7.50419 0
M  V30 13108 C 48.0597 0.406376 -7.57911 0
M  V30 13109 O 47.8497 -0.0897726 -6.21935 0
M  V30 13110 C 46.6597 0.447224 -8.1878 0
M  V30 13111 O 46.2697 -0.825065 -8.71101 0
M  V30 13112 C 45.7797 0.783801 -6.99623 0
M  V30 13113 C 46.4897 0.0619192 -5.85967 0
M  V30 13114 N 46.4397 0.7859 -4.56281 0
M  V30 13115 H 49.2787 1.93423 -8.4679 0
M  V30 13116 H 49.5507 1.68181 -6.71046 0
M  V30 13117 H 48.6827 -0.289041 -8.15388 0
M  V30 13118 P 44.7198 -1.17771 -8.83182 0
M  V30 13119 O 44.4998 -2.07206 -9.98732 0
M  V30 13120 O 43.9298 0.0743816 -8.81969 0
M  V30 13121 O 44.4698 -1.97652 -7.47304 0
M  V30 13122 C 45.4098 -3.01133 -7.08783 0
M  V30 13123 C 44.6798 -4.12613 -6.37049 0
M  V30 13124 O 44.4698 -3.72827 -4.97879 0
M  V30 13125 C 43.2798 -4.45085 -6.88694 0
M  V30 13126 O 42.8898 -5.7877 -6.5624 0
M  V30 13127 C 42.3998 -3.47817 -6.12078 0
M  V30 13128 C 43.1098 -3.39414 -4.77697 0
M  V30 13129 N 43.0598 -2.04615 -4.15333 0
M  V30 13130 H 45.8988 -3.41248 -7.98759 0
M  V30 13131 H 46.1708 -2.5837 -6.41742 0
M  V30 13132 H 45.3028 -5.02657 -6.42673 0
M  V30 13133 P 41.3398 -6.144 -6.45285 0
M  V30 13134 O 41.1198 -7.54673 -6.86199 0
M  V30 13135 O 40.5498 -5.12391 -7.179 0
M  V30 13136 O 41.0898 -5.99158 -4.88404 0
M  V30 13137 C 42.0298 -6.60234 -3.96415 0
M  V30 13138 C 41.2998 -7.08259 -2.72856 0
M  V30 13139 O 41.0898 -5.9427 -1.83651 0
M  V30 13140 C 39.8998 -7.64886 -2.9555 0
M  V30 13141 O 39.5098 -8.53963 -1.90717 0
M  V30 13142 C 39.0198 -6.4116 -2.90739 0
M  V30 13143 C 39.7298 -5.55375 -1.86963 0
M  V30 13144 N 39.6798 -4.09664 -2.15742 0
M  V30 13145 H 42.5188 -7.45574 -4.45629 0
M  V30 13146 H 42.7908 -5.86232 -3.67314 0
M  V30 13147 H 41.9228 -7.84412 -2.24479 0
M  V30 13148 P 37.9598 -8.7635 -1.60911 0
M  V30 13149 O 37.7398 -10.1388 -1.11561 0
M  V30 13150 O 37.1698 -8.36503 -2.79617 0
M  V30 13151 O 37.7098 -7.71806 -0.42951 0
M  V30 13152 C 38.6498 -7.67148 0.673689 0
M  V30 13153 C 37.9198 -7.33374 1.95559 0
M  V30 13154 O 37.7098 -5.88721 2.00726 0
M  V30 13155 C 36.5198 -7.92526 2.10483 0
M  V30 13156 O 36.1298 -8.02971 3.47653 0
M  V30 13157 C 35.6398 -6.89602 1.41652 0
M  V30 13158 C 36.3498 -5.59201 1.75185 0
M  V30 13159 N 36.2998 -4.58235 0.662552 0
M  V30 13160 H 39.1388 -8.65116 0.777161 0
M  V30 13161 H 39.4108 -6.90173 0.474152 0
M  V30 13162 H 38.5428 -7.66548 2.79458 0
M  V30 13163 P 34.5798 -8.03563 3.84925 0
M  V30 13164 O 34.3598 -8.85821 5.0569 0
M  V30 13165 O 33.7898 -8.41101 2.65469 0
M  V30 13166 O 34.3298 -6.4965 4.18908 0
M  V30 13167 C 35.2698 -5.81037 5.05421 0
M  V30 13168 C 34.5398 -4.78366 5.89277 0
M  V30 13169 O 34.3298 -3.58302 5.08433 0
M  V30 13170 C 33.1398 -5.17448 6.36119 0
M  V30 13171 O 32.7498 -4.45271 7.53232 0
M  V30 13172 C 32.2598 -4.74639 5.19936 0
M  V30 13173 C 32.9698 -3.49432 4.70418 0
M  V30 13174 N 32.9198 -3.31776 3.22945 0
M  V30 13175 H 35.7588 -6.54213 5.71376 0
M  V30 13176 H 36.0308 -5.30492 4.44033 0
M  V30 13177 H 35.1628 -4.55889 6.76652 0
M  V30 13178 P 31.1998 -4.23843 7.83734 0
M  V30 13179 O 30.9798 -4.19407 9.29784 0
M  V30 13180 O 30.4098 -5.24426 7.09156 0
M  V30 13181 O 30.9498 -2.7935 7.20758 0
M  V30 13182 C 31.8898 -1.7299 7.50419 0
M  V30 13183 C 31.1598 -0.406376 7.57911 0
M  V30 13184 O 30.9498 0.0897726 6.21935 0
M  V30 13185 C 29.7598 -0.447224 8.1878 0
M  V30 13186 O 29.3698 0.825065 8.71101 0
M  V30 13187 C 28.8798 -0.783801 6.99623 0
M  V30 13188 C 29.5898 -0.0619192 5.85967 0
M  V30 13189 N 29.5398 -0.7859 4.56281 0
M  V30 13190 H 32.3788 -1.93423 8.4679 0
M  V30 13191 H 32.6508 -1.68181 6.71046 0
M  V30 13192 H 31.7828 0.289041 8.15388 0
M  V30 13193 P 27.8199 1.17771 8.83182 0
M  V30 13194 O 27.5999 2.07206 9.98732 0
M  V30 13195 O 27.0299 -0.0743816 8.81969 0
M  V30 13196 O 27.5699 1.97652 7.47304 0
M  V30 13197 C 28.5099 3.01133 7.08783 0
M  V30 13198 C 27.7799 4.12613 6.37049 0
M  V30 13199 O 27.5699 3.72827 4.97879 0
M  V30 13200 C 26.3799 4.45085 6.88694 0
M  V30 13201 O 25.9899 5.7877 6.5624 0
M  V30 13202 C 25.4999 3.47817 6.12078 0
M  V30 13203 C 26.2099 3.39414 4.77697 0
M  V30 13204 N 26.1599 2.04615 4.15333 0
M  V30 13205 H 28.9989 3.41248 7.98759 0
M  V30 13206 H 29.2709 2.5837 6.41742 0
M  V30 13207 H 28.4029 5.02657 6.42673 0
M  V30 13208 P 24.4399 6.144 6.45285 0
M  V30 13209 O 24.2199 7.54673 6.86199 0
M  V30 13210 O 23.6499 5.12391 7.179 0
M  V30 13211 O 24.1899 5.99158 4.88404 0
M  V30 13212 C 25.1299 6.60234 3.96415 0
M  V30 13213 C 24.3999 7.08259 2.72856 0
M  V30 13214 O 24.1899 5.9427 1.83651 0
M  V30 13215 C 22.9999 7.64886 2.9555 0
M  V30 13216 O 22.6099 8.53963 1.90717 0
M  V30 13217 C 22.1199 6.4116 2.90739 0
M  V30 13218 C 22.8299 5.55375 1.86963 0
M  V30 13219 N 22.7799 4.09664 2.15742 0
M  V30 13220 H 25.6189 7.45574 4.45629 0
M  V30 13221 H 25.8909 5.86232 3.67314 0
M  V30 13222 H 25.0229 7.84412 2.24479 0
M  V30 13223 P 21.0599 8.7635 1.60911 0
M  V30 13224 O 20.8399 10.1388 1.11561 0
M  V30 13225 O 20.2699 8.36503 2.79617 0
M  V30 13226 O 20.8099 7.71806 0.42951 0
M  V30 13227 C 21.7499 7.66948 -0.673514 0
M  V30 13228 C 21.0199 7.33374 -1.95559 0
M  V30 13229 O 20.8099 5.88721 -2.00726 0
M  V30 13230 C 19.6199 7.92218 -2.1125 0
M  V30 13231 O 19.2299 8.02971 -3.47653 0
M  V30 13232 C 18.7399 6.89504 -1.41631 0
M  V30 13233 C 19.4499 5.59106 -1.75155 0
M  V30 13234 N 19.3999 4.58136 -0.662409 0
M  V30 13235 C 19.2499 3.26059 -1.02863 0
M  V30 13236 O 19.1599 2.90743 -2.19009 0
M  V30 13237 N 19.2099 2.35995 0.0155585 0
M  V30 13238 C 19.2999 2.65248 1.35603 0
M  V30 13239 O 19.2499 1.75605 2.20651 0
M  V30 13240 C 19.4499 4.05747 1.64698 0
M  V30 13241 C 19.5599 4.42345 3.09553 0
M  V30 13242 C 19.4999 4.96734 0.652411 0
M  V30 13243 H 22.2409 8.64917 -0.776982 0
M  V30 13244 H 22.5099 6.89974 -0.474015 0
M  V30 13245 H 21.6429 7.66548 -2.79458 0
M  V30 13246 H 18.9879 5.16076 -2.65138 0
M  V30 13247 H 18.7089 7.06433 -0.329384 0
M  V30 13248 H 17.7169 6.90829 -1.81996 0
M  V30 13249 H 19.5509 8.90774 -1.62639 0
M  V30 13250 H 19.6219 6.02181 0.895285 0
M  V30 13251 H 18.5919 4.80252 3.45468 0
M  V30 13252 H 20.3289 5.20015 3.22119 0
M  V30 13253 H 19.8409 3.53269 3.67833 0
M  V30 13254 H 19.1049 1.39558 -0.227499 0
M  V30 13255 P 17.6799 8.03563 -3.84925 0
M  V30 13256 O 17.4599 8.85821 -5.0569 0
M  V30 13257 O 16.8899 8.41101 -2.65469 0
M  V30 13258 O 17.4299 6.4965 -4.18908 0
M  V30 13259 C 18.3699 5.81037 -5.05421 0
M  V30 13260 C 17.6399 4.78366 -5.89277 0
M  V30 13261 O 17.4299 3.58302 -5.08433 0
M  V30 13262 C 16.2399 5.17448 -6.36119 0
M  V30 13263 O 15.8499 4.45271 -7.53232 0
M  V30 13264 C 15.3599 4.74639 -5.19936 0
M  V30 13265 C 16.0699 3.49432 -4.70418 0
M  V30 13266 N 16.0199 3.31776 -3.22945 0
M  V30 13267 H 18.8589 6.54213 -5.71376 0
M  V30 13268 H 19.1309 5.30492 -4.44033 0
M  V30 13269 H 18.2629 4.55889 -6.76652 0
M  V30 13270 P 14.2999 4.23843 -7.83734 0
M  V30 13271 O 14.0799 4.19407 -9.29784 0
M  V30 13272 O 13.5099 5.24426 -7.09156 0
M  V30 13273 O 14.0499 2.7935 -7.20758 0
M  V30 13274 C 14.9899 1.7299 -7.50419 0
M  V30 13275 C 14.2599 0.406376 -7.57911 0
M  V30 13276 O 14.0499 -0.0897726 -6.21935 0
M  V30 13277 C 12.8599 0.447224 -8.1878 0
M  V30 13278 O 12.4699 -0.825065 -8.71101 0
M  V30 13279 C 11.9799 0.783801 -6.99623 0
M  V30 13280 C 12.6899 0.0619192 -5.85967 0
M  V30 13281 N 12.6399 0.7859 -4.56281 0
M  V30 13282 H 15.4789 1.93423 -8.4679 0
M  V30 13283 H 15.7509 1.68181 -6.71046 0
M  V30 13284 H 14.8829 -0.289041 -8.15388 0
M  V30 13285 P 10.92 -1.17771 -8.83182 0
M  V30 13286 O 10.7 -2.07206 -9.98732 0
M  V30 13287 O 10.13 0.0743816 -8.81969 0
M  V30 13288 O 10.67 -1.97652 -7.47304 0
M  V30 13289 C 11.61 -3.01133 -7.08783 0
M  V30 13290 C 10.88 -4.12613 -6.37049 0
M  V30 13291 O 10.67 -3.72827 -4.97879 0
M  V30 13292 C 9.47996 -4.45085 -6.88694 0
M  V30 13293 O 9.08996 -5.7877 -6.5624 0
M  V30 13294 C 8.59996 -3.47817 -6.12078 0
M  V30 13295 C 9.30996 -3.39414 -4.77697 0
M  V30 13296 N 9.25996 -2.04615 -4.15333 0
M  V30 13297 H 12.099 -3.41248 -7.98759 0
M  V30 13298 H 12.371 -2.5837 -6.41742 0
M  V30 13299 H 11.503 -5.02657 -6.42673 0
M  V30 13300 P 7.53998 -6.144 -6.45285 0
M  V30 13301 O 7.31998 -7.54673 -6.86199 0
M  V30 13302 O 6.74998 -5.12391 -7.179 0
M  V30 13303 O 7.28998 -5.99236 -4.88467 0
M  V30 13304 C 8.22998 -6.60234 -3.96415 0
M  V30 13305 C 7.49998 -7.08079 -2.736 0
M  V30 13306 O 7.28998 -5.94365 -1.8368 0
M  V30 13307 C 6.09998 -7.64886 -2.9555 0
M  V30 13308 O 5.70998 -8.5406 -1.90739 0
M  V30 13309 C 5.21998 -6.4116 -2.90739 0
M  V30 13310 C 5.92998 -5.55375 -1.86963 0
M  V30 13311 N 5.87998 -4.09664 -2.15742 0
M  V30 13312 C 5.72998 -3.22231 -1.08477 0
M  V30 13313 O 5.63998 -3.68951 0.0600489 0
M  V30 13314 N 5.67998 -1.76692 -1.48799 0
M  V30 13315 C 5.77998 -1.41695 -2.57602 0
M  V30 13316 N 5.72998 -0.107296 -2.75791 0
M  V30 13317 C 5.92998 -2.29178 -3.69733 0
M  V30 13318 C 5.97998 -3.62753 -3.42653 0
M  V30 13319 H 8.71998 -7.45488 -4.45578 0
M  V30 13320 H 8.98998 -5.86232 -3.67314 0
M  V30 13321 H 8.12298 -7.84508 -2.24507 0
M  V30 13322 H 5.46798 -5.73556 -0.888715 0
M  V30 13323 H 5.18798 -5.9096 -3.88638 0
M  V30 13324 H 4.19698 -6.66053 -2.58894 0
M  V30 13325 H 6.03098 -8.16339 -3.92049 0
M  V30 13326 H 6.10298 -4.33052 -4.24913 0
M  V30 13327 H 6.00098 -1.9103 -4.71577 0
M  V30 13328 H 5.61298 0.521221 -1.95056 0
M  V30 13329 H 5.80898 0.286429 -3.70695 0
M  V30 13330 P 4.16 -8.7635 -1.60911 0
M  V30 13331 O 3.94 -10.1388 -1.11561 0
M  V30 13332 O 3.37 -8.36503 -2.79617 0
M  V30 13333 O 3.91 -7.71806 -0.42951 0
M  V30 13334 C 4.85 -7.67148 0.673689 0
M  V30 13335 C 4.12 -7.33374 1.95559 0
M  V30 13336 O 3.91 -5.88721 2.00726 0
M  V30 13337 C 2.72 -7.92526 2.10483 0
M  V30 13338 O 2.33 -8.02971 3.47653 0
M  V30 13339 C 1.84 -6.89602 1.41652 0
M  V30 13340 C 2.55 -5.59201 1.75185 0
M  V30 13341 N 2.5 -4.58235 0.662552 0
M  V30 13342 H 5.339 -8.65116 0.777161 0
M  V30 13343 H 5.611 -6.90173 0.474152 0
M  V30 13344 H 4.743 -7.66548 2.79458 0
M  V30 13345 H 1.613 -8.66322 3.55694 0
M  V30 END ATOM
M  V30 BEGIN BOND
M  V30 END BOND
M  V30 END CTAB
M  END
$$$$
