drugbank_target|Q969S2 Endonuclease 8-like 2 (DB01592; DB09130; DB14488; DB14489; DB14490; DB14491; DB14501)
 OpenBabel12092121033D

  0  0  0     0  0            999 V3000
M  V30 BEGIN CTAB
M  V30 COUNTS 5119 5191 0 0 0
M  V30 BEGIN ATOM
M  V30 1 H -0.908 1.98254 -0.117106 0
M  V30 2 N 0 1.576 0 0
M  V30 3 C 0.933 2.03868 1.02534 0
M  V30 4 C 1.911 0.928543 1.3348 0
M  V30 5 O 3.095 1.19667 1.45644 0
M  V30 6 C 0.222 2.43627 2.35294 0
M  V30 7 C -0.732 3.65373 2.2001 0
M  V30 8 S 0.101 5.13292 1.52614 0
M  V30 9 C 1.257 5.56322 2.86805 0
M  V30 10 H 1.49 2.90518 0.631377 0
M  V30 11 H -0.977 1.52953 0.210867 0
M  V30 12 H 0.981 2.67203 3.11629 0
M  V30 13 H -0.358 1.57376 2.7183 0
M  V30 14 H -1.165 3.90944 3.18086 0
M  V30 15 H -1.563 3.418 1.51819 0
M  V30 16 H 0.729 5.58782 3.83104 0
M  V30 17 H 1.672 6.56266 2.65933 0
M  V30 18 H 2.08 4.83886 2.90714 0
M  V30 19 N 1.4781 -0.272755 1.55222 0
M  V30 20 C 2.8891 -0.84378 1.66545 0
M  V30 21 C 3.2401 -1.87035 0.592641 0
M  V30 22 O 2.3651 -2.14761 -0.265818 0
M  V30 23 C 2.9601 -1.53723 3.01918 0
M  V30 24 C 1.5191 -2.05628 3.15268 0
M  V30 25 C 0.6661 -0.898424 2.62343 0
M  V30 26 H 3.6171 -0.0490998 1.58624 0
M  V30 27 H 3.6381 -2.40421 2.94921 0
M  V30 28 H 3.1501 -0.78983 3.79978 0
M  V30 29 H 1.2511 -2.83329 2.41983 0
M  V30 30 H 1.3641 -2.27142 4.21833 0
M  V30 31 H -0.2719 -1.29186 2.19506 0
M  V30 32 H 0.5111 -0.164528 3.42906 0
M  V30 33 N 2.9562 -1.48159 -0.537278 0
M  V30 34 C 3.8662 -1.64807 -1.6696 0
M  V30 35 C 4.8822 -0.530651 -1.65711 0
M  V30 36 O 6.0582 -0.800784 -1.84796 0
M  V30 37 C 3.1232 -1.67708 -3.03438 0
M  V30 38 C 2.1842 -2.91025 -3.156 0
M  V30 39 C 1.4172 -2.93778 -4.45567 0
M  V30 40 O 1.6402 -2.05153 -5.3223 0
M  V30 41 O 0.5742 -3.85868 -4.61941 0
M  V30 42 H 4.4002 -2.6066 -1.55853 0
M  V30 43 H 1.9852 -1.31475 -0.709549 0
M  V30 44 H 3.8672 -1.7218 -3.84619 0
M  V30 45 H 2.5422 -0.750278 -3.14885 0
M  V30 46 H 1.4492 -2.92089 -2.33741 0
M  V30 47 H 2.7822 -3.83065 -3.09066 0
M  V30 48 N 4.4343 0.785586 -1.36625 0
M  V30 49 C 5.6823 1.54057 -1.30808 0
M  V30 50 C 6.0033 1.94683 0.111157 0
M  V30 51 O 5.2733 1.65241 1.05224 0
M  V30 52 H 3.8533 0.571354 -0.481211 0
M  V30 53 H 6.5153 0.935821 -1.70963 0
M  V30 54 H 5.6113 2.44637 -1.93801 0
M  V30 55 N 5.9124 1.20967 1.01018 0
M  V30 56 C 7.3234 1.02319 1.56165 0
M  V30 57 C 7.6744 -0.418546 1.91684 0
M  V30 58 O 6.7994 -1.30096 1.72928 0
M  V30 59 C 7.3944 1.85109 2.8376 0
M  V30 60 C 5.9534 1.70809 3.35412 0
M  V30 61 C 5.1004 1.82643 2.08655 0
M  V30 62 H 8.0514 1.35065 0.833255 0
M  V30 63 H 8.0724 1.35827 3.55431 0
M  V30 64 H 7.5844 2.90035 2.57878 0
M  V30 65 H 5.6854 0.685464 3.66241 0
M  V30 66 H 5.7984 2.52467 4.07182 0
M  V30 67 H 4.1624 1.25896 2.21409 0
M  V30 68 H 4.9454 2.89066 1.85191 0
M  V30 69 N 7.3905 -1.2043 1.01659 0
M  V30 70 C 8.3205 -2.25466 0.607226 0
M  V30 71 C 9.3015 -1.65853 -0.377716 0
M  V30 72 O 10.4865 -1.92409 -0.263149 0
M  V30 73 C 7.6165 -3.47256 -0.0552949 0
M  V30 74 C 6.5705 -4.19462 0.850632 0
M  V30 75 C 5.8965 -5.34673 0.0538859 0
M  V30 76 C 7.1965 -4.75603 2.15868 0
M  V30 77 H 8.8905 -2.59962 1.48526 0
M  V30 78 H 6.4365 -1.2496 0.715605 0
M  V30 79 H 8.3895 -4.19917 -0.353233 0
M  V30 80 H 7.1135 -3.11924 -0.968045 0
M  V30 81 H 5.7725 -3.48667 1.13257 0
M  V30 82 H 5.4205 -4.95585 -0.860514 0
M  V30 83 H 5.1205 -5.83913 0.657192 0
M  V30 84 H 6.6445 -6.10138 -0.237598 0
M  V30 85 H 8.0585 -5.40083 1.92311 0
M  V30 86 H 6.4555 -5.3528 2.71284 0
M  V30 87 H 7.5255 -3.94346 2.82169 0
M  V30 88 N 8.8686 -0.792821 -1.36206 0
M  V30 89 C 10.1146 -0.36733 -1.99446 0
M  V30 90 C 10.4476 1.05917 -1.62774 0
M  V30 91 O 9.7226 1.7324 -0.88421 0
M  V30 92 C 10.0056 -0.535044 -3.56103 0
M  V30 93 C 9.8586 -2.00548 -4.02617 0
M  V30 94 C 11.1776 0.0478191 -4.40074 0
M  V30 95 H 8.2966 -0.134941 -0.724541 0
M  V30 96 H 10.9386 -0.999794 -1.61568 0
M  V30 97 H 9.0886 0.00336329 -3.885 0
M  V30 98 H 10.7606 -2.60521 -3.80692 0
M  V30 99 H 9.0036 -2.50686 -3.54032 0
M  V30 100 H 9.6746 -2.07377 -5.11565 0
M  V30 101 H 12.1506 -0.411822 -4.14057 0
M  V30 102 H 11.0266 -0.0995336 -5.4881 0
M  V30 103 H 11.2876 1.14025 -4.27142 0
M  V30 104 N 10.3467 1.47872 -0.545128 0
M  V30 105 C 11.7627 1.5829 -0.204032 0
M  V30 106 C 11.9627 1.54529 1.29317 0
M  V30 107 O 11.0187 1.44232 2.07252 0
M  V30 108 C 12.3317 2.89304 -0.819987 0
M  V30 109 C 13.8797 3.02864 -0.790105 0
M  V30 110 C 14.3547 4.3656 -1.38491 0
M  V30 111 N 15.8457 4.43165 -1.34755 0
M  V30 112 C 16.5807 5.45153 -1.77753 0
M  V30 113 N 16.0767 6.54016 -2.2855 0
M  V30 114 N 17.8697 5.36125 -1.68897 0
M  V30 115 H 10.0207 1.4856 -1.51802 0
M  V30 116 H 12.2837 0.706305 -0.632327 0
M  V30 117 H 11.9897 2.97757 -1.87173 0
M  V30 118 H 11.8637 3.75957 -0.305915 0
M  V30 119 H 14.2507 2.94014 0.252913 0
M  V30 120 H 14.3317 2.17782 -1.34181 0
M  V30 121 H 13.9757 4.46164 -2.42693 0
M  V30 122 H 13.9057 5.20353 -0.808754 0
M  V30 123 H 16.3967 3.65083 -0.975855 0
M  V30 124 H 16.7097 7.27994 -2.59314 0
M  V30 125 H 15.0547 6.54938 -2.32553 0
M  V30 126 H 18.2457 4.49975 -1.28998 0
M  V30 127 H 18.4187 6.15472 -2.02726 0
M  V30 128 N 11.8248 0.280983 1.55075 0
M  V30 129 C 12.7718 -0.603937 2.22758 0
M  V30 130 C 13.7418 -1.1452 1.20309 0
M  V30 131 O 14.9268 -1.19343 1.48869 0
M  V30 132 C 12.0668 -1.77947 2.95684 0
M  V30 133 C 11.1798 -1.2715 4.12864 0
M  V30 134 C 10.3148 -2.4093 4.7342 0
M  V30 135 C 9.3538 -1.87165 5.82783 0
M  V30 136 N 8.4908 -2.94441 6.37377 0
M  V30 137 H 13.3308 -0.020124 2.97993 0
M  V30 138 H 10.8678 0.00183425 1.471 0
M  V30 139 H 12.8258 -2.47055 3.36184 0
M  V30 140 H 11.4558 -2.33522 2.22861 0
M  V30 141 H 10.5078 -0.473331 3.77444 0
M  V30 142 H 11.8198 -0.837751 4.91715 0
M  V30 143 H 10.9738 -3.18021 5.1667 0
M  V30 144 H 9.7128 -2.87623 3.93859 0
M  V30 145 H 8.7178 -1.08556 5.38976 0
M  V30 146 H 9.9428 -1.41401 6.64216 0
M  V30 147 H 7.8888 -3.40505 5.60707 0
M  V30 148 H 7.8058 -2.55501 7.11516 0
M  V30 149 H 9.0738 -3.71489 6.85285 0
M  V30 150 N 13.3029 -1.57598 0.00835791 0
M  V30 151 C 14.5499 -1.90928 -0.674732 0
M  V30 152 C 14.8779 -0.88277 -1.73313 0
M  V30 153 O 14.1329 0.111294 -1.95383 0
M  V30 154 C 14.4319 -3.3101 -1.34787 0
M  V30 155 C 14.0979 -4.48922 -0.421861 0
M  V30 156 C 12.7599 -4.8091 -0.166927 0
M  V30 157 C 15.1119 -5.20755 0.215211 0
M  V30 158 C 12.4399 -5.821 0.733232 0
M  V30 159 C 14.7919 -6.22905 1.1033 0
M  V30 160 C 13.4559 -6.53346 1.36733 0
M  V30 161 H 12.7259 -0.698656 -0.246902 0
M  V30 162 H 15.3729 -1.91387 0.0656779 0
M  V30 163 H 13.6779 -3.26714 -2.16253 0
M  V30 164 H 15.3749 -3.54061 -1.8826 0
M  V30 165 H 11.9649 -4.23934 -0.630729 0
M  V30 166 H 16.1489 -4.9629 0.0312829 0
M  V30 167 H 11.4049 -6.04042 0.945712 0
M  V30 168 H 15.5789 -6.77694 1.60325 0
M  V30 169 H 13.2059 -7.31573 2.06652 0
M  V30 170 N 14.781 0.264519 -1.55364 0
M  V30 171 C 15.731 1.32966 -1.85214 0
M  V30 172 C 16.715 1.44306 -0.711653 0
M  V30 173 O 17.907 1.47844 -0.973192 0
M  V30 174 C 15.036 2.68839 -2.13495 0
M  V30 175 C 14.122 2.61575 -3.33825 0
M  V30 176 N 14.513 2.23933 -4.53528 0
M  V30 177 C 12.811 2.92621 -3.36584 0
M  V30 178 C 13.512 2.26868 -5.35636 0
M  V30 179 N 12.488 2.65677 -4.74254 0
M  V30 180 H 16.29 1.02884 -2.75304 0
M  V30 181 H 13.804 0.473157 -1.55354 0
M  V30 182 H 15.801 3.45685 -2.33039 0
M  V30 183 H 14.461 2.99802 -1.24694 0
M  V30 184 H 15.472 1.95769 -4.79474 0
M  V30 185 H 12.149 3.2824 -2.58002 0
M  V30 186 H 13.539 2.00254 -6.41364 0
M  V30 187 N 16.2591 1.48442 0.529413 0
M  V30 188 C 17.2091 1.59407 1.63014 0
M  V30 189 C 18.1931 0.451166 1.54445 0
M  V30 190 O 19.3851 0.702635 1.62456 0
M  V30 191 C 16.5141 1.63746 3.01732 0
M  V30 192 C 15.6001 2.83518 3.15402 0
M  V30 193 N 15.9911 4.07929 2.99045 0
M  V30 194 C 14.2891 2.80862 3.46457 0
M  V30 195 C 14.9901 4.8829 3.16146 0
M  V30 196 N 13.9661 4.21117 3.43746 0
M  V30 197 H 17.7681 2.53343 1.48978 0
M  V30 198 H 15.2821 1.44821 0.734885 0
M  V30 199 H 17.2791 1.69695 3.80801 0
M  V30 200 H 15.9391 0.709264 3.16859 0
M  V30 201 H 16.9501 4.38357 2.75796 0
M  V30 202 H 13.6271 1.97301 3.67938 0
M  V30 203 H 15.0171 5.97028 3.08232 0
M  V30 204 N 17.7372 -0.778329 1.37039 0
M  V30 205 C 18.6672 -1.90546 1.34962 0
M  V30 206 C 19.6482 -1.68681 0.219274 0
M  V30 207 O 20.8332 -1.89634 0.418624 0
M  V30 208 C 17.9632 -3.27734 1.14925 0
M  V30 209 C 16.9172 -3.64147 2.24902 0
M  V30 210 C 16.2432 -4.99806 1.89996 0
M  V30 211 C 17.5432 -3.71579 3.67051 0
M  V30 212 H 19.2372 -1.92541 2.29277 0
M  V30 213 H 16.7832 -0.924948 1.10366 0
M  V30 214 H 18.7362 -4.06215 1.12104 0
M  V30 215 H 17.4602 -3.26154 0.170631 0
M  V30 216 H 16.1192 -2.8797 2.26868 0
M  V30 217 H 15.7672 -4.94759 0.906796 0
M  V30 218 H 15.4672 -5.25139 2.63634 0
M  V30 219 H 16.9912 -5.80694 1.88749 0
M  V30 220 H 18.4052 -4.40227 3.67251 0
M  V30 221 H 16.8022 -4.08405 4.39688 0
M  V30 222 H 17.8722 -2.72404 4.01154 0
M  V30 223 N 19.2153 -1.21501 -1.00376 0
M  V30 224 C 20.4613 -1.03452 -1.74429 0
M  V30 225 C 20.7943 0.430764 -1.89362 0
M  V30 226 O 20.0693 1.31962 -1.42886 0
M  V30 227 C 20.3523 -1.73375 -3.15615 0
M  V30 228 C 20.2053 -3.27431 -3.08397 0
M  V30 229 C 21.5243 -1.47732 -4.14564 0
M  V30 230 H 18.6433 -0.377226 -0.633143 0
M  V30 231 H 21.2853 -1.49693 -1.17013 0
M  V30 232 H 19.4353 -1.34064 -3.64636 0
M  V30 233 H 21.1073 -3.76119 -2.67081 0
M  V30 234 H 19.3503 -3.5767 -2.45468 0
M  V30 235 H 20.0213 -3.71524 -4.08258 0
M  V30 236 H 22.4973 -1.8186 -3.74254 0
M  V30 237 H 21.3733 -1.99169 -5.11491 0
M  V30 238 H 21.6343 -0.407589 -4.40217 0
M  V30 239 N 20.6934 1.19889 -1.02296 0
M  V30 240 C 21.9184 1.9393 -0.735237 0
M  V30 241 C 22.3434 1.74639 0.698782 0
M  V30 242 O 21.7014 1.04481 1.48167 0
M  V30 243 C 21.7494 3.43916 -1.08417 0
M  V30 244 O 20.8534 4.11917 -0.199446 0
M  V30 245 H 20.1944 0.605645 -0.272196 0
M  V30 246 H 22.7244 1.52137 -1.36804 0
M  V30 247 H 22.7344 3.9456 -1.03856 0
M  V30 248 H 21.4094 3.5728 -2.12894 0
M  V30 249 H 19.9864 3.71666 -0.303136 0
M  V30 250 N 22.1715 0.800033 1.35784 0
M  V30 251 C 23.5825 0.439142 1.81462 0
M  V30 252 C 23.9335 -1.03813 1.66485 0
M  V30 253 O 23.0585 -1.80626 1.19177 0
M  V30 254 C 23.6535 0.790314 3.29453 0
M  V30 255 C 22.2125 0.482111 3.733 0
M  V30 256 C 21.3595 1.01938 2.57883 0
M  V30 257 H 24.3105 0.992254 1.23855 0
M  V30 258 H 24.3315 0.0853677 3.80404 0
M  V30 259 H 23.8435 1.86554 3.40322 0
M  V30 260 H 21.9445 -0.584652 3.67984 0
M  V30 261 H 22.0575 1.01015 4.6833 0
M  V30 262 H 20.4215 0.442043 2.50835 0
M  V30 263 H 21.2045 2.10059 2.71533 0
M  V30 264 N 23.6496 -1.47581 0.552962 0
M  V30 265 C 24.8966 -2.02482 0.0273243 0
M  V30 266 C 25.2246 -1.42776 -1.32081 0
M  V30 267 O 24.4796 -0.571393 -1.87173 0
M  V30 268 C 24.7786 -3.57199 -0.119728 0
M  V30 269 C 24.4446 -4.35804 1.15697 0
M  V30 270 C 23.1066 -4.57 1.50681 0
M  V30 271 C 25.4586 -4.81167 2.00319 0
M  V30 272 C 22.7866 -5.20807 2.70142 0
M  V30 273 C 25.1386 -5.46293 3.18978 0
M  V30 274 C 23.8026 -5.65722 3.54281 0
M  V30 275 H 23.0726 -0.740933 0.00999866 0
M  V30 276 H 25.7196 -1.77302 0.72362 0
M  V30 277 H 24.0246 -3.81348 -0.89896 0
M  V30 278 H 25.7216 -3.97324 -0.541718 0
M  V30 279 H 22.3116 -4.19582 0.874561 0
M  V30 280 H 26.4956 -4.64574 1.74599 0
M  V30 281 H 21.7516 -5.34045 2.97668 0
M  V30 282 H 25.9256 -5.80407 3.84838 0
M  V30 283 H 23.5526 -6.14936 4.46942 0
M  V30 284 N 25.1277 -0.289203 -1.54924 0
M  V30 285 C 26.3737 0.323998 -2.00195 0
M  V30 286 C 26.7067 1.54441 -1.17735 0
M  V30 287 O 25.9817 1.92875 -0.250878 0
M  V30 288 C 26.2647 0.692276 -3.53383 0
M  V30 289 C 26.1177 -0.536457 -4.46589 0
M  V30 290 C 27.4367 1.52335 -4.12895 0
M  V30 291 H 24.5557 0.116289 -0.727768 0
M  V30 292 H 27.1977 -0.398954 -1.85764 0
M  V30 293 H 25.3477 1.30822 -3.65811 0
M  V30 294 H 27.0197 -1.17499 -4.46085 0
M  V30 295 H 25.2627 -1.17192 -4.1767 0
M  V30 296 H 25.9337 -0.234806 -5.515 0
M  V30 297 H 28.4097 1.00302 -4.0383 0
M  V30 298 H 27.2857 1.74982 -5.20262 0
M  V30 299 H 27.5467 2.50886 -3.64018 0
M  V30 300 N 26.6058 1.57591 -0.0167156 0
M  V30 301 C 27.8538 1.90906 0.663285 0
M  V30 302 C 28.1748 0.892509 1.73376 0
M  V30 303 O 27.4448 -0.0677623 1.95783 0
M  V30 304 H 26.0248 0.704637 0.247983 0
M  V30 305 H 28.6868 1.94803 -0.0615909 0
M  V30 306 H 27.7828 2.9116 1.12393 0
M  V30 307 N 28.0839 -0.256276 1.55502 0
M  V30 308 C 29.0159 -1.33981 1.85962 0
M  V30 309 C 30.0289 -1.44743 0.745212 0
M  V30 310 O 31.2179 -1.4626 1.02324 0
M  V30 311 C 28.3179 -2.7194 2.02242 0
M  V30 312 C 27.4909 -2.83562 3.33033 0
M  V30 313 C 26.5499 -4.02304 3.39172 0
M  V30 314 O 25.5759 -3.92273 4.12444 0
M  V30 315 N 26.7779 -5.15045 2.67784 0
M  V30 316 H 29.5429 -1.08191 2.7949 0
M  V30 317 H 27.1039 -0.446388 1.55624 0
M  V30 318 H 29.0959 -3.49697 2.03701 0
M  V30 319 H 27.6659 -2.90479 1.15502 0
M  V30 320 H 26.8859 -1.92555 3.43971 0
M  V30 321 H 28.1739 -2.88271 4.19258 0
M  V30 322 H 27.5719 -5.26085 2.07968 0
M  V30 323 H 26.1289 -5.90972 2.74947 0
M  V30 324 N 29.562 -1.4872 -0.521534 0
M  V30 325 C 30.494 -1.59968 -1.64143 0
M  V30 326 C 31.507 -0.483463 -1.55456 0
M  V30 327 O 32.696 -0.75467 -1.61762 0
M  V30 328 C 29.796 -1.52127 -3.02838 0
M  V30 329 C 28.969 -2.78932 -3.36921 0
M  V30 330 C 28.028 -2.64428 -4.54933 0
M  V30 331 O 27.054 -3.38331 -4.57735 0
M  V30 332 N 28.256 -1.74606 -5.53618 0
M  V30 333 H 31.021 -2.56548 -1.54929 0
M  V30 334 H 28.582 -1.45551 -0.708988 0
M  V30 335 H 30.574 -1.40106 -3.79674 0
M  V30 336 H 29.144 -0.634868 -3.06085 0
M  V30 337 H 28.364 -3.05455 -2.4918 0
M  V30 338 H 29.652 -3.63041 -3.56481 0
M  V30 339 H 29.05 -1.13782 -5.54139 0
M  V30 340 H 27.607 -1.6852 -6.29638 0
M  V30 341 N 31.0401 0.771051 -1.3745 0
M  V30 342 C 32.2861 1.5319 -1.32894 0
M  V30 343 C 32.6191 1.94008 0.0862511 0
M  V30 344 O 31.8941 1.64124 1.04373 0
M  V30 345 C 32.1771 2.79648 -2.26868 0
M  V30 346 C 32.0301 2.45079 -3.77169 0
M  V30 347 C 33.3491 3.81583 -2.19277 0
M  V30 348 H 30.4681 0.555744 -0.484064 0
M  V30 349 H 33.1101 0.884492 -1.68157 0
M  V30 350 H 31.2601 3.34891 -1.96926 0
M  V30 351 H 32.9321 1.95745 -4.1771 0
M  V30 352 H 31.1751 1.77767 -3.95704 0
M  V30 353 H 31.8461 3.35478 -4.38359 0
M  V30 354 H 34.3221 3.35835 -2.45671 0
M  V30 355 H 33.1981 4.67787 -2.87171 0
M  V30 356 H 33.4591 4.25897 -1.18592 0
M  V30 357 N 32.5182 1.22032 0.997298 0
M  V30 358 C 33.7642 1.04376 1.73878 0
M  V30 359 C 34.0972 -0.420716 1.89588 0
M  V30 360 O 33.3722 -1.31202 1.43583 0
M  V30 361 C 33.6552 1.75047 3.14691 0
M  V30 362 C 33.5082 3.29062 3.06656 0
M  V30 363 C 34.8272 1.49928 4.13775 0
M  V30 364 H 31.9462 0.380578 0.631133 0
M  V30 365 H 34.5882 1.50312 1.16217 0
M  V30 366 H 32.7382 1.35996 3.63919 0
M  V30 367 H 34.4102 3.7753 2.65083 0
M  V30 368 H 32.6532 3.58967 2.43568 0
M  V30 369 H 33.3242 3.73683 4.06282 0
M  V30 370 H 35.8002 1.83842 3.73285 0
M  V30 371 H 34.6762 2.01878 5.10428 0
M  V30 372 H 34.9372 0.430929 4.39995 0
M  V30 373 N 33.9963 -1.19345 1.0293 0
M  V30 374 C 34.9433 -2.2258 0.610464 0
M  V30 375 C 35.9133 -1.6179 -0.375946 0
M  V30 376 O 37.0983 -1.88844 -0.272511 0
M  V30 377 C 34.2383 -3.45085 -0.0321473 0
M  V30 378 C 33.3513 -4.20258 1.00035 0
M  V30 379 C 32.4863 -5.3019 0.32746 0
M  V30 380 C 31.5253 -5.97121 1.34584 0
M  V30 381 N 30.6623 -6.98615 0.698726 0
M  V30 382 H 35.5023 -2.57764 1.49538 0
M  V30 383 H 33.0393 -1.26644 0.748311 0
M  V30 384 H 34.9973 -4.15061 -0.421966 0
M  V30 385 H 33.6273 -3.10555 -0.88064 0
M  V30 386 H 32.6793 -3.49223 1.50823 0
M  V30 387 H 33.9913 -4.66175 1.77433 0
M  V30 388 H 33.1453 -6.06587 -0.11718 0
M  V30 389 H 31.8843 -4.85345 -0.478713 0
M  V30 390 H 30.8893 -5.19474 1.80074 0
M  V30 391 H 32.1143 -6.4405 2.15352 0
M  V30 392 H 30.0603 -6.55942 -0.0873471 0
M  V30 393 H 29.9773 -7.42724 1.41058 0
M  V30 394 H 31.2453 -7.79004 0.278102 0
M  V30 395 N 35.4744 -0.807222 -1.35358 0
M  V30 396 C 36.7024 -0.400377 -2.02989 0
M  V30 397 C 37.1174 0.988859 -1.60832 0
M  V30 398 O 36.4744 1.63729 -0.806175 0
M  V30 399 C 36.5254 -0.474867 -3.58368 0
M  V30 400 O 36.2464 -1.80933 -3.98992 0
M  V30 401 C 37.7474 -0.0609112 -4.43258 0
M  V30 402 H 34.9674 -0.162587 -0.651004 0
M  V30 403 H 37.5114 -1.09102 -1.72965 0
M  V30 404 H 35.6664 0.167534 -3.87038 0
M  V30 405 H 36.0804 -1.77256 -4.9364 0
M  V30 406 H 37.5544 -0.164145 -5.51756 0
M  V30 407 H 38.0314 0.993831 -4.27808 0
M  V30 408 H 38.6374 -0.676492 -4.19885 0
M  V30 409 N 36.9525 1.47285 -0.560781 0
M  V30 410 C 38.2005 2.02064 -0.0379868 0
M  V30 411 C 38.5215 1.43711 1.31803 0
M  V30 412 O 37.7915 0.61362 1.86042 0
M  V30 413 H 36.3715 0.746918 -0.0110531 0
M  V30 414 H 39.0335 1.80648 -0.731598 0
M  V30 415 H 38.1295 3.12064 0.0474463 0
M  V30 416 N 38.4306 0.297415 1.54768 0
M  V30 417 C 39.6786 -0.312295 1.99673 0
M  V30 418 C 39.9996 -1.54686 1.18732 0
M  V30 419 O 39.2696 -1.93854 0.282382 0
M  V30 420 H 37.8496 -0.118381 0.73756 0
M  V30 421 H 40.5116 0.407915 1.90583 0
M  V30 422 H 39.6076 -0.586813 3.06534 0
M  V30 423 N 39.9087 -1.5758 0.0250728 0
M  V30 424 C 41.1337 -1.96337 -0.668317 0
M  V30 425 C 41.5587 -0.901314 -1.651 0
M  V30 426 O 40.9167 0.138187 -1.80773 0
M  V30 427 C 40.9647 -3.34191 -1.35457 0
M  V30 428 O 40.0687 -3.30269 -2.46974 0
M  V30 429 H 39.4097 -0.640281 -0.175887 0
M  V30 430 H 41.9397 -2.0442 0.0857224 0
M  V30 431 H 41.9497 -3.70331 -1.71228 0
M  V30 432 H 40.6247 -4.11036 -0.634218 0
M  V30 433 H 39.2017 -3.05841 -2.13344 0
M  V30 434 N 41.3868 0.248026 -1.55636 0
M  V30 435 C 42.6118 0.998028 -1.81808 0
M  V30 436 C 43.0368 1.78207 -0.601979 0
M  V30 437 O 42.3948 1.75653 0.448961 0
M  V30 438 C 42.4428 1.9125 -3.05705 0
M  V30 439 O 41.5468 3.00406 -2.82542 0
M  V30 440 H 40.8878 0.284045 -0.600179 0
M  V30 441 H 43.4178 0.269357 -2.02819 0
M  V30 442 H 43.4278 2.32737 -3.35108 0
M  V30 443 H 42.1028 1.33602 -3.93857 0
M  V30 444 H 40.6798 2.63056 -2.64303 0
M  V30 445 N 42.8649 1.48995 0.513639 0
M  V30 446 C 43.8119 1.6473 1.61656 0
M  V30 447 C 44.7819 0.488984 1.58739 0
M  V30 448 O 45.9669 0.714478 1.76918 0
M  V30 449 C 43.1069 1.7082 2.99858 0
M  V30 450 C 42.2199 2.9787 3.12885 0
M  V30 451 C 41.3549 2.95017 4.41744 0
M  V30 452 C 40.3939 4.16702 4.48359 0
M  V30 453 N 39.5309 4.11832 5.68629 0
M  V30 454 H 44.3709 2.58909 1.47547 0
M  V30 455 H 41.9079 1.28382 0.71808 0
M  V30 456 H 43.8659 1.72331 3.79944 0
M  V30 457 H 42.4959 0.801181 3.12699 0
M  V30 458 H 41.5479 3.06029 2.25944 0
M  V30 459 H 42.8599 3.8786 3.13633 0
M  V30 460 H 42.0139 2.95021 5.30139 0
M  V30 461 H 40.7529 2.02784 4.43542 0
M  V30 462 H 39.7579 4.16955 3.58369 0
M  V30 463 H 40.9829 5.10113 4.48287 0
M  V30 464 H 38.9289 3.22428 5.71293 0
M  V30 465 H 38.8459 4.95543 5.7094 0
M  V30 466 H 40.1139 4.1592 6.59266 0
M  V30 467 N 44.343 -0.763751 1.37857 0
M  V30 468 C 45.29 -1.87726 1.34267 0
M  V30 469 C 46.26 -1.64807 0.206879 0
M  V30 470 O 47.445 -1.86613 0.397508 0
M  V30 471 C 44.585 -3.24896 1.16346 0
M  V30 472 C 43.698 -3.59716 2.39225 0
M  V30 473 C 42.833 -4.86137 2.14114 0
M  V30 474 C 41.872 -5.13711 3.32817 0
M  V30 475 N 41.009 -6.31323 3.07206 0
M  V30 476 H 45.849 -1.90129 2.29466 0
M  V30 477 H 43.386 -0.929433 1.14017 0
M  V30 478 H 45.344 -4.04036 1.03975 0
M  V30 479 H 43.974 -3.21847 0.247909 0
M  V30 480 H 43.026 -2.75498 2.62307 0
M  V30 481 H 44.338 -3.76027 3.27728 0
M  V30 482 H 43.492 -5.73198 1.9882 0
M  V30 483 H 42.231 -4.71945 1.22961 0
M  V30 484 H 41.236 -4.25123 3.48641 0
M  V30 485 H 42.461 -5.29807 4.24832 0
M  V30 486 H 40.407 -6.18474 2.1869 0
M  V30 487 H 40.324 -6.48087 3.89254 0
M  V30 488 H 41.592 -7.213 2.95546 0
M  V30 489 N 45.8211 -1.22559 -0.990812 0
M  V30 490 C 46.7511 -1.0218 -2.09956 0
M  V30 491 C 47.7321 0.0579394 -1.70001 0
M  V30 492 O 48.9171 -0.104684 -1.93918 0
M  V30 493 C 46.0471 -0.601023 -3.4206 0
M  V30 494 C 45.0011 -1.62694 -3.95872 0
M  V30 495 C 44.3271 -1.06193 -5.24049 0
M  V30 496 C 45.6271 -3.01743 -4.2632 0
M  V30 497 H 47.3211 -1.94916 -2.27262 0
M  V30 498 H 44.8671 -0.938566 -1.09211 0
M  V30 499 H 46.8201 -0.445561 -4.19038 0
M  V30 500 H 45.5441 0.362005 -3.24588 0
M  V30 501 H 44.2031 -1.77021 -3.21028 0
M  V30 502 H 43.8511 -0.0901903 -5.02919 0
M  V30 503 H 43.5511 -1.74732 -5.61019 0
M  V30 504 H 45.0751 -0.918092 -6.03658 0
M  V30 505 H 46.4891 -2.90777 -4.94087 0
M  V30 506 H 44.8861 -3.67425 -4.74467 0
M  V30 507 H 45.9561 -3.51518 -3.34011 0
M  V30 508 N 47.2992 1.18797 -1.03562 0
M  V30 509 C 48.2312 2.21731 -0.580337 0
M  V30 510 C 49.2442 1.59051 0.347349 0
M  V30 511 O 50.4332 1.77929 0.142669 0
M  V30 512 C 47.5332 3.38459 0.172805 0
M  V30 513 C 46.7062 4.3072 -0.761496 0
M  V30 514 C 45.7652 5.26174 -0.0525547 0
M  V30 515 O 44.7912 5.65108 -0.681333 0
M  V30 516 N 45.9932 5.67624 1.21586 0
M  V30 517 H 48.7582 2.61417 -1.46565 0
M  V30 518 H 46.3192 1.33531 -0.915476 0
M  V30 519 H 48.3112 3.99335 0.656793 0
M  V30 520 H 46.8812 2.97507 0.959602 0
M  V30 521 H 46.1012 3.67525 -1.42544 0
M  V30 522 H 47.3892 4.89267 -1.39626 0
M  V30 523 H 46.7872 5.38038 1.74732 0
M  V30 524 H 45.3442 6.30721 1.64421 0
M  V30 525 N 48.7773 0.814389 1.34928 0
M  V30 526 C 50.1883 0.458364 1.80986 0
M  V30 527 C 50.5393 -1.02042 1.67577 0
M  V30 528 O 49.6643 -1.79352 1.21086 0
M  V30 529 C 50.2593 0.825212 3.28597 0
M  V30 530 C 48.8183 0.521677 3.72767 0
M  V30 531 C 47.9653 1.04668 2.56788 0
M  V30 532 H 50.9163 1.00533 1.22795 0
M  V30 533 H 50.9373 0.12571 3.80292 0
M  V30 534 H 50.4493 1.90154 3.38324 0
M  V30 535 H 48.5503 -0.545589 3.68584 0
M  V30 536 H 48.6633 1.05977 4.67232 0
M  V30 537 H 47.0273 0.468622 2.50352 0
M  V30 538 H 47.8103 2.12927 2.6929 0
M  V30 539 N 50.2554 -1.46986 0.568584 0
M  V30 540 C 51.2184 -2.28624 -0.162366 0
M  V30 541 C 52.2184 -1.37596 -0.832103 0
M  V30 542 O 53.4084 -1.60115 -0.68622 0
M  V30 543 C 50.5404 -3.17596 -1.23878 0
M  V30 544 H 51.7334 -2.94722 0.554899 0
M  V30 545 H 49.2864 -1.52863 0.325976 0
M  V30 546 H 50.0214 -2.56214 -1.98808 0
M  V30 547 H 49.8064 -3.846 -0.763219 0
M  V30 548 H 51.2964 -3.79078 -1.75185 0
M  V30 549 N 51.7335 -0.305618 -1.54608 0
M  V30 550 C 52.9585 0.307562 -2.05107 0
M  V30 551 C 53.3835 1.46385 -1.18123 0
M  V30 552 O 52.7415 1.8034 -0.186324 0
M  V30 553 C 52.7895 0.73704 -3.52987 0
M  V30 554 O 51.8935 1.84134 -3.6901 0
M  V30 555 H 51.2345 0.0589143 -0.661381 0
M  V30 556 H 53.7645 -0.448807 -1.99617 0
M  V30 557 H 53.7745 1.02459 -3.94925 0
M  V30 558 H 52.4495 -0.108773 -4.15758 0
M  V30 559 H 51.0265 1.55398 -3.38978 0
M  V30 560 N 53.2116 1.57565 -0.0334293 0
M  V30 561 C 54.1416 2.13511 0.945265 0
M  V30 562 C 55.1226 1.05231 1.33643 0
M  V30 563 O 56.3076 1.33084 1.41429 0
M  V30 564 C 53.4376 2.6657 2.22616 0
M  V30 565 C 52.3916 3.79676 1.97561 0
M  V30 566 C 51.7176 4.1918 3.31952 0
M  V30 567 C 53.0176 5.0557 1.31135 0
M  V30 568 H 54.7116 2.95538 0.479325 0
M  V30 569 H 52.2576 1.42166 0.229115 0
M  V30 570 H 54.2106 3.04344 2.91466 0
M  V30 571 H 52.9346 1.8171 2.71384 0
M  V30 572 H 51.5936 3.42347 1.31127 0
M  V30 573 H 51.2416 3.31296 3.78487 0
M  V30 574 H 50.9416 4.95402 3.15992 0
M  V30 575 H 52.4656 4.59541 4.02063 0
M  V30 576 H 53.8796 5.40903 1.89992 0
M  V30 577 H 52.2766 5.86818 1.25559 0
M  V30 578 H 53.3466 4.84062 0.284894 0
M  V30 579 N 54.6897 -0.239769 1.55765 0
M  V30 580 C 55.6217 -1.32001 1.87372 0
M  V30 581 C 56.6347 -1.43944 0.760522 0
M  V30 582 O 57.8237 -1.45167 1.0387 0
M  V30 583 C 54.9237 -2.69779 2.05115 0
M  V30 584 C 54.0967 -2.80014 3.36022 0
M  V30 585 C 53.1557 -3.98684 3.4342 0
M  V30 586 O 52.1817 -3.87877 4.16582 0
M  V30 587 N 53.3837 -5.12176 2.73232 0
M  V30 588 H 56.1487 -1.0522 2.80622 0
M  V30 589 H 53.7097 -0.429857 1.56089 0
M  V30 590 H 55.7017 -3.47517 2.07399 0
M  V30 591 H 54.2717 -2.89237 1.18577 0
M  V30 592 H 53.4917 -1.88896 3.45994 0
M  V30 593 H 54.7797 -2.83808 4.22292 0
M  V30 594 H 54.1777 -5.2385 2.13536 0
M  V30 595 H 52.7347 -5.88022 2.81199 0
M  V30 596 N 56.1678 -1.49265 -0.50573 0
M  V30 597 C 57.3928 -1.62478 -1.28902 0
M  V30 598 C 57.8178 -0.294332 -1.85783 0
M  V30 599 O 57.1758 0.737412 -1.65626 0
M  V30 600 C 57.2238 -2.69268 -2.39848 0
M  V30 601 O 56.3278 -2.28113 -3.43567 0
M  V30 602 H 55.6688 -0.54399 -0.380751 0
M  V30 603 H 58.1988 -1.95421 -0.605952 0
M  V30 604 H 58.2088 -2.91291 -2.85681 0
M  V30 605 H 56.8838 -3.65846 -1.97812 0
M  V30 606 H 55.4608 -2.16401 -3.03685 0
M  V30 607 N 57.6459 0.756429 -1.3826 0
M  V30 608 C 58.5759 1.88374 -1.37976 0
M  V30 609 C 59.5569 1.68311 -0.246082 0
M  V30 610 O 60.7419 1.88944 -0.44874 0
M  V30 611 C 57.8719 3.25864 -1.20125 0
M  V30 612 C 56.8259 3.60523 -2.30666 0
M  V30 613 C 56.1519 4.9672 -1.97923 0
M  V30 614 C 57.4519 3.65692 -3.72916 0
M  V30 615 H 59.1459 1.88869 -2.32312 0
M  V30 616 H 56.6919 0.907272 -1.11824 0
M  V30 617 H 58.6449 4.0438 -1.18552 0
M  V30 618 H 57.3689 3.25841 -0.222498 0
M  V30 619 H 56.0279 2.84324 -2.3142 0
M  V30 620 H 55.6759 4.93253 -0.985393 0
M  V30 621 H 55.3759 5.20878 -2.71955 0
M  V30 622 H 56.8999 5.77618 -1.97964 0
M  V30 623 H 58.3139 4.34328 -3.74208 0
M  V30 624 H 56.7109 4.01358 -4.4613 0
M  V30 625 H 57.7809 2.65987 -4.05436 0
M  V30 626 N 59.124 1.23083 0.984299 0
M  V30 627 C 60.37 1.07221 1.72845 0
M  V30 628 C 60.725 -0.387453 1.88458 0
M  V30 629 O 60.018 -1.28309 1.42293 0
M  V30 630 C 60.212 1.72673 3.1292 0
M  V30 631 C 60.041 3.24853 3.10967 0
M  V30 632 C 58.811 3.93998 3.16376 0
M  V30 633 C 61.009 4.21674 2.94441 0
M  V30 634 N 58.991 5.33192 3.04268 0
M  V30 635 C 60.362 5.47756 2.90453 0
M  V30 636 C 62.417 4.12457 2.78897 0
M  V30 637 C 61.12 6.6568 2.72512 0
M  V30 638 C 63.146 5.3004 2.62319 0
M  V30 639 C 62.508 6.55046 2.59026 0
M  V30 640 H 58.607 0.44685 0.641755 0
M  V30 641 H 61.191 1.55753 1.16829 0
M  V30 642 H 59.362 1.26679 3.67161 0
M  V30 643 H 61.094 1.49824 3.75945 0
M  V30 644 H 57.849 3.45052 3.24401 0
M  V30 645 H 58.273 6.06157 3.015 0
M  V30 646 H 62.915 3.16588 2.80235 0
M  V30 647 H 60.633 7.61689 2.69919 0
M  V30 648 H 64.219 5.24747 2.5126 0
M  V30 649 H 63.099 7.44498 2.46357 0
M  V30 650 N 60.6021 -1.18246 1.0419 0
M  V30 651 C 61.5321 -2.24127 0.654914 0
M  V30 652 C 62.5131 -1.66617 -0.342451 0
M  V30 653 O 63.6981 -1.92924 -0.222277 0
M  V30 654 C 60.8281 -3.47295 0.0183757 0
M  V30 655 C 59.7821 -4.17563 0.939414 0
M  V30 656 C 59.1081 -5.34438 0.167286 0
M  V30 657 C 60.4081 -4.70917 2.25908 0
M  V30 658 H 62.1021 -2.56753 1.54007 0
M  V30 659 H 59.6481 -1.23414 0.74195 0
M  V30 660 H 61.6011 -4.20572 -0.264082 0
M  V30 661 H 60.3251 -3.13907 -0.901664 0
M  V30 662 H 58.9841 -3.46186 1.20628 0
M  V30 663 H 58.6321 -4.97298 -0.7552 0
M  V30 664 H 58.3321 -5.82388 0.780901 0
M  V30 665 H 59.8561 -6.10504 -0.108125 0
M  V30 666 H 61.2701 -5.35882 2.03724 0
M  V30 667 H 59.6671 -5.29406 2.82577 0
M  V30 668 H 60.7371 -3.88272 2.9047 0
M  V30 669 N 62.0802 -0.821533 -1.34494 0
M  V30 670 C 63.0122 -0.199946 -2.28326 0
M  V30 671 C 64.0252 0.609377 -1.50965 0
M  V30 672 O 65.2142 0.439285 -1.7301 0
M  V30 673 C 62.3142 0.738431 -3.30757 0
M  V30 674 C 61.4872 -0.0277632 -4.37391 0
M  V30 675 C 60.5462 0.831332 -5.19591 0
M  V30 676 O 59.5722 0.276822 -5.68526 0
M  V30 677 N 60.7742 2.15132 -5.39165 0
M  V30 678 H 63.5392 -1.00609 -2.82308 0
M  V30 679 H 61.1002 -0.678366 -1.47003 0
M  V30 680 H 63.0922 1.31773 -3.82646 0
M  V30 681 H 61.6622 1.44533 -2.7718 0
M  V30 682 H 60.8822 -0.788359 -3.86236 0
M  V30 683 H 62.1702 -0.555251 -5.05761 0
M  V30 684 H 61.5682 2.62559 -5.01078 0
M  V30 685 H 60.1252 2.6795 -5.94177 0
M  V30 686 N 63.5583 1.46682 -0.576371 0
M  V30 687 C 64.8353 1.95599 0.00703437 0
M  V30 688 C 65.2153 1.51904 1.46589 0
M  V30 689 O 64.5633 0.766755 2.15251 0
M  V30 690 C 64.7733 3.4864 -0.158404 0
M  V30 691 C 66.1213 4.24594 -0.0229439 0
M  V30 692 O 67.1453 3.56094 -0.0869173 0
M  V30 693 O 66.0043 5.46373 0.118015 0
M  V30 694 H 63.0983 0.825275 0.053384 0
M  V30 695 H 65.6443 1.56996 -0.644244 0
M  V30 696 H 64.4163 3.7331 -1.17282 0
M  V30 697 H 64.0393 3.94057 0.5296 0
M  V30 698 N 65.0364 0.313813 1.54444 0
M  V30 699 C 66.2644 -0.293918 2.04802 0
M  V30 700 C 66.6794 -1.46537 1.19047 0
M  V30 701 O 66.0364 -1.81182 0.218939 0
M  V30 702 C 66.0874 -0.737806 3.53891 0
M  V30 703 O 65.8084 0.387038 4.36387 0
M  V30 704 C 67.3094 -1.40936 4.203 0
M  V30 705 H 64.5294 -0.0620057 0.668129 0
M  V30 706 H 67.0734 0.457169 1.99324 0
M  V30 707 H 65.2284 -1.43889 3.59687 0
M  V30 708 H 65.6424 0.0391274 5.24485 0
M  V30 709 H 67.1164 -1.67099 5.26101 0
M  V30 710 H 67.5934 -2.35355 3.70816 0
M  V30 711 H 68.1994 -0.751117 4.18615 0
M  V30 712 N 66.5145 -1.57545 0.0417849 0
M  V30 713 C 67.4465 -2.07904 -0.964799 0
M  V30 714 C 68.4595 -1.00497 -1.28079 0
M  V30 715 O 69.6485 -1.28087 -1.24322 0
M  V30 716 C 66.7485 -2.49928 -2.28887 0
M  V30 717 C 65.9215 -3.80562 -2.15619 0
M  V30 718 C 64.9805 -4.08999 -3.31069 0
M  V30 719 O 64.0065 -4.79061 -3.0739 0
M  V30 720 N 65.2085 -3.6017 -4.55256 0
M  V30 721 H 67.9735 -2.94886 -0.535029 0
M  V30 722 H 65.5345 -1.61252 -0.144681 0
M  V30 723 H 67.5265 -2.66034 -3.04972 0
M  V30 724 H 66.0965 -1.68245 -2.63463 0
M  V30 725 H 65.3165 -3.74129 -1.24183 0
M  V30 726 H 66.6045 -4.66126 -2.03971 0
M  V30 727 H 66.0025 -3.03512 -4.77386 0
M  V30 728 H 64.5595 -3.81532 -5.28466 0
M  V30 729 N 67.9926 0.231505 -1.5589 0
M  V30 730 C 69.2386 0.95877 -1.78705 0
M  V30 731 C 69.5716 1.8438 -0.609725 0
M  V30 732 O 68.8466 1.90521 0.391426 0
M  V30 733 C 69.1296 1.8062 -3.11526 0
M  V30 734 C 68.9826 0.948328 -4.39689 0
M  V30 735 C 70.3016 2.78585 -3.40703 0
M  V30 736 H 67.4206 0.347129 -0.650131 0
M  V30 737 H 70.0626 0.228259 -1.88624 0
M  V30 738 H 68.2126 2.42902 -3.03201 0
M  V30 739 H 69.8846 0.343016 -4.60023 0
M  V30 740 H 68.1276 0.253314 -4.3306 0
M  V30 741 H 68.7986 1.57543 -5.29041 0
M  V30 742 H 71.2746 2.26439 -3.49091 0
M  V30 743 H 70.1506 3.34988 -4.34826 0
M  V30 744 H 70.4116 3.55825 -2.62375 0
M  V30 745 N 69.4707 1.49531 0.497807 0
M  V30 746 C 70.4207 1.62829 1.59596 0
M  V30 747 C 71.4047 0.483824 1.53453 0
M  V30 748 O 72.5967 0.736937 1.60929 0
M  V30 749 C 69.7257 1.7011 2.98191 0
M  V30 750 C 68.8117 2.90144 3.09317 0
M  V30 751 N 69.2027 4.1418 2.90324 0
M  V30 752 C 67.5007 2.88148 3.40422 0
M  V30 753 C 68.2017 4.94886 3.05717 0
M  V30 754 N 67.1777 4.28314 3.34736 0
M  V30 755 H 70.9797 2.56446 1.4357 0
M  V30 756 H 68.4937 1.46347 0.704001 0
M  V30 757 H 70.4907 1.77735 3.77115 0
M  V30 758 H 69.1507 0.776315 3.15283 0
M  V30 759 H 70.1617 4.44109 2.66436 0
M  V30 760 H 66.8387 2.05061 3.63671 0
M  V30 761 H 68.2287 6.03432 2.95499 0
M  V30 762 N 70.9488 -0.749086 1.3866 0
M  V30 763 C 72.1968 -1.50535 1.34847 0
M  V30 764 C 72.5178 -1.94909 -0.0595016 0
M  V30 765 O 71.7878 -1.67973 -1.00806 0
M  V30 766 H 70.3678 -0.558395 0.49619 0
M  V30 767 H 73.0298 -0.890165 1.73384 0
M  V30 768 H 72.1258 -2.39413 2.00219 0
M  V30 769 N 72.4269 -1.23603 -0.977757 0
M  V30 770 C 73.3739 -1.01954 -2.07061 0
M  V30 771 C 74.3439 0.0638697 -1.65977 0
M  V30 772 O 75.5289 -0.0887624 -1.90593 0
M  V30 773 C 72.6689 -0.619658 -3.39491 0
M  V30 774 C 71.7819 -1.77547 -3.93829 0
M  V30 775 C 70.9169 -1.32212 -5.14484 0
M  V30 776 C 69.9559 -2.44852 -5.60994 0
M  V30 777 N 69.0929 -2.00456 -6.72876 0
M  V30 778 H 73.9329 -1.95495 -2.24913 0
M  V30 779 H 71.4699 -0.973861 -1.10247 0
M  V30 780 H 73.4279 -0.368898 -4.15566 0
M  V30 781 H 72.0579 0.278752 -3.21594 0
M  V30 782 H 71.1099 -2.14016 -3.14486 0
M  V30 783 H 72.4219 -2.62219 -4.24314 0
M  V30 784 H 71.5759 -1.02965 -5.97899 0
M  V30 785 H 70.3149 -0.445808 -4.85658 0
M  V30 786 H 69.3199 -2.74871 -4.76157 0
M  V30 787 H 70.5449 -3.33024 -5.91837 0
M  V30 788 H 68.4909 -1.15208 -6.45804 0
M  V30 789 H 68.4079 -2.78687 -7.02759 0
M  V30 790 H 69.6759 -1.7432 -7.59758 0
M  V30 791 N 73.905 1.17692 -1.04816 0
M  V30 792 C 74.852 2.21581 -0.645797 0
M  V30 793 C 75.822 1.62367 0.350159 0
M  V30 794 O 77.007 1.89254 0.242433 0
M  V30 795 C 74.147 3.45092 -0.0227568 0
M  V30 796 C 73.26 4.18613 -1.06709 0
M  V30 797 C 72.395 5.29602 -0.411767 0
M  V30 798 C 71.434 5.94904 -1.44067 0
M  V30 799 N 70.571 6.97414 -0.809781 0
M  V30 800 H 75.411 2.55353 -1.5362 0
M  V30 801 H 72.948 1.25438 -0.768364 0
M  V30 802 H 74.906 4.15679 0.35588 0
M  V30 803 H 73.536 3.11917 0.831122 0
M  V30 804 H 72.588 3.46779 -1.5636 0
M  V30 805 H 73.9 4.63293 -1.84827 0
M  V30 806 H 73.054 6.06696 0.0206623 0
M  V30 807 H 71.793 4.86045 0.401438 0
M  V30 808 H 70.798 5.16544 -1.88316 0
M  V30 809 H 72.023 6.40542 -2.25571 0
M  V30 810 H 69.969 6.55998 -0.0170186 0
M  V30 811 H 69.886 7.40386 -1.52856 0
M  V30 812 H 71.154 7.78463 -0.401999 0
M  V30 813 N 75.3831 0.828654 1.34056 0
M  V30 814 C 76.3131 0.269443 2.3194 0
M  V30 815 C 77.2941 -0.617247 1.58506 0
M  V30 816 O 78.4791 -0.542931 1.86456 0
M  V30 817 C 75.6091 -0.564793 3.42677 0
M  V30 818 C 74.5631 0.225241 4.27407 0
M  V30 819 C 73.8891 -0.7321 5.29664 0
M  V30 820 C 75.1891 1.43663 5.02154 0
M  V30 821 H 76.8831 1.08728 2.7896 0
M  V30 822 H 74.4291 0.524283 1.34117 0
M  V30 823 H 76.3821 -0.966233 4.10173 0
M  V30 824 H 75.1061 -1.41574 2.9432 0
M  V30 825 H 73.7651 0.608117 3.61521 0
M  V30 826 H 73.4131 -1.57916 4.77568 0
M  V30 827 H 73.1131 -0.20767 5.87233 0
M  V30 828 H 74.6371 -1.13128 6.00029 0
M  V30 829 H 76.0511 1.1089 5.62473 0
M  V30 830 H 74.4481 1.89711 5.69324 0
M  V30 831 H 75.5181 2.21181 4.31517 0
M  V30 832 N 76.8612 -1.46375 0.584142 0
M  V30 833 C 78.1082 -2.02378 0.0702675 0
M  V30 834 C 78.4362 -1.45545 -1.29023 0
M  V30 835 O 77.6912 -0.610967 -1.85918 0
M  V30 836 C 77.9902 -3.57373 -0.0439342 0
M  V30 837 C 77.6562 -4.33252 1.24915 0
M  V30 838 C 76.3182 -4.53701 1.60341 0
M  V30 839 C 78.6702 -4.7681 2.1048 0
M  V30 840 C 75.9982 -5.1496 2.81128 0
M  V30 841 C 78.3502 -5.39404 3.30494 0
M  V30 842 C 77.0142 -5.5808 3.66201 0
M  V30 843 H 76.2842 -0.740554 0.0257127 0
M  V30 844 H 78.9312 -1.75727 0.761065 0
M  V30 845 H 77.2362 -3.83169 -0.817869 0
M  V30 846 H 78.9332 -3.98384 -0.457318 0
M  V30 847 H 75.5232 -4.17633 0.963364 0
M  V30 848 H 79.7072 -4.60766 1.84414 0
M  V30 849 H 74.9632 -5.27611 3.08928 0
M  V30 850 H 79.1372 -5.72114 3.97063 0
M  V30 851 H 76.7642 -6.05318 4.59885 0
M  V30 852 N 78.3393 -0.321999 -1.54275 0
M  V30 853 C 79.2693 0.537411 -2.27231 0
M  V30 854 C 80.2503 1.12064 -1.27968 0
M  V30 855 O 81.4353 1.14606 -1.56777 0
M  V30 856 C 78.5653 1.69919 -3.02894 0
M  V30 857 C 77.5193 1.24534 -4.09482 0
M  V30 858 C 76.8453 2.49394 -4.72977 0
M  V30 859 C 78.1453 0.361335 -5.21049 0
M  V30 860 H 79.8393 -0.0711406 -2.99315 0
M  V30 861 H 77.3853 -0.0356555 -1.43956 0
M  V30 862 H 79.3383 2.30668 -3.52662 0
M  V30 863 H 78.0623 2.33431 -2.28424 0
M  V30 864 H 76.7213 0.660782 -3.60596 0
M  V30 865 H 76.3693 3.11265 -3.95124 0
M  V30 866 H 76.0693 2.19718 -5.44975 0
M  V30 867 H 77.5933 3.10908 -5.25517 0
M  V30 868 H 79.0073 0.875072 -5.66582 0
M  V30 869 H 77.4043 0.157428 -5.99893 0
M  V30 870 H 78.4743 -0.60822 -4.8107 0
M  V30 871 N 79.8174 1.5752 -0.0501392 0
M  V30 872 C 81.2334 1.56631 0.306402 0
M  V30 873 C 81.4334 1.0577 1.71508 0
M  V30 874 O 80.4894 0.713837 2.422 0
M  V30 875 C 81.8024 3.00393 0.135811 0
M  V30 876 C 83.3504 3.12315 0.206993 0
M  V30 877 C 83.8254 4.57954 0.064944 0
M  V30 878 N 85.3164 4.63041 0.121254 0
M  V30 879 C 86.0514 5.73389 0.0354381 0
M  V30 880 N 85.5474 6.92724 -0.102666 0
M  V30 881 N 87.3404 5.62026 0.090946 0
M  V30 882 H 79.4914 1.88903 -0.971046 0
M  V30 883 H 81.7544 0.869876 -0.376855 0
M  V30 884 H 81.4604 3.41635 -0.835384 0
M  V30 885 H 81.3344 3.66373 0.897275 0
M  V30 886 H 83.7214 2.70973 1.16866 0
M  V30 887 H 83.8024 2.49016 -0.585208 0
M  V30 888 H 83.4464 4.99981 -0.893394 0
M  V30 889 H 83.3764 5.19258 0.876277 0
M  V30 890 H 85.8674 3.77216 0.227284 0
M  V30 891 H 86.1804 7.72633 -0.160882 0
M  V30 892 H 84.5254 6.94864 -0.137737 0
M  V30 893 H 87.7164 4.67684 0.197388 0
M  V30 894 H 87.8894 6.47997 0.0206089 0
M  V30 895 N 81.2955 -0.223234 1.56011 0
M  V30 896 C 82.5425 -0.947875 1.78946 0
M  V30 897 C 82.8705 -1.844 0.618608 0
M  V30 898 O 82.1255 -1.91629 -0.397093 0
M  V30 899 C 82.4245 -1.81948 3.0762 0
M  V30 900 C 82.0905 -1.07672 4.37856 0
M  V30 901 C 80.7525 -0.871544 4.73242 0
M  V30 902 C 83.1045 -0.552081 5.18268 0
M  V30 903 C 80.4325 -0.129791 5.86556 0
M  V30 904 C 82.7845 0.17632 6.32354 0
M  V30 905 C 81.4485 0.39277 6.66343 0
M  V30 906 H 80.7185 -0.346852 0.654809 0
M  V30 907 H 83.3655 -0.216171 1.90276 0
M  V30 908 H 81.6705 -2.61899 2.91404 0
M  V30 909 H 83.3675 -2.38227 3.22566 0
M  V30 910 H 79.9575 -1.24662 4.1007 0
M  V30 911 H 84.1415 -0.698076 4.91366 0
M  V30 912 H 79.3975 0.048153 6.11381 0
M  V30 913 H 83.5715 0.590367 6.93893 0
M  V30 914 H 81.1985 0.969466 7.53993 0
M  V30 915 N 82.7736 -1.49793 -0.48987 0
M  V30 916 C 84.0506 -1.50348 -1.25119 0
M  V30 917 C 84.4306 -0.237466 -2.0976 0
M  V30 918 O 83.7786 0.77981 -2.14782 0
M  V30 919 C 83.9886 -2.78872 -2.09837 0
M  V30 920 C 85.3366 -3.288 -2.68655 0
M  V30 921 O 86.3606 -2.80065 -2.20096 0
M  V30 922 O 85.2196 -4.13707 -3.57083 0
M  V30 923 H 82.3136 -0.602242 -0.566775 0
M  V30 924 H 84.8596 -1.62067 -0.503229 0
M  V30 925 H 83.6316 -3.62499 -1.47343 0
M  V30 926 H 83.2546 -2.70066 -2.91805 0
M  V30 927 N 84.2517 0.741722 -1.39055 0
M  V30 928 C 85.1817 1.869 -1.39966 0
M  V30 929 C 86.1627 1.6804 -0.26392 0
M  V30 930 O 87.3477 1.88458 -0.468755 0
M  V30 931 C 84.4777 3.24572 -1.23574 0
M  V30 932 C 83.4317 3.58056 -2.34477 0
M  V30 933 C 82.7577 4.94593 -2.0318 0
M  V30 934 C 84.0577 3.61716 -3.76774 0
M  V30 935 H 85.7517 1.86395 -2.34302 0
M  V30 936 H 83.2977 0.895361 -1.1278 0
M  V30 937 H 85.2507 4.031 -1.22834 0
M  V30 938 H 83.9747 3.25587 -0.257045 0
M  V30 939 H 82.6337 2.81854 -2.34423 0
M  V30 940 H 82.2817 4.92181 -1.03765 0
M  V30 941 H 81.9817 5.17964 -2.77465 0
M  V30 942 H 83.5057 5.75486 -2.04079 0
M  V30 943 H 84.9197 4.30335 -3.78794 0
M  V30 944 H 83.3167 3.96603 -4.50362 0
M  V30 945 H 84.3867 2.61672 -4.08235 0
M  V30 946 N 85.7298 1.2412 0.971189 0
M  V30 947 C 87.0068 0.986867 1.6888 0
M  V30 948 C 87.3868 -0.491857 2.0529 0
M  V30 949 O 86.7348 -1.46531 1.75331 0
M  V30 950 C 86.9448 1.9063 2.92338 0
M  V30 951 C 88.2928 2.17515 3.64654 0
M  V30 952 O 89.3168 1.88254 3.02388 0
M  V30 953 O 88.1758 2.6719 4.7673 0
M  V30 954 H 85.2698 0.372944 0.738134 0
M  V30 955 H 87.8158 1.35203 1.02559 0
M  V30 956 H 86.5878 2.90552 2.62097 0
M  V30 957 H 86.2108 1.54408 3.66393 0
M  V30 958 N 87.2079 -1.17134 1.05439 0
M  V30 959 C 88.1179 -2.24878 0.668365 0
M  V30 960 C 89.1339 -1.71186 -0.311687 0
M  V30 961 O 90.3099 -2.00738 -0.163161 0
M  V30 962 C 87.3749 -3.46662 0.051648 0
M  V30 963 C 86.4359 -4.15429 1.08246 0
M  V30 964 C 85.6689 -5.31399 0.495082 0
M  V30 965 O 85.8919 -5.66153 -0.694743 0
M  V30 966 O 84.8259 -5.89187 1.23056 0
M  V30 967 H 88.6519 -2.60189 1.56637 0
M  V30 968 H 86.2369 -1.24482 0.826104 0
M  V30 969 H 88.1189 -4.20394 -0.290966 0
M  V30 970 H 86.7939 -3.13142 -0.819971 0
M  V30 971 H 85.7009 -3.43704 1.47711 0
M  V30 972 H 87.0339 -4.52982 1.92532 0
M  V30 973 N 88.686 -0.835752 -1.33615 0
M  V30 974 C 89.596 -0.269088 -2.33052 0
M  V30 975 C 90.612 0.603251 -1.63208 0
M  V30 976 O 91.788 0.508112 -1.94885 0
M  V30 977 C 88.853 0.549091 -3.42324 0
M  V30 978 C 87.914 -0.347156 -4.27894 0
M  V30 979 C 87.147 0.43207 -5.31948 0
M  V30 980 O 87.37 1.66409 -5.45586 0
M  V30 981 O 86.304 -0.192298 -6.01593 0
M  V30 982 H 90.13 -1.09243 -2.83372 0
M  V30 983 H 87.715 -0.598198 -1.36901 0
M  V30 984 H 89.597 1.01414 -4.09015 0
M  V30 985 H 88.272 1.34955 -2.94226 0
M  V30 986 H 87.179 -0.859979 -3.64081 0
M  V30 987 H 88.512 -1.1123 -4.79467 0
M  V30 988 N 90.1641 1.46063 -0.591896 0
M  V30 989 C 91.0971 2.27452 0.184617 0
M  V30 990 C 92.0751 1.36188 0.888351 0
M  V30 991 O 93.2591 1.65606 0.90039 0
M  V30 992 C 90.3861 3.14162 1.26571 0
M  V30 993 C 89.4321 4.21255 0.666814 0
M  V30 994 S 90.2651 5.33034 -0.513345 0
M  V30 995 C 91.4211 6.23311 0.56872 0
M  V30 996 H 91.6541 2.92963 -0.505939 0
M  V30 997 H 89.1871 1.49676 -0.379014 0
M  V30 998 H 91.1451 3.6468 1.88463 0
M  V30 999 H 89.8061 2.47946 1.92826 0
M  V30 1000 H 88.9991 4.81788 1.47974 0
M  V30 1001 H 88.6011 3.73797 0.123359 0
M  V30 1002 H 90.8931 6.61758 1.45198 0
M  V30 1003 H 91.8361 7.081 -7.23824e-05 0
M  V30 1004 H 92.2441 5.57646 0.876996 0
M  V30 1005 N 91.6422 0.330177 1.54103 0
M  V30 1006 C 92.8902 -0.269871 2.0029 0
M  V30 1007 C 93.2112 -1.52133 1.21986 0
M  V30 1008 O 92.4812 -1.93212 0.323438 0
M  V30 1009 H 91.0612 -0.10271 0.739905 0
M  V30 1010 H 93.7232 0.448249 1.89675 0
M  V30 1011 H 92.8192 -0.52166 3.07709 0
M  V30 1012 N 93.1203 -1.57491 0.0584922 0
M  V30 1013 C 94.5313 -1.80526 -0.476138 0
M  V30 1014 C 94.8823 -0.971334 -1.70469 0
M  V30 1015 O 94.0073 -0.190012 -2.15564 0
M  V30 1016 C 94.6023 -3.27424 -0.870587 0
M  V30 1017 C 93.1613 -3.51351 -1.35015 0
M  V30 1018 C 92.3083 -2.75343 -0.32887 0
M  V30 1019 H 95.2593 -1.56133 0.284312 0
M  V30 1020 H 95.2803 -3.38745 -1.73299 0
M  V30 1021 H 94.7923 -3.88093 0.0237627 0
M  V30 1022 H 92.8933 -2.95971 -2.26345 0
M  V30 1023 H 93.0063 -4.60059 -1.33726 0
M  V30 1024 H 91.3703 -2.417 -0.803321 0
M  V30 1025 H 92.1533 -3.38743 0.557521 0
M  V30 1026 N 94.5984 0.214957 -1.56127 0
M  V30 1027 C 96.0094 0.781386 -1.69562 0
M  V30 1028 C 96.3604 1.84707 -0.66165 0
M  V30 1029 O 95.4854 2.156 0.185927 0
M  V30 1030 C 96.0804 1.42411 -3.07416 0
M  V30 1031 C 94.6394 1.93786 -3.22683 0
M  V30 1032 C 93.7864 0.800438 -2.65496 0
M  V30 1033 H 96.7374 -0.00980633 -1.58697 0
M  V30 1034 H 96.7584 2.29309 -3.0364 0
M  V30 1035 H 96.2704 0.64826 -3.82648 0
M  V30 1036 H 94.3714 2.74152 -2.52332 0
M  V30 1037 H 94.4844 2.1133 -4.29973 0
M  V30 1038 H 92.8484 1.2095 -2.2415 0
M  V30 1039 H 93.6314 0.0371471 -3.4328 0
M  V30 1040 N 96.0765 1.50051 0.48192 0
M  V30 1041 C 97.3245 1.60181 1.23234 0
M  V30 1042 C 97.6455 0.299176 1.92691 0
M  V30 1043 O 96.9155 -0.682708 1.83619 0
M  V30 1044 H 95.4955 0.590232 0.457859 0
M  V30 1045 H 98.1575 1.86775 0.556881 0
M  V30 1046 H 97.2535 2.40753 1.98607 0
M  V30 1047 N 97.5546 -0.734337 1.39446 0
M  V30 1048 C 98.7796 -1.52866 1.40167 0
M  V30 1049 C 99.2046 -1.881 -0.00171513 0
M  V30 1050 O 98.5626 -1.51957 -0.988879 0
M  V30 1051 C 98.6106 -2.79235 2.28167 0
M  V30 1052 O 97.7146 -3.75185 1.71201 0
M  V30 1053 H 97.0556 -0.461618 0.477289 0
M  V30 1054 H 99.5856 -0.905949 1.8345 0
M  V30 1055 H 99.5956 -3.27963 2.42702 0
M  V30 1056 H 98.2706 -2.52923 3.30156 0
M  V30 1057 H 96.8476 -3.33958 1.65912 0
M  V30 1058 N 99.0327 -1.24633 -0.964593 0
M  V30 1059 C 100.258 -1.11596 -1.74818 0
M  V30 1060 C 100.683 0.32723 -1.85232 0
M  V30 1061 O 100.041 1.23695 -1.32549 0
M  V30 1062 C 100.089 -1.76397 -3.1451 0
M  V30 1063 O 99.1927 -1.03685 -3.99153 0
M  V30 1064 H 98.5337 -0.390196 -0.537255 0
M  V30 1065 H 101.064 -1.65002 -1.20977 0
M  V30 1066 H 101.074 -1.8228 -3.65018 0
M  V30 1067 H 99.7487 -2.81401 -3.06246 0
M  V30 1068 H 98.3257 -1.05611 -3.57632 0
M  V30 1069 N 100.511 1.16574 -1.06058 0
M  V30 1070 C 101.922 1.68662 -0.800632 0
M  V30 1071 C 102.273 1.84184 0.67608 0
M  V30 1072 O 101.398 1.53568 1.52466 0
M  V30 1073 C 101.993 3.06356 -1.44676 0
M  V30 1074 C 100.552 3.55575 -1.23465 0
M  V30 1075 C 99.6988 2.31616 -1.52477 0
M  V30 1076 H 102.65 1.00969 -1.22438 0
M  V30 1077 H 102.671 3.70636 -0.860788 0
M  V30 1078 H 102.183 2.95027 -2.52152 0
M  V30 1079 H 100.284 3.72167 -0.179527 0
M  V30 1080 H 100.397 4.37812 -1.94571 0
M  V30 1081 H 98.7608 2.36512 -0.945209 0
M  V30 1082 H 99.5438 2.22887 -2.61106 0
M  V30 1083 N 101.989 0.842826 1.3317 0
M  V30 1084 C 103.217 0.454055 2.01856 0
M  V30 1085 C 103.632 -0.94587 1.63397 0
M  V30 1086 O 102.989 -1.61534 0.849302 0
M  V30 1087 C 103.04 0.569715 3.56982 0
M  V30 1088 O 102.761 1.91448 3.94055 0
M  V30 1089 C 104.262 0.178412 4.42941 0
M  V30 1090 H 101.482 0.17979 0.646465 0
M  V30 1091 H 104.026 1.1365 1.70012 0
M  V30 1092 H 102.181 -0.0648587 3.87346 0
M  V30 1093 H 102.595 1.90282 4.88767 0
M  V30 1094 H 104.069 0.310376 5.51127 0
M  V30 1095 H 104.546 -0.880056 4.30293 0
M  V30 1096 H 105.152 0.787579 4.17944 0
M  V30 1097 N 103.467 -1.45747 0.599634 0
M  V30 1098 C 104.878 -1.85853 0.177681 0
M  V30 1099 C 105.229 -1.50102 -1.26348 0
M  V30 1100 O 104.354 -0.923905 -1.95686 0
M  V30 1101 C 104.949 -3.37326 0.315688 0
M  V30 1102 C 103.508 -3.76365 -0.0515144 0
M  V30 1103 C 102.655 -2.69722 0.643822 0
M  V30 1104 H 105.606 -1.36661 0.806814 0
M  V30 1105 H 105.627 -3.77778 -0.454321 0
M  V30 1106 H 105.139 -3.63315 1.36468 0
M  V30 1107 H 103.24 -3.55993 -1.09999 0
M  V30 1108 H 103.353 -4.77916 0.336594 0
M  V30 1109 H 101.717 -2.54567 0.0822881 0
M  V30 1110 H 102.5 -2.98549 1.6948 0
M  V30 1111 N 104.945 -0.338344 -1.53925 0
M  V30 1112 C 105.855 0.529421 -2.28548 0
M  V30 1113 C 106.871 1.11645 -1.3346 0
M  V30 1114 O 108.047 1.13325 -1.66492 0
M  V30 1115 C 105.112 1.66713 -3.03987 0
M  V30 1116 C 104.173 1.11041 -4.14691 0
M  V30 1117 C 103.406 2.19389 -4.86522 0
M  V30 1118 O 103.629 3.40013 -4.57982 0
M  V30 1119 O 102.563 1.83976 -5.73094 0
M  V30 1120 H 106.389 -0.0770399 -3.03602 0
M  V30 1121 H 103.974 -0.103555 -1.49041 0
M  V30 1122 H 105.856 2.32918 -3.5118 0
M  V30 1123 H 104.531 2.25949 -2.31794 0
M  V30 1124 H 103.438 0.413024 -3.71813 0
M  V30 1125 H 104.771 0.562975 -4.8897 0
M  V30 1126 N 106.423 1.57458 -0.0668435 0
M  V30 1127 C 107.834 1.80776 0.466558 0
M  V30 1128 C 108.185 0.980361 1.69951 0
M  V30 1129 O 107.31 0.201441 2.1546 0
M  V30 1130 C 107.905 3.27881 0.85321 0
M  V30 1131 C 106.464 3.52062 1.3315 0
M  V30 1132 C 105.611 2.75513 0.314264 0
M  V30 1133 H 108.562 1.5598 -0.292588 0
M  V30 1134 H 108.583 3.39659 1.715 0
M  V30 1135 H 108.095 3.88075 -0.0443439 0
M  V30 1136 H 106.196 2.97167 2.24772 0
M  V30 1137 H 106.309 4.60762 1.31285 0
M  V30 1138 H 104.673 2.42123 0.790492 0
M  V30 1139 H 105.456 3.38442 -0.575477 0
M  V30 1140 N 107.901 -0.206675 1.56239 0
M  V30 1141 C 109.312 -0.772383 1.69974 0
M  V30 1142 C 109.663 -1.84353 0.671436 0
M  V30 1143 O 108.788 -2.15695 -0.174491 0
M  V30 1144 C 109.383 -1.40779 3.08167 0
M  V30 1145 C 107.942 -1.92072 3.23706 0
M  V30 1146 C 107.089 -0.786347 2.65917 0
M  V30 1147 H 110.04 0.0182223 1.5869 0
M  V30 1148 H 110.061 -2.27696 3.04852 0
M  V30 1149 H 109.573 -0.627958 3.82986 0
M  V30 1150 H 107.674 -2.7281 2.53782 0
M  V30 1151 H 107.787 -2.09046 4.31087 0
M  V30 1152 H 106.151 -1.1976 2.24788 0
M  V30 1153 H 106.934 -0.0189416 3.43295 0
M  V30 1154 N 109.379 -1.50304 -0.473955 0
M  V30 1155 C 110.311 -1.65109 -1.58971 0
M  V30 1156 C 111.324 -0.532676 -1.53839 0
M  V30 1157 O 112.513 -0.805751 -1.59279 0
M  V30 1158 C 109.613 -1.61684 -2.97845 0
M  V30 1159 C 108.786 -2.8951 -3.27876 0
M  V30 1160 C 107.845 -2.78768 -4.4629 0
M  V30 1161 O 106.871 -3.52722 -4.46739 0
M  V30 1162 N 108.073 -1.9213 -5.47783 0
M  V30 1163 H 110.838 -2.61347 -1.46689 0
M  V30 1164 H 108.399 -1.47732 -0.662324 0
M  V30 1165 H 110.391 -1.52114 -3.75024 0
M  V30 1166 H 108.961 -0.731925 -3.03911 0
M  V30 1167 H 108.181 -3.13228 -2.39336 0
M  V30 1168 H 109.469 -3.74199 -3.4475 0
M  V30 1169 H 108.867 -1.31353 -5.50239 0
M  V30 1170 H 107.424 -1.88466 -6.23958 0
M  V30 1171 N 110.857 0.726932 -1.39834 0
M  V30 1172 C 111.804 1.841 -1.39197 0
M  V30 1173 C 112.774 1.642 -0.250502 0
M  V30 1174 O 113.959 1.85494 -0.446846 0
M  V30 1175 C 111.099 3.21697 -1.24919 0
M  V30 1176 C 110.212 3.53247 -2.48678 0
M  V30 1177 C 109.347 4.80289 -2.26928 0
M  V30 1178 C 108.386 5.04707 -3.4632 0
M  V30 1179 N 107.523 6.22956 -3.23836 0
M  V30 1180 H 112.363 1.83979 -2.34427 0
M  V30 1181 H 109.9 0.898876 -1.16442 0
M  V30 1182 H 111.858 4.01137 -1.1465 0
M  V30 1183 H 110.488 3.21076 -0.333153 0
M  V30 1184 H 109.54 2.68447 -2.69519 0
M  V30 1185 H 110.852 3.67205 -3.37582 0
M  V30 1186 H 110.006 5.67725 -2.13947 0
M  V30 1187 H 108.745 4.68519 -1.35431 0
M  V30 1188 H 107.75 4.1573 -3.5979 0
M  V30 1189 H 108.975 5.18357 -4.38729 0
M  V30 1190 H 106.921 6.12459 -2.35011 0
M  V30 1191 H 106.838 6.37539 -4.063 0
M  V30 1192 H 108.106 7.1321 -3.14566 0
M  V30 1193 N 112.336 1.25143 0.95797 0
M  V30 1194 C 113.246 1.06968 2.08794 0
M  V30 1195 C 114.262 0.00773911 1.73998 0
M  V30 1196 O 115.438 0.207972 2.00323 0
M  V30 1197 C 112.503 0.68691 3.39827 0
M  V30 1198 C 111.564 1.82641 3.88511 0
M  V30 1199 C 110.797 1.46181 5.1329 0
M  V30 1200 O 111.02 0.355971 5.69288 0
M  V30 1201 O 109.954 2.29085 5.566 0
M  V30 1202 H 113.78 2.01723 2.27027 0
M  V30 1203 H 111.365 1.04051 1.07209 0
M  V30 1204 H 113.247 0.485417 4.18595 0
M  V30 1205 H 111.922 -0.231417 3.22872 0
M  V30 1206 H 110.829 2.08274 3.10762 0
M  V30 1207 H 112.162 2.72386 4.09959 0
M  V30 1208 N 113.814 -1.1601 1.06675 0
M  V30 1209 C 115.06 -1.86909 0.786945 0
M  V30 1210 C 115.393 -1.81717 -0.685018 0
M  V30 1211 O 114.668 -1.23551 -1.50218 0
M  V30 1212 C 114.951 -3.36313 1.28707 0
M  V30 1213 C 114.804 -3.50175 2.82308 0
M  V30 1214 C 116.123 -4.3084 0.898071 0
M  V30 1215 H 113.242 -0.678677 0.287343 0
M  V30 1216 H 115.884 -1.36336 1.32334 0
M  V30 1217 H 114.034 -3.79513 0.830768 0
M  V30 1218 H 115.706 -3.15886 3.36175 0
M  V30 1219 H 113.949 -2.91959 3.20847 0
M  V30 1220 H 114.62 -4.55116 3.12368 0
M  V30 1221 H 117.096 -3.95561 1.29114 0
M  V30 1222 H 115.972 -5.33876 1.27543 0
M  V30 1223 H 116.233 -4.41662 -0.196651 0
M  V30 1224 N 115.292 -0.849877 -1.32721 0
M  V30 1225 C 116.224 -0.248332 -2.27851 0
M  V30 1226 C 117.237 0.577218 -1.52224 0
M  V30 1227 O 118.426 0.402489 -1.73903 0
M  V30 1228 C 115.526 0.668107 -3.32249 0
M  V30 1229 C 114.699 -0.120534 -4.37234 0
M  V30 1230 C 113.758 0.720932 -5.21238 0
M  V30 1231 O 112.784 0.156166 -5.68986 0
M  V30 1232 N 113.986 2.03647 -5.43607 0
M  V30 1233 H 116.751 -1.06575 -2.80111 0
M  V30 1234 H 114.312 -0.709395 -1.45531 0
M  V30 1235 H 116.304 1.23627 -3.85355 0
M  V30 1236 H 114.874 1.38621 -2.80184 0
M  V30 1237 H 114.094 -0.870108 -3.84477 0
M  V30 1238 H 115.382 -0.662406 -5.0447 0
M  V30 1239 H 114.78 2.51871 -5.06535 0
M  V30 1240 H 113.337 2.55287 -5.99727 0
M  V30 1241 N 116.77 1.45427 -0.607355 0
M  V30 1242 C 117.717 2.3053 0.111625 0
M  V30 1243 C 118.687 1.4209 0.860216 0
M  V30 1244 O 119.872 1.71019 0.845998 0
M  V30 1245 C 117.012 3.26992 1.10319 0
M  V30 1246 C 116.125 4.30535 0.355493 0
M  V30 1247 C 115.26 5.14105 1.33676 0
M  V30 1248 C 114.299 6.09376 0.576862 0
M  V30 1249 N 113.436 6.85727 1.5074 0
M  V30 1250 H 118.276 2.91477 -0.620093 0
M  V30 1251 H 115.813 1.43631 -0.317594 0
M  V30 1252 H 117.771 3.81385 1.6912 0
M  V30 1253 H 116.401 2.67799 1.80232 0
M  V30 1254 H 115.453 3.78805 -0.348023 0
M  V30 1255 H 116.765 4.98235 -0.237423 0
M  V30 1256 H 115.919 5.72897 1.99684 0
M  V30 1257 H 114.658 4.46423 1.9636 0
M  V30 1258 H 113.663 5.49715 -0.0968519 0
M  V30 1259 H 114.888 6.79085 -0.0449341 0
M  V30 1260 H 112.834 6.20735 2.12189 0
M  V30 1261 H 112.751 7.49778 0.967913 0
M  V30 1262 H 114.019 7.4906 2.15706 0
M  V30 1263 N 118.248 0.346503 1.53744 0
M  V30 1264 C 119.158 -0.517293 2.28826 0
M  V30 1265 C 120.174 -1.10935 1.3405 0
M  V30 1266 O 121.35 -1.1244 1.6709 0
M  V30 1267 C 118.415 -1.65098 3.04866 0
M  V30 1268 C 117.476 -1.0884 4.15274 0
M  V30 1269 C 116.709 -2.16806 4.87679 0
M  V30 1270 O 116.932 -3.3758 4.59778 0
M  V30 1271 O 115.866 -1.80934 5.74061 0
M  V30 1272 H 119.692 0.0931396 3.03557 0
M  V30 1273 H 117.277 0.111458 1.48984 0
M  V30 1274 H 119.159 -2.31053 3.5241 0
M  V30 1275 H 117.834 -2.24717 2.32989 0
M  V30 1276 H 116.741 -0.3933 3.72027 0
M  V30 1277 H 118.074 -0.537036 4.89261 0
M  V30 1278 N 119.726 -1.57421 0.075193 0
M  V30 1279 C 120.974 -1.93236 -0.591974 0
M  V30 1280 C 121.295 -0.956241 -1.69944 0
M  V30 1281 O 120.565 -0.00494792 -1.95899 0
M  V30 1282 H 119.145 -0.713355 -0.22166 0
M  V30 1283 H 121.807 -1.9444 0.133848 0
M  V30 1284 H 120.903 -2.95131 -1.01509 0
M  V30 1285 N 121.204 0.198386 -1.56346 0
M  V30 1286 C 122.167 1.22952 -1.93431 0
M  V30 1287 C 123.167 1.38611 -0.815092 0
M  V30 1288 O 124.357 1.36479 -1.08255 0
M  V30 1289 C 121.489 2.59946 -2.20546 0
M  V30 1290 H 122.682 0.912626 -2.85677 0
M  V30 1291 H 120.235 0.43977 -1.49986 0
M  V30 1292 H 120.97 2.96696 -1.30927 0
M  V30 1293 H 120.755 2.49953 -3.02102 0
M  V30 1294 H 122.245 3.3431 -2.50253 0
M  V30 1295 N 122.682 1.50554 0.465978 0
M  V30 1296 C 123.645 1.69233 1.54574 0
M  V30 1297 C 124.645 0.562901 1.50626 0
M  V30 1298 O 125.835 0.830016 1.53155 0
M  V30 1299 C 122.967 1.7223 2.94193 0
M  V30 1300 H 124.16 2.65571 1.39327 0
M  V30 1301 H 121.713 1.40111 0.692711 0
M  V30 1302 H 122.448 0.77603 3.14878 0
M  V30 1303 H 122.233 2.54285 2.98466 0
M  V30 1304 H 123.723 1.88618 3.72576 0
M  V30 1305 N 124.16 -0.719506 1.40217 0
M  V30 1306 C 125.437 -1.47221 1.28784 0
M  V30 1307 C 125.817 -2.10883 -0.0956067 0
M  V30 1308 O 125.165 -1.99833 -1.10811 0
M  V30 1309 C 125.375 -2.5111 2.42373 0
M  V30 1310 C 126.723 -3.17053 2.82423 0
M  V30 1311 O 127.747 -2.61429 2.41937 0
M  V30 1312 O 126.606 -4.17742 3.52355 0
M  V30 1313 H 123.7 -0.654491 0.50554 0
M  V30 1314 H 126.246 -0.752014 1.52128 0
M  V30 1315 H 125.018 -2.02556 3.34793 0
M  V30 1316 H 124.641 -3.3067 2.20778 0
M  V30 1317 N 125.638 -1.25649 -0.95132 0
M  V30 1318 C 127.049 -1.09654 -1.51106 0
M  V30 1319 C 127.4 0.326615 -1.93462 0
M  V30 1320 O 126.525 1.21697 -1.78938 0
M  V30 1321 C 127.12 -1.98437 -2.74605 0
M  V30 1322 C 125.679 -1.86618 -3.2688 0
M  V30 1323 C 124.826 -1.9239 -1.99703 0
M  V30 1324 H 127.777 -1.38887 -0.767865 0
M  V30 1325 H 127.798 -1.5263 -3.48546 0
M  V30 1326 H 127.31 -3.02009 -2.43746 0
M  V30 1327 H 125.411 -0.859421 -3.62553 0
M  V30 1328 H 125.524 -2.71607 -3.94673 0
M  V30 1329 H 123.888 -1.36317 -2.15151 0
M  V30 1330 H 124.671 -2.97573 -1.71188 0
M  V30 1331 N 127.117 1.15442 -1.07289 0
M  V30 1332 C 128.064 2.20161 -0.692653 0
M  V30 1333 C 129.034 1.63073 0.31564 0
M  V30 1334 O 130.219 1.89725 0.202235 0
M  V30 1335 C 127.359 3.44967 -0.0959509 0
M  V30 1336 C 126.472 4.16256 -1.15564 0
M  V30 1337 C 125.607 5.28609 -0.524011 0
M  V30 1338 C 124.646 5.91715 -1.56653 0
M  V30 1339 N 123.783 6.9554 -0.957531 0
M  V30 1340 H 128.623 2.52037 -1.59002 0
M  V30 1341 H 126.16 1.2378 -0.794798 0
M  V30 1342 H 128.118 4.16341 0.267628 0
M  V30 1343 H 126.748 3.1361 0.764772 0
M  V30 1344 H 125.8 3.43385 -1.6368 0
M  V30 1345 H 127.112 4.59268 -1.94613 0
M  V30 1346 H 126.266 6.06604 -0.108032 0
M  V30 1347 H 125.005 4.86787 0.29825 0
M  V30 1348 H 124.01 5.12433 -1.9923 0
M  V30 1349 H 125.235 6.35614 -2.39107 0
M  V30 1350 H 123.181 6.55814 -0.156162 0
M  V30 1351 H 123.098 7.36977 -1.68526 0
M  V30 1352 H 124.366 7.77435 -0.567032 0
M  V30 1353 N 128.595 0.856903 1.32268 0
M  V30 1354 C 129.527 0.260412 2.27716 0
M  V30 1355 C 130.54 -0.569137 1.52528 0
M  V30 1356 O 131.729 -0.39326 1.74114 0
M  V30 1357 C 128.829 -0.650477 3.32599 0
M  V30 1358 C 128.002 0.14372 4.37164 0
M  V30 1359 C 127.061 -0.69328 5.21613 0
M  V30 1360 O 126.087 -0.12599 5.69061 0
M  V30 1361 N 127.289 -2.00761 5.44679 0
M  V30 1362 H 130.054 1.08059 2.79541 0
M  V30 1363 H 127.615 0.717103 1.45152 0
M  V30 1364 H 129.607 -1.21581 3.86005 0
M  V30 1365 H 128.177 -1.37133 2.80915 0
M  V30 1366 H 127.397 0.890486 3.8401 0
M  V30 1367 H 128.685 0.68915 5.04111 0
M  V30 1368 H 128.083 -2.49181 5.07863 0
M  V30 1369 H 126.64 -2.52103 6.01072 0
M  V30 1370 N 130.073 -1.45103 0.615059 0
M  V30 1371 C 131.319 -2.02483 0.113347 0
M  V30 1372 C 131.652 -1.48146 -1.25564 0
M  V30 1373 O 130.927 -0.659104 -1.82992 0
M  V30 1374 C 131.21 -3.60005 0.0825278 0
M  V30 1375 C 131.063 -4.2466 1.48271 0
M  V30 1376 C 132.382 -4.35972 -0.601401 0
M  V30 1377 H 129.501 -0.735764 0.0426632 0
M  V30 1378 H 132.143 -1.72868 0.788461 0
M  V30 1379 H 130.293 -3.85367 -0.492378 0
M  V30 1380 H 131.965 -4.10458 2.10527 0
M  V30 1381 H 130.208 -3.82772 2.04127 0
M  V30 1382 H 130.879 -5.336 1.41332 0
M  V30 1383 H 133.355 -4.15947 -0.112666 0
M  V30 1384 H 132.231 -5.45697 -0.592097 0
M  V30 1385 H 132.492 -4.09391 -1.66887 0
M  V30 1386 N 131.551 -0.354651 -1.53558 0
M  V30 1387 C 132.799 0.237972 -2.00694 0
M  V30 1388 C 133.12 1.50173 -1.24391 0
M  V30 1389 O 132.39 1.92673 -0.354135 0
M  V30 1390 H 130.97 0.0909256 -0.741446 0
M  V30 1391 H 133.632 -0.478368 -1.88938 0
M  V30 1392 H 132.728 0.47264 -3.085 0
M  V30 1393 N 133.029 1.57378 -0.0835403 0
M  V30 1394 C 133.939 2.16897 0.894021 0
M  V30 1395 C 134.955 1.13528 1.31861 0
M  V30 1396 O 136.131 1.45848 1.3889 0
M  V30 1397 C 133.196 2.72831 2.13925 0
M  V30 1398 C 132.257 3.91115 1.76997 0
M  V30 1399 C 131.49 4.44371 2.95584 0
M  V30 1400 O 131.713 3.96596 4.09961 0
M  V30 1401 O 130.647 5.35549 2.74719 0
M  V30 1402 H 134.473 3.00814 0.417679 0
M  V30 1403 H 132.058 1.48741 0.140181 0
M  V30 1404 H 133.94 3.0863 2.86924 0
M  V30 1405 H 132.615 1.91967 2.60635 0
M  V30 1406 H 131.522 3.60148 1.01214 0
M  V30 1407 H 132.855 4.73307 1.3506 0
M  V30 1408 N 134.507 -0.190092 1.56449 0
M  V30 1409 C 135.918 -0.754312 1.70784 0
M  V30 1410 C 136.269 -1.83631 0.690951 0
M  V30 1411 O 135.394 -2.15868 -0.151604 0
M  V30 1412 C 135.989 -1.37503 3.09642 0
M  V30 1413 C 134.548 -1.88628 3.25725 0
M  V30 1414 C 133.695 -0.758098 2.66736 0
M  V30 1415 H 136.646 0.0350524 1.58661 0
M  V30 1416 H 136.667 -2.2445 3.0725 0
M  V30 1417 H 136.179 -0.587302 3.83631 0
M  V30 1418 H 134.28 -2.70103 2.56661 0
M  V30 1419 H 134.393 -2.04462 4.3328 0
M  V30 1420 H 132.757 -1.17369 2.26046 0
M  V30 1421 H 133.54 0.0174705 3.43296 0
M  V30 1422 N 135.985 -1.50799 -0.457987 0
M  V30 1423 C 137.21 -1.66496 -1.23668 0
M  V30 1424 C 137.635 -0.353288 -1.84752 0
M  V30 1425 O 136.993 0.684346 -1.67888 0
M  V30 1426 C 137.041 -2.76763 -2.3116 0
M  V30 1427 O 136.145 -2.38928 -3.36136 0
M  V30 1428 H 135.486 -0.555828 -0.363252 0
M  V30 1429 H 138.016 -1.9725 -0.543474 0
M  V30 1430 H 138.026 -3.00232 -2.76269 0
M  V30 1431 H 136.701 -3.71954 -1.86073 0
M  V30 1432 H 135.278 -2.25953 -2.96647 0
M  V30 1433 N 137.463 0.71206 -1.40597 0
M  V30 1434 C 138.711 1.46907 -1.38791 0
M  V30 1435 C 139.032 1.94998 0.00780391 0
M  V30 1436 O 138.302 1.70587 0.963174 0
M  V30 1437 H 136.882 0.545043 -0.51082 0
M  V30 1438 H 139.544 0.843882 -1.75683 0
M  V30 1439 H 138.64 2.34021 -2.06496 0
M  V30 1440 N 138.941 1.26152 0.944643 0
M  V30 1441 C 139.873 1.03199 2.04652 0
M  V30 1442 C 140.886 -0.00642356 1.62799 0
M  V30 1443 O 142.075 0.233263 1.76969 0
M  V30 1444 C 139.175 0.540111 3.34568 0
M  V30 1445 C 138.348 1.64697 4.05208 0
M  V30 1446 C 137.407 1.15374 5.13396 0
M  V30 1447 O 136.433 1.85013 5.38293 0
M  V30 1448 N 137.635 0.00031529 5.805 0
M  V30 1449 H 140.4 1.9808 2.2491 0
M  V30 1450 H 137.961 1.17491 1.11389 0
M  V30 1451 H 139.953 0.194401 4.04233 0
M  V30 1452 H 138.523 -0.315021 3.11009 0
M  V30 1453 H 137.743 2.16379 3.29506 0
M  V30 1454 H 139.031 2.3903 4.49157 0
M  V30 1455 H 138.429 -0.581336 5.62705 0
M  V30 1456 H 136.986 -0.286346 6.51171 0
M  V30 1457 N 140.419 -1.14872 1.07899 0
M  V30 1458 C 141.366 -2.19791 0.704319 0
M  V30 1459 C 142.336 -1.63238 -0.306987 0
M  V30 1460 O 143.521 -1.8983 -0.192171 0
M  V30 1461 C 140.661 -3.44911 0.114244 0
M  V30 1462 C 139.774 -4.15637 1.1777 0
M  V30 1463 C 138.909 -5.28324 0.552037 0
M  V30 1464 C 137.948 -5.90875 1.59789 0
M  V30 1465 N 137.085 -6.95022 0.994404 0
M  V30 1466 H 141.925 -2.5119 1.60336 0
M  V30 1467 H 139.462 -1.23356 0.801352 0
M  V30 1468 H 141.42 -4.16477 -0.245544 0
M  V30 1469 H 140.05 -3.14011 -0.74813 0
M  V30 1470 H 139.102 -3.42512 1.65499 0
M  V30 1471 H 140.414 -4.5823 1.97046 0
M  V30 1472 H 139.568 -6.06538 0.1402 0
M  V30 1473 H 138.307 -4.86939 -0.272431 0
M  V30 1474 H 137.312 -5.11369 2.01945 0
M  V30 1475 H 138.537 -6.34337 2.42474 0
M  V30 1476 H 136.483 -6.55722 0.190939 0
M  V30 1477 H 136.4 -7.36073 1.72432 0
M  V30 1478 H 137.668 -7.77123 0.608253 0
M  V30 1479 N 141.898 -0.863906 -1.31812 0
M  V30 1480 C 143.126 -0.486111 -2.01108 0
M  V30 1481 C 143.541 0.919755 -1.64882 0
M  V30 1482 O 142.898 1.60162 -0.874893 0
M  V30 1483 C 142.949 -0.626435 -3.56031 0
M  V30 1484 O 142.67 -1.97693 -3.90959 0
M  V30 1485 C 144.171 -0.248857 -4.42601 0
M  V30 1486 H 141.391 -0.190052 -0.643523 0
M  V30 1487 H 143.935 -1.1634 -1.68182 0
M  V30 1488 H 142.09 0.00322717 -3.874 0
M  V30 1489 H 142.504 -1.98034 -4.85678 0
M  V30 1490 H 143.978 -0.398016 -5.50563 0
M  V30 1491 H 144.455 0.811489 -4.31638 0
M  V30 1492 H 145.061 -0.853971 -4.16638 0
M  V30 1493 N 143.376 1.44774 -0.622745 0
M  V30 1494 C 144.306 2.33382 0.0741861 0
M  V30 1495 C 145.287 1.47719 0.843387 0
M  V30 1496 O 146.472 1.76458 0.810934 0
M  V30 1497 C 143.602 3.30663 1.06204 0
M  V30 1498 C 142.556 4.26079 0.405037 0
M  V30 1499 C 141.882 5.13165 1.5022 0
M  V30 1500 C 143.182 5.1781 -0.683414 0
M  V30 1501 H 144.876 2.91905 -0.665713 0
M  V30 1502 H 142.422 1.40363 -0.321587 0
M  V30 1503 H 144.375 3.9153 1.55827 0
M  V30 1504 H 143.099 2.70331 1.83272 0
M  V30 1505 H 141.758 3.66532 -0.0704683 0
M  V30 1506 H 141.406 4.49191 2.26355 0
M  V30 1507 H 141.106 5.77812 1.06803 0
M  V30 1508 H 142.63 5.76902 2.00041 0
M  V30 1509 H 144.044 5.72661 -0.270631 0
M  V30 1510 H 142.441 5.91015 -1.04023 0
M  V30 1511 H 143.511 4.59326 -1.55395 0
M  V30 1512 N 144.854 0.36279 1.53368 0
M  V30 1513 C 146.131 -0.284021 1.93527 0
M  V30 1514 C 146.511 -1.66628 1.29608 0
M  V30 1515 O 145.859 -2.23942 0.45413 0
M  V30 1516 C 146.069 -0.337028 3.47369 0
M  V30 1517 C 147.417 -0.578708 4.20638 0
M  V30 1518 O 148.441 -0.418352 3.53735 0
M  V30 1519 O 147.3 -0.89074 5.39192 0
M  V30 1520 H 144.394 -0.169743 0.809393 0
M  V30 1521 H 146.94 0.41537 1.64538 0
M  V30 1522 H 145.712 0.632217 3.86159 0
M  V30 1523 H 145.335 -1.08243 3.82582 0
M  V30 1524 N 146.332 -1.57332 0.0918853 0
M  V30 1525 C 147.58 -1.93853 -0.571446 0
M  V30 1526 C 147.901 -0.974212 -1.6892 0
M  V30 1527 O 147.171 -0.0257254 -1.95883 0
M  V30 1528 H 145.751 -0.715666 -0.214082 0
M  V30 1529 H 148.413 -1.94287 0.154464 0
M  V30 1530 H 147.509 -2.96191 -0.983729 0
M  V30 1531 N 147.81 0.181792 -1.56548 0
M  V30 1532 C 149.035 0.920019 -1.85877 0
M  V30 1533 C 149.46 1.75494 -0.677021 0
M  V30 1534 O 148.818 1.77399 0.374056 0
M  V30 1535 C 148.866 1.78112 -3.13542 0
M  V30 1536 O 147.97 2.88152 -2.95029 0
M  V30 1537 H 147.311 0.258334 -0.611686 0
M  V30 1538 H 149.841 0.183092 -2.03779 0
M  V30 1539 H 149.851 2.18314 -3.44678 0
M  V30 1540 H 148.526 1.16777 -3.99169 0
M  V30 1541 H 147.103 2.51609 -2.75222 0
M  V30 1542 N 149.288 1.51039 0.449983 0
M  V30 1543 C 150.513 1.6715 1.22783 0
M  V30 1544 C 150.938 0.363081 1.84563 0
M  V30 1545 O 150.296 -0.675433 1.68249 0
M  V30 1546 C 150.344 2.77985 2.29689 0
M  V30 1547 O 149.448 2.40707 3.34864 0
M  V30 1548 H 148.789 0.557746 0.360299 0
M  V30 1549 H 151.319 1.97535 0.533005 0
M  V30 1550 H 151.329 3.01693 2.74673 0
M  V30 1551 H 150.004 3.72935 1.84098 0
M  V30 1552 H 148.581 2.27523 2.95445 0
M  V30 1553 N 150.766 -0.704594 1.40972 0
M  V30 1554 C 152.182 -1.01406 1.23244 0
M  V30 1555 C 152.382 -2.01169 0.115399 0
M  V30 1556 O 151.438 -2.47021 -0.523147 0
M  V30 1557 C 152.751 -1.54728 2.57836 0
M  V30 1558 C 154.299 -1.66658 2.64942 0
M  V30 1559 C 154.774 -2.23383 3.9983 0
M  V30 1560 N 156.265 -2.30756 4.01629 0
M  V30 1561 C 157 -2.75655 5.02794 0
M  V30 1562 N 156.496 -3.20225 6.14352 0
M  V30 1563 N 158.289 -2.75138 4.90159 0
M  V30 1564 H 150.44 -0.0435285 2.12355 0
M  V30 1565 H 152.703 -0.0818951 0.944456 0
M  V30 1566 H 152.409 -0.888832 3.40283 0
M  V30 1567 H 152.283 -2.53084 2.79693 0
M  V30 1568 H 154.67 -2.31617 1.8286 0
M  V30 1569 H 154.751 -0.668717 2.46904 0
M  V30 1570 H 154.395 -1.59043 4.82357 0
M  V30 1571 H 154.325 -3.23904 4.15203 0
M  V30 1572 H 156.816 -1.99291 3.21079 0
M  V30 1573 H 157.129 -3.53084 6.87424 0
M  V30 1574 H 155.474 -3.18156 6.17901 0
M  V30 1575 H 158.665 -2.39661 4.02095 0
M  V30 1576 H 158.838 -3.09812 5.6914 0
M  V30 1577 N 152.244 -1.26651 -0.937939 0
M  V30 1578 C 153.469 -1.15279 -1.72411 0
M  V30 1579 C 153.894 0.287866 -1.85884 0
M  V30 1580 O 153.252 1.20855 -1.35143 0
M  V30 1581 C 153.3 -1.83028 -3.10698 0
M  V30 1582 O 152.404 -1.12128 -3.96864 0
M  V30 1583 H 151.745 -0.401504 -0.528858 0
M  V30 1584 H 154.275 -1.67531 -1.1745 0
M  V30 1585 H 154.285 -1.89981 -3.6107 0
M  V30 1586 H 152.96 -2.87833 -3.00208 0
M  V30 1587 H 151.537 -1.13173 -3.55312 0
M  V30 1588 N 153.722 1.14298 -1.08507 0
M  V30 1589 C 154.685 2.17607 -0.719711 0
M  V30 1590 C 155.685 1.58907 0.245997 0
M  V30 1591 O 156.875 1.74181 0.0254081 0
M  V30 1592 C 154.007 3.40842 -0.0627695 0
M  V30 1593 H 155.2 2.51443 -1.63452 0
M  V30 1594 H 152.753 1.28963 -0.88307 0
M  V30 1595 H 153.488 3.12587 0.863716 0
M  V30 1596 H 153.273 3.84713 -0.757504 0
M  V30 1597 H 154.763 4.17221 0.177786 0
M  V30 1598 N 155.201 0.870884 1.31352 0
M  V30 1599 C 156.111 0.330783 2.32256 0
M  V30 1600 C 157.127 -0.559767 1.6475 0
M  V30 1601 O 158.303 -0.456263 1.96164 0
M  V30 1602 C 155.368 -0.458137 3.4366 0
M  V30 1603 C 154.429 0.460482 4.26823 0
M  V30 1604 C 153.662 -0.290881 5.32907 0
M  V30 1605 O 153.885 -1.51885 5.49806 0
M  V30 1606 O 152.819 0.351732 6.00871 0
M  V30 1607 H 156.645 1.16718 2.80376 0
M  V30 1608 H 154.23 0.634285 1.35267 0
M  V30 1609 H 156.112 -0.905343 4.1156 0
M  V30 1610 H 154.787 -1.27106 2.97701 0
M  V30 1611 H 153.694 0.956207 3.61673 0
M  V30 1612 H 155.027 1.23903 4.7635 0
M  V30 1613 N 156.679 -1.44442 0.630414 0
M  V30 1614 C 157.609 -2.33418 -0.0618083 0
M  V30 1615 C 158.59 -1.48165 -0.835541 0
M  V30 1616 O 159.775 -1.76886 -0.801564 0
M  V30 1617 C 156.905 -3.31222 -1.04449 0
M  V30 1618 C 155.859 -4.26288 -0.382436 0
M  V30 1619 C 155.185 -5.13954 -1.47497 0
M  V30 1620 C 156.485 -5.1744 0.710865 0
M  V30 1621 H 158.179 -2.91548 0.681184 0
M  V30 1622 H 155.725 -1.40191 0.329026 0
M  V30 1623 H 157.678 -3.92351 -1.53748 0
M  V30 1624 H 156.402 -2.71299 -1.81836 0
M  V30 1625 H 155.061 -3.6649 0.0899054 0
M  V30 1626 H 154.709 -4.50385 -2.2397 0
M  V30 1627 H 154.409 -5.7837 -1.03737 0
M  V30 1628 H 155.933 -5.77955 -1.96979 0
M  V30 1629 H 157.347 -5.72509 0.300996 0
M  V30 1630 H 155.744 -5.90455 1.07156 0
M  V30 1631 H 156.814 -4.58496 1.57829 0
M  V30 1632 N 158.157 -0.370918 -1.53173 0
M  V30 1633 C 159.403 0.217423 -2.01631 0
M  V30 1634 C 159.736 1.47983 -1.25756 0
M  V30 1635 O 159.011 1.91274 -0.352764 0
M  V30 1636 C 159.294 0.503982 -3.56556 0
M  V30 1637 C 159.147 -0.77243 -4.43118 0
M  V30 1638 C 160.466 1.30234 -4.20389 0
M  V30 1639 H 157.585 0.0775486 -0.732909 0
M  V30 1640 H 160.227 -0.496863 -1.83388 0
M  V30 1641 H 158.377 1.11248 -3.72231 0
M  V30 1642 H 160.049 -1.4098 -4.39229 0
M  V30 1643 H 158.292 -1.39167 -4.10871 0
M  V30 1644 H 158.963 -0.526815 -5.4948 0
M  V30 1645 H 161.439 0.787546 -4.08579 0
M  V30 1646 H 160.315 1.47158 -5.28806 0
M  V30 1647 H 160.576 2.31237 -3.76805 0
M  V30 1648 N 159.635 1.57281 -0.100228 0
M  V30 1649 C 161.046 1.81725 0.428107 0
M  V30 1650 C 161.397 1.01619 1.67833 0
M  V30 1651 O 160.522 0.247098 2.14985 0
M  V30 1652 C 161.117 3.29617 0.78347 0
M  V30 1653 C 159.676 3.54808 1.25653 0
M  V30 1654 C 158.823 2.76118 0.255752 0
M  V30 1655 H 161.774 1.55324 -0.325608 0
M  V30 1656 H 161.795 3.4322 1.64256 0
M  V30 1657 H 161.307 3.87893 -0.12665 0
M  V30 1658 H 159.408 3.01868 2.18418 0
M  V30 1659 H 159.521 4.63443 1.21482 0
M  V30 1660 H 157.885 2.43745 0.738956 0
M  V30 1661 H 158.668 3.37145 -0.647136 0
M  V30 1662 N 161.113 -0.173488 1.56642 0
M  V30 1663 C 162.045 -1.23935 1.92802 0
M  V30 1664 C 163.058 -1.40589 0.820889 0
M  V30 1665 O 164.247 -1.40631 1.09933 0
M  V30 1666 C 161.347 -2.60837 2.16373 0
M  V30 1667 C 160.52 -2.6551 3.47596 0
M  V30 1668 C 159.579 -3.8376 3.60021 0
M  V30 1669 O 158.605 -3.69859 4.32658 0
M  V30 1670 N 159.807 -5.00127 2.94709 0
M  V30 1671 H 162.572 -0.932236 2.84832 0
M  V30 1672 H 160.133 -0.363268 1.57772 0
M  V30 1673 H 162.125 -3.38407 2.21952 0
M  V30 1674 H 160.695 -2.83948 1.30738 0
M  V30 1675 H 159.915 -1.74052 3.53694 0
M  V30 1676 H 161.203 -2.65641 4.33949 0
M  V30 1677 H 160.601 -5.14322 2.35563 0
M  V30 1678 H 159.158 -5.75567 3.05886 0
M  V30 1679 N 162.591 -1.51276 -0.441967 0
M  V30 1680 C 163.839 -1.63392 -1.18943 0
M  V30 1681 C 164.16 -0.350159 -1.9183 0
M  V30 1682 O 163.43 0.633784 -1.85364 0
M  V30 1683 H 162.01 -0.602164 -0.442049 0
M  V30 1684 H 164.672 -1.88186 -0.507165 0
M  V30 1685 H 163.768 -2.45934 -1.92154 0
M  V30 1686 N 164.069 0.697108 -1.41344 0
M  V30 1687 C 164.979 1.84088 -1.45427 0
M  V30 1688 C 165.995 1.70545 -0.34501 0
M  V30 1689 O 167.171 1.92488 -0.592492 0
M  V30 1690 C 164.236 3.20056 -1.33286 0
M  V30 1691 C 163.297 3.45718 -2.54514 0
M  V30 1692 C 162.53 4.75199 -2.42944 0
M  V30 1693 O 162.753 5.51579 -1.45318 0
M  V30 1694 O 161.687 5.0161 -3.32672 0
M  V30 1695 H 165.513 1.836 -2.41919 0
M  V30 1696 H 163.098 0.849966 -1.22866 0
M  V30 1697 H 164.98 4.01236 -1.28794 0
M  V30 1698 H 163.655 3.2123 -0.39909 0
M  V30 1699 H 162.562 2.64474 -2.64583 0
M  V30 1700 H 163.895 3.49356 -3.46715 0
M  V30 1701 N 165.547 1.27147 0.931209 0
M  V30 1702 C 166.824 1.0401 1.65654 0
M  V30 1703 C 167.204 -0.426297 2.06751 0
M  V30 1704 O 166.552 -1.40879 1.79904 0
M  V30 1705 C 166.762 1.99834 2.86125 0
M  V30 1706 C 168.11 2.29007 3.57549 0
M  V30 1707 O 169.134 1.97779 2.96246 0
M  V30 1708 O 167.993 2.82222 4.67989 0
M  V30 1709 H 165.087 0.396239 0.725895 0
M  V30 1710 H 167.633 1.38397 0.982056 0
M  V30 1711 H 166.405 2.98744 2.52721 0
M  V30 1712 H 166.028 1.65987 3.61295 0
M  V30 1713 N 167.025 -1.13721 1.09112 0
M  V30 1714 C 168.302 -1.81155 0.737706 0
M  V30 1715 C 168.682 -1.96253 -0.777683 0
M  V30 1716 O 168.03 -1.52807 -1.69889 0
M  V30 1717 C 168.24 -3.16392 1.47299 0
M  V30 1718 C 169.588 -3.91787 1.63671 0
M  V30 1719 O 170.612 -3.26005 1.43524 0
M  V30 1720 O 169.471 -5.0977 1.96969 0
M  V30 1721 H 166.565 -0.783518 0.26463 0
M  V30 1722 H 169.111 -1.20676 1.19312 0
M  V30 1723 H 167.883 -3.0061 2.50498 0
M  V30 1724 H 167.506 -3.8457 1.00953 0
M  V30 1725 N 168.503 -0.877838 -1.30888 0
M  V30 1726 C 169.728 -0.506629 -2.01117 0
M  V30 1727 C 170.153 0.895564 -1.65412 0
M  V30 1728 O 169.511 1.5923 -0.866922 0
M  V30 1729 C 169.559 -0.680223 -3.54126 0
M  V30 1730 O 168.663 0.277033 -4.11468 0
M  V30 1731 H 168.004 -0.200518 -0.633 0
M  V30 1732 H 170.534 -1.18342 -1.66902 0
M  V30 1733 H 170.544 -0.5765 -4.03907 0
M  V30 1734 H 169.219 -1.70261 -3.79452 0
M  V30 1735 H 167.796 0.127606 -3.72682 0
M  V30 1736 N 169.982 1.44106 -0.638065 0
M  V30 1737 C 170.892 2.34513 0.0637334 0
M  V30 1738 C 171.908 1.53018 0.828346 0
M  V30 1739 O 173.084 1.85723 0.779036 0
M  V30 1740 C 170.149 3.31095 1.02844 0
M  V30 1741 C 169.21 4.28497 0.26244 0
M  V30 1742 C 168.443 5.20465 1.1812 0
M  V30 1743 O 168.666 5.16514 2.42011 0
M  V30 1744 O 167.6 5.98251 0.661774 0
M  V30 1745 H 171.426 2.95989 -0.68003 0
M  V30 1746 H 169.011 1.43994 -0.398252 0
M  V30 1747 H 170.893 3.90526 1.58327 0
M  V30 1748 H 169.568 2.72144 1.7527 0
M  V30 1749 H 168.475 3.72592 -0.335602 0
M  V30 1750 H 169.808 4.90388 -0.421936 0
M  V30 1751 N 171.46 0.379036 1.52974 0
M  V30 1752 C 172.69 -0.20649 2.05566 0
M  V30 1753 C 173.098 -1.41906 1.25137 0
M  V30 1754 O 172.441 -1.81421 0.288464 0
M  V30 1755 C 172.503 -0.651086 3.53555 0
M  V30 1756 C 172.167 0.446626 4.54812 0
M  V30 1757 C 173.164 1.30079 5.03364 0
M  V30 1758 C 170.849 0.610719 4.98573 0
M  V30 1759 C 172.843 2.30426 5.94292 0
M  V30 1760 C 170.53 1.61754 5.89304 0
M  V30 1761 C 171.528 2.46274 6.37054 0
M  V30 1762 O 171.216 3.45237 7.25994 0
M  V30 1763 H 170.948 -0.0372381 0.674974 0
M  V30 1764 H 173.502 0.539718 1.98182 0
M  V30 1765 H 171.732 -1.44911 3.58522 0
M  V30 1766 H 173.421 -1.16112 3.88938 0
M  V30 1767 H 174.187 1.18527 4.70294 0
M  V30 1768 H 170.066 -0.0374044 4.60985 0
M  V30 1769 H 173.61 2.96432 6.31485 0
M  V30 1770 H 169.507 1.73348 6.21788 0
M  V30 1771 H 170.275 3.41124 7.44027 0
M  V30 1772 N 172.938 -1.57226 0.108567 0
M  V30 1773 C 173.868 -2.17778 -0.84232 0
M  V30 1774 C 174.849 -1.11487 -1.2847 0
M  V30 1775 O 176.034 -1.39681 -1.34918 0
M  V30 1776 C 173.164 -2.76888 -2.09644 0
M  V30 1777 C 172.118 -3.88669 -1.79221 0
M  V30 1778 C 171.444 -4.34541 -3.11574 0
M  V30 1779 C 172.744 -5.11251 -1.06864 0
M  V30 1780 H 174.438 -2.97489 -0.337774 0
M  V30 1781 H 171.984 -1.43097 -0.161025 0
M  V30 1782 H 173.937 -3.17904 -2.76614 0
M  V30 1783 H 172.661 -1.94451 -2.62405 0
M  V30 1784 H 171.32 -3.48213 -1.14644 0
M  V30 1785 H 170.968 -3.48977 -3.62249 0
M  V30 1786 H 170.668 -5.09914 -2.91996 0
M  V30 1787 H 172.192 -4.782 -3.7968 0
M  V30 1788 H 173.606 -5.49352 -1.63968 0
M  V30 1789 H 172.003 -5.9214 -0.974178 0
M  V30 1790 H 173.073 -4.8487 -0.0536168 0
M  V30 1791 N 174.416 0.165178 -1.56732 0
M  V30 1792 C 175.326 1.22423 -2.00125 0
M  V30 1793 C 176.342 1.48084 -0.913619 0
M  V30 1794 O 177.518 1.60112 -1.22172 0
M  V30 1795 C 174.583 2.54197 -2.35764 0
M  V30 1796 C 173.644 2.36343 -3.58386 0
M  V30 1797 C 172.877 3.61834 -3.92316 0
M  V30 1798 O 173.1 4.67267 -3.27135 0
M  V30 1799 O 172.034 3.55579 -4.85641 0
M  V30 1800 H 175.86 0.885886 -2.90492 0
M  V30 1801 H 173.445 0.372518 -1.44681 0
M  V30 1802 H 175.327 3.3192 -2.59629 0
M  V30 1803 H 174.002 2.87598 -1.48557 0
M  V30 1804 H 172.909 1.56632 -3.39731 0
M  V30 1805 H 174.242 2.07865 -4.46154 0
M  V30 1806 N 175.894 1.51508 0.433938 0
M  V30 1807 C 177.31 1.39759 0.770682 0
M  V30 1808 C 177.51 0.482594 1.95636 0
M  V30 1809 O 176.566 -0.0609691 2.52426 0
M  V30 1810 C 177.879 2.81851 1.04787 0
M  V30 1811 C 179.427 2.91025 1.1521 0
M  V30 1812 C 179.902 4.34032 1.46219 0
M  V30 1813 N 181.393 4.37154 1.53136 0
M  V30 1814 C 182.128 5.4484 1.78709 0
M  V30 1815 N 181.624 6.62682 2.02051 0
M  V30 1816 N 183.417 5.32324 1.80519 0
M  V30 1817 H 175.568 2.09548 -0.346892 0
M  V30 1818 H 177.831 0.943446 -0.0928074 0
M  V30 1819 H 177.537 3.50815 0.249304 0
M  V30 1820 H 177.411 3.21386 1.97461 0
M  V30 1821 H 179.798 2.22257 1.94128 0
M  V30 1822 H 179.879 2.54983 0.204281 0
M  V30 1823 H 179.523 5.03351 0.678274 0
M  V30 1824 H 179.453 4.6759 2.42212 0
M  V30 1825 H 181.944 3.52197 1.36987 0
M  V30 1826 H 182.257 7.40543 2.20943 0
M  V30 1827 H 180.602 6.65791 1.99366 0
M  V30 1828 H 183.793 4.39246 1.61805 0
M  V30 1829 H 183.966 6.16328 2.00111 0
M  V30 1830 N 177.372 -0.689602 1.41712 0
M  V30 1831 C 178.649 -1.44457 1.31877 0
M  V30 1832 C 179.029 -2.11039 -0.0508537 0
M  V30 1833 O 178.377 -2.02138 -1.06547 0
M  V30 1834 C 178.587 -2.45913 2.47645 0
M  V30 1835 C 179.935 -3.10991 2.89084 0
M  V30 1836 O 180.959 -2.56238 2.47428 0
M  V30 1837 O 179.818 -4.10174 3.61137 0
M  V30 1838 H 176.912 -0.64362 0.519309 0
M  V30 1839 H 179.458 -0.719576 1.53689 0
M  V30 1840 H 178.23 -1.95409 3.39015 0
M  V30 1841 H 177.853 -3.25913 2.27742 0
M  V30 1842 N 178.85 -1.27639 -0.924453 0
M  V30 1843 C 179.813 -1.10681 -2.00705 0
M  V30 1844 C 180.813 -0.0497823 -1.60723 0
M  V30 1845 O 182.003 -0.294654 -1.7169 0
M  V30 1846 C 179.135 -0.687164 -3.33902 0
M  V30 1847 H 180.328 -2.06817 -2.17179 0
M  V30 1848 H 177.881 -1.10473 -1.10569 0
M  V30 1849 H 178.616 0.275439 -3.23128 0
M  V30 1850 H 178.401 -1.45061 -3.6428 0
M  V30 1851 H 179.891 -0.590853 -4.13399 0
M  V30 1852 N 180.328 1.1314 -1.09713 0
M  V30 1853 C 181.739 1.66029 -0.853885 0
M  V30 1854 C 182.09 1.86241 0.617142 0
M  V30 1855 O 181.215 1.5834 1.47503 0
M  V30 1856 C 181.81 3.01599 -1.5435 0
M  V30 1857 C 180.369 3.51467 -1.34714 0
M  V30 1858 C 179.516 2.26648 -1.59769 0
M  V30 1859 H 182.467 0.970226 -1.25588 0
M  V30 1860 H 182.488 3.67709 -0.978267 0
M  V30 1861 H 182 2.86856 -2.6141 0
M  V30 1862 H 180.101 3.71408 -0.297838 0
M  V30 1863 H 180.214 4.314 -2.08401 0
M  V30 1864 H 178.578 2.33385 -1.01998 0
M  V30 1865 H 179.361 2.14467 -2.68065 0
M  V30 1866 N 181.806 0.884767 1.30421 0
M  V30 1867 C 182.769 0.356277 2.26414 0
M  V30 1868 C 183.769 -0.501124 1.52792 0
M  V30 1869 O 184.959 -0.30831 1.7145 0
M  V30 1870 C 182.091 -0.492316 3.37326 0
M  V30 1871 H 183.284 1.20389 2.74675 0
M  V30 1872 H 180.837 0.661607 1.41607 0
M  V30 1873 H 181.572 -1.36052 2.94381 0
M  V30 1874 H 181.357 0.121832 3.91911 0
M  V30 1875 H 182.847 -0.853871 4.08777 0
M  V30 1876 N 183.284 -1.43765 0.645699 0
M  V30 1877 C 184.532 -2.01499 0.155731 0
M  V30 1878 C 184.853 -1.51151 -1.232 0
M  V30 1879 O 184.123 -0.721044 -1.82148 0
M  V30 1880 H 182.703 -0.745003 0.0545817 0
M  V30 1881 H 185.365 -1.76075 0.835677 0
M  V30 1882 H 184.461 -3.1181 0.134577 0
M  V30 1883 N 184.763 -0.387143 -1.52771 0
M  V30 1884 C 186.04 0.253197 -1.93954 0
M  V30 1885 C 186.42 1.64545 -1.32243 0
M  V30 1886 O 185.768 2.23191 -0.489699 0
M  V30 1887 C 185.978 0.281722 -3.47861 0
M  V30 1888 C 187.326 0.511715 -4.21505 0
M  V30 1889 O 188.35 0.362023 -3.54356 0
M  V30 1890 O 187.209 0.804847 -5.40541 0
M  V30 1891 H 184.303 0.156845 -0.811991 0
M  V30 1892 H 186.849 -0.441494 -1.63856 0
M  V30 1893 H 185.621 -0.693571 -3.85104 0
M  V30 1894 H 185.244 1.02142 -3.84256 0
M  V30 1895 N 186.241 1.57166 -0.116904 0
M  V30 1896 C 187.204 2.14039 0.819742 0
M  V30 1897 C 188.204 1.07477 1.19605 0
M  V30 1898 O 189.394 1.33263 1.1219 0
M  V30 1899 C 186.526 2.67891 2.10826 0
M  V30 1900 H 187.719 2.98128 0.325511 0
M  V30 1901 H 185.272 1.55739 0.132312 0
M  V30 1902 H 186.007 1.87384 2.64685 0
M  V30 1903 H 185.792 3.45823 1.84793 0
M  V30 1904 H 187.282 3.11809 2.77785 0
M  V30 1905 N 187.719 -0.156864 1.56817 0
M  V30 1906 C 188.967 -0.869404 1.82444 0
M  V30 1907 C 189.288 -1.82147 0.69623 0
M  V30 1908 O 188.558 -1.93847 -0.28287 0
M  V30 1909 H 187.138 -0.324043 0.673056 0
M  V30 1910 H 189.8 -0.153224 1.94297 0
M  V30 1911 H 188.896 -1.43761 2.77019 0
M  V30 1912 N 189.197 -1.51736 -0.425897 0
M  V30 1913 C 190.613 -1.40166 -0.76326 0
M  V30 1914 C 190.813 -0.492962 -1.95377 0
M  V30 1915 O 189.869 0.0475815 -2.52455 0
M  V30 1916 C 191.182 -2.82403 -1.03291 0
M  V30 1917 C 192.73 -2.91632 -1.13665 0
M  V30 1918 C 193.205 -4.34801 -1.43916 0
M  V30 1919 N 194.696 -4.3796 -1.50816 0
M  V30 1920 C 195.431 -5.4578 -1.75817 0
M  V30 1921 N 194.927 -6.63744 -1.98534 0
M  V30 1922 N 196.72 -5.33274 -1.77694 0
M  V30 1923 H 188.871 -2.09361 0.358 0
M  V30 1924 H 191.134 -0.942941 0.0978094 0
M  V30 1925 H 190.84 -3.50943 -0.230696 0
M  V30 1926 H 190.714 -3.22428 -1.95754 0
M  V30 1927 H 193.101 -2.23284 -1.92947 0
M  V30 1928 H 193.182 -2.55088 -0.190756 0
M  V30 1929 H 192.826 -5.03703 -0.65157 0
M  V30 1930 H 192.756 -4.68868 -2.39729 0
M  V30 1931 H 195.247 -3.52919 -1.35118 0
M  V30 1932 H 195.56 -7.41704 -2.17013 0
M  V30 1933 H 193.905 -6.66839 -1.95832 0
M  V30 1934 H 197.096 -4.40098 -1.59473 0
M  V30 1935 H 197.269 -6.1738 -1.9684 0
M  V30 1936 N 190.675 0.682077 -1.42076 0
M  V30 1937 C 191.921 1.44283 -1.43366 0
M  V30 1938 C 192.276 1.92344 -0.0465775 0
M  V30 1939 O 191.569 1.67517 0.929973 0
M  V30 1940 C 191.763 2.66036 -2.38662 0
M  V30 1941 C 191.592 2.29889 -3.86499 0
M  V30 1942 C 190.362 2.19599 -4.55087 0
M  V30 1943 C 192.56 1.91999 -4.77117 0
M  V30 1944 N 190.542 1.76478 -5.87987 0
M  V30 1945 C 191.913 1.59741 -5.99068 0
M  V30 1946 C 193.968 1.78927 -4.64639 0
M  V30 1947 C 192.671 1.15723 -7.0993 0
M  V30 1948 C 194.697 1.36314 -5.75476 0
M  V30 1949 C 194.059 1.04975 -6.96534 0
M  V30 1950 H 190.158 0.524739 -0.579805 0
M  V30 1951 H 192.742 0.787834 -1.78048 0
M  V30 1952 H 190.913 3.29237 -2.06053 0
M  V30 1953 H 192.645 3.32588 -2.30581 0
M  V30 1954 H 189.4 2.38433 -4.09202 0
M  V30 1955 H 189.824 1.57362 -6.58458 0
M  V30 1956 H 194.466 2.01805 -3.7153 0
M  V30 1957 H 192.184 0.91591 -8.02893 0
M  V30 1958 H 195.77 1.26731 -5.6783 0
M  V30 1959 H 194.65 0.725017 -7.80841 0
M  V30 1960 N 192.153 1.28127 0.917671 0
M  V30 1961 C 193.083 1.14248 2.03641 0
M  V30 1962 C 194.064 0.0412748 1.7005 0
M  V30 1963 O 195.249 0.217566 1.92977 0
M  V30 1964 C 192.379 0.799431 3.37974 0
M  V30 1965 C 191.333 1.85497 3.85713 0
M  V30 1966 C 190.659 1.36565 5.16966 0
M  V30 1967 C 191.959 3.26085 4.08002 0
M  V30 1968 H 193.653 2.07835 2.15511 0
M  V30 1969 H 191.199 1.00064 1.03553 0
M  V30 1970 H 193.152 0.689114 4.15727 0
M  V30 1971 H 191.876 -0.172145 3.26146 0
M  V30 1972 H 190.535 1.95437 3.10161 0
M  V30 1973 H 190.183 0.383253 5.01538 0
M  V30 1974 H 189.883 2.07143 5.49878 0
M  V30 1975 H 191.407 1.26848 5.97279 0
M  V30 1976 H 192.821 3.19089 4.76293 0
M  V30 1977 H 191.218 3.94462 4.52238 0
M  V30 1978 H 192.288 3.70394 3.12948 0
M  V30 1979 N 193.631 -1.12557 1.10312 0
M  V30 1980 C 195.047 -1.36036 0.834649 0
M  V30 1981 C 195.247 -1.93946 -0.546539 0
M  V30 1982 O 194.303 -2.16484 -1.29966 0
M  V30 1983 C 195.616 -2.30312 1.9333 0
M  V30 1984 C 197.164 -2.43906 1.9616 0
M  V30 1985 C 197.639 -3.41496 3.05195 0
M  V30 1986 N 199.13 -3.49053 3.04494 0
M  V30 1987 C 199.865 -4.24471 3.85502 0
M  V30 1988 N 199.361 -5.02966 4.76442 0
M  V30 1989 N 201.154 -4.19864 3.73725 0
M  V30 1990 H 193.305 -0.733246 1.99342 0
M  V30 1991 H 195.568 -0.385234 0.866198 0
M  V30 1992 H 195.274 -1.94933 2.92735 0
M  V30 1993 H 195.148 -3.30421 1.81939 0
M  V30 1994 H 197.535 -2.78567 0.973886 0
M  V30 1995 H 197.616 -1.4369 2.11629 0
M  V30 1996 H 197.26 -3.07565 4.04186 0
M  V30 1997 H 197.19 -4.41539 2.86968 0
M  V30 1998 H 199.681 -2.93053 2.38596 0
M  V30 1999 H 199.994 -5.57846 5.34815 0
M  V30 2000 H 198.339 -5.02167 4.80472 0
M  V30 2001 H 201.53 -3.57623 3.02032 0
M  V30 2002 H 201.703 -4.78386 4.37093 0
M  V30 2003 N 195.109 -0.891671 -1.2995 0
M  V30 2004 C 196.355 -0.514261 -1.96171 0
M  V30 2005 C 196.688 0.935506 -1.70182 0
M  V30 2006 O 195.963 1.66204 -1.01028 0
M  V30 2007 C 196.246 -0.797719 -3.51153 0
M  V30 2008 C 196.099 -2.2986 -3.86632 0
M  V30 2009 C 197.418 -0.278749 -4.39216 0
M  V30 2010 H 194.537 -0.188314 -0.712535 0
M  V30 2011 H 197.179 -1.11689 -1.53706 0
M  V30 2012 H 195.329 -0.284826 -3.87455 0
M  V30 2013 H 197.001 -2.88042 -3.60319 0
M  V30 2014 H 195.244 -2.76257 -3.34462 0
M  V30 2015 H 195.915 -2.44753 -4.94773 0
M  V30 2016 H 198.391 -0.717825 -4.09862 0
M  V30 2017 H 197.267 -0.506353 -5.46559 0
M  V30 2018 H 197.528 0.820266 -4.34424 0
M  V30 2019 N 196.587 1.43421 -0.653314 0
M  V30 2020 C 197.812 2.06678 -0.172846 0
M  V30 2021 C 198.237 1.48648 1.15262 0
M  V30 2022 O 197.595 0.596457 1.71208 0
M  V30 2023 C 197.643 3.60474 -0.0953184 0
M  V30 2024 O 196.747 4.01487 0.942442 0
M  V30 2025 H 196.088 0.657181 -0.0949155 0
M  V30 2026 H 198.618 1.83925 -0.896265 0
M  V30 2027 H 198.628 4.07905 0.0879728 0
M  V30 2028 H 197.303 4.02088 -1.06291 0
M  V30 2029 H 195.88 3.65646 0.731932 0
M  V30 2030 N 198.065 0.39524 1.52563 0
M  V30 2031 C 199.312 -0.185044 2.01653 0
M  V30 2032 C 199.64 -1.46317 1.28146 0
M  V30 2033 O 198.895 -1.9213 0.372074 0
M  V30 2034 C 199.194 -0.493444 3.53977 0
M  V30 2035 C 198.86 0.69384 4.4553 0
M  V30 2036 C 197.522 1.01954 4.70275 0
M  V30 2037 C 199.874 1.48785 4.99512 0
M  V30 2038 C 197.202 2.14069 5.46252 0
M  V30 2039 C 199.554 2.59965 5.76716 0
M  V30 2040 C 198.218 2.93037 5.99738 0
M  V30 2041 H 197.488 -0.0677123 0.7379 0
M  V30 2042 H 200.135 0.533807 1.8391 0
M  V30 2043 H 198.44 -1.29369 3.69825 0
M  V30 2044 H 200.137 -0.955163 3.89458 0
M  V30 2045 H 196.727 0.429987 4.26438 0
M  V30 2046 H 200.911 1.24946 4.80315 0
M  V30 2047 H 196.167 2.40056 5.62302 0
M  V30 2048 H 200.341 3.21887 6.17545 0
M  V30 2049 H 197.968 3.8003 6.58393 0
M  V30 2050 N 199.544 -1.57102 0.125237 0
M  V30 2051 C 200.792 -1.95021 -0.530198 0
M  V30 2052 C 201.113 -1.00982 -1.66816 0
M  V30 2053 O 200.383 -0.0672693 -1.95784 0
M  V30 2054 H 198.963 -0.720046 -0.198853 0
M  V30 2055 H 201.625 -1.93916 0.19564 0
M  V30 2056 H 200.721 -2.98211 -0.920681 0
M  V30 2057 N 201.022 0.148545 -1.56898 0
M  V30 2058 C 201.952 1.18524 -2.01182 0
M  V30 2059 C 202.933 1.4489 -0.891123 0
M  V30 2060 O 204.118 1.55836 -1.15882 0
M  V30 2061 C 201.248 2.51879 -2.39112 0
M  V30 2062 C 200.202 2.40038 -3.54353 0
M  V30 2063 C 199.528 3.78089 -3.78091 0
M  V30 2064 C 200.828 1.88577 -4.87069 0
M  V30 2065 H 202.522 0.817029 -2.88036 0
M  V30 2066 H 200.068 0.391575 -1.38574 0
M  V30 2067 H 202.021 3.24627 -2.68692 0
M  V30 2068 H 200.745 2.90532 -1.49193 0
M  V30 2069 H 199.404 1.69742 -3.24936 0
M  V30 2070 H 199.052 4.14175 -2.85426 0
M  V30 2071 H 198.752 3.71028 -4.55645 0
M  V30 2072 H 200.276 4.52387 -4.10095 0
M  V30 2073 H 201.69 2.51117 -5.15377 0
M  V30 2074 H 200.087 1.9241 -5.68417 0
M  V30 2075 H 201.157 0.84136 -4.77545 0
M  V30 2076 N 202.5 1.5196 0.417844 0
M  V30 2077 C 203.747 1.65591 1.16559 0
M  V30 2078 C 204.075 0.381565 1.90721 0
M  V30 2079 O 203.33 -0.635156 1.85106 0
M  V30 2080 C 203.629 2.82269 2.19223 0
M  V30 2081 C 203.295 4.20819 1.61933 0
M  V30 2082 C 201.957 4.58506 1.46033 0
M  V30 2083 C 204.309 5.07196 1.20008 0
M  V30 2084 C 201.637 5.80257 0.867113 0
M  V30 2085 C 203.989 6.29544 0.621086 0
M  V30 2086 C 202.653 6.65987 0.449144 0
M  V30 2087 H 201.923 0.605939 0.42652 0
M  V30 2088 H 204.57 1.86041 0.45397 0
M  V30 2089 H 202.875 2.56118 2.96498 0
M  V30 2090 H 204.572 2.90012 2.76936 0
M  V30 2091 H 201.162 3.91116 1.7529 0
M  V30 2092 H 205.346 4.7867 1.31105 0
M  V30 2093 H 200.602 6.07124 0.721833 0
M  V30 2094 H 204.776 6.95805 0.287798 0
M  V30 2095 H 202.403 7.60199 -0.012632 0
M  V30 2096 N 203.978 -0.674533 1.42435 0
M  V30 2097 C 205.226 -1.43175 1.42637 0
M  V30 2098 C 205.547 -1.94951 0.0438992 0
M  V30 2099 O 204.817 -1.7308 -0.917607 0
M  V30 2100 H 203.397 -0.531307 0.525092 0
M  V30 2101 H 206.059 -0.797006 1.77859 0
M  V30 2102 H 205.155 -2.28463 2.12629 0
M  V30 2103 N 205.456 -1.28612 -0.910864 0
M  V30 2104 C 206.681 -1.1891 -1.69927 0
M  V30 2105 C 207.106 0.248372 -1.86453 0
M  V30 2106 O 206.464 1.17961 -1.37676 0
M  V30 2107 C 206.512 -1.89578 -3.06745 0
M  V30 2108 O 205.616 -1.20521 -3.94396 0
M  V30 2109 H 204.957 -0.412632 -0.520222 0
M  V30 2110 H 207.487 -1.69985 -1.1387 0
M  V30 2111 H 207.497 -1.97597 -3.56958 0
M  V30 2112 H 206.172 -2.94136 -2.94035 0
M  V30 2113 H 204.749 -1.20684 -3.52831 0
M  V30 2114 N 206.934 1.1197 -1.10907 0
M  V30 2115 C 208.18 1.8386 -0.855773 0
M  V30 2116 C 208.513 1.84134 0.617103 0
M  V30 2117 O 207.788 1.29041 1.45529 0
M  V30 2118 C 208.071 3.31305 -1.411 0
M  V30 2119 C 207.924 3.39456 -2.9511 0
M  V30 2120 C 209.243 4.2721 -1.05736 0
M  V30 2121 H 206.362 0.667545 -0.312334 0
M  V30 2122 H 209.004 1.31331 -1.37303 0
M  V30 2123 H 207.154 3.76169 -0.97105 0
M  V30 2124 H 208.826 3.03191 -3.47668 0
M  V30 2125 H 207.069 2.79849 -3.31462 0
M  V30 2126 H 207.74 4.43209 -3.29044 0
M  V30 2127 H 210.216 3.90497 -1.43706 0
M  V30 2128 H 209.092 5.28775 -1.47269 0
M  V30 2129 H 209.353 4.42088 0.0325958 0
M  V30 2130 N 208.412 0.89855 1.29475 0
M  V30 2131 C 209.658 0.534065 1.96263 0
M  V30 2132 C 210.013 -0.909415 1.69551 0
M  V30 2133 O 209.306 -1.63596 0.997349 0
M  V30 2134 C 209.5 0.761398 3.49195 0
M  V30 2135 C 209.329 2.22542 3.90775 0
M  V30 2136 C 208.099 2.87264 4.15701 0
M  V30 2137 C 210.297 3.20051 4.02581 0
M  V30 2138 N 208.279 4.24121 4.4384 0
M  V30 2139 C 209.65 4.42023 4.34759 0
M  V30 2140 C 211.705 3.15657 3.85052 0
M  V30 2141 C 210.408 5.60161 4.51235 0
M  V30 2142 C 212.434 4.33078 4.02737 0
M  V30 2143 C 211.796 5.5382 4.35273 0
M  V30 2144 H 207.895 0.245013 0.742625 0
M  V30 2145 H 210.479 1.15912 1.56437 0
M  V30 2146 H 208.65 0.165732 3.88046 0
M  V30 2147 H 210.382 0.362462 4.03074 0
M  V30 2148 H 207.137 2.38064 4.09417 0
M  V30 2149 H 207.561 4.94839 4.6202 0
M  V30 2150 H 212.203 2.23396 3.58962 0
M  V30 2151 H 209.921 6.52913 4.76162 0
M  V30 2152 H 213.507 4.31163 3.90628 0
M  V30 2153 H 212.387 6.43166 4.48672 0
M  V30 2154 N 209.89 -1.43072 0.660911 0
M  V30 2155 C 211.136 -2.0202 0.177708 0
M  V30 2156 C 211.469 -1.52066 -1.20787 0
M  V30 2157 O 210.744 -0.716987 -1.80802 0
M  V30 2158 C 211.027 -3.59561 0.197019 0
M  V30 2159 C 210.88 -4.19727 1.61706 0
M  V30 2160 C 212.199 -4.37664 -0.462396 0
M  V30 2161 H 209.318 -0.734034 0.0660494 0
M  V30 2162 H 211.96 -1.70272 0.843058 0
M  V30 2163 H 210.11 -3.86739 -0.369527 0
M  V30 2164 H 211.782 -4.03553 2.23479 0
M  V30 2165 H 210.025 -3.76084 2.16201 0
M  V30 2166 H 210.696 -5.28834 1.58237 0
M  V30 2167 H 213.172 -4.16095 0.0197215 0
M  V30 2168 H 212.048 -5.47305 -0.418188 0
M  V30 2169 H 212.309 -4.14493 -1.53778 0
M  V30 2170 N 211.368 -0.403325 -1.52352 0
M  V30 2171 C 212.316 0.439752 -2.28405 0
M  V30 2172 C 213.31 1.05089 -1.32863 0
M  V30 2173 O 214.516 0.989759 -1.50345 0
M  V30 2174 H 210.891 0.160587 -0.734653 0
M  V30 2175 H 212.862 -0.222983 -2.97566 0
M  V30 2176 C 211.611 1.54736 -3.11371 0
M  V30 2177 H 210.934 1.08643 -3.84755 0
M  V30 2178 H 212.374 2.1112 -3.67701 0
M  V30 2179 C 210.833 2.51141 -2.24566 0
M  V30 2180 O 211.363 3.54887 -1.88196 0
M  V30 2181 N 209.569 2.21213 -1.8845 0
M  V30 2182 H 209.116 1.36878 -2.18225 0
M  V30 2183 H 209.074 2.85963 -1.30662 0
M  V30 2184 N 212.846 1.57033 -0.133567 0
M  V30 2185 C 214.123 1.87256 0.56522 0
M  V30 2186 C 214.503 1.03726 1.83859 0
M  V30 2187 O 213.851 0.120247 2.28183 0
M  V30 2188 C 214.061 3.3865 0.843636 0
M  V30 2189 C 215.409 4.07574 1.19032 0
M  V30 2190 O 216.433 3.43752 0.933429 0
M  V30 2191 O 215.292 5.20259 1.67312 0
M  V30 2192 H 212.386 0.775678 0.286796 0
M  V30 2193 H 214.932 1.68855 -0.169168 0
M  V30 2194 H 213.704 3.91257 -0.0581149 0
M  V30 2195 H 213.327 3.62532 1.63268 0
M  V30 2196 N 214.325 -0.140222 1.56975 0
M  V30 2197 C 215.572 -0.851687 1.83719 0
M  V30 2198 C 215.9 -1.80862 0.715485 0
M  V30 2199 O 215.155 -1.93464 -0.294956 0
M  V30 2200 C 215.454 -1.65386 3.16832 0
M  V30 2201 C 215.12 -0.843112 4.42947 0
M  V30 2202 C 213.782 -0.619464 4.77196 0
M  V30 2203 C 216.134 -0.276582 5.20466 0
M  V30 2204 C 213.462 0.181312 5.8642 0
M  V30 2205 C 215.814 0.51127 6.30531 0
M  V30 2206 C 214.478 0.745432 6.63325 0
M  V30 2207 H 213.748 -0.311654 0.672274 0
M  V30 2208 H 216.395 -0.115006 1.91154 0
M  V30 2209 H 214.7 -2.46084 3.04877 0
M  V30 2210 H 216.397 -2.20793 3.34741 0
M  V30 2211 H 212.987 -1.0275 4.16101 0
M  V30 2212 H 217.171 -0.436632 4.94376 0
M  V30 2213 H 212.427 0.372165 6.10266 0
M  V30 2214 H 216.601 0.957354 6.89788 0
M  V30 2215 H 214.228 1.36778 7.47794 0
M  V30 2216 N 215.803 -1.52179 -0.40978 0
M  V30 2217 C 217.028 -1.70347 -1.18308 0
M  V30 2218 C 217.453 -0.411887 -1.83535 0
M  V30 2219 O 216.811 0.630587 -1.6998 0
M  V30 2220 C 216.859 -2.83977 -2.22238 0
M  V30 2221 O 215.963 -2.495 -3.28365 0
M  V30 2222 H 215.304 -0.567103 -0.345384 0
M  V30 2223 H 217.834 -1.98879 -0.480445 0
M  V30 2224 H 217.844 -3.0887 -2.66577 0
M  V30 2225 H 216.519 -3.77685 -1.74146 0
M  V30 2226 H 215.096 -2.35277 -2.89308 0
M  V30 2227 N 217.281 0.66697 -1.42791 0
M  V30 2228 C 218.697 0.981027 -1.25889 0
M  V30 2229 C 218.897 2.00793 -0.168695 0
M  V30 2230 O 217.953 2.48321 0.45747 0
M  V30 2231 C 219.266 1.47838 -2.61848 0
M  V30 2232 C 220.814 1.59575 -2.69267 0
M  V30 2233 C 221.289 2.12704 -4.05612 0
M  V30 2234 N 222.78 2.20026 -4.07606 0
M  V30 2235 C 223.515 2.62227 -5.09926 0
M  V30 2236 N 223.011 3.03824 -6.22626 0
M  V30 2237 N 224.804 2.62045 -4.97281 0
M  V30 2238 H 216.955 -0.0127891 -2.12396 0
M  V30 2239 H 219.218 0.0568258 -0.946295 0
M  V30 2240 H 218.924 0.798299 -3.4252 0
M  V30 2241 H 218.798 2.45579 -2.86305 0
M  V30 2242 H 221.185 2.26687 -1.88936 0
M  V30 2243 H 221.266 0.60302 -2.48591 0
M  V30 2244 H 220.91 1.46198 -4.86404 0
M  V30 2245 H 220.84 3.12782 -4.23645 0
M  V30 2246 H 223.331 1.90708 -3.2625 0
M  V30 2247 H 223.644 3.34734 -6.96544 0
M  V30 2248 H 221.989 3.01662 -6.26119 0
M  V30 2249 H 225.18 2.28916 -4.08308 0
M  V30 2250 H 225.353 2.94613 -5.77154 0
M  V30 2251 N 218.759 1.29093 0.90403 0
M  V30 2252 C 219.722 1.1386 1.98919 0
M  V30 2253 C 220.722 0.0753457 1.60623 0
M  V30 2254 O 221.912 0.321931 1.71199 0
M  V30 2255 C 219.044 0.740198 3.32767 0
M  V30 2256 H 220.237 2.10246 2.13861 0
M  V30 2257 H 217.79 1.12218 1.08797 0
M  V30 2258 H 218.525 -0.223997 3.23525 0
M  V30 2259 H 218.31 1.50838 3.61926 0
M  V30 2260 H 219.8 0.656546 4.12407 0
M  V30 2261 N 220.237 -1.11381 1.11499 0
M  V30 2262 C 221.184 -2.17439 0.773887 0
M  V30 2263 C 222.154 -1.64132 -0.254899 0
M  V30 2264 O 223.339 -1.90345 -0.13168 0
M  V30 2265 C 220.479 -3.44373 0.223917 0
M  V30 2266 C 219.592 -4.1168 1.30934 0
M  V30 2267 C 218.727 -5.263 0.71984 0
M  V30 2268 C 217.766 -5.85493 1.78507 0
M  V30 2269 N 216.903 -6.91507 1.21502 0
M  V30 2270 H 221.743 -2.45962 1.68246 0
M  V30 2271 H 219.28 -1.20744 0.840191 0
M  V30 2272 H 221.238 -4.17047 -0.112921 0
M  V30 2273 H 219.868 -3.16232 -0.647851 0
M  V30 2274 H 218.92 -3.37073 1.76312 0
M  V30 2275 H 220.232 -4.51729 2.11524 0
M  V30 2276 H 219.386 -6.05785 0.333094 0
M  V30 2277 H 218.125 -4.87559 -0.117377 0
M  V30 2278 H 217.13 -5.04686 2.18111 0
M  V30 2279 H 218.355 -6.26301 2.62533 0
M  V30 2280 H 216.301 -6.54783 0.399455 0
M  V30 2281 H 216.218 -7.30214 1.95763 0
M  V30 2282 H 217.486 -7.74795 0.855181 0
M  V30 2283 N 221.715 -0.905404 -1.28997 0
M  V30 2284 C 222.662 -0.385892 -2.27551 0
M  V30 2285 C 223.632 0.535113 -1.57244 0
M  V30 2286 O 224.817 0.459119 -1.85194 0
M  V30 2287 C 221.957 0.375461 -3.43051 0
M  V30 2288 C 221.07 -0.577092 -4.28128 0
M  V30 2289 C 220.205 0.201879 -5.30816 0
M  V30 2290 C 219.244 -0.744829 -6.07551 0
M  V30 2291 N 218.381 9.42587e-05 -7.021 0
M  V30 2292 H 223.221 -1.23139 -2.71368 0
M  V30 2293 H 220.758 -0.618542 -1.33463 0
M  V30 2294 H 222.716 0.832992 -4.088 0
M  V30 2295 H 221.346 1.18537 -3.00248 0
M  V30 2296 H 220.398 -1.15315 -3.62501 0
M  V30 2297 H 221.71 -1.30152 -4.8152 0
M  V30 2298 H 220.864 0.720351 -6.02408 0
M  V30 2299 H 219.603 0.959413 -4.7817 0
M  V30 2300 H 218.608 -1.27475 -5.34818 0
M  V30 2301 H 219.833 -1.50178 -6.62286 0
M  V30 2302 H 217.779 0.739791 -6.51815 0
M  V30 2303 H 217.696 -0.664321 -7.53076 0
M  V30 2304 H 218.964 0.498644 -7.77903 0
M  V30 2305 N 223.193 1.4272 -0.668489 0
M  V30 2306 C 224.156 2.292 0.00448567 0
M  V30 2307 C 225.156 1.43001 0.735339 0
M  V30 2308 O 226.346 1.64461 0.57429 0
M  V30 2309 C 223.478 3.25375 1.01705 0
M  V30 2310 H 224.671 2.90199 -0.756608 0
M  V30 2311 H 222.224 1.50254 -0.430506 0
M  V30 2312 H 222.959 2.69301 1.80686 0
M  V30 2313 H 222.744 3.88944 0.496463 0
M  V30 2314 H 224.234 3.90245 1.48655 0
M  V30 2315 N 224.671 0.411399 1.52136 0
M  V30 2316 C 225.619 -0.427633 2.28635 0
M  V30 2317 C 226.613 -1.04383 1.33419 0
M  V30 2318 O 227.819 -0.981772 1.50868 0
M  V30 2319 H 224.194 -0.156689 0.735495 0
M  V30 2320 H 226.165 0.238761 2.97443 0
M  V30 2321 C 224.914 -1.53082 3.12188 0
M  V30 2322 H 224.237 -1.06601 3.85326 0
M  V30 2323 H 225.677 -2.09167 3.68816 0
M  V30 2324 C 224.136 -2.49946 2.25895 0
M  V30 2325 O 224.666 -3.53884 1.90076 0
M  V30 2326 N 222.872 -2.2021 1.8962 0
M  V30 2327 H 222.419 -1.35719 2.18948 0
M  V30 2328 H 222.377 -2.85266 1.32176 0
M  V30 2329 N 226.149 -1.5696 0.141893 0
M  V30 2330 C 227.096 -2.16501 -0.799737 0
M  V30 2331 C 228.066 -1.09643 -1.24771 0
M  V30 2332 O 229.251 -1.3766 -1.32115 0
M  V30 2333 C 226.391 -2.78679 -2.03549 0
M  V30 2334 C 225.504 -3.99914 -1.6338 0
M  V30 2335 C 224.639 -4.50106 -2.82096 0
M  V30 2336 C 223.678 -5.63819 -2.38275 0
M  V30 2337 N 222.815 -6.08651 -3.49983 0
M  V30 2338 H 227.655 -2.96632 -0.285179 0
M  V30 2339 H 225.192 -1.46533 -0.129053 0
M  V30 2340 H 227.15 -3.1287 -2.75986 0
M  V30 2341 H 225.78 -2.012 -2.52425 0
M  V30 2342 H 224.832 -3.71735 -0.807279 0
M  V30 2343 H 226.144 -4.82311 -1.27192 0
M  V30 2344 H 225.298 -4.86325 -3.62729 0
M  V30 2345 H 224.037 -3.66706 -3.21525 0
M  V30 2346 H 223.042 -5.2718 -1.56081 0
M  V30 2347 H 224.267 -6.49 -1.99938 0
M  V30 2348 H 222.213 -5.28188 -3.89042 0
M  V30 2349 H 222.13 -6.85961 -3.17794 0
M  V30 2350 H 223.398 -6.49515 -4.30988 0
M  V30 2351 N 227.627 0.131896 -1.57047 0
M  V30 2352 C 229.043 0.485031 -1.52051 0
M  V30 2353 C 229.243 1.82563 -0.85281 0
M  V30 2354 O 228.299 2.48817 -0.429694 0
M  V30 2355 C 229.612 0.481409 -2.96821 0
M  V30 2356 C 231.16 0.565868 -3.07842 0
M  V30 2357 C 231.635 0.592762 -4.54148 0
M  V30 2358 N 233.126 0.654564 -4.58552 0
M  V30 2359 C 233.861 0.696608 -5.69153 0
M  V30 2360 N 233.357 0.697078 -6.89284 0
M  V30 2361 N 235.15 0.738639 -5.57226 0
M  V30 2362 H 227.301 -0.746664 -1.98843 0
M  V30 2363 H 229.564 -0.273999 -0.90754 0
M  V30 2364 H 229.27 -0.435731 -3.4899 0
M  V30 2365 H 229.144 1.3139 -3.53577 0
M  V30 2366 H 231.531 1.47343 -2.55684 0
M  V30 2367 H 231.612 -0.29406 -2.54104 0
M  V30 2368 H 231.256 -0.310701 -5.06949 0
M  V30 2369 H 231.186 1.46939 -5.05684 0
M  V30 2370 H 233.677 0.660887 -3.72076 0
M  V30 2371 H 233.99 0.731426 -7.69331 0
M  V30 2372 H 232.335 0.66471 -6.91814 0
M  V30 2373 H 235.526 0.735545 -4.62285 0
M  V30 2374 H 235.699 0.767938 -6.43434 0
M  V30 2375 N 229.106 1.52395 0.401703 0
M  V30 2376 C 230.354 1.66488 1.14569 0
M  V30 2377 C 230.675 0.400897 1.90835 0
M  V30 2378 O 229.945 -0.584415 1.8698 0
M  V30 2379 H 228.525 0.613672 0.425929 0
M  V30 2380 H 231.187 1.89464 0.457093 0
M  V30 2381 H 230.283 2.50942 1.85566 0
M  V30 2382 N 230.584 -0.659388 1.43143 0
M  V30 2383 C 231.861 -1.41627 1.34912 0
M  V30 2384 C 232.241 -2.11099 -0.00607785 0
M  V30 2385 O 231.589 -2.04353 -1.02236 0
M  V30 2386 C 231.799 -2.40604 2.52805 0
M  V30 2387 C 233.147 -3.04789 2.95616 0
M  V30 2388 O 234.171 -2.50932 2.52807 0
M  V30 2389 O 233.03 -4.02421 3.69756 0
M  V30 2390 H 230.124 -0.63246 0.532844 0
M  V30 2391 H 232.67 -0.686814 1.5518 0
M  V30 2392 H 231.442 -1.88174 3.43083 0
M  V30 2393 H 231.065 -3.21009 2.34604 0
M  V30 2394 N 232.062 -1.29571 -0.897171 0
M  V30 2395 C 233.308 -1.18873 -1.65048 0
M  V30 2396 C 233.663 0.256707 -1.9068 0
M  V30 2397 O 232.956 1.18202 -1.50794 0
M  V30 2398 C 233.15 -1.9382 -3.00281 0
M  V30 2399 C 232.979 -3.45503 -2.8785 0
M  V30 2400 C 231.749 -4.14856 -2.88483 0
M  V30 2401 C 233.947 -4.40956 -2.64693 0
M  V30 2402 N 231.929 -5.52886 -2.66815 0
M  V30 2403 C 233.3 -5.66464 -2.5203 0
M  V30 2404 C 235.355 -4.3069 -2.49821 0
M  V30 2405 C 234.058 -6.82871 -2.26008 0
M  V30 2406 C 236.084 -5.46852 -2.25182 0
M  V30 2407 C 235.446 -6.71333 -2.13286 0
M  V30 2408 H 231.545 -0.489998 -0.609447 0
M  V30 2409 H 234.129 -1.63431 -1.05822 0
M  V30 2410 H 232.3 -1.51671 -3.57562 0
M  V30 2411 H 234.032 -1.75366 -3.64731 0
M  V30 2412 H 230.787 -3.66579 -2.99861 0
M  V30 2413 H 231.211 -6.25487 -2.59027 0
M  V30 2414 H 235.853 -3.35141 -2.5776 0
M  V30 2415 H 233.571 -7.78473 -2.16806 0
M  V30 2416 H 237.157 -5.40809 -2.14515 0
M  V30 2417 H 236.037 -7.59701 -1.94485 0
M  V30 2418 N 233.54 1.10788 -1.12088 0
M  V30 2419 C 234.956 1.34691 -0.856186 0
M  V30 2420 C 235.156 1.94791 0.515615 0
M  V30 2421 O 234.212 2.18524 1.26505 0
M  V30 2422 C 235.525 2.27208 -1.9697 0
M  V30 2423 C 237.073 2.40755 -2.00016 0
M  V30 2424 C 237.548 3.36598 -3.1059 0
M  V30 2425 N 239.039 3.44164 -3.10008 0
M  V30 2426 C 239.774 4.18284 -3.92206 0
M  V30 2427 N 239.27 4.95322 -4.84384 0
M  V30 2428 N 241.063 4.13865 -3.80357 0
M  V30 2429 H 233.214 0.70144 -2.00483 0
M  V30 2430 H 235.477 0.371405 -0.872217 0
M  V30 2431 H 235.183 1.90251 -2.958 0
M  V30 2432 H 235.057 3.27485 -1.87172 0
M  V30 2433 H 237.444 2.76982 -1.01808 0
M  V30 2434 H 237.525 1.40305 -2.13888 0
M  V30 2435 H 237.169 3.01096 -4.09028 0
M  V30 2436 H 237.099 4.36918 -2.93956 0
M  V30 2437 H 239.59 2.8922 -2.43228 0
M  V30 2438 H 239.903 5.49267 -5.43623 0
M  V30 2439 H 238.248 4.94459 -4.884 0
M  V30 2440 H 241.439 3.52773 -3.07683 0
M  V30 2441 H 241.612 4.71372 -4.44649 0
M  V30 2442 N 235.018 0.912232 1.28515 0
M  V30 2443 C 236.295 0.463597 1.90027 0
M  V30 2444 C 236.675 -1.05753 1.82701 0
M  V30 2445 O 236.023 -1.90492 1.26194 0
M  V30 2446 C 236.233 0.992253 3.34597 0
M  V30 2447 C 237.581 1.04344 4.11579 0
M  V30 2448 O 238.605 0.94079 3.43551 0
M  V30 2449 O 237.464 1.1995 5.33174 0
M  V30 2450 H 234.558 0.146666 0.813891 0
M  V30 2451 H 237.104 1.00292 1.36893 0
M  V30 2452 H 235.876 2.03623 3.34146 0
M  V30 2453 H 235.499 0.433672 3.95228 0
M  V30 2454 N 236.496 -1.42363 0.676048 0
M  V30 2455 C 237.907 -1.84649 0.275948 0
M  V30 2456 C 238.258 -1.56588 -1.18214 0
M  V30 2457 O 237.383 -1.02634 -1.90513 0
M  V30 2458 C 237.978 -3.35178 0.494053 0
M  V30 2459 C 236.537 -3.76109 0.148061 0
M  V30 2460 C 235.684 -2.65931 0.785891 0
M  V30 2461 H 238.635 -1.32192 0.878121 0
M  V30 2462 H 238.656 -3.79655 -0.25343 0
M  V30 2463 H 238.168 -3.55571 1.55535 0
M  V30 2464 H 236.269 -3.61323 -0.909742 0
M  V30 2465 H 236.382 -4.7546 0.589454 0
M  V30 2466 H 234.746 -2.53773 0.217113 0
M  V30 2467 H 235.529 -2.89146 1.85067 0
M  V30 2468 N 237.974 -0.419461 -1.51915 0
M  V30 2469 C 239.199 0.154572 -2.06823 0
M  V30 2470 C 239.624 1.3722 -1.28656 0
M  V30 2471 O 238.982 1.78461 -0.319583 0
M  V30 2472 C 239.03 0.473172 -3.57482 0
M  V30 2473 O 238.134 1.56255 -3.81652 0
M  V30 2474 H 237.475 0.0096924 -0.663929 0
M  V30 2475 H 240.005 -0.595642 -1.95738 0
M  V30 2476 H 240.015 0.728825 -4.01438 0
M  V30 2477 H 238.69 -0.416873 -4.13805 0
M  V30 2478 H 237.267 1.29825 -3.49571 0
M  V30 2479 N 239.452 1.56882 -0.150215 0
M  V30 2480 C 240.863 1.82995 0.370076 0
M  V30 2481 C 241.214 1.06907 1.64515 0
M  V30 2482 O 240.339 0.315369 2.1409 0
M  V30 2483 C 240.934 3.31942 0.678208 0
M  V30 2484 C 239.493 3.58625 1.14301 0
M  V30 2485 C 238.64 2.76792 0.167778 0
M  V30 2486 H 241.591 1.54209 -0.374858 0
M  V30 2487 H 241.612 3.48272 1.53254 0
M  V30 2488 H 241.124 3.87294 -0.249991 0
M  V30 2489 H 239.225 3.08664 2.08704 0
M  V30 2490 H 239.338 4.67073 1.06676 0
M  V30 2491 H 237.702 2.45972 0.661037 0
M  V30 2492 H 238.485 3.34916 -0.754069 0
M  V30 2493 N 240.93 -0.123565 1.57115 0
M  V30 2494 C 242.346 -0.476961 1.52306 0
M  V30 2495 C 242.546 -1.82109 0.86248 0
M  V30 2496 O 241.602 -2.48586 0.442884 0
M  V30 2497 C 242.915 -0.465661 2.97073 0
M  V30 2498 C 244.463 -0.549534 3.08138 0
M  V30 2499 C 244.938 -0.568669 4.54456 0
M  V30 2500 N 246.429 -0.630237 4.58892 0
M  V30 2501 C 247.164 -0.666415 5.69514 0
M  V30 2502 N 246.66 -0.660514 6.89644 0
M  V30 2503 N 248.453 -0.709077 5.5761 0
M  V30 2504 H 240.604 0.757198 1.98445 0
M  V30 2505 H 242.867 0.278808 0.906074 0
M  V30 2506 H 242.573 0.454232 3.48754 0
M  V30 2507 H 242.447 -1.29513 3.54269 0
M  V30 2508 H 244.834 -1.45985 2.56461 0
M  V30 2509 H 244.915 0.307532 2.53945 0
M  V30 2510 H 244.559 0.337581 5.06777 0
M  V30 2511 H 244.489 -1.44256 5.06456 0
M  V30 2512 H 246.98 -0.641146 3.72421 0
M  V30 2513 H 247.293 -0.690616 7.69708 0
M  V30 2514 H 245.638 -0.628012 6.92157 0
M  V30 2515 H 248.829 -0.711019 4.62668 0
M  V30 2516 H 249.002 -0.733804 6.43832 0
M  V30 2517 N 242.408 -1.52605 -0.393616 0
M  V30 2518 C 243.338 -1.80022 -1.48709 0
M  V30 2519 C 244.319 -0.651995 -1.57108 0
M  V30 2520 O 245.504 -0.89913 -1.72132 0
M  V30 2521 C 242.634 -1.96492 -2.86371 0
M  V30 2522 C 241.588 -3.12161 -2.92813 0
M  V30 2523 C 240.914 -3.13877 -4.3288 0
M  V30 2524 C 242.214 -4.51322 -2.6288 0
M  V30 2525 H 243.908 -2.71589 -1.26015 0
M  V30 2526 H 241.454 -1.30684 -0.604778 0
M  V30 2527 H 243.407 -2.14255 -3.62867 0
M  V30 2528 H 242.131 -1.01611 -3.10391 0
M  V30 2529 H 240.79 -2.94173 -2.18764 0
M  V30 2530 H 240.438 -2.16687 -4.53933 0
M  V30 2531 H 240.138 -3.91576 -4.38112 0
M  V30 2532 H 241.662 -3.33789 -5.1129 0
M  V30 2533 H 243.076 -4.69435 -3.29096 0
M  V30 2534 H 241.473 -5.31053 -2.79468 0
M  V30 2535 H 242.543 -4.58353 -1.58242 0
M  V30 2536 N 243.887 0.651787 -1.4349 0
M  V30 2537 C 245.133 1.41376 -1.45398 0
M  V30 2538 C 245.466 1.94041 -0.0784823 0
M  V30 2539 O 244.741 1.72379 0.900878 0
M  V30 2540 C 245.024 2.59414 -2.49752 0
M  V30 2541 C 244.877 2.12232 -3.96582 0
M  V30 2542 C 246.196 3.61626 -2.50827 0
M  V30 2543 H 243.315 0.512719 -0.529422 0
M  V30 2544 H 245.957 0.738796 -1.75048 0
M  V30 2545 H 244.107 3.16997 -2.246 0
M  V30 2546 H 245.779 1.59639 -4.32797 0
M  V30 2547 H 244.022 1.43592 -4.09346 0
M  V30 2548 H 244.693 2.9712 -4.65214 0
M  V30 2549 H 247.169 3.13805 -2.7325 0
M  V30 2550 H 246.045 4.41766 -3.25783 0
M  V30 2551 H 246.306 4.14314 -1.5426 0
M  V30 2552 N 245.365 1.30045 0.890287 0
M  V30 2553 C 246.295 1.18541 2.01172 0
M  V30 2554 C 247.276 0.0773356 1.69924 0
M  V30 2555 O 248.461 0.25845 1.92473 0
M  V30 2556 C 245.591 0.870941 3.36202 0
M  V30 2557 C 244.545 1.93637 3.81692 0
M  V30 2558 C 243.871 1.475 5.13953 0
M  V30 2559 C 245.171 3.34666 4.00994 0
M  V30 2560 H 246.865 2.12359 2.11054 0
M  V30 2561 H 244.411 1.02238 1.01407 0
M  V30 2562 H 246.364 0.777141 4.14172 0
M  V30 2563 H 245.088 -0.102926 3.26438 0
M  V30 2564 H 243.747 2.01972 3.05946 0
M  V30 2565 H 243.395 0.489551 5.00612 0
M  V30 2566 H 243.095 2.1876 5.4536 0
M  V30 2567 H 244.619 1.39489 5.94454 0
M  V30 2568 H 246.033 3.2912 4.69417 0
M  V30 2569 H 244.43 4.03966 4.43769 0
M  V30 2570 H 245.5 3.76949 3.05021 0
M  V30 2571 N 246.843 -1.10192 1.12674 0
M  V30 2572 C 247.793 -2.14754 0.765801 0
M  V30 2573 C 248.777 -1.59154 -0.236409 0
M  V30 2574 O 249.969 -1.76951 -0.0415261 0
M  V30 2575 C 247.098 -3.42563 0.224827 0
M  V30 2576 C 246.184 -4.05091 1.25548 0
M  V30 2577 N 246.575 -4.42287 2.4539 0
M  V30 2578 C 244.873 -4.32186 1.10142 0
M  V30 2579 C 245.574 -4.91441 3.11224 0
M  V30 2580 N 244.55 -4.88405 2.38666 0
M  V30 2581 H 248.352 -2.41309 1.67772 0
M  V30 2582 H 245.866 -1.27339 1.00789 0
M  V30 2583 H 247.863 -4.16868 -0.0519578 0
M  V30 2584 H 246.523 -3.17467 -0.681515 0
M  V30 2585 H 247.534 -4.33902 2.82754 0
M  V30 2586 H 244.211 -4.16735 0.252587 0
M  V30 2587 H 245.601 -5.29749 4.13298 0
M  V30 2588 N 248.321 -0.919034 -1.28029 0
M  V30 2589 C 249.568 -0.554934 -1.94748 0
M  V30 2590 C 249.896 0.90231 -1.72304 0
M  V30 2591 O 249.151 1.65767 -1.04018 0
M  V30 2592 C 249.45 -0.816855 -3.4794 0
M  V30 2593 C 249.116 -2.25448 -3.90492 0
M  V30 2594 C 247.778 -2.64752 -4.01821 0
M  V30 2595 C 250.13 -3.18977 -4.12193 0
M  V30 2596 C 247.458 -3.96727 -4.32232 0
M  V30 2597 C 249.81 -4.50523 -4.44086 0
M  V30 2598 C 248.474 -4.89673 -4.53626 0
M  V30 2599 H 247.744 -0.203065 -0.712633 0
M  V30 2600 H 250.391 -1.16136 -1.52265 0
M  V30 2601 H 248.696 -0.127677 -3.91592 0
M  V30 2602 H 250.393 -0.514238 -3.97689 0
M  V30 2603 H 246.983 -1.93952 -3.82205 0
M  V30 2604 H 251.167 -2.89817 -4.02889 0
M  V30 2605 H 246.423 -4.26754 -4.37825 0
M  V30 2606 H 250.597 -5.23005 -4.59825 0
M  V30 2607 H 248.224 -5.91969 -4.76946 0
M  V30 2608 N 249.799 1.42003 -0.683588 0
M  V30 2609 C 251.047 2.01015 -0.209101 0
M  V30 2610 C 251.368 1.54365 1.19149 0
M  V30 2611 O 250.638 0.769083 1.80172 0
M  V30 2612 H 249.218 0.743294 -0.074315 0
M  V30 2613 H 251.88 1.73798 -0.882066 0
M  V30 2614 H 250.976 3.11343 -0.2172 0
M  V30 2615 N 251.277 0.427512 1.51691 0
M  V30 2616 C 252.525 -0.141948 2.01601 0
M  V30 2617 C 252.846 -1.44067 1.31414 0
M  V30 2618 O 252.116 -1.90763 0.445658 0
M  V30 2619 H 250.696 -0.0554468 0.744939 0
M  V30 2620 H 253.358 0.567968 1.86441 0
M  V30 2621 H 252.454 -0.324913 3.10404 0
M  V30 2622 N 252.755 -1.56801 0.158532 0
M  V30 2623 C 254.003 -1.96102 -0.488712 0
M  V30 2624 C 254.324 -1.04498 -1.64636 0
M  V30 2625 O 253.594 -0.108783 -1.95598 0
M  V30 2626 H 252.174 -0.724102 -0.183535 0
M  V30 2627 H 254.836 -1.93457 0.236728 0
M  V30 2628 H 253.932 -3.00097 -0.857219 0
M  V30 2629 N 254.233 0.115231 -1.57178 0
M  V30 2630 C 255.481 0.820727 -1.84685 0
M  V30 2631 C 255.802 1.80237 -0.744279 0
M  V30 2632 O 255.072 1.94529 0.231375 0
M  V30 2633 H 253.652 0.306084 -0.681411 0
M  V30 2634 H 256.314 0.101656 -1.94635 0
M  V30 2635 H 255.41 1.36366 -2.80733 0
M  V30 2636 N 255.711 1.52812 0.385517 0
M  V30 2637 C 256.958 1.68026 1.1302 0
M  V30 2638 C 257.286 0.421934 1.89868 0
M  V30 2639 O 256.541 -0.595749 1.86412 0
M  V30 2640 C 256.84 2.86856 2.13187 0
M  V30 2641 C 256.506 4.24159 1.5297 0
M  V30 2642 C 255.168 4.61501 1.36274 0
M  V30 2643 C 257.52 5.09627 1.09223 0
M  V30 2644 C 254.848 5.81966 0.743837 0
M  V30 2645 C 257.2 6.30719 0.487411 0
M  V30 2646 C 255.864 6.6679 0.307777 0
M  V30 2647 H 255.134 0.614849 0.413571 0
M  V30 2648 H 257.781 1.86962 0.414405 0
M  V30 2649 H 256.086 2.6235 2.90998 0
M  V30 2650 H 257.783 2.95821 2.70722 0
M  V30 2651 H 254.373 3.94746 1.66954 0
M  V30 2652 H 258.557 4.81343 1.20922 0
M  V30 2653 H 253.813 6.08519 0.592891 0
M  V30 2654 H 257.987 6.96259 0.140143 0
M  V30 2655 H 255.614 7.60001 -0.173879 0
M  V30 2656 N 257.189 -0.644168 1.43834 0
M  V30 2657 C 258.119 -1.76814 1.52509 0
M  V30 2658 C 259.1 -1.65823 0.379052 0
M  V30 2659 O 260.285 -1.84781 0.597466 0
M  V30 2660 C 257.415 -3.15288 1.4564 0
M  V30 2661 C 256.369 -3.41053 2.58586 0
M  V30 2662 C 255.695 -4.79421 2.36769 0
M  V30 2663 C 256.995 -3.34902 4.00797 0
M  V30 2664 H 258.689 -1.69812 2.46586 0
M  V30 2665 H 256.235 -0.815542 1.1868 0
M  V30 2666 H 258.188 -3.93681 1.50311 0
M  V30 2667 H 256.912 -3.23043 0.480725 0
M  V30 2668 H 255.571 -2.65035 2.53282 0
M  V30 2669 H 255.219 -4.83863 1.37424 0
M  V30 2670 H 254.919 -4.9762 3.12487 0
M  V30 2671 H 256.443 -5.6006 2.43238 0
M  V30 2672 H 257.857 -4.03218 4.07539 0
M  V30 2673 H 256.254 -3.64637 4.76613 0
M  V30 2674 H 257.324 -2.32928 4.25291 0
M  V30 2675 N 258.668 -1.30515 -0.883378 0
M  V30 2676 C 259.631 -1.1701 -1.97082 0
M  V30 2677 C 260.631 -0.10089 -1.60483 0
M  V30 2678 O 261.821 -0.349127 -1.70666 0
M  V30 2679 C 258.953 -0.793045 -3.31547 0
M  V30 2680 H 260.146 -2.13622 -2.10489 0
M  V30 2681 H 257.699 -1.13935 -1.06998 0
M  V30 2682 H 258.434 0.172499 -3.23841 0
M  V30 2683 H 258.219 -1.56576 -3.5948 0
M  V30 2684 H 259.709 -0.722073 -4.1131 0
M  V30 2685 N 260.146 1.09593 -1.13257 0
M  V30 2686 C 261.393 1.81734 -0.893257 0
M  V30 2687 C 261.721 1.8563 0.580656 0
M  V30 2688 O 260.976 1.31906 1.44566 0
M  V30 2689 C 261.275 3.27802 -1.42411 0
M  V30 2690 C 260.941 3.44041 -2.91456 0
M  V30 2691 C 259.603 3.48181 -3.3215 0
M  V30 2692 C 261.955 3.48719 -3.87356 0
M  V30 2693 C 259.283 3.54575 -4.67433 0
M  V30 2694 C 261.635 3.56648 -5.2248 0
M  V30 2695 C 260.299 3.59055 -5.62704 0
M  V30 2696 H 259.569 0.665011 -0.326866 0
M  V30 2697 H 262.216 1.2912 -1.41422 0
M  V30 2698 H 260.521 3.83042 -0.823795 0
M  V30 2699 H 262.218 3.82149 -1.21503 0
M  V30 2700 H 258.808 3.41502 -2.58987 0
M  V30 2701 H 262.992 3.44763 -3.57004 0
M  V30 2702 H 258.248 3.54725 -4.97976 0
M  V30 2703 H 262.422 3.59212 -5.96607 0
M  V30 2704 H 260.049 3.63763 -6.67518 0
M  V30 2705 N 261.624 0.925811 1.2754 0
M  V30 2706 C 262.854 0.580666 1.98272 0
M  V30 2707 C 263.262 -0.845207 1.69272 0
M  V30 2708 O 262.605 -1.57306 0.948707 0
M  V30 2709 C 262.667 0.724418 3.52126 0
M  V30 2710 C 262.331 2.12206 4.04744 0
M  V30 2711 C 263.328 3.09604 4.17662 0
M  V30 2712 C 261.013 2.4385 4.39138 0
M  V30 2713 C 263.007 4.36755 4.64246 0
M  V30 2714 C 260.694 3.71237 4.85414 0
M  V30 2715 C 261.692 4.67503 4.97926 0
M  V30 2716 O 261.38 5.92624 5.43187 0
M  V30 2717 H 261.112 0.218987 0.639547 0
M  V30 2718 H 263.666 1.24452 1.63404 0
M  V30 2719 H 261.896 0.0034663 3.867 0
M  V30 2720 H 263.585 0.384607 4.04074 0
M  V30 2721 H 264.351 2.86478 3.91351 0
M  V30 2722 H 260.23 1.69665 4.28643 0
M  V30 2723 H 263.774 5.11898 4.73927 0
M  V30 2724 H 259.671 3.94182 5.11166 0
M  V30 2725 H 260.439 5.95585 5.61445 0
M  V30 2726 N 263.102 -1.41638 0.69111 0
M  V30 2727 C 264.05 -2.32597 0.0115199 0
M  V30 2728 C 265.044 -1.5072 -0.773296 0
M  V30 2729 O 266.25 -1.66685 -0.67942 0
M  V30 2730 H 262.625 -0.751849 -0.0150746 0
M  V30 2731 H 264.596 -2.87593 0.795791 0
M  V30 2732 C 263.345 -3.35467 -0.914172 0
M  V30 2733 H 262.668 -3.9852 -0.319687 0
M  V30 2734 H 264.108 -4.01662 -1.35808 0
M  V30 2735 C 262.567 -2.69004 -2.02826 0
M  V30 2736 O 263.097 -2.53444 -3.11655 0
M  V30 2737 N 261.303 -2.2777 -1.80469 0
M  V30 2738 H 260.85 -2.40626 -0.919615 0
M  V30 2739 H 260.808 -1.83635 -2.55197 0
M  V30 2740 N 264.58 -0.43555 -1.51462 0
M  V30 2741 C 265.82 0.130708 -2.03982 0
M  V30 2742 C 266.184 1.40117 -1.31268 0
M  V30 2743 O 267.385 2.04755 -1.74152 0
M  V30 2744 C 265.656 0.346102 -3.5572 0
M  V30 2745 S 267.215 0.876022 -4.29967 0
M  V30 2746 H 264.033 0.0326881 -0.710248 0
M  V30 2747 H 266.635 -0.594544 -1.8624 0
M  V30 2748 H 265.339 -0.584911 -4.0621 0
M  V30 2749 H 264.87 1.09849 -3.77752 0
M  V30 2750 H 266.885 2.15379 -4.47019 0
M  V30 2751 N 266.058 1.56714 -0.166846 0
M  V30 2752 C 266.99 2.14914 0.796537 0
M  V30 2753 C 268.003 1.10357 1.19688 0
M  V30 2754 O 269.192 1.37561 1.13751 0
M  V30 2755 C 266.292 2.67326 2.08303 0
M  V30 2756 C 265.465 3.96493 1.84696 0
M  V30 2757 C 264.524 4.34014 2.97521 0
M  V30 2758 O 263.55 5.01973 2.6835 0
M  V30 2759 N 264.752 3.95208 4.25196 0
M  V30 2760 H 267.517 2.98205 0.299006 0
M  V30 2761 H 265.078 1.61892 0.0160839 0
M  V30 2762 H 267.07 2.89428 2.82867 0
M  V30 2763 H 265.64 1.88649 2.4926 0
M  V30 2764 H 264.86 3.82814 0.940602 0
M  V30 2765 H 266.148 4.8086 1.66285 0
M  V30 2766 H 265.546 3.40487 4.51758 0
M  V30 2767 H 264.103 4.2232 4.96477 0
M  V30 2768 N 267.536 -0.106894 1.57237 0
M  V30 2769 C 268.466 -1.13148 2.04254 0
M  V30 2770 C 269.447 -1.42476 0.929224 0
M  V30 2771 O 270.632 -1.52709 1.19973 0
M  V30 2772 C 267.762 -2.4545 2.45706 0
M  V30 2773 C 266.716 -2.30558 3.60592 0
M  V30 2774 C 266.042 -3.67931 3.87983 0
M  V30 2775 C 267.342 -1.75597 4.91897 0
M  V30 2776 H 269.036 -0.740374 2.90101 0
M  V30 2777 H 266.582 -0.354696 1.39563 0
M  V30 2778 H 268.535 -3.17389 2.77205 0
M  V30 2779 H 267.259 -2.86475 1.56843 0
M  V30 2780 H 265.918 -1.61067 3.29322 0
M  V30 2781 H 265.566 -4.06462 2.96306 0
M  V30 2782 H 265.266 -3.58817 4.65322 0
M  V30 2783 H 266.79 -4.41356 4.21945 0
M  V30 2784 H 268.204 -2.37364 5.21854 0
M  V30 2785 H 266.601 -1.77272 5.73319 0
M  V30 2786 H 267.671 -0.714451 4.79608 0
M  V30 2787 N 269.014 -1.53014 -0.377408 0
M  V30 2788 C 270.239 -1.72818 -1.14668 0
M  V30 2789 C 270.664 -0.450725 -1.8262 0
M  V30 2790 O 270.022 0.59439 -1.7128 0
M  V30 2791 C 270.07 -2.88627 -2.16164 0
M  V30 2792 O 269.174 -2.56409 -3.22998 0
M  V30 2793 H 268.515 -0.574301 -0.333278 0
M  V30 2794 H 271.045 -1.99853 -0.438152 0
M  V30 2795 H 271.055 -3.14455 -2.59966 0
M  V30 2796 H 269.73 -3.81294 -1.66095 0
M  V30 2797 H 268.307 -2.4136 -2.84253 0
M  V30 2798 N 270.492 0.636531 -1.44174 0
M  V30 2799 C 271.738 1.39649 -1.47884 0
M  V30 2800 C 272.093 1.92098 -0.107747 0
M  V30 2801 O 271.386 1.70391 0.876208 0
M  V30 2802 C 271.58 2.58309 -2.47005 0
M  V30 2803 C 271.409 2.17476 -3.93617 0
M  V30 2804 C 270.179 2.0501 -4.61843 0
M  V30 2805 C 272.377 1.76722 -4.82984 0
M  V30 2806 N 270.359 1.57683 -5.93304 0
M  V30 2807 C 271.73 1.40601 -6.03847 0
M  V30 2808 C 273.785 1.64054 -4.70096 0
M  V30 2809 C 272.488 0.930787 -7.13252 0
M  V30 2810 C 274.514 1.17937 -5.79521 0
M  V30 2811 C 273.876 0.827625 -6.99521 0
M  V30 2812 H 269.975 0.506027 -0.596205 0
M  V30 2813 H 272.559 0.730791 -1.80465 0
M  V30 2814 H 270.73 3.22514 -2.16423 0
M  V30 2815 H 272.462 3.25083 -2.41045 0
M  V30 2816 H 269.217 2.25294 -4.16581 0
M  V30 2817 H 269.641 1.36334 -6.63131 0
M  V30 2818 H 274.283 1.89882 -3.77762 0
M  V30 2819 H 272.001 0.660012 -8.054 0
M  V30 2820 H 275.587 1.08601 -5.71574 0
M  V30 2821 H 274.467 0.476231 -7.82753 0
M  V30 2822 N 271.97 1.30982 0.876444 0
M  V30 2823 C 273.195 1.23373 1.66715 0
M  V30 2824 C 273.62 -0.19885 1.87046 0
M  V30 2825 O 272.978 -1.1427 1.40756 0
M  V30 2826 C 273.026 1.97644 3.01611 0
M  V30 2827 O 272.13 1.30935 3.91062 0
M  V30 2828 H 271.471 0.426279 0.509099 0
M  V30 2829 H 274.001 1.72944 1.09323 0
M  V30 2830 H 274.011 2.06992 3.51594 0
M  V30 2831 H 272.686 3.01829 2.86133 0
M  V30 2832 H 271.263 1.29996 3.49507 0
M  V30 2833 N 273.449 -1.08991 1.13837 0
M  V30 2834 C 274.674 -1.85551 0.926585 0
M  V30 2835 C 275.099 -1.80782 -0.519566 0
M  V30 2836 O 274.457 -1.18855 -1.36906 0
M  V30 2837 C 274.505 -3.31266 1.42462 0
M  V30 2838 O 273.609 -4.07822 0.612789 0
M  V30 2839 H 272.95 -0.575192 0.331738 0
M  V30 2840 H 275.48 -1.37604 1.51414 0
M  V30 2841 H 275.49 -3.82112 1.43019 0
M  V30 2842 H 274.165 -3.34052 2.47754 0
M  V30 2843 H 272.742 -3.66731 0.675463 0
M  V30 2844 N 274.927 -0.932562 -1.27047 0
M  V30 2845 C 276.152 -0.591474 -1.98787 0
M  V30 2846 C 276.577 0.824601 -1.69062 0
M  V30 2847 O 275.935 1.5541 -0.933677 0
M  V30 2848 C 275.983 -0.829808 -3.50922 0
M  V30 2849 O 275.087 0.102266 -4.12273 0
M  V30 2850 H 274.428 -0.227185 -0.623926 0
M  V30 2851 H 276.958 -1.25314 -1.61733 0
M  V30 2852 H 276.968 -0.747292 -4.01098 0
M  V30 2853 H 275.643 -1.86201 -3.7189 0
M  V30 2854 H 274.22 -0.0305761 -3.72887 0
M  V30 2855 N 276.405 1.4127 -0.698611 0
M  V30 2856 C 277.816 1.84187 -0.305289 0
M  V30 2857 C 278.167 1.58449 1.15708 0
M  V30 2858 O 277.292 1.05651 1.88856 0
M  V30 2859 C 277.887 3.3435 -0.547314 0
M  V30 2860 C 276.446 3.75826 -0.207878 0
M  V30 2861 C 275.593 2.64647 -0.828099 0
M  V30 2862 H 278.544 1.30778 -0.89904 0
M  V30 2863 H 278.565 3.8001 0.192998 0
M  V30 2864 H 278.077 3.53051 -1.61172 0
M  V30 2865 H 276.178 3.62725 0.852143 0
M  V30 2866 H 276.291 4.74462 -0.665021 0
M  V30 2867 H 274.655 2.53395 -0.257458 0
M  V30 2868 H 275.438 2.86165 -1.89643 0
M  V30 2869 N 277.883 0.443576 1.51229 0
M  V30 2870 C 279.129 -0.120975 2.02439 0
M  V30 2871 C 279.462 -1.41815 1.32674 0
M  V30 2872 O 278.737 -1.89373 0.443622 0
M  V30 2873 C 279.02 -0.333291 3.58554 0
M  V30 2874 C 278.873 0.982968 4.38928 0
M  V30 2875 C 280.192 -1.10028 4.26124 0
M  V30 2876 H 277.311 -0.0424923 0.735774 0
M  V30 2877 H 279.953 0.583794 1.80809 0
M  V30 2878 H 278.103 -0.933614 3.77115 0
M  V30 2879 H 279.775 1.61775 4.32003 0
M  V30 2880 H 278.018 1.58611 4.03763 0
M  V30 2881 H 278.689 0.788379 5.46341 0
M  V30 2882 H 281.165 -0.591711 4.11871 0
M  V30 2883 H 280.041 -1.21761 5.35225 0
M  V30 2884 H 280.302 -2.12996 3.87408 0
M  V30 2885 N 279.361 -1.56624 0.175154 0
M  V30 2886 C 280.607 -1.9729 -0.469506 0
M  V30 2887 C 280.94 -1.06128 -1.62636 0
M  V30 2888 O 280.215 -0.109183 -1.94193 0
M  V30 2889 C 280.498 -3.47375 -0.948804 0
M  V30 2890 C 280.351 -4.49317 0.208491 0
M  V30 2891 C 281.67 -4.00652 -1.82116 0
M  V30 2892 H 278.789 -0.717317 -0.16919 0
M  V30 2893 H 281.431 -1.88184 0.262062 0
M  V30 2894 H 279.581 -3.55267 -1.57219 0
M  V30 2895 H 281.253 -4.53482 0.845682 0
M  V30 2896 H 279.496 -4.25121 0.863395 0
M  V30 2897 H 280.167 -5.51741 -0.169059 0
M  V30 2898 H 282.643 -3.95416 -1.2956 0
M  V30 2899 H 281.519 -5.06075 -2.12554 0
M  V30 2900 H 281.78 -3.44699 -2.7683 0
M  V30 2901 N 280.839 0.0985539 -1.57292 0
M  V30 2902 C 282.067 0.816318 -1.90115 0
M  V30 2903 C 282.482 1.72451 -0.768509 0
M  V30 2904 O 281.839 1.80643 0.259687 0
M  V30 2905 C 281.89 1.63259 -3.22535 0
M  V30 2906 O 281.611 0.760934 -4.31441 0
M  V30 2907 C 283.112 2.45372 -3.69199 0
M  V30 2908 H 280.332 0.233595 -0.629027 0
M  V30 2909 H 282.876 0.0768229 -2.04356 0
M  V30 2910 H 281.031 2.32463 -3.09903 0
M  V30 2911 H 281.445 1.32595 -5.07463 0
M  V30 2912 H 282.919 2.98144 -4.64558 0
M  V30 2913 H 283.396 3.23677 -2.96867 0
M  V30 2914 H 284.002 1.81373 -3.84687 0
M  V30 2915 N 282.317 1.53212 0.369288 0
M  V30 2916 C 283.728 1.60943 0.946276 0
M  V30 2917 C 284.079 0.47452 1.90375 0
M  V30 2918 O 283.204 -0.399597 2.12679 0
M  V30 2919 C 283.799 2.91715 1.72302 0
M  V30 2920 C 282.358 3.01792 2.24941 0
M  V30 2921 C 281.505 2.56211 1.06072 0
M  V30 2922 H 284.456 1.58007 0.148198 0
M  V30 2923 H 284.477 2.79309 2.58393 0
M  V30 2924 H 283.989 3.74295 1.0259 0
M  V30 2925 H 282.09 2.23791 2.97906 0
M  V30 2926 H 282.203 4.06803 2.53077 0
M  V30 2927 H 280.567 2.10998 1.4266 0
M  V30 2928 H 281.35 3.41206 0.378639 0
M  V30 2929 N 283.795 -0.628877 1.44509 0
M  V30 2930 C 285.023 -1.41554 1.50897 0
M  V30 2931 C 285.438 -1.8832 0.134564 0
M  V30 2932 O 284.795 -1.60969 -0.859965 0
M  V30 2933 C 284.846 -2.63435 2.47556 0
M  V30 2934 O 284.567 -2.18619 3.79654 0
M  V30 2935 C 286.068 -3.56537 2.63431 0
M  V30 2936 H 283.288 -0.434044 0.511709 0
M  V30 2937 H 285.832 -0.768895 1.89495 0
M  V30 2938 H 283.987 -3.24187 2.12089 0
M  V30 2939 H 284.401 -2.97652 4.31861 0
M  V30 2940 H 285.875 -4.38657 3.35088 0
M  V30 2941 H 286.352 -4.05493 1.68738 0
M  V30 2942 H 286.958 -3.01653 2.9981 0
M  V30 2943 N 285.273 -1.31445 -0.869486 0
M  V30 2944 C 286.513 -1.22458 -1.63656 0
M  V30 2945 C 286.877 0.213846 -1.90805 0
M  V30 2946 O 288.078 0.427212 -2.65383 0
M  V30 2947 C 286.349 -2.04564 -2.93067 0
M  V30 2948 S 287.908 -2.12445 -3.83944 0
M  V30 2949 H 284.726 -0.436145 -0.561514 0
M  V30 2950 H 287.328 -1.66114 -1.03085 0
M  V30 2951 H 286.032 -3.0816 -2.71045 0
M  V30 2952 H 285.563 -1.6163 -3.58663 0
M  V30 2953 H 287.578 -1.26312 -4.79854 0
M  V30 2954 N 286.751 1.08385 -1.14413 0
M  V30 2955 C 288.028 1.77429 -0.823297 0
M  V30 2956 C 288.408 1.9974 0.683163 0
M  V30 2957 O 287.756 1.60739 1.62405 0
M  V30 2958 C 287.966 3.09004 -1.62227 0
M  V30 2959 C 289.314 3.83532 -1.82177 0
M  V30 2960 O 290.338 3.18786 -1.58915 0
M  V30 2961 O 289.197 4.99792 -2.21067 0
M  V30 2962 H 286.291 0.769999 -0.301712 0
M  V30 2963 H 288.837 1.14846 -1.24934 0
M  V30 2964 H 287.609 2.88316 -2.64555 0
M  V30 2965 H 287.232 3.79316 -1.19187 0
M  V30 2966 N 288.23 0.939286 1.26551 0
M  V30 2967 C 289.479 0.581601 1.93133 0
M  V30 2968 C 289.792 -0.883224 1.74524 0
M  V30 2969 O 290.998 -1.3502 2.35546 0
M  V30 2970 C 289.454 0.989425 3.46032 0
M  V30 2971 C 289.062 2.47573 3.73379 0
M  V30 2972 C 290.806 0.703544 4.18629 0
M  V30 2973 C 288.713 2.82235 5.19709 0
M  V30 2974 H 287.643 0.213803 0.723052 0
M  V30 2975 H 290.294 1.14167 1.4366 0
M  V30 2976 H 288.676 0.357902 3.94379 0
M  V30 2977 H 289.85 3.15614 3.35744 0
M  V30 2978 H 288.165 2.73471 3.1401 0
M  V30 2979 H 290.762 0.938869 5.26393 0
M  V30 2980 H 291.105 -0.359639 4.14744 0
M  V30 2981 H 291.638 1.2947 3.76141 0
M  V30 2982 H 288.377 3.87509 5.28694 0
M  V30 2983 H 287.897 2.18854 5.58447 0
M  V30 2984 H 289.576 2.70599 5.87695 0
M  V30 2985 N 289.708 -1.40897 0.706093 0
M  V30 2986 C 290.638 -2.33418 0.0620085 0
M  V30 2987 C 291.619 -1.52385 -0.755827 0
M  V30 2988 O 292.804 -1.80886 -0.706674 0
M  V30 2989 C 289.934 -3.36293 -0.867445 0
M  V30 2990 C 288.888 -4.27716 -0.155932 0
M  V30 2991 C 288.214 -5.2105 -1.20046 0
M  V30 2992 C 289.514 -5.12944 0.984149 0
M  V30 2993 H 291.208 -2.87527 0.83477 0
M  V30 2994 H 288.754 -1.38249 0.402875 0
M  V30 2995 H 290.707 -3.99949 -1.32735 0
M  V30 2996 H 289.431 -2.80556 -1.67199 0
M  V30 2997 H 288.09 -3.65498 0.284047 0
M  V30 2998 H 287.738 -4.61624 -1.99781 0
M  V30 2999 H 287.438 -5.83056 -0.729328 0
M  V30 3000 H 288.962 -5.87584 -1.66066 0
M  V30 3001 H 290.376 -5.70109 0.604048 0
M  V30 3002 H 288.773 -5.83945 1.38304 0
M  V30 3003 H 289.843 -4.49485 1.81911 0
M  V30 3004 N 291.186 -0.45159 -1.50991 0
M  V30 3005 C 292.411 0.110667 -2.07105 0
M  V30 3006 C 292.836 1.3446 -1.31538 0
M  V30 3007 O 292.194 1.77743 -0.357365 0
M  V30 3008 C 292.242 0.397238 -3.58405 0
M  V30 3009 O 291.346 1.48124 -3.84881 0
M  V30 3010 H 290.687 -0.00439271 -0.663985 0
M  V30 3011 H 293.217 -0.637026 -1.9443 0
M  V30 3012 H 293.227 0.64351 -4.02893 0
M  V30 3013 H 291.902 -0.504553 -4.12828 0
M  V30 3014 H 290.479 1.22381 -3.52246 0
M  V30 3015 N 292.664 1.56529 -0.183458 0
M  V30 3016 C 293.574 2.22144 0.754272 0
M  V30 3017 C 294.59 1.21684 1.24374 0
M  V30 3018 O 295.766 1.54385 1.29333 0
M  V30 3019 C 292.831 2.85884 1.96141 0
M  V30 3020 C 291.892 4.01579 1.51765 0
M  V30 3021 C 291.125 4.6227 2.66725 0
M  V30 3022 O 291.348 4.21865 3.83909 0
M  V30 3023 O 290.282 5.51936 2.40104 0
M  V30 3024 H 294.108 3.02861 0.225527 0
M  V30 3025 H 291.693 1.49331 0.0453032 0
M  V30 3026 H 293.575 3.26253 2.66715 0
M  V30 3027 H 292.25 2.08154 2.47899 0
M  V30 3028 H 291.157 3.65856 0.781049 0
M  V30 3029 H 292.49 4.80938 1.04686 0
M  V30 3030 N 294.142 -0.090211 1.57342 0
M  V30 3031 C 295.089 -1.10909 2.02405 0
M  V30 3032 C 296.059 -1.39523 0.901252 0
M  V30 3033 O 297.244 -1.50903 1.1676 0
M  V30 3034 C 294.384 -2.42277 2.45755 0
M  V30 3035 C 293.497 -2.20352 3.71576 0
M  V30 3036 C 292.632 -3.45154 4.03785 0
M  V30 3037 C 291.671 -3.18512 5.22701 0
M  V30 3038 N 290.808 -4.35593 5.50639 0
M  V30 3039 H 295.648 -0.71782 2.89225 0
M  V30 3040 H 293.185 -0.342901 1.43048 0
M  V30 3041 H 295.143 -3.18951 2.68935 0
M  V30 3042 H 293.773 -2.79242 1.61938 0
M  V30 3043 H 292.825 -1.34458 3.55844 0
M  V30 3044 H 294.137 -1.96661 4.58395 0
M  V30 3045 H 293.291 -4.30233 4.27767 0
M  V30 3046 H 292.03 -3.71904 3.15498 0
M  V30 3047 H 291.035 -2.31827 4.98534 0
M  V30 3048 H 292.26 -2.93103 6.12591 0
M  V30 3049 H 290.206 -4.6241 4.6531 0
M  V30 3050 H 290.123 -4.1511 6.31838 0
M  V30 3051 H 291.391 -5.21723 5.7916 0
M  V30 3052 N 295.62 -1.53406 -0.361157 0
M  V30 3053 C 296.867 -1.69802 -1.10333 0
M  V30 3054 C 297.195 -0.452087 -1.89173 0
M  V30 3055 O 296.45 0.566017 -1.87336 0
M  V30 3056 C 296.749 -2.90211 -2.08596 0
M  V30 3057 C 296.415 -4.26539 -1.46203 0
M  V30 3058 C 295.077 -4.6361 -1.28915 0
M  V30 3059 C 297.429 -5.113 -1.01101 0
M  V30 3060 C 294.757 -5.83075 -0.651157 0
M  V30 3061 C 297.109 -6.31415 -0.387007 0
M  V30 3062 C 295.773 -6.67195 -0.201657 0
M  V30 3063 H 295.043 -0.621351 -0.403737 0
M  V30 3064 H 297.69 -1.87598 -0.384609 0
M  V30 3065 H 295.995 -2.66946 -2.86788 0
M  V30 3066 H 297.692 -3.00091 -2.65982 0
M  V30 3067 H 294.282 -3.97352 -1.60653 0
M  V30 3068 H 298.466 -4.83206 -1.13249 0
M  V30 3069 H 293.722 -6.09385 -0.496006 0
M  V30 3070 H 297.896 -6.96394 -0.0293563 0
M  V30 3071 H 295.523 -7.59628 0.294766 0
M  V30 3072 N 297.098 0.621204 -1.44841 0
M  V30 3073 C 298.048 1.72663 -1.48901 0
M  V30 3074 C 299.032 1.56964 -0.353702 0
M  V30 3075 O 300.224 1.66532 -0.599669 0
M  V30 3076 C 297.353 3.11381 -1.44557 0
M  V30 3077 C 296.439 3.32514 -2.6324 0
M  V30 3078 N 296.83 3.23969 -3.8843 0
M  V30 3079 C 295.128 3.63343 -2.58647 0
M  V30 3080 C 295.829 3.46062 -4.67564 0
M  V30 3081 N 294.805 3.69407 -3.98797 0
M  V30 3082 H 298.607 1.64529 -2.43531 0
M  V30 3083 H 296.121 0.82401 -1.39942 0
M  V30 3084 H 298.118 3.90667 -1.4555 0
M  V30 3085 H 296.778 3.20674 -0.509731 0
M  V30 3086 H 297.789 3.02669 -4.20252 0
M  V30 3087 H 294.466 3.79556 -1.73906 0
M  V30 3088 H 295.856 3.44963 -5.76585 0
M  V30 3089 N 298.576 1.31904 0.862503 0
M  V30 3090 C 299.992 1.10724 1.14945 0
M  V30 3091 C 300.192 -0.117421 2.01158 0
M  V30 3092 O 299.248 -0.804595 2.39338 0
M  V30 3093 C 300.561 2.38267 1.83437 0
M  V30 3094 C 302.109 2.43949 1.96106 0
M  V30 3095 C 302.584 3.71394 2.68013 0
M  V30 3096 N 304.075 3.72331 2.75543 0
M  V30 3097 C 304.81 4.67641 3.31812 0
M  V30 3098 N 304.306 5.73313 3.88953 0
M  V30 3099 N 306.099 4.5515 3.29841 0
M  V30 3100 H 298.25 2.10436 0.288191 0
M  V30 3101 H 300.513 0.928705 0.190292 0
M  V30 3102 H 300.219 3.27759 1.27542 0
M  V30 3103 H 300.093 2.48633 2.83657 0
M  V30 3104 H 302.48 1.54922 2.51164 0
M  V30 3105 H 302.561 2.37543 0.949059 0
M  V30 3106 H 302.205 4.60791 2.13621 0
M  V30 3107 H 302.135 3.75069 3.69636 0
M  V30 3108 H 304.626 2.95947 2.34997 0
M  V30 3109 H 304.939 6.42107 4.30022 0
M  V30 3110 H 303.284 5.77077 3.87308 0
M  V30 3111 H 306.475 3.71766 2.84443 0
M  V30 3112 H 306.648 5.29604 3.73394 0
M  V30 3113 N 300.054 -1.07777 1.14986 0
M  V30 3114 C 301.302 -1.79934 0.920235 0
M  V30 3115 C 301.623 -1.86955 -0.554336 0
M  V30 3116 O 300.893 -1.36731 -1.40291 0
M  V30 3117 H 299.473 -0.666424 0.337473 0
M  V30 3118 H 302.135 -1.3027 1.44968 0
M  V30 3119 H 301.231 -2.82539 1.32583 0
M  V30 3120 N 301.532 -0.945985 -1.26051 0
M  V30 3121 C 302.464 -0.416662 -2.25381 0
M  V30 3122 C 303.477 0.462712 -1.56086 0
M  V30 3123 O 304.666 0.272383 -1.7641 0
M  V30 3124 C 301.766 0.419812 -3.3629 0
M  V30 3125 C 300.939 -0.444531 -4.35135 0
M  V30 3126 C 299.998 0.332305 -5.2515 0
M  V30 3127 O 299.024 -0.266324 -5.68577 0
M  V30 3128 N 300.226 1.62763 -5.57215 0
M  V30 3129 H 302.991 -1.27059 -2.71433 0
M  V30 3130 H 300.552 -0.815392 -1.39868 0
M  V30 3131 H 302.544 0.947013 -3.93464 0
M  V30 3132 H 301.114 1.17456 -2.89694 0
M  V30 3133 H 300.334 -1.15291 -3.76964 0
M  V30 3134 H 301.622 -1.03478 -4.98166 0
M  V30 3135 H 301.02 2.13603 -5.23823 0
M  V30 3136 H 299.577 2.10097 -6.17011 0
M  V30 3137 N 303.011 1.40521 -0.713556 0
M  V30 3138 C 303.974 2.29098 -0.0684347 0
M  V30 3139 C 304.974 1.45268 0.689472 0
M  V30 3140 O 306.164 1.66205 0.521677 0
M  V30 3141 C 303.296 3.28446 0.913024 0
M  V30 3142 H 304.489 2.87645 -0.84855 0
M  V30 3143 H 302.042 1.48809 -0.47809 0
M  V30 3144 H 302.777 2.74913 1.72027 0
M  V30 3145 H 302.562 3.90327 0.372472 0
M  V30 3146 H 304.052 3.94777 1.36165 0
M  V30 3147 N 304.489 0.459591 1.5075 0
M  V30 3148 C 305.419 -0.330644 2.31147 0
M  V30 3149 C 306.4 -1.00087 1.37538 0
M  V30 3150 O 307.585 -1.00025 1.66459 0
M  V30 3151 C 304.715 -1.41958 3.16962 0
M  V30 3152 C 303.669 -0.871608 4.19031 0
M  V30 3153 C 302.995 -2.05797 4.9351 0
M  V30 3154 C 304.295 0.109251 5.22186 0
M  V30 3155 H 305.989 0.340336 2.97459 0
M  V30 3156 H 303.535 0.165119 1.4305 0
M  V30 3157 H 305.488 -1.9798 3.71997 0
M  V30 3158 H 304.212 -2.11917 2.48513 0
M  V30 3159 H 302.871 -0.333442 3.6508 0
M  V30 3160 H 302.519 -2.74427 4.21544 0
M  V30 3161 H 302.219 -1.6976 5.62544 0
M  V30 3162 H 303.743 -2.62331 5.51375 0
M  V30 3163 H 305.157 -0.361405 5.7216 0
M  V30 3164 H 303.554 0.383316 5.98875 0
M  V30 3165 H 304.624 1.03887 4.73641 0
M  V30 3166 N 305.967 -1.56429 0.191757 0
M  V30 3167 C 306.877 -2.22541 -0.742481 0
M  V30 3168 C 307.893 -1.22342 -1.23727 0
M  V30 3169 O 309.069 -1.55069 -1.28513 0
M  V30 3170 C 306.134 -2.8692 -1.94623 0
M  V30 3171 C 305.195 -4.02378 -1.49633 0
M  V30 3172 C 304.428 -4.63678 -2.6427 0
M  V30 3173 O 304.651 -4.23895 -3.81666 0
M  V30 3174 O 303.585 -5.53202 -2.37174 0
M  V30 3175 H 307.411 -3.02977 -0.209462 0
M  V30 3176 H 304.996 -1.49353 -0.0373832 0
M  V30 3177 H 306.878 -3.27663 -2.64982 0
M  V30 3178 H 305.553 -2.09466 -2.46791 0
M  V30 3179 H 304.46 -3.66265 -0.761636 0
M  V30 3180 H 305.793 -4.81487 -1.02134 0
M  V30 3181 N 307.445 0.0818655 -1.57387 0
M  V30 3182 C 308.408 1.08265 -2.02018 0
M  V30 3183 C 309.408 1.32183 -0.915664 0
M  V30 3184 O 310.598 1.28073 -1.18081 0
M  V30 3185 C 307.73 2.42871 -2.39221 0
M  V30 3186 H 308.923 0.698204 -2.91659 0
M  V30 3187 H 306.476 0.327303 -1.52835 0
M  V30 3188 H 307.211 2.86167 -1.52575 0
M  V30 3189 H 306.996 2.26855 -3.19811 0
M  V30 3190 H 308.486 3.14826 -2.74362 0
M  V30 3191 N 308.923 1.53595 0.353017 0
M  V30 3192 C 309.853 1.83902 1.43883 0
M  V30 3193 C 310.834 0.693421 1.55324 0
M  V30 3194 O 312.019 0.944452 1.69687 0
M  V30 3195 C 309.149 2.04016 2.8106 0
M  V30 3196 C 308.103 3.19814 2.84434 0
M  V30 3197 C 307.429 3.25244 4.24406 0
M  V30 3198 C 308.729 4.58133 2.50822 0
M  V30 3199 H 310.423 2.74835 1.1877 0
M  V30 3200 H 307.969 1.32242 0.569917 0
M  V30 3201 H 309.922 2.238 3.57059 0
M  V30 3202 H 308.646 1.09804 3.07588 0
M  V30 3203 H 307.305 2.9987 2.10887 0
M  V30 3204 H 306.953 2.28646 4.48029 0
M  V30 3205 H 306.653 4.03054 4.27576 0
M  V30 3206 H 308.177 3.47228 5.0226 0
M  V30 3207 H 309.591 4.77995 3.16534 0
M  V30 3208 H 307.988 5.38276 2.6529 0
M  V30 3209 H 309.058 4.62387 1.46034 0
M  V30 3210 N 310.401 -0.613514 1.45168 0
M  V30 3211 C 311.649 -1.36997 1.48581 0
M  V30 3212 C 311.97 -1.94589 0.126545 0
M  V30 3213 O 311.24 -1.76816 -0.843372 0
M  V30 3214 H 309.82 -0.508558 0.547154 0
M  V30 3215 H 312.482 -0.720853 1.81079 0
M  V30 3216 H 311.578 -2.1924 2.22127 0
M  V30 3217 N 311.879 -1.3236 -0.855495 0
M  V30 3218 C 312.811 -1.17052 -1.97057 0
M  V30 3219 C 313.824 -0.10574 -1.62456 0
M  V30 3220 O 315.013 -0.354619 -1.74942 0
M  V30 3221 C 312.113 -0.769305 -3.30053 0
M  V30 3222 C 311.286 -1.9222 -3.929 0
M  V30 3223 C 310.345 -1.50466 -5.04228 0
M  V30 3224 O 309.371 -2.21655 -5.24269 0
M  V30 3225 N 310.573 -0.400209 -5.79119 0
M  V30 3226 H 313.338 -2.13103 -2.1073 0
M  V30 3227 H 310.899 -1.24885 -1.0303 0
M  V30 3228 H 312.891 -0.472407 -4.01933 0
M  V30 3229 H 311.461 0.100025 -3.1244 0
M  V30 3230 H 310.681 -2.38563 -3.13817 0
M  V30 3231 H 311.969 -2.69403 -4.31624 0
M  V30 3232 H 311.367 0.192319 -5.65373 0
M  V30 3233 H 309.924 -0.162912 -6.51596 0
M  V30 3234 N 313.357 1.07166 -1.15556 0
M  V30 3235 C 314.32 2.12589 -0.856644 0
M  V30 3236 C 315.32 1.6015 0.14444 0
M  V30 3237 O 316.51 1.7399 -0.0854163 0
M  V30 3238 C 313.642 3.39753 -0.279405 0
M  V30 3239 H 314.835 2.40539 -1.79112 0
M  V30 3240 H 312.388 1.23086 -0.963298 0
M  V30 3241 H 313.123 3.17447 0.663174 0
M  V30 3242 H 312.908 3.79117 -1.00063 0
M  V30 3243 H 314.398 4.17507 -0.0879113 0
M  V30 3244 N 314.835 0.952656 1.25548 0
M  V30 3245 C 315.767 0.428609 2.25157 0
M  V30 3246 C 316.78 -0.454428 1.56329 0
M  V30 3247 O 317.969 -0.263023 1.76552 0
M  V30 3248 C 315.069 -0.401972 3.36508 0
M  V30 3249 C 314.242 0.467601 4.34893 0
M  V30 3250 C 313.301 -0.30445 5.25319 0
M  V30 3251 O 312.327 0.296473 5.68427 0
M  V30 3252 N 313.529 -1.59805 5.5807 0
M  V30 3253 H 316.294 1.28497 2.70756 0
M  V30 3254 H 313.855 0.822798 1.39433 0
M  V30 3255 H 315.847 -0.926134 3.9396 0
M  V30 3256 H 314.417 -1.15918 2.90313 0
M  V30 3257 H 313.637 1.17288 3.76347 0
M  V30 3258 H 314.925 1.06119 4.97611 0
M  V30 3259 H 314.323 -2.10823 5.24948 0
M  V30 3260 H 312.88 -2.06822 6.18116 0
M  V30 3261 N 316.313 -1.40141 0.720998 0
M  V30 3262 C 317.724 -1.83678 0.334553 0
M  V30 3263 C 318.075 -1.6027 -1.13173 0
M  V30 3264 O 317.2 -1.08643 -1.87152 0
M  V30 3265 C 317.795 -3.33437 0.600437 0
M  V30 3266 C 316.354 -3.75447 0.267642 0
M  V30 3267 C 315.501 -2.63296 0.870097 0
M  V30 3268 H 318.452 -1.29331 0.919732 0
M  V30 3269 H 318.473 -3.80269 -0.132517 0
M  V30 3270 H 317.985 -3.50442 1.66768 0
M  V30 3271 H 316.086 -3.64035 -0.794329 0
M  V30 3272 H 316.199 -4.73344 0.74042 0
M  V30 3273 H 314.563 -2.52954 0.297739 0
M  V30 3274 H 315.346 -2.83112 1.94172 0
M  V30 3275 N 317.792 -0.46758 -1.50504 0
M  V30 3276 C 319.038 0.0887532 -2.02606 0
M  V30 3277 C 319.371 1.39686 -1.34913 0
M  V30 3278 O 318.646 1.88644 -0.473694 0
M  V30 3279 C 318.929 0.276206 -3.59039 0
M  V30 3280 C 318.782 -1.05267 -4.37309 0
M  V30 3281 C 320.101 1.03235 -4.27821 0
M  V30 3282 H 317.22 0.0307814 -0.736357 0
M  V30 3283 H 319.862 -0.612485 -1.79857 0
M  V30 3284 H 318.012 0.8735 -3.78553 0
M  V30 3285 H 319.684 -1.68628 -4.29374 0
M  V30 3286 H 317.927 -1.65015 -4.01189 0
M  V30 3287 H 318.598 -0.875197 -5.45018 0
M  V30 3288 H 321.074 0.526111 -4.12761 0
M  V30 3289 H 319.95 1.1323 -5.37094 0
M  V30 3290 H 320.211 2.06806 -3.90748 0
M  V30 3291 N 319.27 1.56325 -0.20005 0
M  V30 3292 C 320.51 1.99619 0.439519 0
M  V30 3293 C 320.874 1.08423 1.58456 0
M  V30 3294 O 322.075 1.40973 2.28867 0
M  V30 3295 C 320.346 3.46314 0.883258 0
M  V30 3296 S 321.905 4.11634 1.51997 0
M  V30 3297 H 318.723 0.697007 0.140363 0
M  V30 3298 H 321.325 1.93118 -0.304282 0
M  V30 3299 H 320.029 4.10381 0.0398967 0
M  V30 3300 H 319.56 3.56643 1.6604 0
M  V30 3301 H 321.575 4.09049 2.8088 0
M  V30 3302 N 320.748 -0.0735177 1.57428 0
M  V30 3303 C 321.978 -0.78483 1.91112 0
M  V30 3304 C 322.386 -1.71729 0.7941 0
M  V30 3305 O 321.729 -1.82105 -0.241542 0
M  V30 3306 C 321.791 -1.63346 3.20247 0
M  V30 3307 C 321.455 -0.870557 4.48632 0
M  V30 3308 C 322.452 -0.19058 5.19551 0
M  V30 3309 C 320.137 -0.838242 4.95256 0
M  V30 3310 C 322.131 0.511503 6.35344 0
M  V30 3311 C 319.818 -0.132386 6.10957 0
M  V30 3312 C 320.816 0.541288 6.80852 0
M  V30 3313 O 320.504 1.23578 7.94345 0
M  V30 3314 H 320.236 -0.228408 0.636244 0
M  V30 3315 H 322.79 -0.0486039 2.05342 0
M  V30 3316 H 321.02 -2.41245 3.02222 0
M  V30 3317 H 322.709 -2.22329 3.39595 0
M  V30 3318 H 323.475 -0.206864 4.84559 0
M  V30 3319 H 319.354 -1.35206 4.40727 0
M  V30 3320 H 322.898 1.03789 6.89836 0
M  V30 3321 H 318.795 -0.114023 6.45399 0
M  V30 3322 H 319.563 1.14487 8.10454 0
M  V30 3323 N 322.226 -1.5378 -0.344866 0
M  V30 3324 C 323.454 -1.74899 -1.10534 0
M  V30 3325 C 323.869 -0.487534 -1.82397 0
M  V30 3326 O 323.226 0.540741 -1.74305 0
M  V30 3327 C 323.277 -2.92822 -2.11984 0
M  V30 3328 O 322.998 -4.14089 -1.43044 0
M  V30 3329 C 324.499 -3.25982 -3.00417 0
M  V30 3330 H 321.719 -0.584426 -0.329678 0
M  V30 3331 H 324.263 -2.006 -0.397474 0
M  V30 3332 H 322.418 -2.69457 -2.78338 0
M  V30 3333 H 322.832 -4.80272 -2.10805 0
M  V30 3334 H 324.306 -4.11848 -3.67539 0
M  V30 3335 H 324.783 -2.42228 -3.66363 0
M  V30 3336 H 325.389 -3.51349 -2.39654 0
M  V30 3337 N 323.704 0.605807 -1.45491 0
M  V30 3338 C 324.634 1.72709 -1.57143 0
M  V30 3339 C 325.615 1.6476 -0.422884 0
M  V30 3340 O 326.8 1.83132 -0.646247 0
M  V30 3341 C 323.93 3.11316 -1.53948 0
M  V30 3342 C 322.884 3.34077 -2.67537 0
M  V30 3343 C 322.21 4.72975 -2.49397 0
M  V30 3344 C 323.51 3.24158 -4.09535 0
M  V30 3345 H 325.204 1.63214 -2.51001 0
M  V30 3346 H 322.75 0.78379 -1.208 0
M  V30 3347 H 324.703 3.89557 -1.60696 0
M  V30 3348 H 323.427 3.21655 -0.566205 0
M  V30 3349 H 322.086 2.58227 -2.6022 0
M  V30 3350 H 321.734 4.8005 -1.50205 0
M  V30 3351 H 321.434 4.8916 -3.25571 0
M  V30 3352 H 322.958 5.53414 -2.58002 0
M  V30 3353 H 324.372 3.92271 -4.18086 0
M  V30 3354 H 322.769 3.51872 -4.86113 0
M  V30 3355 H 323.839 2.2157 -4.31317 0
M  V30 3356 N 325.182 1.32811 0.848464 0
M  V30 3357 C 326.112 1.24882 1.97299 0
M  V30 3358 C 327.093 0.131357 1.69592 0
M  V30 3359 O 328.278 0.319553 1.91553 0
M  V30 3360 C 325.408 0.97746 3.33261 0
M  V30 3361 C 324.362 2.05682 3.75338 0
M  V30 3362 C 323.688 1.63777 5.09 0
M  V30 3363 C 324.988 3.47254 3.90144 0
M  V30 3364 H 326.682 2.18966 2.04191 0
M  V30 3365 H 324.228 1.05413 0.981029 0
M  V30 3366 H 326.181 0.908513 4.1149 0
M  V30 3367 H 324.905 0.000980011 3.266 0
M  V30 3368 H 323.564 2.11603 2.99366 0
M  V30 3369 H 323.212 0.648569 4.98801 0
M  V30 3370 H 322.912 2.36 5.38124 0
M  V30 3371 H 324.436 1.5833 5.89715 0
M  V30 3372 H 325.85 3.43888 4.58709 0
M  V30 3373 H 324.247 4.1788 4.30693 0
M  V30 3374 H 325.317 3.86462 2.92874 0
M  V30 3375 N 326.66 -1.06551 1.16123 0
M  V30 3376 C 327.937 -1.76097 0.85142 0
M  V30 3377 C 328.317 -2.00802 -0.6513 0
M  V30 3378 O 327.665 -1.63302 -1.59827 0
M  V30 3379 C 327.875 -3.06384 1.67122 0
M  V30 3380 C 329.223 -3.80585 1.88255 0
M  V30 3381 O 330.247 -3.16218 1.63966 0
M  V30 3382 O 329.106 -4.96212 2.2899 0
M  V30 3383 H 326.2 -0.765102 0.313923 0
M  V30 3384 H 328.746 -1.12844 1.26745 0
M  V30 3385 H 327.518 -2.84071 2.69108 0
M  V30 3386 H 327.141 -3.77371 1.25206 0
M  V30 3387 N 328.138 -0.959301 -1.25041 0
M  V30 3388 C 329.07 -0.440543 -2.24926 0
M  V30 3389 C 330.083 0.446131 -1.56568 0
M  V30 3390 O 331.272 0.253657 -1.76689 0
M  V30 3391 C 328.372 0.38412 -3.36716 0
M  V30 3392 C 327.545 -0.490658 -4.34639 0
M  V30 3393 C 326.604 0.276587 -5.25473 0
M  V30 3394 O 325.63 -0.326614 -5.68262 0
M  V30 3395 N 326.832 1.56844 -5.5891 0
M  V30 3396 H 329.597 -1.29931 -2.70071 0
M  V30 3397 H 327.158 -0.830181 -1.38995 0
M  V30 3398 H 329.15 0.905228 -3.94446 0
M  V30 3399 H 327.72 1.14377 -2.90924 0
M  V30 3400 H 326.94 -1.19282 -3.7572 0
M  V30 3401 H 328.228 -1.08756 -4.97041 0
M  V30 3402 H 327.626 2.08036 -5.26059 0
M  V30 3403 H 326.183 2.03541 -6.19205 0
M  V30 3404 N 329.616 1.39756 -0.72842 0
M  V30 3405 C 331.032 1.5442 -0.403308 0
M  V30 3406 C 331.232 1.69694 1.08656 0
M  V30 3407 O 330.288 1.69373 1.87267 0
M  V30 3408 C 331.601 2.76555 -1.18058 0
M  V30 3409 C 333.149 2.90384 -1.16815 0
M  V30 3410 C 333.624 4.15449 -1.92785 0
M  V30 3411 N 335.115 4.22475 -1.89918 0
M  V30 3412 C 335.85 5.1818 -2.45514 0
M  V30 3413 N 335.346 6.19714 -3.09719 0
M  V30 3414 N 337.139 5.1035 -2.35584 0
M  V30 3415 H 329.29 1.28089 -1.69431 0
M  V30 3416 H 331.553 0.620327 -0.716867 0
M  V30 3417 H 331.259 2.7159 -2.23455 0
M  V30 3418 H 331.133 3.69033 -0.780662 0
M  V30 3419 H 333.52 2.94846 -0.12234 0
M  V30 3420 H 333.601 1.98988 -1.6074 0
M  V30 3421 H 333.245 4.11749 -2.97364 0
M  V30 3422 H 333.175 5.05877 -1.46272 0
M  V30 3423 H 335.666 3.49743 -1.43138 0
M  V30 3424 H 335.979 6.8919 -3.49625 0
M  V30 3425 H 334.324 6.20121 -3.13807 0
M  V30 3426 H 337.515 4.2996 -1.85072 0
M  V30 3427 H 337.688 5.84761 -2.79211 0
M  V30 3428 N 331.094 0.475555 1.50254 0
M  V30 3429 C 332.324 -0.0753399 2.06463 0
M  V30 3430 C 332.732 -1.33661 1.33908 0
M  V30 3431 O 332.075 -1.79219 0.403257 0
M  V30 3432 C 332.137 -0.424921 3.5698 0
M  V30 3433 C 331.801 0.734965 4.51051 0
M  V30 3434 C 332.798 1.61827 4.94073 0
M  V30 3435 C 330.483 0.926557 4.9368 0
M  V30 3436 C 332.477 2.67754 5.78434 0
M  V30 3437 C 330.164 1.98904 5.77824 0
M  V30 3438 C 331.162 2.8629 6.20103 0
M  V30 3439 O 330.85 3.90708 7.02568 0
M  V30 3440 H 330.582 0.00576308 0.675975 0
M  V30 3441 H 333.136 0.664662 1.94349 0
M  V30 3442 H 331.366 -1.21817 3.67012 0
M  V30 3443 H 333.055 -0.911422 3.95535 0
M  V30 3444 H 333.821 1.48196 4.61804 0
M  V30 3445 H 329.7 0.25584 4.6029 0
M  V30 3446 H 333.244 3.35992 6.11355 0
M  V30 3447 H 329.141 2.12541 6.09505 0
M  V30 3448 H 329.909 3.87751 7.20827 0
M  V30 3449 N 332.573 -1.56217 0.208337 0
M  V30 3450 C 333.82 -1.97949 -0.42692 0
M  V30 3451 C 334.148 -1.09562 -1.60706 0
M  V30 3452 O 333.403 -0.137616 -1.95216 0
M  V30 3453 C 333.702 -3.45441 -0.916797 0
M  V30 3454 C 333.368 -4.50646 0.151391 0
M  V30 3455 C 332.03 -4.79139 0.444867 0
M  V30 3456 C 334.382 -5.13811 0.874492 0
M  V30 3457 C 331.71 -5.68084 1.46619 0
M  V30 3458 C 334.062 -6.03861 1.88506 0
M  V30 3459 C 332.726 -6.30704 2.18559 0
M  V30 3460 H 331.996 -0.724345 -0.156221 0
M  V30 3461 H 334.643 -1.89006 0.308084 0
M  V30 3462 H 332.948 -3.51521 -1.73032 0
M  V30 3463 H 334.645 -3.75094 -1.41794 0
M  V30 3464 H 331.235 -4.28511 -0.0875068 0
M  V30 3465 H 335.419 -4.91879 0.660996 0
M  V30 3466 H 330.675 -5.87151 1.7048 0
M  V30 3467 H 334.849 -6.51861 2.45051 0
M  V30 3468 H 332.476 -6.99424 2.97843 0
M  V30 3469 N 334.051 0.0651679 -1.57465 0
M  V30 3470 C 335.276 0.779605 -1.9219 0
M  V30 3471 C 335.701 1.69988 -0.805333 0
M  V30 3472 O 335.059 1.79685 0.241435 0
M  V30 3473 C 335.107 1.54364 -3.2589 0
M  V30 3474 O 334.211 2.65474 -3.1559 0
M  V30 3475 H 333.552 0.212249 -0.629163 0
M  V30 3476 H 336.082 0.0314294 -2.04576 0
M  V30 3477 H 336.092 1.92146 -3.59922 0
M  V30 3478 H 334.767 0.868457 -4.06732 0
M  V30 3479 H 333.344 2.30501 -2.93128 0
M  V30 3480 N 335.529 1.53961 0.336706 0
M  V30 3481 C 336.777 1.71197 1.07405 0
M  V30 3482 C 337.098 0.481475 1.88962 0
M  V30 3483 O 336.368 -0.504585 1.8929 0
M  V30 3484 H 334.948 0.631185 0.399517 0
M  V30 3485 H 337.61 1.91232 0.376323 0
M  V30 3486 H 336.706 2.58587 1.74755 0
M  V30 3487 N 337.007 -0.598083 1.45811 0
M  V30 3488 C 337.937 -1.71873 1.58057 0
M  V30 3489 C 338.918 -1.64533 0.431615 0
M  V30 3490 O 340.103 -1.82787 0.65595 0
M  V30 3491 C 337.233 -3.10495 1.55597 0
M  V30 3492 C 336.187 -3.32654 2.69305 0
M  V30 3493 C 335.513 -4.71646 2.51902 0
M  V30 3494 C 336.813 -3.21981 4.11248 0
M  V30 3495 H 338.507 -1.61881 2.51863 0
M  V30 3496 H 336.053 -0.777372 1.21214 0
M  V30 3497 H 338.006 -3.88699 1.6276 0
M  V30 3498 H 336.73 -3.2135 0.583255 0
M  V30 3499 H 335.389 -2.56843 2.61586 0
M  V30 3500 H 335.037 -4.79246 1.52748 0
M  V30 3501 H 334.737 -4.87426 3.2816 0
M  V30 3502 H 336.261 -5.52038 2.60933 0
M  V30 3503 H 337.675 -3.90049 4.20161 0
M  V30 3504 H 336.072 -3.49289 4.87972 0
M  V30 3505 H 337.142 -2.1928 4.32486 0
M  V30 3506 N 338.485 -1.33259 -0.841409 0
M  V30 3507 C 339.733 -1.24326 -1.59334 0
M  V30 3508 C 340.054 0.191564 -1.94057 0
M  V30 3509 O 339.324 1.11967 -1.60749 0
M  V30 3510 H 337.904 -0.457174 -0.590763 0
M  V30 3511 H 340.566 -1.66947 -1.00571 0
M  V30 3512 H 339.662 -1.8352 -2.52442 0
M  V30 3513 N 339.963 1.05934 -1.16686 0
M  V30 3514 C 340.911 2.15603 -0.872817 0
M  V30 3515 C 341.905 1.68647 0.159576 0
M  V30 3516 O 343.111 1.79995 0.0132125 0
M  V30 3517 H 339.486 0.703885 -0.264671 0
M  V30 3518 H 341.457 2.37613 -1.80507 0
M  V30 3519 C 340.206 3.45457 -0.394344 0
M  V30 3520 H 339.529 3.81984 -1.18019 0
M  V30 3521 H 340.969 4.2339 -0.227408 0
M  V30 3522 C 339.428 3.25021 0.88673 0
M  V30 3523 O 339.958 3.50906 1.95519 0
M  V30 3524 N 338.164 2.78437 0.831925 0
M  V30 3525 H 337.711 2.57572 -0.0377619 0
M  V30 3526 H 337.669 2.65144 1.68956 0
M  V30 3527 N 341.441 0.965919 1.2453 0
M  V30 3528 C 342.69 0.622437 1.91856 0
M  V30 3529 C 343.003 -0.846006 1.76358 0
M  V30 3530 O 344.209 -1.29993 2.38357 0
M  V30 3531 C 342.665 1.0626 3.43856 0
M  V30 3532 C 342.273 2.55437 3.68043 0
M  V30 3533 C 344.017 0.792183 4.17043 0
M  V30 3534 C 341.924 2.93196 5.13605 0
M  V30 3535 H 340.854 0.229092 0.718354 0
M  V30 3536 H 343.505 1.17189 1.41206 0
M  V30 3537 H 341.887 0.441476 3.93531 0
M  V30 3538 H 343.061 3.22665 3.28974 0
M  V30 3539 H 341.376 2.8007 3.08139 0
M  V30 3540 H 343.973 1.05031 5.24283 0
M  V30 3541 H 344.316 -0.271584 4.15413 0
M  V30 3542 H 344.849 1.37419 3.73311 0
M  V30 3543 H 341.588 3.98636 5.20355 0
M  V30 3544 H 341.108 2.30651 5.53679 0
M  V30 3545 H 342.787 2.83004 5.81823 0
M  V30 3546 N 342.919 -1.39368 0.735821 0
M  V30 3547 C 344.168 -1.99733 0.281004 0
M  V30 3548 C 344.481 -1.59055 -1.13846 0
M  V30 3549 O 345.687 -2.12262 -1.69284 0
M  V30 3550 C 344.143 -3.57057 0.451462 0
M  V30 3551 C 343.751 -4.06697 1.87886 0
M  V30 3552 C 345.495 -4.2446 0.0584616 0
M  V30 3553 C 343.402 -5.56598 1.99883 0
M  V30 3554 H 342.332 -0.747163 0.101311 0
M  V30 3555 H 344.983 -1.59357 0.909819 0
M  V30 3556 H 343.365 -3.95234 -0.246263 0
M  V30 3557 H 344.539 -3.79853 2.60861 0
M  V30 3558 H 342.854 -3.5196 2.22515 0
M  V30 3559 H 345.451 -5.34549 0.127099 0
M  V30 3560 H 345.794 -4.04444 -0.986433 0
M  V30 3561 H 346.327 -3.9146 0.707374 0
M  V30 3562 H 343.066 -5.81494 3.02564 0
M  V30 3563 H 342.586 -5.85242 1.31346 0
M  V30 3564 H 344.265 -6.22022 1.78039 0
M  V30 3565 N 344.397 -0.483516 -1.5 0
M  V30 3566 C 345.344 0.304164 -2.28787 0
M  V30 3567 C 346.314 0.976114 -1.34392 0
M  V30 3568 O 347.499 0.986156 -1.63339 0
M  V30 3569 C 344.639 1.37298 -3.16612 0
M  V30 3570 C 343.752 0.714561 -4.26049 0
M  V30 3571 C 342.887 1.76232 -5.01114 0
M  V30 3572 C 341.926 1.08483 -6.0241 0
M  V30 3573 N 341.063 2.076 -6.70706 0
M  V30 3574 H 345.903 -0.373981 -2.95644 0
M  V30 3575 H 343.44 -0.196275 -1.45785 0
M  V30 3576 H 345.398 2.00445 -3.65893 0
M  V30 3577 H 344.028 2.02012 -2.51776 0
M  V30 3578 H 343.08 -0.0297798 -3.80388 0
M  V30 3579 H 344.392 0.180383 -4.98474 0
M  V30 3580 H 343.546 2.46929 -5.54176 0
M  V30 3581 H 342.285 2.33033 -4.28424 0
M  V30 3582 H 341.29 0.363545 -5.48597 0
M  V30 3583 H 342.515 0.523551 -6.77079 0
M  V30 3584 H 340.461 2.63394 -6.00799 0
M  V30 3585 H 340.378 1.59201 -7.39047 0
M  V30 3586 H 341.646 2.77639 -7.2838 0
M  V30 3587 N 345.875 1.56104 -0.216619 0
M  V30 3588 C 346.823 2.21434 0.712036 0
M  V30 3589 C 347.817 1.19218 1.20348 0
M  V30 3590 O 349.023 1.3731 1.16387 0
M  V30 3591 H 345.398 0.70992 0.248026 0
M  V30 3592 H 347.369 2.98083 0.137558 0
M  V30 3593 C 346.118 2.90434 1.91163 0
M  V30 3594 H 345.441 3.68842 1.54258 0
M  V30 3595 H 346.881 3.39552 2.5393 0
M  V30 3596 C 345.34 1.92635 2.76394 0
M  V30 3597 O 345.87 1.44017 3.74996 0
M  V30 3598 N 344.076 1.60392 2.42328 0
M  V30 3599 H 343.623 2.00122 1.622 0
M  V30 3600 H 343.581 0.952159 2.99635 0
M  V30 3601 N 347.353 -0.0568162 1.57498 0
M  V30 3602 C 348.263 -1.08346 2.08083 0
M  V30 3603 C 349.279 -1.41439 1.01346 0
M  V30 3604 O 350.455 -1.51316 1.32912 0
M  V30 3605 C 347.52 -2.37352 2.52715 0
M  V30 3606 C 346.581 -2.11093 3.73816 0
M  V30 3607 C 345.814 -3.33949 4.1631 0
M  V30 3608 O 346.037 -4.43622 3.58547 0
M  V30 3609 O 344.971 -3.21279 5.08983 0
M  V30 3610 H 348.797 -0.683667 2.95905 0
M  V30 3611 H 346.382 -0.271965 1.46904 0
M  V30 3612 H 348.264 -3.13246 2.81877 0
M  V30 3613 H 346.939 -2.76681 1.68016 0
M  V30 3614 H 345.846 -1.32856 3.49714 0
M  V30 3615 H 347.179 -1.76637 4.59413 0
M  V30 3616 N 348.832 -1.54138 -0.328536 0
M  V30 3617 C 349.795 -1.82462 -1.38709 0
M  V30 3618 C 350.795 -0.696229 -1.44946 0
M  V30 3619 O 351.985 -0.964535 -1.4506 0
M  V30 3620 C 349.117 -1.98018 -2.77492 0
M  V30 3621 H 350.31 -2.77037 -1.14851 0
M  V30 3622 H 347.863 -1.45779 -0.563751 0
M  V30 3623 H 348.598 -1.05637 -3.06613 0
M  V30 3624 H 348.383 -2.80124 -2.74359 0
M  V30 3625 H 349.873 -2.21396 -3.54081 0
M  V30 3626 N 350.31 0.590341 -1.46126 0
M  V30 3627 C 351.24 1.71032 -1.58966 0
M  V30 3628 C 352.221 1.64302 -0.440335 0
M  V30 3629 O 353.406 1.82436 -0.665634 0
M  V30 3630 C 350.536 3.09665 -1.57241 0
M  V30 3631 C 349.49 3.31221 -2.71066 0
M  V30 3632 C 348.816 4.70303 -2.54399 0
M  V30 3633 C 350.116 3.19796 -4.1295 0
M  V30 3634 H 351.81 1.60543 -2.52718 0
M  V30 3635 H 349.356 0.770933 -1.21625 0
M  V30 3636 H 351.309 3.87831 -1.64819 0
M  V30 3637 H 350.033 3.21036 -0.600289 0
M  V30 3638 H 348.692 2.55452 -2.62944 0
M  V30 3639 H 348.34 4.78429 -1.55288 0
M  V30 3640 H 348.04 4.85679 -3.30741 0
M  V30 3641 H 349.564 5.50647 -2.63857 0
M  V30 3642 H 350.978 3.87815 -4.22223 0
M  V30 3643 H 349.375 3.46696 -4.89818 0
M  V30 3644 H 350.445 2.16983 -4.33643 0
M  V30 3645 N 351.788 1.33704 0.83433 0
M  V30 3646 C 353.018 1.28281 1.6195 0
M  V30 3647 C 353.426 -0.147603 1.88623 0
M  V30 3648 O 352.769 -1.1016 1.47005 0
M  V30 3649 C 352.831 1.99386 2.99141 0
M  V30 3650 C 352.495 3.48681 2.95416 0
M  V30 3651 C 353.492 4.438 2.70809 0
M  V30 3652 C 351.177 3.90925 3.15409 0
M  V30 3653 C 353.171 5.79138 2.66229 0
M  V30 3654 C 350.858 5.26366 3.10454 0
M  V30 3655 C 351.856 6.20284 2.85895 0
M  V30 3656 O 351.544 7.53245 2.80852 0
M  V30 3657 H 351.276 0.44315 0.510484 0
M  V30 3658 H 353.83 1.76711 1.04702 0
M  V30 3659 H 352.06 1.45554 3.58261 0
M  V30 3660 H 353.749 1.87403 3.60049 0
M  V30 3661 H 354.515 4.12485 2.5511 0
M  V30 3662 H 350.394 3.18229 3.33543 0
M  V30 3663 H 353.938 6.52416 2.4698 0
M  V30 3664 H 349.835 5.57304 3.25703 0
M  V30 3665 H 350.603 7.62846 2.96661 0
M  V30 3666 N 353.266 -1.05314 1.17247 0
M  V30 3667 C 354.682 -1.30452 0.919473 0
M  V30 3668 C 354.882 -1.9703 -0.42209 0
M  V30 3669 O 353.938 -2.24311 -1.15935 0
M  V30 3670 C 355.251 -2.17551 2.07586 0
M  V30 3671 C 356.799 -2.30937 2.11275 0
M  V30 3672 C 357.274 -3.21396 3.26296 0
M  V30 3673 N 358.765 -3.28981 3.26076 0
M  V30 3674 C 359.5 -3.99095 4.11716 0
M  V30 3675 N 358.996 -4.71648 5.07465 0
M  V30 3676 N 360.789 -3.95247 3.9967 0
M  V30 3677 H 352.94 -0.604988 2.03602 0
M  V30 3678 H 355.203 -0.329368 0.888944 0
M  V30 3679 H 354.909 -1.75921 3.0454 0
M  V30 3680 H 354.783 -3.18182 2.02584 0
M  V30 3681 H 357.17 -2.71809 1.14907 0
M  V30 3682 H 357.251 -1.2994 2.20339 0
M  V30 3683 H 356.895 -2.81238 4.22927 0
M  V30 3684 H 356.825 -4.22395 3.14467 0
M  V30 3685 H 359.316 -2.77286 2.5675 0
M  V30 3686 H 359.629 -5.22705 5.6921 0
M  V30 3687 H 357.974 -4.70594 5.11435 0
M  V30 3688 H 361.165 -3.37691 3.24164 0
M  V30 3689 H 361.338 -4.4962 4.66632 0
M  V30 3690 N 354.744 -0.972509 -1.24016 0
M  V30 3691 C 355.707 -0.511403 -2.23422 0
M  V30 3692 C 356.707 0.394679 -1.55881 0
M  V30 3693 O 357.897 0.189469 -1.73167 0
M  V30 3694 C 355.029 0.258769 -3.39916 0
M  V30 3695 H 356.222 -1.39024 -2.6573 0
M  V30 3696 H 353.775 -0.757585 -1.36713 0
M  V30 3697 H 354.51 1.1545 -3.03054 0
M  V30 3698 H 354.295 -0.391522 -3.9014 0
M  V30 3699 H 355.785 0.570244 -4.13688 0
M  V30 3700 N 356.222 1.38976 -0.743202 0
M  V30 3701 C 357.47 1.99948 -0.29417 0
M  V30 3702 C 357.791 1.59279 1.12495 0
M  V30 3703 O 357.061 0.844808 1.76748 0
M  V30 3704 H 355.641 0.739473 -0.105774 0
M  V30 3705 H 358.303 1.699 -0.954986 0
M  V30 3706 H 357.399 3.10142 -0.349056 0
M  V30 3707 N 357.7 0.491464 1.49741 0
M  V30 3708 C 358.949 -0.0582189 2.01616 0
M  V30 3709 C 359.262 -1.38927 1.3769 0
M  V30 3710 O 360.468 -2.02509 1.80838 0
M  V30 3711 C 358.924 -0.154235 3.59569 0
M  V30 3712 C 358.532 1.1696 4.32463 0
M  V30 3713 C 360.276 -0.65479 4.1942 0
M  V30 3714 C 358.183 1.03627 5.8225 0
M  V30 3715 H 357.113 -0.0255317 0.753568 0
M  V30 3716 H 359.764 0.629445 1.72367 0
M  V30 3717 H 358.146 -0.906138 3.85493 0
M  V30 3718 H 359.32 1.93405 4.18248 0
M  V30 3719 H 357.635 1.60285 3.84315 0
M  V30 3720 H 360.232 -0.771903 5.29099 0
M  V30 3721 H 360.575 -1.65127 3.8215 0
M  V30 3722 H 361.108 0.040304 3.9778 0
M  V30 3723 H 357.847 2.00672 6.24028 0
M  V30 3724 H 357.367 0.312546 5.98985 0
M  V30 3725 H 359.046 0.711114 6.4308 0
M  V30 3726 N 359.178 -1.55987 0.224894 0
M  V30 3727 C 360.128 -2.17076 -0.697296 0
M  V30 3728 C 361.112 -1.12006 -1.15514 0
M  V30 3729 O 362.304 -1.37985 -1.10857 0
M  V30 3730 C 359.433 -2.85679 -1.90374 0
M  V30 3731 C 358.519 -3.97977 -1.46543 0
M  V30 3732 N 358.91 -5.00359 -0.739909 0
M  V30 3733 C 357.208 -4.10128 -1.75245 0
M  V30 3734 C 357.909 -5.79407 -0.515939 0
M  V30 3735 N 356.885 -5.32892 -1.07364 0
M  V30 3736 H 360.687 -2.93592 -0.134594 0
M  V30 3737 H 358.201 -1.62379 0.0262885 0
M  V30 3738 H 360.198 -3.27857 -2.57518 0
M  V30 3739 H 358.858 -2.1066 -2.47088 0
M  V30 3740 H 359.869 -5.16412 -0.392253 0
M  V30 3741 H 356.546 -3.46263 -2.33255 0
M  V30 3742 H 357.936 -6.71872 0.0617349 0
M  V30 3743 N 360.656 0.0484629 -1.57525 0
M  V30 3744 C 362.067 0.597486 -1.76881 0
M  V30 3745 C 362.418 1.76664 -0.853475 0
M  V30 3746 O 361.543 2.16357 -0.0433656 0
M  V30 3747 C 362.138 1.09066 -3.20765 0
M  V30 3748 C 360.697 1.58535 -3.41385 0
M  V30 3749 C 359.844 0.514868 -2.72478 0
M  V30 3750 H 362.795 -0.177758 -1.57701 0
M  V30 3751 H 362.816 1.95875 -3.2621 0
M  V30 3752 H 362.328 0.239521 -3.8736 0
M  V30 3753 H 360.429 2.45898 -2.79937 0
M  V30 3754 H 360.542 1.64622 -4.49929 0
M  V30 3755 H 358.906 0.965407 -2.35695 0
M  V30 3756 H 359.689 -0.32648 -3.41744 0
M  V30 3757 N 362.134 1.5431 0.320358 0
M  V30 3758 C 363.064 1.86912 1.3995 0
M  V30 3759 C 364.045 0.726211 1.53819 0
M  V30 3760 O 365.23 0.980233 1.67646 0
M  V30 3761 C 362.36 2.09932 2.7667 0
M  V30 3762 C 361.314 3.25776 2.77586 0
M  V30 3763 C 360.64 3.34173 4.17412 0
M  V30 3764 C 361.94 4.6335 2.41048 0
M  V30 3765 H 363.634 2.77292 1.12914 0
M  V30 3766 H 361.18 1.33421 0.541738 0
M  V30 3767 H 363.133 2.31324 3.52232 0
M  V30 3768 H 361.857 1.16304 3.0519 0
M  V30 3769 H 360.516 3.04276 2.04479 0
M  V30 3770 H 360.164 2.38098 4.43078 0
M  V30 3771 H 359.864 4.12033 4.18931 0
M  V30 3772 H 361.388 3.57803 4.94782 0
M  V30 3773 H 362.802 4.84602 3.06324 0
M  V30 3774 H 361.199 5.43782 2.53813 0
M  V30 3775 H 362.269 4.65381 1.36193 0
M  V30 3776 N 363.613 -0.582584 1.46437 0
M  V30 3777 C 364.838 -1.37168 1.55563 0
M  V30 3778 C 365.263 -1.87061 0.19743 0
M  V30 3779 O 364.621 -1.61572 -0.822451 0
M  V30 3780 C 364.669 -2.53511 2.56446 0
M  V30 3781 O 363.773 -3.54953 2.09958 0
M  V30 3782 H 363.114 -0.408494 0.523477 0
M  V30 3783 H 365.644 -0.706646 1.9201 0
M  V30 3784 H 365.654 -3.00426 2.76058 0
M  V30 3785 H 364.329 -2.16549 3.55076 0
M  V30 3786 H 362.906 -3.14516 2.00334 0
M  V30 3787 N 365.091 -1.34144 -0.827227 0
M  V30 3788 C 366.021 -1.28005 -1.95287 0
M  V30 3789 C 367.002 -0.158321 -1.69362 0
M  V30 3790 O 368.187 -0.349987 -1.9102 0
M  V30 3791 C 365.317 -1.03036 -3.31664 0
M  V30 3792 C 364.271 -2.11628 -3.72019 0
M  V30 3793 C 363.597 -1.71854 -5.0633 0
M  V30 3794 C 364.897 -3.53417 -3.8457 0
M  V30 3795 H 366.591 -2.22187 -2.00682 0
M  V30 3796 H 364.137 -1.0696 -0.964135 0
M  V30 3797 H 366.09 -0.973863 -4.09993 0
M  V30 3798 H 364.814 -0.0529391 -3.26557 0
M  V30 3799 H 363.473 -2.16339 -2.95961 0
M  V30 3800 H 363.121 -0.727841 -4.97706 0
M  V30 3801 H 362.821 -2.44531 -5.34302 0
M  V30 3802 H 364.345 -1.67692 -5.87122 0
M  V30 3803 H 365.759 -3.51142 -4.5318 0
M  V30 3804 H 364.156 -4.24679 -4.2399 0
M  V30 3805 H 365.226 -3.91072 -2.86689 0
M  V30 3806 N 366.569 1.04691 -1.17803 0
M  V30 3807 C 367.817 1.7743 -0.967617 0
M  V30 3808 C 368.138 1.88359 0.504574 0
M  V30 3809 O 367.408 1.40402 1.36617 0
M  V30 3810 H 365.988 0.657242 -0.355024 0
M  V30 3811 H 368.65 1.2638 -1.48371 0
M  V30 3812 H 367.746 2.78924 -1.40027 0
M  V30 3813 N 368.047 0.979072 1.23499 0
M  V30 3814 C 369.272 0.664845 1.96455 0
M  V30 3815 C 369.697 -0.761287 1.72006 0
M  V30 3816 O 369.055 -1.51837 0.990713 0
M  V30 3817 C 369.103 0.959479 3.47601 0
M  V30 3818 O 368.207 0.0508168 4.12369 0
M  V30 3819 H 367.548 0.250185 0.615064 0
M  V30 3820 H 370.078 1.31231 1.5697 0
M  V30 3821 H 370.088 0.895642 3.98048 0
M  V30 3822 H 368.763 1.99876 3.64723 0
M  V30 3823 H 367.34 0.16895 3.72517 0
M  V30 3824 N 369.525 -1.3858 0.750561 0
M  V30 3825 C 370.771 -2.00481 0.305825 0
M  V30 3826 C 371.104 -1.5944 -1.10872 0
M  V30 3827 O 370.379 -0.83052 -1.75877 0
M  V30 3828 C 370.662 -3.5758 0.425287 0
M  V30 3829 C 370.515 -4.08594 1.88072 0
M  V30 3830 C 371.834 -4.39719 -0.183122 0
M  V30 3831 H 368.953 -0.728348 0.112598 0
M  V30 3832 H 371.595 -1.64566 0.949638 0
M  V30 3833 H 369.745 -3.88306 -0.122828 0
M  V30 3834 H 371.417 -3.88523 2.48691 0
M  V30 3835 H 369.66 -3.61574 2.39681 0
M  V30 3836 H 370.331 -5.177 1.91548 0
M  V30 3837 H 372.807 -4.15128 0.284303 0
M  V30 3838 H 371.683 -5.48856 -0.0692757 0
M  V30 3839 H 371.944 -4.23434 -1.27106 0
M  V30 3840 N 371.003 -0.499398 -1.49478 0
M  V30 3841 C 371.933 0.269244 -2.31943 0
M  V30 3842 C 372.914 0.964054 -1.40143 0
M  V30 3843 O 374.099 0.955767 -1.69052 0
M  V30 3844 C 371.229 1.33504 -3.20615 0
M  V30 3845 C 370.183 0.760202 -4.21195 0
M  V30 3846 C 369.509 1.9264 -4.98792 0
M  V30 3847 C 370.809 -0.247661 -5.21712 0
M  V30 3848 H 372.503 -0.419082 -2.96452 0
M  V30 3849 H 370.049 -0.202988 -1.42562 0
M  V30 3850 H 372.002 1.88048 -3.77115 0
M  V30 3851 H 370.726 2.05253 -2.54045 0
M  V30 3852 H 369.385 0.23653 -3.65836 0
M  V30 3853 H 369.033 2.63154 -4.28671 0
M  V30 3854 H 368.733 1.54785 -5.66847 0
M  V30 3855 H 370.257 2.4762 -5.58137 0
M  V30 3856 H 371.671 0.209579 -5.72917 0
M  V30 3857 H 370.068 -0.541962 -5.97648 0
M  V30 3858 H 371.138 -1.16409 -4.7072 0
M  V30 3859 N 372.481 1.55866 -0.233164 0
M  V30 3860 C 373.706 2.03449 0.402906 0
M  V30 3861 C 374.131 1.11166 1.51736 0
M  V30 3862 O 373.489 0.101996 1.81013 0
M  V30 3863 C 373.537 3.49165 0.9009 0
M  V30 3864 O 372.641 3.60019 2.01147 0
M  V30 3865 H 371.982 0.657913 0.0897025 0
M  V30 3866 H 374.512 2.01493 -0.355201 0
M  V30 3867 H 374.522 3.89716 1.2077 0
M  V30 3868 H 373.197 4.15813 0.0852889 0
M  V30 3869 H 371.774 3.3136 1.71042 0
M  V30 3870 N 373.959 -0.0401083 1.57549 0
M  V30 3871 C 374.922 -1.02871 2.04817 0
M  V30 3872 C 375.922 -1.29708 0.950388 0
M  V30 3873 O 377.112 -1.24897 1.21435 0
M  V30 3874 C 374.244 -2.36443 2.45576 0
M  V30 3875 H 375.437 -0.620631 2.93408 0
M  V30 3876 H 372.99 -0.286667 1.53649 0
M  V30 3877 H 373.725 -2.82021 1.60108 0
M  V30 3878 H 373.51 -2.18296 3.25713 0
M  V30 3879 H 375 -3.07441 2.82612 0
M  V30 3880 N 375.437 -1.54477 -0.31217 0
M  V30 3881 C 376.662 -1.77526 -1.07235 0
M  V30 3882 C 377.087 -0.527775 -1.80544 0
M  V30 3883 O 376.445 0.52121 -1.73646 0
M  V30 3884 C 376.493 -2.97535 -2.03728 0
M  V30 3885 O 375.597 -2.69878 -3.11833 0
M  V30 3886 H 374.938 -0.58792 -0.30862 0
M  V30 3887 H 377.468 -2.01532 -0.352993 0
M  V30 3888 H 377.478 -3.25198 -2.46395 0
M  V30 3889 H 376.153 -3.87996 -1.49774 0
M  V30 3890 H 374.73 -2.53199 -2.7376 0
M  V30 3891 N 376.915 0.57481 -1.46744 0
M  V30 3892 C 378.331 0.898981 -1.31873 0
M  V30 3893 C 378.531 1.99313 -0.29605 0
M  V30 3894 O 377.587 2.50728 0.298621 0
M  V30 3895 C 378.9 1.30886 -2.7072 0
M  V30 3896 C 380.448 1.42127 -2.78871 0
M  V30 3897 C 380.923 1.86478 -4.18318 0
M  V30 3898 N 382.414 1.93658 -4.20774 0
M  V30 3899 C 383.149 2.29267 -5.2557 0
M  V30 3900 N 382.645 2.63612 -6.40688 0
M  V30 3901 N 384.438 2.29889 -5.1294 0
M  V30 3902 H 376.589 -0.147839 -2.11885 0
M  V30 3903 H 378.852 -0.00347013 -0.947994 0
M  V30 3904 H 378.558 0.578853 -3.46904 0
M  V30 3905 H 378.432 2.26874 -3.01343 0
M  V30 3906 H 380.819 2.14213 -2.0297 0
M  V30 3907 H 380.9 0.443705 -2.51922 0
M  V30 3908 H 380.544 1.14968 -4.94717 0
M  V30 3909 H 380.474 2.85207 -4.42679 0
M  V30 3910 H 382.965 1.69574 -3.37718 0
M  V30 3911 H 383.278 2.89759 -7.16421 0
M  V30 3912 H 381.623 2.61232 -6.44036 0
M  V30 3913 H 384.814 2.02485 -4.22039 0
M  V30 3914 H 384.987 2.57312 -5.94722 0
M  V30 3915 N 378.394 1.34581 0.820102 0
M  V30 3916 C 379.81 1.14325 1.11364 0
M  V30 3917 C 380.01 -0.0533648 2.01429 0
M  V30 3918 O 379.066 -0.728044 2.41776 0
M  V30 3919 C 380.379 2.43983 1.75764 0
M  V30 3920 C 381.927 2.50065 1.88246 0
M  V30 3921 C 382.402 3.79732 2.56061 0
M  V30 3922 N 383.893 3.80908 2.63558 0
M  V30 3923 C 384.628 4.77961 3.16766 0
M  V30 3924 N 384.124 5.85397 3.70517 0
M  V30 3925 N 385.917 4.65413 3.15194 0
M  V30 3926 H 378.068 2.11246 0.221096 0
M  V30 3927 H 380.331 0.934289 0.160649 0
M  V30 3928 H 380.037 3.31651 1.1705 0
M  V30 3929 H 379.911 2.57531 2.75604 0
M  V30 3930 H 382.298 1.62834 2.46108 0
M  V30 3931 H 382.379 2.40442 0.873006 0
M  V30 3932 H 382.023 4.67354 1.98853 0
M  V30 3933 H 381.953 3.86639 3.57516 0
M  V30 3934 H 384.444 3.03274 2.25463 0
M  V30 3935 H 384.757 6.55463 4.09376 0
M  V30 3936 H 383.102 5.89107 3.68752 0
M  V30 3937 H 386.293 3.80627 2.72471 0
M  V30 3938 H 386.466 5.41216 3.56356 0
M  V30 3939 N 379.872 -1.04064 1.18357 0
M  V30 3940 C 380.782 -2.15569 0.925596 0
M  V30 3941 C 381.798 -1.7365 -0.110295 0
M  V30 3942 O 382.974 -2.01273 0.0716218 0
M  V30 3943 C 380.039 -3.43704 0.454836 0
M  V30 3944 C 379.1 -4.00004 1.55869 0
M  V30 3945 C 378.333 -5.22023 1.1103 0
M  V30 3946 O 378.556 -5.70392 -0.0309756 0
M  V30 3947 O 377.49 -5.70856 1.90805 0
M  V30 3948 H 381.316 -2.40187 1.8586 0
M  V30 3949 H 378.901 -1.1402 0.965394 0
M  V30 3950 H 380.783 -4.20923 0.200382 0
M  V30 3951 H 379.458 -3.20559 -0.449876 0
M  V30 3952 H 378.365 -3.24172 1.86716 0
M  V30 3953 H 379.698 -4.2749 2.43953 0
M  V30 3954 N 381.35 -0.985608 -1.22978 0
M  V30 3955 C 382.596 -0.65836 -1.91816 0
M  V30 3956 C 382.929 0.806692 -1.76653 0
M  V30 3957 O 382.204 1.58252 -1.13078 0
M  V30 3958 C 382.487 -1.056 -3.44268 0
M  V30 3959 C 382.34 -2.57906 -3.68516 0
M  V30 3960 C 383.659 -0.603781 -4.35939 0
M  V30 3961 H 380.778 -0.24065 -0.696604 0
M  V30 3962 H 383.42 -1.22783 -1.44998 0
M  V30 3963 H 381.57 -0.571445 -3.84274 0
M  V30 3964 H 383.242 -3.13976 -3.3796 0
M  V30 3965 H 381.485 -3.00305 -3.13048 0
M  V30 3966 H 382.156 -2.80779 -4.75255 0
M  V30 3967 H 384.632 -1.01987 -4.03408 0
M  V30 3968 H 383.508 -0.910383 -5.41298 0
M  V30 3969 H 383.769 0.495761 -4.39312 0
M  V30 3970 N 382.828 1.3818 -0.7579 0
M  V30 3971 C 383.758 2.33027 -0.148597 0
M  V30 3972 C 384.739 1.55085 0.69875 0
M  V30 3973 O 385.924 1.83384 0.639053 0
M  V30 3974 C 383.054 3.3928 0.742034 0
M  V30 3975 C 382.008 4.28 -0.00291946 0
M  V30 3976 C 381.334 5.25146 1.00625 0
M  V30 3977 C 382.634 5.08938 -1.17385 0
M  V30 3978 H 384.328 2.84231 -0.940909 0
M  V30 3979 H 381.874 1.36659 -0.453908 0
M  V30 3980 H 383.827 4.046 1.17799 0
M  V30 3981 H 382.551 2.86569 1.56671 0
M  V30 3982 H 381.21 3.64192 -0.419504 0
M  V30 3983 H 380.858 4.68721 1.8251 0
M  V30 3984 H 380.558 5.85361 0.512428 0
M  V30 3985 H 382.082 5.93342 1.44143 0
M  V30 3986 H 383.496 5.67474 -0.815224 0
M  V30 3987 H 381.893 5.7841 -1.59882 0
M  V30 3988 H 382.963 4.42424 -1.98468 0
M  V30 3989 N 384.306 0.507319 1.49211 0
M  V30 3990 C 385.552 -0.0350047 2.0277 0
M  V30 3991 C 385.885 -1.3606 1.38569 0
M  V30 3992 O 385.16 -1.87321 0.523542 0
M  V30 3993 C 385.443 -0.180916 3.59645 0
M  V30 3994 C 385.296 1.16825 4.34364 0
M  V30 3995 C 386.615 -0.918558 4.30407 0
M  V30 3996 H 383.734 -0.0112473 0.736914 0
M  V30 3997 H 386.376 0.659956 1.7817 0
M  V30 3998 H 384.526 -0.772826 3.80736 0
M  V30 3999 H 386.198 1.79952 4.24753 0
M  V30 4000 H 384.441 1.75594 3.96673 0
M  V30 4001 H 385.112 1.01939 5.42506 0
M  V30 4002 H 387.588 -0.41649 4.1401 0
M  V30 4003 H 386.464 -0.989505 5.39907 0
M  V30 4004 H 386.725 -1.96373 3.96093 0
M  V30 4005 N 385.784 -1.5574 0.241426 0
M  V30 4006 C 387.061 -1.90704 -0.434881 0
M  V30 4007 C 387.441 -1.16145 -1.76277 0
M  V30 4008 O 386.789 -0.277152 -2.26813 0
M  V30 4009 C 386.999 -3.43657 -0.608343 0
M  V30 4010 C 388.347 -4.14806 -0.906725 0
M  V30 4011 O 389.371 -3.49366 -0.694408 0
M  V30 4012 O 388.23 -5.30548 -1.31075 0
M  V30 4013 H 385.324 -0.793592 -0.23268 0
M  V30 4014 H 387.87 -1.67288 0.285086 0
M  V30 4015 H 386.642 -3.89927 0.327505 0
M  V30 4016 H 386.265 -3.72918 -1.37906 0
M  V30 4017 N 387.262 0.0317525 -1.57568 0
M  V30 4018 C 388.212 1.04101 -2.02847 0
M  V30 4019 C 389.196 1.3219 -0.917317 0
M  V30 4020 O 390.388 1.31819 -1.18121 0
M  V30 4021 C 387.517 2.34295 -2.5092 0
M  V30 4022 C 386.603 2.09308 -3.68851 0
M  V30 4023 N 386.994 1.5437 -4.81667 0
M  V30 4024 C 385.292 2.39604 -3.76172 0
M  V30 4025 C 385.993 1.45126 -5.63306 0
M  V30 4026 N 384.969 1.92589 -5.08341 0
M  V30 4027 H 388.771 0.610217 -2.87495 0
M  V30 4028 H 386.285 0.238108 -1.60645 0
M  V30 4029 H 388.282 3.07404 -2.81617 0
M  V30 4030 H 386.942 2.78055 -1.67677 0
M  V30 4031 H 387.953 1.22678 -5.03161 0
M  V30 4032 H 384.63 2.86457 -3.03724 0
M  V30 4033 H 386.02 1.03163 -6.63933 0
M  V30 4034 N 388.74 1.54641 0.303973 0
M  V30 4035 C 389.986 1.74038 1.04109 0
M  V30 4036 C 390.319 0.523051 1.87024 0
M  V30 4037 O 389.594 -0.479874 1.88487 0
M  V30 4038 C 389.877 3.02761 1.94955 0
M  V30 4039 C 389.73 4.34787 1.1524 0
M  V30 4040 C 391.049 3.27336 2.94175 0
M  V30 4041 H 388.168 0.63323 0.377079 0
M  V30 4042 H 390.81 1.87354 0.316001 0
M  V30 4043 H 388.96 2.9154 2.56782 0
M  V30 4044 H 390.632 4.57922 0.557236 0
M  V30 4045 H 388.875 4.31407 0.455053 0
M  V30 4046 H 389.546 5.21116 1.8205 0
M  V30 4047 H 392.022 3.38148 2.42477 0
M  V30 4048 H 390.898 4.18726 3.54908 0
M  V30 4049 H 391.159 2.45491 3.67677 0
M  V30 4050 N 390.218 -0.567019 1.47046 0
M  V30 4051 C 391.464 -1.32658 1.53394 0
M  V30 4052 C 391.797 -1.93254 0.19148 0
M  V30 4053 O 391.072 -1.77338 -0.798844 0
M  V30 4054 C 391.355 -2.44412 2.64452 0
M  V30 4055 C 391.208 -1.88749 4.08282 0
M  V30 4056 C 392.527 -3.46387 2.71485 0
M  V30 4057 H 389.646 -0.48098 0.558415 0
M  V30 4058 H 392.288 -0.635481 1.79058 0
M  V30 4059 H 390.438 -3.03363 2.427 0
M  V30 4060 H 392.11 -1.34134 4.41368 0
M  V30 4061 H 390.353 -1.19481 4.17021 0
M  V30 4062 H 391.024 -2.69491 4.81745 0
M  V30 4063 H 393.5 -2.9734 2.91081 0
M  V30 4064 H 392.376 -4.2202 3.50985 0
M  V30 4065 H 392.637 -4.04616 1.78153 0
M  V30 4066 N 391.696 -1.35014 -0.812953 0
M  V30 4067 C 392.606 -1.2951 -1.95613 0
M  V30 4068 C 393.622 -0.20107 -1.72834 0
M  V30 4069 O 394.798 -0.42932 -1.96771 0
M  V30 4070 C 391.863 -1.06033 -3.30088 0
M  V30 4071 C 390.924 -2.24688 -3.65805 0
M  V30 4072 C 390.157 -2.02322 -4.93864 0
M  V30 4073 O 390.38 -0.986464 -5.61805 0
M  V30 4074 O 389.314 -2.89525 -5.27692 0
M  V30 4075 H 393.14 -2.25705 -2.03202 0
M  V30 4076 H 390.725 -1.15321 -0.949811 0
M  V30 4077 H 392.607 -0.94763 -4.10607 0
M  V30 4078 H 391.282 -0.128852 -3.23443 0
M  V30 4079 H 390.189 -2.41521 -2.85689 0
M  V30 4080 H 391.522 -3.16261 -3.77147 0
M  V30 4081 N 393.175 1.03435 -1.18907 0
M  V30 4082 C 394.422 1.76743 -0.988334 0
M  V30 4083 C 394.75 1.88447 0.481441 0
M  V30 4084 O 394.005 1.39383 1.37371 0
M  V30 4085 C 394.304 3.19792 -1.59586 0
M  V30 4086 C 393.97 3.28108 -3.09283 0
M  V30 4087 C 392.632 3.30084 -3.5014 0
M  V30 4088 C 394.984 3.27696 -4.05296 0
M  V30 4089 C 392.312 3.29299 -4.85571 0
M  V30 4090 C 394.664 3.28451 -5.4065 0
M  V30 4091 C 393.328 3.28723 -5.80946 0
M  V30 4092 H 392.598 0.64675 -0.361657 0
M  V30 4093 H 395.245 1.21442 -1.48068 0
M  V30 4094 H 393.55 3.78136 -1.02568 0
M  V30 4095 H 395.247 3.75171 -1.41589 0
M  V30 4096 H 391.837 3.27294 -2.76725 0
M  V30 4097 H 396.021 3.25354 -3.74778 0
M  V30 4098 H 391.277 3.2783 -5.16079 0
M  V30 4099 H 395.451 3.27082 -6.14809 0
M  V30 4100 H 393.078 3.27868 -6.85862 0
M  V30 4101 N 394.653 0.992116 1.22453 0
M  V30 4102 C 395.878 0.685644 1.95739 0
M  V30 4103 C 396.303 -0.743 1.72804 0
M  V30 4104 O 395.661 -1.50778 1.00676 0
M  V30 4105 C 395.709 0.996293 3.46564 0
M  V30 4106 O 394.813 0.0945512 4.12292 0
M  V30 4107 H 394.154 0.256694 0.612376 0
M  V30 4108 H 396.684 1.32888 1.5557 0
M  V30 4109 H 396.694 0.93781 3.97076 0
M  V30 4110 H 395.369 2.03733 3.62582 0
M  V30 4111 H 393.946 0.208451 3.72317 0
M  V30 4112 N 396.131 -1.37776 0.765217 0
M  V30 4113 C 397.359 -2.04124 0.337767 0
M  V30 4114 C 397.774 -1.57715 -1.03785 0
M  V30 4115 O 397.131 -0.755447 -1.6613 0
M  V30 4116 C 397.182 -3.59658 0.364442 0
M  V30 4117 O 396.903 -4.04367 1.68579 0
M  V30 4118 C 398.404 -4.43236 -0.0754221 0
M  V30 4119 H 395.624 -0.655696 0.142491 0
M  V30 4120 H 398.168 -1.76238 1.03732 0
M  V30 4121 H 396.323 -3.86339 -0.286471 0
M  V30 4122 H 396.737 -4.98857 1.61993 0
M  V30 4123 H 398.211 -5.52 -0.00560067 0
M  V30 4124 H 398.688 -4.2455 -1.12491 0
M  V30 4125 H 399.294 -4.21767 0.547055 0
M  V30 4126 N 397.609 -0.515225 -1.4894 0
M  V30 4127 C 398.572 0.244681 -2.2789 0
M  V30 4128 C 399.572 0.881166 -1.34507 0
M  V30 4129 O 400.762 0.743497 -1.57537 0
M  V30 4130 C 397.894 1.35247 -3.12923 0
M  V30 4131 H 399.087 -0.448289 -2.96531 0
M  V30 4132 H 396.64 -0.270656 -1.53939 0
M  V30 4133 H 397.375 2.07916 -2.48881 0
M  V30 4134 H 397.16 0.901374 -3.81599 0
M  V30 4135 H 398.65 1.88737 -3.72516 0
M  V30 4136 N 399.087 1.5561 -0.249682 0
M  V30 4137 C 400.333 2.00044 0.367952 0
M  V30 4138 C 400.688 1.1349 1.55363 0
M  V30 4139 O 399.981 0.191079 1.90645 0
M  V30 4140 C 400.175 3.4775 0.824887 0
M  V30 4141 C 400.004 4.48596 -0.314973 0
M  V30 4142 C 398.774 4.99077 -0.790555 0
M  V30 4143 C 400.972 5.0144 -1.14291 0
M  V30 4144 N 398.954 5.83675 -1.90254 0
M  V30 4145 C 400.325 5.83236 -2.10322 0
M  V30 4146 C 402.38 4.83736 -1.17916 0
M  V30 4147 C 401.083 6.49217 -3.09692 0
M  V30 4148 C 403.109 5.50497 -2.16117 0
M  V30 4149 C 402.471 6.32084 -3.10884 0
M  V30 4150 H 398.57 0.775512 0.100522 0
M  V30 4151 H 401.154 1.91193 -0.367896 0
M  V30 4152 H 399.325 3.56994 1.53002 0
M  V30 4153 H 401.057 3.79056 1.4177 0
M  V30 4154 H 397.812 4.72119 -0.374218 0
M  V30 4155 H 398.236 6.30671 -2.46137 0
M  V30 4156 H 402.878 4.20286 -0.460352 0
M  V30 4157 H 400.596 7.11832 -3.8252 0
M  V30 4158 H 404.182 5.38752 -2.19631 0
M  V30 4159 H 403.062 6.82832 -3.8563 0
M  V30 4160 N 400.565 -0.0233959 1.57583 0
M  V30 4161 C 401.495 -1.02162 2.09965 0
M  V30 4162 C 402.476 -1.3735 1.00344 0
M  V30 4163 O 403.661 -1.46135 1.27899 0
M  V30 4164 C 400.791 -2.32081 2.58371 0
M  V30 4165 C 399.745 -2.1112 3.72307 0
M  V30 4166 C 399.071 -3.46848 4.06941 0
M  V30 4167 C 400.371 -1.49276 5.00514 0
M  V30 4168 H 402.065 -0.585557 2.93618 0
M  V30 4169 H 399.611 -0.280218 1.41247 0
M  V30 4170 H 401.564 -3.02249 2.93639 0
M  V30 4171 H 400.288 -2.77758 1.71808 0
M  V30 4172 H 398.947 -1.43384 3.37397 0
M  V30 4173 H 398.595 -3.90184 3.17436 0
M  V30 4174 H 398.295 -3.33646 4.83688 0
M  V30 4175 H 399.819 -4.18369 4.44747 0
M  V30 4176 H 401.233 -2.09368 5.33702 0
M  V30 4177 H 399.63 -1.46632 5.8191 0
M  V30 4178 H 400.7 -0.459217 4.82721 0
M  V30 4179 N 402.043 -1.548 -0.295768 0
M  V30 4180 C 402.975 -1.82492 -1.3867 0
M  V30 4181 C 403.988 -0.708134 -1.46592 0
M  V30 4182 O 405.177 -0.985686 -1.48817 0
M  V30 4183 C 402.277 -1.95256 -2.76999 0
M  V30 4184 C 401.45 -3.25709 -2.91946 0
M  V30 4185 C 400.509 -3.28824 -4.10806 0
M  V30 4186 O 399.535 -4.02328 -4.02643 0
M  V30 4187 N 400.737 -2.5459 -5.21694 0
M  V30 4188 H 403.502 -2.76646 -1.15269 0
M  V30 4189 H 401.063 -1.54438 -0.485849 0
M  V30 4190 H 403.055 -1.94736 -3.54768 0
M  V30 4191 H 401.625 -1.08072 -2.93324 0
M  V30 4192 H 400.845 -3.38959 -2.01247 0
M  V30 4193 H 402.133 -4.11786 -2.98847 0
M  V30 4194 H 401.531 -1.94512 -5.31208 0
M  V30 4195 H 400.088 -2.59818 -5.97778 0
M  V30 4196 N 403.521 0.559213 -1.47345 0
M  V30 4197 C 404.769 1.31388 -1.53563 0
M  V30 4198 C 405.09 1.93985 -0.198678 0
M  V30 4199 O 404.36 1.79825 0.777167 0
M  V30 4200 H 402.94 0.487901 -0.565652 0
M  V30 4201 H 405.602 0.65315 -1.8363 0
M  V30 4202 H 404.698 2.10844 -2.30111 0
M  V30 4203 N 404.999 1.35443 0.805782 0
M  V30 4204 C 405.946 1.28431 1.91766 0
M  V30 4205 C 406.916 0.156102 1.65365 0
M  V30 4206 O 408.101 0.339936 1.87747 0
M  V30 4207 C 405.241 1.06301 3.2832 0
M  V30 4208 C 404.354 2.2805 3.66902 0
M  V30 4209 C 403.489 1.99064 4.92491 0
M  V30 4210 C 402.528 3.16863 5.23703 0
M  V30 4211 N 401.665 2.87647 6.40471 0
M  V30 4212 H 406.505 2.23511 1.97096 0
M  V30 4213 H 404.042 1.11105 0.964054 0
M  V30 4214 H 406 0.915012 4.07042 0
M  V30 4215 H 404.63 0.148822 3.22457 0
M  V30 4216 H 403.682 2.53711 2.83434 0
M  V30 4217 H 404.994 3.1601 3.85927 0
M  V30 4218 H 404.148 1.81099 5.7904 0
M  V30 4219 H 402.887 1.0839 4.75503 0
M  V30 4220 H 401.892 3.35404 4.35642 0
M  V30 4221 H 403.117 4.08339 5.4262 0
M  V30 4222 H 401.063 1.99568 6.24907 0
M  V30 4223 H 400.98 3.69141 6.59751 0
M  V30 4224 H 402.248 2.73226 7.30047 0
M  V30 4225 N 406.477 -1.02803 1.19454 0
M  V30 4226 C 407.724 -1.76217 0.997693 0
M  V30 4227 C 408.052 -1.887 -0.47144 0
M  V30 4228 O 407.307 -1.4011 -1.3663 0
M  V30 4229 C 407.606 -3.18941 1.6128 0
M  V30 4230 C 407.272 -3.26463 3.11019 0
M  V30 4231 C 405.934 -3.28223 3.51885 0
M  V30 4232 C 408.286 -3.25542 4.07028 0
M  V30 4233 C 405.614 -3.26719 4.8731 0
M  V30 4234 C 407.966 -3.25579 5.42385 0
M  V30 4235 C 406.63 -3.25637 5.82681 0
M  V30 4236 H 405.9 -0.644823 0.365082 0
M  V30 4237 H 408.547 -1.20655 1.4871 0
M  V30 4238 H 406.852 -3.77587 1.04572 0
M  V30 4239 H 408.549 -3.74415 1.43577 0
M  V30 4240 H 405.139 -3.25822 2.78457 0
M  V30 4241 H 409.323 -3.23362 3.76498 0
M  V30 4242 H 404.579 -3.25089 5.1781 0
M  V30 4243 H 408.753 -3.23817 6.16535 0
M  V30 4244 H 406.38 -3.24226 6.87591 0
M  V30 4245 N 407.956 -0.998596 -1.21925 0
M  V30 4246 C 408.888 -0.511879 -2.23411 0
M  V30 4247 C 409.901 0.396094 -1.57908 0
M  V30 4248 O 411.09 0.197316 -1.77406 0
M  V30 4249 C 408.19 0.276802 -3.37768 0
M  V30 4250 C 407.363 -0.628687 -4.32858 0
M  V30 4251 C 406.422 0.109272 -5.26087 0
M  V30 4252 O 405.448 -0.507237 -5.66935 0
M  V30 4253 N 406.65 1.38983 -5.63617 0
M  V30 4254 H 409.415 -1.38457 -2.658 0
M  V30 4255 H 406.976 -0.873981 -1.36283 0
M  V30 4256 H 408.968 0.77928 -3.97126 0
M  V30 4257 H 407.538 1.05063 -2.94415 0
M  V30 4258 H 406.758 -1.31175 -3.71735 0
M  V30 4259 H 408.046 -1.24514 -4.93329 0
M  V30 4260 H 407.444 1.91194 -5.32411 0
M  V30 4261 H 406.001 1.83739 -6.25367 0
M  V30 4262 N 409.434 1.37368 -0.772513 0
M  V30 4263 C 410.682 1.99279 -0.336516 0
M  V30 4264 C 411.003 1.6163 1.09091 0
M  V30 4265 O 410.273 0.882109 1.74916 0
M  V30 4266 H 408.853 0.737063 -0.121435 0
M  V30 4267 H 411.515 1.67836 -0.990809 0
M  V30 4268 H 410.611 3.09332 -0.414763 0
M  V30 4269 N 410.912 0.523116 1.48665 0
M  V30 4270 C 412.328 0.180511 1.58576 0
M  V30 4271 C 412.528 -1.31597 1.52592 0
M  V30 4272 O 411.584 -2.0937 1.4114 0
M  V30 4273 C 412.897 0.776949 2.90489 0
M  V30 4274 C 414.445 0.745058 3.04003 0
M  V30 4275 C 414.92 1.31995 4.38567 0
M  V30 4276 N 416.411 1.28162 4.45117 0
M  V30 4277 C 417.146 1.6964 5.47731 0
M  V30 4278 N 416.642 2.18816 6.57337 0
M  V30 4279 N 418.435 1.6092 5.38573 0
M  V30 4280 H 410.586 1.4958 1.50797 0
M  V30 4281 H 412.849 0.621772 0.715614 0
M  V30 4282 H 412.555 1.82732 3.00503 0
M  V30 4283 H 412.429 0.25007 3.7637 0
M  V30 4284 H 414.816 -0.296532 2.93606 0
M  V30 4285 H 414.897 1.30933 2.1975 0
M  V30 4286 H 414.541 2.36043 4.49718 0
M  V30 4287 H 414.471 0.731418 5.21496 0
M  V30 4288 H 416.962 0.92155 3.66491 0
M  V30 4289 H 417.275 2.48478 7.31764 0
M  V30 4290 H 415.62 2.22805 6.58318 0
M  V30 4291 H 418.811 1.22304 4.5184 0
M  V30 4292 H 418.984 1.93567 6.18414 0
M  V30 4293 N 412.39 -1.55475 0.257931 0
M  V30 4294 C 413.801 -1.8511 -0.243135 0
M  V30 4295 C 414.152 -1.17986 -1.5676 0
M  V30 4296 O 413.277 -0.462102 -2.11409 0
M  V30 4297 C 413.872 -3.35826 -0.447929 0
M  V30 4298 C 412.431 -3.65647 -0.893245 0
M  V30 4299 C 411.578 -2.7729 0.0232965 0
M  V30 4300 H 414.529 -1.51261 0.480199 0
M  V30 4301 H 414.55 -3.58002 -1.28898 0
M  V30 4302 H 414.062 -3.84652 0.516196 0
M  V30 4303 H 412.163 -3.22308 -1.86945 0
M  V30 4304 H 412.276 -4.73312 -0.742469 0
M  V30 4305 H 410.64 -2.49942 -0.490021 0
M  V30 4306 H 411.423 -3.28926 0.982994 0
M  V30 4307 N 413.868 0.0150385 -1.57593 0
M  V30 4308 C 414.8 1.03912 -2.04291 0
M  V30 4309 C 415.813 1.31618 -0.958146 0
M  V30 4310 O 417.002 1.28859 -1.23522 0
M  V30 4311 C 414.102 2.37749 -2.41514 0
M  V30 4312 C 413.275 2.29198 -3.72541 0
M  V30 4313 C 412.334 3.45598 -3.96797 0
M  V30 4314 O 411.36 3.24461 -4.67668 0
M  V30 4315 N 412.562 4.67945 -3.43523 0
M  V30 4316 H 415.327 0.64099 -2.92765 0
M  V30 4317 H 412.888 0.20272 -1.60626 0
M  V30 4318 H 414.88 3.14364 -2.54867 0
M  V30 4319 H 413.45 2.69357 -1.58637 0
M  V30 4320 H 412.67 1.3759 -3.69408 0
M  V30 4321 H 413.958 2.20642 -4.5847 0
M  V30 4322 H 413.356 4.88017 -2.86104 0
M  V30 4323 H 411.913 5.41878 -3.62232 0
M  V30 4324 N 415.346 1.54954 0.287554 0
M  V30 4325 C 416.296 1.8322 1.357 0
M  V30 4326 C 417.28 0.690152 1.45347 0
M  V30 4327 O 418.472 0.951137 1.49273 0
M  V30 4328 C 415.601 2.09481 2.71979 0
M  V30 4329 C 414.687 3.29906 2.66502 0
M  V30 4330 N 415.078 4.50154 2.30641 0
M  V30 4331 C 413.376 3.32203 2.97585 0
M  V30 4332 C 414.077 5.32209 2.34794 0
M  V30 4333 N 413.053 4.70258 2.72688 0
M  V30 4334 H 416.855 2.73746 1.0696 0
M  V30 4335 H 414.369 1.54635 0.496167 0
M  V30 4336 H 416.366 2.27882 3.49107 0
M  V30 4337 H 415.026 1.2023 3.0162 0
M  V30 4338 H 416.037 4.76515 2.02865 0
M  V30 4339 H 412.714 2.53101 3.32034 0
M  V30 4340 H 414.104 6.38321 2.09753 0
M  V30 4341 N 416.824 -0.551391 1.4764 0
M  V30 4342 C 418.052 -1.33357 1.58189 0
M  V30 4343 C 418.467 -1.87342 0.234199 0
M  V30 4344 O 417.824 -1.65301 -0.77343 0
M  V30 4345 C 417.875 -2.49942 2.61173 0
M  V30 4346 O 417.596 -1.98187 3.90709 0
M  V30 4347 C 419.097 -3.42072 2.8196 0
M  V30 4348 H 416.317 -0.40631 0.533998 0
M  V30 4349 H 418.861 -0.667367 1.93304 0
M  V30 4350 H 417.016 -3.12489 2.28975 0
M  V30 4351 H 417.43 -2.74342 4.47031 0
M  V30 4352 H 418.904 -4.20278 3.57869 0
M  V30 4353 H 419.381 -3.95978 1.89995 0
M  V30 4354 H 419.987 -2.85336 3.15378 0
M  V30 4355 N 418.302 -1.35869 -0.798587 0
M  V30 4356 C 419.234 -1.25305 -1.91915 0
M  V30 4357 C 420.247 -0.174548 -1.61862 0
M  V30 4358 O 421.436 -0.428499 -1.73281 0
M  V30 4359 C 418.536 -0.9086 -3.26493 0
M  V30 4360 C 417.709 -2.08711 -3.84394 0
M  V30 4361 C 416.768 -1.71717 -4.97393 0
M  V30 4362 O 415.794 -2.43692 -5.14396 0
M  V30 4363 N 416.996 -0.645473 -5.769 0
M  V30 4364 H 419.761 -2.21849 -2.01502 0
M  V30 4365 H 417.322 -1.29143 -0.976408 0
M  V30 4366 H 419.314 -0.642455 -3.99568 0
M  V30 4367 H 417.884 -0.0325815 -3.12583 0
M  V30 4368 H 417.104 -2.51659 -3.03416 0
M  V30 4369 H 418.392 -2.87468 -4.19809 0
M  V30 4370 H 417.79 -0.047648 -5.6568 0
M  V30 4371 H 416.347 -0.43913 -6.50319 0
M  V30 4372 N 419.78 1.02168 -1.19998 0
M  V30 4373 C 421.026 1.75945 -1.00852 0
M  V30 4374 C 421.359 1.88702 0.458828 0
M  V30 4375 O 420.634 1.40911 1.34069 0
M  V30 4376 C 420.917 3.18154 -1.68671 0
M  V30 4377 C 420.77 3.13224 -3.22817 0
M  V30 4378 C 422.089 4.16711 -1.41561 0
M  V30 4379 H 419.208 0.638673 -0.367785 0
M  V30 4380 H 421.85 1.19222 -1.4794 0
M  V30 4381 H 420 3.66586 -1.28636 0
M  V30 4382 H 421.672 2.72635 -3.72112 0
M  V30 4383 H 419.915 2.50751 -3.53986 0
M  V30 4384 H 420.586 4.13728 -3.65422 0
M  V30 4385 H 423.062 3.76913 -1.76284 0
M  V30 4386 H 421.938 5.14391 -1.91553 0
M  V30 4387 H 422.199 4.40774 -0.342193 0
M  V30 4388 N 421.258 1.00505 1.21394 0
M  V30 4389 C 422.488 0.705584 1.94178 0
M  V30 4390 C 422.896 -0.735846 1.74304 0
M  V30 4391 O 422.239 -1.50954 1.04683 0
M  V30 4392 C 422.301 0.94689 3.46806 0
M  V30 4393 C 421.965 2.37517 3.90429 0
M  V30 4394 C 422.962 3.35539 3.97127 0
M  V30 4395 C 420.647 2.71284 4.22742 0
M  V30 4396 C 422.641 4.65395 4.3553 0
M  V30 4397 C 420.328 4.01356 4.60822 0
M  V30 4398 C 421.326 4.98223 4.67186 0
M  V30 4399 O 421.014 6.25969 5.04399 0
M  V30 4400 H 420.746 0.259216 0.624326 0
M  V30 4401 H 423.3 1.34592 1.55159 0
M  V30 4402 H 421.53 0.249386 3.85895 0
M  V30 4403 H 423.219 0.640804 4.0081 0
M  V30 4404 H 423.985 3.10786 3.7234 0
M  V30 4405 H 419.864 1.96581 4.16985 0
M  V30 4406 H 423.408 5.41002 4.40412 0
M  V30 4407 H 419.305 4.25893 4.85063 0
M  V30 4408 H 420.073 6.30085 5.22431 0
M  V30 4409 N 422.737 -1.36956 0.779787 0
M  V30 4410 C 423.669 -2.28833 0.129639 0
M  V30 4411 C 424.682 -1.4902 -0.655511 0
M  V30 4412 O 425.871 -1.71578 -0.492279 0
M  V30 4413 C 422.971 -3.2833 -0.839792 0
M  V30 4414 C 422.144 -4.3727 -0.10675 0
M  V30 4415 C 421.203 -5.16789 -0.990717 0
M  V30 4416 O 420.229 -5.67406 -0.451516 0
M  V30 4417 N 421.431 -5.32294 -2.3161 0
M  V30 4418 H 424.196 -2.85268 0.918803 0
M  V30 4419 H 421.757 -1.49019 0.632841 0
M  V30 4420 H 423.749 -3.78413 -1.43477 0
M  V30 4421 H 422.319 -2.72605 -1.52988 0
M  V30 4422 H 421.539 -3.88478 0.669216 0
M  V30 4423 H 422.827 -5.07229 0.399464 0
M  V30 4424 H 422.225 -4.92768 -2.77843 0
M  V30 4425 H 420.782 -5.85656 -2.86095 0
M  V30 4426 N 424.215 -0.530993 -1.48385 0
M  V30 4427 C 425.162 0.231223 -2.29639 0
M  V30 4428 C 426.132 0.932864 -1.37429 0
M  V30 4429 O 427.317 0.933692 -1.66394 0
M  V30 4430 C 424.457 1.27155 -3.2082 0
M  V30 4431 C 423.57 0.578655 -4.28107 0
M  V30 4432 C 422.705 1.602 -5.06467 0
M  V30 4433 C 421.744 0.892625 -6.05556 0
M  V30 4434 N 420.881 1.86157 -6.76971 0
M  V30 4435 H 425.721 -0.467848 -2.94305 0
M  V30 4436 H 423.258 -0.242556 -1.45086 0
M  V30 4437 H 425.216 1.88703 -3.72085 0
M  V30 4438 H 423.846 1.939 -2.58075 0
M  V30 4439 H 422.898 -0.150782 -3.80101 0
M  V30 4440 H 424.21 0.0217065 -4.98795 0
M  V30 4441 H 423.364 2.29173 -5.61751 0
M  V30 4442 H 422.103 2.19285 -4.35621 0
M  V30 4443 H 421.108 0.188829 -5.49476 0
M  V30 4444 H 422.333 0.307878 -6.78402 0
M  V30 4445 H 420.279 2.44147 -6.08875 0
M  V30 4446 H 420.196 1.35608 -7.43738 0
M  V30 4447 H 421.464 2.54325 -7.36844 0
M  V30 4448 N 425.693 1.55336 -0.266172 0
M  V30 4449 C 426.603 2.2583 0.635458 0
M  V30 4450 C 427.619 1.28106 1.17749 0
M  V30 4451 O 428.795 1.61024 1.20968 0
M  V30 4452 C 425.86 2.95879 1.80712 0
M  V30 4453 C 424.921 4.09059 1.30265 0
M  V30 4454 C 424.154 4.75759 2.41846 0
M  V30 4455 O 424.377 4.41622 3.61007 0
M  V30 4456 O 423.311 5.63888 2.1051 0
M  V30 4457 H 427.137 3.03631 0.0646693 0
M  V30 4458 H 424.722 1.49361 -0.0339177 0
M  V30 4459 H 426.604 3.39932 2.49047 0
M  V30 4460 H 425.279 2.21002 2.36516 0
M  V30 4461 H 424.186 3.69482 0.586019 0
M  V30 4462 H 425.519 4.85811 0.790458 0
M  V30 4463 N 427.171 -0.0066808 1.57599 0
M  V30 4464 C 428.103 -1.02827 2.04839 0
M  V30 4465 C 429.116 -1.31108 0.965113 0
M  V30 4466 O 430.305 -1.28202 1.24203 0
M  V30 4467 C 427.405 -2.36464 2.42771 0
M  V30 4468 C 426.578 -2.27219 3.73751 0
M  V30 4469 C 425.637 -3.43489 3.98625 0
M  V30 4470 O 424.663 -3.21976 4.69382 0
M  V30 4471 N 425.865 -4.66116 3.46 0
M  V30 4472 H 428.63 -0.625455 2.93101 0
M  V30 4473 H 426.191 -0.194198 1.60731 0
M  V30 4474 H 428.183 -3.13008 2.56531 0
M  V30 4475 H 426.753 -2.68512 1.60063 0
M  V30 4476 H 425.973 -1.35629 3.70133 0
M  V30 4477 H 427.261 -2.18208 4.59633 0
M  V30 4478 H 426.659 -4.86493 2.88688 0
M  V30 4479 H 425.216 -5.39949 3.65101 0
M  V30 4480 N 428.649 -1.55105 -0.279332 0
M  V30 4481 C 429.889 -1.7716 -1.01949 0
M  V30 4482 C 430.253 -0.557511 -1.83728 0
M  V30 4483 O 431.454 -0.656198 -2.60667 0
M  V30 4484 C 429.725 -3.0372 -1.88385 0
M  V30 4485 S 431.284 -3.46868 -2.68752 0
M  V30 4486 H 428.102 -0.62253 -0.343478 0
M  V30 4487 H 430.704 -1.93329 -0.290572 0
M  V30 4488 H 429.408 -3.90184 -1.2722 0
M  V30 4489 H 428.939 -2.902 -2.65608 0
M  V30 4490 H 430.954 -3.05643 -3.90892 0
M  V30 4491 N 430.127 0.543554 -1.4793 0
M  V30 4492 C 431.538 1.12561 -1.48953 0
M  V30 4493 C 431.889 1.94578 -0.251754 0
M  V30 4494 O 431.014 2.0665 0.642255 0
M  V30 4495 C 431.609 2.04801 -2.69892 0
M  V30 4496 C 430.168 2.58251 -2.73831 0
M  V30 4497 C 429.315 1.34918 -2.42265 0
M  V30 4498 H 432.266 0.32947 -1.55242 0
M  V30 4499 H 432.287 2.88886 -2.47639 0
M  V30 4500 H 431.799 1.4508 -3.59963 0
M  V30 4501 H 429.9 3.21732 -1.87934 0
M  V30 4502 H 430.013 2.98312 -3.74895 0
M  V30 4503 H 428.377 1.66046 -1.93134 0
M  V30 4504 H 429.16 0.769693 -3.3456 0
M  V30 4505 N 431.605 1.3629 0.791371 0
M  V30 4506 C 432.568 1.30309 1.88553 0
M  V30 4507 C 433.568 0.211204 1.59407 0
M  V30 4508 O 434.758 0.465865 1.67855 0
M  V30 4509 C 431.89 1.01956 3.25297 0
M  V30 4510 H 433.083 2.27614 1.95273 0
M  V30 4511 H 430.636 1.21035 0.988953 0
M  V30 4512 H 431.371 0.050998 3.2426 0
M  V30 4513 H 431.156 1.80968 3.4784 0
M  V30 4514 H 432.646 1.0037 4.05359 0
M  V30 4515 N 433.083 -1.0153 1.20538 0
M  V30 4516 C 434.331 -1.74803 1.01432 0
M  V30 4517 C 434.652 -1.8963 -0.454456 0
M  V30 4518 O 433.922 -1.43975 -1.32846 0
M  V30 4519 H 432.502 -0.647598 0.372324 0
M  V30 4520 H 435.164 -1.22402 1.5167 0
M  V30 4521 H 434.26 -2.75114 1.47373 0
M  V30 4522 N 434.561 -1.01147 -1.20859 0
M  V30 4523 C 435.511 -0.548247 -2.2131 0
M  V30 4524 C 436.495 0.393646 -1.5601 0
M  V30 4525 O 437.687 0.217445 -1.75659 0
M  V30 4526 C 434.816 0.117252 -3.431 0
M  V30 4527 C 433.902 -0.846043 -4.15575 0
M  V30 4528 N 434.293 -2.00149 -4.64515 0
M  V30 4529 C 432.591 -0.665783 -4.41003 0
M  V30 4530 C 433.292 -2.60764 -5.19978 0
M  V30 4531 N 432.268 -1.88868 -5.09735 0
M  V30 4532 H 436.07 -1.42921 -2.56809 0
M  V30 4533 H 433.584 -0.876142 -1.36739 0
M  V30 4534 H 435.581 0.46662 -4.1428 0
M  V30 4535 H 434.241 0.994115 -3.09107 0
M  V30 4536 H 435.252 -2.38162 -4.5989 0
M  V30 4537 H 431.929 0.163456 -4.1718 0
M  V30 4538 H 433.319 -3.58519 -5.68255 0
M  V30 4539 N 436.039 1.36541 -0.78704 0
M  V30 4540 C 436.971 2.28761 -0.141773 0
M  V30 4541 C 437.984 1.49365 0.647599 0
M  V30 4542 O 439.173 1.71836 0.483173 0
M  V30 4543 C 436.273 3.28771 0.822368 0
M  V30 4544 C 435.446 4.3732 0.0835594 0
M  V30 4545 C 434.505 5.17307 0.963296 0
M  V30 4546 O 433.531 5.67638 0.421419 0
M  V30 4547 N 434.733 5.33515 2.28784 0
M  V30 4548 H 437.498 2.84777 -0.933919 0
M  V30 4549 H 435.059 1.48682 -0.640735 0
M  V30 4550 H 437.051 3.79169 1.41468 0
M  V30 4551 H 435.621 2.73412 1.5154 0
M  V30 4552 H 434.841 3.88118 -0.689809 0
M  V30 4553 H 436.129 5.0701 -0.426358 0
M  V30 4554 H 435.527 4.94234 2.75226 0
M  V30 4555 H 434.084 5.87165 2.82985 0
M  V30 4556 N 437.518 0.538854 1.48102 0
M  V30 4557 C 438.764 0.00801365 2.02798 0
M  V30 4558 C 439.097 -1.3309 1.41424 0
M  V30 4559 O 438.372 -1.86169 0.563158 0
M  V30 4560 C 438.655 -0.104589 3.59948 0
M  V30 4561 C 438.508 1.26012 4.31788 0
M  V30 4562 C 439.827 -0.827055 4.32259 0
M  V30 4563 H 436.946 0.00438624 0.736987 0
M  V30 4564 H 439.588 0.6976 1.7673 0
M  V30 4565 H 437.738 -0.691893 3.82289 0
M  V30 4566 H 439.41 1.88922 4.2084 0
M  V30 4567 H 437.653 1.83968 3.92859 0
M  V30 4568 H 438.324 1.13424 5.40221 0
M  V30 4569 H 440.8 -0.328578 4.14801 0
M  V30 4570 H 439.676 -0.87476 5.41885 0
M  V30 4571 H 439.937 -1.87927 4.0017 0
M  V30 4572 N 438.996 -1.55193 0.274407 0
M  V30 4573 C 439.929 -2.18606 -0.654712 0
M  V30 4574 C 440.907 -1.14677 -1.15273 0
M  V30 4575 O 442.091 -1.43198 -1.22583 0
M  V30 4576 C 439.218 -2.80875 -1.89281 0
M  V30 4577 C 438.264 -3.981 -1.53032 0
M  V30 4578 S 439.097 -5.32025 -0.609107 0
M  V30 4579 C 440.253 -5.97761 -1.85559 0
M  V30 4580 H 440.486 -2.97074 -0.115894 0
M  V30 4581 H 438.019 -1.54288 0.05867 0
M  V30 4582 H 439.977 -3.17381 -2.60345 0
M  V30 4583 H 438.638 -2.02302 -2.40277 0
M  V30 4584 H 437.831 -4.40356 -2.45158 0
M  V30 4585 H 437.433 -3.63013 -0.899874 0
M  V30 4586 H 439.725 -6.16951 -2.7996 0
M  V30 4587 H 440.668 -6.92545 -1.47605 0
M  V30 4588 H 441.076 -5.27113 -2.02021 0
M  V30 4589 N 440.474 -0.00167713 -1.576 0
M  V30 4590 C 441.421 0.989195 -2.08527 0
M  V30 4591 C 442.391 1.34031 -0.981065 0
M  V30 4592 O 443.576 1.43839 -1.2536 0
M  V30 4593 C 440.716 2.27537 -2.59463 0
M  V30 4594 C 439.829 1.98314 -3.83791 0
M  V30 4595 C 438.964 3.21025 -4.23222 0
M  V30 4596 C 438.003 2.87495 -5.40382 0
M  V30 4597 N 437.14 4.02749 -5.75098 0
M  V30 4598 H 441.98 0.547973 -2.92919 0
M  V30 4599 H 439.517 0.258917 -1.44803 0
M  V30 4600 H 441.475 3.02729 -2.87073 0
M  V30 4601 H 440.105 2.69325 -1.77943 0
M  V30 4602 H 439.157 1.13482 -3.63078 0
M  V30 4603 H 440.469 1.69601 -4.69081 0
M  V30 4604 H 439.623 4.04561 -4.52123 0
M  V30 4605 H 438.362 3.52877 -3.36644 0
M  V30 4606 H 437.367 2.02367 -5.11202 0
M  V30 4607 H 438.592 2.56889 -6.28637 0
M  V30 4608 H 436.538 4.34494 -4.91478 0
M  V30 4609 H 436.455 3.77566 -6.54966 0
M  V30 4610 H 437.723 4.87068 -6.08592 0
M  V30 4611 N 441.952 1.55251 0.271103 0
M  V30 4612 C 442.862 1.9136 1.35714 0
M  V30 4613 C 443.878 0.811075 1.5394 0
M  V30 4614 O 445.054 1.11031 1.6803 0
M  V30 4615 C 442.119 2.1798 2.69603 0
M  V30 4616 C 441.18 3.4153 2.60107 0
M  V30 4617 C 440.413 3.66871 3.8761 0
M  V30 4618 O 440.636 2.94689 4.8838 0
M  V30 4619 O 439.57 4.60405 3.87699 0
M  V30 4620 H 443.396 2.83815 1.08088 0
M  V30 4621 H 440.981 1.41821 0.469792 0
M  V30 4622 H 442.863 2.36518 3.48765 0
M  V30 4623 H 441.538 1.28708 2.97012 0
M  V30 4624 H 440.445 3.28325 1.79314 0
M  V30 4625 H 441.778 4.31027 2.37647 0
M  V30 4626 N 443.43 -0.535701 1.48216 0
M  V30 4627 C 444.393 -1.623 1.61838 0
M  V30 4628 C 445.393 -1.53087 0.492024 0
M  V30 4629 O 446.583 -1.5686 0.757668 0
M  V30 4630 C 443.715 -3.01907 1.58319 0
M  V30 4631 H 444.908 -1.51564 2.58783 0
M  V30 4632 H 442.461 -0.757317 1.36727 0
M  V30 4633 H 443.196 -3.18155 0.628299 0
M  V30 4634 H 442.981 -3.10003 2.40085 0
M  V30 4635 H 444.471 -3.80969 1.71033 0
M  V30 4636 N 444.908 -1.36708 -0.784132 0
M  V30 4637 C 446.155 -1.31231 -1.54222 0
M  V30 4638 C 446.483 0.106864 -1.94206 0
M  V30 4639 O 445.738 1.07734 -1.63376 0
M  V30 4640 C 446.037 -2.18571 -2.82774 0
M  V30 4641 C 445.703 -3.67039 -2.61903 0
M  V30 4642 C 444.365 -4.07503 -2.55919 0
M  V30 4643 C 446.717 -4.61149 -2.4288 0
M  V30 4644 C 444.045 -5.40211 -2.28886 0
M  V30 4645 C 446.397 -5.94081 -2.17373 0
M  V30 4646 C 445.061 -6.33664 -2.09825 0
M  V30 4647 H 444.331 -0.48021 -0.56434 0
M  V30 4648 H 446.978 -1.68807 -0.904233 0
M  V30 4649 H 445.283 -1.73949 -3.51068 0
M  V30 4650 H 446.98 -2.11655 -3.40592 0
M  V30 4651 H 443.57 -3.34941 -2.67418 0
M  V30 4652 H 447.754 -4.30756 -2.46501 0
M  V30 4653 H 443.01 -5.69855 -2.21529 0
M  V30 4654 H 447.184 -6.66566 -2.01649 0
M  V30 4655 H 444.811 -7.36423 -1.88641 0
M  V30 4656 N 446.386 1.0089 -1.21074 0
M  V30 4657 C 447.634 1.74262 -1.02358 0
M  V30 4658 C 447.955 1.89869 0.444393 0
M  V30 4659 O 447.225 1.44677 1.32081 0
M  V30 4660 H 445.805 0.645615 -0.375754 0
M  V30 4661 H 448.467 1.21596 -1.52317 0
M  V30 4662 H 447.563 2.74328 -1.4883 0
M  V30 4663 N 447.864 1.01787 1.20321 0
M  V30 4664 C 449.275 0.739307 1.71438 0
M  V30 4665 C 449.626 -0.742041 1.81627 0
M  V30 4666 O 448.751 -1.57903 1.47971 0
M  V30 4667 C 449.346 1.33538 3.11373 0
M  V30 4668 C 447.905 1.10566 3.59795 0
M  V30 4669 C 447.052 1.44028 2.36962 0
M  V30 4670 H 450.003 1.18718 1.05317 0
M  V30 4671 H 450.024 0.726611 3.73498 0
M  V30 4672 H 449.536 2.41352 3.03926 0
M  V30 4673 H 447.637 0.0452405 3.72573 0
M  V30 4674 H 447.75 1.78661 4.44542 0
M  V30 4675 H 446.114 0.85933 2.39766 0
M  V30 4676 H 446.897 2.52901 2.32155 0
M  V30 4677 N 449.342 -1.36122 0.79427 0
M  V30 4678 C 450.252 -2.33769 0.197296 0
M  V30 4679 C 451.268 -1.61276 -0.653153 0
M  V30 4680 O 452.444 -1.9323 -0.5678 0
M  V30 4681 C 449.509 -3.40474 -0.654098 0
M  V30 4682 C 448.57 -4.28759 0.215411 0
M  V30 4683 C 447.803 -5.30368 -0.595443 0
M  V30 4684 O 448.026 -5.40211 -1.83107 0
M  V30 4685 O 446.96 -6.019 0.00721351 0
M  V30 4686 H 450.786 -2.86597 1.00478 0
M  V30 4687 H 448.371 -1.38676 0.555818 0
M  V30 4688 H 450.253 -4.05703 -1.13944 0
M  V30 4689 H 448.928 -2.89937 -1.43938 0
M  V30 4690 H 447.835 -3.66554 0.747615 0
M  V30 4691 H 449.168 -4.82661 0.964332 0
M  V30 4692 N 450.82 -0.546701 -1.47814 0
M  V30 4693 C 452.097 0.0464413 -1.95545 0
M  V30 4694 C 452.477 1.4962 -1.48919 0
M  V30 4695 O 451.825 2.16752 -0.723232 0
M  V30 4696 C 452.035 -0.0881298 -3.48889 0
M  V30 4697 C 453.383 0.0626059 -4.24554 0
M  V30 4698 O 454.407 -0.0151555 -3.56197 0
M  V30 4699 O 453.266 0.228071 -5.46024 0
M  V30 4700 H 450.36 0.0700004 -0.824032 0
M  V30 4701 H 452.906 -0.612482 -1.58262 0
M  V30 4702 H 451.678 -1.09737 -3.75597 0
M  V30 4703 H 451.301 0.608886 -3.9291 0
M  V30 4704 N 452.299 1.55045 -0.282633 0
M  V30 4705 C 453.547 1.99365 0.331334 0
M  V30 4706 C 453.868 1.1725 1.55812 0
M  V30 4707 O 453.138 0.263871 1.94115 0
M  V30 4708 H 451.718 0.736397 0.125414 0
M  V30 4709 H 454.38 1.90964 -0.389711 0
M  V30 4710 H 453.476 3.0596 0.616036 0
M  V30 4711 N 453.777 0.010035 1.57597 0
M  V30 4712 C 454.707 -0.976857 2.12084 0
M  V30 4713 C 455.688 -1.35191 1.03235 0
M  V30 4714 O 456.873 -1.43389 1.3097 0
M  V30 4715 C 454.003 -2.26548 2.63236 0
M  V30 4716 C 452.957 -2.03175 3.76701 0
M  V30 4717 C 452.283 -3.38138 4.14206 0
M  V30 4718 C 453.583 -1.38625 5.03568 0
M  V30 4719 H 455.277 -0.523145 2.94794 0
M  V30 4720 H 452.823 -0.250195 1.4181 0
M  V30 4721 H 454.776 -2.95952 2.99984 0
M  V30 4722 H 453.5 -2.74051 1.77661 0
M  V30 4723 H 452.159 -1.36195 3.40362 0
M  V30 4724 H 451.807 -3.83363 3.25641 0
M  V30 4725 H 451.507 -3.23312 4.90656 0
M  V30 4726 H 453.031 -4.08841 4.53521 0
M  V30 4727 H 454.445 -1.98 5.38023 0
M  V30 4728 H 452.842 -1.34256 5.84889 0
M  V30 4729 H 453.912 -0.356722 4.83586 0
M  V30 4730 N 455.255 -1.55392 -0.262866 0
M  V30 4731 C 456.187 -1.85392 -1.34768 0
M  V30 4732 C 457.2 -0.739069 -1.45057 0
M  V30 4733 O 458.389 -1.01703 -1.46693 0
M  V30 4734 C 455.489 -2.01088 -2.72795 0
M  V30 4735 C 454.662 -3.31828 -2.84972 0
M  V30 4736 C 453.721 -3.37464 -4.03738 0
M  V30 4737 O 452.747 -4.10778 -3.94018 0
M  V30 4738 N 453.949 -2.65599 -5.16176 0
M  V30 4739 H 456.714 -2.79029 -1.09375 0
M  V30 4740 H 454.275 -1.55434 -0.452981 0
M  V30 4741 H 456.267 -2.02217 -3.50557 0
M  V30 4742 H 454.837 -1.1427 -2.90966 0
M  V30 4743 H 454.057 -3.43152 -1.94012 0
M  V30 4744 H 455.345 -4.18032 -2.90045 0
M  V30 4745 H 454.743 -2.05736 -5.26962 0
M  V30 4746 H 453.3 -2.72439 -5.92132 0
M  V30 4747 N 456.733 0.527833 -1.48498 0
M  V30 4748 C 458.149 0.856571 -1.34666 0
M  V30 4749 C 458.349 1.98271 -0.35931 0
M  V30 4750 O 457.405 2.51551 0.218703 0
M  V30 4751 C 458.718 1.22207 -2.74747 0
M  V30 4752 C 460.266 1.33183 -2.83251 0
M  V30 4753 C 460.741 1.73075 -4.24039 0
M  V30 4754 N 462.232 1.80174 -4.26722 0
M  V30 4755 C 462.967 2.1243 -5.32598 0
M  V30 4756 N 462.463 2.43096 -6.4875 0
M  V30 4757 N 464.256 2.13454 -5.19994 0
M  V30 4758 H 456.407 -0.215174 -2.11307 0
M  V30 4759 H 458.67 -0.0336281 -0.947403 0
M  V30 4760 H 458.376 0.468195 -3.4857 0
M  V30 4761 H 458.25 2.17173 -3.08409 0
M  V30 4762 H 460.637 2.07647 -2.09683 0
M  V30 4763 H 460.718 0.363333 -2.53206 0
M  V30 4764 H 460.362 0.991712 -4.98124 0
M  V30 4765 H 460.292 2.70979 -4.51529 0
M  V30 4766 H 462.783 1.58744 -3.42942 0
M  V30 4767 H 463.096 2.6682 -7.25277 0
M  V30 4768 H 461.441 2.40611 -6.52021 0
M  V30 4769 H 464.632 1.88956 -4.28268 0
M  V30 4770 H 464.805 2.38261 -6.02608 0
M  V30 4771 N 458.211 1.37122 0.776871 0
M  V30 4772 C 459.141 1.35164 1.90402 0
M  V30 4773 C 460.122 0.221069 1.68657 0
M  V30 4774 O 461.307 0.420642 1.8959 0
M  V30 4775 C 458.437 1.15274 3.27611 0
M  V30 4776 C 457.391 2.25289 3.63908 0
M  V30 4777 C 456.717 1.90527 4.99603 0
M  V30 4778 C 458.017 3.67446 3.71188 0
M  V30 4779 H 459.711 2.29482 1.92297 0
M  V30 4780 H 457.257 1.10465 0.923773 0
M  V30 4781 H 459.21 1.12536 4.06096 0
M  V30 4782 H 457.934 0.174102 3.26136 0
M  V30 4783 H 456.593 2.27174 2.87728 0
M  V30 4784 H 456.241 0.91206 4.94662 0
M  V30 4785 H 455.941 2.64193 5.24858 0
M  V30 4786 H 457.465 1.89367 5.80493 0
M  V30 4787 H 458.879 3.67719 4.39836 0
M  V30 4788 H 457.276 4.40123 4.07936 0
M  V30 4789 H 458.346 4.01443 2.71977 0
M  V30 4790 N 459.689 -1.00246 1.21608 0
M  V30 4791 C 460.917 -1.77631 1.06089 0
M  V30 4792 C 461.332 -1.84746 -0.38916 0
M  V30 4793 O 460.689 -1.31068 -1.26994 0
M  V30 4794 C 460.74 -3.21415 1.65453 0
M  V30 4795 O 460.461 -3.14703 3.04785 0
M  V30 4796 C 461.962 -4.15289 1.55079 0
M  V30 4797 H 459.182 -0.558162 0.37242 0
M  V30 4798 H 461.726 -1.26093 1.60999 0
M  V30 4799 H 459.881 -3.70053 1.14629 0
M  V30 4800 H 460.295 -4.05056 3.33212 0
M  V30 4801 H 461.769 -5.13965 2.01355 0
M  V30 4802 H 462.246 -4.36279 0.505665 0
M  V30 4803 H 462.852 -3.72543 2.05163 0
M  V30 4804 N 461.167 -1.02423 -1.1978 0
M  V30 4805 C 462.413 -0.72878 -1.89896 0
M  V30 4806 C 462.768 0.734248 -1.77839 0
M  V30 4807 O 462.061 1.52733 -1.15685 0
M  V30 4808 C 462.255 -1.1088 -3.39765 0
M  V30 4809 C 462.084 -2.60722 -3.66407 0
M  V30 4810 C 460.854 -3.27623 -3.84696 0
M  V30 4811 C 463.052 -3.58924 -3.68345 0
M  V30 4812 N 461.034 -4.66617 -3.98926 0
M  V30 4813 C 462.405 -4.83514 -3.8809 0
M  V30 4814 C 464.46 -3.52788 -3.51347 0
M  V30 4815 C 463.163 -6.0271 -3.92598 0
M  V30 4816 C 465.189 -4.71394 -3.5713 0
M  V30 4817 C 464.551 -5.94796 -3.77356 0
M  V30 4818 H 460.65 -0.318473 -0.714212 0
M  V30 4819 H 463.234 -1.3106 -1.43984 0
M  V30 4820 H 461.405 -0.555233 -3.84411 0
M  V30 4821 H 463.137 -0.766082 -3.97383 0
M  V30 4822 H 459.892 -2.7804 -3.83393 0
M  V30 4823 H 460.316 -5.38805 -4.099 0
M  V30 4824 H 464.958 -2.58372 -3.3467 0
M  V30 4825 H 462.676 -6.97499 -4.08069 0
M  V30 4826 H 466.262 -4.6827 -3.45275 0
M  V30 4827 H 465.142 -6.85037 -3.81699 0
M  V30 4828 N 462.645 1.35699 -0.801477 0
M  V30 4829 C 463.891 1.99643 -0.389135 0
M  V30 4830 C 464.246 1.62447 1.03095 0
M  V30 4831 O 463.539 0.875064 1.7045 0
M  V30 4832 C 463.733 3.53828 -0.504041 0
M  V30 4833 C 463.562 4.06 -1.93375 0
M  V30 4834 C 462.332 4.35592 -2.561 0
M  V30 4835 C 464.53 4.24905 -2.89759 0
M  V30 4836 N 462.512 4.73663 -3.90534 0
M  V30 4837 C 463.883 4.65914 -4.09052 0
M  V30 4838 C 465.938 4.07101 -2.86658 0
M  V30 4839 C 464.641 4.90984 -5.25669 0
M  V30 4840 C 466.667 4.33324 -4.02472 0
M  V30 4841 C 466.029 4.74601 -5.20512 0
M  V30 4842 H 462.128 0.758552 -0.19006 0
M  V30 4843 H 464.712 1.64493 -1.04164 0
M  V30 4844 H 462.883 3.88219 0.118437 0
M  V30 4845 H 464.615 4.04645 -0.0667794 0
M  V30 4846 H 461.37 4.25728 -2.07492 0
M  V30 4847 H 461.794 4.96965 -4.59734 0
M  V30 4848 H 466.436 3.74335 -1.96552 0
M  V30 4849 H 464.154 5.22626 -6.1635 0
M  V30 4850 H 467.74 4.21107 -4.01447 0
M  V30 4851 H 466.62 4.94497 -6.08639 0
M  V30 4852 N 464.123 0.554532 1.47522 0
M  V30 4853 C 465.363 0.0317994 2.04375 0
M  V30 4854 C 465.727 -1.29242 1.41988 0
M  V30 4855 O 466.928 -1.90269 1.89872 0
M  V30 4856 C 465.199 -0.0623344 3.57346 0
M  V30 4857 S 466.758 -0.531578 4.35568 0
M  V30 4858 H 463.576 0.0238553 0.7106 0
M  V30 4859 H 466.178 0.74066 1.80927 0
M  V30 4860 H 464.882 0.905857 4.00278 0
M  V30 4861 H 464.413 -0.794831 3.85287 0
M  V30 4862 H 466.428 -1.79175 4.62721 0
M  V30 4863 N 465.601 -1.54893 0.290851 0
M  V30 4864 C 467.012 -1.85584 -0.203816 0
M  V30 4865 C 467.363 -1.21285 -1.54222 0
M  V30 4866 O 466.488 -0.506841 -2.10381 0
M  V30 4867 C 467.083 -3.367 -0.376595 0
M  V30 4868 C 465.642 -3.6746 -0.815485 0
M  V30 4869 C 464.789 -2.77178 0.0821087 0
M  V30 4870 H 467.74 -1.50208 0.512175 0
M  V30 4871 H 467.761 -3.60656 -1.21275 0
M  V30 4872 H 467.273 -3.8347 0.59767 0
M  V30 4873 H 465.374 -3.26201 -1.80066 0
M  V30 4874 H 465.487 -4.7478 -0.641905 0
M  V30 4875 H 463.851 -2.50925 -0.436895 0
M  V30 4876 H 464.634 -3.26767 1.05254 0
M  V30 4877 N 467.08 -0.0183926 -1.57589 0
M  V30 4878 C 468.012 0.995557 -2.06449 0
M  V30 4879 C 469.025 1.29556 -0.985849 0
M  V30 4880 O 470.214 1.2621 -1.26227 0
M  V30 4881 C 467.314 2.32572 -2.46502 0
M  V30 4882 C 466.487 2.21245 -3.77319 0
M  V30 4883 C 465.546 3.37104 -4.04039 0
M  V30 4884 O 464.572 3.14468 -4.74445 0
M  V30 4885 N 465.774 4.60553 -3.53372 0
M  V30 4886 H 468.539 0.578746 -2.94059 0
M  V30 4887 H 466.1 0.168603 -1.6102 0
M  V30 4888 H 468.092 3.08887 -2.61478 0
M  V30 4889 H 466.662 2.65931 -1.64315 0
M  V30 4890 H 465.882 1.29723 -3.72244 0
M  V30 4891 H 467.17 2.10868 -4.63047 0
M  V30 4892 H 466.568 4.81839 -2.96391 0
M  V30 4893 H 465.125 5.34072 -3.73644 0
M  V30 4894 N 468.558 1.5553 0.254621 0
M  V30 4895 C 469.798 1.7876 0.991179 0
M  V30 4896 C 470.162 0.586669 1.82817 0
M  V30 4897 O 471.363 0.697585 2.5959 0
M  V30 4898 C 469.634 3.06679 1.83529 0
M  V30 4899 S 471.193 3.511 2.632 0
M  V30 4900 H 468.011 0.627916 0.333531 0
M  V30 4901 H 470.613 1.93766 0.259778 0
M  V30 4902 H 469.317 3.92158 1.20996 0
M  V30 4903 H 468.848 2.94388 2.60958 0
M  V30 4904 H 470.863 3.11823 3.8598 0
M  V30 4905 N 470.036 -0.519951 1.48776 0
M  V30 4906 C 470.968 -1.63973 1.60142 0
M  V30 4907 C 471.981 -1.55404 0.485117 0
M  V30 4908 O 473.17 -1.61682 0.756391 0
M  V30 4909 C 470.27 -3.02676 1.52449 0
M  V30 4910 C 469.443 -3.36624 2.79291 0
M  V30 4911 C 468.502 -4.54652 2.64912 0
M  V30 4912 O 467.528 -4.57374 3.38818 0
M  V30 4913 N 468.73 -5.53432 1.75195 0
M  V30 4914 H 471.495 -1.54656 2.56713 0
M  V30 4915 H 469.056 -0.707439 1.45626 0
M  V30 4916 H 471.048 -3.79525 1.4051 0
M  V30 4917 H 469.618 -3.06018 0.638125 0
M  V30 4918 H 468.838 -2.48855 3.0572 0
M  V30 4919 H 470.126 -3.56094 3.6342 0
M  V30 4920 H 469.524 -5.54018 1.14371 0
M  V30 4921 H 468.081 -6.29459 1.69189 0
M  V30 4922 N 471.514 -1.37532 -0.769588 0
M  V30 4923 C 472.925 -1.29382 -1.346 0
M  V30 4924 C 473.276 0.0576039 -1.96115 0
M  V30 4925 O 472.401 0.95947 -1.93967 0
M  V30 4926 C 472.996 -2.34298 -2.44724 0
M  V30 4927 C 471.555 -2.29776 -2.98128 0
M  V30 4928 C 470.702 -2.18013 -1.71364 0
M  V30 4929 H 473.653 -1.48123 -0.56968 0
M  V30 4930 H 473.674 -1.99089 -3.24259 0
M  V30 4931 H 473.186 -3.32645 -1.99922 0
M  V30 4932 H 471.287 -1.34959 -3.47299 0
M  V30 4933 H 471.4 -3.23276 -3.53595 0
M  V30 4934 H 469.764 -1.64595 -1.94372 0
M  V30 4935 H 470.547 -3.18278 -1.28662 0
M  V30 4936 N 472.992 0.995999 -1.22138 0
M  V30 4937 C 473.924 2.08745 -0.946485 0
M  V30 4938 C 474.937 1.62633 0.0737356 0
M  V30 4939 O 476.126 1.77782 -0.159886 0
M  V30 4940 C 473.226 3.36516 -0.401305 0
M  V30 4941 C 472.399 4.11672 -1.47801 0
M  V30 4942 C 471.458 5.17728 -0.940461 0
M  V30 4943 O 470.484 5.45482 -1.62596 0
M  V30 4944 N 471.686 5.80005 0.239723 0
M  V30 4945 H 474.451 2.32908 -1.88611 0
M  V30 4946 H 472.012 1.16152 -1.12785 0
M  V30 4947 H 474.004 4.04691 -0.0270837 0
M  V30 4948 H 472.574 3.0944 0.443354 0
M  V30 4949 H 471.794 3.38171 -2.02568 0
M  V30 4950 H 473.082 4.58657 -2.20253 0
M  V30 4951 H 472.48 5.5982 0.813518 0
M  V30 4952 H 471.037 6.4943 0.555361 0
M  V30 4953 N 474.47 1.03057 1.19235 0
M  V30 4954 C 475.4 0.633497 2.24742 0
M  V30 4955 C 476.381 -0.358335 1.66283 0
M  V30 4956 O 477.566 -0.240676 1.92703 0
M  V30 4957 C 474.696 -0.0147648 3.47297 0
M  V30 4958 C 473.65 0.899527 4.18441 0
M  V30 4959 C 472.976 0.116281 5.34574 0
M  V30 4960 C 474.276 2.21404 4.73051 0
M  V30 4961 H 475.97 1.5155 2.58211 0
M  V30 4962 H 473.516 0.73014 1.24117 0
M  V30 4963 H 475.469 -0.304202 4.20301 0
M  V30 4964 H 474.193 -0.931577 3.13032 0
M  V30 4965 H 472.852 1.17319 3.47321 0
M  V30 4966 H 472.5 -0.802619 4.96555 0
M  V30 4967 H 472.2 0.725293 5.83107 0
M  V30 4968 H 473.724 -0.166376 6.10373 0
M  V30 4969 H 475.138 1.98601 5.37802 0
M  V30 4970 H 473.535 2.77512 5.32078 0
M  V30 4971 H 474.605 2.86752 3.91026 0
M  V30 4972 N 475.948 -1.35272 0.808662 0
M  V30 4973 C 477.173 -2.03477 0.401475 0
M  V30 4974 C 477.598 -1.60537 -0.980279 0
M  V30 4975 O 476.956 -0.78304 -1.63518 0
M  V30 4976 C 477.004 -3.57181 0.495354 0
M  V30 4977 O 476.108 -4.09474 -0.490397 0
M  V30 4978 H 475.449 -0.642561 0.167366 0
M  V30 4979 H 477.979 -1.72824 1.09512 0
M  V30 4980 H 477.989 -4.06356 0.365912 0
M  V30 4981 H 476.664 -3.87784 1.5032 0
M  V30 4982 H 475.241 -3.71516 -0.321023 0
M  V30 4983 N 477.426 -0.562348 -1.47226 0
M  V30 4984 C 478.336 0.185466 -2.33866 0
M  V30 4985 C 479.352 0.906713 -1.48508 0
M  V30 4986 O 480.528 0.874458 -1.81425 0
M  V30 4987 C 477.593 1.19904 -3.25306 0
M  V30 4988 C 476.654 0.484669 -4.26555 0
M  V30 4989 C 475.887 1.44996 -5.13626 0
M  V30 4990 O 476.11 2.68515 -5.03245 0
M  V30 4991 O 475.044 0.971642 -5.94006 0
M  V30 4992 H 478.87 -0.525361 -2.99121 0
M  V30 4993 H 476.455 -0.322916 -1.45868 0
M  V30 4994 H 478.337 1.78399 -3.81774 0
M  V30 4995 H 477.012 1.8917 -2.62672 0
M  V30 4996 H 475.919 -0.141605 -3.73832 0
M  V30 4997 H 477.252 -0.166634 -4.91918 0
M  V30 4998 N 478.904 1.54736 -0.299062 0
M  V30 4999 C 479.814 2.27127 0.587413 0
M  V30 5000 C 480.83 1.30575 1.15005 0
M  V30 5001 O 482.006 1.63554 1.17525 0
M  V30 5002 C 479.071 2.99645 1.74395 0
M  V30 5003 C 478.132 4.11731 1.21559 0
M  V30 5004 C 477.365 4.80781 2.317 0
M  V30 5005 O 477.588 4.4918 3.51558 0
M  V30 5006 O 476.522 5.68226 1.98501 0
M  V30 5007 H 480.348 3.037 0.000250109 0
M  V30 5008 H 477.933 1.49256 -0.0655919 0
M  V30 5009 H 479.815 3.45138 2.4178 0
M  V30 5010 H 478.49 2.25969 2.31775 0
M  V30 5011 H 477.397 3.70641 0.507514 0
M  V30 5012 H 478.73 4.87379 0.687233 0
M  V30 5013 N 480.382 0.0267497 1.57577 0
M  V30 5014 C 481.793 -0.512413 1.79531 0
M  V30 5015 C 482.144 -1.72391 0.936791 0
M  V30 5016 O 481.269 -2.15903 0.146543 0
M  V30 5017 C 481.864 -0.936378 3.25603 0
M  V30 5018 C 480.423 -1.42067 3.4856 0
M  V30 5019 C 479.57 -0.384278 2.74624 0
M  V30 5020 H 482.521 0.252797 1.56674 0
M  V30 5021 H 482.542 -1.80088 3.35184 0
M  V30 5022 H 482.054 -0.0544332 3.88062 0
M  V30 5023 H 480.155 -2.32262 2.9135 0
M  V30 5024 H 480.268 -1.42968 4.57271 0
M  V30 5025 H 478.632 -0.851855 2.40032 0
M  V30 5026 H 479.415 0.489159 3.39797 0
M  V30 5027 N 481.861 -1.55662 -0.24637 0
M  V30 5028 C 482.771 -1.93495 -1.32653 0
M  V30 5029 C 483.787 -0.835462 -1.5263 0
M  V30 5030 O 484.963 -1.1369 -1.66242 0
M  V30 5031 C 482.028 -2.22242 -2.66101 0
M  V30 5032 C 481.089 -3.45625 -2.54641 0
M  V30 5033 C 480.322 -3.72991 -3.81724 0
M  V30 5034 O 480.545 -3.02421 -4.8363 0
M  V30 5035 O 479.479 -4.66515 -3.80325 0
M  V30 5036 H 483.305 -2.85498 -1.03559 0
M  V30 5037 H 480.89 -1.42551 -0.44717 0
M  V30 5038 H 482.772 -2.42037 -3.44958 0
M  V30 5039 H 481.447 -1.33417 -2.94926 0
M  V30 5040 H 480.354 -3.31136 -1.74067 0
M  V30 5041 H 481.687 -4.34754 -2.3076 0
M  V30 5042 N 483.339 0.512053 -1.4905 0
M  V30 5043 C 484.271 1.63121 -1.6101 0
M  V30 5044 C 485.284 1.55145 -0.493352 0
M  V30 5045 O 486.473 1.61278 -0.764955 0
M  V30 5046 C 483.573 3.01863 -1.54052 0
M  V30 5047 C 482.746 3.35138 -2.81072 0
M  V30 5048 C 481.805 4.5324 -2.67319 0
M  V30 5049 O 480.831 4.55571 -3.41238 0
M  V30 5050 N 482.033 5.52495 -1.78127 0
M  V30 5051 H 484.798 1.53292 -2.5753 0
M  V30 5052 H 482.359 0.699706 -1.45999 0
M  V30 5053 H 484.351 3.78774 -1.42521 0
M  V30 5054 H 482.921 3.05675 -0.654345 0
M  V30 5055 H 482.141 2.4723 -3.07036 0
M  V30 5056 H 483.429 3.54162 -3.65304 0
M  V30 5057 H 482.827 5.53403 -1.17308 0
M  V30 5058 H 481.384 6.28553 -1.72525 0
M  V30 5059 N 484.817 1.37938 0.762283 0
M  V30 5060 C 486.057 1.35076 1.53407 0
M  V30 5061 C 486.421 -0.061546 1.91901 0
M  V30 5062 O 487.622 -0.214973 2.67939 0
M  V30 5063 C 485.893 2.27206 2.75884 0
M  V30 5064 S 487.452 2.42283 3.65848 0
M  V30 5065 H 484.27 0.479387 0.52508 0
M  V30 5066 H 486.872 1.7378 0.895586 0
M  V30 5067 H 485.576 3.28724 2.457 0
M  V30 5068 H 485.107 1.8962 3.44685 0
M  V30 5069 H 487.122 1.64044 4.68299 0
M  V30 5070 N 486.295 -0.989507 1.22664 0
M  V30 5071 C 487.227 -2.0824 0.957542 0
M  V30 5072 C 488.24 -1.6267 -0.0651098 0
M  V30 5073 O 489.429 -1.77695 0.169312 0
M  V30 5074 C 486.529 -3.36298 0.419145 0
M  V30 5075 C 485.702 -4.10882 1.49982 0
M  V30 5076 C 484.761 -5.17221 0.967904 0
M  V30 5077 O 483.787 -5.44613 1.65487 0
M  V30 5078 N 484.989 -5.80124 -0.20896 0
M  V30 5079 H 487.754 -2.31904 1.89843 0
M  V30 5080 H 485.315 -1.15552 1.13399 0
M  V30 5081 H 487.307 -4.04671 0.0485451 0
M  V30 5082 H 485.877 -3.09671 -0.426937 0
M  V30 5083 H 485.097 -3.37092 2.04359 0
M  V30 5084 H 486.385 -4.57482 2.22682 0
M  V30 5085 H 485.783 -5.60244 -0.783818 0
M  V30 5086 H 484.34 -6.49715 -0.520913 0
M  V30 5087 N 487.773 -1.03688 -1.18687 0
M  V30 5088 C 489.02 -0.73803 -1.88572 0
M  V30 5089 C 489.348 0.733973 -1.8012 0
M  V30 5090 O 488.603 1.55098 -1.19344 0
M  V30 5091 C 488.902 -1.14477 -3.3857 0
M  V30 5092 C 488.568 -2.61641 -3.67226 0
M  V30 5093 C 487.23 -3.01846 -3.74757 0
M  V30 5094 C 489.582 -3.56812 -3.79914 0
M  V30 5095 C 486.91 -4.36118 -3.92451 0
M  V30 5096 C 489.262 -4.90799 -3.99123 0
M  V30 5097 C 487.926 -5.3068 -4.04888 0
M  V30 5098 H 487.196 -0.270064 -0.690034 0
M  V30 5099 H 489.843 -1.3012 -1.40503 0
M  V30 5100 H 488.148 -0.500337 -3.88592 0
M  V30 5101 H 489.845 -0.89095 -3.90977 0
M  V30 5102 H 486.435 -2.29498 -3.61979 0
M  V30 5103 H 490.619 -3.26899 -3.73431 0
M  V30 5104 H 485.875 -4.66542 -3.95157 0
M  V30 5105 H 490.049 -5.64451 -4.07882 0
M  V30 5106 H 487.676 -6.34733 -4.18351 0
M  V30 5107 N 489.251 1.34841 -0.815825 0
M  V30 5108 C 490.476 2.03261 -0.41226 0
M  V30 5109 C 490.901 1.61055 0.971751 0
M  V30 5110 O 490.259 0.7917 1.63101 0
M  V30 5111 C 490.307 3.56914 -0.514289 0
M  V30 5112 O 489.411 4.09728 0.468675 0
M  V30 5113 H 488.752 0.641664 -0.170771 0
M  V30 5114 H 491.282 1.72241 -1.10427 0
M  V30 5115 H 491.292 4.06156 -0.387457 0
M  V30 5116 H 489.967 3.86982 -1.52375 0
M  V30 5117 H 488.544 3.71681 0.301316 0
M  V30 5118 O 490.768 0.711044 1.45005 0
M  V30 5119 H 491.459 0.254759 1.92017 0
M  V30 END ATOM
M  V30 BEGIN BOND
M  V30 END BOND
M  V30 END CTAB
M  END
$$$$
