drugbank_target|Q969G6 Riboflavin kinase (DB00140; DB03247)
 OpenBabel12092119303D

  0  0  0     0  0            999 V3000
M  V30 BEGIN CTAB
M  V30 COUNTS 2473 2504 0 0 0
M  V30 BEGIN ATOM
M  V30 1 H -0.908 1.98254 -0.117106 0
M  V30 2 N 0 1.576 0 0
M  V30 3 C 0.933 2.03868 1.02534 0
M  V30 4 C 1.911 0.928543 1.3348 0
M  V30 5 O 3.095 1.19667 1.45644 0
M  V30 6 C 0.222 2.43627 2.35294 0
M  V30 7 C -0.732 3.65373 2.2001 0
M  V30 8 S 0.101 5.13292 1.52614 0
M  V30 9 C 1.257 5.56322 2.86805 0
M  V30 10 H 1.49 2.90518 0.631377 0
M  V30 11 H -0.977 1.52953 0.210867 0
M  V30 12 H 0.981 2.67203 3.11629 0
M  V30 13 H -0.358 1.57376 2.7183 0
M  V30 14 H -1.165 3.90944 3.18086 0
M  V30 15 H -1.563 3.418 1.51819 0
M  V30 16 H 0.729 5.58782 3.83104 0
M  V30 17 H 1.672 6.56266 2.65933 0
M  V30 18 H 2.08 4.83886 2.90714 0
M  V30 19 N 1.4781 -0.272755 1.55222 0
M  V30 20 C 2.8941 -0.619959 1.47067 0
M  V30 21 C 3.0941 -1.895 0.684978 0
M  V30 22 O 2.1501 -2.51675 0.203931 0
M  V30 23 C 3.4631 -0.746693 2.91282 0
M  V30 24 C 5.0111 -0.840731 3.01497 0
M  V30 25 C 5.4861 -0.99924 4.46967 0
M  V30 26 N 6.9771 -1.06476 4.50796 0
M  V30 27 C 7.7121 -1.20621 5.6057 0
M  V30 28 N 7.2081 -1.31483 6.80209 0
M  V30 29 N 9.0011 -1.23733 5.48312 0
M  V30 30 H 1.1521 0.564606 2.04758 0
M  V30 31 H 3.4151 0.191177 0.928523 0
M  V30 32 H 3.1211 0.119753 3.51496 0
M  V30 33 H 2.9951 -1.6269 3.40311 0
M  V30 34 H 5.3821 -1.69764 2.41379 0
M  V30 35 H 5.4631 0.0640874 2.5572 0
M  V30 36 H 5.1071 -0.146984 5.07687 0
M  V30 37 H 5.0371 -1.91871 4.90401 0
M  V30 38 H 7.5281 -0.993196 3.64615 0
M  V30 39 H 7.8411 -1.42111 7.59621 0
M  V30 40 H 6.1861 -1.28487 6.8302 0
M  V30 41 H 9.3771 -1.14877 4.53785 0
M  V30 42 H 9.5501 -1.34412 6.33906 0
M  V30 43 N 2.9562 -1.48159 -0.537278 0
M  V30 44 C 3.9062 -1.5854 -1.63857 0
M  V30 45 C 4.8902 -0.442969 -1.54682 0
M  V30 46 O 6.0822 -0.69401 -1.62827 0
M  V30 47 C 3.2112 -1.62144 -3.02596 0
M  V30 48 C 2.2972 -2.81841 -3.16901 0
M  V30 49 N 2.6882 -4.06337 -3.01204 0
M  V30 50 C 0.9862 -2.79021 -3.47942 0
M  V30 51 C 1.6872 -4.86606 -3.18731 0
M  V30 52 N 0.6632 -4.19288 -3.45974 0
M  V30 53 H 4.4652 -2.5255 -1.50319 0
M  V30 54 H 1.9792 -1.4443 -0.742555 0
M  V30 55 H 3.9762 -1.67674 -3.81695 0
M  V30 56 H 2.6362 -0.69245 -3.17231 0
M  V30 57 H 3.6472 -4.36888 -2.78117 0
M  V30 58 H 0.3242 -1.95347 -3.6898 0
M  V30 59 H 1.7142 -5.95385 -3.11394 0
M  V30 60 N 4.4343 0.785586 -1.36625 0
M  V30 61 C 5.3643 1.91259 -1.33949 0
M  V30 62 C 6.3453 1.68795 -0.210325 0
M  V30 63 O 7.5303 1.89854 -0.408561 0
M  V30 64 C 4.6603 3.28339 -1.13186 0
M  V30 65 C 3.6143 3.65335 -2.22967 0
M  V30 66 C 2.9403 5.00806 -1.87342 0
M  V30 67 C 4.2403 3.7352 -3.65075 0
M  V30 68 H 5.9343 1.93755 -2.28253 0
M  V30 69 H 3.4803 0.930788 -1.09874 0
M  V30 70 H 5.4333 4.06804 -1.09948 0
M  V30 71 H 4.1573 3.2624 -0.153332 0
M  V30 72 H 2.8163 2.89169 -2.25337 0
M  V30 73 H 2.4643 4.95233 -0.880545 0
M  V30 74 H 2.1643 5.26529 -2.60846 0
M  V30 75 H 3.6883 5.81687 -1.85667 0
M  V30 76 H 5.1023 4.42168 -3.64911 0
M  V30 77 H 3.4993 4.10731 -4.37516 0
M  V30 78 H 4.5693 2.74527 -3.99703 0
M  V30 79 N 5.9124 1.20967 1.01018 0
M  V30 80 C 7.3234 1.02319 1.56165 0
M  V30 81 C 7.6744 -0.418546 1.91684 0
M  V30 82 O 6.7994 -1.30096 1.72928 0
M  V30 83 C 7.3944 1.85109 2.8376 0
M  V30 84 C 5.9534 1.70809 3.35412 0
M  V30 85 C 5.1004 1.82643 2.08655 0
M  V30 86 H 8.0514 1.35065 0.833255 0
M  V30 87 H 8.0724 1.35827 3.55431 0
M  V30 88 H 7.5844 2.90035 2.57878 0
M  V30 89 H 5.6854 0.685464 3.66241 0
M  V30 90 H 5.7984 2.52467 4.07182 0
M  V30 91 H 4.1624 1.25896 2.21409 0
M  V30 92 H 4.9454 2.89066 1.85191 0
M  V30 93 N 7.3905 -1.2043 1.01659 0
M  V30 94 C 8.6205 -1.93496 0.724081 0
M  V30 95 C 9.0285 -1.74998 -0.71918 0
M  V30 96 O 8.3715 -1.06118 -1.49949 0
M  V30 97 C 8.4335 -3.45886 0.97994 0
M  V30 98 C 8.0975 -3.88145 2.41232 0
M  V30 99 C 9.0945 -3.93907 3.39313 0
M  V30 100 C 6.7795 -4.20134 2.75305 0
M  V30 101 C 8.7735 -4.31069 4.6953 0
M  V30 102 C 6.4605 -4.56971 4.05735 0
M  V30 103 C 7.4585 -4.62411 5.02658 0
M  V30 104 O 7.1465 -4.98403 6.30754 0
M  V30 105 H 6.8785 -0.621824 0.265162 0
M  V30 106 H 9.4325 -1.53867 1.36066 0
M  V30 107 H 7.6625 -3.85639 0.286198 0
M  V30 108 H 9.3515 -4.0018 0.679021 0
M  V30 109 H 10.1175 -3.69357 3.14325 0
M  V30 110 H 5.9965 -4.1509 2.00551 0
M  V30 111 H 9.5405 -4.3523 5.45179 0
M  V30 112 H 5.4375 -4.80977 4.30502 0
M  V30 113 H 6.2055 -5.16395 6.35042 0
M  V30 114 N 8.8686 -0.792821 -1.36206 0
M  V30 115 C 10.1156 -0.366786 -1.99151 0
M  V30 116 C 10.4436 1.06243 -1.62919 0
M  V30 117 O 9.6986 1.74927 -0.877442 0
M  V30 118 C 9.9976 -0.481501 -3.54142 0
M  V30 119 C 9.6636 -1.87202 -4.10203 0
M  V30 120 C 8.3256 -2.25248 -4.25226 0
M  V30 121 C 10.6776 -2.78237 -4.40719 0
M  V30 122 C 8.0056 -3.53723 -4.68078 0
M  V30 123 C 10.3576 -4.06144 -4.85005 0
M  V30 124 C 9.0216 -4.44207 -4.98234 0
M  V30 125 H 8.2916 -0.134217 -0.728743 0
M  V30 126 H 10.9386 -1.01094 -1.62641 0
M  V30 127 H 9.2436 0.246146 -3.91026 0
M  V30 128 H 10.9406 -0.132844 -4.0078 0
M  V30 129 H 7.5306 -1.56639 -3.98951 0
M  V30 130 H 11.7146 -2.50097 -4.28679 0
M  V30 131 H 6.9706 -3.8308 -4.76508 0
M  V30 132 H 11.1446 -4.76796 -5.07581 0
M  V30 133 H 8.7716 -5.43814 -5.31197 0
M  V30 134 N 10.3467 1.47872 -0.545128 0
M  V30 135 C 11.5867 2.04391 -0.0187854 0
M  V30 136 C 11.9507 1.41162 1.30144 0
M  V30 137 O 13.1517 1.88656 1.91474 0
M  V30 138 C 11.4227 3.57299 0.0850867 0
M  V30 139 S 12.9817 4.35221 0.559302 0
M  V30 140 H 9.7997 0.710737 -0.0193301 0
M  V30 141 H 12.4017 1.81395 -0.729125 0
M  V30 142 H 11.1057 4.00847 -0.880351 0
M  V30 143 H 10.6367 3.84773 0.819348 0
M  V30 144 H 12.6517 4.61571 1.82118 0
M  V30 145 N 11.8248 0.280983 1.55075 0
M  V30 146 C 13.2408 -0.0729964 1.59433 0
M  V30 147 C 13.4408 -1.5411 1.29817 0
M  V30 148 O 12.4968 -2.29086 1.06187 0
M  V30 149 C 13.8098 0.306921 2.9913 0
M  V30 150 C 15.3578 0.254023 3.11968 0
M  V30 151 C 15.8328 0.608467 4.5394 0
M  V30 152 N 17.3238 0.560241 4.59799 0
M  V30 153 C 18.0588 0.80722 5.6769 0
M  V30 154 N 17.5548 1.11912 6.83701 0
M  V30 155 N 19.3478 0.735623 5.57266 0
M  V30 156 H 11.4988 1.238 1.7259 0
M  V30 157 H 13.7618 0.500547 0.805082 0
M  V30 158 H 13.4678 1.32816 3.25657 0
M  V30 159 H 13.3418 -0.349363 3.75579 0
M  V30 160 H 15.7288 -0.75794 2.852 0
M  V30 161 H 15.8098 0.944649 2.37718 0
M  V30 162 H 15.4538 1.61814 4.81434 0
M  V30 163 H 15.3838 -0.104013 5.26497 0
M  V30 164 H 17.8748 0.329288 3.76463 0
M  V30 165 H 18.1878 1.29409 7.61888 0
M  V30 166 H 16.5328 1.15695 6.85303 0
M  V30 167 H 19.7238 0.491752 4.6551 0
M  V30 168 H 19.8968 0.931482 6.4127 0
M  V30 169 N 13.3029 -1.57598 0.00835791 0
M  V30 170 C 14.5509 -1.90551 -0.6734 0
M  V30 171 C 14.8719 -0.883301 -1.73847 0
M  V30 172 O 14.1419 0.0781442 -1.95744 0
M  V30 173 H 12.7219 -0.703312 -0.251717 0
M  V30 174 H 15.3839 -1.94833 0.0512592 0
M  V30 175 H 14.4799 -2.9056 -1.13935 0
M  V30 176 N 14.781 0.264519 -1.55364 0
M  V30 177 C 15.713 1.34965 -1.85248 0
M  V30 178 C 16.726 1.45136 -0.737525 0
M  V30 179 O 17.915 1.46801 -1.01547 0
M  V30 180 C 15.015 2.73008 -2.00797 0
M  V30 181 C 14.188 2.85324 -3.31525 0
M  V30 182 C 13.247 4.04097 -3.37034 0
M  V30 183 O 12.273 3.94455 -4.10358 0
M  V30 184 N 13.475 5.16458 -2.65049 0
M  V30 185 H 16.24 1.09672 -2.78913 0
M  V30 186 H 13.801 0.454635 -1.55386 0
M  V30 187 H 15.793 3.50772 -2.01844 0
M  V30 188 H 14.363 2.91087 -1.1396 0
M  V30 189 H 13.583 1.94377 -3.42945 0
M  V30 190 H 14.871 2.9049 -4.17724 0
M  V30 191 H 14.269 5.27181 -2.05175 0
M  V30 192 H 12.826 5.92422 -2.71809 0
M  V30 193 N 16.2591 1.48442 0.529413 0
M  V30 194 C 17.5051 1.5672 1.28711 0
M  V30 195 C 17.8381 0.2406 1.92704 0
M  V30 196 O 17.1131 -0.753454 1.79313 0
M  V30 197 C 17.3961 2.70587 2.37603 0
M  V30 198 C 17.2491 4.12953 1.78297 0
M  V30 199 C 18.5681 2.80212 3.39366 0
M  V30 200 H 15.6871 0.570474 0.466613 0
M  V30 201 H 18.3291 1.80617 0.589706 0
M  V30 202 H 16.4791 2.50342 2.97088 0
M  V30 203 H 18.1511 4.44639 1.22858 0
M  V30 204 H 16.3941 4.19927 1.0883 0
M  V30 205 H 17.0651 4.88448 2.57144 0
M  V30 206 H 19.5411 2.98553 2.89836 0
M  V30 207 H 18.4171 3.61611 4.12951 0
M  V30 208 H 18.6781 1.88393 3.99951 0
M  V30 209 N 17.7372 -0.778329 1.37039 0
M  V30 210 C 18.9832 -1.53892 1.32079 0
M  V30 211 C 19.3162 -1.9396 -0.0965386 0
M  V30 212 O 18.5912 -1.63568 -1.05242 0
M  V30 213 C 18.8742 -2.80847 2.25382 0
M  V30 214 C 18.7272 -2.47076 3.75864 0
M  V30 215 C 20.0462 -3.82741 2.1725 0
M  V30 216 H 17.1652 -0.558303 0.48111 0
M  V30 217 H 19.8072 -0.893397 1.67685 0
M  V30 218 H 17.9572 -3.35931 1.95148 0
M  V30 219 H 19.6292 -1.97957 4.16666 0
M  V30 220 H 17.8722 -1.79863 3.94755 0
M  V30 221 H 18.5432 -3.37798 4.36574 0
M  V30 222 H 21.0192 -3.37133 2.43887 0
M  V30 223 H 19.8952 -4.69303 2.84686 0
M  V30 224 H 20.1562 -4.2652 1.16331 0
M  V30 225 N 19.2153 -1.21501 -1.00376 0
M  V30 226 C 20.6313 -0.972629 -1.26539 0
M  V30 227 C 20.8313 0.340257 -1.98606 0
M  V30 228 O 19.8873 1.06561 -2.28913 0
M  V30 229 C 21.2003 -2.16404 -2.08781 0
M  V30 230 C 22.7483 -2.20643 -2.22004 0
M  V30 231 C 23.2233 -3.39306 -3.07629 0
M  V30 232 N 24.7143 -3.39401 -3.15217 0
M  V30 233 C 25.4493 -4.27867 -3.81729 0
M  V30 234 N 24.9453 -5.26533 -4.5026 0
M  V30 235 N 26.7383 -4.15672 -3.78382 0
M  V30 236 H 18.8893 -2.05929 -0.520281 0
M  V30 237 H 21.1523 -0.901803 -0.292328 0
M  V30 238 H 20.8583 -3.11554 -1.63178 0
M  V30 239 H 20.7323 -2.15567 -3.09533 0
M  V30 240 H 23.1193 -1.26048 -2.66825 0
M  V30 241 H 23.2003 -2.25523 -1.20718 0
M  V30 242 H 22.8443 -4.34195 -2.63509 0
M  V30 243 H 22.7743 -3.31665 -4.09031 0
M  V30 244 H 25.2653 -2.67997 -2.66432 0
M  V30 245 H 25.5783 -5.90337 -4.98721 0
M  V30 246 H 23.9233 -5.30457 -4.49044 0
M  V30 247 H 27.1143 -3.3785 -3.23998 0
M  V30 248 H 27.2873 -4.84825 -4.2994 0
M  V30 249 N 20.6934 1.19889 -1.02296 0
M  V30 250 C 21.9414 1.89046 -0.714558 0
M  V30 251 C 22.2624 1.79636 0.758681 0
M  V30 252 O 21.5324 1.20292 1.54618 0
M  V30 253 H 20.1124 0.699802 -0.261317 0
M  V30 254 H 22.7744 1.45574 -1.29592 0
M  V30 255 H 21.8704 2.95524 -1.0036 0
M  V30 256 N 22.1715 0.800033 1.35784 0
M  V30 257 C 23.4185 0.377342 1.98953 0
M  V30 258 C 23.7465 -1.05378 1.6348 0
M  V30 259 O 23.0015 -1.74459 0.886707 0
M  V30 260 C 23.3005 0.500276 3.53881 0
M  V30 261 C 22.9665 1.89375 4.09204 0
M  V30 262 C 21.6285 2.27499 4.24025 0
M  V30 263 C 23.9805 2.8057 4.39238 0
M  V30 264 C 21.3085 3.562 4.66195 0
M  V30 265 C 23.6605 4.0871 4.82844 0
M  V30 266 C 22.3245 4.46843 4.95871 0
M  V30 267 H 21.5945 0.138079 0.728021 0
M  V30 268 H 24.2415 1.01955 1.62103 0
M  V30 269 H 22.5465 -0.225405 3.91151 0
M  V30 270 H 24.2435 0.154097 4.00704 0
M  V30 271 H 20.8335 1.58753 3.98115 0
M  V30 272 H 25.0175 2.52367 4.27346 0
M  V30 273 H 20.2735 3.85602 4.74469 0
M  V30 274 H 24.4475 4.79481 5.05046 0
M  V30 275 H 22.0745 5.46623 5.28306 0
M  V30 276 N 23.6496 -1.47581 0.552962 0
M  V30 277 C 24.8976 -2.02082 0.0272703 0
M  V30 278 C 25.2186 -1.4301 -1.32563 0
M  V30 279 O 24.4886 -0.603745 -1.86365 0
M  V30 280 H 23.0686 -0.746966 0.00709182 0
M  V30 281 H 25.7306 -1.81033 0.722008 0
M  V30 282 H 24.8266 -3.12034 -0.0639951 0
M  V30 283 N 25.1277 -0.289203 -1.54924 0
M  V30 284 C 26.5437 0.0645403 -1.59469 0
M  V30 285 C 26.7437 1.53419 -1.30632 0
M  V30 286 O 25.7997 2.2852 -1.074 0
M  V30 287 C 27.1127 -0.32278 -2.98963 0
M  V30 288 C 28.6607 -0.270564 -3.11828 0
M  V30 289 C 29.1357 -0.632532 -4.53611 0
M  V30 290 N 30.6267 -0.584617 -4.59496 0
M  V30 291 C 31.3617 -0.837314 -5.67254 0
M  V30 292 N 30.8577 -1.15536 -6.83098 0
M  V30 293 N 32.6507 -0.765166 -5.56868 0
M  V30 294 H 24.8017 -1.24714 -1.71931 0
M  V30 295 H 27.0647 -0.504809 -0.802416 0
M  V30 296 H 26.7707 -1.34541 -3.24948 0
M  V30 297 H 26.6447 0.32944 -3.75759 0
M  V30 298 H 29.0317 0.742805 -2.85598 0
M  V30 299 H 29.1127 -0.957242 -2.37214 0
M  V30 300 H 28.7567 -1.64365 -4.80569 0
M  V30 301 H 28.6867 0.07609 -5.26545 0
M  V30 302 H 31.1777 -0.349248 -3.76283 0
M  V30 303 H 31.4907 -1.33447 -7.61191 0
M  V30 304 H 29.8357 -1.19328 -6.84679 0
M  V30 305 H 33.0267 -0.516432 -4.65243 0
M  V30 306 H 33.1997 -0.965477 -6.40767 0
M  V30 307 N 26.6058 1.57591 -0.0167156 0
M  V30 308 C 27.8538 1.90906 0.663285 0
M  V30 309 C 28.1748 0.892509 1.73376 0
M  V30 310 O 27.4448 -0.0677623 1.95783 0
M  V30 311 H 26.0248 0.704637 0.247983 0
M  V30 312 H 28.6868 1.94803 -0.0615909 0
M  V30 313 H 27.7828 2.9116 1.12393 0
M  V30 314 N 28.0839 -0.256276 1.55502 0
M  V30 315 C 29.3089 -1.00766 1.81276 0
M  V30 316 C 29.7339 -1.78524 0.59252 0
M  V30 317 O 29.0919 -1.75413 -0.45827 0
M  V30 318 C 29.1399 -1.92869 3.04687 0
M  V30 319 O 28.2439 -3.019 2.80945 0
M  V30 320 H 27.5849 -0.287224 0.598664 0
M  V30 321 H 30.1149 -0.280109 2.02674 0
M  V30 322 H 30.1249 -2.34511 3.33869 0
M  V30 323 H 28.7999 -1.35689 3.93143 0
M  V30 324 H 27.3769 -2.64454 2.62904 0
M  V30 325 N 29.562 -1.4872 -0.521534 0
M  V30 326 C 30.509 -1.63871 -1.62527 0
M  V30 327 C 31.479 -0.480559 -1.58996 0
M  V30 328 O 32.664 -0.705085 -1.77294 0
M  V30 329 C 29.804 -1.69227 -3.00759 0
M  V30 330 C 28.917 -2.96207 -3.14461 0
M  V30 331 C 28.052 -2.92671 -4.43303 0
M  V30 332 C 27.091 -4.14318 -4.50563 0
M  V30 333 N 26.228 -4.0881 -5.70805 0
M  V30 334 H 31.068 -2.58123 -1.48918 0
M  V30 335 H 28.605 -1.28 -0.724878 0
M  V30 336 H 30.563 -1.70314 -3.80853 0
M  V30 337 H 29.193 -0.784586 -3.1312 0
M  V30 338 H 28.245 -3.04826 -2.27564 0
M  V30 339 H 29.557 -3.86192 -3.15686 0
M  V30 340 H 28.711 -2.92206 -5.31696 0
M  V30 341 H 27.45 -2.00429 -4.44612 0
M  V30 342 H 26.455 -4.15049 -3.60575 0
M  V30 343 H 27.68 -5.07729 -4.50986 0
M  V30 344 H 25.626 -3.19394 -5.72995 0
M  V30 345 H 25.543 -4.92509 -5.7356 0
M  V30 346 H 26.811 -4.12418 -6.61462 0
M  V30 347 N 31.0401 0.771051 -1.3745 0
M  V30 348 C 31.9721 1.89352 -1.29146 0
M  V30 349 C 32.9851 1.61477 -0.207124 0
M  V30 350 O 34.1741 1.72382 -0.463324 0
M  V30 351 C 31.2741 3.24596 -0.974195 0
M  V30 352 C 30.4471 3.80111 -2.16413 0
M  V30 353 C 29.5061 4.93832 -1.81703 0
M  V30 354 O 28.5321 5.09382 -2.54006 0
M  V30 355 N 29.7341 5.75483 -0.761573 0
M  V30 356 H 32.4991 1.96991 -2.25864 0
M  V30 357 H 30.0601 0.950191 -1.31084 0
M  V30 358 H 32.0521 3.98193 -0.722828 0
M  V30 359 H 30.6221 3.12454 -0.0955527 0
M  V30 360 H 29.8421 2.98284 -2.57721 0
M  V30 361 H 31.1301 4.13932 -2.95867 0
M  V30 362 H 30.5281 5.65469 -0.161609 0
M  V30 363 H 29.0851 6.49302 -0.570064 0
M  V30 364 N 32.5182 1.22032 0.997298 0
M  V30 365 C 33.4482 1.01065 2.10495 0
M  V30 366 C 34.4292 -0.0669542 1.69968 0
M  V30 367 O 35.6142 0.0943987 1.9397 0
M  V30 368 C 32.7442 0.582874 3.42374 0
M  V30 369 C 31.6982 1.60592 3.96729 0
M  V30 370 C 31.0242 1.03412 5.24605 0
M  V30 371 C 32.3242 2.99478 4.27914 0
M  V30 372 H 34.0182 1.93708 2.28292 0
M  V30 373 H 31.5642 0.932761 1.09707 0
M  V30 374 H 33.5172 0.423332 4.19268 0
M  V30 375 H 32.2412 -0.379213 3.24391 0
M  V30 376 H 30.9002 1.75316 3.21963 0
M  V30 377 H 30.5482 0.063518 5.0296 0
M  V30 378 H 30.2482 1.71754 5.61938 0
M  V30 379 H 31.7722 0.886066 6.04137 0
M  V30 380 H 33.1862 2.88153 4.95622 0
M  V30 381 H 31.5832 3.64903 4.76409 0
M  V30 382 H 32.6532 3.49742 3.3587 0
M  V30 383 N 33.9963 -1.19345 1.0293 0
M  V30 384 C 35.2443 -1.88665 0.724574 0
M  V30 385 C 35.5653 -1.80036 -0.749144 0
M  V30 386 O 34.8353 -1.2111 -1.53978 0
M  V30 387 H 33.4153 -0.698406 0.265025 0
M  V30 388 H 36.0773 -1.44885 1.30362 0
M  V30 389 H 35.1733 -2.94987 1.01926 0
M  V30 390 N 35.4744 -0.807222 -1.35358 0
M  V30 391 C 36.7234 -0.384376 -1.98004 0
M  V30 392 C 37.0364 1.0543 -1.64754 0
M  V30 393 O 38.2424 1.58029 -2.20769 0
M  V30 394 C 36.6984 -0.636326 -3.5423 0
M  V30 395 C 36.3064 -2.08759 -3.96388 0
M  V30 396 C 38.0504 -0.278869 -4.23583 0
M  V30 397 C 35.9574 -2.28525 -5.45463 0
M  V30 398 H 34.8874 -0.139986 -0.740891 0
M  V30 399 H 37.5384 -0.991369 -1.54415 0
M  V30 400 H 35.9204 0.0406256 -3.95979 0
M  V30 401 H 37.0944 -2.8024 -3.6579 0
M  V30 402 H 35.4094 -2.40497 -3.39926 0
M  V30 403 H 38.0064 -0.404599 -5.33167 0
M  V30 404 H 38.3494 0.775012 -4.09022 0
M  V30 405 H 38.8824 -0.909764 -3.87257 0
M  V30 406 H 35.6214 -3.32361 -5.64992 0
M  V30 407 H 35.1414 -1.61569 -5.77629 0
M  V30 408 H 36.8204 -2.10109 -6.11934 0
M  V30 409 N 36.9525 1.47285 -0.560781 0
M  V30 410 C 38.3635 1.86258 -0.128343 0
M  V30 411 C 38.7145 1.46699 1.30284 0
M  V30 412 O 37.8395 0.871698 1.98067 0
M  V30 413 C 38.4345 3.38044 -0.22614 0
M  V30 414 C 36.9935 3.76096 0.151283 0
M  V30 415 C 36.1405 2.71335 -0.572084 0
M  V30 416 H 39.0915 1.38752 -0.770297 0
M  V30 417 H 39.1125 3.76441 0.554322 0
M  V30 418 H 38.6245 3.66806 -1.26788 0
M  V30 419 H 36.7255 3.52951 1.19399 0
M  V30 420 H 36.8385 4.78641 -0.209765 0
M  V30 421 H 35.2025 2.54696 -0.0147653 0
M  V30 422 H 35.9855 3.02938 -1.61504 0
M  V30 423 N 38.4306 0.297415 1.54768 0
M  V30 424 C 39.6586 -0.315623 2.04478 0
M  V30 425 C 40.0736 -1.47792 1.17486 0
M  V30 426 O 39.4306 -1.81404 0.19971 0
M  V30 427 C 39.4816 -0.7753 3.53088 0
M  V30 428 O 39.2026 0.340732 4.36773 0
M  V30 429 C 40.7036 -1.45386 4.18781 0
M  V30 430 H 37.9236 -0.0690887 0.667434 0
M  V30 431 H 40.4676 0.436003 1.99798 0
M  V30 432 H 38.6226 -1.47696 3.58141 0
M  V30 433 H 39.0366 -0.0165035 5.24497 0
M  V30 434 H 40.5106 -1.72669 5.24299 0
M  V30 435 H 40.9876 -2.39275 3.68299 0
M  V30 436 H 41.5936 -0.795475 4.17795 0
M  V30 437 N 39.9087 -1.5758 0.0250728 0
M  V30 438 C 40.8717 -2.08896 -0.943139 0
M  V30 439 C 41.8717 -1.00321 -1.25668 0
M  V30 440 O 43.0617 -1.26495 -1.19769 0
M  V30 441 C 40.1937 -2.55143 -2.26086 0
M  V30 442 H 41.3867 -2.95723 -0.498775 0
M  V30 443 H 38.9397 -1.54703 -0.222888 0
M  V30 444 H 39.6747 -1.71633 -2.75159 0
M  V30 445 H 39.4597 -3.34461 -2.04641 0
M  V30 446 H 40.9497 -2.95083 -2.95492 0
M  V30 447 N 41.3868 0.248026 -1.55636 0
M  V30 448 C 42.3348 1.32683 -1.91045 0
M  V30 449 C 43.3288 1.49883 -0.789401 0
M  V30 450 O 44.5348 1.51371 -0.974007 0
M  V30 451 H 40.9098 0.444272 -0.606734 0
M  V30 452 H 42.8808 1.00085 -2.81115 0
M  V30 453 C 41.6298 2.6755 -2.22064 0
M  V30 454 H 40.9528 2.55114 -3.07826 0
M  V30 455 H 42.3928 3.41912 -2.50743 0
M  V30 456 C 40.8518 3.20556 -1.0366 0
M  V30 457 O 41.3818 4.00695 -0.284016 0
M  V30 458 N 39.5878 2.78568 -0.82753 0
M  V30 459 H 39.1348 2.1351 -1.44123 0
M  V30 460 H 39.0928 3.14378 -0.0369803 0
M  V30 461 N 42.8649 1.48995 0.513639 0
M  V30 462 C 44.1119 1.57843 1.26854 0
M  V30 463 C 44.4399 0.259501 1.92761 0
M  V30 464 O 43.6949 -0.75159 1.80692 0
M  V30 465 C 43.9939 2.67756 2.36731 0
M  V30 466 C 43.6599 4.09669 1.88368 0
M  V30 467 C 42.3219 4.48291 1.74896 0
M  V30 468 C 44.6739 4.98537 1.52021 0
M  V30 469 C 42.0019 5.73568 1.23438 0
M  V30 470 C 44.3539 6.24319 1.0202 0
M  V30 471 C 43.0179 6.61783 0.871778 0
M  V30 472 H 42.2879 0.577587 0.464192 0
M  V30 473 H 44.9349 1.82778 0.571366 0
M  V30 474 H 43.2399 2.36743 3.12185 0
M  V30 475 H 44.9369 2.71813 2.9482 0
M  V30 476 H 41.5269 3.79176 1.99808 0
M  V30 477 H 45.7109 4.69363 1.61281 0
M  V30 478 H 40.9669 6.01304 1.10648 0
M  V30 479 H 45.1409 6.92566 0.729722 0
M  V30 480 H 42.7679 7.5874 0.470852 0
M  V30 481 N 44.343 -0.763751 1.37857 0
M  V30 482 C 45.754 -1.3405 1.29952 0
M  V30 483 C 46.105 -1.96138 -0.0492898 0
M  V30 484 O 45.23 -1.94372 -0.951239 0
M  V30 485 C 45.825 -2.43729 2.35333 0
M  V30 486 C 44.384 -2.97151 2.31037 0
M  V30 487 C 43.531 -1.70438 2.18738 0
M  V30 488 H 46.482 -0.563396 1.48363 0
M  V30 489 H 46.503 -3.23412 2.00462 0
M  V30 490 H 46.015 -1.9851 3.33489 0
M  V30 491 H 44.116 -3.46724 1.3643 0
M  V30 492 H 44.229 -3.52221 3.24772 0
M  V30 493 H 42.593 -1.93673 1.65418 0
M  V30 494 H 43.376 -1.27312 3.18821 0
M  V30 495 N 45.8211 -1.22559 -0.990812 0
M  V30 496 C 46.7311 -1.01394 -2.11557 0
M  V30 497 C 47.7471 0.0383962 -1.73958 0
M  V30 498 O 48.9231 -0.154787 -2.00804 0
M  V30 499 C 45.9881 -0.596569 -3.41529 0
M  V30 500 C 45.0491 -1.72276 -3.93217 0
M  V30 501 C 44.2821 -1.32521 -5.16985 0
M  V30 502 O 44.5051 -0.204909 -5.70032 0
M  V30 503 O 43.4391 -2.14247 -5.62478 0
M  V30 504 H 47.2651 -1.95633 -2.32296 0
M  V30 505 H 44.8501 -1.01172 -1.0993 0
M  V30 506 H 46.7321 -0.374263 -4.19735 0
M  V30 507 H 45.4071 0.316939 -3.22145 0
M  V30 508 H 44.3141 -1.99961 -3.16174 0
M  V30 509 H 45.6471 -2.61421 -4.17037 0
M  V30 510 N 47.2992 1.18797 -1.03562 0
M  V30 511 C 48.2312 2.21731 -0.580337 0
M  V30 512 C 49.2442 1.59051 0.347349 0
M  V30 513 O 50.4332 1.77929 0.142669 0
M  V30 514 C 47.5332 3.38459 0.172805 0
M  V30 515 C 46.7062 4.3072 -0.761496 0
M  V30 516 C 45.7652 5.26174 -0.0525547 0
M  V30 517 O 44.7912 5.65108 -0.681333 0
M  V30 518 N 45.9932 5.67624 1.21586 0
M  V30 519 H 48.7582 2.61417 -1.46565 0
M  V30 520 H 46.3192 1.33531 -0.915476 0
M  V30 521 H 48.3112 3.99335 0.656793 0
M  V30 522 H 46.8812 2.97507 0.959602 0
M  V30 523 H 46.1012 3.67525 -1.42544 0
M  V30 524 H 47.3892 4.89267 -1.39626 0
M  V30 525 H 46.7872 5.38038 1.74732 0
M  V30 526 H 45.3442 6.30721 1.64421 0
M  V30 527 N 48.7773 0.814389 1.34928 0
M  V30 528 C 50.0233 0.399013 1.98836 0
M  V30 529 C 50.3563 -1.03314 1.64438 0
M  V30 530 O 49.6313 -1.71811 0.911659 0
M  V30 531 C 49.9143 0.591629 3.55207 0
M  V30 532 C 49.7673 2.06928 3.99376 0
M  V30 533 C 51.0863 0.022199 4.40094 0
M  V30 534 H 48.2053 0.146451 0.722303 0
M  V30 535 H 50.8473 1.02537 1.59957 0
M  V30 536 H 48.9973 0.0584441 3.88456 0
M  V30 537 H 50.6693 2.66544 3.76499 0
M  V30 538 H 48.9123 2.56287 3.49999 0
M  V30 539 H 49.5833 2.1549 5.08201 0
M  V30 540 H 52.0593 0.477643 4.13349 0
M  V30 541 H 50.9353 0.186832 5.48582 0
M  V30 542 H 51.1963 -1.07215 4.28902 0
M  V30 543 N 50.2554 -1.46986 0.568584 0
M  V30 544 C 51.5014 -2.02741 0.0488709 0
M  V30 545 C 51.8344 -1.44077 -1.30214 0
M  V30 546 O 51.1094 -0.600552 -1.84996 0
M  V30 547 C 51.3924 -3.60086 -0.032047 0
M  V30 548 C 51.2454 -4.29162 1.34686 0
M  V30 549 C 52.5644 -4.33838 -0.739798 0
M  V30 550 H 49.6834 -0.736749 0.0192338 0
M  V30 551 H 52.3254 -1.75289 0.733065 0
M  V30 552 H 50.4754 -3.83606 -0.61473 0
M  V30 553 H 52.1474 -4.16948 1.97362 0
M  V30 554 H 50.3904 -3.89073 1.91846 0
M  V30 555 H 51.0614 -5.37826 1.24285 0
M  V30 556 H 53.5374 -4.15378 -0.244939 0
M  V30 557 H 52.4134 -5.43537 -0.765406 0
M  V30 558 H 52.6744 -4.03875 -1.79827 0
M  V30 559 N 51.7335 -0.305618 -1.54608 0
M  V30 560 C 53.0105 0.355652 -1.92339 0
M  V30 561 C 53.3905 1.71324 -1.23335 0
M  V30 562 O 52.7385 2.25473 -0.370702 0
M  V30 563 C 52.9485 0.46572 -3.45879 0
M  V30 564 C 54.2965 0.734426 -4.182 0
M  V30 565 O 55.3205 0.54935 -3.51938 0
M  V30 566 O 54.1795 1.09024 -5.35515 0
M  V30 567 H 51.2735 0.199666 -0.802535 0
M  V30 568 H 53.8195 -0.354017 -1.65966 0
M  V30 569 H 52.5915 -0.488461 -3.88239 0
M  V30 570 H 52.2145 1.22367 -3.78301 0
M  V30 571 N 53.2116 1.57565 -0.0334293 0
M  V30 572 C 54.1596 2.1164 0.96496 0
M  V30 573 C 55.1536 1.04398 1.33407 0
M  V30 574 O 56.3596 1.22828 1.3158 0
M  V30 575 H 52.7346 0.676222 0.32898 0
M  V30 576 H 54.7056 2.94455 0.483614 0
M  V30 577 C 53.4546 2.66207 2.23672 0
M  V30 578 H 52.7776 3.48378 1.96145 0
M  V30 579 H 54.2176 3.07685 2.9173 0
M  V30 580 C 52.6766 1.59151 2.96939 0
M  V30 581 O 53.2066 0.993858 3.89211 0
M  V30 582 N 51.4126 1.31093 2.59351 0
M  V30 583 H 50.9596 1.7988 1.84393 0
M  V30 584 H 50.9176 0.596889 3.08682 0
M  V30 585 N 54.6897 -0.239769 1.55765 0
M  V30 586 C 55.6197 -1.30052 1.9393 0
M  V30 587 C 56.6007 -1.49839 0.805132 0
M  V30 588 O 57.7857 -1.62328 1.06599 0
M  V30 589 C 54.9157 -2.65391 2.2402 0
M  V30 590 C 53.8697 -2.60289 3.39755 0
M  V30 591 C 53.1957 -3.99489 3.55405 0
M  V30 592 C 54.4957 -2.16654 4.75246 0
M  V30 593 H 56.1897 -0.983573 2.82783 0
M  V30 594 H 53.7357 -0.471701 1.36055 0
M  V30 595 H 55.6887 -3.3974 2.49308 0
M  V30 596 H 54.4127 -2.98736 1.32 0
M  V30 597 H 53.0717 -1.88398 3.14487 0
M  V30 598 H 52.7197 -4.30112 2.60793 0
M  V30 599 H 52.4197 -3.96962 4.33238 0
M  V30 600 H 53.9437 -4.75528 3.83022 0
M  V30 601 H 55.3577 -2.80737 4.99859 0
M  V30 602 H 53.7547 -2.25223 5.56232 0
M  V30 603 H 54.8247 -1.11835 4.71827 0
M  V30 604 N 56.1678 -1.49265 -0.50573 0
M  V30 605 C 57.5788 -1.51769 -1.08734 0
M  V30 606 C 57.9298 -0.301192 -1.93874 0
M  V30 607 O 57.0548 0.589456 -2.08217 0
M  V30 608 C 57.6498 -2.75017 -1.97867 0
M  V30 609 C 56.2088 -2.80314 -2.51199 0
M  V30 610 C 55.3558 -2.4562 -1.28709 0
M  V30 611 H 58.3068 -1.56031 -0.289855 0
M  V30 612 H 58.3278 -2.5491 -2.82491 0
M  V30 613 H 57.8398 -3.63539 -1.35873 0
M  V30 614 H 55.9408 -1.96061 -3.16845 0
M  V30 615 H 56.0538 -3.82366 -2.88675 0
M  V30 616 H 54.4178 -1.97297 -1.61078 0
M  V30 617 H 55.2008 -3.36411 -0.6843 0
M  V30 618 N 57.6459 0.756429 -1.3826 0
M  V30 619 C 58.6089 1.85176 -1.35065 0
M  V30 620 C 59.6089 1.58818 -0.251703 0
M  V30 621 O 60.7989 1.66615 -0.508433 0
M  V30 622 C 57.9309 3.22596 -1.10201 0
M  V30 623 H 59.1239 1.89417 -2.3251 0
M  V30 624 H 56.6769 0.95783 -1.23512 0
M  V30 625 H 57.4119 3.24025 -0.133504 0
M  V30 626 H 57.1969 3.43122 -1.89762 0
M  V30 627 H 58.6869 4.02673 -1.10654 0
M  V30 628 N 59.124 1.23083 0.984299 0
M  V30 629 C 60.401 0.9689 1.69917 0
M  V30 630 C 60.781 -0.513604 2.04757 0
M  V30 631 O 60.129 -1.48383 1.73767 0
M  V30 632 C 60.339 1.87518 2.94343 0
M  V30 633 C 61.687 2.13636 3.6694 0
M  V30 634 O 62.711 1.85036 3.04368 0
M  V30 635 O 61.57 2.62119 4.79537 0
M  V30 636 H 58.664 0.365095 0.742048 0
M  V30 637 H 61.21 1.34107 1.03987 0
M  V30 638 H 59.982 2.87756 2.65164 0
M  V30 639 H 59.605 1.50514 3.6801 0
M  V30 640 N 60.6021 -1.18246 1.0419 0
M  V30 641 C 61.8511 -1.87588 0.741194 0
M  V30 642 C 62.1641 -1.81303 -0.734066 0
M  V30 643 O 63.3701 -2.46019 -1.14834 0
M  V30 644 C 61.8261 -3.36538 1.27555 0
M  V30 645 C 61.4341 -3.51349 2.77953 0
M  V30 646 C 63.1781 -4.11273 1.05143 0
M  V30 647 C 61.0851 -4.94265 3.2474 0
M  V30 648 H 60.0151 -0.702622 0.273565 0
M  V30 649 H 62.6661 -1.33601 1.25789 0
M  V30 650 H 61.0481 -3.9 0.686703 0
M  V30 651 H 62.2221 -3.08153 3.42605 0
M  V30 652 H 60.5371 -2.90022 2.98791 0
M  V30 653 H 63.1341 -5.16689 1.37611 0
M  V30 654 H 63.4771 -4.16298 -0.0112774 0
M  V30 655 H 64.0101 -3.63987 1.60495 0
M  V30 656 H 60.7491 -4.94408 4.30396 0
M  V30 657 H 60.2691 -5.38172 2.64823 0
M  V30 658 H 61.9481 -5.62987 3.18834 0
M  V30 659 N 62.0802 -0.821533 -1.34494 0
M  V30 660 C 63.3052 -0.420873 -2.03085 0
M  V30 661 C 63.7302 0.964915 -1.61465 0
M  V30 662 O 63.0882 1.62763 -0.798607 0
M  V30 663 C 63.1362 -0.529414 -3.56693 0
M  V30 664 O 62.2402 0.451302 -4.09923 0
M  V30 665 H 61.5812 -0.173489 -0.640935 0
M  V30 666 H 64.1112 -1.11157 -1.71771 0
M  V30 667 H 64.1212 -0.404671 -4.05988 0
M  V30 668 H 62.7962 -1.54014 -3.86332 0
M  V30 669 H 61.3732 0.285558 -3.71805 0
M  V30 670 N 63.5583 1.46682 -0.576371 0
M  V30 671 C 64.7863 2.06798 -0.0649635 0
M  V30 672 C 65.2013 1.42612 1.23723 0
M  V30 673 O 64.5583 0.529203 1.74659 0
M  V30 674 C 64.6093 3.6132 0.114202 0
M  V30 675 O 64.3303 4.23104 -1.13644 0
M  V30 676 C 65.8313 4.38349 0.66069 0
M  V30 677 H 63.0513 0.668778 -0.0545616 0
M  V30 678 H 65.5953 1.88404 -0.795237 0
M  V30 679 H 63.7503 3.79162 0.794673 0
M  V30 680 H 64.1643 5.15894 -0.946253 0
M  V30 681 H 65.6383 5.47081 0.73526 0
M  V30 682 H 66.1153 4.05953 1.67627 0
M  V30 683 H 66.7213 4.25297 0.0152951 0
M  V30 684 N 65.0364 0.313813 1.54444 0
M  V30 685 C 66.2844 -0.291099 1.99993 0
M  V30 686 C 66.6054 -1.53418 1.20366 0
M  V30 687 O 65.8754 -1.93544 0.302927 0
M  V30 688 H 64.4554 -0.110552 0.738774 0
M  V30 689 H 67.1174 0.428106 1.9014 0
M  V30 690 H 66.2134 -0.554268 3.07139 0
M  V30 691 N 66.5145 -1.57545 0.0417849 0
M  V30 692 C 67.7635 -1.91494 -0.633492 0
M  V30 693 C 68.0765 -0.921084 -1.72556 0
M  V30 694 O 69.2825 -1.15228 -2.45835 0
M  V30 695 C 67.7385 -3.40072 -1.17808 0
M  V30 696 C 67.3465 -4.47843 -0.118633 0
M  V30 697 C 69.0905 -3.8307 -1.82915 0
M  V30 698 C 66.9975 -5.87529 -0.675578 0
M  V30 699 H 65.9275 -0.714653 -0.24039 0
M  V30 700 H 68.5785 -1.83175 0.109148 0
M  V30 701 H 66.9605 -3.43364 -1.97274 0
M  V30 702 H 68.1345 -4.56128 0.654494 0
M  V30 703 H 66.4495 -4.14128 0.434414 0
M  V30 704 H 69.0465 -4.84794 -2.25563 0
M  V30 705 H 69.3895 -3.1881 -2.67705 0
M  V30 706 H 69.9225 -3.82255 -1.10119 0
M  V30 707 H 66.6615 -6.55362 0.134475 0
M  V30 708 H 66.1815 -5.82824 -1.4169 0
M  V30 709 H 67.8605 -6.36491 -1.1614 0
M  V30 710 N 67.9926 0.231505 -1.5589 0
M  V30 711 C 69.2226 0.973092 -1.82248 0
M  V30 712 C 69.6306 1.78845 -0.617328 0
M  V30 713 O 68.9736 1.78752 0.423499 0
M  V30 714 C 69.0356 1.94732 -3.02192 0
M  V30 715 C 68.6996 1.31743 -4.37599 0
M  V30 716 C 69.6966 0.712238 -5.14998 0
M  V30 717 C 67.3816 1.33218 -4.84312 0
M  V30 718 C 69.3756 0.130195 -6.37267 0
M  V30 719 C 67.0626 0.746286 -6.06526 0
M  V30 720 C 68.0606 0.146337 -6.82843 0
M  V30 721 O 67.7486 -0.430465 -8.02747 0
M  V30 722 H 67.4806 0.29125 -0.61004 0
M  V30 723 H 70.0346 0.254915 -2.03812 0
M  V30 724 H 68.2646 2.70422 -2.76422 0
M  V30 725 H 69.9536 2.55362 -3.15508 0
M  V30 726 H 70.7196 0.69324 -4.8002 0
M  V30 727 H 66.5986 1.78854 -4.24891 0
M  V30 728 H 70.1426 -0.33871 -6.96777 0
M  V30 729 H 66.0396 0.762663 -6.40979 0
M  V30 730 H 66.8076 -0.323818 -8.17859 0
M  V30 731 N 69.4707 1.49531 0.497807 0
M  V30 732 C 70.7007 1.62657 1.27382 0
M  V30 733 C 71.1087 0.298488 1.86831 0
M  V30 734 O 70.4517 -0.72647 1.68725 0
M  V30 735 C 70.5137 2.6393 2.44093 0
M  V30 736 C 70.1777 4.08195 2.05489 0
M  V30 737 C 71.1747 4.949 1.59279 0
M  V30 738 C 68.8597 4.53948 2.15026 0
M  V30 739 C 70.8537 6.25397 1.23113 0
M  V30 740 C 68.5407 5.84458 1.78473 0
M  V30 741 C 69.5387 6.70006 1.32591 0
M  V30 742 O 69.2267 7.98083 0.965327 0
M  V30 743 H 68.9587 0.550429 0.392434 0
M  V30 744 H 71.5127 1.96325 0.603801 0
M  V30 745 H 69.7427 2.25449 3.14181 0
M  V30 746 H 71.4317 2.66552 3.06113 0
M  V30 747 H 72.1977 4.60779 1.51354 0
M  V30 748 H 68.0767 3.87525 2.4969 0
M  V30 749 H 71.6207 6.92125 0.872299 0
M  V30 750 H 67.5177 6.18107 1.86048 0
M  V30 751 H 68.2857 8.11122 1.09652 0
M  V30 752 N 70.9488 -0.749086 1.3866 0
M  V30 753 C 72.1968 -1.50535 1.34847 0
M  V30 754 C 72.5178 -1.94909 -0.0595016 0
M  V30 755 O 71.7878 -1.67973 -1.00806 0
M  V30 756 H 70.3678 -0.558395 0.49619 0
M  V30 757 H 73.0298 -0.890165 1.73384 0
M  V30 758 H 72.1258 -2.39413 2.00219 0
M  V30 759 N 72.4269 -1.23603 -0.977757 0
M  V30 760 C 73.6729 -1.08136 -1.72274 0
M  V30 761 C 74.0279 0.377453 -1.88661 0
M  V30 762 O 73.3209 1.27552 -1.42972 0
M  V30 763 C 73.5149 -1.7433 -3.11999 0
M  V30 764 C 73.3439 -3.26498 -3.0924 0
M  V30 765 C 72.1139 -3.9567 -3.14282 0
M  V30 766 C 74.3119 -4.2323 -2.92201 0
M  V30 767 N 72.2939 -5.34799 -3.01436 0
M  V30 768 C 73.6649 -5.49289 -2.87544 0
M  V30 769 C 75.7199 -4.13931 -2.76705 0
M  V30 770 C 74.4229 -6.67116 -2.68978 0
M  V30 771 C 76.4489 -5.31424 -2.59504 0
M  V30 772 C 75.8109 -6.5641 -2.55548 0
M  V30 773 H 71.9099 -0.450247 -0.639376 0
M  V30 774 H 74.4939 -1.5637 -1.16002 0
M  V30 775 H 72.6649 -1.28624 -3.66484 0
M  V30 776 H 74.3969 -1.51815 -3.75146 0
M  V30 777 H 71.1519 -3.46767 -3.22567 0
M  V30 778 H 71.5759 -6.07748 -2.98281 0
M  V30 779 H 76.2179 -3.1807 -2.78552 0
M  V30 780 H 73.9359 -7.63109 -2.65876 0
M  V30 781 H 77.5219 -5.26072 -2.48474 0
M  V30 782 H 76.4019 -7.45795 -2.42405 0
M  V30 783 N 73.905 1.17692 -1.04816 0
M  V30 784 C 74.868 2.19787 -0.650117 0
M  V30 785 C 75.868 1.58044 0.296427 0
M  V30 786 O 77.058 1.74012 0.0808097 0
M  V30 787 C 74.19 3.40869 0.0456987 0
M  V30 788 H 75.383 2.56516 -1.5537 0
M  V30 789 H 72.936 1.31708 -0.841594 0
M  V30 790 H 73.671 3.09681 0.962726 0
M  V30 791 H 73.456 3.86928 -0.634727 0
M  V30 792 H 74.946 4.16445 0.310432 0
M  V30 793 N 75.3831 0.828654 1.34056 0
M  V30 794 C 76.6081 0.431637 2.02859 0
M  V30 795 C 77.0331 -0.956339 1.61975 0
M  V30 796 O 76.3911 -1.62338 0.807228 0
M  V30 797 C 76.4391 0.548323 3.56407 0
M  V30 798 O 75.5431 -0.429556 4.10157 0
M  V30 799 H 74.8841 0.176886 0.640006 0
M  V30 800 H 77.4141 1.12066 1.71179 0
M  V30 801 H 77.4241 0.426196 4.05768 0
M  V30 802 H 76.0991 1.5606 3.8551 0
M  V30 803 H 74.6761 -0.265836 3.71951 0
M  V30 804 N 76.8612 -1.46375 0.584142 0
M  V30 805 C 78.1072 -2.02678 0.0703716 0
M  V30 806 C 78.4402 -1.4545 -1.28678 0
M  V30 807 O 77.7152 -0.62014 -1.84349 0
M  V30 808 C 77.9982 -3.60099 0.00614674 0
M  V30 809 C 77.8512 -4.27709 1.3923 0
M  V30 810 C 79.1702 -4.34598 -0.693742 0
M  V30 811 H 76.2892 -0.736504 0.027047 0
M  V30 812 H 78.9312 -1.74501 0.751615 0
M  V30 813 H 77.0812 -3.84236 -0.574009 0
M  V30 814 H 78.7532 -4.14832 2.01773 0
M  V30 815 H 76.9962 -3.87016 1.95962 0
M  V30 816 H 77.6672 -5.36478 1.29982 0
M  V30 817 H 80.1432 -4.15615 -0.200869 0
M  V30 818 H 79.0192 -5.44318 -0.707714 0
M  V30 819 H 79.2802 -4.05759 -1.75533 0
M  V30 820 N 78.3393 -0.321999 -1.54275 0
M  V30 821 C 79.5873 0.280489 -2.00144 0
M  V30 822 C 79.9083 1.52777 -1.21178 0
M  V30 823 O 79.1783 1.9338 -0.313187 0
M  V30 824 H 77.7583 0.106632 -0.73935 0
M  V30 825 H 80.4203 -0.438184 -1.8991 0
M  V30 826 H 79.5163 0.537972 -3.07428 0
M  V30 827 N 79.8174 1.5752 -0.0501392 0
M  V30 828 C 81.0424 1.97376 0.636997 0
M  V30 829 C 81.4674 0.927466 1.63645 0
M  V30 830 O 80.8254 -0.10941 1.8097 0
M  V30 831 C 80.8734 3.36304 1.30123 0
M  V30 832 O 79.9774 3.34156 2.41689 0
M  V30 833 H 79.3184 0.642998 0.165679 0
M  V30 834 H 81.8484 2.04258 -0.118233 0
M  V30 835 H 81.8584 3.73008 1.65315 0
M  V30 836 H 80.5334 4.11993 0.568746 0
M  V30 837 H 79.1104 3.09196 2.08451 0
M  V30 838 N 81.2955 -0.223234 1.56011 0
M  V30 839 C 82.5435 -0.946003 1.78592 0
M  V30 840 C 82.8645 -1.84936 0.618349 0
M  V30 841 O 82.1345 -1.92473 -0.364833 0
M  V30 842 H 80.7145 -0.352298 0.658707 0
M  V30 843 H 83.3765 -0.235494 1.93472 0
M  V30 844 H 82.4725 -1.55381 2.70672 0
M  V30 845 N 82.7736 -1.49793 -0.48987 0
M  V30 846 C 84.0506 -1.50348 -1.25119 0
M  V30 847 C 84.4306 -0.237466 -2.0976 0
M  V30 848 O 83.7786 0.77981 -2.14782 0
M  V30 849 C 83.9886 -2.78872 -2.09837 0
M  V30 850 C 85.3366 -3.288 -2.68655 0
M  V30 851 O 86.3606 -2.80065 -2.20096 0
M  V30 852 O 85.2196 -4.13707 -3.57083 0
M  V30 853 H 82.3136 -0.602242 -0.566775 0
M  V30 854 H 84.8596 -1.62067 -0.503229 0
M  V30 855 H 83.6316 -3.62499 -1.47343 0
M  V30 856 H 83.2546 -2.70066 -2.91805 0
M  V30 857 N 84.2517 0.741722 -1.39055 0
M  V30 858 C 85.4977 1.50336 -1.36113 0
M  V30 859 C 85.8307 1.94148 0.0450796 0
M  V30 860 O 85.1057 1.66301 1.00868 0
M  V30 861 C 85.3887 2.74773 -2.32749 0
M  V30 862 C 85.2417 2.37023 -3.82283 0
M  V30 863 C 86.5607 3.76846 -2.27322 0
M  V30 864 H 83.6797 0.545351 -0.495743 0
M  V30 865 H 86.3217 0.848624 -1.69995 0
M  V30 866 H 84.4717 3.30639 -2.03986 0
M  V30 867 H 86.1437 1.8684 -4.21768 0
M  V30 868 H 84.3867 1.69334 -3.99385 0
M  V30 869 H 85.0577 3.26104 -4.45376 0
M  V30 870 H 87.5337 3.30548 -2.5274 0
M  V30 871 H 86.4097 4.6159 -2.97028 0
M  V30 872 H 86.6707 4.23286 -1.27599 0
M  V30 873 N 85.7298 1.2412 0.971189 0
M  V30 874 C 86.6798 0.997551 2.05019 0
M  V30 875 C 87.6638 -0.0597747 1.60789 0
M  V30 876 O 88.8558 0.153516 1.76333 0
M  V30 877 C 85.9848 0.600557 3.38006 0
M  V30 878 C 85.0708 1.69377 3.88809 0
M  V30 879 N 85.4618 2.92586 4.12586 0
M  V30 880 C 83.7598 1.57048 4.17435 0
M  V30 881 C 84.4608 3.63431 4.54195 0
M  V30 882 N 83.4368 2.90979 4.59165 0
M  V30 883 H 87.2388 1.93316 2.21374 0
M  V30 884 H 84.7528 1.14194 1.1547 0
M  V30 885 H 86.7498 0.40725 4.14906 0
M  V30 886 H 85.4098 -0.327903 3.2304 0
M  V30 887 H 86.4208 3.288 4.00139 0
M  V30 888 H 83.0978 0.709798 4.11422 0
M  V30 889 H 84.4878 4.69102 4.81033 0
M  V30 890 N 87.2079 -1.17134 1.05439 0
M  V30 891 C 88.1549 -2.21235 0.657539 0
M  V30 892 C 89.1249 -1.62551 -0.341543 0
M  V30 893 O 90.3099 -1.89379 -0.232393 0
M  V30 894 C 87.4499 -3.45076 0.0410575 0
M  V30 895 C 86.5629 -4.18042 1.08927 0
M  V30 896 C 85.6979 -5.29376 0.439848 0
M  V30 897 C 84.7369 -5.94132 1.4722 0
M  V30 898 N 83.8739 -6.96975 0.846756 0
M  V30 899 H 88.7139 -2.54534 1.54972 0
M  V30 900 H 86.2509 -1.25028 0.775006 0
M  V30 901 H 88.2089 -4.15862 -0.33383 0
M  V30 902 H 86.8389 -3.12353 -0.814568 0
M  V30 903 H 85.8909 -3.45945 1.58196 0
M  V30 904 H 87.2029 -4.62306 1.87282 0
M  V30 905 H 86.3569 -6.06699 0.0115125 0
M  V30 906 H 85.0959 -4.86251 -0.375656 0
M  V30 907 H 84.1009 -5.15538 1.91052 0
M  V30 908 H 85.3259 -6.39337 2.28965 0
M  V30 909 H 83.2719 -6.5598 0.0518075 0
M  V30 910 H 83.1889 -7.39565 1.5678 0
M  V30 911 H 84.4569 -7.78239 0.443277 0
M  V30 912 N 88.686 -0.835752 -1.33615 0
M  V30 913 C 89.619 -0.211815 -2.27215 0
M  V30 914 C 90.597 0.639249 -1.49507 0
M  V30 915 O 91.781 0.600193 -1.78689 0
M  V30 916 C 88.908 0.702893 -3.31326 0
M  V30 917 C 87.954 -0.0723049 -4.26439 0
M  V30 918 S 88.787 -1.42811 -5.16106 0
M  V30 919 C 89.943 -0.518613 -6.23748 0
M  V30 920 H 90.176 -1.00533 -2.79786 0
M  V30 921 H 87.709 -0.632336 -1.40858 0
M  V30 922 H 89.667 1.22505 -3.91794 0
M  V30 923 H 88.328 1.47004 -2.77576 0
M  V30 924 H 87.521 0.62359 -5.00127 0
M  V30 925 H 87.123 -0.525424 -3.70291 0
M  V30 926 H 89.415 0.284778 -6.76901 0
M  V30 927 H 90.358 -1.22556 -6.97413 0
M  V30 928 H 90.766 -0.101344 -5.64409 0
M  V30 929 N 90.1641 1.46063 -0.591896 0
M  V30 930 C 91.4101 2.02638 -0.0811191 0
M  V30 931 C 91.7431 1.4613 1.27905 0
M  V30 932 O 91.0181 0.629908 1.84017 0
M  V30 933 C 91.3011 3.60091 -0.0252436 0
M  V30 934 C 91.1541 4.26965 -1.41496 0
M  V30 935 C 92.4731 4.3496 0.670685 0
M  V30 936 H 89.5921 0.73635 -0.0309524 0
M  V30 937 H 92.2341 1.741 -0.760859 0
M  V30 938 H 90.3841 3.84535 0.553624 0
M  V30 939 H 92.0561 4.13756 -2.0397 0
M  V30 940 H 90.2991 3.85971 -1.98011 0
M  V30 941 H 90.9701 5.35781 -1.32825 0
M  V30 942 H 93.4461 4.15716 0.178825 0
M  V30 943 H 92.3221 5.44686 0.678837 0
M  V30 944 H 92.5831 4.06685 1.73379 0
M  V30 945 N 91.6422 0.330177 1.54103 0
M  V30 946 C 92.8882 -0.270806 2.00984 0
M  V30 947 C 93.2212 -1.51265 1.21789 0
M  V30 948 O 92.4962 -1.92142 0.301927 0
M  V30 949 C 92.7792 -0.598339 3.55094 0
M  V30 950 C 92.6322 0.654674 4.4501 0
M  V30 951 C 93.9512 -1.41334 4.16789 0
M  V30 952 H 91.0702 -0.0969531 0.730595 0
M  V30 953 H 93.7122 0.448066 1.84641 0
M  V30 954 H 91.8622 -1.21078 3.69151 0
M  V30 955 H 93.5342 1.29285 4.42813 0
M  V30 956 H 91.7772 1.28224 4.14416 0
M  V30 957 H 92.4482 0.380944 5.50684 0
M  V30 958 H 94.9242 -0.895597 4.06347 0
M  V30 959 H 93.8002 -1.61127 5.24718 0
M  V30 960 H 94.0612 -2.41146 3.70541 0
M  V30 961 N 93.1203 -1.57491 0.0584922 0
M  V30 962 C 94.3453 -1.97711 -0.62652 0
M  V30 963 C 94.7703 -0.936132 -1.63151 0
M  V30 964 O 94.1283 0.099811 -1.81025 0
M  V30 965 C 94.1763 -3.36989 -1.28338 0
M  V30 966 O 93.2803 -3.35433 -2.39913 0
M  V30 967 H 92.6213 -0.643868 -0.162266 0
M  V30 968 H 95.1513 -2.04193 0.129064 0
M  V30 969 H 95.1613 -3.73879 -1.63335 0
M  V30 970 H 93.8363 -4.12289 -0.546889 0
M  V30 971 H 92.4133 -3.10298 -2.06809 0
M  V30 972 N 94.5984 0.214957 -1.56127 0
M  V30 973 C 95.8474 0.936451 -1.78643 0
M  V30 974 C 96.1604 1.85237 -0.628229 0
M  V30 975 O 97.3664 2.613 -0.737186 0
M  V30 976 C 95.8224 1.7154 -3.16389 0
M  V30 977 C 95.4304 0.845299 -4.39953 0
M  V30 978 C 97.1744 2.42772 -3.48227 0
M  V30 979 C 95.0814 1.62198 -5.68723 0
M  V30 980 H 94.0114 0.353401 -0.666051 0
M  V30 981 H 96.6624 0.190169 -1.82512 0
M  V30 982 H 95.0444 2.50484 -3.06715 0
M  V30 983 H 96.2184 0.0959353 -4.607 0
M  V30 984 H 94.5334 0.244789 -4.1568 0
M  V30 985 H 97.1304 3.01394 -4.41663 0
M  V30 986 H 97.4734 3.15984 -2.71035 0
M  V30 987 H 98.0064 1.70813 -3.5926 0
M  V30 988 H 94.7454 0.933011 -6.48826 0
M  V30 989 H 94.2654 2.34579 -5.52026 0
M  V30 990 H 95.9444 2.18095 -6.09133 0
M  V30 991 N 96.0765 1.50051 0.48192 0
M  V30 992 C 97.3245 1.60181 1.23234 0
M  V30 993 C 97.6455 0.299176 1.92691 0
M  V30 994 O 96.9155 -0.682708 1.83619 0
M  V30 995 H 95.4955 0.590232 0.457859 0
M  V30 996 H 98.1575 1.86775 0.556881 0
M  V30 997 H 97.2535 2.40753 1.98607 0
M  V30 998 N 97.5546 -0.734337 1.39446 0
M  V30 999 C 98.8006 -1.49505 1.37913 0
M  V30 1000 C 99.1556 -1.92384 -0.0248416 0
M  V30 1001 O 98.4486 -1.6395 -0.991506 0
M  V30 1002 C 98.6426 -2.74711 2.28623 0
M  V30 1003 C 98.4716 -2.44075 3.777 0
M  V30 1004 C 97.2416 -2.36338 4.46623 0
M  V30 1005 C 99.4396 -2.09574 4.69663 0
M  V30 1006 N 97.4216 -1.9818 5.81032 0
M  V30 1007 C 98.7926 -1.81865 5.92727 0
M  V30 1008 C 100.848 -1.96048 4.57678 0
M  V30 1009 C 99.5506 -1.41992 7.05146 0
M  V30 1010 C 101.577 -1.57579 5.7002 0
M  V30 1011 C 100.939 -1.30754 6.92158 0
M  V30 1012 H 97.0376 -0.545896 0.55993 0
M  V30 1013 H 99.6216 -0.853373 1.75002 0
M  V30 1014 H 97.7926 -3.36657 1.93692 0
M  V30 1015 H 99.5246 -3.40916 2.18078 0
M  V30 1016 H 96.2796 -2.53456 4.00071 0
M  V30 1017 H 96.7036 -1.81691 6.52163 0
M  V30 1018 H 101.346 -2.15455 3.63784 0
M  V30 1019 H 99.0636 -1.21327 7.9894 0
M  V30 1020 H 102.65 -1.47718 5.62735 0
M  V30 1021 H 101.53 -1.01432 7.77612 0
M  V30 1022 N 99.0327 -1.24633 -0.964593 0
M  V30 1023 C 99.9807 -1.03917 -2.08096 0
M  V30 1024 C 100.975 0.0268581 -1.69379 0
M  V30 1025 O 102.181 -0.127952 -1.79545 0
M  V30 1026 H 98.5557 -0.319044 -0.680966 0
M  V30 1027 H 100.527 -1.98581 -2.22729 0
M  V30 1028 C 99.2757 -0.663983 -3.41301 0
M  V30 1029 H 98.5987 -1.47605 -3.71555 0
M  V30 1030 H 100.039 -0.558663 -4.20303 0
M  V30 1031 C 98.4977 0.629169 -3.30973 0
M  V30 1032 O 99.0277 1.67404 -3.65156 0
M  V30 1033 N 97.2337 0.611057 -2.84103 0
M  V30 1034 H 96.7807 -0.239593 -2.56483 0
M  V30 1035 H 96.7387 1.47647 -2.77575 0
M  V30 1036 N 100.511 1.16574 -1.06058 0
M  V30 1037 C 101.922 1.68662 -0.800632 0
M  V30 1038 C 102.273 1.84184 0.67608 0
M  V30 1039 O 101.398 1.53568 1.52466 0
M  V30 1040 C 101.993 3.06356 -1.44676 0
M  V30 1041 C 100.552 3.55575 -1.23465 0
M  V30 1042 C 99.6988 2.31616 -1.52477 0
M  V30 1043 H 102.65 1.00969 -1.22438 0
M  V30 1044 H 102.671 3.70636 -0.860788 0
M  V30 1045 H 102.183 2.95027 -2.52152 0
M  V30 1046 H 100.284 3.72167 -0.179527 0
M  V30 1047 H 100.397 4.37812 -1.94571 0
M  V30 1048 H 98.7608 2.36512 -0.945209 0
M  V30 1049 H 99.5438 2.22887 -2.61106 0
M  V30 1050 N 101.989 0.842826 1.3317 0
M  V30 1051 C 103.219 0.453397 2.01564 0
M  V30 1052 C 103.627 -0.951147 1.63554 0
M  V30 1053 O 102.97 -1.63021 0.846746 0
M  V30 1054 C 103.032 0.499013 3.5602 0
M  V30 1055 C 102.696 1.86037 4.1742 0
M  V30 1056 C 103.693 2.82416 4.36506 0
M  V30 1057 C 101.378 2.15428 4.53757 0
M  V30 1058 C 103.372 4.06346 4.91082 0
M  V30 1059 C 101.059 3.39615 5.0804 0
M  V30 1060 C 102.057 4.3489 5.26649 0
M  V30 1061 O 101.745 5.5688 5.79776 0
M  V30 1062 H 101.477 0.177871 0.652179 0
M  V30 1063 H 104.031 1.13808 1.70988 0
M  V30 1064 H 102.261 -0.242467 3.85939 0
M  V30 1065 H 103.95 0.126852 4.05702 0
M  V30 1066 H 104.716 2.6101 4.08777 0
M  V30 1067 H 100.595 1.42061 4.38565 0
M  V30 1068 H 104.139 4.80722 5.05522 0
M  V30 1069 H 100.036 3.60876 5.352 0
M  V30 1070 H 100.804 5.58674 5.98185 0
M  V30 1071 N 103.467 -1.45747 0.599634 0
M  V30 1072 C 104.697 -2.06369 0.0977132 0
M  V30 1073 C 105.105 -1.44624 -1.21985 0
M  V30 1074 O 104.448 -0.551831 -1.75216 0
M  V30 1075 C 104.51 -3.59284 -0.124673 0
M  V30 1076 C 104.174 -4.43318 1.10987 0
M  V30 1077 C 105.171 -4.78796 2.02609 0
M  V30 1078 C 102.856 -4.84194 1.33647 0
M  V30 1079 C 104.85 -5.53997 3.15224 0
M  V30 1080 C 102.537 -5.5915 2.46565 0
M  V30 1081 C 103.535 -5.93968 3.37182 0
M  V30 1082 O 103.223 -6.67405 4.48136 0
M  V30 1083 H 102.955 -0.673122 0.0623153 0
M  V30 1084 H 105.509 -1.88104 0.824981 0
M  V30 1085 H 103.739 -3.75919 -0.906745 0
M  V30 1086 H 105.428 -4.01775 -0.577201 0
M  V30 1087 H 106.194 -4.47781 1.86325 0
M  V30 1088 H 102.073 -4.56534 0.64016 0
M  V30 1089 H 105.617 -5.81091 3.85978 0
M  V30 1090 H 101.514 -5.89579 2.62805 0
M  V30 1091 H 102.282 -6.85847 4.46717 0
M  V30 1092 N 104.945 -0.338344 -1.53925 0
M  V30 1093 C 105.892 0.520845 -2.24846 0
M  V30 1094 C 106.862 1.09976 -1.24477 0
M  V30 1095 O 108.047 1.13735 -1.53196 0
M  V30 1096 C 105.187 1.6685 -3.02084 0
M  V30 1097 C 104.3 1.11739 -4.17299 0
M  V30 1098 C 103.435 2.23193 -4.82036 0
M  V30 1099 C 102.474 1.65407 -5.89328 0
M  V30 1100 N 101.611 2.70582 -6.47866 0
M  V30 1101 H 106.451 -0.0904881 -2.97863 0
M  V30 1102 H 103.988 -0.0564282 -1.46992 0
M  V30 1103 H 105.946 2.34407 -3.45122 0
M  V30 1104 H 104.576 2.2509 -2.31375 0
M  V30 1105 H 103.628 0.332919 -3.7894 0
M  V30 1106 H 104.94 0.654677 -4.94485 0
M  V30 1107 H 104.094 2.98626 -5.28117 0
M  V30 1108 H 102.833 2.72807 -4.04262 0
M  V30 1109 H 101.838 0.884779 -5.42634 0
M  V30 1110 H 103.063 1.16652 -6.69006 0
M  V30 1111 H 101.009 3.1946 -5.72959 0
M  V30 1112 H 100.926 2.28917 -7.20509 0
M  V30 1113 H 102.194 3.45799 -6.98601 0
M  V30 1114 N 106.423 1.57458 -0.0668435 0
M  V30 1115 C 107.371 2.13639 0.919851 0
M  V30 1116 C 108.365 1.07204 1.31163 0
M  V30 1117 O 109.571 1.25591 1.28945 0
M  V30 1118 H 105.946 0.683048 0.314562 0
M  V30 1119 H 107.917 2.95415 0.421047 0
M  V30 1120 C 106.666 2.70892 2.17975 0
M  V30 1121 H 105.989 3.5246 1.88711 0
M  V30 1122 H 107.429 3.13803 2.85138 0
M  V30 1123 C 105.888 1.65414 2.93496 0
M  V30 1124 O 106.418 1.07619 3.87015 0
M  V30 1125 N 104.624 1.36564 2.56512 0
M  V30 1126 H 104.171 1.83751 1.80536 0
M  V30 1127 H 104.129 0.66223 3.07347 0
M  V30 1128 N 107.901 -0.206675 1.56239 0
M  V30 1129 C 109.129 -0.945345 1.8404 0
M  V30 1130 C 109.544 -1.77336 0.647885 0
M  V30 1131 O 108.901 -1.78425 -0.383511 0
M  V30 1132 C 108.952 -1.8509 3.10522 0
M  V30 1133 O 108.673 -1.05634 4.25174 0
M  V30 1134 C 110.174 -2.70222 3.51418 0
M  V30 1135 H 107.394 -0.276372 0.61144 0
M  V30 1136 H 109.938 -0.217417 2.03341 0
M  V30 1137 H 108.093 -2.53259 2.93153 0
M  V30 1138 H 108.507 -1.67238 4.97124 0
M  V30 1139 H 109.981 -3.29438 4.42916 0
M  V30 1140 H 110.458 -3.43358 2.73864 0
M  V30 1141 H 111.064 -2.07443 3.71278 0
M  V30 1142 N 109.379 -1.50304 -0.473955 0
M  V30 1143 C 110.326 -1.68959 -1.57231 0
M  V30 1144 C 111.296 -0.530899 -1.57387 0
M  V30 1145 O 112.481 -0.761133 -1.74961 0
M  V30 1146 C 109.621 -1.7871 -2.95223 0
M  V30 1147 C 108.734 -3.06061 -3.04878 0
M  V30 1148 C 107.869 -3.06626 -4.33767 0
M  V30 1149 C 106.908 -4.28443 -4.37154 0
M  V30 1150 N 106.045 -4.26763 -5.5751 0
M  V30 1151 H 110.885 -2.6273 -1.40631 0
M  V30 1152 H 108.422 -1.30241 -0.683789 0
M  V30 1153 H 110.38 -1.82344 -3.75242 0
M  V30 1154 H 109.01 -0.883806 -3.10465 0
M  V30 1155 H 108.062 -3.11911 -2.17751 0
M  V30 1156 H 109.374 -3.96039 -3.0324 0
M  V30 1157 H 108.528 -3.08973 -5.22131 0
M  V30 1158 H 107.267 -2.14473 -4.3801 0
M  V30 1159 H 106.272 -4.2631 -3.47188 0
M  V30 1160 H 107.497 -5.2182 -4.34605 0
M  V30 1161 H 105.443 -3.37462 -5.62544 0
M  V30 1162 H 105.36 -5.10507 -5.57601 0
M  V30 1163 H 106.628 -4.33253 -6.48006 0
M  V30 1164 N 110.857 0.726932 -1.39834 0
M  V30 1165 C 111.804 1.841 -1.39197 0
M  V30 1166 C 112.774 1.642 -0.250502 0
M  V30 1167 O 113.959 1.85494 -0.446846 0
M  V30 1168 C 111.099 3.21697 -1.24919 0
M  V30 1169 C 110.212 3.53247 -2.48678 0
M  V30 1170 C 109.347 4.80289 -2.26928 0
M  V30 1171 C 108.386 5.04707 -3.4632 0
M  V30 1172 N 107.523 6.22956 -3.23836 0
M  V30 1173 H 112.363 1.83979 -2.34427 0
M  V30 1174 H 109.9 0.898876 -1.16442 0
M  V30 1175 H 111.858 4.01137 -1.1465 0
M  V30 1176 H 110.488 3.21076 -0.333153 0
M  V30 1177 H 109.54 2.68447 -2.69519 0
M  V30 1178 H 110.852 3.67205 -3.37582 0
M  V30 1179 H 110.006 5.67725 -2.13947 0
M  V30 1180 H 108.745 4.68519 -1.35431 0
M  V30 1181 H 107.75 4.1573 -3.5979 0
M  V30 1182 H 108.975 5.18357 -4.38729 0
M  V30 1183 H 106.921 6.12459 -2.35011 0
M  V30 1184 H 106.838 6.37539 -4.063 0
M  V30 1185 H 108.106 7.1321 -3.14566 0
M  V30 1186 N 112.336 1.25143 0.95797 0
M  V30 1187 C 113.561 1.12521 1.74223 0
M  V30 1188 C 113.986 -0.317402 1.85403 0
M  V30 1189 O 113.344 -1.2299 1.33204 0
M  V30 1190 C 113.392 1.78062 3.1357 0
M  V30 1191 O 112.496 1.058 3.98598 0
M  V30 1192 H 111.837 0.39304 0.535178 0
M  V30 1193 H 114.367 1.65641 1.201 0
M  V30 1194 H 114.377 1.84213 3.64046 0
M  V30 1195 H 113.052 2.83021 3.04749 0
M  V30 1196 H 111.629 1.07506 3.57067 0
M  V30 1197 N 113.814 -1.1601 1.06675 0
M  V30 1198 C 114.747 -2.1947 0.625168 0
M  V30 1199 C 115.725 -1.58699 -0.354041 0
M  V30 1200 O 116.909 -1.86669 -0.262098 0
M  V30 1201 C 114.036 -3.38598 -0.0829593 0
M  V30 1202 C 113.082 -4.1787 0.853611 0
M  V30 1203 S 113.915 -4.81135 2.35094 0
M  V30 1204 C 115.071 -6.03639 1.65441 0
M  V30 1205 H 115.304 -2.56587 1.50168 0
M  V30 1206 H 112.837 -1.26862 0.880078 0
M  V30 1207 H 114.795 -4.07621 -0.485288 0
M  V30 1208 H 113.456 -2.99839 -0.935716 0
M  V30 1209 H 112.649 -5.03078 0.304755 0
M  V30 1210 H 112.251 -3.54361 1.196 0
M  V30 1211 H 114.543 -6.70632 0.962201 0
M  V30 1212 H 115.486 -6.63081 2.48454 0
M  V30 1213 H 115.894 -5.52965 1.13534 0
M  V30 1214 N 115.292 -0.849877 -1.32721 0
M  V30 1215 C 116.202 -0.293791 -2.32753 0
M  V30 1216 C 117.218 0.585906 -1.63839 0
M  V30 1217 O 118.394 0.487413 -1.95413 0
M  V30 1218 C 115.459 0.512752 -3.42887 0
M  V30 1219 C 114.52 -0.39252 -4.27502 0
M  V30 1220 C 113.753 0.375625 -5.32377 0
M  V30 1221 O 113.976 1.60613 -5.4732 0
M  V30 1222 O 112.91 -0.256094 -6.01355 0
M  V30 1223 H 116.736 -1.12242 -2.82197 0
M  V30 1224 H 114.321 -0.612685 -1.36259 0
M  V30 1225 H 116.203 0.970704 -4.10067 0
M  V30 1226 H 114.878 1.31826 -2.95641 0
M  V30 1227 H 113.785 -0.898547 -3.63149 0
M  V30 1228 H 115.118 -1.16309 -4.7826 0
M  V30 1229 N 116.77 1.45427 -0.607355 0
M  V30 1230 C 117.998 2.06614 -0.108814 0
M  V30 1231 C 118.413 1.45204 1.2067 0
M  V30 1232 O 117.77 0.566132 1.73497 0
M  V30 1233 C 117.821 3.61481 0.0375347 0
M  V30 1234 O 117.542 4.20598 -1.22593 0
M  V30 1235 C 119.043 4.39652 0.567561 0
M  V30 1236 H 116.263 0.66747 -0.0687351 0
M  V30 1237 H 118.807 1.86675 -0.835022 0
M  V30 1238 H 116.962 3.80762 0.714068 0
M  V30 1239 H 117.376 5.1377 -1.05547 0
M  V30 1240 H 118.85 5.48518 0.61905 0
M  V30 1241 H 119.327 4.09417 1.58978 0
M  V30 1242 H 119.933 4.25234 -0.0749202 0
M  V30 1243 N 118.248 0.346503 1.53744 0
M  V30 1244 C 119.198 -0.524953 2.21874 0
M  V30 1245 C 120.182 -1.06376 1.20718 0
M  V30 1246 O 121.374 -0.996972 1.46251 0
M  V30 1247 C 118.503 -1.6739 2.99726 0
M  V30 1248 C 117.589 -1.14888 4.08242 0
M  V30 1249 N 117.98 -0.345329 5.0462 0
M  V30 1250 C 116.278 -1.4255 4.22606 0
M  V30 1251 C 116.979 -0.0600706 5.81669 0
M  V30 1252 N 115.955 -0.65252 5.39669 0
M  V30 1253 H 119.757 0.0960091 2.93743 0
M  V30 1254 H 117.271 0.15352 1.61673 0
M  V30 1255 H 119.268 -2.3102 3.47038 0
M  V30 1256 H 117.928 -2.29811 2.29384 0
M  V30 1257 H 118.939 0.0138439 5.17898 0
M  V30 1258 H 115.616 -2.05389 3.63486 0
M  V30 1259 H 117.006 0.588321 6.69319 0
M  V30 1260 N 119.726 -1.57421 0.075193 0
M  V30 1261 C 120.975 -1.92794 -0.592731 0
M  V30 1262 C 121.288 -0.957478 -1.70563 0
M  V30 1263 O 122.494 -1.20417 -2.43335 0
M  V30 1264 C 120.95 -3.42495 -1.10569 0
M  V30 1265 C 120.558 -4.47994 -0.0236121 0
M  V30 1266 C 122.302 -3.86864 -1.74748 0
M  V30 1267 C 120.209 -5.88829 -0.550803 0
M  V30 1268 H 119.139 -0.719591 -0.225177 0
M  V30 1269 H 121.79 -1.82902 0.147978 0
M  V30 1270 H 120.172 -3.47471 -1.89947 0
M  V30 1271 H 121.346 -4.54637 0.751099 0
M  V30 1272 H 119.661 -4.13113 0.522159 0
M  V30 1273 H 122.258 -4.8947 -2.15229 0
M  V30 1274 H 122.601 -3.24417 -2.60882 0
M  V30 1275 H 123.134 -3.84504 -1.01986 0
M  V30 1276 H 119.873 -6.54929 0.273457 0
M  V30 1277 H 119.393 -5.85698 -1.29296 0
M  V30 1278 H 121.072 -6.38811 -1.02613 0
M  V30 1279 N 121.204 0.198386 -1.56346 0
M  V30 1280 C 122.137 1.27381 -1.89339 0
M  V30 1281 C 123.115 1.44106 -0.753134 0
M  V30 1282 O 124.299 1.59549 -1.00381 0
M  V30 1283 C 121.426 2.6409 -2.12071 0
M  V30 1284 C 120.472 2.64253 -3.34772 0
M  V30 1285 S 121.305 2.16013 -4.89999 0
M  V30 1286 C 122.461 3.54553 -5.15794 0
M  V30 1287 H 122.694 0.992058 -2.8026 0
M  V30 1288 H 120.227 0.401726 -1.49082 0
M  V30 1289 H 122.185 3.42786 -2.2585 0
M  V30 1290 H 120.846 2.89478 -1.21906 0
M  V30 1291 H 120.039 3.64768 -3.47794 0
M  V30 1292 H 119.641 1.93637 -3.1997 0
M  V30 1293 H 121.933 4.50396 -5.06112 0
M  V30 1294 H 122.876 3.46428 -6.1757 0
M  V30 1295 H 123.284 3.49313 -4.43442 0
M  V30 1296 N 122.682 1.50554 0.465978 0
M  V30 1297 C 123.632 1.66177 1.56106 0
M  V30 1298 C 124.616 0.516265 1.52393 0
M  V30 1299 O 125.808 0.770906 1.5933 0
M  V30 1300 C 122.937 1.76396 2.94515 0
M  V30 1301 C 122.023 2.9664 3.03093 0
M  V30 1302 N 122.414 4.20245 2.81474 0
M  V30 1303 C 120.712 2.95304 3.34233 0
M  V30 1304 C 121.413 5.01259 2.95151 0
M  V30 1305 N 120.389 4.35318 3.25576 0
M  V30 1306 H 124.191 2.59434 1.38099 0
M  V30 1307 H 121.705 1.47808 0.6728 0
M  V30 1308 H 123.702 1.85694 3.73261 0
M  V30 1309 H 122.362 0.843017 3.13565 0
M  V30 1310 H 123.373 4.4966 2.56956 0
M  V30 1311 H 120.05 2.12729 3.59239 0
M  V30 1312 H 121.44 6.09564 2.82632 0
M  V30 1313 N 124.16 -0.719506 1.40217 0
M  V30 1314 C 125.388 -1.50864 1.41589 0
M  V30 1315 C 125.803 -1.88794 0.0145275 0
M  V30 1316 O 125.16 -1.55174 -0.960594 0
M  V30 1317 C 125.211 -2.78646 2.30302 0
M  V30 1318 O 124.932 -2.42321 3.64983 0
M  V30 1319 C 126.433 -3.72569 2.40224 0
M  V30 1320 H 123.653 -0.465709 0.48307 0
M  V30 1321 H 126.197 -0.88785 1.84221 0
M  V30 1322 H 124.352 -3.37019 1.91042 0
M  V30 1323 H 124.766 -3.24514 4.12057 0
M  V30 1324 H 126.24 -4.5908 3.06512 0
M  V30 1325 H 126.717 -4.15403 1.42608 0
M  V30 1326 H 127.323 -3.20109 2.80019 0
M  V30 1327 N 125.638 -1.25649 -0.95132 0
M  V30 1328 C 126.885 -1.10594 -1.69633 0
M  V30 1329 C 127.213 0.352515 -1.91279 0
M  V30 1330 O 126.468 1.27601 -1.4838 0
M  V30 1331 C 126.767 -1.80909 -3.08231 0
M  V30 1332 C 126.433 -3.30825 -3.06375 0
M  V30 1333 C 125.095 -3.71722 -3.05576 0
M  V30 1334 C 127.447 -4.26589 -2.99452 0
M  V30 1335 C 124.775 -5.06788 -2.95606 0
M  V30 1336 C 127.127 -5.61683 -2.91024 0
M  V30 1337 C 125.791 -6.01904 -2.88562 0
M  V30 1338 H 125.061 -0.404691 -0.620731 0
M  V30 1339 H 127.708 -1.55964 -1.11119 0
M  V30 1340 H 126.013 -1.27979 -3.70309 0
M  V30 1341 H 127.71 -1.6671 -3.64704 0
M  V30 1342 H 124.3 -2.98287 -3.07771 0
M  V30 1343 H 128.484 -3.95982 -2.99185 0
M  V30 1344 H 123.74 -5.37126 -2.92071 0
M  V30 1345 H 127.914 -6.35578 -2.84629 0
M  V30 1346 H 125.541 -7.06521 -2.80593 0
M  V30 1347 N 127.117 1.15442 -1.07289 0
M  V30 1348 C 128.064 2.20161 -0.692653 0
M  V30 1349 C 129.034 1.63073 0.31564 0
M  V30 1350 O 130.219 1.89725 0.202235 0
M  V30 1351 C 127.359 3.44967 -0.0959509 0
M  V30 1352 C 126.472 4.16256 -1.15564 0
M  V30 1353 C 125.607 5.28609 -0.524011 0
M  V30 1354 C 124.646 5.91715 -1.56653 0
M  V30 1355 N 123.783 6.9554 -0.957531 0
M  V30 1356 H 128.623 2.52037 -1.59002 0
M  V30 1357 H 126.16 1.2378 -0.794798 0
M  V30 1358 H 128.118 4.16341 0.267628 0
M  V30 1359 H 126.748 3.1361 0.764772 0
M  V30 1360 H 125.8 3.43385 -1.6368 0
M  V30 1361 H 127.112 4.59268 -1.94613 0
M  V30 1362 H 126.266 6.06604 -0.108032 0
M  V30 1363 H 125.005 4.86787 0.29825 0
M  V30 1364 H 124.01 5.12433 -1.9923 0
M  V30 1365 H 125.235 6.35614 -2.39107 0
M  V30 1366 H 123.181 6.55814 -0.156162 0
M  V30 1367 H 123.098 7.36977 -1.68526 0
M  V30 1368 H 124.366 7.77435 -0.567032 0
M  V30 1369 N 128.595 0.856903 1.32268 0
M  V30 1370 C 129.505 0.306131 2.32594 0
M  V30 1371 C 130.521 -0.577209 1.64147 0
M  V30 1372 O 131.697 -0.477043 1.95669 0
M  V30 1373 C 128.762 -0.494561 3.43154 0
M  V30 1374 C 127.823 0.415186 4.27288 0
M  V30 1375 C 127.056 -0.347387 5.32568 0
M  V30 1376 O 127.279 -1.57708 5.48165 0
M  V30 1377 O 126.213 0.287982 6.01211 0
M  V30 1378 H 130.039 1.13737 2.81598 0
M  V30 1379 H 127.624 0.619902 1.35932 0
M  V30 1380 H 129.506 -0.948944 4.10576 0
M  V30 1381 H 128.181 -1.30257 2.96336 0
M  V30 1382 H 127.088 0.917793 3.62667 0
M  V30 1383 H 128.421 1.18844 4.77637 0
M  V30 1384 N 130.073 -1.45103 0.615059 0
M  V30 1385 C 131.35 -1.95549 0.0448276 0
M  V30 1386 C 131.73 -1.55737 -1.4251 0
M  V30 1387 O 131.078 -0.823556 -2.13143 0
M  V30 1388 C 131.288 -3.48098 0.250785 0
M  V30 1389 C 132.636 -4.24384 0.135509 0
M  V30 1390 O 133.66 -3.55738 0.181299 0
M  V30 1391 O 132.519 -5.46493 0.0268878 0
M  V30 1392 H 129.613 -0.8264 -0.0314845 0
M  V30 1393 H 132.159 -1.55232 0.685642 0
M  V30 1394 H 130.931 -3.7007 1.27139 0
M  V30 1395 H 130.554 -3.95323 -0.424937 0
M  V30 1396 N 131.551 -0.354651 -1.53558 0
M  V30 1397 C 132.798 0.238443 -2.01091 0
M  V30 1398 C 133.126 1.49663 -1.24222 0
M  V30 1399 O 132.381 1.93049 -0.321003 0
M  V30 1400 C 132.68 0.587121 -3.52545 0
M  V30 1401 C 132.346 -0.575472 -4.47213 0
M  V30 1402 C 131.008 -0.894497 -4.72813 0
M  V30 1403 C 133.36 -1.35489 -5.03281 0
M  V30 1404 C 130.688 -1.99511 -5.51736 0
M  V30 1405 C 133.04 -2.44583 -5.83405 0
M  V30 1406 C 131.704 -2.77033 -6.07296 0
M  V30 1407 H 130.974 0.0872526 -0.735845 0
M  V30 1408 H 133.621 -0.484859 -1.8526 0
M  V30 1409 H 131.926 1.39129 -3.66265 0
M  V30 1410 H 133.623 1.05809 -3.86789 0
M  V30 1411 H 130.213 -0.316774 -4.27428 0
M  V30 1412 H 134.397 -1.12167 -4.83459 0
M  V30 1413 H 129.653 -2.25063 -5.68469 0
M  V30 1414 H 133.827 -3.05401 -6.25862 0
M  V30 1415 H 131.454 -3.6244 -6.68237 0
M  V30 1416 N 133.029 1.57378 -0.0835403 0
M  V30 1417 C 134.259 1.97975 0.590713 0
M  V30 1418 C 134.667 0.961083 1.62972 0
M  V30 1419 O 134.01 -0.0590879 1.83605 0
M  V30 1420 C 134.072 3.34915 1.3066 0
M  V30 1421 C 133.736 4.55069 0.419698 0
M  V30 1422 C 134.733 5.18868 -0.32749 0
M  V30 1423 C 132.418 5.0114 0.341137 0
M  V30 1424 C 134.412 6.27098 -1.14134 0
M  V30 1425 C 132.099 6.0924 -0.476374 0
M  V30 1426 C 133.097 6.72083 -1.21627 0
M  V30 1427 O 132.785 7.781 -2.02028 0
M  V30 1428 H 132.517 0.655818 0.163947 0
M  V30 1429 H 135.071 2.04807 -0.156021 0
M  V30 1430 H 133.301 3.24733 2.09966 0
M  V30 1431 H 134.99 3.60037 1.87424 0
M  V30 1432 H 135.756 4.84211 -0.276459 0
M  V30 1433 H 131.635 4.51996 0.90668 0
M  V30 1434 H 135.179 6.7608 -1.71935 0
M  V30 1435 H 131.076 6.43329 -0.528927 0
M  V30 1436 H 131.844 7.95034 -1.94586 0
M  V30 1437 N 134.507 -0.190092 1.56449 0
M  V30 1438 C 135.755 -0.907908 1.80559 0
M  V30 1439 C 136.076 -1.83583 0.657438 0
M  V30 1440 O 135.346 -1.93203 -0.323924 0
M  V30 1441 H 133.926 -0.338247 0.666032 0
M  V30 1442 H 136.588 -0.194403 1.93928 0
M  V30 1443 H 135.684 -1.49604 2.73907 0
M  V30 1444 N 135.985 -1.50799 -0.457987 0
M  V30 1445 C 136.895 -1.73426 -1.57989 0
M  V30 1446 C 137.911 -0.617745 -1.62665 0
M  V30 1447 O 139.087 -0.897614 -1.80291 0
M  V30 1448 C 136.152 -1.83557 -2.94122 0
M  V30 1449 C 135.213 -3.07345 -2.99729 0
M  V30 1450 C 134.446 -3.16983 -4.29368 0
M  V30 1451 O 134.669 -2.33077 -5.20607 0
M  V30 1452 O 133.603 -4.09812 -4.40837 0
M  V30 1453 H 137.429 -2.68555 -1.41817 0
M  V30 1454 H 135.014 -1.35052 -0.638859 0
M  V30 1455 H 136.896 -1.92326 -3.74952 0
M  V30 1456 H 135.571 -0.916137 -3.10465 0
M  V30 1457 H 134.478 -3.04068 -2.1793 0
M  V30 1458 H 135.811 -3.9891 -2.88326 0
M  V30 1459 N 137.463 0.71206 -1.40597 0
M  V30 1460 C 138.712 1.46754 -1.38369 0
M  V30 1461 C 139.025 1.95598 0.0097839 0
M  V30 1462 O 140.231 2.71059 0.154677 0
M  V30 1463 C 138.687 2.65289 -2.43207 0
M  V30 1464 C 138.295 2.23301 -3.88382 0
M  V30 1465 C 140.039 3.43008 -2.50091 0
M  V30 1466 C 137.946 3.38696 -4.84808 0
M  V30 1467 H 136.876 0.55118 -0.514506 0
M  V30 1468 H 139.527 0.774616 -1.66349 0
M  V30 1469 H 137.909 3.36769 -2.08332 0
M  V30 1470 H 139.083 1.59218 -4.32419 0
M  V30 1471 H 137.398 1.58618 -3.85006 0
M  V30 1472 H 139.995 4.28881 -3.1932 0
M  V30 1473 H 140.338 3.87065 -1.53253 0
M  V30 1474 H 140.871 2.78574 -2.83974 0
M  V30 1475 H 137.61 2.99668 -5.82992 0
M  V30 1476 H 137.13 4.01683 -4.45433 0
M  V30 1477 H 138.809 4.04712 -5.04794 0
M  V30 1478 N 138.941 1.26152 0.944643 0
M  V30 1479 C 139.871 1.09902 2.06019 0
M  V30 1480 C 140.852 0.00519538 1.70099 0
M  V30 1481 O 142.037 0.176583 1.93396 0
M  V30 1482 C 139.167 0.727562 3.39594 0
M  V30 1483 C 138.121 1.77274 3.89561 0
M  V30 1484 C 137.447 1.25569 5.19747 0
M  V30 1485 C 138.747 3.17357 4.14827 0
M  V30 1486 H 140.441 2.03217 2.19871 0
M  V30 1487 H 137.987 0.978452 1.05652 0
M  V30 1488 H 139.94 0.600777 4.17095 0
M  V30 1489 H 138.664 -0.241287 3.25707 0
M  V30 1490 H 137.323 1.88814 3.14237 0
M  V30 1491 H 136.971 0.276783 5.02238 0
M  V30 1492 H 136.671 1.95433 5.54148 0
M  V30 1493 H 138.195 1.1415 5.99835 0
M  V30 1494 H 139.609 3.08914 4.82954 0
M  V30 1495 H 138.006 3.84781 4.60504 0
M  V30 1496 H 139.076 3.63673 3.20734 0
M  V30 1497 N 140.419 -1.14872 1.07899 0
M  V30 1498 C 141.367 -2.21857 0.698727 0
M  V30 1499 C 142.361 -1.66845 -0.293086 0
M  V30 1500 O 143.567 -1.79321 -0.156204 0
M  V30 1501 H 139.942 -0.722691 0.207899 0
M  V30 1502 H 141.913 -2.51205 1.61054 0
M  V30 1503 C 140.662 -3.47498 0.11858 0
M  V30 1504 H 139.985 -3.90154 0.872914 0
M  V30 1505 H 141.425 -4.23858 -0.109759 0
M  V30 1506 C 139.884 -3.16947 -1.1422 0
M  V30 1507 O 140.414 -3.3426 -2.22785 0
M  V30 1508 N 138.62 -2.70946 -1.05055 0
M  V30 1509 H 138.167 -2.57058 -0.167038 0
M  V30 1510 H 138.125 -2.50879 -1.89491 0
M  V30 1511 N 141.898 -0.863906 -1.31812 0
M  V30 1512 C 143.144 -0.472535 -1.97218 0
M  V30 1513 C 143.477 0.971394 -1.68159 0
M  V30 1514 O 142.752 1.68309 -0.974798 0
M  V30 1515 C 143.035 -0.723054 -3.52766 0
M  V30 1516 C 142.888 -2.21608 -3.91421 0
M  V30 1517 C 144.207 -0.185522 -4.39709 0
M  V30 1518 H 141.326 -0.173158 -0.71637 0
M  V30 1519 H 143.968 -1.08403 -1.56041 0
M  V30 1520 H 142.118 -0.202577 -3.87971 0
M  V30 1521 H 143.79 -2.80334 -3.66347 0
M  V30 1522 H 142.033 -2.691 -3.40246 0
M  V30 1523 H 142.704 -2.34203 -4.99853 0
M  V30 1524 H 145.18 -0.630726 -4.11292 0
M  V30 1525 H 144.056 -0.390306 -5.47511 0
M  V30 1526 H 144.317 0.912229 -4.32586 0
M  V30 1527 N 143.376 1.44774 -0.622745 0
M  V30 1528 C 144.339 2.29069 0.0774015 0
M  V30 1529 C 145.339 1.4059 0.780461 0
M  V30 1530 O 146.529 1.62551 0.626322 0
M  V30 1531 C 143.661 3.21974 1.12006 0
M  V30 1532 H 144.854 2.92459 -0.663901 0
M  V30 1533 H 142.407 1.51548 -0.382486 0
M  V30 1534 H 143.142 2.63417 1.89162 0
M  V30 1535 H 142.927 3.87168 0.619951 0
M  V30 1536 H 144.417 3.85318 1.60995 0
M  V30 1537 N 144.854 0.36279 1.53368 0
M  V30 1538 C 146.103 -0.22888 2.00397 0
M  V30 1539 C 146.416 -1.50096 1.25421 0
M  V30 1540 O 147.622 -2.17106 1.63025 0
M  V30 1541 C 146.078 -0.458417 3.56969 0
M  V30 1542 C 145.686 0.798877 4.4082 0
M  V30 1543 C 147.43 -1.00789 4.12361 0
M  V30 1544 C 145.337 0.539078 5.88938 0
M  V30 1545 H 144.267 -0.089305 0.748693 0
M  V30 1546 H 146.918 0.481099 1.77081 0
M  V30 1547 H 145.3 -1.22959 3.76427 0
M  V30 1548 H 146.474 1.57262 4.33134 0
M  V30 1549 H 144.789 1.27137 3.96516 0
M  V30 1550 H 147.386 -1.21754 5.20653 0
M  V30 1551 H 147.729 -1.9692 3.66781 0
M  V30 1552 H 148.262 -0.296961 3.9669 0
M  V30 1553 H 145.001 1.47064 6.3879 0
M  V30 1554 H 144.521 -0.196222 5.99479 0
M  V30 1555 H 146.2 0.163542 6.46793 0
M  V30 1556 N 146.332 -1.57332 0.0918853 0
M  V30 1557 C 147.578 -1.94524 -0.573425 0
M  V30 1558 C 147.911 -0.973578 -1.68033 0
M  V30 1559 O 147.186 -0.00609226 -1.94499 0
M  V30 1560 C 147.469 -3.41858 -1.13161 0
M  V30 1561 C 147.322 -4.4979 -0.0299747 0
M  V30 1562 C 148.641 -3.90435 -2.03098 0
M  V30 1563 H 145.76 -0.70734 -0.206975 0
M  V30 1564 H 148.402 -1.89309 0.161942 0
M  V30 1565 H 146.552 -3.46433 -1.7583 0
M  V30 1566 H 148.224 -4.57327 0.604112 0
M  V30 1567 H 146.467 -4.291 0.636833 0
M  V30 1568 H 147.138 -5.50069 -0.461287 0
M  V30 1569 H 149.614 -3.87992 -1.50338 0
M  V30 1570 H 148.49 -4.94097 -2.39081 0
M  V30 1571 H 148.751 -3.29541 -2.94712 0
M  V30 1572 N 147.81 0.181792 -1.56548 0
M  V30 1573 C 149.058 0.89832 -1.81038 0
M  V30 1574 C 149.379 1.83232 -0.667164 0
M  V30 1575 O 148.649 1.93372 0.313673 0
M  V30 1576 H 147.229 0.33471 -0.667816 0
M  V30 1577 H 149.891 0.184116 -1.94028 0
M  V30 1578 H 148.987 1.4815 -2.74696 0
M  V30 1579 N 149.288 1.51039 0.449983 0
M  V30 1580 C 150.518 1.66627 1.22143 0
M  V30 1581 C 150.926 0.357776 1.85786 0
M  V30 1582 O 150.269 -0.672424 1.70951 0
M  V30 1583 C 150.331 2.71562 2.35573 0
M  V30 1584 C 149.995 4.14526 1.92399 0
M  V30 1585 C 150.992 4.99717 1.43453 0
M  V30 1586 C 148.677 4.60559 2.00475 0
M  V30 1587 C 150.671 6.28998 1.03155 0
M  V30 1588 C 148.358 5.8984 1.59788 0
M  V30 1589 C 149.356 6.73886 1.11208 0
M  V30 1590 O 149.044 8.0075 0.710935 0
M  V30 1591 H 148.776 0.562635 0.374724 0
M  V30 1592 H 151.33 1.98146 0.541036 0
M  V30 1593 H 149.56 2.3533 3.06849 0
M  V30 1594 H 151.249 2.76156 2.97478 0
M  V30 1595 H 152.015 4.65361 1.36618 0
M  V30 1596 H 147.894 3.95273 2.37235 0
M  V30 1597 H 151.438 6.9455 0.651663 0
M  V30 1598 H 147.335 6.23713 1.66289 0
M  V30 1599 H 148.103 8.142 0.837913 0
M  V30 1600 N 150.766 -0.704594 1.40972 0
M  V30 1601 C 151.696 -1.83124 1.44872 0
M  V30 1602 C 152.677 -1.67281 0.30838 0
M  V30 1603 O 153.862 -1.87149 0.518556 0
M  V30 1604 C 150.992 -3.21181 1.32136 0
M  V30 1605 C 149.946 -3.51714 2.43888 0
M  V30 1606 C 149.272 -4.89032 2.16222 0
M  V30 1607 C 150.572 -3.516 3.86232 0
M  V30 1608 H 152.266 -1.80117 2.39161 0
M  V30 1609 H 149.812 -0.865145 1.15114 0
M  V30 1610 H 151.765 -3.99702 1.33479 0
M  V30 1611 H 150.489 -3.24791 0.343279 0
M  V30 1612 H 149.148 -2.75539 2.41813 0
M  V30 1613 H 148.796 -4.89256 1.16778 0
M  V30 1614 H 148.496 -5.10426 2.911 0
M  V30 1615 H 150.02 -5.69873 2.19265 0
M  V30 1616 H 151.434 -4.2014 3.9007 0
M  V30 1617 H 149.831 -3.84523 4.60719 0
M  V30 1618 H 150.901 -2.50757 4.15029 0
M  V30 1619 N 152.244 -1.26651 -0.937939 0
M  V30 1620 C 153.66 -1.03834 -1.21205 0
M  V30 1621 C 153.86 0.234502 -2.00131 0
M  V30 1622 O 152.916 0.942767 -2.3424 0
M  V30 1623 C 154.229 -2.27167 -1.97017 0
M  V30 1624 C 155.777 -2.32101 -2.09996 0
M  V30 1625 C 156.252 -3.55136 -2.8921 0
M  V30 1626 N 157.743 -3.55632 -2.96783 0
M  V30 1627 C 158.478 -4.475 -3.58512 0
M  V30 1628 N 157.974 -5.4966 -4.21717 0
M  V30 1629 N 159.767 -4.35145 -3.55816 0
M  V30 1630 H 151.918 -2.08398 -0.410391 0
M  V30 1631 H 154.181 -0.916031 -0.244114 0
M  V30 1632 H 153.887 -3.19765 -1.46434 0
M  V30 1633 H 153.761 -2.31672 -2.97671 0
M  V30 1634 H 156.148 -1.40015 -2.59769 0
M  V30 1635 H 156.229 -2.31605 -1.08594 0
M  V30 1636 H 155.873 -4.47553 -2.40123 0
M  V30 1637 H 155.803 -3.5288 -3.90875 0
M  V30 1638 H 158.294 -2.81743 -2.51852 0
M  V30 1639 H 158.607 -6.15943 -4.66727 0
M  V30 1640 H 156.952 -5.53514 -4.20294 0
M  V30 1641 H 160.143 -3.5455 -3.05634 0
M  V30 1642 H 160.316 -5.06934 -4.03636 0
M  V30 1643 N 153.722 1.14298 -1.08507 0
M  V30 1644 C 155.133 1.66926 -0.836227 0
M  V30 1645 C 155.484 1.85576 0.63686 0
M  V30 1646 O 154.609 1.56767 1.49175 0
M  V30 1647 C 155.204 3.03219 -1.51142 0
M  V30 1648 C 153.763 3.52876 -1.30979 0
M  V30 1649 C 152.91 2.2833 -1.57356 0
M  V30 1650 H 155.861 0.983491 -1.24552 0
M  V30 1651 H 155.882 3.68726 -0.939211 0
M  V30 1652 H 155.394 2.89612 -2.58353 0
M  V30 1653 H 153.495 3.71703 -0.258429 0
M  V30 1654 H 153.608 4.33586 -2.03814 0
M  V30 1655 H 151.972 2.34454 -0.995164 0
M  V30 1656 H 152.755 2.17298 -2.65775 0
M  V30 1657 N 155.201 0.870884 1.31352 0
M  V30 1658 C 156.111 0.330783 2.32256 0
M  V30 1659 C 157.127 -0.559767 1.6475 0
M  V30 1660 O 158.303 -0.456263 1.96164 0
M  V30 1661 C 155.368 -0.458137 3.4366 0
M  V30 1662 C 154.429 0.460482 4.26823 0
M  V30 1663 C 153.662 -0.290881 5.32907 0
M  V30 1664 O 153.885 -1.51885 5.49806 0
M  V30 1665 O 152.819 0.351732 6.00871 0
M  V30 1666 H 156.645 1.16718 2.80376 0
M  V30 1667 H 154.23 0.634285 1.35267 0
M  V30 1668 H 156.112 -0.905343 4.1156 0
M  V30 1669 H 154.787 -1.27106 2.97701 0
M  V30 1670 H 153.694 0.956207 3.61673 0
M  V30 1671 H 155.027 1.23903 4.7635 0
M  V30 1672 N 156.679 -1.44442 0.630414 0
M  V30 1673 C 157.626 -2.30678 -0.0749355 0
M  V30 1674 C 158.596 -1.4344 -0.837502 0
M  V30 1675 O 159.781 -1.72343 -0.818684 0
M  V30 1676 C 156.921 -3.28706 -1.05103 0
M  V30 1677 C 156.034 -4.31046 -0.286954 0
M  V30 1678 C 155.169 -5.16167 -1.2548 0
M  V30 1679 C 154.208 -6.10216 -0.479843 0
M  V30 1680 N 153.345 -6.88039 -1.39811 0
M  V30 1681 H 158.185 -2.90454 0.666386 0
M  V30 1682 H 155.722 -1.43107 0.340404 0
M  V30 1683 H 157.68 -3.84027 -1.63031 0
M  V30 1684 H 156.31 -2.70632 -1.75949 0
M  V30 1685 H 155.362 -3.78203 0.408243 0
M  V30 1686 H 156.674 -4.97794 0.316657 0
M  V30 1687 H 155.828 -5.76002 -1.90544 0
M  V30 1688 H 154.567 -4.49491 -1.89233 0
M  V30 1689 H 153.572 -5.49491 0.184295 0
M  V30 1690 H 154.797 -6.78928 0.152965 0
M  V30 1691 H 152.743 -6.24032 -2.02287 0
M  V30 1692 H 152.66 -7.51223 -0.848508 0
M  V30 1693 H 153.928 -7.52397 -2.03762 0
M  V30 1694 N 158.157 -0.370918 -1.53173 0
M  V30 1695 C 159.105 0.488101 -2.27421 0
M  V30 1696 C 160.099 1.07884 -1.30604 0
M  V30 1697 O 161.305 1.02143 -1.48212 0
M  V30 1698 H 157.68 0.176134 -0.731082 0
M  V30 1699 H 159.651 -0.159815 -2.97972 0
M  V30 1700 C 158.4 1.61306 -3.08019 0
M  V30 1701 H 157.723 1.1678 -3.82364 0
M  V30 1702 H 159.163 2.18872 -3.63141 0
M  V30 1703 C 157.622 2.55848 -2.19188 0
M  V30 1704 O 158.152 3.58799 -1.80626 0
M  V30 1705 N 156.358 2.2516 -1.83715 0
M  V30 1706 H 155.905 1.41476 -2.15273 0
M  V30 1707 H 155.863 2.8867 -1.24567 0
M  V30 1708 N 159.635 1.57281 -0.100228 0
M  V30 1709 C 160.882 1.94537 0.562268 0
M  V30 1710 C 161.21 0.982315 1.67871 0
M  V30 1711 O 160.465 0.00280936 1.957 0
M  V30 1712 C 160.764 3.38305 1.15259 0
M  V30 1713 C 160.43 4.50618 0.159409 0
M  V30 1714 C 159.092 4.81066 -0.113741 0
M  V30 1715 C 161.444 5.18615 -0.518461 0
M  V30 1716 C 158.772 5.76835 -1.07137 0
M  V30 1717 C 161.124 6.15412 -1.46459 0
M  V30 1718 C 159.788 6.44262 -1.74592 0
M  V30 1719 H 159.058 0.711863 0.205748 0
M  V30 1720 H 161.705 1.90679 -0.17715 0
M  V30 1721 H 160.01 3.38766 1.96836 0
M  V30 1722 H 161.707 3.64435 1.67297 0
M  V30 1723 H 158.297 4.2689 0.382491 0
M  V30 1724 H 162.481 4.95264 -0.320581 0
M  V30 1725 H 157.737 5.975 -1.29628 0
M  V30 1726 H 161.911 6.67194 -1.99564 0
M  V30 1727 H 159.538 7.1828 -2.48953 0
M  V30 1728 N 161.113 -0.173488 1.56642 0
M  V30 1729 C 162.39 -0.917617 1.7274 0
M  V30 1730 C 162.77 -2.00484 0.661027 0
M  V30 1731 O 162.118 -2.26184 -0.32453 0
M  V30 1732 C 162.328 -1.48433 3.15862 0
M  V30 1733 C 163.676 -1.95809 3.76754 0
M  V30 1734 O 164.7 -1.58231 3.19126 0
M  V30 1735 O 163.559 -2.65024 4.77938 0
M  V30 1736 H 160.653 -0.431772 0.705338 0
M  V30 1737 H 163.199 -0.161487 1.6893 0
M  V30 1738 H 161.971 -0.701715 3.84957 0
M  V30 1739 H 161.594 -2.30471 3.23989 0
M  V30 1740 N 162.591 -1.51276 -0.441967 0
M  V30 1741 C 163.816 -1.67799 -1.21895 0
M  V30 1742 C 164.241 -0.372864 -1.84367 0
M  V30 1743 O 163.599 0.666501 -1.68604 0
M  V30 1744 C 163.647 -2.79199 -2.28211 0
M  V30 1745 O 162.751 -2.42479 -3.33583 0
M  V30 1746 H 162.092 -0.559649 -0.357336 0
M  V30 1747 H 164.622 -1.97815 -0.522522 0
M  V30 1748 H 164.632 -3.03146 -2.73069 0
M  V30 1749 H 163.307 -3.73906 -1.82118 0
M  V30 1750 H 161.884 -2.29087 -2.94234 0
M  V30 1751 N 164.069 0.697108 -1.41344 0
M  V30 1752 C 164.999 1.82353 -1.45841 0
M  V30 1753 C 165.98 1.67115 -0.317247 0
M  V30 1754 O 167.165 1.86871 -0.528474 0
M  V30 1755 C 164.295 3.20476 -1.33838 0
M  V30 1756 C 163.249 3.50415 -2.4575 0
M  V30 1757 C 162.575 4.87878 -2.18813 0
M  V30 1758 C 163.875 3.49546 -3.88091 0
M  V30 1759 H 165.569 1.78846 -2.40113 0
M  V30 1760 H 163.115 0.859028 -1.15571 0
M  V30 1761 H 165.068 3.98988 -1.35596 0
M  V30 1762 H 163.792 3.24604 -0.360498 0
M  V30 1763 H 162.451 2.74253 -2.43271 0
M  V30 1764 H 162.099 4.8863 -1.19371 0
M  V30 1765 H 161.799 5.08875 -2.93803 0
M  V30 1766 H 163.323 5.68702 -2.22284 0
M  V30 1767 H 164.737 4.18066 -3.92293 0
M  V30 1768 H 163.134 3.82075 -4.62751 0
M  V30 1769 H 164.204 2.48552 -4.16353 0
M  V30 1770 N 165.547 1.27147 0.931209 0
M  V30 1771 C 166.457 1.11372 2.06478 0
M  V30 1772 C 167.473 0.044645 1.73943 0
M  V30 1773 O 168.649 0.250417 1.99837 0
M  V30 1774 C 165.714 0.758838 3.38294 0
M  V30 1775 C 164.775 1.90841 3.84549 0
M  V30 1776 C 164.008 1.57036 5.10074 0
M  V30 1777 O 164.231 0.476645 5.68405 0
M  V30 1778 O 163.165 2.40839 5.51616 0
M  V30 1779 H 166.991 2.06493 2.22698 0
M  V30 1780 H 164.576 1.06301 1.04978 0
M  V30 1781 H 166.458 0.574098 4.17471 0
M  V30 1782 H 165.133 -0.162879 3.2329 0
M  V30 1783 H 164.04 2.14819 3.06274 0
M  V30 1784 H 165.373 2.81021 4.04089 0
M  V30 1785 N 167.025 -1.13721 1.09112 0
M  V30 1786 C 168.25 -1.89314 0.847053 0
M  V30 1787 C 168.675 -1.78416 -0.595774 0
M  V30 1788 O 168.033 -1.12942 -1.41823 0
M  V30 1789 C 168.081 -3.3701 1.28284 0
M  V30 1790 O 167.185 -4.10054 0.439267 0
M  V30 1791 H 166.526 -0.588745 0.307044 0
M  V30 1792 H 169.056 -1.43902 1.45442 0
M  V30 1793 H 169.066 -3.87834 1.26683 0
M  V30 1794 H 167.741 -3.4426 2.33363 0
M  V30 1795 H 166.318 -3.69266 0.519312 0
M  V30 1796 N 168.503 -0.877838 -1.30888 0
M  V30 1797 C 169.433 -0.35534 -2.3078 0
M  V30 1798 C 170.414 0.557994 -1.60687 0
M  V30 1799 O 171.599 0.473355 -1.88343 0
M  V30 1800 C 168.729 0.437221 -3.44537 0
M  V30 1801 C 167.683 -0.383715 -4.26276 0
M  V30 1802 C 167.009 0.535014 -5.32017 0
M  V30 1803 C 168.309 -1.62201 -4.96476 0
M  V30 1804 H 170.003 -1.19007 -2.74732 0
M  V30 1805 H 167.549 -0.573698 -1.32078 0
M  V30 1806 H 169.502 0.813334 -4.13477 0
M  V30 1807 H 168.226 1.30553 -2.99372 0
M  V30 1808 H 166.885 -0.741874 -3.59015 0
M  V30 1809 H 166.533 1.40083 -4.831 0
M  V30 1810 H 166.233 -0.0104211 -5.87599 0
M  V30 1811 H 167.757 0.907799 -6.03814 0
M  V30 1812 H 169.171 -1.31689 -5.5797 0
M  V30 1813 H 167.568 -2.10711 -5.61891 0
M  V30 1814 H 168.638 -2.37044 -4.23011 0
M  V30 1815 N 169.982 1.44106 -0.638065 0
M  V30 1816 C 171.231 2.01194 -0.142744 0
M  V30 1817 C 171.544 1.50835 1.24532 0
M  V30 1818 O 172.75 2.00096 1.83504 0
M  V30 1819 C 171.206 3.59319 -0.20442 0
M  V30 1820 C 170.814 4.18674 -1.59423 0
M  V30 1821 C 172.558 4.23854 0.234079 0
M  V30 1822 C 170.465 5.69045 -1.61065 0
M  V30 1823 H 169.395 0.752367 -0.0495998 0
M  V30 1824 H 172.046 1.65246 -0.797881 0
M  V30 1825 H 170.428 3.92598 0.517946 0
M  V30 1826 H 171.602 3.96921 -2.34074 0
M  V30 1827 H 169.917 3.66453 -1.97741 0
M  V30 1828 H 172.514 5.34155 0.241443 0
M  V30 1829 H 172.857 3.96688 1.2627 0
M  V30 1830 H 173.39 3.95403 -0.436025 0
M  V30 1831 H 170.129 6.00956 -2.61787 0
M  V30 1832 H 169.649 5.929 -0.90718 0
M  V30 1833 H 171.328 6.32809 -1.34766 0
M  V30 1834 N 171.46 0.379036 1.52974 0
M  V30 1835 C 172.685 -0.209353 2.06341 0
M  V30 1836 C 173.11 -1.40583 1.24972 0
M  V30 1837 O 172.468 -1.79246 0.272155 0
M  V30 1838 C 172.516 -0.567786 3.56102 0
M  V30 1839 O 171.62 -1.66318 3.77375 0
M  V30 1840 H 170.961 -0.0272919 0.663439 0
M  V30 1841 H 173.491 0.543536 1.97248 0
M  V30 1842 H 173.501 -0.835003 3.99364 0
M  V30 1843 H 172.176 0.307013 4.14765 0
M  V30 1844 H 170.753 -1.39048 3.46006 0
M  V30 1845 N 172.938 -1.57226 0.108567 0
M  V30 1846 C 173.901 -2.13602 -0.831082 0
M  V30 1847 C 174.901 -1.06841 -1.20173 0
M  V30 1848 O 176.091 -1.32666 -1.12895 0
M  V30 1849 C 173.223 -2.66769 -2.12243 0
M  V30 1850 H 174.416 -2.97951 -0.341317 0
M  V30 1851 H 171.969 -1.55667 -0.14057 0
M  V30 1852 H 172.704 -1.85977 -2.65675 0
M  V30 1853 H 172.489 -3.44839 -1.86625 0
M  V30 1854 H 173.979 -3.10332 -2.79435 0
M  V30 1855 N 174.416 0.165178 -1.56732 0
M  V30 1856 C 175.665 0.879143 -1.81532 0
M  V30 1857 C 175.978 1.83144 -0.686842 0
M  V30 1858 O 177.184 2.58823 -0.819944 0
M  V30 1859 C 175.64 1.61388 -3.21686 0
M  V30 1860 C 175.248 0.704904 -4.4242 0
M  V30 1861 C 176.992 2.3157 -3.55774 0
M  V30 1862 C 174.899 1.44022 -5.73595 0
M  V30 1863 H 173.829 0.332033 -0.676957 0
M  V30 1864 H 176.48 0.132008 -1.83025 0
M  V30 1865 H 174.862 2.40599 -3.14529 0
M  V30 1866 H 176.036 -0.0506815 -4.60772 0
M  V30 1867 H 174.351 0.112419 -4.16248 0
M  V30 1868 H 176.948 2.8719 -4.51028 0
M  V30 1869 H 177.291 3.07201 -2.8095 0
M  V30 1870 H 177.824 1.59297 -3.64513 0
M  V30 1871 H 174.563 0.72612 -6.51466 0
M  V30 1872 H 174.083 2.16898 -5.5921 0
M  V30 1873 H 175.762 1.98606 -6.15764 0
M  V30 1874 N 175.894 1.51508 0.433938 0
M  V30 1875 C 176.826 1.69266 1.54537 0
M  V30 1876 C 177.839 0.573276 1.52373 0
M  V30 1877 O 179.028 0.847698 1.57087 0
M  V30 1878 C 176.128 1.69524 2.93453 0
M  V30 1879 C 175.301 2.98101 3.20085 0
M  V30 1880 C 174.36 2.90502 4.38742 0
M  V30 1881 O 173.386 3.64442 4.3723 0
M  V30 1882 N 174.588 2.06586 5.42496 0
M  V30 1883 H 177.353 2.65145 1.39708 0
M  V30 1884 H 174.914 1.49437 0.622922 0
M  V30 1885 H 176.906 1.62004 3.70859 0
M  V30 1886 H 175.476 0.812245 3.01863 0
M  V30 1887 H 174.696 3.19464 2.30947 0
M  V30 1888 H 175.984 3.83207 3.34708 0
M  V30 1889 H 175.382 1.45896 5.46563 0
M  V30 1890 H 173.939 2.04943 6.18742 0
M  V30 1891 N 177.372 -0.689602 1.41712 0
M  V30 1892 C 178.62 -1.4468 1.4111 0
M  V30 1893 C 178.941 -1.94986 0.0232196 0
M  V30 1894 O 178.211 -1.72097 -0.935913 0
M  V30 1895 H 176.791 -0.536847 0.519427 0
M  V30 1896 H 179.453 -0.815825 1.77004 0
M  V30 1897 H 178.549 -2.30706 2.10193 0
M  V30 1898 N 178.85 -1.27639 -0.924453 0
M  V30 1899 C 180.127 -1.04887 -1.651 0
M  V30 1900 C 180.507 0.415327 -2.06974 0
M  V30 1901 O 179.855 1.39923 -1.80648 0
M  V30 1902 C 180.065 -2.01348 -2.85061 0
M  V30 1903 C 181.413 -2.30899 -3.56329 0
M  V30 1904 O 182.437 -1.99348 -2.95193 0
M  V30 1905 O 181.296 -2.84699 -4.66485 0
M  V30 1906 H 178.39 -0.400083 -0.723784 0
M  V30 1907 H 180.936 -1.38916 -0.974703 0
M  V30 1908 H 179.708 -3.0008 -2.51133 0
M  V30 1909 H 179.331 -1.679 -3.6041 0
M  V30 1910 N 180.328 1.1314 -1.09713 0
M  V30 1911 C 181.577 1.83838 -0.829851 0
M  V30 1912 C 181.89 1.84599 0.646728 0
M  V30 1913 O 183.096 2.51218 1.02965 0
M  V30 1914 C 181.552 3.30069 -1.43466 0
M  V30 1915 C 181.16 3.37688 -2.94399 0
M  V30 1916 C 182.904 4.05788 -1.24645 0
M  V30 1917 C 180.811 4.78209 -3.47952 0
M  V30 1918 H 179.741 0.68877 -0.306777 0
M  V30 1919 H 182.392 1.27448 -1.3202 0
M  V30 1920 H 180.774 3.8628 -0.871996 0
M  V30 1921 H 181.948 2.91456 -3.56918 0
M  V30 1922 H 180.263 2.75436 -3.12289 0
M  V30 1923 H 182.86 5.09535 -1.62107 0
M  V30 1924 H 183.203 4.15878 -0.187357 0
M  V30 1925 H 183.736 3.55915 -1.77678 0
M  V30 1926 H 180.475 4.73311 -4.53495 0
M  V30 1927 H 179.995 5.24924 -2.90198 0
M  V30 1928 H 181.674 5.47133 -3.45332 0
M  V30 1929 N 181.806 0.884767 1.30421 0
M  V30 1930 C 182.716 0.355398 2.31892 0
M  V30 1931 C 183.732 -0.542261 1.65335 0
M  V30 1932 O 184.908 -0.435432 1.96637 0
M  V30 1933 C 181.973 -0.421661 3.44126 0
M  V30 1934 C 181.034 0.505727 4.26311 0
M  V30 1935 C 180.267 -0.234343 5.33185 0
M  V30 1936 O 180.49 -1.46045 5.51386 0
M  V30 1937 O 179.424 0.415443 6.00465 0
M  V30 1938 H 183.25 1.19685 2.79122 0
M  V30 1939 H 180.835 0.648596 1.34587 0
M  V30 1940 H 182.717 -0.861641 4.12497 0
M  V30 1941 H 181.392 -1.23942 2.99032 0
M  V30 1942 H 180.299 0.994513 3.60639 0
M  V30 1943 H 181.632 1.28948 4.75009 0
M  V30 1944 N 183.284 -1.43765 0.645699 0
M  V30 1945 C 184.194 -2.34544 -0.0512957 0
M  V30 1946 C 185.21 -1.53455 -0.82022 0
M  V30 1947 O 186.386 -1.86133 -0.769176 0
M  V30 1948 C 183.451 -3.31636 -1.01087 0
M  V30 1949 C 182.512 -4.2863 -0.239712 0
M  V30 1950 C 181.745 -5.21084 -1.15358 0
M  V30 1951 O 181.968 -5.1779 -2.39269 0
M  V30 1952 O 180.902 -5.98593 -0.630038 0
M  V30 1953 H 184.728 -2.95624 0.695718 0
M  V30 1954 H 182.313 -1.43781 0.405882 0
M  V30 1955 H 184.195 -3.9136 -1.56254 0
M  V30 1956 H 182.87 -2.73069 -1.73824 0
M  V30 1957 H 181.777 -3.72408 0.355356 0
M  V30 1958 H 183.11 -4.90157 0.447936 0
M  V30 1959 N 184.763 -0.387143 -1.52771 0
M  V30 1960 C 185.726 0.436939 -2.24997 0
M  V30 1961 C 186.726 0.991991 -1.26555 0
M  V30 1962 O 187.916 0.874335 -1.50669 0
M  V30 1963 C 185.048 1.61281 -3.00335 0
M  V30 1964 H 186.241 -0.195365 -2.99263 0
M  V30 1965 H 183.794 -0.139218 -1.55679 0
M  V30 1966 H 184.529 2.2826 -2.30364 0
M  V30 1967 H 184.314 1.22154 -3.72587 0
M  V30 1968 H 185.804 2.19629 -3.5518 0
M  V30 1969 N 186.241 1.57166 -0.116904 0
M  V30 1970 C 187.188 2.15202 0.83408 0
M  V30 1971 C 188.158 1.07644 1.26499 0
M  V30 1972 O 189.343 1.35541 1.34288 0
M  V30 1973 C 186.483 2.75405 2.07957 0
M  V30 1974 C 185.596 3.97264 1.69721 0
M  V30 1975 C 184.731 4.45561 2.89221 0
M  V30 1976 C 183.77 5.59956 2.47215 0
M  V30 1977 N 182.907 6.03006 3.59622 0
M  V30 1978 H 187.747 2.96141 0.332335 0
M  V30 1979 H 185.284 1.46309 0.152349 0
M  V30 1980 H 187.242 3.08439 2.80929 0
M  V30 1981 H 185.872 1.97159 2.55594 0
M  V30 1982 H 184.924 3.70404 0.866316 0
M  V30 1983 H 186.236 4.80226 1.34849 0
M  V30 1984 H 185.39 4.80493 3.7042 0
M  V30 1985 H 184.129 3.61544 3.27318 0
M  V30 1986 H 183.134 5.2463 1.64448 0
M  V30 1987 H 184.359 6.45738 2.10238 0
M  V30 1988 H 182.305 5.21931 3.97396 0
M  V30 1989 H 182.222 6.80819 3.28667 0
M  V30 1990 H 183.49 6.42576 4.41267 0
M  V30 1991 N 187.719 -0.156864 1.56817 0
M  V30 1992 C 188.666 -1.19394 1.97519 0
M  V30 1993 C 189.636 -1.4322 0.841265 0
M  V30 1994 O 190.821 -1.55719 1.10255 0
M  V30 1995 C 187.961 -2.52483 2.35258 0
M  V30 1996 C 187.074 -2.35914 3.61896 0
M  V30 1997 C 186.209 -3.61969 3.88782 0
M  V30 1998 C 185.248 -3.40395 5.08722 0
M  V30 1999 N 184.385 -4.58556 5.31668 0
M  V30 2000 H 189.225 -0.839845 2.85921 0
M  V30 2001 H 186.762 -0.403264 1.41464 0
M  V30 2002 H 188.72 -3.30071 2.55165 0
M  V30 2003 H 187.35 -2.85859 1.49949 0
M  V30 2004 H 186.402 -1.49429 3.49821 0
M  V30 2005 H 187.714 -2.15926 4.49641 0
M  V30 2006 H 186.868 -4.47989 4.09135 0
M  V30 2007 H 185.607 -3.84951 2.9944 0
M  V30 2008 H 184.612 -2.52763 4.88253 0
M  V30 2009 H 185.837 -3.18822 5.99608 0
M  V30 2010 H 183.783 -4.81729 4.45279 0
M  V30 2011 H 183.7 -4.41535 6.13664 0
M  V30 2012 H 184.968 -5.45817 5.5651 0
M  V30 2013 N 189.197 -1.51736 -0.425897 0
M  V30 2014 C 190.613 -1.40166 -0.76326 0
M  V30 2015 C 190.813 -0.492962 -1.95377 0
M  V30 2016 O 189.869 0.0475815 -2.52455 0
M  V30 2017 C 191.182 -2.82403 -1.03291 0
M  V30 2018 C 192.73 -2.91632 -1.13665 0
M  V30 2019 C 193.205 -4.34801 -1.43916 0
M  V30 2020 N 194.696 -4.3796 -1.50816 0
M  V30 2021 C 195.431 -5.4578 -1.75817 0
M  V30 2022 N 194.927 -6.63744 -1.98534 0
M  V30 2023 N 196.72 -5.33274 -1.77694 0
M  V30 2024 H 188.871 -2.09361 0.358 0
M  V30 2025 H 191.134 -0.942941 0.0978094 0
M  V30 2026 H 190.84 -3.50943 -0.230696 0
M  V30 2027 H 190.714 -3.22428 -1.95754 0
M  V30 2028 H 193.101 -2.23284 -1.92947 0
M  V30 2029 H 193.182 -2.55088 -0.190756 0
M  V30 2030 H 192.826 -5.03703 -0.65157 0
M  V30 2031 H 192.756 -4.68868 -2.39729 0
M  V30 2032 H 195.247 -3.52919 -1.35118 0
M  V30 2033 H 195.56 -7.41704 -2.17013 0
M  V30 2034 H 193.905 -6.66839 -1.95832 0
M  V30 2035 H 197.096 -4.40098 -1.59473 0
M  V30 2036 H 197.269 -6.1738 -1.9684 0
M  V30 2037 N 190.675 0.682077 -1.42076 0
M  V30 2038 C 191.605 1.80796 -1.47767 0
M  V30 2039 C 192.586 1.6677 -0.334954 0
M  V30 2040 O 193.771 1.863 -0.548264 0
M  V30 2041 C 190.901 3.19038 -1.37229 0
M  V30 2042 C 189.855 3.47789 -2.49453 0
M  V30 2043 C 189.181 4.8553 -2.23975 0
M  V30 2044 C 190.481 3.45411 -3.91776 0
M  V30 2045 H 192.175 1.7629 -2.41997 0
M  V30 2046 H 189.721 0.846721 -1.16476 0
M  V30 2047 H 191.674 3.97528 -1.39821 0
M  V30 2048 H 190.398 3.24204 -0.394907 0
M  V30 2049 H 189.057 2.71657 -2.46166 0
M  V30 2050 H 188.705 4.87337 -1.24547 0
M  V30 2051 H 188.405 5.0573 -2.99184 0
M  V30 2052 H 189.929 5.66312 -2.28304 0
M  V30 2053 H 191.343 4.13882 -3.96705 0
M  V30 2054 H 189.74 3.77145 -4.66778 0
M  V30 2055 H 190.81 2.44122 -4.18966 0
M  V30 2056 N 192.153 1.28127 0.917671 0
M  V30 2057 C 193.063 1.13556 2.05286 0
M  V30 2058 C 194.079 0.0630914 1.73886 0
M  V30 2059 O 195.255 0.271598 1.9956 0
M  V30 2060 C 192.32 0.794676 3.3747 0
M  V30 2061 C 191.381 1.94909 3.82504 0
M  V30 2062 C 190.614 1.62437 5.0838 0
M  V30 2063 O 190.837 0.536905 5.67867 0
M  V30 2064 O 189.771 2.46677 5.4903 0
M  V30 2065 H 193.597 2.08844 2.20495 0
M  V30 2066 H 191.182 1.07409 1.03845 0
M  V30 2067 H 193.064 0.618344 4.16839 0
M  V30 2068 H 191.739 -0.128581 3.23445 0
M  V30 2069 H 190.646 2.18055 3.03978 0
M  V30 2070 H 191.979 2.85291 4.01086 0
M  V30 2071 N 193.631 -1.12557 1.10312 0
M  V30 2072 C 194.561 -2.20341 0.772798 0
M  V30 2073 C 195.542 -1.68198 -0.25365 0
M  V30 2074 O 196.727 -1.93831 -0.119699 0
M  V30 2075 C 193.857 -3.46709 0.202443 0
M  V30 2076 C 192.811 -4.11996 1.15943 0
M  V30 2077 C 192.137 -5.328 0.450345 0
M  V30 2078 C 193.437 -4.5828 2.50552 0
M  V30 2079 H 195.131 -2.48229 1.674 0
M  V30 2080 H 192.677 -1.19308 0.806326 0
M  V30 2081 H 194.63 -4.2138 -0.0407752 0
M  V30 2082 H 193.354 -3.18245 -0.734001 0
M  V30 2083 H 192.013 -3.39305 1.38808 0
M  V30 2084 H 191.661 -5.00602 -0.490531 0
M  V30 2085 H 191.361 -5.7743 1.08851 0
M  V30 2086 H 192.885 -6.10219 0.215642 0
M  V30 2087 H 194.299 -5.2433 2.31843 0
M  V30 2088 H 192.696 -5.13683 3.10242 0
M  V30 2089 H 193.766 -3.72329 3.10643 0
M  V30 2090 N 195.109 -0.891671 -1.2995 0
M  V30 2091 C 196.52 -0.563104 -1.78006 0
M  V30 2092 C 196.871 0.920978 -1.73241 0
M  V30 2093 O 195.996 1.71987 -1.31337 0
M  V30 2094 C 196.591 -1.01539 -3.23226 0
M  V30 2095 C 195.15 -0.738124 -3.69092 0
M  V30 2096 C 194.297 -1.19461 -2.50249 0
M  V30 2097 H 197.248 -1.07522 -1.16725 0
M  V30 2098 H 197.269 -0.347217 -3.78912 0
M  V30 2099 H 196.781 -2.09555 -3.26662 0
M  V30 2100 H 194.882 0.329766 -3.71138 0
M  V30 2101 H 194.995 -1.33037 -4.60259 0
M  V30 2102 H 193.359 -0.613787 -2.47194 0
M  V30 2103 H 194.142 -2.28265 -2.56417 0
M  V30 2104 N 196.587 1.43421 -0.653314 0
M  V30 2105 C 197.497 2.34568 0.0388565 0
M  V30 2106 C 198.513 1.53888 0.81207 0
M  V30 2107 O 199.689 1.86539 0.759294 0
M  V30 2108 C 196.754 3.32167 0.993269 0
M  V30 2109 C 195.815 4.28751 0.216977 0
M  V30 2110 C 195.048 5.21688 1.12593 0
M  V30 2111 O 195.271 5.19052 2.36519 0
M  V30 2112 O 194.205 5.98919 0.598284 0
M  V30 2113 H 198.031 2.95251 -0.711386 0
M  V30 2114 H 195.616 1.43564 -0.413502 0
M  V30 2115 H 197.498 3.92183 1.54176 0
M  V30 2116 H 196.173 2.73987 1.72374 0
M  V30 2117 H 195.08 3.72215 -0.375101 0
M  V30 2118 H 196.413 4.89913 -0.473924 0
M  V30 2119 N 198.065 0.39524 1.52563 0
M  V30 2120 C 199.015 -0.4541 2.23432 0
M  V30 2121 C 199.999 -1.02482 1.24042 0
M  V30 2122 O 201.191 -0.949938 1.49349 0
M  V30 2123 C 198.32 -1.57769 3.049 0
M  V30 2124 C 197.406 -1.01842 4.1169 0
M  V30 2125 N 197.797 -0.184613 5.05463 0
M  V30 2126 C 196.095 -1.29033 4.26927 0
M  V30 2127 C 196.796 0.125013 5.81566 0
M  V30 2128 N 195.772 -0.480498 5.41472 0
M  V30 2129 H 199.574 0.189413 2.93289 0
M  V30 2130 H 197.088 0.204877 1.61102 0
M  V30 2131 H 199.085 -2.19862 3.54212 0
M  V30 2132 H 197.745 -2.22397 2.36579 0
M  V30 2133 H 198.756 0.178602 5.17592 0
M  V30 2134 H 195.433 -1.93721 3.69836 0
M  V30 2135 H 196.823 0.800962 6.67109 0
M  V30 2136 N 199.544 -1.57102 0.125237 0
M  V30 2137 C 200.474 -2.18659 -0.819174 0
M  V30 2138 C 201.455 -1.12843 -1.27281 0
M  V30 2139 O 202.64 -1.41104 -1.33429 0
M  V30 2140 C 199.77 -2.79096 -2.06695 0
M  V30 2141 C 198.724 -3.90548 -1.75088 0
M  V30 2142 C 198.05 -4.37821 -3.06948 0
M  V30 2143 C 199.35 -5.12356 -1.01435 0
M  V30 2144 H 201.044 -2.9783 -0.306202 0
M  V30 2145 H 198.59 -1.4326 -0.145839 0
M  V30 2146 H 200.543 -3.2082 -2.73226 0
M  V30 2147 H 199.267 -1.97223 -2.60328 0
M  V30 2148 H 197.926 -3.49409 -1.10944 0
M  V30 2149 H 197.574 -3.52799 -3.58527 0
M  V30 2150 H 197.274 -5.12982 -2.86571 0
M  V30 2151 H 198.798 -4.822 -3.74587 0
M  V30 2152 H 200.212 -5.5106 -1.58132 0
M  V30 2153 H 198.609 -5.9314 -0.911319 0
M  V30 2154 H 199.679 -4.849 -0.00218681 0
M  V30 2155 N 201.022 0.148545 -1.56898 0
M  V30 2156 C 201.969 1.18345 -1.98149 0
M  V30 2157 C 202.939 1.42772 -0.848848 0
M  V30 2158 O 204.124 1.55132 -1.11079 0
M  V30 2159 C 201.264 2.51231 -2.36594 0
M  V30 2160 C 200.377 2.33991 -3.63142 0
M  V30 2161 C 199.512 3.59902 -3.90697 0
M  V30 2162 C 198.551 3.37692 -5.1052 0
M  V30 2163 N 197.688 4.5573 -5.34092 0
M  V30 2164 H 202.528 0.82467 -2.86362 0
M  V30 2165 H 200.065 0.395756 -1.41676 0
M  V30 2166 H 202.023 3.28713 -2.56912 0
M  V30 2167 H 200.653 2.85059 -1.51463 0
M  V30 2168 H 199.705 1.47572 -3.50609 0
M  V30 2169 H 201.017 2.13539 -4.5078 0
M  V30 2170 H 200.171 4.45813 -4.11505 0
M  V30 2171 H 198.91 3.83357 -3.01477 0
M  V30 2172 H 197.915 2.5017 -4.89587 0
M  V30 2173 H 199.14 3.15637 -6.0129 0
M  V30 2174 H 197.086 4.79361 -4.47827 0
M  V30 2175 H 197.003 4.38274 -6.15996 0
M  V30 2176 H 198.271 5.42858 -5.59397 0
M  V30 2177 N 202.5 1.5196 0.417844 0
M  V30 2178 C 203.749 1.6482 1.16264 0
M  V30 2179 C 204.062 0.379886 1.91876 0
M  V30 2180 O 205.268 0.388154 2.68711 0
M  V30 2181 C 203.724 2.91161 2.1155 0
M  V30 2182 C 203.332 4.25068 1.41495 0
M  V30 2183 C 205.076 3.13383 2.86341 0
M  V30 2184 C 202.983 5.42541 2.35379 0
M  V30 2185 H 201.913 0.613954 0.437694 0
M  V30 2186 H 204.564 1.78442 0.427871 0
M  V30 2187 H 202.946 2.71218 2.88543 0
M  V30 2188 H 204.12 4.55463 0.699263 0
M  V30 2189 H 202.435 4.0888 0.787792 0
M  V30 2190 H 205.032 3.98324 3.5671 0
M  V30 2191 H 205.375 2.27256 3.48798 0
M  V30 2192 H 205.908 3.33757 2.1645 0
M  V30 2193 H 202.647 6.30987 1.77582 0
M  V30 2194 H 202.167 5.16497 3.04945 0
M  V30 2195 H 203.846 5.75272 2.96093 0
M  V30 2196 N 203.978 -0.674533 1.42435 0
M  V30 2197 C 204.925 -1.78807 1.45934 0
M  V30 2198 C 205.895 -1.63157 0.311271 0
M  V30 2199 O 207.08 -1.83707 0.515383 0
M  V30 2200 C 204.22 -3.16839 1.36773 0
M  V30 2201 C 203.333 -3.43774 2.61617 0
M  V30 2202 C 202.468 -4.71536 2.44597 0
M  V30 2203 C 201.507 -4.91505 3.64814 0
M  V30 2204 N 200.644 -6.10508 3.46734 0
M  V30 2205 H 205.484 -1.75151 2.41093 0
M  V30 2206 H 203.021 -0.85504 1.19697 0
M  V30 2207 H 204.979 -3.96606 1.29459 0
M  V30 2208 H 203.609 -3.19619 0.452089 0
M  V30 2209 H 202.661 -2.58259 2.79297 0
M  V30 2210 H 203.973 -3.54423 3.50978 0
M  V30 2211 H 203.127 -5.59393 2.3487 0
M  V30 2212 H 201.866 -4.6317 1.52726 0
M  V30 2213 H 200.871 -4.0209 3.74972 0
M  V30 2214 H 202.096 -5.01716 4.57665 0
M  V30 2215 H 200.042 -6.03315 2.5758 0
M  V30 2216 H 199.959 -6.2202 4.29682 0
M  V30 2217 H 201.227 -7.01044 3.40819 0
M  V30 2218 N 205.456 -1.28612 -0.910864 0
M  V30 2219 C 206.366 -1.14643 -2.0468 0
M  V30 2220 C 207.382 -0.0723121 -1.7385 0
M  V30 2221 O 208.558 -0.282178 -1.99413 0
M  V30 2222 C 205.623 -0.812561 -3.37044 0
M  V30 2223 C 204.684 -1.96935 -3.81465 0
M  V30 2224 C 203.917 -1.65131 -5.07511 0
M  V30 2225 O 204.14 -0.567013 -5.67575 0
M  V30 2226 O 203.074 -2.49585 -5.47714 0
M  V30 2227 H 206.9 -2.1001 -2.19384 0
M  V30 2228 H 204.485 -1.07958 -1.03274 0
M  V30 2229 H 206.367 -0.640441 -4.16505 0
M  V30 2230 H 205.042 0.111426 -3.23508 0
M  V30 2231 H 203.949 -2.19664 -3.02818 0
M  V30 2232 H 205.282 -2.87414 -3.99567 0
M  V30 2233 N 206.934 1.1197 -1.10907 0
M  V30 2234 C 208.211 1.79959 -0.766432 0
M  V30 2235 C 208.591 1.97466 0.746363 0
M  V30 2236 O 207.939 1.55491 1.67436 0
M  V30 2237 C 208.149 3.14009 -1.52314 0
M  V30 2238 C 209.497 3.89134 -1.69883 0
M  V30 2239 O 210.521 3.2368 -1.48692 0
M  V30 2240 O 209.38 5.06572 -2.05054 0
M  V30 2241 H 206.474 0.779208 -0.277062 0
M  V30 2242 H 209.02 1.18762 -1.21217 0
M  V30 2243 H 207.792 2.96587 -2.55249 0
M  V30 2244 H 207.415 3.82915 -1.07059 0
M  V30 2245 N 208.412 0.89855 1.29475 0
M  V30 2246 C 209.36 0.365253 2.29714 0
M  V30 2247 C 210.354 -0.534993 1.6073 0
M  V30 2248 O 211.56 -0.417921 1.75081 0
M  V30 2249 H 207.935 0.0994853 0.74539 0
M  V30 2250 H 209.906 1.22406 2.72138 0
M  V30 2251 C 208.655 -0.393159 3.4547 0
M  V30 2252 H 207.978 0.290332 3.98744 0
M  V30 2253 H 209.418 -0.731189 4.17648 0
M  V30 2254 C 207.877 -1.59539 2.9673 0
M  V30 2255 O 208.407 -2.69469 2.97908 0
M  V30 2256 N 206.613 -1.43716 2.52575 0
M  V30 2257 H 206.16 -0.542828 2.51816 0
M  V30 2258 H 206.118 -2.24288 2.20323 0
M  V30 2259 N 209.89 -1.43072 0.660911 0
M  V30 2260 C 211.137 -2.01721 0.177445 0
M  V30 2261 C 211.465 -1.5218 -1.21126 0
M  V30 2262 O 210.72 -0.708659 -1.82419 0
M  V30 2263 C 211.019 -3.57103 0.145563 0
M  V30 2264 C 210.685 -4.26021 1.47705 0
M  V30 2265 C 209.347 -4.44563 1.84165 0
M  V30 2266 C 211.699 -4.64983 2.35458 0
M  V30 2267 C 209.027 -4.99334 3.0803 0
M  V30 2268 C 211.379 -5.21127 3.58622 0
M  V30 2269 C 210.043 -5.37884 3.95268 0
M  V30 2270 H 209.313 -0.73815 0.0649317 0
M  V30 2271 H 211.96 -1.71446 0.853144 0
M  V30 2272 H 210.265 -3.86965 -0.61361 0
M  V30 2273 H 211.962 -4.00248 -0.2455 0
M  V30 2274 H 208.552 -4.11939 1.18339 0
M  V30 2275 H 212.736 -4.50343 2.08579 0
M  V30 2276 H 207.992 -5.10493 3.36462 0
M  V30 2277 H 212.166 -5.50262 4.26831 0
M  V30 2278 H 209.793 -5.80089 4.91325 0
M  V30 2279 N 211.368 -0.403325 -1.52352 0
M  V30 2280 C 212.615 0.174347 -2.01748 0
M  V30 2281 C 212.943 1.45636 -1.2892 0
M  V30 2282 O 212.198 1.9193 -0.382258 0
M  V30 2283 C 212.497 0.474665 -3.54234 0
M  V30 2284 C 212.163 -0.717458 -4.45155 0
M  V30 2285 C 210.825 -1.04447 -4.69728 0
M  V30 2286 C 213.177 -1.51432 -4.98716 0
M  V30 2287 C 210.505 -2.16963 -5.45109 0
M  V30 2288 C 212.857 -2.6302 -5.75329 0
M  V30 2289 C 211.521 -2.96213 -5.98175 0
M  V30 2290 H 210.791 0.0637981 -0.738248 0
M  V30 2291 H 213.438 -0.543553 -1.83624 0
M  V30 2292 H 211.743 1.27406 -3.70506 0
M  V30 2293 H 213.44 0.934496 -3.89959 0
M  V30 2294 H 210.03 -0.452596 -4.26204 0
M  V30 2295 H 214.214 -1.27491 -4.79645 0
M  V30 2296 H 209.47 -2.43034 -5.61021 0
M  V30 2297 H 213.644 -3.25158 -6.15829 0
M  V30 2298 H 211.271 -3.83516 -6.56368 0
M  V30 2299 N 212.846 1.57033 -0.133567 0
M  V30 2300 C 213.778 2.13176 0.841944 0
M  V30 2301 C 214.791 1.07794 1.22001 0
M  V30 2302 O 215.98 1.35117 1.16643 0
M  V30 2303 C 213.08 2.62847 2.13926 0
M  V30 2304 C 212.253 3.92486 1.93064 0
M  V30 2305 C 211.312 4.27605 3.0666 0
M  V30 2306 O 210.338 4.96168 2.78937 0
M  V30 2307 N 211.54 3.861 4.33483 0
M  V30 2308 H 214.305 2.97503 0.362192 0
M  V30 2309 H 211.866 1.61821 0.05042 0
M  V30 2310 H 213.858 2.83363 2.88942 0
M  V30 2311 H 212.428 1.83319 2.53205 0
M  V30 2312 H 211.648 3.80732 1.02159 0
M  V30 2313 H 212.936 4.77225 1.76447 0
M  V30 2314 H 212.334 3.30828 4.58878 0
M  V30 2315 H 210.891 4.11694 5.05323 0
M  V30 2316 N 214.325 -0.140222 1.56975 0
M  V30 2317 C 215.571 -0.852949 1.83991 0
M  V30 2318 C 215.904 -1.80512 0.716187 0
M  V30 2319 O 215.179 -1.92479 -0.279681 0
M  V30 2320 C 215.462 -1.6215 3.21527 0
M  V30 2321 C 215.315 -0.690363 4.4447 0
M  V30 2322 C 216.634 -2.58247 3.56366 0
M  V30 2323 H 213.753 -0.308634 0.669264 0
M  V30 2324 H 216.395 -0.117898 1.89634 0
M  V30 2325 H 214.545 -2.24812 3.16847 0
M  V30 2326 H 216.217 -0.0742264 4.6124 0
M  V30 2327 H 214.46 -0.000396433 4.338 0
M  V30 2328 H 215.131 -1.2643 5.37326 0
M  V30 2329 H 217.607 -2.05701 3.61699 0
M  V30 2330 H 216.483 -3.09067 4.53617 0
M  V30 2331 H 216.744 -3.39923 2.82674 0
M  V30 2332 N 215.803 -1.52179 -0.40978 0
M  V30 2333 C 217.028 -1.70347 -1.18308 0
M  V30 2334 C 217.453 -0.411887 -1.83535 0
M  V30 2335 O 216.811 0.630587 -1.6998 0
M  V30 2336 C 216.859 -2.83977 -2.22238 0
M  V30 2337 O 215.963 -2.495 -3.28365 0
M  V30 2338 H 215.304 -0.567103 -0.345384 0
M  V30 2339 H 217.834 -1.98879 -0.480445 0
M  V30 2340 H 217.844 -3.0887 -2.66577 0
M  V30 2341 H 216.519 -3.77685 -1.74146 0
M  V30 2342 H 215.096 -2.35277 -2.89308 0
M  V30 2343 N 217.281 0.66697 -1.42791 0
M  V30 2344 C 218.228 1.7803 -1.4688 0
M  V30 2345 C 219.198 1.6299 -0.319919 0
M  V30 2346 O 220.383 1.83432 -0.525118 0
M  V30 2347 C 217.523 3.1611 -1.38451 0
M  V30 2348 C 216.636 3.42381 -2.63437 0
M  V30 2349 C 215.771 4.70232 -2.47094 0
M  V30 2350 C 214.81 4.89564 -3.67415 0
M  V30 2351 N 213.947 6.08661 -3.49966 0
M  V30 2352 H 218.787 1.7387 -2.42019 0
M  V30 2353 H 216.324 0.84868 -1.20149 0
M  V30 2354 H 218.282 3.95914 -1.31561 0
M  V30 2355 H 216.912 3.19374 -0.469033 0
M  V30 2356 H 215.964 2.56774 -2.80662 0
M  V30 2357 H 217.276 3.52557 -3.52853 0
M  V30 2358 H 216.43 5.5814 -2.37834 0
M  V30 2359 H 215.169 4.62353 -1.5518 0
M  V30 2360 H 214.174 4.00096 -3.77099 0
M  V30 2361 H 215.399 4.99282 -4.6032 0
M  V30 2362 H 213.345 6.0194 -2.60776 0
M  V30 2363 H 213.262 6.19733 -4.32975 0
M  V30 2364 H 214.53 6.99226 -3.44532 0
M  V30 2365 N 218.759 1.29093 0.90403 0
M  V30 2366 C 219.984 1.19809 1.69294 0
M  V30 2367 C 220.409 -0.238481 1.86582 0
M  V30 2368 O 219.767 -1.1723 1.383 0
M  V30 2369 C 219.815 1.91202 3.05736 0
M  V30 2370 O 218.919 1.22611 3.93752 0
M  V30 2371 H 218.26 0.415385 0.518027 0
M  V30 2372 H 220.79 1.70586 1.12967 0
M  V30 2373 H 220.8 1.99487 3.55906 0
M  V30 2374 H 219.475 2.95692 2.92471 0
M  V30 2375 H 218.052 1.22554 3.52186 0
M  V30 2376 N 220.237 -1.11381 1.11499 0
M  V30 2377 C 221.184 -2.17439 0.773887 0
M  V30 2378 C 222.154 -1.64132 -0.254899 0
M  V30 2379 O 223.339 -1.90345 -0.13168 0
M  V30 2380 C 220.479 -3.44373 0.223917 0
M  V30 2381 C 219.592 -4.1168 1.30934 0
M  V30 2382 C 218.727 -5.263 0.71984 0
M  V30 2383 C 217.766 -5.85493 1.78507 0
M  V30 2384 N 216.903 -6.91507 1.21502 0
M  V30 2385 H 221.743 -2.45962 1.68246 0
M  V30 2386 H 219.28 -1.20744 0.840191 0
M  V30 2387 H 221.238 -4.17047 -0.112921 0
M  V30 2388 H 219.868 -3.16232 -0.647851 0
M  V30 2389 H 218.92 -3.37073 1.76312 0
M  V30 2390 H 220.232 -4.51729 2.11524 0
M  V30 2391 H 219.386 -6.05785 0.333094 0
M  V30 2392 H 218.125 -4.87559 -0.117377 0
M  V30 2393 H 217.13 -5.04686 2.18111 0
M  V30 2394 H 218.355 -6.26301 2.62533 0
M  V30 2395 H 216.301 -6.54783 0.399455 0
M  V30 2396 H 216.218 -7.30214 1.95763 0
M  V30 2397 H 217.486 -7.74795 0.855181 0
M  V30 2398 N 221.715 -0.905404 -1.28997 0
M  V30 2399 C 222.964 -0.530191 -1.94607 0
M  V30 2400 C 223.277 0.929185 -1.72121 0
M  V30 2401 O 224.483 1.41218 -2.31883 0
M  V30 2402 C 222.939 -0.897333 -3.48534 0
M  V30 2403 C 222.547 -2.37587 -3.79811 0
M  V30 2404 C 224.291 -0.592304 -4.20347 0
M  V30 2405 C 222.198 -2.68357 -5.27009 0
M  V30 2406 H 221.128 -0.194558 -0.728466 0
M  V30 2407 H 223.779 -1.10318 -1.46636 0
M  V30 2408 H 222.161 -0.253214 -3.9519 0
M  V30 2409 H 223.335 -3.06602 -3.43994 0
M  V30 2410 H 221.65 -2.6505 -3.2115 0
M  V30 2411 H 224.247 -0.798975 -5.28697 0
M  V30 2412 H 224.59 0.469474 -4.13644 0
M  V30 2413 H 225.123 -1.19452 -3.79442 0
M  V30 2414 H 221.862 -3.73355 -5.38782 0
M  V30 2415 H 221.382 -2.03971 -5.64053 0
M  V30 2416 H 223.061 -2.54922 -5.94663 0
M  V30 2417 N 223.193 1.4272 -0.668489 0
M  V30 2418 C 224.126 2.28111 0.0637898 0
M  V30 2419 C 225.104 1.40705 0.814912 0
M  V30 2420 O 226.288 1.70146 0.81134 0
M  V30 2421 C 223.415 3.20429 1.0974 0
M  V30 2422 C 222.461 4.24197 0.442579 0
M  V30 2423 S 223.294 5.29563 -0.795173 0
M  V30 2424 C 224.45 6.25449 0.237516 0
M  V30 2425 H 224.683 2.8987 -0.660521 0
M  V30 2426 H 222.216 1.47456 -0.457821 0
M  V30 2427 H 224.174 3.74158 1.68868 0
M  V30 2428 H 222.835 2.57818 1.79411 0
M  V30 2429 H 222.028 4.88954 1.22227 0
M  V30 2430 H 221.63 3.73925 -0.0749554 0
M  V30 2431 H 223.922 6.68524 1.09915 0
M  V30 2432 H 224.865 7.07104 -0.375421 0
M  V30 2433 H 225.273 5.61511 0.580167 0
M  V30 2434 N 224.671 0.411399 1.52136 0
M  V30 2435 C 225.619 -0.427633 2.28635 0
M  V30 2436 C 226.613 -1.04383 1.33419 0
M  V30 2437 O 227.819 -0.981772 1.50868 0
M  V30 2438 H 224.194 -0.156689 0.735495 0
M  V30 2439 H 226.165 0.238761 2.97443 0
M  V30 2440 C 224.914 -1.53082 3.12188 0
M  V30 2441 H 224.237 -1.06601 3.85326 0
M  V30 2442 H 225.677 -2.09167 3.68816 0
M  V30 2443 C 224.136 -2.49946 2.25895 0
M  V30 2444 O 224.666 -3.53884 1.90076 0
M  V30 2445 N 222.872 -2.2021 1.8962 0
M  V30 2446 H 222.419 -1.35719 2.18948 0
M  V30 2447 H 222.377 -2.85266 1.32176 0
M  V30 2448 N 226.149 -1.5696 0.141893 0
M  V30 2449 C 227.397 -1.95573 -0.509484 0
M  V30 2450 C 227.718 -1.02746 -1.65736 0
M  V30 2451 O 226.988 -0.0880311 -1.95702 0
M  V30 2452 H 225.568 -0.722115 -0.191205 0
M  V30 2453 H 228.23 -1.93697 0.216196 0
M  V30 2454 H 227.326 -2.99171 -0.889 0
M  V30 2455 N 227.627 0.131896 -1.57047 0
M  V30 2456 C 228.577 1.1679 -1.95816 0
M  V30 2457 C 229.561 1.37756 -0.831393 0
M  V30 2458 O 230.753 1.39065 -1.09499 0
M  V30 2459 C 227.882 2.49778 -2.35512 0
M  V30 2460 C 226.968 2.32342 -3.54793 0
M  V30 2461 N 227.359 1.8469 -4.70875 0
M  V30 2462 C 225.657 2.63043 -3.60173 0
M  V30 2463 C 226.358 1.80656 -5.52936 0
M  V30 2464 N 225.334 2.24528 -4.95064 0
M  V30 2465 H 229.136 0.791818 -2.83033 0
M  V30 2466 H 226.65 0.339791 -1.58805 0
M  V30 2467 H 228.647 3.24692 -2.61498 0
M  V30 2468 H 227.307 2.88156 -1.49654 0
M  V30 2469 H 228.318 1.54429 -4.9434 0
M  V30 2470 H 224.995 3.05193 -2.84892 0
M  V30 2471 H 226.385 1.45178 -6.56028 0
M  V30 2472 O 229.144 1.59117 0.276399 0
M  V30 2473 H 229.835 1.70359 0.921826 0
M  V30 END ATOM
M  V30 BEGIN BOND
M  V30 END BOND
M  V30 END CTAB
M  END
$$$$
