drugbank_target|Q969F8 KiSS-1 receptor (DB05967)
 OpenBabel12092120323D

  0  0  0     0  0            999 V3000
M  V30 BEGIN CTAB
M  V30 COUNTS 6057 6146 0 0 0
M  V30 BEGIN ATOM
M  V30 1 H -0.908 1.98254 -0.117106 0
M  V30 2 N 0 1.576 0 0
M  V30 3 C 0.933 2.03868 1.02534 0
M  V30 4 C 1.911 0.928543 1.3348 0
M  V30 5 O 3.095 1.19667 1.45644 0
M  V30 6 C 0.222 2.43627 2.35294 0
M  V30 7 C -0.732 3.65373 2.2001 0
M  V30 8 S 0.101 5.13292 1.52614 0
M  V30 9 C 1.257 5.56322 2.86805 0
M  V30 10 H 1.49 2.90518 0.631377 0
M  V30 11 H -0.977 1.52953 0.210867 0
M  V30 12 H 0.981 2.67203 3.11629 0
M  V30 13 H -0.358 1.57376 2.7183 0
M  V30 14 H -1.165 3.90944 3.18086 0
M  V30 15 H -1.563 3.418 1.51819 0
M  V30 16 H 0.729 5.58782 3.83104 0
M  V30 17 H 1.672 6.56266 2.65933 0
M  V30 18 H 2.08 4.83886 2.90714 0
M  V30 19 N 1.4781 -0.272755 1.55222 0
M  V30 20 C 2.4281 -1.33946 1.84506 0
M  V30 21 C 3.4121 -1.44682 0.70399 0
M  V30 22 O 4.6041 -1.48358 0.965338 0
M  V30 23 C 1.7331 -2.69968 2.12067 0
M  V30 24 C 0.8191 -2.63341 3.32434 0
M  V30 25 N 1.2101 -2.26335 4.52334 0
M  V30 26 C -0.4919 -2.94402 3.35028 0
M  V30 27 C 0.2091 -2.29705 5.34425 0
M  V30 28 N -0.8149 -2.68188 4.72838 0
M  V30 29 H 2.9871 -1.04343 2.74754 0
M  V30 30 H 0.5011 -0.481389 1.55101 0
M  V30 31 H 2.4981 -3.46916 2.31202 0
M  V30 32 H 1.1581 -3.00459 1.23103 0
M  V30 33 H 2.1691 -1.98309 4.78429 0
M  V30 34 H -1.1539 -3.29603 2.56257 0
M  V30 35 H 0.2361 -2.03653 6.40293 0
M  V30 36 N 2.9562 -1.48159 -0.537278 0
M  V30 37 C 4.1842 -1.59454 -1.31841 0
M  V30 38 C 4.5992 -0.252065 -1.8711 0
M  V30 39 O 3.9562 0.757621 -1.66031 0
M  V30 40 C 4.0072 -2.63546 -2.47439 0
M  V30 41 O 3.7282 -3.92583 -1.94449 0
M  V30 42 C 5.2292 -2.85212 -3.39366 0
M  V30 43 H 2.4492 -0.53785 -0.401196 0
M  V30 44 H 4.9932 -1.93932 -0.648891 0
M  V30 45 H 3.1482 -2.31946 -3.1029 0
M  V30 46 H 3.5622 -4.49629 -2.70063 0
M  V30 47 H 5.0362 -3.61863 -4.16844 0
M  V30 48 H 5.5132 -1.93765 -3.94147 0
M  V30 49 H 6.1192 -3.18086 -2.82314 0
M  V30 50 N 4.4343 0.785586 -1.36625 0
M  V30 51 C 5.6803 1.54591 -1.31261 0
M  V30 52 C 6.0133 1.93906 0.106823 0
M  V30 53 O 5.2883 1.63007 1.06108 0
M  V30 54 C 5.5713 2.82038 -2.23889 0
M  V30 55 C 5.4243 2.49066 -3.74548 0
M  V30 56 C 6.7433 3.83887 -2.15217 0
M  V30 57 H 3.8623 0.560846 -0.478143 0
M  V30 58 H 6.5043 0.902278 -1.67209 0
M  V30 59 H 4.6543 3.36961 -1.93363 0
M  V30 60 H 6.3263 2.00164 -4.15611 0
M  V30 61 H 4.5693 1.81954 -3.93796 0
M  V30 62 H 5.2403 3.40109 -4.34776 0
M  V30 63 H 7.7163 3.38421 -2.42096 0
M  V30 64 H 6.5923 4.70806 -2.82193 0
M  V30 65 H 6.8533 4.27131 -1.14068 0
M  V30 66 N 5.9124 1.20967 1.01018 0
M  V30 67 C 6.8754 0.965918 2.07853 0
M  V30 68 C 7.8754 -0.0610545 1.60684 0
M  V30 69 O 9.0654 0.175681 1.73312 0
M  V30 70 C 6.1974 0.455513 3.37843 0
M  V30 71 H 7.3904 1.91365 2.3091 0
M  V30 72 H 4.9434 1.02594 1.17916 0
M  V30 73 H 5.6784 -0.497381 3.20463 0
M  V30 74 H 5.4634 1.19622 3.73407 0
M  V30 75 H 6.9534 0.304667 4.16487 0
M  V30 76 N 7.3905 -1.2043 1.01659 0
M  V30 77 C 8.6185 -1.93777 0.725132 0
M  V30 78 C 9.0335 -1.74772 -0.714166 0
M  V30 79 O 8.3905 -1.06169 -1.4844 0
M  V30 80 C 8.4415 -3.45876 1.05129 0
M  V30 81 O 8.1625 -3.6426 2.43406 0
M  V30 82 C 9.6635 -4.36368 0.780891 0
M  V30 83 H 6.8835 -0.615901 0.266284 0
M  V30 84 H 9.4275 -1.52922 1.35776 0
M  V30 85 H 7.5825 -3.8461 0.464065 0
M  V30 86 H 7.9965 -4.58246 2.55169 0
M  V30 87 H 9.4705 -5.41743 1.05918 0
M  V30 88 H 9.9475 -4.38275 -0.284937 0
M  V30 89 H 10.5535 -4.03296 1.35027 0
M  V30 90 N 8.8686 -0.792821 -1.36206 0
M  V30 91 C 10.0936 -0.377701 -2.03932 0
M  V30 92 C 10.5186 0.998947 -1.59382 0
M  V30 93 O 9.8766 1.64421 -0.763903 0
M  V30 94 C 9.9246 -0.453635 -3.57735 0
M  V30 95 O 9.0286 0.538151 -4.08874 0
M  V30 96 H 8.3696 -0.159855 -0.644471 0
M  V30 97 H 10.8996 -1.07488 -1.7409 0
M  V30 98 H 10.9096 -0.318464 -4.06755 0
M  V30 99 H 9.5846 -1.45784 -3.89512 0
M  V30 100 H 8.1616 0.364359 -3.71116 0
M  V30 101 N 10.3467 1.47872 -0.545128 0
M  V30 102 C 11.5947 2.02093 -0.016553 0
M  V30 103 C 11.9157 1.42305 1.3332 0
M  V30 104 O 11.1857 0.593853 1.86682 0
M  V30 105 H 9.7657 0.746993 -0.00313038 0
M  V30 106 H 12.4277 1.81414 -0.712397 0
M  V30 107 H 11.5237 3.11996 0.0805422 0
M  V30 108 N 11.8248 0.280983 1.55075 0
M  V30 109 C 13.2358 -0.215629 1.85451 0
M  V30 110 C 13.5868 -1.54991 1.203 0
M  V30 111 O 12.7118 -2.10699 0.493435 0
M  V30 112 C 13.3068 -0.398026 3.36454 0
M  V30 113 C 11.8658 -0.838866 3.66933 0
M  V30 114 C 11.0128 0.064458 2.77225 0
M  V30 115 H 13.9638 0.502601 1.50531 0
M  V30 116 H 13.9848 -1.23569 3.59876 0
M  V30 117 H 13.4968 0.573241 3.83843 0
M  V30 118 H 11.5978 -1.8214 3.25048 0
M  V30 119 H 11.7108 -0.672123 4.74362 0
M  V30 120 H 10.0748 -0.452863 2.50642 0
M  V30 121 H 10.8578 1.03172 3.2743 0
M  V30 122 N 13.3029 -1.57598 0.00835791 0
M  V30 123 C 14.2509 -2.10078 -0.998508 0
M  V30 124 C 15.2449 -1.02262 -1.35051 0
M  V30 125 O 16.4509 -1.20719 -1.33518 0
M  V30 126 H 12.8259 -0.670903 -0.339696 0
M  V30 127 H 14.7969 -2.93648 -0.530398 0
M  V30 128 C 13.5459 -2.62615 -2.27879 0
M  V30 129 H 12.8689 -3.45213 -2.01662 0
M  V30 130 H 14.3089 -3.03004 -2.96588 0
M  V30 131 C 12.7679 -1.54407 -2.99433 0
M  V30 132 O 13.2979 -0.931812 -3.90743 0
M  V30 133 N 11.5039 -1.2695 -2.61404 0
M  V30 134 H 11.0509 -1.76924 -1.87232 0
M  V30 135 H 11.0089 -0.547704 -3.09593 0
M  V30 136 N 14.781 0.264519 -1.55364 0
M  V30 137 C 15.744 1.31046 -1.88042 0
M  V30 138 C 16.744 1.41943 -0.755569 0
M  V30 139 O 17.934 1.40947 -1.02369 0
M  V30 140 C 15.066 2.69067 -2.09323 0
M  V30 141 H 16.259 1.03297 -2.81549 0
M  V30 142 H 13.812 0.502989 -1.47986 0
M  V30 143 H 14.547 3.01982 -1.18226 0
M  V30 144 H 14.332 2.62542 -2.91229 0
M  V30 145 H 15.822 3.44623 -2.35848 0
M  V30 146 N 16.2591 1.48442 0.529413 0
M  V30 147 C 17.4841 1.60406 1.31471 0
M  V30 148 C 17.9091 0.264738 1.86228 0
M  V30 149 O 17.2671 -0.763668 1.64432 0
M  V30 150 C 17.3151 2.65419 2.44101 0
M  V30 151 O 16.4191 2.22618 3.47153 0
M  V30 152 H 15.7601 0.537863 0.389357 0
M  V30 153 H 18.2901 1.94432 0.636965 0
M  V30 154 H 18.3001 2.86709 2.90279 0
M  V30 155 H 16.9751 3.62652 2.03608 0
M  V30 156 H 15.5521 2.11543 3.0709 0
M  V30 157 N 17.7372 -0.778329 1.37039 0
M  V30 158 C 18.9832 -1.53817 1.33086 0
M  V30 159 C 19.3382 -1.92208 -0.0860346 0
M  V30 160 O 18.6312 -1.60713 -1.04316 0
M  V30 161 C 18.8252 -2.81845 2.19768 0
M  V30 162 C 18.6542 -2.55967 3.69744 0
M  V30 163 C 17.4242 -2.50428 4.38878 0
M  V30 164 C 19.6222 -2.2441 4.62758 0
M  V30 165 N 17.6042 -2.16564 5.74433 0
M  V30 166 C 18.9752 -2.0063 5.86641 0
M  V30 167 C 21.0302 -2.1051 4.5121 0
M  V30 168 C 19.7332 -1.64354 7.00272 0
M  V30 169 C 21.7592 -1.75634 5.64718 0
M  V30 170 C 21.1212 -1.52709 6.87648 0
M  V30 171 H 17.2202 -0.563434 0.542279 0
M  V30 172 H 19.8042 -0.908617 1.72198 0
M  V30 173 H 17.9752 -3.42649 1.82883 0
M  V30 174 H 19.7072 -3.47682 2.07122 0
M  V30 175 H 16.4622 -2.66056 3.91805 0
M  V30 176 H 16.8862 -2.02348 6.46053 0
M  V30 177 H 21.5282 -2.26919 3.56746 0
M  V30 178 H 19.2462 -1.46683 7.94676 0
M  V30 179 H 22.8322 -1.65546 5.57751 0
M  V30 180 H 21.7122 -1.2612 7.73992 0
M  V30 181 N 19.2153 -1.21501 -1.00376 0
M  V30 182 C 20.4633 -1.03095 -1.73827 0
M  V30 183 C 20.7843 0.436341 -1.90055 0
M  V30 184 O 20.0543 1.31466 -1.45236 0
M  V30 185 H 18.6343 -0.378487 -0.644016 0
M  V30 186 H 21.2963 -1.52831 -1.20949 0
M  V30 187 H 20.3923 -1.49991 -2.73695 0
M  V30 188 N 20.6934 1.19889 -1.02296 0
M  V30 189 C 21.6564 2.21116 -0.603351 0
M  V30 190 C 22.6564 1.5738 0.329884 0
M  V30 191 O 23.8464 1.73802 0.117702 0
M  V30 192 C 20.9784 3.40696 0.117992 0
M  V30 193 H 22.1714 2.59754 -1.49893 0
M  V30 194 H 19.7244 1.33463 -0.813468 0
M  V30 195 H 20.4594 3.07569 1.0282 0
M  V30 196 H 20.2444 3.88188 -0.552511 0
M  V30 197 H 21.7344 4.15692 0.398696 0
M  V30 198 N 22.1715 0.800033 1.35784 0
M  V30 199 C 23.5825 0.439142 1.81462 0
M  V30 200 C 23.9335 -1.03813 1.66485 0
M  V30 201 O 23.0585 -1.80626 1.19177 0
M  V30 202 C 23.6535 0.790314 3.29453 0
M  V30 203 C 22.2125 0.482111 3.733 0
M  V30 204 C 21.3595 1.01938 2.57883 0
M  V30 205 H 24.3105 0.992254 1.23855 0
M  V30 206 H 24.3315 0.0853677 3.80404 0
M  V30 207 H 23.8435 1.86554 3.40322 0
M  V30 208 H 21.9445 -0.584652 3.67984 0
M  V30 209 H 22.0575 1.01015 4.6833 0
M  V30 210 H 20.4215 0.442043 2.50835 0
M  V30 211 H 21.2045 2.10059 2.71533 0
M  V30 212 N 23.6496 -1.47581 0.552962 0
M  V30 213 C 24.6126 -2.28439 -0.186605 0
M  V30 214 C 25.6126 -1.36706 -0.84665 0
M  V30 215 O 26.8026 -1.59378 -0.703164 0
M  V30 216 C 23.9346 -3.16264 -1.2724 0
M  V30 217 H 25.1276 -2.95294 0.523609 0
M  V30 218 H 22.6806 -1.532 0.309745 0
M  V30 219 H 23.4156 -2.54091 -2.01514 0
M  V30 220 H 23.2006 -3.83769 -0.803968 0
M  V30 221 H 24.6906 -3.77198 -1.79196 0
M  V30 222 N 25.1277 -0.289203 -1.54924 0
M  V30 223 C 26.0757 0.607966 -2.24514 0
M  V30 224 C 27.0697 1.14655 -1.24702 0
M  V30 225 O 28.2757 1.09856 -1.4259 0
M  V30 226 H 24.6507 0.21464 -0.720718 0
M  V30 227 H 26.6217 -0.00164182 -2.984 0
M  V30 228 C 25.3707 1.77406 -2.99036 0
M  V30 229 H 24.6937 1.36884 -3.75637 0
M  V30 230 H 26.1337 2.37814 -3.51028 0
M  V30 231 C 24.5927 2.67107 -2.05318 0
M  V30 232 O 25.1227 3.6787 -1.61353 0
M  V30 233 N 23.3287 2.34582 -1.71521 0
M  V30 234 H 22.8757 1.52688 -2.07471 0
M  V30 235 H 22.8337 2.94867 -1.0909 0
M  V30 236 N 26.6058 1.57591 -0.0167156 0
M  V30 237 C 27.5688 2.08393 0.954204 0
M  V30 238 C 28.5688 0.996531 1.26198 0
M  V30 239 O 29.7588 1.25858 1.20438 0
M  V30 240 C 26.8908 2.5394 2.27436 0
M  V30 241 H 28.0838 2.95455 0.514451 0
M  V30 242 H 25.6368 1.54582 0.231089 0
M  V30 243 H 26.3718 1.70171 2.76066 0
M  V30 244 H 26.1568 3.33371 2.06412 0
M  V30 245 H 27.6468 2.93512 2.97053 0
M  V30 246 N 28.0839 -0.256276 1.55502 0
M  V30 247 C 29.3089 -1.00766 1.81276 0
M  V30 248 C 29.7339 -1.78524 0.59252 0
M  V30 249 O 29.0919 -1.75413 -0.45827 0
M  V30 250 C 29.1399 -1.92869 3.04687 0
M  V30 251 O 28.2439 -3.019 2.80945 0
M  V30 252 H 27.5849 -0.287224 0.598664 0
M  V30 253 H 30.1149 -0.280109 2.02674 0
M  V30 254 H 30.1249 -2.34511 3.33869 0
M  V30 255 H 28.7999 -1.35689 3.93143 0
M  V30 256 H 27.3769 -2.64454 2.62904 0
M  V30 257 N 29.562 -1.4872 -0.521534 0
M  V30 258 C 30.81 -1.56857 -1.27437 0
M  V30 259 C 31.131 -0.247982 -1.93417 0
M  V30 260 O 30.401 0.731151 -1.81744 0
M  V30 261 H 28.981 -0.577885 -0.473347 0
M  V30 262 H 31.643 -1.85233 -0.606205 0
M  V30 263 H 30.739 -2.35402 -2.0492 0
M  V30 264 N 31.0401 0.771051 -1.3745 0
M  V30 265 C 32.2801 1.54264 -1.34096 0
M  V30 266 C 32.6441 1.91858 0.0737639 0
M  V30 267 O 33.8451 2.67797 0.23203 0
M  V30 268 C 32.1161 2.77326 -2.25445 0
M  V30 269 S 33.6751 3.67383 -2.39948 0
M  V30 270 H 30.4931 0.528122 -0.476034 0
M  V30 271 H 33.0951 0.906633 -1.73206 0
M  V30 272 H 31.7991 2.47788 -3.27153 0
M  V30 273 H 31.3301 3.45886 -1.87421 0
M  V30 274 H 33.3451 4.69334 -1.61059 0
M  V30 275 N 32.5182 1.22032 0.997298 0
M  V30 276 C 33.9292 1.0397 1.55071 0
M  V30 277 C 34.2802 -0.398192 1.92117 0
M  V30 278 O 33.4052 -1.28254 1.74298 0
M  V30 279 C 34.0002 1.88109 2.81781 0
M  V30 280 C 32.5592 1.74357 3.33581 0
M  V30 281 C 31.7062 1.84846 2.06706 0
M  V30 282 H 34.6572 1.35941 0.818883 0
M  V30 283 H 34.6782 1.39589 3.53971 0
M  V30 284 H 34.1902 2.92754 2.54787 0
M  V30 285 H 32.2912 0.72427 3.65493 0
M  V30 286 H 32.4042 2.56772 4.04481 0
M  V30 287 H 30.7682 1.28238 2.20062 0
M  V30 288 H 31.5512 2.91014 1.82114 0
M  V30 289 N 33.9963 -1.19345 1.0293 0
M  V30 290 C 35.2443 -1.88665 0.724574 0
M  V30 291 C 35.5653 -1.80036 -0.749144 0
M  V30 292 O 34.8353 -1.2111 -1.53978 0
M  V30 293 H 33.4153 -0.698406 0.265025 0
M  V30 294 H 36.0773 -1.44885 1.30362 0
M  V30 295 H 35.1733 -2.94987 1.01926 0
M  V30 296 N 35.4744 -0.807222 -1.35358 0
M  V30 297 C 36.7144 -0.393534 -2.00576 0
M  V30 298 C 37.0784 1.0203 -1.62647 0
M  V30 299 O 38.2794 1.53603 -2.20589 0
M  V30 300 C 36.5504 -0.572017 -3.52793 0
M  V30 301 S 38.1094 -0.248845 -4.38094 0
M  V30 302 H 34.9274 -0.149425 -0.695121 0
M  V30 303 H 37.5294 -1.04961 -1.64935 0
M  V30 304 H 36.2334 -1.60097 -3.77885 0
M  V30 305 H 35.7644 0.099359 -3.93275 0
M  V30 306 H 37.7794 0.943253 -4.87152 0
M  V30 307 N 36.9525 1.47285 -0.560781 0
M  V30 308 C 38.2005 2.02064 -0.0379868 0
M  V30 309 C 38.5215 1.43711 1.31803 0
M  V30 310 O 37.7915 0.61362 1.86042 0
M  V30 311 H 36.3715 0.746918 -0.0110531 0
M  V30 312 H 39.0335 1.80648 -0.731598 0
M  V30 313 H 38.1295 3.12064 0.0474463 0
M  V30 314 N 38.4306 0.297415 1.54768 0
M  V30 315 C 39.3936 -0.567375 2.22066 0
M  V30 316 C 40.3936 -1.06409 1.20556 0
M  V30 317 O 41.5836 -0.960691 1.45315 0
M  V30 318 C 38.7156 -1.78517 2.90421 0
M  V30 319 H 39.9086 0.0205534 2.99893 0
M  V30 320 H 37.4616 0.0482163 1.56226 0
M  V30 321 H 38.1966 -2.41303 2.16664 0
M  V30 322 H 37.9816 -1.43669 3.64831 0
M  V30 323 H 39.4716 -2.39964 3.41771 0
M  V30 324 N 39.9087 -1.5758 0.0250728 0
M  V30 325 C 40.8567 -2.11125 -0.97617 0
M  V30 326 C 41.8507 -1.03689 -1.33959 0
M  V30 327 O 43.0567 -1.22128 -1.3223 0
M  V30 328 H 39.4317 -0.674468 -0.332561 0
M  V30 329 H 41.4027 -2.94194 -0.499223 0
M  V30 330 C 40.1517 -2.65017 -2.2508 0
M  V30 331 H 39.4747 -3.47333 -1.9799 0
M  V30 332 H 40.9147 -3.06133 -2.93357 0
M  V30 333 C 39.3737 -1.57574 -2.97779 0
M  V30 334 O 39.9037 -0.973203 -3.89733 0
M  V30 335 N 38.1097 -1.29716 -2.60043 0
M  V30 336 H 37.6567 -1.789 -1.85345 0
M  V30 337 H 37.6147 -0.58051 -3.08994 0
M  V30 338 N 41.3868 0.248026 -1.55636 0
M  V30 339 C 42.3498 1.29044 -1.89421 0
M  V30 340 C 43.3498 1.41134 -0.770581 0
M  V30 341 O 44.5398 1.39854 -1.03858 0
M  V30 342 C 41.6718 2.66831 -2.12165 0
M  V30 343 H 42.8648 1.00305 -2.82629 0
M  V30 344 H 40.4178 0.487265 -1.48511 0
M  V30 345 H 41.1528 3.00711 -1.21422 0
M  V30 346 H 40.9378 2.59438 -2.93997 0
M  V30 347 H 42.4278 3.42103 -2.3949 0
M  V30 348 N 42.8649 1.48995 0.513639 0
M  V30 349 C 44.0899 1.61792 1.29762 0
M  V30 350 C 44.5149 0.284475 1.85936 0
M  V30 351 O 43.8729 -0.746185 1.65232 0
M  V30 352 C 43.9209 2.67993 2.41272 0
M  V30 353 O 43.0249 2.26287 3.44772 0
M  V30 354 H 42.3659 0.541963 0.38363 0
M  V30 355 H 44.8959 1.95097 0.616307 0
M  V30 356 H 44.9059 2.89772 2.87221 0
M  V30 357 H 43.5809 3.64791 1.9975 0
M  V30 358 H 42.1579 2.14788 3.04829 0
M  V30 359 N 44.343 -0.763751 1.37857 0
M  V30 360 C 45.62 -1.51244 1.24035 0
M  V30 361 C 46 -2.10472 -0.162649 0
M  V30 362 O 45.348 -1.96206 -1.17112 0
M  V30 363 C 45.558 -2.58694 2.34261 0
M  V30 364 C 46.906 -3.25878 2.72193 0
M  V30 365 O 47.93 -2.68993 2.33497 0
M  V30 366 O 46.789 -4.2874 3.38887 0
M  V30 367 H 43.883 -0.670243 0.484462 0
M  V30 368 H 46.429 -0.800031 1.49658 0
M  V30 369 H 45.201 -2.13105 3.2818 0
M  V30 370 H 44.824 -3.37527 2.10146 0
M  V30 371 N 45.8211 -1.22559 -0.990812 0
M  V30 372 C 47.0691 -1.04933 -1.72724 0
M  V30 373 C 47.3901 0.416158 -1.90508 0
M  V30 374 O 46.6601 1.29918 -1.46622 0
M  V30 375 H 45.2401 -0.385296 -0.639965 0
M  V30 376 H 47.9021 -1.54105 -1.19322 0
M  V30 377 H 46.9981 -1.52886 -2.72089 0
M  V30 378 N 47.2992 1.18797 -1.03562 0
M  V30 379 C 48.7102 1.70322 -0.764676 0
M  V30 380 C 49.0612 1.82708 0.714996 0
M  V30 381 O 48.1862 1.50299 1.55689 0
M  V30 382 C 48.7812 3.09356 -1.38145 0
M  V30 383 C 47.3402 3.58114 -1.15895 0
M  V30 384 C 46.4872 2.34798 -1.4753 0
M  V30 385 H 49.4382 1.03543 -1.20268 0
M  V30 386 H 49.4592 3.72378 -0.781977 0
M  V30 387 H 48.9712 3.00309 -2.45837 0
M  V30 388 H 47.0722 3.72464 -0.100544 0
M  V30 389 H 47.1852 4.4184 -1.8524 0
M  V30 390 H 45.5492 2.38464 -0.894829 0
M  V30 391 H 46.3322 2.28375 -2.56319 0
M  V30 392 N 48.7773 0.814389 1.34928 0
M  V30 393 C 50.0233 0.399013 1.98836 0
M  V30 394 C 50.3563 -1.03314 1.64438 0
M  V30 395 O 49.6313 -1.71811 0.911659 0
M  V30 396 C 49.9143 0.591629 3.55207 0
M  V30 397 C 49.7673 2.06928 3.99376 0
M  V30 398 C 51.0863 0.022199 4.40094 0
M  V30 399 H 48.2053 0.146451 0.722303 0
M  V30 400 H 50.8473 1.02537 1.59957 0
M  V30 401 H 48.9973 0.0584441 3.88456 0
M  V30 402 H 50.6693 2.66544 3.76499 0
M  V30 403 H 48.9123 2.56287 3.49999 0
M  V30 404 H 49.5833 2.1549 5.08201 0
M  V30 405 H 52.0593 0.477643 4.13349 0
M  V30 406 H 50.9353 0.186832 5.48582 0
M  V30 407 H 51.1963 -1.07215 4.28902 0
M  V30 408 N 50.2554 -1.46986 0.568584 0
M  V30 409 C 51.6664 -1.86188 0.138219 0
M  V30 410 C 52.0174 -1.47388 -1.29504 0
M  V30 411 O 51.1424 -0.88219 -1.97602 0
M  V30 412 C 51.7374 -3.3792 0.244065 0
M  V30 413 C 50.2964 -3.76171 -0.131335 0
M  V30 414 C 49.4434 -2.71027 0.586465 0
M  V30 415 H 52.3944 -1.38342 0.777645 0
M  V30 416 H 52.4154 -3.76729 -0.534351 0
M  V30 417 H 51.9274 -3.66128 1.28731 0
M  V30 418 H 50.0284 -3.5358 -1.17526 0
M  V30 419 H 50.1414 -4.78523 0.235146 0
M  V30 420 H 48.5054 -2.54684 0.0282722 0
M  V30 421 H 49.2884 -3.02077 1.63109 0
M  V30 422 N 51.7335 -0.305618 -1.54608 0
M  V30 423 C 52.9585 0.307562 -2.05107 0
M  V30 424 C 53.3835 1.46385 -1.18123 0
M  V30 425 O 52.7415 1.8034 -0.186324 0
M  V30 426 C 52.7895 0.73704 -3.52987 0
M  V30 427 O 51.8935 1.84134 -3.6901 0
M  V30 428 H 51.2345 0.0589143 -0.661381 0
M  V30 429 H 53.7645 -0.448807 -1.99617 0
M  V30 430 H 53.7745 1.02459 -3.94925 0
M  V30 431 H 52.4495 -0.108773 -4.15758 0
M  V30 432 H 51.0265 1.55398 -3.38978 0
M  V30 433 N 53.2116 1.57565 -0.0334293 0
M  V30 434 C 54.6226 1.79746 0.504798 0
M  V30 435 C 54.9736 0.944091 1.71992 0
M  V30 436 O 54.0986 0.155694 2.15839 0
M  V30 437 C 54.6936 3.25997 0.922567 0
M  V30 438 C 53.2526 3.49159 1.40588 0
M  V30 439 C 52.3996 2.74785 0.372633 0
M  V30 440 H 55.3506 1.56565 -0.259436 0
M  V30 441 H 55.3716 3.35945 1.78666 0
M  V30 442 H 54.8836 3.88081 0.0379825 0
M  V30 443 H 52.9846 2.92332 2.31025 0
M  V30 444 H 53.0976 4.57873 1.41028 0
M  V30 445 H 51.4616 2.40391 0.841672 0
M  V30 446 H 52.2446 3.39587 -0.503559 0
M  V30 447 N 54.6897 -0.239769 1.55765 0
M  V30 448 C 56.1057 -0.588624 1.48349 0
M  V30 449 C 56.3057 -1.88005 0.72502 0
M  V30 450 O 55.3617 -2.51186 0.257269 0
M  V30 451 C 56.6747 -0.68474 2.928 0
M  V30 452 C 58.2227 -0.77659 3.03213 0
M  V30 453 C 58.6977 -0.904207 4.48986 0
M  V30 454 N 60.1887 -0.968896 4.52953 0
M  V30 455 C 60.9237 -1.08703 5.63002 0
M  V30 456 N 60.4197 -1.17026 6.82845 0
M  V30 457 N 62.2127 -1.12074 5.50814 0
M  V30 458 H 54.3637 0.607911 2.03515 0
M  V30 459 H 56.6267 0.21083 0.924259 0
M  V30 460 H 56.3327 0.194284 3.51163 0
M  V30 461 H 56.2067 -1.55435 3.43686 0
M  V30 462 H 58.5937 -1.64606 2.44926 0
M  V30 463 H 58.6747 0.118315 2.55526 0
M  V30 464 H 58.3187 -0.0392633 5.07885 0
M  V30 465 H 58.2487 -1.81426 4.9436 0
M  V30 466 H 60.7397 -0.915633 3.6664 0
M  V30 467 H 61.0527 -1.25966 7.62465 0
M  V30 468 H 59.3977 -1.13971 6.85591 0
M  V30 469 H 62.5887 -1.05226 4.5612 0
M  V30 470 H 62.7617 -1.20936 6.36615 0
M  V30 471 N 56.1678 -1.49265 -0.50573 0
M  V30 472 C 57.1308 -1.65075 -1.59006 0
M  V30 473 C 58.1308 -0.522768 -1.52065 0
M  V30 474 O 59.3208 -0.789117 -1.55302 0
M  V30 475 C 56.4528 -1.64369 -2.98656 0
M  V30 476 H 57.6458 -2.61784 -1.46319 0
M  V30 477 H 55.1988 -1.38226 -0.729616 0
M  V30 478 H 55.9338 -0.692272 -3.16825 0
M  V30 479 H 55.7188 -2.46282 -3.05103 0
M  V30 480 H 57.2088 -1.78674 -3.77446 0
M  V30 481 N 57.6459 0.756429 -1.3826 0
M  V30 482 C 58.8919 1.51772 -1.34511 0
M  V30 483 C 59.2249 1.94089 0.0656691 0
M  V30 484 O 58.4999 1.65221 1.02626 0
M  V30 485 C 58.7829 2.77226 -2.29821 0
M  V30 486 C 58.6359 2.41065 -3.79747 0
M  V30 487 C 59.9549 3.79236 -2.23312 0
M  V30 488 H 57.0739 0.550578 -0.489931 0
M  V30 489 H 59.7159 0.866607 -1.69086 0
M  V30 490 H 57.8659 3.32784 -2.00467 0
M  V30 491 H 59.5379 1.91303 -4.19763 0
M  V30 492 H 57.7809 1.7356 -3.97567 0
M  V30 493 H 58.4519 3.3081 -4.41892 0
M  V30 494 H 60.9279 3.3321 -2.49219 0
M  V30 495 H 59.8039 4.64714 -2.92116 0
M  V30 496 H 60.0649 4.24615 -1.23102 0
M  V30 497 N 59.124 1.23083 0.984299 0
M  V30 498 C 60.401 0.9689 1.69917 0
M  V30 499 C 60.781 -0.513604 2.04757 0
M  V30 500 O 60.129 -1.48383 1.73767 0
M  V30 501 C 60.339 1.87518 2.94343 0
M  V30 502 C 61.687 2.13636 3.6694 0
M  V30 503 O 62.711 1.85036 3.04368 0
M  V30 504 O 61.57 2.62119 4.79537 0
M  V30 505 H 58.664 0.365095 0.742048 0
M  V30 506 H 61.21 1.34107 1.03987 0
M  V30 507 H 59.982 2.87756 2.65164 0
M  V30 508 H 59.605 1.50514 3.6801 0
M  V30 509 N 60.6021 -1.18246 1.0419 0
M  V30 510 C 61.5651 -2.20128 0.638452 0
M  V30 511 C 62.5651 -1.57885 -0.304805 0
M  V30 512 O 63.7551 -1.73967 -0.0900369 0
M  V30 513 C 60.8871 -3.4084 -0.0637751 0
M  V30 514 H 62.0801 -2.57336 1.54007 0
M  V30 515 H 59.6331 -1.32152 0.834598 0
M  V30 516 H 60.3681 -3.09166 -0.979136 0
M  V30 517 H 60.1531 -3.8726 0.614198 0
M  V30 518 H 61.6431 -4.16274 -0.332512 0
M  V30 519 N 62.0802 -0.821533 -1.34494 0
M  V30 520 C 63.3262 -0.418729 -1.99043 0
M  V30 521 C 63.6812 1.00672 -1.6396 0
M  V30 522 O 62.9742 1.69132 -0.900271 0
M  V30 523 C 63.1682 -0.556512 -3.53041 0
M  V30 524 C 62.9972 -1.9938 -4.03085 0
M  V30 525 C 61.7672 -2.62539 -4.31742 0
M  V30 526 C 63.9652 -2.96035 -4.20556 0
M  V30 527 N 61.9472 -3.97523 -4.67813 0
M  V30 528 C 63.3182 -4.15924 -4.59791 0
M  V30 529 C 65.3732 -2.9267 -4.02801 0
M  V30 530 C 64.0762 -5.32899 -4.83126 0
M  V30 531 C 66.1022 -4.08861 -4.27302 0
M  V30 532 C 65.4642 -5.275 -4.66822 0
M  V30 533 H 61.5632 -0.201299 -0.755647 0
M  V30 534 H 64.1472 -1.06594 -1.62929 0
M  V30 535 H 62.3182 0.0607924 -3.88352 0
M  V30 536 H 64.0502 -0.126842 -4.04501 0
M  V30 537 H 60.8052 -2.13789 -4.22601 0
M  V30 538 H 61.2292 -4.67061 -4.90085 0
M  V30 539 H 65.8712 -2.02088 -3.71376 0
M  V30 540 H 63.5892 -6.24041 -5.13418 0
M  V30 541 H 67.1752 -4.07654 -4.15101 0
M  V30 542 H 66.0552 -6.15913 -4.85408 0
M  V30 543 N 63.5583 1.46682 -0.576371 0
M  V30 544 C 64.4883 2.33028 0.148397 0
M  V30 545 C 65.4693 1.44961 0.889956 0
M  V30 546 O 66.6543 1.73789 0.866662 0
M  V30 547 C 63.7843 3.27117 1.1667 0
M  V30 548 C 62.7383 4.24575 0.540386 0
M  V30 549 C 62.0643 5.08126 1.6647 0
M  V30 550 C 63.3643 5.19722 -0.518331 0
M  V30 551 H 65.0583 2.93875 -0.572509 0
M  V30 552 H 62.6043 1.41315 -0.276768 0
M  V30 553 H 64.5573 3.86374 1.68204 0
M  V30 554 H 63.2813 2.64364 1.9178 0
M  V30 555 H 61.9403 3.66571 0.0461769 0
M  V30 556 H 61.5883 4.41762 2.40531 0
M  V30 557 H 61.2883 5.74122 1.25131 0
M  V30 558 H 62.8123 5.70246 2.18293 0
M  V30 559 H 64.2263 5.73232 -0.0883058 0
M  V30 560 H 62.6233 5.94026 -0.851679 0
M  V30 561 H 63.6933 4.64037 -1.40703 0
M  V30 562 N 65.0364 0.313813 1.54444 0
M  V30 563 C 66.2824 -0.292108 2.00685 0
M  V30 564 C 66.6154 -1.52548 1.20177 0
M  V30 565 O 65.8904 -1.92452 0.281531 0
M  V30 566 C 66.1734 -0.635968 3.5444 0
M  V30 567 C 66.0264 0.607437 4.4568 0
M  V30 568 C 67.3454 -1.45747 4.15266 0
M  V30 569 H 64.4644 -0.104697 0.729526 0
M  V30 570 H 67.1064 0.428457 1.85106 0
M  V30 571 H 65.2564 -1.24986 3.67846 0
M  V30 572 H 66.9284 1.24581 4.44159 0
M  V30 573 H 65.1714 1.23822 4.15753 0
M  V30 574 H 65.8424 0.322515 5.51057 0
M  V30 575 H 68.3184 -0.938645 4.05375 0
M  V30 576 H 67.1944 -1.66683 5.2298 0
M  V30 577 H 67.4554 -2.45063 3.67963 0
M  V30 578 N 66.5145 -1.57545 0.0417849 0
M  V30 579 C 67.9255 -1.80011 -0.495259 0
M  V30 580 C 68.2765 -0.953199 -1.71489 0
M  V30 581 O 67.4015 -0.167138 -2.15754 0
M  V30 582 C 67.9965 -3.26482 -0.905265 0
M  V30 583 C 66.5555 -3.499 -1.38734 0
M  V30 584 C 65.7025 -2.74979 -0.358056 0
M  V30 585 H 68.6535 -1.56425 0.267736 0
M  V30 586 H 68.6745 -3.36887 -1.76882 0
M  V30 587 H 68.1865 -3.88096 -0.017401 0
M  V30 588 H 66.2875 -2.93553 -2.29471 0
M  V30 589 H 66.4005 -4.58615 -1.38598 0
M  V30 590 H 64.7645 -2.40834 -0.828912 0
M  V30 591 H 65.5475 -3.39315 0.521561 0
M  V30 592 N 67.9926 0.231505 -1.5589 0
M  V30 593 C 68.9226 1.29022 -1.94617 0
M  V30 594 C 69.9036 1.4941 -0.813067 0
M  V30 595 O 71.0886 1.6176 -1.07459 0
M  V30 596 C 68.2186 2.64199 -2.25424 0
M  V30 597 C 67.1726 2.58484 -3.41131 0
M  V30 598 C 66.4986 3.97599 -3.57518 0
M  V30 599 C 67.7986 2.1413 -4.76388 0
M  V30 600 H 69.4926 0.968563 -2.83301 0
M  V30 601 H 67.0386 0.464479 -1.36303 0
M  V30 602 H 68.9916 3.38413 -2.51107 0
M  V30 603 H 67.7156 2.98032 -1.33583 0
M  V30 604 H 66.3746 1.86727 -3.15481 0
M  V30 605 H 66.0226 4.28723 -2.6307 0
M  V30 606 H 65.7226 3.94659 -4.35337 0
M  V30 607 H 67.2466 4.7349 -3.85538 0
M  V30 608 H 68.6606 2.78083 -5.01341 0
M  V30 609 H 67.0576 2.2227 -5.57419 0
M  V30 610 H 68.1276 1.09331 -4.72414 0
M  V30 611 N 69.4707 1.49531 0.497807 0
M  V30 612 C 70.7177 1.59179 1.25173 0
M  V30 613 C 71.0457 0.279932 1.92475 0
M  V30 614 O 70.3007 -0.732383 1.81479 0
M  V30 615 C 70.5997 2.70252 2.33878 0
M  V30 616 C 70.2657 4.11644 1.84012 0
M  V30 617 C 68.9277 4.50121 1.70132 0
M  V30 618 C 71.2797 5.00121 1.46725 0
M  V30 619 C 68.6077 5.74845 1.17348 0
M  V30 620 C 70.9597 6.25366 0.95392 0
M  V30 621 C 69.6237 6.6267 0.801538 0
M  V30 622 H 68.8937 0.582478 0.45804 0
M  V30 623 H 71.5407 1.83373 0.551948 0
M  V30 624 H 69.8457 2.40041 3.09657 0
M  V30 625 H 71.5427 2.74925 2.9192 0
M  V30 626 H 68.1327 3.81274 1.95775 0
M  V30 627 H 72.3167 4.71048 1.56294 0
M  V30 628 H 67.5727 6.02444 1.04264 0
M  V30 629 H 71.7467 6.93301 0.656225 0
M  V30 630 H 69.3737 7.59197 0.390351 0
M  V30 631 N 70.9488 -0.749086 1.3866 0
M  V30 632 C 72.1958 -1.50833 1.35114 0
M  V30 633 C 72.5238 -1.94415 -0.0574049 0
M  V30 634 O 71.7788 -1.66065 -1.03541 0
M  V30 635 C 72.0778 -2.7712 2.25697 0
M  V30 636 C 71.7438 -2.52477 3.73585 0
M  V30 637 C 70.4058 -2.45466 4.13884 0
M  V30 638 C 72.7578 -2.31066 4.67181 0
M  V30 639 C 70.0858 -2.15064 5.45861 0
M  V30 640 C 72.4378 -2.02183 5.9942 0
M  V30 641 C 71.1018 -1.93631 6.38798 0
M  V30 642 H 70.3718 -0.551936 0.494416 0
M  V30 643 H 73.0188 -0.860979 1.71054 0
M  V30 644 H 71.3238 -3.46528 1.82827 0
M  V30 645 H 73.0208 -3.35096 2.20254 0
M  V30 646 H 69.6108 -2.58807 3.41638 0
M  V30 647 H 73.7948 -2.35459 4.3689 0
M  V30 648 H 69.0508 -2.06954 5.75308 0
M  V30 649 H 73.2248 -1.8462 6.71482 0
M  V30 650 H 70.8518 -1.69839 7.40985 0
M  V30 651 N 72.4269 -1.23603 -0.977757 0
M  V30 652 C 73.3899 -1.02069 -2.05218 0
M  V30 653 C 74.3899 0.0184305 -1.60789 0
M  V30 654 O 75.5799 -0.221569 -1.72785 0
M  V30 655 C 72.7119 -0.544926 -3.36517 0
M  V30 656 H 73.9049 -1.9742 -2.25755 0
M  V30 657 H 71.4579 -1.05684 -1.15155 0
M  V30 658 H 72.1929 0.412241 -3.21669 0
M  V30 659 H 71.9779 -1.2948 -3.70105 0
M  V30 660 H 73.4679 -0.414985 -4.15533 0
M  V30 661 N 73.905 1.17692 -1.04816 0
M  V30 662 C 74.868 2.19787 -0.650117 0
M  V30 663 C 75.868 1.58044 0.296427 0
M  V30 664 O 77.058 1.74012 0.0808097 0
M  V30 665 C 74.19 3.40869 0.0456987 0
M  V30 666 H 75.383 2.56516 -1.5537 0
M  V30 667 H 72.936 1.31708 -0.841594 0
M  V30 668 H 73.671 3.09681 0.962726 0
M  V30 669 H 73.456 3.86928 -0.634727 0
M  V30 670 H 74.946 4.16445 0.310432 0
M  V30 671 N 75.3831 0.828654 1.34056 0
M  V30 672 C 76.3131 0.269443 2.3194 0
M  V30 673 C 77.2941 -0.617247 1.58506 0
M  V30 674 O 78.4791 -0.542931 1.86456 0
M  V30 675 C 75.6091 -0.564793 3.42677 0
M  V30 676 C 74.5631 0.225241 4.27407 0
M  V30 677 C 73.8891 -0.7321 5.29664 0
M  V30 678 C 75.1891 1.43663 5.02154 0
M  V30 679 H 76.8831 1.08728 2.7896 0
M  V30 680 H 74.4291 0.524283 1.34117 0
M  V30 681 H 76.3821 -0.966233 4.10173 0
M  V30 682 H 75.1061 -1.41574 2.9432 0
M  V30 683 H 73.7651 0.608117 3.61521 0
M  V30 684 H 73.4131 -1.57916 4.77568 0
M  V30 685 H 73.1131 -0.20767 5.87233 0
M  V30 686 H 74.6371 -1.13128 6.00029 0
M  V30 687 H 76.0511 1.1089 5.62473 0
M  V30 688 H 74.4481 1.89711 5.69324 0
M  V30 689 H 75.5181 2.21181 4.31517 0
M  V30 690 N 76.8612 -1.46375 0.584142 0
M  V30 691 C 77.7942 -2.27351 -0.196676 0
M  V30 692 C 78.7722 -1.35715 -0.895561 0
M  V30 693 O 79.9562 -1.65126 -0.90916 0
M  V30 694 C 77.0832 -3.13486 -1.28235 0
M  V30 695 C 76.1292 -4.20896 -0.689145 0
M  V30 696 S 76.9622 -5.33299 0.48507 0
M  V30 697 C 78.1182 -6.23 -0.601767 0
M  V30 698 H 78.3512 -2.93228 0.490395 0
M  V30 699 H 75.8842 -1.49875 0.371071 0
M  V30 700 H 77.8422 -3.63676 -1.90395 0
M  V30 701 H 76.5032 -2.4692 -1.94138 0
M  V30 702 H 75.6962 -4.80997 -1.50527 0
M  V30 703 H 75.2982 -3.73726 -0.143181 0
M  V30 704 H 77.5902 -6.60979 -1.48705 0
M  V30 705 H 78.5332 -7.0809 -0.0374799 0
M  V30 706 H 78.9412 -5.57173 -0.906557 0
M  V30 707 N 78.3393 -0.321999 -1.54275 0
M  V30 708 C 79.2693 0.537411 -2.27231 0
M  V30 709 C 80.2503 1.12064 -1.27968 0
M  V30 710 O 81.4353 1.14606 -1.56777 0
M  V30 711 C 78.5653 1.69919 -3.02894 0
M  V30 712 C 77.5193 1.24534 -4.09482 0
M  V30 713 C 76.8453 2.49394 -4.72977 0
M  V30 714 C 78.1453 0.361335 -5.21049 0
M  V30 715 H 79.8393 -0.0711406 -2.99315 0
M  V30 716 H 77.3853 -0.0356555 -1.43956 0
M  V30 717 H 79.3383 2.30668 -3.52662 0
M  V30 718 H 78.0623 2.33431 -2.28424 0
M  V30 719 H 76.7213 0.660782 -3.60596 0
M  V30 720 H 76.3693 3.11265 -3.95124 0
M  V30 721 H 76.0693 2.19718 -5.44975 0
M  V30 722 H 77.5933 3.10908 -5.25517 0
M  V30 723 H 79.0073 0.875072 -5.66582 0
M  V30 724 H 77.4043 0.157428 -5.99893 0
M  V30 725 H 78.4743 -0.60822 -4.8107 0
M  V30 726 N 79.8174 1.5752 -0.0501392 0
M  V30 727 C 80.7474 2.14502 0.922566 0
M  V30 728 C 81.7284 1.06642 1.3252 0
M  V30 729 O 82.9134 1.34577 1.4001 0
M  V30 730 C 80.0434 2.68916 2.19776 0
M  V30 731 C 78.9974 3.8175 1.93523 0
M  V30 732 C 78.3234 4.22677 3.27487 0
M  V30 733 C 79.6234 5.06932 1.25765 0
M  V30 734 H 81.3174 2.9603 0.447952 0
M  V30 735 H 78.8634 1.42401 0.214024 0
M  V30 736 H 80.8164 3.07419 2.88222 0
M  V30 737 H 79.5404 1.84578 2.69441 0
M  V30 738 H 78.1994 3.43718 1.27489 0
M  V30 739 H 77.8474 3.35291 3.74952 0
M  V30 740 H 77.5474 4.98725 3.1072 0
M  V30 741 H 79.0714 4.63779 3.97166 0
M  V30 742 H 80.4854 5.42888 1.84244 0
M  V30 743 H 78.8824 5.88116 1.19328 0
M  V30 744 H 79.9524 4.84337 0.233536 0
M  V30 745 N 81.2955 -0.223234 1.56011 0
M  V30 746 C 82.5435 -0.946003 1.78592 0
M  V30 747 C 82.8645 -1.84936 0.618349 0
M  V30 748 O 82.1345 -1.92473 -0.364833 0
M  V30 749 H 80.7145 -0.352298 0.658707 0
M  V30 750 H 83.3765 -0.235494 1.93472 0
M  V30 751 H 82.4725 -1.55381 2.70672 0
M  V30 752 N 82.7736 -1.49793 -0.48987 0
M  V30 753 C 83.7036 -1.70201 -1.59856 0
M  V30 754 C 84.6846 -0.55076 -1.60937 0
M  V30 755 O 85.8696 -0.787841 -1.77501 0
M  V30 756 C 82.9996 -1.77882 -2.98287 0
M  V30 757 C 81.9536 -2.92907 -3.12073 0
M  V30 758 C 81.2796 -2.85712 -4.51965 0
M  V30 759 C 82.5796 -4.3369 -2.91051 0
M  V30 760 H 84.2736 -2.63025 -1.43032 0
M  V30 761 H 81.8196 -1.26574 -0.686664 0
M  V30 762 H 83.7726 -1.90744 -3.75759 0
M  V30 763 H 82.4966 -0.816653 -3.16225 0
M  V30 764 H 81.1556 -2.79665 -2.37029 0
M  V30 765 H 80.8036 -1.8738 -4.66795 0
M  V30 766 H 80.5036 -3.62921 -4.62128 0
M  V30 767 H 82.0276 -3.00598 -5.31482 0
M  V30 768 H 83.4416 -4.47555 -3.58284 0
M  V30 769 H 81.8386 -5.12205 -3.12675 0
M  V30 770 H 82.9086 -4.47362 -1.87071 0
M  V30 771 N 84.2517 0.741722 -1.39055 0
M  V30 772 C 85.4977 1.50336 -1.36113 0
M  V30 773 C 85.8307 1.94148 0.0450796 0
M  V30 774 O 85.1057 1.66301 1.00868 0
M  V30 775 C 85.3887 2.74773 -2.32749 0
M  V30 776 C 85.2417 2.37023 -3.82283 0
M  V30 777 C 86.5607 3.76846 -2.27322 0
M  V30 778 H 83.6797 0.545351 -0.495743 0
M  V30 779 H 86.3217 0.848624 -1.69995 0
M  V30 780 H 84.4717 3.30639 -2.03986 0
M  V30 781 H 86.1437 1.8684 -4.21768 0
M  V30 782 H 84.3867 1.69334 -3.99385 0
M  V30 783 H 85.0577 3.26104 -4.45376 0
M  V30 784 H 87.5337 3.30548 -2.5274 0
M  V30 785 H 86.4097 4.6159 -2.97028 0
M  V30 786 H 86.6707 4.23286 -1.27599 0
M  V30 787 N 85.7298 1.2412 0.971189 0
M  V30 788 C 86.9778 1.07668 1.71032 0
M  V30 789 C 87.2988 -0.385797 1.91146 0
M  V30 790 O 86.5688 -1.27569 1.4867 0
M  V30 791 H 85.1488 0.395429 0.633755 0
M  V30 792 H 87.8108 1.55984 1.16855 0
M  V30 793 H 86.9068 1.57195 2.69622 0
M  V30 794 N 87.2079 -1.17134 1.05439 0
M  V30 795 C 88.1559 -2.23289 0.651511 0
M  V30 796 C 89.1499 -1.66186 -0.328411 0
M  V30 797 O 90.3559 -1.78949 -0.194206 0
M  V30 798 H 86.7309 -0.726938 0.192523 0
M  V30 799 H 88.7019 -2.54565 1.55689 0
M  V30 800 C 87.4509 -3.47671 0.0448436 0
M  V30 801 H 86.7739 -3.91918 0.78996 0
M  V30 802 H 88.2139 -4.2353 -0.19964 0
M  V30 803 C 86.6729 -3.14453 -1.20918 0
M  V30 804 O 87.2029 -3.29459 -2.29825 0
M  V30 805 N 85.4089 -2.68657 -1.10779 0
M  V30 806 H 84.9559 -2.56646 -0.221526 0
M  V30 807 H 84.9139 -2.46804 -1.9477 0
M  V30 808 N 88.686 -0.835752 -1.33615 0
M  V30 809 C 89.911 -0.442389 -2.02627 0
M  V30 810 C 90.336 0.947735 -1.62479 0
M  V30 811 O 89.694 1.61907 -0.815826 0
M  V30 812 C 89.742 -0.567216 -3.56111 0
M  V30 813 O 88.846 0.407799 -4.10379 0
M  V30 814 H 88.187 -0.180278 -0.639059 0
M  V30 815 H 90.717 -1.12972 -1.70583 0
M  V30 816 H 90.727 -0.447708 -4.05536 0
M  V30 817 H 89.402 -1.58103 -3.84677 0
M  V30 818 H 87.979 0.246107 -3.72087 0
M  V30 819 N 90.1641 1.46063 -0.591896 0
M  V30 820 C 91.0941 2.33172 0.123673 0
M  V30 821 C 92.0751 1.45897 0.87453 0
M  V30 822 O 93.2601 1.74698 0.848181 0
M  V30 823 C 90.3901 3.28336 1.13194 0
M  V30 824 C 89.3441 4.25124 0.495324 0
M  V30 825 C 88.6701 5.09863 1.61071 0
M  V30 826 C 89.9701 5.19143 -0.573425 0
M  V30 827 H 91.6641 2.93252 -0.603646 0
M  V30 828 H 89.2101 1.41014 -0.291741 0
M  V30 829 H 91.1631 3.88137 1.64097 0
M  V30 830 H 89.8871 2.66383 1.88965 0
M  V30 831 H 88.5461 3.66599 0.00729452 0
M  V30 832 H 88.1941 4.44288 2.35832 0
M  V30 833 H 87.8941 5.75417 1.19035 0
M  V30 834 H 89.4181 5.72529 2.12233 0
M  V30 835 H 90.8321 5.73106 -0.1491 0
M  V30 836 H 89.2291 5.93089 -0.914636 0
M  V30 837 H 90.2991 4.62519 -1.45617 0
M  V30 838 N 91.6422 0.330177 1.54103 0
M  V30 839 C 92.8882 -0.270806 2.00984 0
M  V30 840 C 93.2212 -1.51265 1.21789 0
M  V30 841 O 92.4962 -1.92142 0.301927 0
M  V30 842 C 92.7792 -0.598339 3.55094 0
M  V30 843 C 92.6322 0.654674 4.4501 0
M  V30 844 C 93.9512 -1.41334 4.16789 0
M  V30 845 H 91.0702 -0.0969531 0.730595 0
M  V30 846 H 93.7122 0.448066 1.84641 0
M  V30 847 H 91.8622 -1.21078 3.69151 0
M  V30 848 H 93.5342 1.29285 4.42813 0
M  V30 849 H 91.7772 1.28224 4.14416 0
M  V30 850 H 92.4482 0.380944 5.50684 0
M  V30 851 H 94.9242 -0.895597 4.06347 0
M  V30 852 H 93.8002 -1.61127 5.24718 0
M  V30 853 H 94.0612 -2.41146 3.70541 0
M  V30 854 N 93.1203 -1.57491 0.0584922 0
M  V30 855 C 94.3693 -1.92155 -0.613146 0
M  V30 856 C 94.6823 -0.939334 -1.71569 0
M  V30 857 O 95.8883 -1.17829 -2.44599 0
M  V30 858 C 94.3443 -3.41303 -1.14195 0
M  V30 859 C 93.9523 -4.47944 -0.0711265 0
M  V30 860 C 95.6963 -3.84988 -1.78841 0
M  V30 861 C 93.6033 -5.88212 -0.613225 0
M  V30 862 H 92.5333 -0.717162 -0.232796 0
M  V30 863 H 95.1843 -1.83049 0.12857 0
M  V30 864 H 93.5663 -3.45437 -1.93621 0
M  V30 865 H 94.7403 -4.55408 0.702836 0
M  V30 866 H 93.0553 -4.13644 0.478313 0
M  V30 867 H 95.6523 -4.87159 -2.20408 0
M  V30 868 H 95.9953 -3.21632 -2.64308 0
M  V30 869 H 96.5283 -3.83401 -1.06059 0
M  V30 870 H 93.2673 -6.55183 0.203978 0
M  V30 871 H 92.7873 -5.84294 -1.35501 0
M  V30 872 H 94.4663 -6.37687 -1.09383 0
M  V30 873 N 94.5984 0.214957 -1.56127 0
M  V30 874 C 95.8284 0.953707 -1.8327 0
M  V30 875 C 96.2364 1.78181 -0.636262 0
M  V30 876 O 95.5794 1.79191 0.404516 0
M  V30 877 C 95.6414 1.91516 -3.0424 0
M  V30 878 C 95.3054 1.27094 -4.38972 0
M  V30 879 C 96.3024 0.657575 -5.15725 0
M  V30 880 C 93.9874 1.28073 -4.85698 0
M  V30 881 C 95.9814 0.0625968 -6.37369 0
M  V30 882 C 93.6684 0.681914 -6.07283 0
M  V30 883 C 94.6664 0.0739046 -6.8296 0
M  V30 884 O 94.3544 -0.515582 -8.02245 0
M  V30 885 H 94.0864 0.284764 -0.613095 0
M  V30 886 H 96.6404 0.233283 -2.04071 0
M  V30 887 H 94.8704 2.67475 -2.79274 0
M  V30 888 H 96.5594 2.52001 -3.18198 0
M  V30 889 H 97.3254 0.642288 -4.80728 0
M  V30 890 H 93.2044 1.74337 -4.26764 0
M  V30 891 H 96.7484 -0.412593 -6.96379 0
M  V30 892 H 92.6454 0.694636 -6.41752 0
M  V30 893 H 93.4134 -0.410544 -8.1747 0
M  V30 894 N 96.0765 1.50051 0.48192 0
M  V30 895 C 97.3225 1.60736 1.2366 0
M  V30 896 C 97.6555 0.301786 1.91841 0
M  V30 897 O 96.9305 -0.696025 1.8162 0
M  V30 898 C 97.2135 2.78009 2.28874 0
M  V30 899 C 97.0665 4.18416 1.65069 0
M  V30 900 C 98.3855 2.90867 3.30279 0
M  V30 901 H 95.5045 0.585031 0.448228 0
M  V30 902 H 98.1465 1.82402 0.531946 0
M  V30 903 H 96.2965 2.59667 2.88973 0
M  V30 904 H 97.9685 4.48322 1.0865 0
M  V30 905 H 96.2115 4.23177 0.954148 0
M  V30 906 H 96.8825 4.96381 2.41474 0
M  V30 907 H 99.3585 3.07623 2.80191 0
M  V30 908 H 98.2345 3.74566 4.01238 0
M  V30 909 H 98.4955 2.01021 3.93755 0
M  V30 910 N 97.5546 -0.734337 1.39446 0
M  V30 911 C 98.8036 -1.48937 1.36017 0
M  V30 912 C 99.1166 -1.95557 -0.0409005 0
M  V30 913 O 100.323 -2.70779 -0.19778 0
M  V30 914 C 98.7786 -2.69125 2.38955 0
M  V30 915 C 98.3866 -2.29452 3.8478 0
M  V30 916 C 100.131 -3.46944 2.44603 0
M  V30 917 C 98.0376 -3.46366 4.79358 0
M  V30 918 H 96.9676 -0.559296 0.505672 0
M  V30 919 H 99.6186 -0.800983 1.65095 0
M  V30 920 H 98.0006 -3.40041 2.02948 0
M  V30 921 H 99.1746 -1.66077 4.29831 0
M  V30 922 H 97.4896 -1.64723 3.82433 0
M  V30 923 H 100.087 -4.33907 3.12456 0
M  V30 924 H 100.43 -3.89454 1.47076 0
M  V30 925 H 100.963 -2.83056 2.79507 0
M  V30 926 H 97.7016 -3.08905 5.78151 0
M  V30 927 H 97.2216 -4.08719 4.38986 0
M  V30 928 H 98.9006 -4.12691 4.98292 0
M  V30 929 N 99.0327 -1.24633 -0.964593 0
M  V30 930 C 100.273 -1.09981 -1.72289 0
M  V30 931 C 100.637 0.354792 -1.88693 0
M  V30 932 O 101.838 0.62289 -2.61483 0
M  V30 933 C 100.109 -1.82262 -3.07434 0
M  V30 934 S 101.668 -1.83379 -3.98645 0
M  V30 935 H 98.4857 -0.393292 -0.59232 0
M  V30 936 H 101.088 -1.58009 -1.15123 0
M  V30 937 H 99.7917 -2.87206 -2.93157 0
M  V30 938 H 99.3227 -1.3458 -3.69664 0
M  V30 939 H 101.338 -0.903691 -4.87901 0
M  V30 940 N 100.511 1.16574 -1.06058 0
M  V30 941 C 101.927 1.3904 -0.783585 0
M  V30 942 C 102.127 1.91784 0.618145 0
M  V30 943 O 101.183 2.11511 1.37911 0
M  V30 944 C 102.496 2.37329 -1.84649 0
M  V30 945 C 104.044 2.51018 -1.86973 0
M  V30 946 C 104.519 3.52588 -2.92311 0
M  V30 947 N 106.01 3.60113 -2.91329 0
M  V30 948 C 106.745 4.38486 -3.69482 0
M  V30 949 N 106.241 5.20302 -4.57447 0
M  V30 950 N 108.034 4.33446 -3.57885 0
M  V30 951 H 100.185 0.806725 -1.96483 0
M  V30 952 H 102.448 0.417117 -0.851303 0
M  V30 953 H 102.154 2.05663 -2.85299 0
M  V30 954 H 102.028 3.36946 -1.6955 0
M  V30 955 H 104.415 2.81989 -0.869827 0
M  V30 956 H 104.496 1.51445 -2.0615 0
M  V30 957 H 104.14 3.22354 -3.92492 0
M  V30 958 H 104.07 4.51886 -2.70383 0
M  V30 959 H 106.561 3.01707 -2.27555 0
M  V30 960 H 106.874 5.77311 -5.13743 0
M  V30 961 H 105.219 5.19653 -4.61503 0
M  V30 962 H 108.41 3.68586 -2.88551 0
M  V30 963 H 108.583 4.94279 -4.19037 0
M  V30 964 N 101.989 0.842826 1.3317 0
M  V30 965 C 102.939 0.250877 2.26616 0
M  V30 966 C 103.923 -0.596427 1.49437 0
M  V30 967 O 105.115 -0.447747 1.71243 0
M  V30 968 C 102.244 -0.569779 3.38539 0
M  V30 969 C 101.33 0.289254 4.23112 0
M  V30 970 N 101.721 1.36987 4.86897 0
M  V30 971 C 100.019 0.0769631 4.45934 0
M  V30 972 C 100.72 1.89737 5.49886 0
M  V30 973 N 99.6959 1.19827 5.30229 0
M  V30 974 H 103.498 1.07718 2.73448 0
M  V30 975 H 101.012 0.687693 1.47121 0
M  V30 976 H 103.009 -1.01018 4.04476 0
M  V30 977 H 101.669 -1.39401 2.93253 0
M  V30 978 H 102.68 1.75277 4.87338 0
M  V30 979 H 99.3569 -0.713507 4.11358 0
M  V30 980 H 100.747 2.80253 6.10662 0
M  V30 981 N 103.467 -1.45747 0.599634 0
M  V30 982 C 104.414 -2.30467 -0.123849 0
M  V30 983 C 105.384 -1.41632 -0.86774 0
M  V30 984 O 106.569 -1.70568 -0.855056 0
M  V30 985 C 103.709 -3.26402 -1.12051 0
M  V30 986 C 102.822 -4.3034 -0.37832 0
M  V30 987 C 101.957 -5.13389 -1.364 0
M  V30 988 C 100.996 -6.09061 -0.609171 0
M  V30 989 N 100.133 -6.84918 -1.54374 0
M  V30 990 H 104.973 -2.91802 0.604627 0
M  V30 991 H 102.51 -1.43797 0.309972 0
M  V30 992 H 104.468 -3.80482 -1.7114 0
M  V30 993 H 103.098 -2.66839 -1.8165 0
M  V30 994 H 102.15 -3.78984 0.327929 0
M  V30 995 H 103.462 -4.98354 0.210997 0
M  V30 996 H 102.616 -5.7183 -2.02719 0
M  V30 997 H 101.355 -4.45376 -1.98725 0
M  V30 998 H 100.36 -5.49758 0.0676979 0
M  V30 999 H 101.585 -6.79099 0.00891991 0
M  V30 1000 H 99.531 -6.19601 -2.15478 0
M  V30 1001 H 99.448 -7.49254 -1.00766 0
M  V30 1002 H 100.716 -7.47906 -2.19676 0
M  V30 1003 N 104.945 -0.338344 -1.53925 0
M  V30 1004 C 106.356 0.146651 -1.86123 0
M  V30 1005 C 106.707 1.5042 -1.2597 0
M  V30 1006 O 105.832 2.08723 -0.571294 0
M  V30 1007 C 106.427 0.272879 -3.37699 0
M  V30 1008 C 104.986 0.702103 -3.69794 0
M  V30 1009 C 104.133 -0.167304 -2.76795 0
M  V30 1010 H 107.084 -0.558123 -1.48562 0
M  V30 1011 H 107.105 1.10128 -3.64214 0
M  V30 1012 H 106.617 -0.715307 -3.81451 0
M  V30 1013 H 104.718 1.6995 -3.31584 0
M  V30 1014 H 104.831 0.495604 -4.7653 0
M  V30 1015 H 103.195 0.359527 -2.5215 0
M  V30 1016 H 103.978 -1.15253 -3.23375 0
M  V30 1017 N 106.423 1.57458 -0.0668435 0
M  V30 1018 C 107.356 2.08033 0.93795 0
M  V30 1019 C 108.334 0.984321 1.29421 0
M  V30 1020 O 109.518 1.25736 1.40437 0
M  V30 1021 C 106.645 2.53388 2.24749 0
M  V30 1022 C 105.691 3.74376 2.04315 0
M  V30 1023 S 106.524 5.19303 1.30706 0
M  V30 1024 C 107.68 5.67986 2.62951 0
M  V30 1025 H 107.913 2.92935 0.50759 0
M  V30 1026 H 105.446 1.5371 0.145804 0
M  V30 1027 H 107.404 2.8018 3.00016 0
M  V30 1028 H 106.065 1.68763 2.64911 0
M  V30 1029 H 105.258 4.04083 3.01218 0
M  V30 1030 H 104.86 3.47931 1.37186 0
M  V30 1031 H 107.152 5.74528 3.5906 0
M  V30 1032 H 108.095 6.66955 2.3786 0
M  V30 1033 H 108.503 4.95781 2.69929 0
M  V30 1034 N 107.901 -0.206675 1.56239 0
M  V30 1035 C 109.317 -0.557025 1.49564 0
M  V30 1036 C 109.517 -1.86424 0.764735 0
M  V30 1037 O 108.573 -2.50584 0.310491 0
M  V30 1038 C 109.886 -0.622478 2.94186 0
M  V30 1039 C 111.434 -0.712099 3.04792 0
M  V30 1040 C 111.909 -0.808767 4.50803 0
M  V30 1041 N 113.4 -0.8726 4.54907 0
M  V30 1042 C 114.135 -0.967365 5.65181 0
M  V30 1043 N 113.631 -1.02515 6.85173 0
M  V30 1044 N 115.424 -1.00366 5.53067 0
M  V30 1045 H 107.575 0.650943 2.02179 0
M  V30 1046 H 109.838 0.230387 0.919579 0
M  V30 1047 H 109.544 0.268727 3.50672 0
M  V30 1048 H 109.418 -1.4811 3.46905 0
M  V30 1049 H 111.805 -1.59374 2.48363 0
M  V30 1050 H 111.886 0.172489 2.55218 0
M  V30 1051 H 111.53 0.0684754 5.07854 0
M  V30 1052 H 111.46 -1.70899 4.98098 0
M  V30 1053 H 113.951 -0.837657 3.68499 0
M  V30 1054 H 114.264 -1.09765 7.64965 0
M  V30 1055 H 112.609 -0.994026 6.87855 0
M  V30 1056 H 115.8 -0.95527 4.58249 0
M  V30 1057 H 115.973 -1.07405 6.39037 0
M  V30 1058 N 109.379 -1.50304 -0.473955 0
M  V30 1059 C 110.607 -1.64902 -1.24959 0
M  V30 1060 C 111.022 -0.331198 -1.85872 0
M  V30 1061 O 110.379 0.68652 -1.69095 0
M  V30 1062 C 110.43 -2.73803 -2.36038 0
M  V30 1063 O 110.151 -4.00477 -1.77624 0
M  V30 1064 C 111.652 -2.99349 -3.26964 0
M  V30 1065 H 108.872 -0.554383 -0.378022 0
M  V30 1066 H 111.416 -1.9651 -0.566054 0
M  V30 1067 H 109.571 -2.44898 -3.00173 0
M  V30 1068 H 109.985 -4.60678 -2.5075 0
M  V30 1069 H 111.459 -3.79217 -4.01121 0
M  V30 1070 H 111.936 -2.10307 -3.85574 0
M  V30 1071 H 112.542 -3.29774 -2.68569 0
M  V30 1072 N 110.857 0.726932 -1.39834 0
M  V30 1073 C 112.103 1.48884 -1.377 0
M  V30 1074 C 112.436 1.94185 0.0244852 0
M  V30 1075 O 111.711 1.67361 0.990986 0
M  V30 1076 C 111.994 2.72288 -2.3565 0
M  V30 1077 C 111.847 2.32956 -3.84775 0
M  V30 1078 C 113.166 3.74414 -2.31306 0
M  V30 1079 H 110.285 0.540062 -0.5015 0
M  V30 1080 H 112.927 0.830547 -1.70886 0
M  V30 1081 H 111.077 3.28457 -2.07481 0
M  V30 1082 H 112.749 1.82356 -4.23726 0
M  V30 1083 H 110.992 1.65088 -4.01159 0
M  V30 1084 H 111.663 3.21362 -4.4881 0
M  V30 1085 H 114.139 3.27849 -2.56231 0
M  V30 1086 H 113.015 4.58414 -3.01907 0
M  V30 1087 H 113.276 4.21909 -1.32081 0
M  V30 1088 N 112.336 1.25143 0.95797 0
M  V30 1089 C 113.564 1.12424 1.73691 0
M  V30 1090 C 113.979 -0.322304 1.86029 0
M  V30 1091 O 113.336 -1.22186 1.35561 0
M  V30 1092 C 113.387 1.76933 3.15241 0
M  V30 1093 O 113.108 3.15932 3.03511 0
M  V30 1094 C 114.609 1.6995 4.09429 0
M  V30 1095 H 111.829 0.3923 0.544373 0
M  V30 1096 H 114.373 1.6544 1.20207 0
M  V30 1097 H 112.528 1.27895 3.6568 0
M  V30 1098 H 112.942 3.47598 3.9278 0
M  V30 1099 H 114.416 2.19753 5.06372 0
M  V30 1100 H 114.893 0.662619 4.34173 0
M  V30 1101 H 115.499 2.18461 3.64904 0
M  V30 1102 N 113.814 -1.1601 1.06675 0
M  V30 1103 C 114.762 -2.22586 0.675157 0
M  V30 1104 C 115.756 -1.66525 -0.310766 0
M  V30 1105 O 116.962 -1.79145 -0.175215 0
M  V30 1106 H 113.337 -0.724855 0.200223 0
M  V30 1107 H 115.308 -2.52899 1.58381 0
M  V30 1108 C 114.057 -3.47604 0.0817162 0
M  V30 1109 H 113.38 -3.91058 0.831484 0
M  V30 1110 H 114.82 -4.23718 -0.154708 0
M  V30 1111 C 113.279 -3.15718 -1.17576 0
M  V30 1112 O 113.809 -3.31878 -2.26318 0
M  V30 1113 N 112.015 -2.69816 -1.07923 0
M  V30 1114 H 111.562 -2.56866 -0.194293 0
M  V30 1115 H 111.52 -2.48855 -1.92141 0
M  V30 1116 N 115.292 -0.849877 -1.32721 0
M  V30 1117 C 116.539 -0.450923 -1.97416 0
M  V30 1118 C 116.867 0.992376 -1.67279 0
M  V30 1119 O 116.122 1.71048 -0.950845 0
M  V30 1120 C 116.421 -0.631272 -3.51781 0
M  V30 1121 C 116.087 -2.04432 -4.01894 0
M  V30 1122 C 114.749 -2.4308 -4.1529 0
M  V30 1123 C 117.101 -2.96679 -4.28522 0
M  V30 1124 C 114.429 -3.73257 -4.52654 0
M  V30 1125 C 116.781 -4.26349 -4.67343 0
M  V30 1126 C 115.445 -4.64939 -4.78945 0
M  V30 1127 H 114.715 -0.165004 -0.722395 0
M  V30 1128 H 117.362 -1.07901 -1.58207 0
M  V30 1129 H 115.667 0.0800767 -3.91718 0
M  V30 1130 H 117.364 -0.302709 -3.99856 0
M  V30 1131 H 113.954 -1.73419 -3.91949 0
M  V30 1132 H 118.138 -2.68054 -4.17685 0
M  V30 1133 H 113.394 -4.02946 -4.59831 0
M  V30 1134 H 117.568 -4.97895 -4.86902 0
M  V30 1135 H 115.195 -5.65855 -5.07654 0
M  V30 1136 N 116.77 1.45427 -0.607355 0
M  V30 1137 C 118 2.06314 -0.108656 0
M  V30 1138 C 118.408 1.45269 1.21217 0
M  V30 1139 O 117.751 0.561115 1.74921 0
M  V30 1140 C 117.813 3.59345 0.105618 0
M  V30 1141 C 117.477 4.42723 -1.13337 0
M  V30 1142 C 118.474 4.77715 -2.05145 0
M  V30 1143 C 116.159 4.83478 -1.36213 0
M  V30 1144 C 118.153 5.52317 -3.18158 0
M  V30 1145 C 115.84 5.57835 -2.49527 0
M  V30 1146 C 116.838 5.92171 -3.40327 0
M  V30 1147 O 116.526 6.65019 -4.51669 0
M  V30 1148 H 116.258 0.672782 -0.0658842 0
M  V30 1149 H 118.812 1.87664 -0.834945 0
M  V30 1150 H 117.042 3.76394 0.886796 0
M  V30 1151 H 118.731 4.02076 0.555886 0
M  V30 1152 H 119.497 4.46787 -1.88697 0
M  V30 1153 H 115.376 4.56188 -0.664362 0
M  V30 1154 H 118.92 5.79036 -3.89054 0
M  V30 1155 H 114.817 5.88177 -2.65928 0
M  V30 1156 H 115.585 6.83469 -4.50348 0
M  V30 1157 N 118.248 0.346503 1.53744 0
M  V30 1158 C 119.497 -0.250122 2.00143 0
M  V30 1159 C 119.81 -1.51418 1.23822 0
M  V30 1160 O 121.016 -2.18823 1.60713 0
M  V30 1161 C 119.472 -0.496252 3.56462 0
M  V30 1162 C 119.08 0.752077 4.41642 0
M  V30 1163 C 120.824 -1.05157 4.11269 0
M  V30 1164 C 118.731 0.476583 5.89477 0
M  V30 1165 H 117.661 -0.0972409 0.747703 0
M  V30 1166 H 120.312 0.46229 1.77581 0
M  V30 1167 H 118.694 -1.26944 3.75102 0
M  V30 1168 H 119.868 1.5266 4.34778 0
M  V30 1169 H 118.183 1.22925 3.97842 0
M  V30 1170 H 120.78 -1.27269 5.19333 0
M  V30 1171 H 121.123 -2.00799 3.64672 0
M  V30 1172 H 121.656 -0.339019 3.96353 0
M  V30 1173 H 118.395 1.4028 6.40314 0
M  V30 1174 H 117.915 -0.259794 5.99237 0
M  V30 1175 H 119.594 0.0949315 6.4693 0
M  V30 1176 N 119.726 -1.57421 0.075193 0
M  V30 1177 C 120.689 -2.11791 -0.876203 0
M  V30 1178 C 121.689 -1.04268 -1.22412 0
M  V30 1179 O 122.879 -1.30242 -1.15684 0
M  V30 1180 C 120.011 -2.62207 -2.17854 0
M  V30 1181 H 121.204 -2.9716 -0.40444 0
M  V30 1182 H 118.757 -1.55333 -0.173557 0
M  V30 1183 H 119.492 -1.803 -2.6956 0
M  V30 1184 H 119.277 -3.40802 -1.93897 0
M  V30 1185 H 120.767 -3.04335 -2.85955 0
M  V30 1186 N 121.204 0.198386 -1.56346 0
M  V30 1187 C 122.152 1.26538 -1.95169 0
M  V30 1188 C 123.146 1.47295 -0.836685 0
M  V30 1189 O 124.352 1.48195 -1.02167 0
M  V30 1190 H 120.727 0.424744 -0.620561 0
M  V30 1191 H 122.698 0.910904 -2.84157 0
M  V30 1192 C 121.447 2.6035 -2.30463 0
M  V30 1193 H 120.77 2.45192 -3.15786 0
M  V30 1194 H 122.21 3.33762 -2.61494 0
M  V30 1195 C 120.669 3.17096 -1.13806 0
M  V30 1196 O 121.199 3.99588 -0.41135 0
M  V30 1197 N 119.405 2.75795 -0.915736 0
M  V30 1198 H 118.952 2.08816 -1.50843 0
M  V30 1199 H 118.91 3.14101 -0.136979 0
M  V30 1200 N 122.682 1.50554 0.465978 0
M  V30 1201 C 123.612 1.72722 1.57128 0
M  V30 1202 C 124.593 0.576294 1.6004 0
M  V30 1203 O 125.778 0.81598 1.76225 0
M  V30 1204 C 122.908 1.82605 2.95419 0
M  V30 1205 C 121.862 2.97835 3.07373 0
M  V30 1206 C 121.188 2.92867 4.47363 0
M  V30 1207 C 122.488 4.38265 2.84114 0
M  V30 1208 H 124.182 2.65267 1.38829 0
M  V30 1209 H 121.728 1.2765 0.666441 0
M  V30 1210 H 123.681 1.96698 3.72677 0
M  V30 1211 H 122.405 0.866858 3.14886 0
M  V30 1212 H 121.064 2.83401 2.3255 0
M  V30 1213 H 120.712 1.94783 4.63755 0
M  V30 1214 H 120.412 3.70227 4.56296 0
M  V30 1215 H 121.936 3.09015 5.26633 0
M  V30 1216 H 123.35 4.53198 3.51118 0
M  V30 1217 H 121.747 5.17115 3.04487 0
M  V30 1218 H 122.817 4.50281 1.7993 0
M  V30 1219 N 124.16 -0.719506 1.40217 0
M  V30 1220 C 125.123 -1.8153 1.39927 0
M  V30 1221 C 126.123 -1.58095 0.293723 0
M  V30 1222 O 127.313 -1.65209 0.552429 0
M  V30 1223 C 124.445 -3.19561 1.18716 0
M  V30 1224 H 125.638 -1.83186 2.37451 0
M  V30 1225 H 123.191 -0.924746 1.26008 0
M  V30 1226 H 123.926 -3.23557 0.219366 0
M  V30 1227 H 123.711 -3.3797 1.98793 0
M  V30 1228 H 125.201 -3.99598 1.21291 0
M  V30 1229 N 125.638 -1.25649 -0.95132 0
M  V30 1230 C 126.601 -1.06399 -2.03007 0
M  V30 1231 C 127.601 -0.0156794 -1.60792 0
M  V30 1232 O 128.791 -0.25817 -1.72276 0
M  V30 1233 C 125.923 -0.616184 -3.35285 0
M  V30 1234 H 127.116 -2.02164 -2.21517 0
M  V30 1235 H 124.669 -1.08103 -1.12887 0
M  V30 1236 H 125.404 0.343917 -3.22471 0
M  V30 1237 H 125.189 -1.37301 -3.67275 0
M  V30 1238 H 126.679 -0.503032 -4.14559 0
M  V30 1239 N 127.117 1.15442 -1.07289 0
M  V30 1240 C 128.345 1.90096 -0.81676 0
M  V30 1241 C 128.76 1.7798 0.629966 0
M  V30 1242 O 128.117 1.1313 1.43206 0
M  V30 1243 C 128.168 3.40466 -1.21512 0
M  V30 1244 O 127.889 3.52232 -2.60508 0
M  V30 1245 C 129.39 4.32145 -0.988198 0
M  V30 1246 H 126.61 0.602495 -0.295366 0
M  V30 1247 H 129.154 1.4627 -1.42918 0
M  V30 1248 H 127.309 3.81958 -0.647039 0
M  V30 1249 H 127.723 4.45549 -2.76742 0
M  V30 1250 H 129.197 5.36072 -1.31645 0
M  V30 1251 H 129.674 4.39135 0.0755063 0
M  V30 1252 H 130.28 3.96395 -1.54115 0
M  V30 1253 N 128.595 0.856903 1.32268 0
M  V30 1254 C 129.872 0.382583 1.91822 0
M  V30 1255 C 130.252 -1.13407 1.78051 0
M  V30 1256 O 129.6 -1.95673 1.18001 0
M  V30 1257 C 129.81 0.849446 3.38505 0
M  V30 1258 C 131.158 0.867936 4.15634 0
M  V30 1259 O 132.182 0.794232 3.47232 0
M  V30 1260 O 131.041 0.972286 5.37781 0
M  V30 1261 H 128.135 0.112014 0.819379 0
M  V30 1262 H 130.681 0.943952 1.41024 0
M  V30 1263 H 129.453 1.89267 3.42482 0
M  V30 1264 H 129.076 0.265652 3.96712 0
M  V30 1265 N 130.073 -1.45103 0.615059 0
M  V30 1266 C 131.319 -2.02483 0.113347 0
M  V30 1267 C 131.652 -1.48146 -1.25564 0
M  V30 1268 O 130.927 -0.659104 -1.82992 0
M  V30 1269 C 131.21 -3.60005 0.0825278 0
M  V30 1270 C 131.063 -4.2466 1.48271 0
M  V30 1271 C 132.382 -4.35972 -0.601401 0
M  V30 1272 H 129.501 -0.735764 0.0426632 0
M  V30 1273 H 132.143 -1.72868 0.788461 0
M  V30 1274 H 130.293 -3.85367 -0.492378 0
M  V30 1275 H 131.965 -4.10458 2.10527 0
M  V30 1276 H 130.208 -3.82772 2.04127 0
M  V30 1277 H 130.879 -5.336 1.41332 0
M  V30 1278 H 133.355 -4.15947 -0.112666 0
M  V30 1279 H 132.231 -5.45697 -0.592097 0
M  V30 1280 H 132.492 -4.09391 -1.66887 0
M  V30 1281 N 131.551 -0.354651 -1.53558 0
M  V30 1282 C 132.779 0.239515 -2.05509 0
M  V30 1283 C 133.194 1.4333 -1.2289 0
M  V30 1284 O 132.551 1.80538 -0.266899 0
M  V30 1285 C 132.602 0.643719 -3.55723 0
M  V30 1286 O 132.323 -0.502602 -4.35207 0
M  V30 1287 C 133.824 1.29743 -4.23889 0
M  V30 1288 H 131.044 0.0442697 -0.669538 0
M  V30 1289 H 133.588 -0.509856 -1.98042 0
M  V30 1290 H 131.743 1.34302 -3.63376 0
M  V30 1291 H 132.157 -0.178172 -5.24197 0
M  V30 1292 H 133.631 1.53091 -5.30346 0
M  V30 1293 H 134.108 2.25441 -3.76926 0
M  V30 1294 H 134.714 0.639865 -4.20459 0
M  V30 1295 N 133.029 1.57378 -0.0835403 0
M  V30 1296 C 134.276 1.9393 0.58287 0
M  V30 1297 C 134.604 0.964455 1.68904 0
M  V30 1298 O 133.859 -0.0179474 1.95692 0
M  V30 1299 C 134.158 3.37063 1.1884 0
M  V30 1300 C 133.824 4.50424 0.207194 0
M  V30 1301 C 132.486 4.81159 -0.0627115 0
M  V30 1302 C 134.838 5.19136 -0.463426 0
M  V30 1303 C 132.166 5.77939 -1.01012 0
M  V30 1304 C 134.518 6.16931 -1.39924 0
M  V30 1305 C 133.182 6.46078 -1.67749 0
M  V30 1306 H 132.452 0.70964 0.213287 0
M  V30 1307 H 135.099 1.90856 -0.156916 0
M  V30 1308 H 133.404 3.3666 2.00418 0
M  V30 1309 H 135.101 3.6264 1.71153 0
M  V30 1310 H 131.691 4.2646 0.427747 0
M  V30 1311 H 135.875 4.95576 -0.268034 0
M  V30 1312 H 131.131 5.98842 -1.23283 0
M  V30 1313 H 135.305 6.69273 -1.92476 0
M  V30 1314 H 132.932 7.2088 -2.41321 0
M  V30 1315 N 134.507 -0.190092 1.56449 0
M  V30 1316 C 135.437 -1.23816 1.97969 0
M  V30 1317 C 136.418 -1.47201 0.852395 0
M  V30 1318 O 137.603 -1.58854 1.1171 0
M  V30 1319 C 134.733 -2.5813 2.3235 0
M  V30 1320 C 133.687 -2.49348 3.47864 0
M  V30 1321 C 133.013 -3.8798 3.67934 0
M  V30 1322 C 134.313 -2.01424 4.81898 0
M  V30 1323 H 136.007 -0.89311 2.85769 0
M  V30 1324 H 133.553 -0.428177 1.37487 0
M  V30 1325 H 135.506 -3.31637 2.59991 0
M  V30 1326 H 134.23 -2.94386 1.41438 0
M  V30 1327 H 132.889 -1.78297 3.20321 0
M  V30 1328 H 132.537 -4.21597 2.74344 0
M  V30 1329 H 132.237 -3.82978 4.45648 0
M  V30 1330 H 133.761 -4.63101 3.97957 0
M  V30 1331 H 135.175 -2.64693 5.08538 0
M  V30 1332 H 133.572 -2.07413 5.63116 0
M  V30 1333 H 134.642 -0.967677 4.75146 0
M  V30 1334 N 135.985 -1.50799 -0.457987 0
M  V30 1335 C 136.915 -1.73553 -1.5621 0
M  V30 1336 C 137.896 -0.584774 -1.59732 0
M  V30 1337 O 139.081 -0.825314 -1.7579 0
M  V30 1338 C 136.211 -1.84169 -2.94447 0
M  V30 1339 C 135.165 -2.99461 -3.0579 0
M  V30 1340 C 134.491 -2.95235 -4.45803 0
M  V30 1341 C 135.791 -4.39766 -2.81786 0
M  V30 1342 H 137.485 -2.66 -1.37421 0
M  V30 1343 H 135.031 -1.28002 -0.659662 0
M  V30 1344 H 136.984 -1.98672 -3.71628 0
M  V30 1345 H 135.708 -0.883545 -3.14422 0
M  V30 1346 H 134.367 -2.8463 -2.31044 0
M  V30 1347 H 134.015 -1.97239 -4.62715 0
M  V30 1348 H 133.715 -3.72642 -4.54326 0
M  V30 1349 H 135.239 -3.11803 -5.24987 0
M  V30 1350 H 136.653 -4.55054 -3.4871 0
M  V30 1351 H 135.05 -5.18722 -3.0174 0
M  V30 1352 H 136.12 -4.51229 -1.7754 0
M  V30 1353 N 137.463 0.71206 -1.40597 0
M  V30 1354 C 138.703 1.48438 -1.40519 0
M  V30 1355 C 139.067 1.91998 -0.00767611 0
M  V30 1356 O 140.268 2.6854 0.118239 0
M  V30 1357 C 138.539 2.67514 -2.37004 0
M  V30 1358 S 140.098 3.56875 -2.55315 0
M  V30 1359 H 136.916 0.507457 -0.498005 0
M  V30 1360 H 139.518 0.832355 -1.76896 0
M  V30 1361 H 138.222 2.33689 -3.37368 0
M  V30 1362 H 137.753 3.37625 -2.01923 0
M  V30 1363 H 139.768 4.62081 -1.8082 0
M  V30 1364 N 138.941 1.26152 0.944643 0
M  V30 1365 C 140.181 1.12708 1.70517 0
M  V30 1366 C 140.545 -0.324727 1.89234 0
M  V30 1367 O 141.746 -0.581211 2.62441 0
M  V30 1368 C 140.017 1.8713 3.04495 0
M  V30 1369 S 141.576 1.89698 3.95677 0
M  V30 1370 H 138.394 0.402665 0.585988 0
M  V30 1371 H 140.996 1.59821 1.12594 0
M  V30 1372 H 139.7 2.91833 2.88551 0
M  V30 1373 H 139.231 1.40444 3.67477 0
M  V30 1374 H 141.246 0.981198 4.86402 0
M  V30 1375 N 140.419 -1.14872 1.07899 0
M  V30 1376 C 141.665 -1.86064 0.806725 0
M  V30 1377 C 141.998 -1.82434 -0.665706 0
M  V30 1378 O 141.273 -1.25138 -1.48899 0
M  V30 1379 C 141.556 -3.34929 1.32267 0
M  V30 1380 C 141.409 -3.47161 2.86006 0
M  V30 1381 C 142.728 -4.29863 0.943717 0
M  V30 1382 H 139.847 -0.675591 0.294526 0
M  V30 1383 H 142.489 -1.34925 1.33773 0
M  V30 1384 H 140.639 -3.78611 0.870974 0
M  V30 1385 H 142.311 -3.12302 3.39507 0
M  V30 1386 H 140.554 -2.88539 3.23925 0
M  V30 1387 H 141.225 -4.51777 3.17177 0
M  V30 1388 H 143.701 -3.9417 1.33302 0
M  V30 1389 H 142.577 -5.32494 1.33198 0
M  V30 1390 H 142.838 -4.41846 -0.149796 0
M  V30 1391 N 141.898 -0.863906 -1.31812 0
M  V30 1392 C 143.309 -0.52522 -1.7916 0
M  V30 1393 C 143.66 0.957518 -1.71248 0
M  V30 1394 O 142.785 1.74734 -1.27659 0
M  V30 1395 C 143.38 -0.9466 -3.25307 0
M  V30 1396 C 141.939 -0.659668 -3.70574 0
M  V30 1397 C 141.086 -1.14126 -2.52726 0
M  V30 1398 H 144.037 -1.05022 -1.1898 0
M  V30 1399 H 144.058 -0.266766 -3.79564 0
M  V30 1400 H 143.57 -2.02579 -3.31034 0
M  V30 1401 H 141.671 0.408416 -3.70355 0
M  V30 1402 H 141.784 -1.23245 -4.62977 0
M  V30 1403 H 140.148 -0.561216 -2.4844 0
M  V30 1404 H 140.931 -2.22775 -2.61201 0
M  V30 1405 N 143.376 1.44774 -0.622745 0
M  V30 1406 C 144.623 2.02121 -0.1239 0
M  V30 1407 C 144.951 1.48915 1.25118 0
M  V30 1408 O 144.206 0.660045 1.84233 0
M  V30 1409 C 144.505 3.57364 -0.0508323 0
M  V30 1410 C 144.171 4.29787 -1.36358 0
M  V30 1411 C 142.833 4.4929 -1.72314 0
M  V30 1412 C 145.185 4.71062 -2.23048 0
M  V30 1413 C 142.513 5.07325 -2.94682 0
M  V30 1414 C 144.865 5.30452 -3.44679 0
M  V30 1415 C 143.529 5.48175 -3.80868 0
M  V30 1416 H 142.799 0.739612 -0.0453381 0
M  V30 1417 H 145.446 1.73648 -0.807389 0
M  V30 1418 H 143.751 3.85202 0.715991 0
M  V30 1419 H 145.448 3.99456 0.351533 0
M  V30 1420 H 142.038 4.14932 -1.07375 0
M  V30 1421 H 146.222 4.55715 -1.96565 0
M  V30 1422 H 141.478 5.19235 -3.22809 0
M  V30 1423 H 145.652 5.61385 -4.12092 0
M  V30 1424 H 143.279 5.92912 -4.75773 0
M  V30 1425 N 144.854 0.36279 1.53368 0
M  V30 1426 C 146.082 -0.228613 2.05633 0
M  V30 1427 C 146.497 -1.42676 1.23649 0
M  V30 1428 O 145.854 -1.80394 0.27647 0
M  V30 1429 C 145.905 -0.624845 3.56059 0
M  V30 1430 O 145.626 0.525675 4.34935 0
M  V30 1431 C 147.127 -1.27493 4.24571 0
M  V30 1432 H 144.347 -0.0407183 0.669763 0
M  V30 1433 H 146.891 0.520352 1.97769 0
M  V30 1434 H 145.046 -1.32373 3.64083 0
M  V30 1435 H 145.46 0.205969 5.24095 0
M  V30 1436 H 146.934 -1.50277 5.31151 0
M  V30 1437 H 147.411 -2.23439 3.78116 0
M  V30 1438 H 148.017 -0.617558 4.20792 0
M  V30 1439 N 146.332 -1.57332 0.0918853 0
M  V30 1440 C 147.295 -2.12708 -0.85369 0
M  V30 1441 C 148.295 -1.05561 -1.213 0
M  V30 1442 O 149.485 -1.31461 -1.14296 0
M  V30 1443 C 146.617 -2.64503 -2.15061 0
M  V30 1444 H 147.81 -2.97573 -0.3729 0
M  V30 1445 H 145.363 -1.55509 -0.157072 0
M  V30 1446 H 146.098 -1.83149 -2.67632 0
M  V30 1447 H 145.883 -3.4284 -1.90272 0
M  V30 1448 H 147.373 -3.07351 -2.82711 0
M  V30 1449 N 147.81 0.181792 -1.56548 0
M  V30 1450 C 148.74 1.22765 -1.98623 0
M  V30 1451 C 149.721 1.46747 -0.860189 0
M  V30 1452 O 150.906 1.58259 -1.12551 0
M  V30 1453 C 148.036 2.56894 -2.33715 0
M  V30 1454 C 146.99 2.475 -3.49182 0
M  V30 1455 C 146.316 3.86023 -3.69986 0
M  V30 1456 C 147.616 1.98866 -4.82959 0
M  V30 1457 H 149.31 0.877942 -2.86239 0
M  V30 1458 H 146.856 0.42088 -1.37712 0
M  V30 1459 H 148.809 3.30253 -2.61746 0
M  V30 1460 H 147.533 2.93632 -1.42997 0
M  V30 1461 H 146.192 1.76596 -3.21262 0
M  V30 1462 H 145.84 4.20136 -2.76576 0
M  V30 1463 H 145.54 3.80609 -4.47672 0
M  V30 1464 H 147.064 4.60984 -4.00407 0
M  V30 1465 H 148.478 2.61992 -5.09934 0
M  V30 1466 H 146.875 2.04424 -5.64208 0
M  V30 1467 H 147.945 0.942465 -4.75653 0
M  V30 1468 N 149.288 1.51039 0.449983 0
M  V30 1469 C 150.218 1.74379 1.55288 0
M  V30 1470 C 151.199 0.593236 1.5942 0
M  V30 1471 O 152.384 0.834625 1.7535 0
M  V30 1472 C 149.514 1.85728 2.93466 0
M  V30 1473 C 148.468 3.01078 3.04197 0
M  V30 1474 C 147.794 2.97595 4.44231 0
M  V30 1475 C 149.094 4.41254 2.7945 0
M  V30 1476 H 150.788 2.66725 1.36008 0
M  V30 1477 H 148.334 1.2835 0.652864 0
M  V30 1478 H 150.287 2.0064 3.70569 0
M  V30 1479 H 149.011 0.900207 3.13949 0
M  V30 1480 H 147.67 2.85851 2.29531 0
M  V30 1481 H 147.318 1.99691 4.61663 0
M  V30 1482 H 147.018 3.75046 4.52343 0
M  V30 1483 H 148.542 3.14583 5.23326 0
M  V30 1484 H 149.956 4.56897 3.46292 0
M  V30 1485 H 148.353 5.20315 2.98985 0
M  V30 1486 H 149.423 4.52164 1.75144 0
M  V30 1487 N 150.766 -0.704594 1.40972 0
M  V30 1488 C 151.996 -1.49138 1.42974 0
M  V30 1489 C 152.404 -1.89175 0.0308406 0
M  V30 1490 O 151.747 -1.56734 -0.958138 0
M  V30 1491 C 151.809 -2.79016 2.26694 0
M  V30 1492 C 151.473 -2.61236 3.74973 0
M  V30 1493 C 152.47 -2.27773 4.67349 0
M  V30 1494 C 150.155 -2.77158 4.18914 0
M  V30 1495 C 152.149 -2.10457 6.01653 0
M  V30 1496 C 149.836 -2.59459 5.53285 0
M  V30 1497 C 150.834 -2.26158 6.4447 0
M  V30 1498 O 150.522 -2.08605 7.76363 0
M  V30 1499 H 150.254 -0.466443 0.489292 0
M  V30 1500 H 152.808 -0.8758 1.85793 0
M  V30 1501 H 151.038 -3.42947 1.78673 0
M  V30 1502 H 152.727 -3.40782 2.20504 0
M  V30 1503 H 153.493 -2.15095 4.34694 0
M  V30 1504 H 149.372 -3.02064 3.48251 0
M  V30 1505 H 152.916 -1.84387 6.72791 0
M  V30 1506 H 148.813 -2.71725 5.85522 0
M  V30 1507 H 149.581 -2.23439 7.87412 0
M  V30 1508 N 152.244 -1.26651 -0.937939 0
M  V30 1509 C 153.655 -1.1125 -1.49934 0
M  V30 1510 C 154.006 0.306077 -1.93798 0
M  V30 1511 O 153.131 1.19792 -1.80219 0
M  V30 1512 C 153.726 -2.01339 -2.72485 0
M  V30 1513 C 152.285 -1.90074 -3.24883 0
M  V30 1514 C 151.432 -1.94498 -1.97651 0
M  V30 1515 H 154.383 -1.39693 -0.753091 0
M  V30 1516 H 154.404 -1.56319 -3.46907 0
M  V30 1517 H 153.916 -3.04577 -2.40529 0
M  V30 1518 H 152.017 -0.897827 -3.61621 0
M  V30 1519 H 152.13 -2.75778 -3.9177 0
M  V30 1520 H 150.494 -1.38591 -2.13693 0
M  V30 1521 H 151.277 -2.99372 -1.68022 0
M  V30 1522 N 153.722 1.14298 -1.08507 0
M  V30 1523 C 154.652 2.21542 -0.737646 0
M  V30 1524 C 155.633 1.67773 0.280377 0
M  V30 1525 O 156.818 1.93616 0.150521 0
M  V30 1526 C 153.948 3.46988 -0.147259 0
M  V30 1527 C 152.902 4.13789 -1.09374 0
M  V30 1528 C 152.228 5.33449 -0.365524 0
M  V30 1529 C 153.528 4.62208 -2.4323 0
M  V30 1530 H 155.222 2.5086 -1.6343 0
M  V30 1531 H 152.768 1.20576 -0.787243 0
M  V30 1532 H 154.721 4.21262 0.107808 0
M  V30 1533 H 153.445 3.17037 0.784538 0
M  V30 1534 H 152.104 3.4147 -1.33393 0
M  V30 1535 H 151.752 4.99759 0.57011 0
M  V30 1536 H 151.452 5.79088 -0.996512 0
M  V30 1537 H 152.976 6.10485 -0.118534 0
M  V30 1538 H 154.39 5.27952 -2.23472 0
M  V30 1539 H 152.787 5.18553 -3.02031 0
M  V30 1540 H 153.857 3.77224 -3.04681 0
M  V30 1541 N 155.201 0.870884 1.31352 0
M  V30 1542 C 156.612 0.534714 1.78879 0
M  V30 1543 C 156.963 -0.948423 1.71754 0
M  V30 1544 O 156.088 -1.74055 1.28584 0
M  V30 1545 C 156.683 0.963839 3.24801 0
M  V30 1546 C 155.242 0.679311 3.70219 0
M  V30 1547 C 154.389 1.15465 2.52117 0
M  V30 1548 H 157.34 1.05651 1.18421 0
M  V30 1549 H 157.361 0.286892 3.79417 0
M  V30 1550 H 156.873 2.04332 3.29955 0
M  V30 1551 H 154.974 -0.388769 3.70566 0
M  V30 1552 H 155.087 1.25698 4.62317 0
M  V30 1553 H 153.451 0.574383 2.48139 0
M  V30 1554 H 154.234 2.24157 2.60016 0
M  V30 1555 N 156.679 -1.44442 0.630414 0
M  V30 1556 C 157.927 -2.01653 0.134351 0
M  V30 1557 C 158.248 -1.49836 -1.24796 0
M  V30 1558 O 157.518 -0.701684 -1.82902 0
M  V30 1559 H 156.098 -0.74554 0.0466769 0
M  V30 1560 H 158.76 -1.76952 0.816955 0
M  V30 1561 H 157.856 -3.11935 0.101498 0
M  V30 1562 N 158.157 -0.370918 -1.53173 0
M  V30 1563 C 159.403 0.209976 -2.02313 0
M  V30 1564 C 159.758 1.45987 -1.25322 0
M  V30 1565 O 159.051 1.8856 -0.339965 0
M  V30 1566 C 159.245 0.549696 -3.53147 0
M  V30 1567 C 159.074 -0.665721 -4.44745 0
M  V30 1568 C 157.844 -1.17942 -4.91343 0
M  V30 1569 C 160.042 -1.53255 -4.90935 0
M  V30 1570 N 158.024 -2.35431 -5.66962 0
M  V30 1571 C 159.395 -2.55403 -5.64951 0
M  V30 1572 C 161.45 -1.5548 -4.73002 0
M  V30 1573 C 160.153 -3.5964 -6.22938 0
M  V30 1574 C 162.179 -2.58613 -5.31858 0
M  V30 1575 C 161.541 -3.59485 -6.05764 0
M  V30 1576 H 157.64 0.0394095 -0.781006 0
M  V30 1577 H 160.224 -0.516666 -1.8772 0
M  V30 1578 H 158.395 1.24541 -3.67891 0
M  V30 1579 H 160.127 1.11614 -3.89004 0
M  V30 1580 H 156.882 -0.743228 -4.67732 0
M  V30 1581 H 157.306 -2.94827 -6.09431 0
M  V30 1582 H 161.948 -0.788457 -4.15383 0
M  V30 1583 H 159.666 -4.37153 -6.79649 0
M  V30 1584 H 163.252 -2.61195 -5.19873 0
M  V30 1585 H 162.132 -4.3798 -6.50495 0
M  V30 1586 N 159.635 1.57281 -0.100228 0
M  V30 1587 C 160.881 1.94826 0.563101 0
M  V30 1588 C 161.214 0.982475 1.67514 0
M  V30 1589 O 160.489 0.0164069 1.94493 0
M  V30 1590 C 160.772 3.42453 1.11346 0
M  V30 1591 C 160.625 4.498 0.00612081 0
M  V30 1592 C 161.944 3.91506 2.01024 0
M  V30 1593 H 159.063 0.708428 0.203221 0
M  V30 1594 H 161.705 1.8922 -0.171979 0
M  V30 1595 H 159.855 3.47361 1.7399 0
M  V30 1596 H 161.527 4.57 -0.628357 0
M  V30 1597 H 159.77 4.28756 -0.659581 0
M  V30 1598 H 160.441 5.50306 0.432109 0
M  V30 1599 H 162.917 3.88784 1.48278 0
M  V30 1600 H 161.793 4.95358 2.36457 0
M  V30 1601 H 162.054 3.31099 2.92961 0
M  V30 1602 N 161.113 -0.173488 1.56642 0
M  V30 1603 C 162.043 -1.2171 1.99271 0
M  V30 1604 C 163.024 -1.46289 0.867959 0
M  V30 1605 O 164.209 -1.5766 1.13388 0
M  V30 1606 C 161.339 -2.55651 2.35074 0
M  V30 1607 C 160.293 -2.45645 3.50489 0
M  V30 1608 C 159.619 -3.84056 3.72028 0
M  V30 1609 C 160.919 -1.96302 4.84007 0
M  V30 1610 H 162.613 -0.86275 2.867 0
M  V30 1611 H 160.159 -0.413571 1.37933 0
M  V30 1612 H 162.112 -3.2886 2.63494 0
M  V30 1613 H 160.836 -2.92869 1.44552 0
M  V30 1614 H 159.495 -1.7489 3.22194 0
M  V30 1615 H 159.143 -4.18664 2.788 0
M  V30 1616 H 158.843 -3.7823 4.49684 0
M  V30 1617 H 160.367 -4.58854 4.02846 0
M  V30 1618 H 161.781 -2.59284 5.11317 0
M  V30 1619 H 160.178 -2.01429 5.65284 0
M  V30 1620 H 161.248 -0.917226 4.76146 0
M  V30 1621 N 162.591 -1.51276 -0.441967 0
M  V30 1622 C 163.839 -1.63392 -1.18943 0
M  V30 1623 C 164.16 -0.350159 -1.9183 0
M  V30 1624 O 163.43 0.633784 -1.85364 0
M  V30 1625 H 162.01 -0.602164 -0.442049 0
M  V30 1626 H 164.672 -1.88186 -0.507165 0
M  V30 1627 H 163.768 -2.45934 -1.92154 0
M  V30 1628 N 164.069 0.697108 -1.41344 0
M  V30 1629 C 165.346 1.45154 -1.31109 0
M  V30 1630 C 165.726 2.11009 0.0620449 0
M  V30 1631 O 165.074 2.01571 1.07618 0
M  V30 1632 C 165.284 2.47223 -2.46337 0
M  V30 1633 C 166.632 3.1252 -2.87431 0
M  V30 1634 O 167.656 2.57547 -2.46065 0
M  V30 1635 O 166.515 4.12083 -3.58957 0
M  V30 1636 H 163.609 0.646365 -0.515889 0
M  V30 1637 H 166.155 0.727716 -1.53305 0
M  V30 1638 H 164.927 1.97204 -3.37974 0
M  V30 1639 H 164.55 3.27116 -2.2601 0
M  V30 1640 N 165.547 1.27147 0.931209 0
M  V30 1641 C 166.794 1.13278 1.67852 0
M  V30 1642 C 167.122 -0.32204 1.91815 0
M  V30 1643 O 166.377 -1.25224 1.50391 0
M  V30 1644 C 166.676 1.8579 3.05314 0
M  V30 1645 C 166.342 3.35657 3.01073 0
M  V30 1646 C 165.004 3.76536 2.99623 0
M  V30 1647 C 167.356 4.31299 2.92627 0
M  V30 1648 C 164.684 5.11426 2.87506 0
M  V30 1649 C 167.036 5.66242 2.82051 0
M  V30 1650 C 165.7 6.06418 2.7895 0
M  V30 1651 H 164.97 0.414515 0.614214 0
M  V30 1652 H 167.617 1.57712 1.08624 0
M  V30 1653 H 165.922 1.33854 3.68226 0
M  V30 1654 H 167.619 1.72491 3.62005 0
M  V30 1655 H 164.209 3.03146 3.02986 0
M  V30 1656 H 168.393 4.00692 2.92848 0
M  V30 1657 H 163.649 5.41705 2.83489 0
M  V30 1658 H 167.823 6.40026 2.74481 0
M  V30 1659 H 165.45 7.10895 2.69318 0
M  V30 1660 N 167.025 -1.13721 1.09112 0
M  V30 1661 C 167.958 -2.18094 0.67158 0
M  V30 1662 C 168.936 -1.59414 -0.320299 0
M  V30 1663 O 170.12 -1.87183 -0.222444 0
M  V30 1664 C 167.247 -3.38698 -0.0111189 0
M  V30 1665 C 166.293 -4.15966 0.942055 0
M  V30 1666 S 167.126 -4.7604 2.45246 0
M  V30 1667 C 168.282 -5.99994 1.78208 0
M  V30 1668 H 168.515 -2.53344 1.55577 0
M  V30 1669 H 166.048 -1.24967 0.906789 0
M  V30 1670 H 168.006 -4.08559 -0.398716 0
M  V30 1671 H 166.667 -3.01756 -0.871905 0
M  V30 1672 H 165.86 -5.02318 0.411396 0
M  V30 1673 H 165.462 -3.51745 1.2709 0
M  V30 1674 H 167.754 -6.68441 1.10424 0
M  V30 1675 H 168.697 -6.57662 2.62463 0
M  V30 1676 H 169.105 -5.50432 1.25238 0
M  V30 1677 N 168.503 -0.877838 -1.30888 0
M  V30 1678 C 169.743 -0.499301 -1.98208 0
M  V30 1679 C 170.107 0.932649 -1.67826 0
M  V30 1680 O 171.308 1.41694 -2.28421 0
M  V30 1681 C 169.579 -0.758221 -3.49265 0
M  V30 1682 S 171.138 -0.480719 -4.36159 0
M  V30 1683 H 167.956 -0.186062 -0.686223 0
M  V30 1684 H 170.558 -1.13556 -1.59139 0
M  V30 1685 H 169.262 -1.79903 -3.68867 0
M  V30 1686 H 168.793 -0.109247 -3.93248 0
M  V30 1687 H 170.808 0.683698 -4.91467 0
M  V30 1688 N 169.982 1.44106 -0.638065 0
M  V30 1689 C 170.929 2.30715 0.062701 0
M  V30 1690 C 171.899 1.43882 0.829883 0
M  V30 1691 O 173.084 1.72775 0.809532 0
M  V30 1692 C 170.224 3.29258 1.03358 0
M  V30 1693 C 169.337 4.31192 0.26409 0
M  V30 1694 C 168.472 5.16825 1.22741 0
M  V30 1695 C 167.511 6.10462 0.447475 0
M  V30 1696 N 166.648 6.8877 1.36161 0
M  V30 1697 H 171.488 2.90096 -0.681781 0
M  V30 1698 H 169.025 1.42925 -0.347988 0
M  V30 1699 H 170.983 3.84886 1.60992 0
M  V30 1700 H 169.613 2.71562 1.74511 0
M  V30 1701 H 168.665 3.77981 -0.428295 0
M  V30 1702 H 169.977 4.97619 -0.343052 0
M  V30 1703 H 169.131 5.77004 1.87487 0
M  V30 1704 H 167.87 4.50488 1.86847 0
M  V30 1705 H 166.875 5.49386 -0.213433 0
M  V30 1706 H 168.1 6.78837 -0.188968 0
M  V30 1707 H 166.046 6.25096 1.98975 0
M  V30 1708 H 165.963 7.51663 0.808656 0
M  V30 1709 H 167.231 7.53467 1.99769 0
M  V30 1710 N 171.46 0.379036 1.52974 0
M  V30 1711 C 172.707 -0.206421 2.01445 0
M  V30 1712 C 173.035 -1.47668 1.26587 0
M  V30 1713 O 172.29 -1.92514 0.351675 0
M  V30 1714 C 172.589 -0.53096 3.53434 0
M  V30 1715 C 172.255 0.646546 4.46241 0
M  V30 1716 C 170.917 0.969604 4.7133 0
M  V30 1717 C 173.269 1.43479 5.01062 0
M  V30 1718 C 170.597 2.08263 5.48492 0
M  V30 1719 C 172.949 2.53834 5.7944 0
M  V30 1720 C 171.613 2.86659 6.02812 0
M  V30 1721 H 170.883 -0.0755349 0.73714 0
M  V30 1722 H 173.53 0.514271 1.84465 0
M  V30 1723 H 171.835 -1.33285 3.68432 0
M  V30 1724 H 173.532 -0.996417 3.88423 0
M  V30 1725 H 170.122 0.384734 4.2687 0
M  V30 1726 H 174.306 1.19844 4.81613 0
M  V30 1727 H 169.562 2.34078 5.64816 0
M  V30 1728 H 173.736 3.15319 6.20924 0
M  V30 1729 H 171.363 3.73026 6.62387 0
M  V30 1730 N 172.938 -1.57226 0.108567 0
M  V30 1731 C 174.184 -1.95121 -0.552761 0
M  V30 1732 C 174.517 -0.991345 -1.66991 0
M  V30 1733 O 173.792 -0.0267211 -1.94482 0
M  V30 1734 C 174.075 -3.43039 -1.09528 0
M  V30 1735 C 173.928 -4.49797 0.0177332 0
M  V30 1736 C 175.247 -3.92567 -1.98945 0
M  V30 1737 H 172.366 -0.709496 -0.199461 0
M  V30 1738 H 175.008 -1.89126 0.182011 0
M  V30 1739 H 173.158 -3.48279 -1.72146 0
M  V30 1740 H 174.83 -4.56661 0.652584 0
M  V30 1741 H 173.073 -4.284 0.682309 0
M  V30 1742 H 173.744 -5.50528 -0.402919 0
M  V30 1743 H 176.22 -3.89565 -1.46214 0
M  V30 1744 H 175.096 -4.96605 -2.33827 0
M  V30 1745 H 175.357 -3.32648 -2.91201 0
M  V30 1746 N 174.416 0.165178 -1.56732 0
M  V30 1747 C 175.364 1.22369 -1.97809 0
M  V30 1748 C 176.358 1.45488 -0.867741 0
M  V30 1749 O 177.564 1.45995 -1.05288 0
M  V30 1750 H 173.939 0.411486 -0.629431 0
M  V30 1751 H 175.91 0.850425 -2.86025 0
M  V30 1752 C 174.659 2.55403 -2.35934 0
M  V30 1753 H 173.982 2.38438 -3.20916 0
M  V30 1754 H 175.422 3.2814 -2.68514 0
M  V30 1755 C 173.881 3.14611 -1.20506 0
M  V30 1756 O 174.411 3.98626 -0.496016 0
M  V30 1757 N 172.617 2.7379 -0.97403 0
M  V30 1758 H 172.164 2.0557 -1.55238 0
M  V30 1759 H 172.122 3.1374 -0.203573 0
M  V30 1760 N 175.894 1.51508 0.433938 0
M  V30 1761 C 177.124 1.67914 1.20369 0
M  V30 1762 C 177.532 0.377461 1.85397 0
M  V30 1763 O 176.875 -0.654255 1.71654 0
M  V30 1764 C 176.937 2.74045 2.32679 0
M  V30 1765 C 176.601 4.16543 1.87991 0
M  V30 1766 C 177.598 5.01211 1.38145 0
M  V30 1767 C 175.283 4.6266 1.95579 0
M  V30 1768 C 177.277 6.30056 0.964774 0
M  V30 1769 C 174.964 5.91501 1.53523 0
M  V30 1770 C 175.962 6.75027 1.04055 0
M  V30 1771 O 175.65 8.01459 0.625964 0
M  V30 1772 H 175.382 0.566578 0.368735 0
M  V30 1773 H 177.936 1.98709 0.51999 0
M  V30 1774 H 176.166 2.38572 3.04336 0
M  V30 1775 H 177.855 2.79295 2.94532 0
M  V30 1776 H 178.621 4.66783 1.31675 0
M  V30 1777 H 174.5 3.97767 2.33029 0
M  V30 1778 H 178.044 6.95202 0.57796 0
M  V30 1779 H 173.941 6.25442 1.59665 0
M  V30 1780 H 174.709 8.15043 0.751509 0
M  V30 1781 N 177.372 -0.689602 1.41712 0
M  V30 1782 C 178.621 -1.44534 1.40686 0
M  V30 1783 C 178.934 -1.95588 0.0213352 0
M  V30 1784 O 180.14 -2.71271 -0.111534 0
M  V30 1785 C 178.596 -2.61387 2.47396 0
M  V30 1786 C 178.204 -2.17094 3.91885 0
M  V30 1787 C 179.948 -3.38986 2.55517 0
M  V30 1788 C 177.855 -3.3094 4.90135 0
M  V30 1789 H 176.785 -0.542925 0.52321 0
M  V30 1790 H 179.436 -0.748054 1.6756 0
M  V30 1791 H 177.818 -3.33412 2.13664 0
M  V30 1792 H 178.992 -1.52318 4.34897 0
M  V30 1793 H 177.307 -1.52473 3.8748 0
M  V30 1794 H 179.904 -4.23747 3.26102 0
M  V30 1795 H 180.247 -3.84578 1.59391 0
M  V30 1796 H 180.78 -2.74021 2.8837 0
M  V30 1797 H 177.519 -2.90355 5.87685 0
M  V30 1798 H 177.039 -3.94546 4.51767 0
M  V30 1799 H 178.718 -3.9663 5.11169 0
M  V30 1800 N 178.85 -1.27639 -0.924453 0
M  V30 1801 C 179.782 -1.06442 -2.02985 0
M  V30 1802 C 180.795 -0.0194771 -1.62788 0
M  V30 1803 O 181.984 -0.261388 -1.76576 0
M  V30 1804 C 179.084 -0.59327 -3.33667 0
M  V30 1805 C 178.257 -1.71123 -4.02537 0
M  V30 1806 C 177.316 -1.23527 -5.11495 0
M  V30 1807 O 176.342 -1.93553 -5.35281 0
M  V30 1808 N 177.544 -0.0926678 -5.80426 0
M  V30 1809 H 180.309 -2.01633 -2.2173 0
M  V30 1810 H 177.87 -1.19248 -1.09505 0
M  V30 1811 H 179.862 -0.258686 -4.03872 0
M  V30 1812 H 178.432 0.265502 -3.1147 0
M  V30 1813 H 177.652 -2.21593 -3.26022 0
M  V30 1814 H 178.94 -2.46145 -4.45298 0
M  V30 1815 H 178.338 0.491741 -5.63559 0
M  V30 1816 H 176.895 0.182714 -6.51544 0
M  V30 1817 N 180.328 1.1314 -1.09713 0
M  V30 1818 C 181.26 2.18343 -0.697056 0
M  V30 1819 C 182.273 1.60669 0.262551 0
M  V30 1820 O 183.462 1.78435 0.0481527 0
M  V30 1821 C 180.562 3.38899 -0.00684728 0
M  V30 1822 C 179.735 4.26078 -0.988741 0
M  V30 1823 C 178.794 5.25155 -0.331394 0
M  V30 1824 O 177.82 5.60701 -0.979926 0
M  V30 1825 N 179.022 5.73271 0.913261 0
M  V30 1826 H 181.787 2.5328 -1.60216 0
M  V30 1827 H 179.348 1.28491 -0.984971 0
M  V30 1828 H 181.34 4.02255 0.444191 0
M  V30 1829 H 179.91 3.02175 0.800551 0
M  V30 1830 H 179.13 3.59453 -1.61826 0
M  V30 1831 H 180.418 4.81178 -1.65364 0
M  V30 1832 H 179.816 5.46544 1.45966 0
M  V30 1833 H 178.373 6.3855 1.30757 0
M  V30 1834 N 181.806 0.884767 1.30421 0
M  V30 1835 C 183.052 0.503851 1.96441 0
M  V30 1836 C 183.385 -0.944518 1.69684 0
M  V30 1837 O 182.66 -1.66737 1.00145 0
M  V30 1838 C 182.943 0.779085 3.51571 0
M  V30 1839 C 182.796 2.27807 3.87846 0
M  V30 1840 C 184.115 0.255452 4.39358 0
M  V30 1841 H 181.234 0.184533 0.713524 0
M  V30 1842 H 183.876 1.10872 1.54297 0
M  V30 1843 H 182.026 0.264274 3.876 0
M  V30 1844 H 183.698 2.86127 3.61841 0
M  V30 1845 H 181.941 2.74479 3.35922 0
M  V30 1846 H 182.612 2.42125 4.96064 0
M  V30 1847 H 185.088 0.696079 4.10236 0
M  V30 1848 H 183.964 0.477361 5.4682 0
M  V30 1849 H 184.225 -0.843293 4.33983 0
M  V30 1850 N 183.284 -1.43765 0.645699 0
M  V30 1851 C 184.509 -2.06767 0.161883 0
M  V30 1852 C 184.934 -1.48034 -1.16049 0
M  V30 1853 O 184.292 -0.587369 -1.71522 0
M  V30 1854 C 184.34 -3.60519 0.0762003 0
M  V30 1855 O 183.444 -4.00982 -0.963721 0
M  V30 1856 H 182.785 -0.657675 0.091429 0
M  V30 1857 H 185.315 -1.84397 0.886499 0
M  V30 1858 H 185.325 -4.07853 -0.109604 0
M  V30 1859 H 184 -4.02646 1.04157 0
M  V30 1860 H 182.577 -3.65253 -0.751312 0
M  V30 1861 N 184.763 -0.387143 -1.52771 0
M  V30 1862 C 186.009 0.196025 -2.0185 0
M  V30 1863 C 186.342 1.46641 -1.27319 0
M  V30 1864 O 185.617 1.90889 -0.373032 0
M  V30 1865 C 185.9 0.466136 -3.5707 0
M  V30 1866 C 185.753 -0.819385 -4.42274 0
M  V30 1867 C 187.072 1.25768 -4.21747 0
M  V30 1868 H 184.191 0.0697708 -0.73369 0
M  V30 1869 H 186.833 -0.516286 -1.82851 0
M  V30 1870 H 184.983 1.07293 -3.7339 0
M  V30 1871 H 186.655 -1.4563 -4.37709 0
M  V30 1872 H 184.898 -1.43517 -4.09372 0
M  V30 1873 H 185.569 -0.585065 -5.48891 0
M  V30 1874 H 188.045 0.744167 -4.09391 0
M  V30 1875 H 186.921 1.41541 -5.30337 0
M  V30 1876 H 187.182 2.27228 -3.79236 0
M  V30 1877 N 186.241 1.57166 -0.116904 0
M  V30 1878 C 187.173 2.12271 0.864507 0
M  V30 1879 C 188.186 1.06494 1.23138 0
M  V30 1880 O 189.375 1.33873 1.18069 0
M  V30 1881 C 186.475 2.60564 2.16702 0
M  V30 1882 C 185.648 3.90416 1.97216 0
M  V30 1883 C 184.707 4.24329 3.11178 0
M  V30 1884 O 183.733 4.93182 2.84184 0
M  V30 1885 N 184.935 3.8148 4.37554 0
M  V30 1886 H 187.7 2.97102 0.393726 0
M  V30 1887 H 185.261 1.61759 0.0675805 0
M  V30 1888 H 187.253 2.80282 2.91932 0
M  V30 1889 H 185.823 1.80623 2.55135 0
M  V30 1890 H 185.043 3.79627 1.06192 0
M  V30 1891 H 186.331 4.75327 1.81499 0
M  V30 1892 H 185.729 3.25943 4.62361 0
M  V30 1893 H 184.286 4.06311 5.09661 0
M  V30 1894 N 187.719 -0.156864 1.56817 0
M  V30 1895 C 188.682 -1.17781 1.96622 0
M  V30 1896 C 189.682 -1.36401 0.851555 0
M  V30 1897 O 190.872 -1.33561 1.11836 0
M  V30 1898 C 188.004 -2.54008 2.27361 0
M  V30 1899 H 189.197 -0.836564 2.87996 0
M  V30 1900 H 186.75 -0.39985 1.51099 0
M  V30 1901 H 187.485 -2.9312 1.38748 0
M  V30 1902 H 187.27 -2.41856 3.08623 0
M  V30 1903 H 188.76 -3.27558 2.59029 0
M  V30 1904 N 189.197 -1.51736 -0.425897 0
M  V30 1905 C 190.425 -1.68794 -1.1965 0
M  V30 1906 C 190.84 -0.390164 -1.84725 0
M  V30 1907 O 190.197 0.632376 -1.71194 0
M  V30 1908 C 190.248 -2.81174 -2.27208 0
M  V30 1909 O 189.969 -4.05925 -1.64793 0
M  V30 1910 C 191.47 -3.09599 -3.17275 0
M  V30 1911 H 188.69 -0.566128 -0.360194 0
M  V30 1912 H 191.234 -1.98211 -0.503249 0
M  V30 1913 H 189.389 -2.54324 -2.9223 0
M  V30 1914 H 189.803 -4.68423 -2.35967 0
M  V30 1915 H 191.277 -3.91786 -3.88854 0
M  V30 1916 H 191.754 -2.22468 -3.78688 0
M  V30 1917 H 192.36 -3.38151 -2.57941 0
M  V30 1918 N 190.675 0.682077 -1.42076 0
M  V30 1919 C 191.915 1.45424 -1.43636 0
M  V30 1920 C 192.279 1.91939 -0.0484001 0
M  V30 1921 O 193.48 2.6873 0.0612514 0
M  V30 1922 C 191.751 2.62427 -2.42625 0
M  V30 1923 S 193.31 3.51379 -2.62827 0
M  V30 1924 H 190.128 0.496779 -0.508657 0
M  V30 1925 H 192.73 0.794645 -1.78621 0
M  V30 1926 H 191.434 2.26481 -3.42249 0
M  V30 1927 H 190.965 3.33266 -2.09039 0
M  V30 1928 H 192.98 4.58141 -1.9058 0
M  V30 1929 N 192.153 1.28127 0.917671 0
M  V30 1930 C 193.116 1.11744 2.00115 0
M  V30 1931 C 194.116 0.0583052 1.60694 0
M  V30 1932 O 195.306 0.303755 1.71531 0
M  V30 1933 C 192.438 0.704862 3.33533 0
M  V30 1934 H 193.631 2.07966 2.16079 0
M  V30 1935 H 191.184 1.11058 1.09981 0
M  V30 1936 H 191.919 -0.258299 3.2327 0
M  V30 1937 H 191.704 1.4699 3.63505 0
M  V30 1938 H 193.194 0.612768 4.1308 0
M  V30 1939 N 193.631 -1.12557 1.10312 0
M  V30 1940 C 194.859 -1.87864 0.866873 0
M  V30 1941 C 195.274 -1.79588 -0.582557 0
M  V30 1942 O 194.631 -1.16887 -1.40156 0
M  V30 1943 C 194.682 -3.37125 1.30496 0
M  V30 1944 O 194.403 -3.45201 2.69755 0
M  V30 1945 C 195.904 -4.29373 1.10243 0
M  V30 1946 H 193.124 -0.594452 0.311236 0
M  V30 1947 H 195.668 -1.42429 1.46745 0
M  V30 1948 H 193.823 -3.80109 0.748081 0
M  V30 1949 H 194.237 -4.38056 2.88457 0
M  V30 1950 H 195.711 -5.32394 1.45811 0
M  V30 1951 H 196.188 -4.39181 0.0409492 0
M  V30 1952 H 196.794 -3.92169 1.64571 0
M  V30 1953 N 195.109 -0.891671 -1.2995 0
M  V30 1954 C 196.039 -0.379797 -2.30391 0
M  V30 1955 C 197.02 0.540919 -1.6127 0
M  V30 1956 O 198.205 0.453352 -1.88834 0
M  V30 1957 C 195.335 0.400654 -3.44981 0
M  V30 1958 C 194.289 -0.428905 -4.25846 0
M  V30 1959 C 193.615 0.478557 -5.32554 0
M  V30 1960 C 194.915 -1.67458 -4.94727 0
M  V30 1961 H 196.609 -1.21914 -2.73454 0
M  V30 1962 H 194.155 -0.587675 -1.31462 0
M  V30 1963 H 196.108 0.769434 -4.14316 0
M  V30 1964 H 194.832 1.27371 -3.0074 0
M  V30 1965 H 193.491 -0.779911 -3.58208 0
M  V30 1966 H 193.139 1.34951 -4.84559 0
M  V30 1967 H 192.839 -0.0727433 -5.87555 0
M  V30 1968 H 194.363 0.843705 -6.04743 0
M  V30 1969 H 195.777 -1.376 -5.56542 0
M  V30 1970 H 194.174 -2.16659 -5.59624 0
M  V30 1971 H 195.244 -2.41518 -4.20473 0
M  V30 1972 N 196.587 1.43421 -0.653314 0
M  V30 1973 C 197.815 2.06163 -0.174491 0
M  V30 1974 C 198.23 1.48969 1.1599 0
M  V30 1975 O 197.587 0.621042 1.71608 0
M  V30 1976 C 197.638 3.61417 -0.0774865 0
M  V30 1977 O 197.359 4.16485 -1.35912 0
M  V30 1978 C 198.86 4.41235 0.427402 0
M  V30 1979 H 196.08 0.664946 -0.0899353 0
M  V30 1980 H 198.624 1.83924 -0.893988 0
M  V30 1981 H 196.779 3.82841 0.59257 0
M  V30 1982 H 197.193 5.10153 -1.21839 0
M  V30 1983 H 198.667 5.5021 0.44423 0
M  V30 1984 H 199.144 4.14268 1.45873 0
M  V30 1985 H 199.75 4.2478 -0.210167 0
M  V30 1986 N 198.065 0.39524 1.52563 0
M  V30 1987 C 199.028 -0.425001 2.25225 0
M  V30 1988 C 200.028 -0.985266 1.27079 0
M  V30 1989 O 201.218 -0.866332 1.5113 0
M  V30 1990 C 198.35 -1.59686 3.01186 0
M  V30 1991 H 199.543 0.211233 2.99155 0
M  V30 1992 H 197.096 0.147472 1.55603 0
M  V30 1993 H 197.831 -2.27035 2.31572 0
M  V30 1994 H 197.616 -1.20176 3.73229 0
M  V30 1995 H 199.106 -2.17743 3.5634 0
M  V30 1996 N 199.544 -1.57102 0.125237 0
M  V30 1997 C 200.477 -2.11371 -0.860094 0
M  V30 1998 C 201.455 -1.03168 -1.25679 0
M  V30 1999 O 202.639 -1.30862 -1.35674 0
M  V30 2000 C 199.766 -2.61555 -2.1519 0
M  V30 2001 C 198.812 -3.81701 -1.9028 0
M  V30 2002 S 199.645 -5.23797 -1.11343 0
M  V30 2003 C 200.801 -5.77353 -2.41689 0
M  V30 2004 H 201.034 -2.94617 -0.39852 0
M  V30 2005 H 198.567 -1.54145 -0.0886555 0
M  V30 2006 H 200.525 -2.91122 -2.89411 0
M  V30 2007 H 199.186 -1.78479 -2.58465 0
M  V30 2008 H 198.379 -4.14985 -2.86014 0
M  V30 2009 H 197.981 -3.52783 -1.24178 0
M  V30 2010 H 200.273 -5.87458 -3.37489 0
M  V30 2011 H 201.216 -6.75323 -2.12942 0
M  V30 2012 H 201.624 -5.05457 -2.51342 0
M  V30 2013 N 201.022 0.148545 -1.56898 0
M  V30 2014 C 202.247 0.880385 -1.87787 0
M  V30 2015 C 202.672 1.74018 -0.714093 0
M  V30 2016 O 202.03 1.78153 0.336343 0
M  V30 2017 C 202.078 1.71422 -3.17249 0
M  V30 2018 O 201.182 2.8183 -3.01074 0
M  V30 2019 H 200.523 0.245301 -0.617028 0
M  V30 2020 H 203.053 0.139826 -2.04122 0
M  V30 2021 H 203.063 2.10954 -3.49231 0
M  V30 2022 H 201.738 1.08284 -4.01556 0
M  V30 2023 H 200.315 2.45715 -2.80497 0
M  V30 2024 N 202.5 1.5196 0.417844 0
M  V30 2025 C 203.746 1.65836 1.16732 0
M  V30 2026 C 204.079 0.382881 1.90388 0
M  V30 2027 O 203.354 -0.618368 1.84408 0
M  V30 2028 C 203.637 2.87466 2.16876 0
M  V30 2029 C 203.49 4.25041 1.47174 0
M  V30 2030 C 204.809 3.04613 3.17646 0
M  V30 2031 H 201.928 0.603515 0.423011 0
M  V30 2032 H 204.57 1.84494 0.454105 0
M  V30 2033 H 202.72 2.71689 2.777 0
M  V30 2034 H 204.392 4.52527 0.895376 0
M  V30 2035 H 202.635 4.26843 0.773806 0
M  V30 2036 H 203.306 5.06176 2.20204 0
M  V30 2037 H 205.782 3.1923 2.66892 0
M  V30 2038 H 204.658 3.91247 3.8499 0
M  V30 2039 H 204.919 2.17541 3.84874 0
M  V30 2040 N 203.978 -0.674533 1.42435 0
M  V30 2041 C 205.255 -1.4305 1.33402 0
M  V30 2042 C 205.635 -2.11081 -0.0284674 0
M  V30 2043 O 204.983 -2.03257 -1.04397 0
M  V30 2044 C 205.193 -2.43272 2.50239 0
M  V30 2045 C 206.541 -3.07907 2.92367 0
M  V30 2046 O 207.565 -2.53599 2.50132 0
M  V30 2047 O 206.424 -4.0632 3.65467 0
M  V30 2048 H 203.518 -0.638076 0.526106 0
M  V30 2049 H 206.064 -0.703235 1.54443 0
M  V30 2050 H 204.836 -1.91803 3.41068 0
M  V30 2051 H 204.459 -3.23479 2.31186 0
M  V30 2052 N 205.456 -1.28612 -0.910864 0
M  V30 2053 C 206.872 -1.06381 -1.18976 0
M  V30 2054 C 207.072 0.191998 -2.00583 0
M  V30 2055 O 206.128 0.892869 -2.36187 0
M  V30 2056 C 207.441 -2.31295 -1.92154 0
M  V30 2057 C 208.989 -2.36503 -2.05025 0
M  V30 2058 C 209.464 -3.61191 -2.81612 0
M  V30 2059 N 210.955 -3.61847 -2.89172 0
M  V30 2060 C 211.69 -4.55004 -3.4894 0
M  V30 2061 N 211.186 -5.58482 -4.09963 0
M  V30 2062 N 212.979 -4.42594 -3.46506 0
M  V30 2063 H 205.13 -2.09221 -0.366094 0
M  V30 2064 H 207.393 -0.921003 -0.224629 0
M  V30 2065 H 207.099 -3.228 -1.39618 0
M  V30 2066 H 206.973 -2.37934 -2.9269 0
M  V30 2067 H 209.36 -1.45494 -2.5674 0
M  V30 2068 H 209.441 -2.33857 -1.03657 0
M  V30 2069 H 209.085 -4.52545 -2.30576 0
M  V30 2070 H 209.015 -3.61092 -3.83302 0
M  V30 2071 H 211.506 -2.87022 -2.45819 0
M  V30 2072 H 211.819 -6.25704 -4.53557 0
M  V30 2073 H 210.164 -5.62305 -4.08459 0
M  V30 2074 H 213.355 -3.60953 -2.98045 0
M  V30 2075 H 213.528 -5.15381 -3.92793 0
M  V30 2076 N 206.934 1.1197 -1.10907 0
M  V30 2077 C 208.18 1.84059 -0.865674 0
M  V30 2078 C 208.535 1.82731 0.602254 0
M  V30 2079 O 207.828 1.26543 1.43866 0
M  V30 2080 C 208.022 3.30749 -1.35425 0
M  V30 2081 C 207.851 3.46363 -2.86815 0
M  V30 2082 C 206.621 3.59712 -3.54874 0
M  V30 2083 C 208.819 3.41116 -3.84895 0
M  V30 2084 N 206.801 3.63741 -4.94536 0
M  V30 2085 C 208.172 3.51698 -5.10596 0
M  V30 2086 C 210.227 3.24612 -3.77533 0
M  V30 2087 C 208.93 3.4748 -6.29802 0
M  V30 2088 C 210.956 3.21708 -4.96244 0
M  V30 2089 C 210.318 3.32856 -6.20795 0
M  V30 2090 H 206.417 0.689015 -0.369841 0
M  V30 2091 H 209.001 1.34016 -1.41237 0
M  V30 2092 H 207.172 3.79322 -0.834814 0
M  V30 2093 H 208.904 3.90718 -1.05458 0
M  V30 2094 H 205.659 3.62038 -3.05329 0
M  V30 2095 H 206.083 3.69408 -5.67333 0
M  V30 2096 H 210.725 3.14883 -2.8215 0
M  V30 2097 H 208.443 3.55978 -7.25469 0
M  V30 2098 H 212.029 3.10113 -4.92261 0
M  V30 2099 H 210.909 3.3059 -7.11112 0
M  V30 2100 N 208.412 0.89855 1.29475 0
M  V30 2101 C 209.642 0.538479 1.99459 0
M  V30 2102 C 210.05 -0.880922 1.67441 0
M  V30 2103 O 209.393 -1.59283 0.915127 0
M  V30 2104 C 209.455 0.649564 3.53583 0
M  V30 2105 C 209.119 2.03573 4.09154 0
M  V30 2106 C 210.116 3.00675 4.24135 0
M  V30 2107 C 207.801 2.3448 4.44212 0
M  V30 2108 C 209.795 4.26809 4.73405 0
M  V30 2109 C 207.482 3.60857 4.93179 0
M  V30 2110 C 208.48 4.56836 5.0773 0
M  V30 2111 O 208.168 5.80969 5.55635 0
M  V30 2112 H 207.9 0.205372 0.644048 0
M  V30 2113 H 210.454 1.20958 1.66007 0
M  V30 2114 H 208.684 -0.0785592 3.8662 0
M  V30 2115 H 210.373 0.29881 4.04799 0
M  V30 2116 H 211.139 2.78112 3.97339 0
M  V30 2117 H 207.018 1.60534 4.32145 0
M  V30 2118 H 210.562 5.0173 4.84678 0
M  V30 2119 H 206.459 3.83251 5.19412 0
M  V30 2120 H 207.227 5.83542 5.73952 0
M  V30 2121 N 209.89 -1.43072 0.660911 0
M  V30 2122 C 211.136 -2.0202 0.177708 0
M  V30 2123 C 211.469 -1.52066 -1.20787 0
M  V30 2124 O 210.744 -0.716987 -1.80802 0
M  V30 2125 C 211.027 -3.59561 0.197019 0
M  V30 2126 C 210.88 -4.19727 1.61706 0
M  V30 2127 C 212.199 -4.37664 -0.462396 0
M  V30 2128 H 209.318 -0.734034 0.0660494 0
M  V30 2129 H 211.96 -1.70272 0.843058 0
M  V30 2130 H 210.11 -3.86739 -0.369527 0
M  V30 2131 H 211.782 -4.03553 2.23479 0
M  V30 2132 H 210.025 -3.76084 2.16201 0
M  V30 2133 H 210.696 -5.28834 1.58237 0
M  V30 2134 H 213.172 -4.16095 0.0197215 0
M  V30 2135 H 212.048 -5.47305 -0.418188 0
M  V30 2136 H 212.309 -4.14493 -1.53778 0
M  V30 2137 N 211.368 -0.403325 -1.52352 0
M  V30 2138 C 212.596 0.174012 -2.06167 0
M  V30 2139 C 213.011 1.39347 -1.27388 0
M  V30 2140 O 212.368 1.79597 -0.324201 0
M  V30 2141 C 212.419 0.530223 -3.5759 0
M  V30 2142 O 212.14 -0.640806 -4.33388 0
M  V30 2143 C 213.641 1.16192 -4.27802 0
M  V30 2144 H 210.861 0.0229464 -0.670608 0
M  V30 2145 H 213.405 -0.572604 -1.9632 0
M  V30 2146 H 211.56 1.22673 -3.67464 0
M  V30 2147 H 211.974 -0.344851 -5.23365 0
M  V30 2148 H 213.448 1.36141 -5.34948 0
M  V30 2149 H 213.925 2.13335 -3.83907 0
M  V30 2150 H 214.531 0.505775 -4.22282 0
M  V30 2151 N 212.846 1.57033 -0.133567 0
M  V30 2152 C 214.092 1.95976 0.521649 0
M  V30 2153 C 214.425 1.01779 1.65393 0
M  V30 2154 O 213.7 0.0576581 1.94415 0
M  V30 2155 C 213.983 3.44738 1.04057 0
M  V30 2156 C 213.836 4.49711 -0.0892897 0
M  V30 2157 C 215.155 3.95682 1.92675 0
M  V30 2158 H 212.274 0.712579 0.188149 0
M  V30 2159 H 214.916 1.88813 -0.212076 0
M  V30 2160 H 213.066 3.50973 1.66583 0
M  V30 2161 H 214.738 4.55565 -0.725152 0
M  V30 2162 H 212.981 4.27261 -0.750378 0
M  V30 2163 H 213.652 5.51099 0.315284 0
M  V30 2164 H 216.128 3.91841 1.39998 0
M  V30 2165 H 215.004 5.00262 2.25897 0
M  V30 2166 H 215.265 3.37239 2.85872 0
M  V30 2167 N 214.325 -0.140222 1.56975 0
M  V30 2168 C 215.572 -0.851687 1.83719 0
M  V30 2169 C 215.9 -1.80862 0.715485 0
M  V30 2170 O 215.155 -1.93464 -0.294956 0
M  V30 2171 C 215.454 -1.65386 3.16832 0
M  V30 2172 C 215.12 -0.843112 4.42947 0
M  V30 2173 C 213.782 -0.619464 4.77196 0
M  V30 2174 C 216.134 -0.276582 5.20466 0
M  V30 2175 C 213.462 0.181312 5.8642 0
M  V30 2176 C 215.814 0.51127 6.30531 0
M  V30 2177 C 214.478 0.745432 6.63325 0
M  V30 2178 H 213.748 -0.311654 0.672274 0
M  V30 2179 H 216.395 -0.115006 1.91154 0
M  V30 2180 H 214.7 -2.46084 3.04877 0
M  V30 2181 H 216.397 -2.20793 3.34741 0
M  V30 2182 H 212.987 -1.0275 4.16101 0
M  V30 2183 H 217.171 -0.436632 4.94376 0
M  V30 2184 H 212.427 0.372165 6.10266 0
M  V30 2185 H 216.601 0.957354 6.89788 0
M  V30 2186 H 214.228 1.36778 7.47794 0
M  V30 2187 N 215.803 -1.52179 -0.40978 0
M  V30 2188 C 217.214 -1.58377 -0.988615 0
M  V30 2189 C 217.565 -0.423879 -1.91566 0
M  V30 2190 O 216.69 0.455844 -2.11544 0
M  V30 2191 C 217.285 -2.87044 -1.79976 0
M  V30 2192 C 215.844 -2.95722 -2.32863 0
M  V30 2193 C 214.991 -2.53309 -1.12828 0
M  V30 2194 H 217.942 -1.57558 -0.190039 0
M  V30 2195 H 217.963 -2.7236 -2.65707 0
M  V30 2196 H 217.475 -3.71444 -1.12478 0
M  V30 2197 H 215.576 -2.15814 -3.03735 0
M  V30 2198 H 215.689 -3.99951 -2.63773 0
M  V30 2199 H 214.053 -2.07142 -1.48204 0
M  V30 2200 H 214.836 -3.40082 -0.46897 0
M  V30 2201 N 217.281 0.66697 -1.42791 0
M  V30 2202 C 218.211 1.79218 -1.49677 0
M  V30 2203 C 219.192 1.66405 -0.352623 0
M  V30 2204 O 220.377 1.85708 -0.567993 0
M  V30 2205 C 217.507 3.17565 -1.40605 0
M  V30 2206 C 216.461 3.45124 -2.53127 0
M  V30 2207 C 215.787 4.83127 -2.29112 0
M  V30 2208 C 217.087 3.41236 -3.95418 0
M  V30 2209 H 218.781 1.73713 -2.43853 0
M  V30 2210 H 216.327 0.83432 -1.17367 0
M  V30 2211 H 218.28 3.96022 -1.44029 0
M  V30 2212 H 217.004 3.23767 -0.429271 0
M  V30 2213 H 215.663 2.69031 -2.49034 0
M  V30 2214 H 215.311 4.85988 -1.29709 0
M  V30 2215 H 215.011 5.02528 -3.04531 0
M  V30 2216 H 216.535 5.63859 -2.34297 0
M  V30 2217 H 217.949 4.09651 -4.01073 0
M  V30 2218 H 216.346 3.72173 -4.70752 0
M  V30 2219 H 217.416 2.39665 -4.21532 0
M  V30 2220 N 218.759 1.29093 0.90403 0
M  V30 2221 C 220.175 1.07011 1.1841 0
M  V30 2222 C 220.375 -0.181358 2.00682 0
M  V30 2223 O 219.431 -0.880331 2.36657 0
M  V30 2224 C 220.744 2.32311 1.90924 0
M  V30 2225 C 222.292 2.37587 2.03768 0
M  V30 2226 C 222.767 3.62679 2.79693 0
M  V30 2227 N 224.258 3.63376 2.87249 0
M  V30 2228 C 224.993 4.56848 3.46522 0
M  V30 2229 N 224.489 5.60648 4.06996 0
M  V30 2230 N 226.282 4.44426 3.44154 0
M  V30 2231 H 218.433 2.09412 0.354993 0
M  V30 2232 H 220.696 0.922181 0.219742 0
M  V30 2233 H 220.402 3.23536 1.37905 0
M  V30 2234 H 220.276 2.39483 2.91424 0
M  V30 2235 H 222.663 1.46853 2.55965 0
M  V30 2236 H 222.744 2.34403 1.02415 0
M  V30 2237 H 222.388 4.53762 2.28173 0
M  V30 2238 H 222.318 3.63119 3.81381 0
M  V30 2239 H 224.809 2.88321 2.44293 0
M  V30 2240 H 225.122 6.28101 4.50232 0
M  V30 2241 H 223.467 5.64463 4.05471 0
M  V30 2242 H 226.658 3.62529 2.96126 0
M  V30 2243 H 226.831 5.17457 3.90054 0
M  V30 2244 N 220.237 -1.11381 1.11499 0
M  V30 2245 C 221.2 -2.15622 0.777153 0
M  V30 2246 C 222.2 -1.59504 -0.203779 0
M  V30 2247 O 223.39 -1.74188 0.020782 0
M  V30 2248 C 220.522 -3.40556 0.153116 0
M  V30 2249 H 221.715 -2.47021 1.70061 0
M  V30 2250 H 219.268 -1.26577 0.916952 0
M  V30 2251 H 220.003 -3.14767 -0.780536 0
M  V30 2252 H 219.788 -3.8257 0.859238 0
M  V30 2253 H 221.278 -4.17546 -0.0671044 0
M  V30 2254 N 221.715 -0.905404 -1.28997 0
M  V30 2255 C 222.645 -0.404212 -2.29975 0
M  V30 2256 C 223.626 0.523784 -1.61835 0
M  V30 2257 O 224.811 0.433298 -1.89304 0
M  V30 2258 C 221.941 0.364042 -3.45387 0
M  V30 2259 C 220.895 -0.474048 -4.25367 0
M  V30 2260 C 220.221 0.422045 -5.33032 0
M  V30 2261 C 221.521 -1.72696 -4.92923 0
M  V30 2262 H 223.215 -1.24807 -2.72146 0
M  V30 2263 H 220.761 -0.601585 -1.30832 0
M  V30 2264 H 222.714 0.725447 -4.15109 0
M  V30 2265 H 221.438 1.24174 -3.02074 0
M  V30 2266 H 220.097 -0.81786 -3.57361 0
M  V30 2267 H 219.745 1.29804 -4.85963 0
M  V30 2268 H 219.445 -0.135057 -5.87445 0
M  V30 2269 H 220.969 0.779517 -6.05604 0
M  V30 2270 H 222.383 -1.43495 -5.55051 0
M  V30 2271 H 220.78 -2.22582 -5.57295 0
M  V30 2272 H 221.85 -2.45964 -4.17887 0
M  V30 2273 N 223.193 1.4272 -0.668489 0
M  V30 2274 C 224.143 2.27971 0.0363806 0
M  V30 2275 C 225.127 1.40741 0.779794 0
M  V30 2276 O 226.319 1.64245 0.659745 0
M  V30 2277 C 223.448 3.28673 0.991398 0
M  V30 2278 C 222.534 4.23388 0.245658 0
M  V30 2279 N 222.925 5.00267 -0.746069 0
M  V30 2280 C 221.223 4.43355 0.484988 0
M  V30 2281 C 221.924 5.69396 -1.19009 0
M  V30 2282 N 220.9 5.41095 -0.521287 0
M  V30 2283 H 224.702 2.84833 -0.724394 0
M  V30 2284 H 222.216 1.54607 -0.497028 0
M  V30 2285 H 224.213 3.88543 1.51129 0
M  V30 2286 H 222.873 2.73373 1.75207 0
M  V30 2287 H 223.884 5.05525 -1.12537 0
M  V30 2288 H 220.561 3.99104 1.22565 0
M  V30 2289 H 221.951 6.41083 -2.01153 0
M  V30 2290 N 224.671 0.411399 1.52136 0
M  V30 2291 C 226.087 0.0623865 1.59478 0
M  V30 2292 C 226.287 -1.42554 1.4241 0
M  V30 2293 O 225.343 -2.19263 1.2522 0
M  V30 2294 C 226.656 0.559331 2.95452 0
M  V30 2295 C 228.204 0.517503 3.08692 0
M  V30 2296 C 228.679 0.990994 4.4715 0
M  V30 2297 N 230.17 0.947908 4.53397 0
M  V30 2298 C 230.905 1.28544 5.58806 0
M  V30 2299 N 230.401 1.69454 6.71757 0
M  V30 2300 N 232.194 1.20526 5.49026 0
M  V30 2301 H 224.345 1.37982 1.61477 0
M  V30 2302 H 226.608 0.566977 0.759764 0
M  V30 2303 H 226.314 1.59938 3.1323 0
M  V30 2304 H 226.188 -0.0298014 3.77188 0
M  V30 2305 H 228.575 -0.513505 2.90598 0
M  V30 2306 H 228.656 1.14272 2.28857 0
M  V30 2307 H 228.3 2.02034 4.65988 0
M  V30 2308 H 228.23 0.34257 5.25485 0
M  V30 2309 H 230.721 0.647157 3.72317 0
M  V30 2310 H 231.034 1.93513 7.48179 0
M  V30 2311 H 229.379 1.73359 6.73032 0
M  V30 2312 H 232.57 0.884505 4.59667 0
M  V30 2313 H 232.743 1.47161 6.31069 0
M  V30 2314 N 226.149 -1.5696 0.141893 0
M  V30 2315 C 227.565 -1.58151 -0.21456 0
M  V30 2316 C 227.765 -1.1559 -1.65049 0
M  V30 2317 O 226.821 -0.853832 -2.37626 0
M  V30 2318 C 228.134 -3.00674 0.0395576 0
M  V30 2319 C 229.682 -3.1299 -0.0245529 0
M  V30 2320 C 230.157 -4.57554 0.202167 0
M  V30 2321 N 231.648 -4.62961 0.148919 0
M  V30 2322 C 232.383 -5.7262 0.298924 0
M  V30 2323 N 231.879 -6.90947 0.50637 0
M  V30 2324 N 233.672 -5.61601 0.236886 0
M  V30 2325 H 225.823 -1.8292 1.07953 0
M  V30 2326 H 228.086 -0.846425 0.42693 0
M  V30 2327 H 227.792 -3.36183 1.03315 0
M  V30 2328 H 227.666 -3.70981 -0.682143 0
M  V30 2329 H 230.053 -2.77326 -1.00869 0
M  V30 2330 H 230.134 -2.4518 0.729396 0
M  V30 2331 H 229.778 -4.93922 1.18338 0
M  V30 2332 H 229.708 -5.23484 -0.572044 0
M  V30 2333 H 232.199 -3.77899 -0.00697015 0
M  V30 2334 H 232.512 -7.7038 0.611076 0
M  V30 2335 H 230.857 -6.92878 0.542628 0
M  V30 2336 H 234.048 -4.68039 0.0756209 0
M  V30 2337 H 234.221 -6.47015 0.357227 0
M  V30 2338 N 227.627 0.131896 -1.57047 0
M  V30 2339 C 228.855 0.856461 -1.88341 0
M  V30 2340 C 229.27 1.74042 -0.731757 0
M  V30 2341 O 228.627 1.80051 0.297945 0
M  V30 2342 C 228.678 1.70064 -3.18999 0
M  V30 2343 O 228.399 0.852278 -4.2973 0
M  V30 2344 C 229.9 2.53148 -3.63911 0
M  V30 2345 H 227.12 0.246885 -0.62393 0
M  V30 2346 H 229.664 0.120152 -2.04147 0
M  V30 2347 H 227.819 2.38984 -3.04902 0
M  V30 2348 H 228.233 1.43329 -5.04537 0
M  V30 2349 H 229.707 3.07931 -4.58129 0
M  V30 2350 H 230.184 3.29901 -2.89935 0
M  V30 2351 H 230.79 1.89492 -3.80753 0
M  V30 2352 N 229.106 1.52395 0.401703 0
M  V30 2353 C 230.517 1.58899 0.980202 0
M  V30 2354 C 230.868 0.434032 1.91339 0
M  V30 2355 O 229.993 -0.444619 2.11783 0
M  V30 2356 C 230.588 2.87994 1.78451 0
M  V30 2357 C 229.147 2.96953 2.31292 0
M  V30 2358 C 228.294 2.53903 1.11483 0
M  V30 2359 H 231.245 1.57657 0.18168 0
M  V30 2360 H 231.266 2.73765 2.64259 0
M  V30 2361 H 230.778 3.72035 1.10506 0
M  V30 2362 H 228.879 2.17422 3.02586 0
M  V30 2363 H 228.992 4.01344 2.61649 0
M  V30 2364 H 227.356 2.07925 1.47104 0
M  V30 2365 H 228.139 3.40326 0.450928 0
M  V30 2366 N 230.584 -0.659388 1.43143 0
M  V30 2367 C 232 -0.974337 1.26407 0
M  V30 2368 C 232.2 -2.007 0.179341 0
M  V30 2369 O 231.256 -2.4856 -0.444295 0
M  V30 2370 C 232.569 -1.46447 2.62628 0
M  V30 2371 C 234.117 -1.58144 2.7011 0
M  V30 2372 C 234.592 -2.1055 4.06734 0
M  V30 2373 N 236.083 -2.17861 4.08767 0
M  V30 2374 C 236.818 -2.59519 5.1131 0
M  V30 2375 N 236.314 -3.00518 6.24228 0
M  V30 2376 N 238.107 -2.59404 4.98664 0
M  V30 2377 H 230.258 0.0240528 2.12386 0
M  V30 2378 H 232.521 -0.0518065 0.946583 0
M  V30 2379 H 232.227 -0.780123 3.42939 0
M  V30 2380 H 232.101 -2.44058 2.87603 0
M  V30 2381 H 234.488 -2.25682 1.90136 0
M  V30 2382 H 234.569 -0.589828 2.48907 0
M  V30 2383 H 234.213 -1.43616 4.87172 0
M  V30 2384 H 234.143 -3.10531 4.25298 0
M  V30 2385 H 236.634 -1.88975 3.27257 0
M  V30 2386 H 236.947 -3.31036 6.98309 0
M  V30 2387 H 235.292 -2.98337 6.2771 0
M  V30 2388 H 238.483 -2.26747 4.09516 0
M  V30 2389 H 238.656 -2.91548 5.78709 0
M  V30 2390 N 232.062 -1.29571 -0.897171 0
M  V30 2391 C 232.992 -1.17473 -2.01798 0
M  V30 2392 C 233.973 -0.068323 -1.69963 0
M  V30 2393 O 235.158 -0.248239 -1.92607 0
M  V30 2394 C 232.288 -0.853099 -3.36659 0
M  V30 2395 C 231.242 -1.9161 -3.82713 0
M  V30 2396 C 230.568 -1.44773 -5.14728 0
M  V30 2397 C 231.868 -3.32535 -4.02763 0
M  V30 2398 H 233.562 -2.11237 -2.12177 0
M  V30 2399 H 231.108 -1.01699 -1.01948 0
M  V30 2400 H 233.061 -0.755165 -4.14578 0
M  V30 2401 H 231.785 0.120236 -3.26379 0
M  V30 2402 H 230.444 -2.00346 -3.07013 0
M  V30 2403 H 230.092 -0.462995 -5.00865 0
M  V30 2404 H 229.792 -2.15865 -5.46513 0
M  V30 2405 H 231.316 -1.36334 -5.95185 0
M  V30 2406 H 232.73 -3.26626 -4.71156 0
M  V30 2407 H 231.127 -4.01607 -4.45905 0
M  V30 2408 H 232.197 -3.75326 -3.07016 0
M  V30 2409 N 233.54 1.10788 -1.12088 0
M  V30 2410 C 234.503 2.15207 -0.788577 0
M  V30 2411 C 235.503 1.59609 0.195317 0
M  V30 2412 O 236.693 1.74174 -0.0300193 0
M  V30 2413 C 233.825 3.4047 -0.171174 0
M  V30 2414 H 235.018 2.46116 -1.71368 0
M  V30 2415 H 232.571 1.26089 -0.923652 0
M  V30 2416 H 233.306 3.15176 0.763832 0
M  V30 2417 H 233.091 3.82109 -0.879514 0
M  V30 2418 H 234.581 4.17576 0.04496 0
M  V30 2419 N 235.018 0.912232 1.28515 0
M  V30 2420 C 235.948 0.416403 2.29757 0
M  V30 2421 C 236.929 -0.515194 1.6211 0
M  V30 2422 O 238.114 -0.423253 1.89532 0
M  V30 2423 C 235.244 -0.34572 3.45575 0
M  V30 2424 C 234.198 0.496599 4.25109 0
M  V30 2425 C 233.524 -0.393771 5.33248 0
M  V30 2426 C 234.824 1.75307 4.92001 0
M  V30 2427 H 236.518 1.26249 2.7148 0
M  V30 2428 H 234.064 0.608515 1.30511 0
M  V30 2429 H 236.017 -0.703422 4.15488 0
M  V30 2430 H 234.741 -1.2257 3.02728 0
M  V30 2431 H 233.4 0.8368 3.56922 0
M  V30 2432 H 233.048 -1.27225 4.86644 0
M  V30 2433 H 232.748 0.166209 5.87365 0
M  V30 2434 H 234.272 -0.747389 6.06009 0
M  V30 2435 H 235.686 1.46437 5.54283 0
M  V30 2436 H 234.083 2.25534 5.56106 0
M  V30 2437 H 235.153 2.48176 4.16577 0
M  V30 2438 N 236.496 -1.42363 0.676048 0
M  V30 2439 C 237.459 -2.29199 0.00766941 0
M  V30 2440 C 238.459 -1.43389 -0.727745 0
M  V30 2441 O 239.649 -1.64764 -0.56556 0
M  V30 2442 C 236.781 -3.2591 -0.999785 0
M  V30 2443 H 237.974 -2.89794 0.771988 0
M  V30 2444 H 235.527 -1.50024 0.438468 0
M  V30 2445 H 236.262 -2.70256 -1.79255 0
M  V30 2446 H 236.047 -3.89202 -0.475829 0
M  V30 2447 H 237.537 -3.91028 -1.46583 0
M  V30 2448 N 237.974 -0.419461 -1.51915 0
M  V30 2449 C 239.22 0.153166 -2.02221 0
M  V30 2450 C 239.553 1.43907 -1.30401 0
M  V30 2451 O 238.828 1.90055 -0.413438 0
M  V30 2452 C 239.111 0.390291 -3.57979 0
M  V30 2453 C 238.964 -0.913014 -4.40436 0
M  V30 2454 C 240.283 1.16794 -4.2432 0
M  V30 2455 H 237.402 0.0541924 -0.735005 0
M  V30 2456 H 240.044 -0.554955 -1.81715 0
M  V30 2457 H 238.194 0.993491 -3.75582 0
M  V30 2458 H 239.866 -1.54882 -4.34522 0
M  V30 2459 H 238.109 -1.52168 -4.06236 0
M  V30 2460 H 238.78 -0.701361 -5.47526 0
M  V30 2461 H 241.256 0.657161 -4.10878 0
M  V30 2462 H 240.132 1.3026 -5.3322 0
M  V30 2463 H 240.393 2.19132 -3.83971 0
M  V30 2464 N 239.452 1.56882 -0.150215 0
M  V30 2465 C 240.677 2.01027 0.510184 0
M  V30 2466 C 241.102 1.02966 1.57415 0
M  V30 2467 O 240.46 0.00590158 1.81299 0
M  V30 2468 C 240.508 3.43899 1.08472 0
M  V30 2469 O 239.612 3.4885 2.19948 0
M  V30 2470 H 238.953 0.652233 0.124451 0
M  V30 2471 H 241.483 2.03093 -0.247894 0
M  V30 2472 H 241.493 3.82766 1.41259 0
M  V30 2473 H 240.168 4.14776 0.305582 0
M  V30 2474 H 238.745 3.21827 1.88366 0
M  V30 2475 N 240.93 -0.123565 1.57115 0
M  V30 2476 C 241.86 -1.15309 2.03042 0
M  V30 2477 C 242.841 -1.43454 0.914061 0
M  V30 2478 O 244.026 -1.53973 1.18347 0
M  V30 2479 C 241.156 -2.48043 2.43089 0
M  V30 2480 C 240.11 -2.3437 3.58127 0
M  V30 2481 C 239.436 -3.72026 3.84059 0
M  V30 2482 C 240.736 -1.80804 4.90007 0
M  V30 2483 H 242.43 -0.771102 2.893 0
M  V30 2484 H 239.976 -0.369479 1.39179 0
M  V30 2485 H 241.929 -3.20311 2.73823 0
M  V30 2486 H 240.653 -2.88122 1.53796 0
M  V30 2487 H 239.312 -1.64551 3.27595 0
M  V30 2488 H 238.96 -4.09582 2.91979 0
M  V30 2489 H 238.66 -3.63732 4.6149 0
M  V30 2490 H 240.184 -4.45806 4.1724 0
M  V30 2491 H 241.598 -2.42886 5.19307 0
M  V30 2492 H 239.995 -1.83343 5.71407 0
M  V30 2493 H 241.065 -0.76528 4.78823 0
M  V30 2494 N 242.408 -1.52605 -0.393616 0
M  V30 2495 C 243.633 -1.71592 -1.16495 0
M  V30 2496 C 244.058 -0.43133 -1.83088 0
M  V30 2497 O 243.416 0.612523 -1.7064 0
M  V30 2498 C 243.464 -2.86318 -2.19213 0
M  V30 2499 O 242.568 -2.52969 -3.257 0
M  V30 2500 H 241.909 -0.570734 -0.33935 0
M  V30 2501 H 244.439 -1.99377 -0.459324 0
M  V30 2502 H 244.449 -3.1168 -2.63286 0
M  V30 2503 H 243.124 -3.79511 -1.7013 0
M  V30 2504 H 241.701 -2.38332 -2.86797 0
M  V30 2505 N 243.887 0.651787 -1.4349 0
M  V30 2506 C 245.136 1.40754 -1.44469 0
M  V30 2507 C 245.449 1.95463 -0.0731845 0
M  V30 2508 O 246.655 2.71471 0.0395721 0
M  V30 2509 C 245.111 2.54735 -2.5424 0
M  V30 2510 C 244.719 2.06628 -3.97504 0
M  V30 2511 C 246.463 3.32092 -2.64414 0
M  V30 2512 C 244.37 3.17829 -4.98737 0
M  V30 2513 H 243.3 0.528862 -0.53742 0
M  V30 2514 H 245.951 0.703365 -1.69485 0
M  V30 2515 H 244.333 3.2763 -2.22428 0
M  V30 2516 H 245.507 1.40734 -4.38783 0
M  V30 2517 H 243.822 1.42146 -3.91387 0
M  V30 2518 H 246.419 4.14952 -3.37223 0
M  V30 2519 H 246.762 3.80217 -1.69532 0
M  V30 2520 H 247.295 2.66279 -2.95534 0
M  V30 2521 H 244.034 2.74671 -5.95177 0
M  V30 2522 H 243.554 3.82429 -4.62069 0
M  V30 2523 H 245.233 3.82937 -5.21505 0
M  V30 2524 N 245.365 1.30045 0.890287 0
M  V30 2525 C 246.611 1.19747 1.64415 0
M  V30 2526 C 246.966 -0.246591 1.90813 0
M  V30 2527 O 246.259 -1.174 1.51419 0
M  V30 2528 C 246.453 1.95409 2.99249 0
M  V30 2529 C 246.282 3.47025 2.86013 0
M  V30 2530 C 245.052 4.1638 2.86279 0
M  V30 2531 C 247.25 4.42353 2.62351 0
M  V30 2532 N 245.232 5.54293 2.63879 0
M  V30 2533 C 246.603 5.67792 2.49022 0
M  V30 2534 C 248.658 4.32009 2.47533 0
M  V30 2535 C 247.361 6.8406 2.22383 0
M  V30 2536 C 249.387 5.48038 2.22279 0
M  V30 2537 C 248.749 6.72455 2.09722 0
M  V30 2538 H 244.848 0.493223 0.60684 0
M  V30 2539 H 247.432 1.6399 1.04954 0
M  V30 2540 H 245.603 1.53565 3.56752 0
M  V30 2541 H 247.335 1.77298 3.63796 0
M  V30 2542 H 244.09 3.68164 2.97913 0
M  V30 2543 H 244.514 6.26852 2.55706 0
M  V30 2544 H 249.156 3.36503 2.55979 0
M  V30 2545 H 246.874 7.79612 2.12675 0
M  V30 2546 H 250.46 5.41939 2.11643 0
M  V30 2547 H 249.34 7.60722 1.90453 0
M  V30 2548 N 246.843 -1.10192 1.12674 0
M  V30 2549 C 248.089 -1.82475 0.884915 0
M  V30 2550 C 248.422 -1.85093 -0.58773 0
M  V30 2551 O 247.697 -1.3134 -1.43457 0
M  V30 2552 C 247.98 -3.29018 1.46353 0
M  V30 2553 C 247.833 -3.34718 3.00473 0
M  V30 2554 C 249.152 -4.25473 1.12519 0
M  V30 2555 H 246.271 -0.662492 0.322915 0
M  V30 2556 H 248.913 -1.2913 1.39375 0
M  V30 2557 H 247.063 -3.74576 1.03077 0
M  V30 2558 H 248.735 -2.97622 3.52447 0
M  V30 2559 H 246.978 -2.74541 3.35872 0
M  V30 2560 H 247.649 -4.37918 3.36053 0
M  V30 2561 H 250.125 -3.88161 1.499 0
M  V30 2562 H 249.001 -5.26365 1.55663 0
M  V30 2563 H 249.262 -4.42084 0.0377407 0
M  V30 2564 N 248.321 -0.919034 -1.28029 0
M  V30 2565 C 249.569 -0.553838 -1.94363 0
M  V30 2566 C 249.89 0.906357 -1.72656 0
M  V30 2567 O 249.16 1.64143 -1.0693 0
M  V30 2568 H 247.74 -0.201834 -0.719216 0
M  V30 2569 H 250.402 -1.16954 -1.55909 0
M  V30 2570 H 249.498 -0.752758 -3.02886 0
M  V30 2571 N 249.799 1.42003 -0.683588 0
M  V30 2572 C 251.024 2.06265 -0.216647 0
M  V30 2573 C 251.449 1.51059 1.12083 0
M  V30 2574 O 250.807 0.632638 1.69904 0
M  V30 2575 C 250.855 3.60191 -0.171759 0
M  V30 2576 O 249.959 4.03396 0.857069 0
M  V30 2577 H 249.3 0.65502 -0.108834 0
M  V30 2578 H 251.83 1.81982 -0.935077 0
M  V30 2579 H 251.84 4.08 0.0014303 0
M  V30 2580 H 250.515 3.99743 -1.14796 0
M  V30 2581 H 249.092 3.67117 0.654208 0
M  V30 2582 N 251.277 0.427512 1.51691 0
M  V30 2583 C 252.24 -0.377132 2.26076 0
M  V30 2584 C 253.24 -0.958089 1.29141 0
M  V30 2585 O 254.43 -0.83408 1.52934 0
M  V30 2586 C 251.562 -1.53262 3.04506 0
M  V30 2587 H 252.755 0.27464 2.9864 0
M  V30 2588 H 250.308 0.180445 1.55255 0
M  V30 2589 H 251.043 -2.22072 2.36335 0
M  V30 2590 H 250.828 -1.12232 3.75694 0
M  V30 2591 H 252.318 -2.10135 3.60878 0
M  V30 2592 N 252.755 -1.56801 0.158532 0
M  V30 2593 C 253.718 -2.16138 -0.762705 0
M  V30 2594 C 254.718 -1.1061 -1.16713 0
M  V30 2595 O 255.908 -1.36191 -1.08617 0
M  V30 2596 C 253.04 -2.73386 -2.03649 0
M  V30 2597 H 254.233 -2.98886 -0.246354 0
M  V30 2598 H 251.786 -1.56035 -0.0909744 0
M  V30 2599 H 252.521 -1.94335 -2.59623 0
M  V30 2600 H 252.306 -3.50601 -1.75559 0
M  V30 2601 H 253.796 -3.19065 -2.6942 0
M  V30 2602 N 254.233 0.115231 -1.57178 0
M  V30 2603 C 255.479 0.82357 -1.85325 0
M  V30 2604 C 255.812 1.79349 -0.744814 0
M  V30 2605 O 255.087 1.92899 0.249024 0
M  V30 2606 C 255.37 1.57014 -3.24066 0
M  V30 2607 C 255.223 0.619565 -4.45513 0
M  V30 2608 C 256.542 2.52545 -3.60429 0
M  V30 2609 H 253.661 0.297948 -0.674089 0
M  V30 2610 H 256.303 0.0877138 -1.89797 0
M  V30 2611 H 254.453 2.19742 -3.20383 0
M  V30 2612 H 256.125 0.000837639 -4.613 0
M  V30 2613 H 254.368 -0.0686174 -4.33746 0
M  V30 2614 H 255.039 1.17866 -5.3927 0
M  V30 2615 H 257.515 1.9992 -3.64926 0
M  V30 2616 H 256.391 3.01811 -4.58477 0
M  V30 2617 H 256.652 3.35383 -2.88047 0
M  V30 2618 N 255.711 1.52812 0.385517 0
M  V30 2619 C 256.936 1.72207 1.15583 0
M  V30 2620 C 257.361 0.441034 1.82857 0
M  V30 2621 O 256.719 -0.603465 1.70962 0
M  V30 2622 C 256.767 2.87476 2.17692 0
M  V30 2623 O 255.871 2.54693 3.24354 0
M  V30 2624 H 255.212 0.572526 0.336319 0
M  V30 2625 H 257.742 1.99618 0.448744 0
M  V30 2626 H 257.752 3.13072 2.6163 0
M  V30 2627 H 256.427 3.80408 1.68115 0
M  V30 2628 H 255.004 2.3985 2.85529 0
M  V30 2629 N 257.189 -0.644168 1.43834 0
M  V30 2630 C 258.152 -1.73857 1.49353 0
M  V30 2631 C 259.152 -1.56315 0.377112 0
M  V30 2632 O 260.342 -1.62048 0.639226 0
M  V30 2633 C 257.474 -3.12819 1.35488 0
M  V30 2634 H 258.667 -1.70342 2.46827 0
M  V30 2635 H 256.22 -0.856652 1.30733 0
M  V30 2636 H 256.955 -3.2194 0.390569 0
M  V30 2637 H 256.74 -3.26958 2.16428 0
M  V30 2638 H 258.23 -3.92606 1.42302 0
M  V30 2639 N 258.668 -1.30515 -0.883378 0
M  V30 2640 C 260.079 -1.17509 -1.45081 0
M  V30 2641 C 260.43 0.223605 -1.94922 0
M  V30 2642 O 259.555 1.12041 -1.85137 0
M  V30 2643 C 260.15 -2.12715 -2.63701 0
M  V30 2644 C 258.709 -2.03682 -3.16529 0
M  V30 2645 C 257.856 -2.02706 -1.89224 0
M  V30 2646 H 260.807 -1.42762 -0.693165 0
M  V30 2647 H 260.828 -1.70891 -3.39965 0
M  V30 2648 H 260.34 -3.14505 -2.27395 0
M  V30 2649 H 258.441 -1.05039 -3.57488 0
M  V30 2650 H 258.554 -2.92146 -3.7972 0
M  V30 2651 H 256.918 -1.4753 -2.07622 0
M  V30 2652 H 257.701 -3.06229 -1.55174 0
M  V30 2653 N 260.146 1.09593 -1.13257 0
M  V30 2654 C 261.392 1.82003 -0.89458 0
M  V30 2655 C 261.725 1.85402 0.577906 0
M  V30 2656 O 261 1.32099 1.42759 0
M  V30 2657 C 261.283 3.28237 -1.48096 0
M  V30 2658 C 261.136 3.3312 -3.02244 0
M  V30 2659 C 262.455 4.24871 -1.14774 0
M  V30 2660 H 259.574 0.66077 -0.326424 0
M  V30 2661 H 262.216 1.28389 -1.40058 0
M  V30 2662 H 260.366 3.74024 -1.05062 0
M  V30 2663 H 262.038 2.95748 -3.54021 0
M  V30 2664 H 260.281 2.72756 -3.37323 0
M  V30 2665 H 260.952 4.3613 -3.38371 0
M  V30 2666 H 263.428 3.87361 -1.51957 0
M  V30 2667 H 262.304 5.25532 -1.58452 0
M  V30 2668 H 262.565 4.42058 -0.0611849 0
M  V30 2669 N 261.624 0.925811 1.2754 0
M  V30 2670 C 262.554 0.440748 2.29303 0
M  V30 2671 C 263.535 -0.497971 1.62648 0
M  V30 2672 O 264.72 -0.403126 1.8997 0
M  V30 2673 C 261.85 -0.309048 3.45922 0
M  V30 2674 C 260.804 0.54166 4.24559 0
M  V30 2675 C 260.13 -0.337191 5.33636 0
M  V30 2676 C 261.43 1.80516 4.90114 0
M  V30 2677 H 263.124 1.29121 2.70126 0
M  V30 2678 H 260.67 0.622323 1.29858 0
M  V30 2679 H 262.623 -0.659315 4.1621 0
M  V30 2680 H 261.347 -1.19352 3.04011 0
M  V30 2681 H 260.006 0.874609 3.56014 0
M  V30 2682 H 259.654 -1.22056 4.87966 0
M  V30 2683 H 259.354 0.228497 5.87156 0
M  V30 2684 H 260.878 -0.683072 6.06767 0
M  V30 2685 H 262.292 1.52307 5.52698 0
M  V30 2686 H 260.689 2.3142 5.53683 0
M  V30 2687 H 261.759 2.52581 4.13921 0
M  V30 2688 N 263.102 -1.41638 0.69111 0
M  V30 2689 C 264.065 -2.29178 0.0319786 0
M  V30 2690 C 265.065 -1.44153 -0.712496 0
M  V30 2691 O 266.255 -1.65354 -0.548053 0
M  V30 2692 C 263.387 -3.26952 -0.965161 0
M  V30 2693 H 264.58 -2.88959 0.802681 0
M  V30 2694 H 262.133 -1.4955 0.454356 0
M  V30 2695 H 262.868 -2.72142 -1.76378 0
M  V30 2696 H 262.653 -3.89685 -0.434522 0
M  V30 2697 H 264.143 -3.92561 -1.42428 0
M  V30 2698 N 264.58 -0.43555 -1.51462 0
M  V30 2699 C 265.51 0.367376 -2.30592 0
M  V30 2700 C 266.491 1.02263 -1.35928 0
M  V30 2701 O 267.676 1.02661 -1.64847 0
M  V30 2702 C 264.806 1.46983 -3.14664 0
M  V30 2703 C 263.76 0.938161 -4.17591 0
M  V30 2704 C 263.086 2.13622 -4.90173 0
M  V30 2705 C 264.386 -0.0261621 -5.22293 0
M  V30 2706 H 266.08 -0.292969 -2.97963 0
M  V30 2707 H 263.626 -0.14234 -1.43295 0
M  V30 2708 H 265.579 2.03873 -3.688 0
M  V30 2709 H 264.303 2.15843 -2.4511 0
M  V30 2710 H 262.962 0.391481 -3.64504 0
M  V30 2711 H 262.61 2.81098 -4.17124 0
M  V30 2712 H 262.31 1.78688 -5.59772 0
M  V30 2713 H 263.834 2.7107 -5.47132 0
M  V30 2714 H 265.248 0.452384 -5.71512 0
M  V30 2715 H 263.645 -0.287992 -5.99409 0
M  V30 2716 H 264.715 -0.963391 -4.75233 0
M  V30 2717 N 266.058 1.56714 -0.166846 0
M  V30 2718 C 267.008 2.14338 0.777382 0
M  V30 2719 C 267.992 1.07642 1.19591 0
M  V30 2720 O 269.184 1.33775 1.15902 0
M  V30 2721 C 266.313 2.78417 2.00846 0
M  V30 2722 C 265.399 3.92264 1.61212 0
M  V30 2723 N 265.79 4.97268 0.925104 0
M  V30 2724 C 264.088 4.03342 1.90346 0
M  V30 2725 C 264.789 5.77093 0.730627 0
M  V30 2726 N 263.765 5.2854 1.27067 0
M  V30 2727 H 267.567 2.9289 0.243466 0
M  V30 2728 H 265.081 1.62364 0.0339954 0
M  V30 2729 H 267.078 3.18073 2.69509 0
M  V30 2730 H 265.738 2.01344 2.54736 0
M  V30 2731 H 266.749 5.14601 0.583646 0
M  V30 2732 H 263.426 3.37368 2.45946 0
M  V30 2733 H 264.816 6.71638 0.187668 0
M  V30 2734 N 267.536 -0.106894 1.57237 0
M  V30 2735 C 268.952 -0.46078 1.52804 0
M  V30 2736 C 269.152 -1.81184 0.881746 0
M  V30 2737 O 268.208 -2.48102 0.469224 0
M  V30 2738 C 269.521 -0.434127 2.9755 0
M  V30 2739 C 271.069 -0.516821 3.08704 0
M  V30 2740 C 271.544 -0.520436 4.55033 0
M  V30 2741 N 273.035 -0.58153 4.59535 0
M  V30 2742 C 273.77 -0.605973 5.70189 0
M  V30 2743 N 273.266 -0.587331 6.90306 0
M  V30 2744 N 275.059 -0.649895 5.5833 0
M  V30 2745 H 267.21 0.778203 1.9763 0
M  V30 2746 H 269.473 0.288403 0.903066 0
M  V30 2747 H 269.179 0.491197 3.48253 0
M  V30 2748 H 269.053 -1.25748 3.55622 0
M  V30 2749 H 271.44 -1.43256 2.57995 0
M  V30 2750 H 271.521 0.334449 2.53604 0
M  V30 2751 H 271.165 0.391313 5.0639 0
M  V30 2752 H 271.095 -1.38876 5.07958 0
M  V30 2753 H 273.586 -0.60161 3.73081 0
M  V30 2754 H 273.899 -0.60894 7.70397 0
M  V30 2755 H 272.244 -0.554564 6.92784 0
M  V30 2756 H 275.435 -0.661907 4.63397 0
M  V30 2757 H 275.608 -0.665476 6.44574 0
M  V30 2758 N 269.014 -1.53014 -0.377408 0
M  V30 2759 C 269.944 -1.81589 -1.46791 0
M  V30 2760 C 270.925 -0.668622 -1.56408 0
M  V30 2761 O 272.11 -0.917337 -1.71168 0
M  V30 2762 C 269.24 -1.99519 -2.8427 0
M  V30 2763 C 268.194 -3.15249 -2.89486 0
M  V30 2764 C 267.52 -3.18451 -4.29527 0
M  V30 2765 C 268.82 -4.54084 -2.58079 0
M  V30 2766 H 270.514 -2.7291 -1.23127 0
M  V30 2767 H 268.06 -1.31319 -0.590883 0
M  V30 2768 H 270.013 -2.18092 -3.60575 0
M  V30 2769 H 268.737 -1.04897 -3.09296 0
M  V30 2770 H 267.396 -2.96477 -2.15631 0
M  V30 2771 H 267.044 -2.2149 -4.5161 0
M  V30 2772 H 266.744 -3.962 -4.33934 0
M  V30 2773 H 268.268 -3.39193 -5.07721 0
M  V30 2774 H 269.682 -4.72899 -3.24098 0
M  V30 2775 H 268.079 -5.33987 -2.7382 0
M  V30 2776 H 269.149 -4.60006 -1.53372 0
M  V30 2777 N 270.492 0.636531 -1.44174 0
M  V30 2778 C 271.717 1.42847 -1.50364 0
M  V30 2779 C 272.142 1.87665 -0.127867 0
M  V30 2780 O 271.5 1.58408 0.88185 0
M  V30 2781 C 271.548 2.62854 -2.4686 0
M  V30 2782 O 270.652 3.62501 -1.9664 0
M  V30 2783 H 269.993 0.427642 -0.507955 0
M  V30 2784 H 272.523 0.777422 -1.89255 0
M  V30 2785 H 272.533 3.10465 -2.64718 0
M  V30 2786 H 271.208 2.29578 -3.46795 0
M  V30 2787 H 269.785 3.21735 -1.88523 0
M  V30 2788 N 271.97 1.30982 0.876444 0
M  V30 2789 C 273.381 1.18277 1.44456 0
M  V30 2790 C 273.732 -0.213265 1.95037 0
M  V30 2791 O 272.857 -1.11057 1.85729 0
M  V30 2792 C 273.452 2.1411 2.62569 0
M  V30 2793 C 272.011 2.05358 3.15444 0
M  V30 2794 C 271.158 2.03706 1.88146 0
M  V30 2795 H 274.109 1.43127 0.685584 0
M  V30 2796 H 274.13 1.72692 3.39054 0
M  V30 2797 H 273.642 3.15706 2.25724 0
M  V30 2798 H 271.743 1.06934 3.56926 0
M  V30 2799 H 271.856 2.94156 3.78166 0
M  V30 2800 H 270.22 1.48629 2.06837 0
M  V30 2801 H 271.003 3.07047 1.53547 0
M  V30 2802 N 273.449 -1.08991 1.13837 0
M  V30 2803 C 274.697 -1.80899 0.901098 0
M  V30 2804 C 275.018 -1.86356 -0.574134 0
M  V30 2805 O 274.288 -1.35235 -1.41733 0
M  V30 2806 H 272.868 -0.669966 0.330386 0
M  V30 2807 H 275.53 -1.318 1.43578 0
M  V30 2808 H 274.626 -2.83929 1.29578 0
M  V30 2809 N 274.927 -0.932562 -1.27047 0
M  V30 2810 C 276.338 -0.619451 -1.76124 0
M  V30 2811 C 276.689 0.865397 -1.76083 0
M  V30 2812 O 275.814 1.67722 -1.36742 0
M  V30 2813 C 276.409 -1.11771 -3.19832 0
M  V30 2814 C 274.968 -0.855174 -3.66557 0
M  V30 2815 C 274.115 -1.27362 -2.46321 0
M  V30 2816 H 277.066 -1.11181 -1.13245 0
M  V30 2817 H 277.087 -0.46759 -3.77616 0
M  V30 2818 H 276.599 -2.19842 -3.1983 0
M  V30 2819 H 274.7 0.211524 -3.71999 0
M  V30 2820 H 274.813 -1.47613 -4.55793 0
M  V30 2821 H 273.177 -0.692119 -2.45116 0
M  V30 2822 H 273.96 -2.36307 -2.49025 0
M  V30 2823 N 276.405 1.4127 -0.698611 0
M  V30 2824 C 277.821 1.55241 -0.370462 0
M  V30 2825 C 278.021 1.67351 1.12231 0
M  V30 2826 O 277.077 1.65363 1.90818 0
M  V30 2827 C 278.39 2.78997 -1.12165 0
M  V30 2828 C 279.938 2.92797 -1.1063 0
M  V30 2829 C 280.413 4.19445 -1.8393 0
M  V30 2830 N 281.904 4.26409 -1.80914 0
M  V30 2831 C 282.639 5.23271 -2.34467 0
M  V30 2832 N 282.135 6.26145 -2.96504 0
M  V30 2833 N 283.928 5.15232 -2.24706 0
M  V30 2834 H 276.079 1.31654 -1.66676 0
M  V30 2835 H 278.342 0.635393 -0.703548 0
M  V30 2836 H 278.048 2.76268 -2.17644 0
M  V30 2837 H 277.922 3.70606 -0.702209 0
M  V30 2838 H 280.309 2.95039 -0.0597713 0
M  V30 2839 H 280.39 2.02353 -1.56483 0
M  V30 2840 H 280.034 4.17964 -2.88563 0
M  V30 2841 H 279.964 5.08866 -1.35509 0
M  V30 2842 H 282.455 3.527 -1.35687 0
M  V30 2843 H 282.768 6.96451 -3.34927 0
M  V30 2844 H 281.113 6.26638 -3.00583 0
M  V30 2845 H 284.304 4.33789 -1.7591 0
M  V30 2846 H 284.477 5.90552 -2.66745 0
M  V30 2847 N 277.883 0.443576 1.51229 0
M  V30 2848 C 278.846 -0.353132 2.26463 0
M  V30 2849 C 279.846 -0.944338 1.3015 0
M  V30 2850 O 281.036 -0.817813 1.5381 0
M  V30 2851 C 278.168 -1.50023 3.06114 0
M  V30 2852 H 279.361 0.3063 2.98332 0
M  V30 2853 H 276.914 0.196902 1.55055 0
M  V30 2854 H 277.649 -2.19553 2.38677 0
M  V30 2855 H 277.434 -1.08241 3.76864 0
M  V30 2856 H 278.924 -2.06296 3.63087 0
M  V30 2857 N 279.361 -1.56624 0.175154 0
M  V30 2858 C 280.591 -2.01082 -0.474283 0
M  V30 2859 C 280.999 -1.05447 -1.57091 0
M  V30 2860 O 280.342 -0.0480595 -1.83637 0
M  V30 2861 C 280.404 -3.41963 -1.10911 0
M  V30 2862 C 280.068 -4.56742 -0.153666 0
M  V30 2863 C 281.065 -5.16076 0.629448 0
M  V30 2864 C 278.75 -5.02277 -0.0483776 0
M  V30 2865 C 280.744 -6.19377 1.50501 0
M  V30 2866 C 278.431 -6.05427 0.830768 0
M  V30 2867 C 279.429 -6.63849 1.60605 0
M  V30 2868 O 279.117 -7.64998 2.47049 0
M  V30 2869 H 278.849 -0.664261 -0.125432 0
M  V30 2870 H 281.403 -2.03549 0.275163 0
M  V30 2871 H 279.633 -3.36422 -1.90676 0
M  V30 2872 H 281.322 -3.70352 -1.66114 0
M  V30 2873 H 282.088 -4.81776 0.558297 0
M  V30 2874 H 277.967 -4.56513 -0.641611 0
M  V30 2875 H 281.511 -6.64906 2.1106 0
M  V30 2876 H 277.408 -6.39151 0.903107 0
M  V30 2877 H 278.176 -7.82336 2.40607 0
M  V30 2878 N 280.839 0.0985539 -1.57292 0
M  V30 2879 C 282.079 0.808332 -1.87737 0
M  V30 2880 C 282.443 1.7607 -0.76572 0
M  V30 2881 O 283.644 2.51358 -0.952499 0
M  V30 2882 C 281.915 1.52093 -3.23423 0
M  V30 2883 S 283.474 2.26947 -3.75554 0
M  V30 2884 H 280.292 0.269377 -0.657995 0
M  V30 2885 H 282.894 0.0656269 -1.9539 0
M  V30 2886 H 281.598 0.81363 -4.02254 0
M  V30 2887 H 281.129 2.30361 -3.189 0
M  V30 2888 H 283.144 3.53027 -3.48692 0
M  V30 2889 N 282.317 1.53212 0.369288 0
M  V30 2890 C 283.542 1.73423 1.1375 0
M  V30 2891 C 283.967 0.460404 1.82378 0
M  V30 2892 O 283.325 -0.585298 1.71592 0
M  V30 2893 C 283.373 2.89769 2.1463 0
M  V30 2894 O 282.477 2.58119 3.21634 0
M  V30 2895 H 281.818 0.576061 0.330227 0
M  V30 2896 H 284.348 2.00083 0.427547 0
M  V30 2897 H 284.358 3.15829 2.58294 0
M  V30 2898 H 283.033 3.8217 1.64071 0
M  V30 2899 H 281.61 2.42864 2.82969 0
M  V30 2900 N 283.795 -0.628877 1.44509 0
M  V30 2901 C 284.705 -1.7694 1.54044 0
M  V30 2902 C 285.721 -1.68705 0.425987 0
M  V30 2903 O 286.897 -1.89442 0.683656 0
M  V30 2904 C 283.962 -3.13332 1.48405 0
M  V30 2905 C 283.023 -3.33181 2.70719 0
M  V30 2906 C 282.256 -4.63067 2.6534 0
M  V30 2907 O 282.479 -5.44017 1.71469 0
M  V30 2908 O 281.413 -4.85167 3.56226 0
M  V30 2909 H 285.239 -1.71848 2.50403 0
M  V30 2910 H 282.824 -0.790378 1.26781 0
M  V30 2911 H 284.706 -3.94634 1.47791 0
M  V30 2912 H 283.381 -3.1896 0.551898 0
M  V30 2913 H 282.288 -2.51549 2.769 0
M  V30 2914 H 283.621 -3.32416 3.62988 0
M  V30 2915 N 285.273 -1.31445 -0.869486 0
M  V30 2916 C 286.236 -1.19094 -1.9583 0
M  V30 2917 C 287.236 -0.117906 -1.60367 0
M  V30 2918 O 288.426 -0.367208 -1.70286 0
M  V30 2919 C 285.558 -0.828165 -3.30688 0
M  V30 2920 H 286.751 -2.15842 -2.08212 0
M  V30 2921 H 284.304 -1.15063 -1.05784 0
M  V30 2922 H 285.039 0.138142 -3.24006 0
M  V30 2923 H 284.824 -1.6038 -3.578 0
M  V30 2924 H 286.314 -0.765658 -4.10521 0
M  V30 2925 N 286.751 1.08385 -1.14413 0
M  V30 2926 C 287.998 1.80776 -0.912482 0
M  V30 2927 C 288.326 1.86236 0.560934 0
M  V30 2928 O 287.581 1.33431 1.43159 0
M  V30 2929 C 287.88 3.26273 -1.45879 0
M  V30 2930 C 287.546 3.4093 -2.95089 0
M  V30 2931 C 286.208 3.44638 -3.35824 0
M  V30 2932 C 288.56 3.44591 -3.91033 0
M  V30 2933 C 285.888 3.49597 -4.71167 0
M  V30 2934 C 288.24 3.51086 -5.26233 0
M  V30 2935 C 286.904 3.53067 -5.6648 0
M  V30 2936 H 286.174 0.661507 -0.333901 0
M  V30 2937 H 288.821 1.27613 -1.42784 0
M  V30 2938 H 287.126 3.82146 -0.864376 0
M  V30 2939 H 288.823 3.80839 -1.2555 0
M  V30 2940 H 285.413 3.38736 -2.62594 0
M  V30 2941 H 289.597 3.40957 -3.60641 0
M  V30 2942 H 284.853 3.49424 -5.0171 0
M  V30 2943 H 289.027 3.52864 -6.00383 0
M  V30 2944 H 286.654 3.56662 -6.71339 0
M  V30 2945 N 288.23 0.939286 1.26551 0
M  V30 2946 C 289.641 0.628782 1.75793 0
M  V30 2947 C 289.992 -0.856046 1.7654 0
M  V30 2948 O 289.117 -1.66994 1.3763 0
M  V30 2949 C 289.712 1.13465 3.19235 0
M  V30 2950 C 288.271 0.874601 3.66098 0
M  V30 2951 C 287.418 1.28667 2.45642 0
M  V30 2952 H 290.369 1.1178 1.12654 0
M  V30 2953 H 290.39 0.487609 3.77363 0
M  V30 2954 H 289.902 2.21535 3.1866 0
M  V30 2955 H 288.003 -0.191793 3.72106 0
M  V30 2956 H 288.116 1.50028 4.55004 0
M  V30 2957 H 286.48 0.705109 2.44745 0
M  V30 2958 H 287.263 2.37625 2.47769 0
M  V30 2959 N 289.708 -1.40897 0.706093 0
M  V30 2960 C 290.933 -2.05895 0.249435 0
M  V30 2961 C 291.358 -1.52823 -1.09666 0
M  V30 2962 O 290.716 -0.659589 -1.68876 0
M  V30 2963 C 290.764 -3.59872 0.22904 0
M  V30 2964 O 289.868 -4.04708 -0.792784 0
M  V30 2965 H 289.209 -0.653206 0.119241 0
M  V30 2966 H 291.739 -1.80471 0.96391 0
M  V30 2967 H 291.749 -4.07951 0.0634791 0
M  V30 2968 H 290.424 -3.97866 1.21141 0
M  V30 2969 H 289.001 -3.68111 -0.59572 0
M  V30 2970 N 291.186 -0.45159 -1.50991 0
M  V30 2971 C 292.602 -0.104647 -1.59257 0
M  V30 2972 C 292.802 1.38728 -1.4614 0
M  V30 2973 O 291.858 2.15866 -1.30989 0
M  V30 2974 C 293.171 -0.637468 -2.93865 0
M  V30 2975 C 294.719 -0.599166 -3.07212 0
M  V30 2976 C 295.194 -1.1092 -4.44366 0
M  V30 2977 N 296.685 -1.06778 -4.50725 0
M  V30 2978 C 297.42 -1.43314 -5.55201 0
M  V30 2979 N 296.916 -1.87204 -6.67028 0
M  V30 2980 N 298.709 -1.3504 -5.45638 0
M  V30 2981 H 290.86 -1.42214 -1.57762 0
M  V30 2982 H 293.123 -0.586921 -0.744465 0
M  V30 2983 H 292.829 -1.68187 -3.08879 0
M  V30 2984 H 292.703 -0.0702139 -3.77135 0
M  V30 2985 H 295.09 0.436277 -2.91857 0
M  V30 2986 H 295.171 -1.20299 -2.25747 0
M  V30 2987 H 294.815 -2.14318 -4.60467 0
M  V30 2988 H 294.745 -0.481773 -5.24392 0
M  V30 2989 H 297.236 -0.745643 -3.70471 0
M  V30 2990 H 297.549 -2.13282 -7.42786 0
M  V30 2991 H 295.894 -1.91142 -6.68199 0
M  V30 2992 H 299.085 -1.00607 -4.57161 0
M  V30 2993 H 299.258 -1.63841 -6.26945 0
M  V30 2994 N 292.664 1.56529 -0.183458 0
M  V30 2995 C 293.627 2.17324 0.728223 0
M  V30 2996 C 294.627 1.12453 1.14939 0
M  V30 2997 O 295.817 1.37902 1.06437 0
M  V30 2998 C 292.949 2.76591 1.99274 0
M  V30 2999 H 294.142 2.99241 0.198772 0
M  V30 3000 H 291.695 1.5616 0.0661391 0
M  V30 3001 H 292.43 1.98441 2.56499 0
M  V30 3002 H 292.215 3.5335 1.69959 0
M  V30 3003 H 293.705 3.23311 2.6431 0
M  V30 3004 N 294.142 -0.090211 1.57342 0
M  V30 3005 C 295.072 -1.10976 2.05443 0
M  V30 3006 C 296.053 -1.41482 0.944284 0
M  V30 3007 O 297.238 -1.51428 1.21586 0
M  V30 3008 C 294.368 -2.42831 2.48295 0
M  V30 3009 C 293.322 -2.26721 3.63018 0
M  V30 3010 C 292.648 -3.63796 3.91863 0
M  V30 3011 C 293.948 -1.7037 4.93732 0
M  V30 3012 H 295.642 -0.709564 2.9087 0
M  V30 3013 H 293.188 -0.339874 1.39932 0
M  V30 3014 H 295.141 -3.14431 2.80555 0
M  V30 3015 H 293.865 -2.84795 1.59873 0
M  V30 3016 H 292.524 -1.57565 3.31012 0
M  V30 3017 H 292.172 -4.03297 3.00601 0
M  V30 3018 H 291.872 -3.53861 4.69101 0
M  V30 3019 H 293.396 -4.36855 4.26603 0
M  V30 3020 H 294.81 -2.31816 5.24342 0
M  V30 3021 H 293.207 -1.71181 5.75167 0
M  V30 3022 H 294.277 -0.663542 4.80339 0
M  V30 3023 N 295.62 -1.53406 -0.361157 0
M  V30 3024 C 296.53 -1.83122 -1.4664 0
M  V30 3025 C 297.546 -0.719943 -1.58407 0
M  V30 3026 O 298.722 -1.01046 -1.74218 0
M  V30 3027 C 295.787 -2.01891 -2.81853 0
M  V30 3028 C 294.848 -3.25784 -2.79577 0
M  V30 3029 C 294.081 -3.43648 -4.0834 0
M  V30 3030 O 294.304 -2.65714 -5.0473 0
M  V30 3031 O 293.238 -4.37018 -4.13883 0
M  V30 3032 H 297.064 -2.7703 -1.24451 0
M  V30 3033 H 294.649 -1.38841 -0.551678 0
M  V30 3034 H 296.531 -2.15782 -3.61962 0
M  V30 3035 H 295.206 -1.11173 -3.0401 0
M  V30 3036 H 294.113 -3.17312 -1.98151 0
M  V30 3037 H 295.446 -4.16439 -2.62373 0
M  V30 3038 N 297.098 0.621204 -1.44841 0
M  V30 3039 C 298.514 0.94048 -1.28946 0
M  V30 3040 C 298.714 2.00154 -0.23249 0
M  V30 3041 O 297.77 2.49651 0.378237 0
M  V30 3042 C 299.083 1.39433 -2.66419 0
M  V30 3043 C 300.631 1.50927 -2.74208 0
M  V30 3044 C 301.106 1.99692 -4.12174 0
M  V30 3045 N 302.597 2.06947 -4.144 0
M  V30 3046 C 303.332 2.45871 -5.1801 0
M  V30 3047 N 302.828 2.83862 -6.31977 0
M  V30 3048 N 304.621 2.46092 -5.05366 0
M  V30 3049 H 296.772 -0.0803548 -2.12248 0
M  V30 3050 H 299.035 0.0266913 -0.947624 0
M  V30 3051 H 298.741 0.688925 -3.44887 0
M  V30 3052 H 298.615 2.36347 -2.93973 0
M  V30 3053 H 301.002 2.20561 -1.96053 0
M  V30 3054 H 301.083 0.523627 -2.50383 0
M  V30 3055 H 300.727 1.30649 -4.90809 0
M  V30 3056 H 300.657 2.99146 -4.33381 0
M  V30 3057 H 303.148 1.80232 -3.32152 0
M  V30 3058 H 303.461 3.12405 -7.0684 0
M  V30 3059 H 301.806 2.8159 -6.35399 0
M  V30 3060 H 304.997 2.1581 -4.15384 0
M  V30 3061 H 305.17 2.76102 -5.86235 0
M  V30 3062 N 298.576 1.31904 0.862503 0
M  V30 3063 C 299.539 1.20131 1.95195 0
M  V30 3064 C 300.539 0.126409 1.60302 0
M  V30 3065 O 301.729 0.376234 1.70089 0
M  V30 3066 C 298.861 0.845691 3.30244 0
M  V30 3067 H 300.054 2.16943 2.07064 0
M  V30 3068 H 297.607 1.15622 1.05172 0
M  V30 3069 H 298.342 -0.120957 3.24074 0
M  V30 3070 H 298.127 1.62276 3.56944 0
M  V30 3071 H 299.617 0.787418 4.10109 0
M  V30 3072 N 300.054 -1.07777 1.14986 0
M  V30 3073 C 301.301 -1.8029 0.922056 0
M  V30 3074 C 301.629 -1.86531 -0.55105 0
M  V30 3075 O 300.884 -1.34189 -1.42449 0
M  V30 3076 C 301.183 -3.25495 1.47608 0
M  V30 3077 C 300.849 -3.39361 2.96893 0
M  V30 3078 C 299.511 -3.42852 3.37647 0
M  V30 3079 C 301.863 -3.42512 3.92854 0
M  V30 3080 C 299.191 -3.47094 4.73015 0
M  V30 3081 C 301.543 -3.4829 5.28088 0
M  V30 3082 C 300.207 -3.50058 5.68345 0
M  V30 3083 H 299.477 -0.659727 0.337404 0
M  V30 3084 H 302.124 -1.26854 1.43459 0
M  V30 3085 H 300.429 -3.81683 0.88463 0
M  V30 3086 H 302.126 -3.80168 1.27568 0
M  V30 3087 H 298.716 -3.37339 2.64387 0
M  V30 3088 H 302.9 -3.3904 3.62444 0
M  V30 3089 H 298.156 -3.46758 5.03556 0
M  V30 3090 H 302.33 -3.49675 6.02246 0
M  V30 3091 H 299.957 -3.53097 6.73221 0
M  V30 3092 N 301.532 -0.945985 -1.26051 0
M  V30 3093 C 302.495 -0.463897 -2.24456 0
M  V30 3094 C 303.495 0.427655 -1.55009 0
M  V30 3095 O 304.685 0.226157 -1.72726 0
M  V30 3096 C 301.817 0.330812 -3.39291 0
M  V30 3097 H 303.01 -1.33357 -2.68619 0
M  V30 3098 H 300.563 -0.728416 -1.38289 0
M  V30 3099 H 301.298 1.21852 -3.00537 0
M  V30 3100 H 301.083 -0.308679 -3.90883 0
M  V30 3101 H 302.573 0.657865 -4.12386 0
M  V30 3102 N 303.011 1.40521 -0.713556 0
M  V30 3103 C 303.941 2.33381 -0.0743864 0
M  V30 3104 C 304.922 1.52784 0.747735 0
M  V30 3105 O 306.107 1.81258 0.697071 0
M  V30 3106 C 303.237 3.36748 0.849598 0
M  V30 3107 C 302.191 4.27793 0.133247 0
M  V30 3108 C 301.517 5.21679 1.17281 0
M  V30 3109 C 302.817 5.12415 -1.01134 0
M  V30 3110 H 304.511 2.87081 -0.850007 0
M  V30 3111 H 302.057 1.38034 -0.410201 0
M  V30 3112 H 304.01 4.00648 1.30612 0
M  V30 3113 H 302.734 2.81439 1.65709 0
M  V30 3114 H 301.393 3.65342 -0.303426 0
M  V30 3115 H 301.041 4.62677 1.9733 0
M  V30 3116 H 300.741 5.83435 0.698397 0
M  V30 3117 H 302.265 5.88456 1.62947 0
M  V30 3118 H 303.679 5.69781 -0.634274 0
M  V30 3119 H 302.076 5.83203 -1.41399 0
M  V30 3120 H 303.146 4.48514 -1.84292 0
M  V30 3121 N 304.489 0.459591 1.5075 0
M  V30 3122 C 305.719 -0.0972338 2.06371 0
M  V30 3123 C 306.127 -1.35074 1.32483 0
M  V30 3124 O 305.47 -1.79637 0.384226 0
M  V30 3125 C 305.532 -0.462759 3.56509 0
M  V30 3126 C 305.196 0.687084 4.51805 0
M  V30 3127 C 306.193 1.56578 4.95761 0
M  V30 3128 C 303.878 0.874144 4.94635 0
M  V30 3129 C 305.872 2.61604 5.81242 0
M  V30 3130 C 303.559 1.92765 5.79901 0
M  V30 3131 C 304.557 2.79697 6.23104 0
M  V30 3132 O 304.245 3.83235 7.06673 0
M  V30 3133 H 303.977 -0.00140687 0.675999 0
M  V30 3134 H 306.531 0.644011 1.95043 0
M  V30 3135 H 304.761 -1.25703 3.65699 0
M  V30 3136 H 306.45 -0.953323 3.94546 0
M  V30 3137 H 307.216 1.4329 4.6335 0
M  V30 3138 H 303.095 0.207006 4.60535 0
M  V30 3139 H 306.639 3.29489 6.14884 0
M  V30 3140 H 302.536 2.06064 6.11725 0
M  V30 3141 H 303.304 3.80084 7.24899 0
M  V30 3142 N 305.967 -1.56429 0.191757 0
M  V30 3143 C 306.915 -2.20273 -0.747174 0
M  V30 3144 C 307.909 -1.17288 -1.22229 0
M  V30 3145 O 309.115 -1.35441 -1.18557 0
M  V30 3146 H 305.49 -0.705885 -0.259289 0
M  V30 3147 H 307.461 -2.97826 -0.184963 0
M  V30 3148 C 306.21 -2.87356 -1.95759 0
M  V30 3149 H 305.533 -3.66341 -1.60106 0
M  V30 3150 H 306.973 -3.3547 -2.59299 0
M  V30 3151 C 305.432 -1.88213 -2.79423 0
M  V30 3152 O 305.962 -1.38033 -3.7724 0
M  V30 3153 N 304.168 -1.56516 -2.44849 0
M  V30 3154 H 303.715 -1.97516 -1.65364 0
M  V30 3155 H 303.673 -0.904369 -3.01112 0
M  V30 3156 N 307.445 0.0818655 -1.57387 0
M  V30 3157 C 308.375 1.09885 -2.06028 0
M  V30 3158 C 309.356 1.4098 -0.951774 0
M  V30 3159 O 310.541 1.50781 -1.22387 0
M  V30 3160 C 307.671 2.4151 -2.4958 0
M  V30 3161 C 306.625 2.24792 -3.64215 0
M  V30 3162 C 305.951 3.61712 -3.93787 0
M  V30 3163 C 307.251 1.67749 -4.94629 0
M  V30 3164 H 308.945 0.694128 -2.91243 0
M  V30 3165 H 306.491 0.332448 -1.4011 0
M  V30 3166 H 308.444 3.12939 -2.82219 0
M  V30 3167 H 307.168 2.83943 -1.61381 0
M  V30 3168 H 305.827 1.55807 -3.31843 0
M  V30 3169 H 305.475 4.01697 -3.02735 0
M  V30 3170 H 305.175 3.51368 -4.70971 0
M  V30 3171 H 306.699 4.34587 -4.28913 0
M  V30 3172 H 308.113 2.29032 -5.25564 0
M  V30 3173 H 306.51 1.68128 -5.76067 0
M  V30 3174 H 307.58 0.638059 -4.80684 0
M  V30 3175 N 308.923 1.53595 0.353017 0
M  V30 3176 C 309.853 1.83902 1.43883 0
M  V30 3177 C 310.834 0.693421 1.55324 0
M  V30 3178 O 312.019 0.944452 1.69687 0
M  V30 3179 C 309.149 2.04016 2.8106 0
M  V30 3180 C 308.103 3.19814 2.84434 0
M  V30 3181 C 307.429 3.25244 4.24406 0
M  V30 3182 C 308.729 4.58133 2.50822 0
M  V30 3183 H 310.423 2.74835 1.1877 0
M  V30 3184 H 307.969 1.32242 0.569917 0
M  V30 3185 H 309.922 2.238 3.57059 0
M  V30 3186 H 308.646 1.09804 3.07588 0
M  V30 3187 H 307.305 2.9987 2.10887 0
M  V30 3188 H 306.953 2.28646 4.48029 0
M  V30 3189 H 306.653 4.03054 4.27576 0
M  V30 3190 H 308.177 3.47228 5.0226 0
M  V30 3191 H 309.591 4.77995 3.16534 0
M  V30 3192 H 307.988 5.38276 2.6529 0
M  V30 3193 H 309.058 4.62387 1.46034 0
M  V30 3194 N 310.401 -0.613514 1.45168 0
M  V30 3195 C 311.364 -1.7065 1.53007 0
M  V30 3196 C 312.364 -1.5548 0.410184 0
M  V30 3197 O 313.554 -1.60656 0.673455 0
M  V30 3198 C 310.686 -3.09875 1.42093 0
M  V30 3199 H 311.879 -1.65068 2.50385 0
M  V30 3200 H 309.432 -0.828728 1.32521 0
M  V30 3201 H 310.167 -3.21039 0.458769 0
M  V30 3202 H 309.952 -3.22293 2.23315 0
M  V30 3203 H 311.442 -3.895 1.50598 0
M  V30 3204 N 311.879 -1.3236 -0.855495 0
M  V30 3205 C 312.809 -1.23833 -1.97958 0
M  V30 3206 C 313.79 -0.122361 -1.69659 0
M  V30 3207 O 314.975 -0.30939 -1.9172 0
M  V30 3208 C 312.105 -0.959772 -3.33775 0
M  V30 3209 C 311.059 -2.03689 -3.76424 0
M  V30 3210 C 310.385 -1.61075 -5.09862 0
M  V30 3211 C 311.685 -3.4518 -3.9198 0
M  V30 3212 H 313.379 -2.1788 -2.0535 0
M  V30 3213 H 310.925 -1.04891 -0.986605 0
M  V30 3214 H 312.878 -0.886678 -4.11966 0
M  V30 3215 H 311.602 0.0163404 -3.26596 0
M  V30 3216 H 310.261 -2.10012 -3.00484 0
M  V30 3217 H 309.909 -0.622107 -4.99138 0
M  V30 3218 H 309.609 -2.33143 -5.39368 0
M  V30 3219 H 311.133 -1.55201 -5.90546 0
M  V30 3220 H 312.547 -3.4145 -4.60526 0
M  V30 3221 H 310.944 -4.1559 -4.32903 0
M  V30 3222 H 312.014 -3.84903 -2.94919 0
M  V30 3223 N 313.357 1.07166 -1.15556 0
M  V30 3224 C 314.587 1.83248 -0.954133 0
M  V30 3225 C 314.995 1.82449 0.500911 0
M  V30 3226 O 314.338 1.23575 1.35923 0
M  V30 3227 C 314.4 3.31393 -1.39351 0
M  V30 3228 C 314.064 3.5591 -2.86666 0
M  V30 3229 C 315.061 3.49695 -3.8472 0
M  V30 3230 C 312.746 3.83515 -3.24379 0
M  V30 3231 C 314.74 3.70737 -5.18491 0
M  V30 3232 C 312.427 4.04209 -4.58321 0
M  V30 3233 C 313.425 3.97815 -5.55186 0
M  V30 3234 O 313.113 4.17954 -6.86709 0
M  V30 3235 H 312.845 0.584941 -0.338851 0
M  V30 3236 H 315.399 1.36169 -1.53777 0
M  V30 3237 H 313.629 3.79292 -0.75329 0
M  V30 3238 H 315.318 3.88945 -1.16089 0
M  V30 3239 H 316.084 3.28368 -3.56931 0
M  V30 3240 H 311.963 3.87605 -2.49567 0
M  V30 3241 H 315.507 3.65663 -5.94085 0
M  V30 3242 H 311.404 4.25023 -4.85825 0
M  V30 3243 H 312.172 4.35291 -6.93155 0
M  V30 3244 N 314.835 0.952656 1.25548 0
M  V30 3245 C 315.765 0.489287 2.28316 0
M  V30 3246 C 316.746 -0.463359 1.63667 0
M  V30 3247 O 317.931 -0.36274 1.90782 0
M  V30 3248 C 315.061 -0.235603 3.465 0
M  V30 3249 C 314.015 0.631593 4.23314 0
M  V30 3250 C 313.341 -0.223923 5.34231 0
M  V30 3251 C 314.641 1.90871 4.86174 0
M  V30 3252 H 316.335 1.34822 2.67326 0
M  V30 3253 H 313.881 0.649728 1.28509 0
M  V30 3254 H 315.834 -0.570882 4.17515 0
M  V30 3255 H 314.558 -1.12877 3.06474 0
M  V30 3256 H 313.217 0.949929 3.54079 0
M  V30 3257 H 312.865 -1.11678 4.90446 0
M  V30 3258 H 312.565 0.35299 5.86539 0
M  V30 3259 H 314.089 -0.554214 6.0808 0
M  V30 3260 H 315.503 1.63997 5.49343 0
M  V30 3261 H 313.9 2.43112 5.4865 0
M  V30 3262 H 314.97 2.61304 4.08471 0
M  V30 3263 N 316.313 -1.40141 0.720998 0
M  V30 3264 C 317.243 -2.33339 0.0867621 0
M  V30 3265 C 318.224 -1.53178 -0.739622 0
M  V30 3266 O 319.409 -1.81625 -0.687449 0
M  V30 3267 C 316.539 -3.37194 -0.831728 0
M  V30 3268 C 315.493 -4.27857 -0.110558 0
M  V30 3269 C 314.819 -5.22294 -1.14513 0
M  V30 3270 C 316.119 -5.11872 1.0385 0
M  V30 3271 H 317.813 -2.86626 0.865219 0
M  V30 3272 H 315.359 -1.37814 0.417516 0
M  V30 3273 H 317.312 -4.01335 -1.28485 0
M  V30 3274 H 316.036 -2.82314 -1.64214 0
M  V30 3275 H 314.695 -3.65176 0.322797 0
M  V30 3276 H 314.343 -4.63717 -1.94874 0
M  V30 3277 H 314.043 -5.83797 -0.667446 0
M  V30 3278 H 315.567 -5.89312 -1.59824 0
M  V30 3279 H 316.981 -5.69436 0.664482 0
M  V30 3280 H 315.378 -5.82445 1.4449 0
M  V30 3281 H 316.448 -4.4753 1.86668 0
M  V30 3282 N 317.792 -0.46758 -1.50504 0
M  V30 3283 C 319.203 -0.0116166 -1.86696 0
M  V30 3284 C 319.554 1.39202 -1.38265 0
M  V30 3285 O 318.679 2.0313 -0.746132 0
M  V30 3286 C 319.274 -0.0143044 -3.38797 0
M  V30 3287 C 317.833 0.386175 -3.74414 0
M  V30 3288 C 316.98 -0.401287 -2.74381 0
M  V30 3289 H 319.931 -0.682022 -1.43297 0
M  V30 3290 H 319.952 0.788641 -3.72237 0
M  V30 3291 H 319.464 -1.03602 -3.74016 0
M  V30 3292 H 317.565 1.41237 -3.44794 0
M  V30 3293 H 317.678 0.0899596 -4.79016 0
M  V30 3294 H 316.042 0.144536 -2.5429 0
M  V30 3295 H 316.825 -1.42244 -3.12444 0
M  V30 3296 N 319.27 1.56325 -0.20005 0
M  V30 3297 C 320.2 2.22318 0.713916 0
M  V30 3298 C 321.181 1.18788 1.21752 0
M  V30 3299 O 322.366 1.47309 1.26545 0
M  V30 3300 C 319.496 2.88639 1.93144 0
M  V30 3301 C 318.45 3.98457 1.56255 0
M  V30 3302 C 317.776 4.51967 2.85709 0
M  V30 3303 C 319.076 5.16612 0.768747 0
M  V30 3304 H 320.77 2.98952 0.163755 0
M  V30 3305 H 318.316 1.43792 0.0773219 0
M  V30 3306 H 320.269 3.33491 2.57608 0
M  V30 3307 H 318.993 2.09419 2.50621 0
M  V30 3308 H 317.652 3.54305 0.941471 0
M  V30 3309 H 317.3 3.69503 3.41287 0
M  V30 3310 H 317 5.26071 2.6177 0
M  V30 3311 H 318.524 4.99523 3.51154 0
M  V30 3312 H 319.938 5.57977 1.3166 0
M  V30 3313 H 318.335 5.96812 0.627286 0
M  V30 3314 H 319.405 4.84358 -0.229168 0
M  V30 3315 N 320.748 -0.0735177 1.57428 0
M  V30 3316 C 321.678 -1.0879 2.06608 0
M  V30 3317 C 322.659 -1.40473 0.959237 0
M  V30 3318 O 323.844 -1.5013 1.23185 0
M  V30 3319 C 320.974 -2.40183 2.50857 0
M  V30 3320 C 319.928 -2.22858 3.65402 0
M  V30 3321 C 319.254 -3.59619 3.957 0
M  V30 3322 C 320.554 -1.65123 4.95511 0
M  V30 3323 H 322.248 -0.678673 2.91607 0
M  V30 3324 H 319.794 -0.325013 1.40284 0
M  V30 3325 H 321.747 -3.11437 2.83874 0
M  V30 3326 H 320.471 -2.83083 1.62885 0
M  V30 3327 H 319.13 -1.54045 3.32664 0
M  V30 3328 H 318.778 -4.00086 3.04861 0
M  V30 3329 H 318.478 -3.48866 4.72828 0
M  V30 3330 H 320.002 -4.32306 4.31212 0
M  V30 3331 H 321.416 -2.26241 5.26771 0
M  V30 3332 H 319.813 -1.65071 5.7695 0
M  V30 3333 H 320.883 -0.612559 4.81015 0
M  V30 3334 N 322.226 -1.5378 -0.344866 0
M  V30 3335 C 323.189 -1.80981 -1.40637 0
M  V30 3336 C 324.189 -0.680816 -1.45676 0
M  V30 3337 O 325.379 -0.949095 -1.46075 0
M  V30 3338 C 322.511 -1.95063 -2.79577 0
M  V30 3339 H 323.704 -2.75803 -1.17783 0
M  V30 3340 H 321.257 -1.45173 -0.579181 0
M  V30 3341 H 321.992 -1.02379 -3.07716 0
M  V30 3342 H 321.777 -2.77198 -2.77315 0
M  V30 3343 H 323.267 -2.17629 -3.56409 0
M  V30 3344 N 323.704 0.605807 -1.45491 0
M  V30 3345 C 324.932 1.39136 -1.5313 0
M  V30 3346 C 325.347 1.88082 -0.164507 0
M  V30 3347 O 324.704 1.62316 0.834247 0
M  V30 3348 C 324.755 2.59463 -2.51716 0
M  V30 3349 O 324.476 2.12551 -3.83084 0
M  V30 3350 C 325.977 3.52301 -2.6907 0
M  V30 3351 H 323.197 0.425849 -0.51855 0
M  V30 3352 H 325.741 0.73865 -1.90694 0
M  V30 3353 H 323.896 3.20772 -2.17219 0
M  V30 3354 H 324.31 2.90744 -4.36541 0
M  V30 3355 H 325.784 4.33271 -3.42024 0
M  V30 3356 H 326.261 4.02757 -1.75167 0
M  V30 3357 H 326.867 2.96845 -3.04571 0
M  V30 3358 N 325.182 1.32811 0.848464 0
M  V30 3359 C 326.422 1.25046 1.61687 0
M  V30 3360 C 326.786 -0.183464 1.91121 0
M  V30 3361 O 327.987 -0.384937 2.66029 0
M  V30 3362 C 326.258 2.09201 2.89775 0
M  V30 3363 S 327.817 2.18526 3.80515 0
M  V30 3364 H 324.635 0.445023 0.554505 0
M  V30 3365 H 327.237 1.67733 1.00429 0
M  V30 3366 H 325.941 3.12433 2.66108 0
M  V30 3367 H 325.472 1.67315 3.56047 0
M  V30 3368 H 327.487 1.3393 4.77784 0
M  V30 3369 N 326.66 -1.06551 1.16123 0
M  V30 3370 C 327.623 -2.12132 0.867906 0
M  V30 3371 C 328.623 -1.60224 -0.135944 0
M  V30 3372 O 329.813 -1.73943 0.0946422 0
M  V30 3373 C 326.945 -3.396 0.297419 0
M  V30 3374 H 328.138 -2.39586 1.80385 0
M  V30 3375 H 325.691 -1.22574 0.969812 0
M  V30 3376 H 326.426 -3.17794 -0.64633 0
M  V30 3377 H 326.211 -3.78581 1.02073 0
M  V30 3378 H 327.701 -4.17455 0.110052 0
M  V30 3379 N 328.138 -0.959301 -1.25041 0
M  V30 3380 C 329.378 -0.624343 -1.94631 0
M  V30 3381 C 329.742 0.82403 -1.73418 0
M  V30 3382 O 330.943 1.26881 -2.3697 0
M  V30 3383 C 329.214 -0.978805 -3.43736 0
M  V30 3384 S 330.773 -0.757127 -4.32219 0
M  V30 3385 H 327.591 -0.229327 -0.673001 0
M  V30 3386 H 330.193 -1.23447 -1.51595 0
M  V30 3387 H 328.897 -2.02997 -3.56679 0
M  V30 3388 H 328.428 -0.359117 -3.91757 0
M  V30 3389 H 330.443 0.369759 -4.9482 0
M  V30 3390 N 329.616 1.39756 -0.72842 0
M  V30 3391 C 330.846 2.04651 -0.283117 0
M  V30 3392 C 331.254 1.5502 1.08469 0
M  V30 3393 O 330.597 0.707343 1.69536 0
M  V30 3394 C 330.659 3.58947 -0.199309 0
M  V30 3395 C 330.323 4.31525 -1.5045 0
M  V30 3396 C 331.32 4.5861 -2.44894 0
M  V30 3397 C 329.005 4.70195 -1.76698 0
M  V30 3398 C 330.999 5.23366 -3.63822 0
M  V30 3399 C 328.686 5.3468 -2.95906 0
M  V30 3400 C 329.684 5.61198 -3.89289 0
M  V30 3401 O 329.372 6.24347 -5.06404 0
M  V30 3402 H 329.104 0.664777 -0.122666 0
M  V30 3403 H 331.658 1.79913 -0.990987 0
M  V30 3404 H 329.888 3.82556 0.56461 0
M  V30 3405 H 331.577 4.0534 0.213125 0
M  V30 3406 H 332.343 4.29187 -2.25883 0
M  V30 3407 H 328.222 4.48916 -1.04859 0
M  V30 3408 H 331.766 5.4398 -4.36728 0
M  V30 3409 H 327.663 5.63524 -3.14819 0
M  V30 3410 H 328.431 6.42842 -5.06652 0
M  V30 3411 N 331.094 0.475555 1.50254 0
M  V30 3412 C 332.057 -0.305016 2.27161 0
M  V30 3413 C 333.057 -0.916519 1.32123 0
M  V30 3414 O 334.247 -0.785003 1.5551 0
M  V30 3415 C 331.379 -1.43496 3.09227 0
M  V30 3416 H 332.572 0.369511 2.97615 0
M  V30 3417 H 330.125 0.229747 1.54602 0
M  V30 3418 H 330.86 -2.14441 2.43281 0
M  V30 3419 H 330.645 -1.00223 3.79075 0
M  V30 3420 H 332.135 -1.98548 3.67381 0
M  V30 3421 N 332.573 -1.56217 0.208337 0
M  V30 3422 C 333.536 -2.18455 -0.693557 0
M  V30 3423 C 334.536 -1.14268 -1.13135 0
M  V30 3424 O 335.726 -1.39577 -1.0423 0
M  V30 3425 C 332.858 -2.79727 -1.94848 0
M  V30 3426 H 334.051 -2.99519 -0.15114 0
M  V30 3427 H 331.604 -1.56245 -0.041287 0
M  V30 3428 H 332.339 -2.02497 -2.53309 0
M  V30 3429 H 332.124 -3.56009 -1.64316 0
M  V30 3430 H 333.614 -3.27475 -2.59133 0
M  V30 3431 N 334.051 0.0651679 -1.57465 0
M  V30 3432 C 334.984 1.10876 -1.99453 0
M  V30 3433 C 335.962 1.37205 -0.872555 0
M  V30 3434 O 337.146 1.50468 -1.13542 0
M  V30 3435 C 334.273 2.45167 -2.3369 0
M  V30 3436 C 333.319 2.3493 -3.55964 0
M  V30 3437 S 334.152 1.73708 -5.06543 0
M  V30 3438 C 335.308 3.09563 -5.43987 0
M  V30 3439 H 335.541 0.750967 -2.87659 0
M  V30 3440 H 333.074 0.273933 -1.51951 0
M  V30 3441 H 335.032 3.22412 -2.54088 0
M  V30 3442 H 333.693 2.78105 -1.46001 0
M  V30 3443 H 332.886 3.3398 -3.77457 0
M  V30 3444 H 332.488 1.65823 -3.3523 0
M  V30 3445 H 334.78 4.05882 -5.42463 0
M  V30 3446 H 335.723 2.92843 -6.44708 0
M  V30 3447 H 336.131 3.10474 -4.71451 0
M  V30 3448 N 335.529 1.53961 0.336706 0
M  V30 3449 C 336.459 1.85417 1.41925 0
M  V30 3450 C 337.44 0.709856 1.5458 0
M  V30 3451 O 338.625 0.962396 1.68676 0
M  V30 3452 C 335.755 2.06985 2.78881 0
M  V30 3453 C 334.709 3.22813 2.81026 0
M  V30 3454 C 334.035 3.29727 4.20932 0
M  V30 3455 C 335.335 4.60767 2.45949 0
M  V30 3456 H 337.029 2.76079 1.15848 0
M  V30 3457 H 334.575 1.32839 0.555859 0
M  V30 3458 H 336.528 2.27575 3.54665 0
M  V30 3459 H 335.252 1.13061 3.06406 0
M  V30 3460 H 333.911 3.0209 2.07695 0
M  V30 3461 H 333.559 2.33385 4.45579 0
M  V30 3462 H 333.259 4.07566 4.23277 0
M  V30 3463 H 334.783 3.52536 4.98549 0
M  V30 3464 H 336.197 4.81325 3.11446 0
M  V30 3465 H 334.594 5.4106 2.59566 0
M  V30 3466 H 335.664 4.6391 1.41122 0
M  V30 3467 N 337.007 -0.598083 1.45811 0
M  V30 3468 C 338.423 -0.919847 1.30426 0
M  V30 3469 C 338.623 -1.99759 0.264303 0
M  V30 3470 O 337.679 -2.50221 -0.338472 0
M  V30 3471 C 338.992 -1.35176 2.68603 0
M  V30 3472 C 340.54 -1.46546 2.76574 0
M  V30 3473 C 341.015 -1.9311 4.15298 0
M  V30 3474 N 342.506 -2.00328 4.1764 0
M  V30 3475 C 343.241 -2.37599 5.21856 0
M  V30 3476 N 342.737 -2.73771 6.36413 0
M  V30 3477 N 344.53 -2.38021 5.09218 0
M  V30 3478 H 336.681 0.114111 2.12093 0
M  V30 3479 H 338.944 -0.0116121 0.947929 0
M  V30 3480 H 338.65 -0.633969 3.45939 0
M  V30 3481 H 338.524 -2.3164 2.97696 0
M  V30 3482 H 340.911 -2.17415 1.99537 0
M  V30 3483 H 340.992 -0.483727 2.51185 0
M  V30 3484 H 340.636 -1.22824 4.92825 0
M  V30 3485 H 340.566 -2.92213 4.38086 0
M  V30 3486 H 343.057 -1.74925 3.34977 0
M  V30 3487 H 343.37 -3.0112 7.11721 0
M  V30 3488 H 341.715 -2.71445 6.39799 0
M  V30 3489 H 344.906 -2.09174 4.18765 0
M  V30 3490 H 345.079 -2.66741 5.90554 0
M  V30 3491 N 338.485 -1.33259 -0.841409 0
M  V30 3492 C 339.435 -1.19872 -1.93945 0
M  V30 3493 C 340.419 -0.102269 -1.60575 0
M  V30 3494 O 341.611 -0.330114 -1.73894 0
M  V30 3495 C 338.74 -0.937517 -3.30251 0
M  V30 3496 C 337.826 -2.07629 -3.69799 0
M  V30 3497 N 338.217 -3.32604 -3.81062 0
M  V30 3498 C 336.515 -1.98242 -3.9952 0
M  V30 3499 C 337.216 -4.07275 -4.15333 0
M  V30 3500 N 336.192 -3.35691 -4.27566 0
M  V30 3501 H 339.994 -2.14604 -2.00805 0
M  V30 3502 H 337.508 -1.2523 -1.03398 0
M  V30 3503 H 339.505 -0.822545 -4.08705 0
M  V30 3504 H 338.165 0.00128798 -3.247 0
M  V30 3505 H 339.176 -3.67382 -3.65035 0
M  V30 3506 H 335.853 -1.12005 -4.02195 0
M  V30 3507 H 337.243 -5.1511 -4.31406 0
M  V30 3508 N 339.963 1.05934 -1.16686 0
M  V30 3509 C 340.893 2.1546 -0.899949 0
M  V30 3510 C 341.874 1.69391 0.155154 0
M  V30 3511 O 343.059 1.94199 0.00648693 0
M  V30 3512 C 340.189 3.44939 -0.404241 0
M  V30 3513 C 339.143 4.04536 -1.39767 0
M  V30 3514 C 338.469 5.29268 -0.760216 0
M  V30 3515 C 339.769 4.42893 -2.76845 0
M  V30 3516 H 341.463 2.38046 -1.81588 0
M  V30 3517 H 339.009 1.14404 -0.874514 0
M  V30 3518 H 340.962 4.20901 -0.204971 0
M  V30 3519 H 339.686 3.21983 0.547206 0
M  V30 3520 H 338.345 3.30635 -1.58355 0
M  V30 3521 H 337.993 5.02611 0.197831 0
M  V30 3522 H 337.693 5.70101 -1.42332 0
M  V30 3523 H 339.217 6.07924 -0.57105 0
M  V30 3524 H 340.631 5.09921 -2.62019 0
M  V30 3525 H 339.028 4.94721 -3.39663 0
M  V30 3526 H 340.098 3.53584 -3.31823 0
M  V30 3527 N 341.441 0.965919 1.2453 0
M  V30 3528 C 342.689 0.625593 1.92174 0
M  V30 3529 C 343.01 -0.841652 1.75901 0
M  V30 3530 O 342.28 -1.60061 1.12948 0
M  V30 3531 H 340.86 0.228388 0.71123 0
M  V30 3532 H 343.522 1.2266 1.51461 0
M  V30 3533 H 342.618 0.864653 2.99884 0
M  V30 3534 N 342.919 -1.39368 0.735821 0
M  V30 3535 C 344.335 -1.54204 0.411492 0
M  V30 3536 C 344.535 -1.70268 -1.07755 0
M  V30 3537 O 343.591 -1.70364 -1.86366 0
M  V30 3538 C 344.904 -2.75925 1.19523 0
M  V30 3539 C 346.452 -2.89761 1.18354 0
M  V30 3540 C 346.927 -4.14421 1.94986 0
M  V30 3541 N 348.418 -4.21462 1.92156 0
M  V30 3542 C 349.153 -5.16871 2.48258 0
M  V30 3543 N 348.649 -6.18063 3.13001 0
M  V30 3544 N 350.442 -5.09093 2.38287 0
M  V30 3545 H 342.593 -1.27189 1.70108 0
M  V30 3546 H 344.856 -0.616517 0.720147 0
M  V30 3547 H 344.562 -2.70401 2.24892 0
M  V30 3548 H 344.436 -3.68614 0.800222 0
M  V30 3549 H 346.823 -2.94777 0.137975 0
M  V30 3550 H 346.904 -1.98133 1.61793 0
M  V30 3551 H 346.548 -4.10166 2.99543 0
M  V30 3552 H 346.478 -5.05095 1.48953 0
M  V30 3553 H 348.969 -3.48979 1.44991 0
M  V30 3554 H 349.282 -6.87326 3.53275 0
M  V30 3555 H 347.627 -6.18448 3.17091 0
M  V30 3556 H 350.818 -4.28973 1.8735 0
M  V30 3557 H 350.991 -5.83272 2.82308 0
M  V30 3558 N 344.397 -0.483516 -1.5 0
M  V30 3559 C 345.643 0.0672592 -2.02688 0
M  V30 3560 C 345.976 1.38247 -1.36387 0
M  V30 3561 O 345.251 1.88131 -0.493675 0
M  V30 3562 C 345.534 0.238109 -3.59312 0
M  V30 3563 C 345.387 -1.099 -4.36168 0
M  V30 3564 C 346.706 0.986916 -4.28892 0
M  V30 3565 H 343.825 0.0229696 -0.736642 0
M  V30 3566 H 346.467 -0.631527 -1.79197 0
M  V30 3567 H 344.617 0.8333 -3.79458 0
M  V30 3568 H 346.289 -1.73172 -4.27562 0
M  V30 3569 H 344.532 -1.69261 -3.99416 0
M  V30 3570 H 345.203 -0.932954 -5.44059 0
M  V30 3571 H 347.679 0.482302 -4.13295 0
M  V30 3572 H 346.555 1.07527 -5.38265 0
M  V30 3573 H 346.816 2.0265 -3.92919 0
M  V30 3574 N 345.875 1.56104 -0.216619 0
M  V30 3575 C 346.838 2.18819 0.681962 0
M  V30 3576 C 347.838 1.14866 1.12528 0
M  V30 3577 O 349.028 1.40128 1.03488 0
M  V30 3578 C 346.16 2.80756 1.93362 0
M  V30 3579 H 347.353 2.99595 0.135254 0
M  V30 3580 H 344.906 1.56265 0.0330003 0
M  V30 3581 H 345.641 2.03837 2.52232 0
M  V30 3582 H 345.426 3.56876 1.62426 0
M  V30 3583 H 346.916 3.28844 2.57393 0
M  V30 3584 N 347.353 -0.0568162 1.57498 0
M  V30 3585 C 348.599 -0.75422 1.88253 0
M  V30 3586 C 348.932 -1.76461 0.810865 0
M  V30 3587 O 348.207 -1.93691 -0.177259 0
M  V30 3588 C 348.49 -1.44878 3.2967 0
M  V30 3589 C 348.343 -0.453789 4.47505 0
M  V30 3590 C 349.662 -2.38994 3.69554 0
M  V30 3591 H 346.781 -0.272724 0.684683 0
M  V30 3592 H 349.423 -0.0172113 1.89992 0
M  V30 3593 H 347.573 -2.077 3.28318 0
M  V30 3594 H 349.245 0.170371 4.60985 0
M  V30 3595 H 347.488 0.229552 4.33192 0
M  V30 3596 H 348.159 -0.977699 5.43273 0
M  V30 3597 H 350.635 -1.86239 3.72095 0
M  V30 3598 H 349.511 -2.84587 4.69363 0
M  V30 3599 H 349.772 -3.24461 3.00296 0
M  V30 3600 N 348.832 -1.54138 -0.328536 0
M  V30 3601 C 350.248 -1.44736 -0.672574 0
M  V30 3602 C 350.448 -0.616217 -1.91846 0
M  V30 3603 O 349.504 -0.113067 -2.52247 0
M  V30 3604 C 350.817 -2.884 -0.851217 0
M  V30 3605 C 352.365 -2.98271 -0.948877 0
M  V30 3606 C 352.84 -4.43074 -1.15973 0
M  V30 3607 N 354.331 -4.46665 -1.22658 0
M  V30 3608 C 355.066 -5.55857 -1.40751 0
M  V30 3609 N 354.562 -6.75026 -1.5592 0
M  V30 3610 N 356.355 -5.43495 -1.4342 0
M  V30 3611 H 348.506 -2.06661 0.490421 0
M  V30 3612 H 350.769 -0.934812 0.157579 0
M  V30 3613 H 350.475 -3.51699 -0.00704236 0
M  V30 3614 H 350.349 -3.34225 -1.74853 0
M  V30 3615 H 352.736 -2.35102 -1.78356 0
M  V30 3616 H 352.817 -2.55785 -0.0281435 0
M  V30 3617 H 352.461 -5.06827 -0.329915 0
M  V30 3618 H 352.391 -4.83165 -2.09426 0
M  V30 3619 H 354.882 -3.60797 -1.124 0
M  V30 3620 H 355.195 -7.54004 -1.69404 0
M  V30 3621 H 353.54 -6.77944 -1.53027 0
M  V30 3622 H 356.731 -4.49349 -1.31162 0
M  V30 3623 H 356.904 -6.28649 -1.57178 0
M  V30 3624 N 350.31 0.590341 -1.46126 0
M  V30 3625 C 351.721 1.17243 -1.45296 0
M  V30 3626 C 352.072 1.95281 -0.189723 0
M  V30 3627 O 351.197 2.04502 0.707674 0
M  V30 3628 C 351.792 2.13284 -2.6324 0
M  V30 3629 C 350.351 2.66832 -2.65476 0
M  V30 3630 C 349.498 1.42557 -2.3785 0
M  V30 3631 H 352.449 0.378692 -1.54116 0
M  V30 3632 H 352.47 2.96619 -2.38323 0
M  V30 3633 H 351.982 1.56459 -3.55165 0
M  V30 3634 H 350.083 3.27548 -1.77603 0
M  V30 3635 H 350.196 3.10088 -3.65215 0
M  V30 3636 H 348.56 1.72107 -1.87753 0
M  V30 3637 H 349.343 0.875741 -3.31942 0
M  V30 3638 N 351.788 1.33704 0.83433 0
M  V30 3639 C 352.751 1.24244 1.92603 0
M  V30 3640 C 353.751 0.160383 1.59998 0
M  V30 3641 O 354.941 0.412228 1.69252 0
M  V30 3642 C 352.073 0.91555 3.28376 0
M  V30 3643 H 353.266 2.21287 2.02416 0
M  V30 3644 H 350.819 1.17827 1.02696 0
M  V30 3645 H 351.554 -0.0521886 3.24258 0
M  V30 3646 H 351.339 1.69811 3.53422 0
M  V30 3647 H 352.829 0.874231 4.08347 0
M  V30 3648 N 353.266 -1.05314 1.17247 0
M  V30 3649 C 354.677 -1.59753 0.96623 0
M  V30 3650 C 355.028 -1.9005 -0.487378 0
M  V30 3651 O 354.153 -1.68126 -1.36245 0
M  V30 3652 C 354.748 -2.90249 1.74759 0
M  V30 3653 C 353.307 -3.41352 1.58606 0
M  V30 3654 C 352.454 -2.15103 1.75002 0
M  V30 3655 H 355.405 -0.881406 1.31973 0
M  V30 3656 H 355.426 -3.60097 1.22925 0
M  V30 3657 H 354.938 -2.68166 2.8055 0
M  V30 3658 H 353.039 -3.68474 0.552985 0
M  V30 3659 H 353.152 -4.16019 2.37624 0
M  V30 3660 H 351.516 -2.25804 1.17833 0
M  V30 3661 H 352.299 -1.95491 2.82202 0
M  V30 3662 N 354.744 -0.972509 -1.24016 0
M  V30 3663 C 355.707 -0.511403 -2.23422 0
M  V30 3664 C 356.707 0.394679 -1.55881 0
M  V30 3665 O 357.897 0.189469 -1.73167 0
M  V30 3666 C 355.029 0.258769 -3.39916 0
M  V30 3667 H 356.222 -1.39024 -2.6573 0
M  V30 3668 H 353.775 -0.757585 -1.36713 0
M  V30 3669 H 354.51 1.1545 -3.03054 0
M  V30 3670 H 354.295 -0.391522 -3.9014 0
M  V30 3671 H 355.785 0.570244 -4.13688 0
M  V30 3672 N 356.222 1.38976 -0.743202 0
M  V30 3673 C 357.499 1.94351 -0.220705 0
M  V30 3674 C 357.879 1.67935 1.2791 0
M  V30 3675 O 357.227 1.01211 2.04862 0
M  V30 3676 C 357.437 3.44426 -0.563171 0
M  V30 3677 C 358.785 4.2144 -0.517046 0
M  V30 3678 O 359.809 3.52661 -0.500846 0
M  V30 3679 O 358.668 5.44032 -0.518806 0
M  V30 3680 H 355.762 0.825879 -0.043047 0
M  V30 3681 H 358.308 1.48429 -0.822618 0
M  V30 3682 H 357.08 3.5712 -1.59941 0
M  V30 3683 H 356.703 3.97543 0.0672883 0
M  V30 3684 N 357.7 0.491464 1.49741 0
M  V30 3685 C 358.925 -0.0557177 2.07325 0
M  V30 3686 C 359.35 -1.30925 1.35056 0
M  V30 3687 O 358.708 -1.76733 0.404365 0
M  V30 3688 C 358.756 -0.302074 3.59333 0
M  V30 3689 O 357.86 -1.37868 3.88672 0
M  V30 3690 H 357.201 0.0219956 0.663636 0
M  V30 3691 H 359.731 0.688352 1.92673 0
M  V30 3692 H 359.741 -0.536464 4.04458 0
M  V30 3693 H 358.416 0.61383 4.11345 0
M  V30 3694 H 356.993 -1.12999 3.55367 0
M  V30 3695 N 359.178 -1.55987 0.224894 0
M  V30 3696 C 360.141 -2.19178 -0.670348 0
M  V30 3697 C 361.141 -1.15461 -1.11917 0
M  V30 3698 O 362.331 -1.40675 -1.02743 0
M  V30 3699 C 359.463 -2.81777 -1.9187 0
M  V30 3700 H 360.656 -2.99662 -0.119364 0
M  V30 3701 H 358.209 -1.5628 -0.0247128 0
M  V30 3702 H 358.944 -2.05172 -2.51147 0
M  V30 3703 H 358.729 -3.57732 -1.60531 0
M  V30 3704 H 360.219 -3.30205 -2.55645 0
M  V30 3705 N 360.656 0.0484629 -1.57525 0
M  V30 3706 C 361.586 1.0549 -2.08313 0
M  V30 3707 C 362.567 1.38929 -0.981463 0
M  V30 3708 O 363.752 1.48151 -1.25558 0
M  V30 3709 C 360.882 2.36162 -2.54646 0
M  V30 3710 C 359.836 2.17016 -3.68901 0
M  V30 3711 C 359.162 3.53278 -4.01371 0
M  V30 3712 C 360.462 1.57219 -4.98076 0
M  V30 3713 H 362.156 0.632195 -2.92649 0
M  V30 3714 H 359.702 0.302654 -1.40784 0
M  V30 3715 H 361.655 3.06882 -2.88793 0
M  V30 3716 H 360.379 2.80456 -1.67368 0
M  V30 3717 H 359.038 1.48733 -3.35073 0
M  V30 3718 H 358.686 3.95185 -3.11188 0
M  V30 3719 H 358.386 3.41299 -4.78318 0
M  V30 3720 H 359.91 4.25391 -4.38035 0
M  V30 3721 H 361.324 2.17832 -5.30304 0
M  V30 3722 H 359.721 1.55871 -5.79503 0
M  V30 3723 H 360.791 0.535956 -4.81929 0
M  V30 3724 N 362.134 1.5431 0.320358 0
M  V30 3725 C 363.066 1.80262 1.41556 0
M  V30 3726 C 364.079 0.684723 1.477 0
M  V30 3727 O 365.268 0.961886 1.50366 0
M  V30 3728 C 362.368 1.90825 2.8007 0
M  V30 3729 C 361.541 3.21023 2.97091 0
M  V30 3730 C 360.6 3.22247 4.15985 0
M  V30 3731 O 359.626 3.95871 4.08992 0
M  V30 3732 N 360.828 2.46258 5.25678 0
M  V30 3733 H 363.593 2.74778 1.19655 0
M  V30 3734 H 361.154 1.53646 0.510358 0
M  V30 3735 H 363.146 1.89067 3.57821 0
M  V30 3736 H 361.716 1.03392 2.95006 0
M  V30 3737 H 360.936 3.35715 2.06614 0
M  V30 3738 H 362.224 4.0698 3.05361 0
M  V30 3739 H 361.622 1.86037 5.34235 0
M  V30 3740 H 360.179 2.50275 6.01835 0
M  V30 3741 N 363.613 -0.582584 1.46437 0
M  V30 3742 C 364.861 -1.33814 1.51453 0
M  V30 3743 C 365.182 -1.94277 0.167792 0
M  V30 3744 O 364.452 -1.78566 -0.805677 0
M  V30 3745 H 363.032 -0.496838 0.557818 0
M  V30 3746 H 365.694 -0.682281 1.82568 0
M  V30 3747 H 364.79 -2.14479 2.26728 0
M  V30 3748 N 365.091 -1.34144 -0.827227 0
M  V30 3749 C 366.023 -1.21206 -1.9453 0
M  V30 3750 C 367.036 -0.140176 -1.62195 0
M  V30 3751 O 368.225 -0.391647 -1.7415 0
M  V30 3752 C 365.325 -0.839141 -3.28347 0
M  V30 3753 C 364.498 -2.0051 -3.88734 0
M  V30 3754 C 363.557 -1.61128 -5.00923 0
M  V30 3755 O 362.583 -2.32726 -5.19449 0
M  V30 3756 N 363.785 -0.522958 -5.7814 0
M  V30 3757 H 366.55 -2.17525 -2.06162 0
M  V30 3758 H 364.111 -1.27043 -1.00358 0
M  V30 3759 H 366.103 -0.557556 -4.00841 0
M  V30 3760 H 364.673 0.0337293 -3.12582 0
M  V30 3761 H 363.893 -2.45166 -3.08686 0
M  V30 3762 H 365.181 -2.78498 -4.25812 0
M  V30 3763 H 364.579 0.0723518 -5.65654 0
M  V30 3764 H 363.136 -0.301089 -6.51104 0
M  V30 3765 N 366.569 1.04691 -1.17803 0
M  V30 3766 C 367.815 1.78045 -0.970969 0
M  V30 3767 C 368.148 1.87686 0.498751 0
M  V30 3768 O 367.423 1.38035 1.37027 0
M  V30 3769 C 367.706 3.2166 -1.61884 0
M  V30 3770 C 367.559 3.20001 -3.161 0
M  V30 3771 C 368.878 4.1962 -1.3269 0
M  V30 3772 H 365.997 0.64633 -0.354155 0
M  V30 3773 H 368.639 1.22333 -1.45378 0
M  V30 3774 H 366.789 3.69232 -1.20831 0
M  V30 3775 H 368.461 2.80467 -3.66246 0
M  V30 3776 H 366.704 2.58203 -3.48588 0
M  V30 3777 H 367.375 4.21386 -3.56564 0
M  V30 3778 H 369.851 3.80567 -1.68249 0
M  V30 3779 H 368.727 5.18339 -1.80599 0
M  V30 3780 H 368.988 4.414 -0.248622 0
M  V30 3781 N 368.047 0.979072 1.23499 0
M  V30 3782 C 368.977 0.537606 2.27227 0
M  V30 3783 C 369.958 -0.428539 1.64613 0
M  V30 3784 O 371.143 -0.322191 1.91509 0
M  V30 3785 C 368.273 -0.162052 3.46922 0
M  V30 3786 C 367.227 0.721242 4.21879 0
M  V30 3787 C 366.553 -0.110555 5.34586 0
M  V30 3788 C 367.853 2.01141 4.82016 0
M  V30 3789 H 369.547 1.40462 2.64406 0
M  V30 3790 H 367.093 0.67684 1.27102 0
M  V30 3791 H 369.046 -0.482192 4.18632 0
M  V30 3792 H 367.77 -1.06351 3.08799 0
M  V30 3793 H 366.429 1.02482 3.51984 0
M  V30 3794 H 366.077 -1.0125 4.92704 0
M  V30 3795 H 365.777 0.477325 5.85658 0
M  V30 3796 H 367.301 -0.425107 6.09118 0
M  V30 3797 H 368.715 1.75612 5.45741 0
M  V30 3798 H 367.112 2.54695 5.43369 0
M  V30 3799 H 368.182 2.69909 4.02836 0
M  V30 3800 N 369.525 -1.3858 0.750561 0
M  V30 3801 C 370.488 -2.28836 0.129152 0
M  V30 3802 C 371.488 -1.47045 -0.650714 0
M  V30 3803 O 372.678 -1.6753 -0.477428 0
M  V30 3804 C 369.81 -3.30751 -0.825622 0
M  V30 3805 H 371.003 -2.85294 0.924516 0
M  V30 3806 H 368.556 -1.47489 0.517376 0
M  V30 3807 H 369.291 -2.79378 -1.64677 0
M  V30 3808 H 369.076 -3.91177 -0.268852 0
M  V30 3809 H 370.566 -3.98249 -1.2565 0
M  V30 3810 N 371.003 -0.499398 -1.49478 0
M  V30 3811 C 371.913 0.284489 -2.32869 0
M  V30 3812 C 372.929 0.968885 -1.44529 0
M  V30 3813 O 374.105 0.95062 -1.77553 0
M  V30 3814 C 371.17 1.33594 -3.19928 0
M  V30 3815 C 370.231 0.665149 -4.24116 0
M  V30 3816 C 369.464 1.6665 -5.07014 0
M  V30 3817 O 369.687 2.89618 -4.91404 0
M  V30 3818 O 368.621 1.22271 -5.8935 0
M  V30 3819 H 372.447 -0.39802 -3.01081 0
M  V30 3820 H 370.032 -0.260758 -1.47107 0
M  V30 3821 H 371.914 1.94431 -3.73864 0
M  V30 3822 H 370.589 2.0014 -2.54412 0
M  V30 3823 H 369.496 0.0170769 -3.74096 0
M  V30 3824 H 370.829 0.0421555 -4.92182 0
M  V30 3825 N 372.481 1.55866 -0.233164 0
M  V30 3826 C 373.897 1.59133 0.121988 0
M  V30 3827 C 374.097 1.25016 1.58029 0
M  V30 3828 O 373.153 0.990922 2.32243 0
M  V30 3829 C 374.466 2.99932 -0.214792 0
M  V30 3830 C 376.014 3.12601 -0.157971 0
M  V30 3831 C 376.489 4.55597 -0.46859 0
M  V30 3832 N 377.98 4.61305 -0.418585 0
M  V30 3833 C 378.715 5.69903 -0.63227 0
M  V30 3834 N 378.211 6.86819 -0.90835 0
M  V30 3835 N 380.004 5.59264 -0.563913 0
M  V30 3836 H 372.155 1.76315 -1.18434 0
M  V30 3837 H 374.418 0.820093 -0.475553 0
M  V30 3838 H 374.124 3.29588 -1.22739 0
M  V30 3839 H 373.998 3.74327 0.464691 0
M  V30 3840 H 376.385 2.82735 0.845283 0
M  V30 3841 H 376.466 2.40511 -0.871102 0
M  V30 3842 H 376.11 4.86182 -1.46934 0
M  V30 3843 H 376.04 5.25928 0.265865 0
M  V30 3844 H 378.531 3.77297 -0.213368 0
M  V30 3845 H 378.844 7.65507 -1.05919 0
M  V30 3846 H 377.189 6.88536 -0.945673 0
M  V30 3847 H 380.38 4.66802 -0.348372 0
M  V30 3848 H 380.553 6.43831 -0.733847 0
M  V30 3849 N 373.959 -0.0401083 1.57549 0
M  V30 3850 C 374.922 -1.02871 2.04817 0
M  V30 3851 C 375.922 -1.29708 0.950388 0
M  V30 3852 O 377.112 -1.24897 1.21435 0
M  V30 3853 C 374.244 -2.36443 2.45576 0
M  V30 3854 H 375.437 -0.620631 2.93408 0
M  V30 3855 H 372.99 -0.286667 1.53649 0
M  V30 3856 H 373.725 -2.82021 1.60108 0
M  V30 3857 H 373.51 -2.18296 3.25713 0
M  V30 3858 H 375 -3.07441 2.82612 0
M  V30 3859 N 375.437 -1.54477 -0.31217 0
M  V30 3860 C 376.685 -1.72884 -1.04668 0
M  V30 3861 C 377.006 -0.511477 -1.88173 0
M  V30 3862 O 376.276 0.474407 -1.90069 0
M  V30 3863 H 374.856 -0.637461 -0.389425 0
M  V30 3864 H 377.518 -1.91807 -0.345852 0
M  V30 3865 H 376.614 -2.61334 -1.70619 0
M  V30 3866 N 376.915 0.57481 -1.46744 0
M  V30 3867 C 377.878 1.66533 -1.57478 0
M  V30 3868 C 378.878 1.54338 -0.451263 0
M  V30 3869 O 380.068 1.58814 -0.715813 0
M  V30 3870 C 377.2 3.05999 -1.50259 0
M  V30 3871 H 378.393 1.58372 -2.54673 0
M  V30 3872 H 375.946 0.793301 -1.34672 0
M  V30 3873 H 376.681 3.19709 -0.543725 0
M  V30 3874 H 376.466 3.16259 -2.31781 0
M  V30 3875 H 377.956 3.8537 -1.60872 0
M  V30 3876 N 378.394 1.34581 0.820102 0
M  V30 3877 C 379.64 1.27285 1.57881 0
M  V30 3878 C 379.973 -0.156137 1.93571 0
M  V30 3879 O 379.248 -1.10222 1.60254 0
M  V30 3880 C 379.531 2.16639 2.87645 0
M  V30 3881 C 379.384 3.68088 2.58517 0
M  V30 3882 C 380.703 2.05378 3.8924 0
M  V30 3883 H 377.822 0.463714 0.572833 0
M  V30 3884 H 380.464 1.64859 0.944539 0
M  V30 3885 H 378.614 1.84725 3.41773 0
M  V30 3886 H 380.286 4.10382 2.10676 0
M  V30 3887 H 378.529 3.89038 1.91917 0
M  V30 3888 H 379.2 4.2598 3.51063 0
M  V30 3889 H 381.676 2.33404 3.44473 0
M  V30 3890 H 380.552 2.7012 4.77835 0
M  V30 3891 H 380.813 1.0316 4.29896 0
M  V30 3892 N 379.872 -1.04064 1.18357 0
M  V30 3893 C 381.288 -1.2947 0.933258 0
M  V30 3894 C 381.488 -1.97466 -0.401169 0
M  V30 3895 O 380.544 -2.25528 -1.13549 0
M  V30 3896 C 381.857 -2.15337 2.09882 0
M  V30 3897 C 383.405 -2.28683 2.13712 0
M  V30 3898 C 383.88 -3.17917 3.29686 0
M  V30 3899 N 385.371 -3.25504 3.29547 0
M  V30 3900 C 386.106 -3.94706 4.15926 0
M  V30 3901 N 385.602 -4.66239 5.12439 0
M  V30 3902 N 387.395 -3.90986 4.0384 0
M  V30 3903 H 379.546 -0.583359 2.04232 0
M  V30 3904 H 381.809 -0.319921 0.892387 0
M  V30 3905 H 381.515 -1.72682 3.06389 0
M  V30 3906 H 381.389 -3.16015 2.05947 0
M  V30 3907 H 383.776 -2.70575 1.17784 0
M  V30 3908 H 383.857 -1.27596 2.21705 0
M  V30 3909 H 383.501 -2.76736 4.25887 0
M  V30 3910 H 383.431 -4.19036 3.1893 0
M  V30 3911 H 385.922 -2.74547 2.59677 0
M  V30 3912 H 386.235 -5.16638 5.74722 0
M  V30 3913 H 384.58 -4.65143 5.16398 0
M  V30 3914 H 387.771 -3.34234 3.27727 0
M  V30 3915 H 387.944 -4.44646 4.71375 0
M  V30 3916 N 381.35 -0.985608 -1.22978 0
M  V30 3917 C 382.313 -0.535071 -2.22867 0
M  V30 3918 C 383.313 0.378123 -1.56291 0
M  V30 3919 O 384.503 0.171092 -1.73358 0
M  V30 3920 C 381.635 0.222702 -3.40172 0
M  V30 3921 H 382.828 -1.41835 -2.6424 0
M  V30 3922 H 380.381 -0.772042 -1.35901 0
M  V30 3923 H 381.116 1.12229 -3.04262 0
M  V30 3924 H 380.901 -0.43288 -3.89703 0
M  V30 3925 H 382.391 0.526335 -4.1427 0
M  V30 3926 N 382.828 1.3818 -0.7579 0
M  V30 3927 C 383.775 2.30416 -0.133057 0
M  V30 3928 C 384.745 1.50398 0.704957 0
M  V30 3929 O 385.93 1.79014 0.660192 0
M  V30 3930 C 383.07 3.36834 0.750813 0
M  V30 3931 C 382.183 4.31879 -0.102297 0
M  V30 3932 C 381.318 5.25368 0.784979 0
M  V30 3933 C 380.357 6.12058 -0.0715046 0
M  V30 3934 N 379.494 6.97832 0.772972 0
M  V30 3935 H 384.334 2.83274 -0.925186 0
M  V30 3936 H 381.871 1.39461 -0.467866 0
M  V30 3937 H 383.829 3.97145 1.27794 0
M  V30 3938 H 382.459 2.85374 1.50868 0
M  V30 3939 H 381.511 3.72991 -0.747095 0
M  V30 3940 H 382.823 4.92921 -0.763552 0
M  V30 3941 H 381.977 5.90818 1.37911 0
M  V30 3942 H 380.716 4.64703 1.47996 0
M  V30 3943 H 379.721 5.456 -0.678272 0
M  V30 3944 H 380.946 6.74793 -0.763606 0
M  V30 3945 H 378.892 6.3971 1.45282 0
M  V30 3946 H 378.809 7.55812 0.168709 0
M  V30 3947 H 380.077 7.67687 1.35194 0
M  V30 3948 N 384.306 0.507319 1.49211 0
M  V30 3949 C 385.552 -0.0350047 2.0277 0
M  V30 3950 C 385.885 -1.3606 1.38569 0
M  V30 3951 O 385.16 -1.87321 0.523542 0
M  V30 3952 C 385.443 -0.180916 3.59645 0
M  V30 3953 C 385.296 1.16825 4.34364 0
M  V30 3954 C 386.615 -0.918558 4.30407 0
M  V30 3955 H 383.734 -0.0112473 0.736914 0
M  V30 3956 H 386.376 0.659956 1.7817 0
M  V30 3957 H 384.526 -0.772826 3.80736 0
M  V30 3958 H 386.198 1.79952 4.24753 0
M  V30 3959 H 384.441 1.75594 3.96673 0
M  V30 3960 H 385.112 1.01939 5.42506 0
M  V30 3961 H 387.588 -0.41649 4.1401 0
M  V30 3962 H 386.464 -0.989505 5.39907 0
M  V30 3963 H 386.725 -1.96373 3.96093 0
M  V30 3964 N 385.784 -1.5574 0.241426 0
M  V30 3965 C 387.009 -2.0366 -0.392111 0
M  V30 3966 C 387.434 -1.11969 -1.51144 0
M  V30 3967 O 386.792 -0.111594 -1.80956 0
M  V30 3968 C 386.84 -3.49638 -0.882371 0
M  V30 3969 O 385.944 -3.6108 -1.99235 0
M  V30 3970 H 385.285 -0.658379 -0.0862122 0
M  V30 3971 H 387.815 -2.01302 0.365881 0
M  V30 3972 H 387.825 -3.90351 -1.18702 0
M  V30 3973 H 386.5 -4.15852 -0.0632361 0
M  V30 3974 H 385.077 -3.32262 -1.69282 0
M  V30 3975 N 387.262 0.0317525 -1.57568 0
M  V30 3976 C 388.678 0.38735 -1.54828 0
M  V30 3977 C 388.878 1.7677 -0.967187 0
M  V30 3978 O 387.934 2.45581 -0.587063 0
M  V30 3979 C 389.247 0.291667 -2.99282 0
M  V30 3980 C 390.795 0.368946 -3.10818 0
M  V30 3981 C 391.27 0.302741 -4.56998 0
M  V30 3982 N 392.761 0.361617 -4.61786 0
M  V30 3983 C 393.496 0.333238 -5.72431 0
M  V30 3984 N 392.992 0.257308 -6.92322 0
M  V30 3985 N 394.785 0.382769 -5.60795 0
M  V30 3986 H 386.936 -0.871609 -1.93692 0
M  V30 3987 H 389.199 -0.331161 -0.888277 0
M  V30 3988 H 388.905 -0.656794 -3.45513 0
M  V30 3989 H 388.779 1.08638 -3.61217 0
M  V30 3990 H 391.166 1.30784 -2.64536 0
M  V30 3991 H 391.247 -0.455066 -2.5172 0
M  V30 3992 H 390.891 -0.632473 -5.03947 0
M  V30 3993 H 390.821 1.14482 -5.14005 0
M  V30 3994 H 393.312 0.422923 -3.75526 0
M  V30 3995 H 393.625 0.24068 -7.72425 0
M  V30 3996 H 391.97 0.223396 -6.94641 0
M  V30 3997 H 395.161 0.44006 -4.66027 0
M  V30 3998 H 395.334 0.357184 -6.47015 0
M  V30 3999 N 388.74 1.54641 0.303973 0
M  V30 4000 C 389.67 1.88386 1.3796 0
M  V30 4001 C 390.651 0.742485 1.5304 0
M  V30 4002 O 391.836 0.997959 1.66597 0
M  V30 4003 C 388.966 2.12854 2.74427 0
M  V30 4004 C 387.92 3.28702 2.74115 0
M  V30 4005 C 387.246 3.38582 4.13844 0
M  V30 4006 C 388.546 4.65881 2.3612 0
M  V30 4007 H 390.24 2.78474 1.09966 0
M  V30 4008 H 387.786 1.33988 0.527556 0
M  V30 4009 H 389.739 2.35047 3.49758 0
M  V30 4010 H 388.463 1.19535 3.03939 0
M  V30 4011 H 387.122 3.06428 2.0124 0
M  V30 4012 H 386.77 2.42784 4.40528 0
M  V30 4013 H 386.47 4.16453 4.14537 0
M  V30 4014 H 387.994 3.63031 4.90959 0
M  V30 4015 H 389.408 4.87823 3.01167 0
M  V30 4016 H 387.805 5.46444 2.48031 0
M  V30 4017 H 388.875 4.66799 1.3125 0
M  V30 4018 N 390.218 -0.567019 1.47046 0
M  V30 4019 C 391.464 -1.32658 1.53394 0
M  V30 4020 C 391.797 -1.93254 0.19148 0
M  V30 4021 O 391.072 -1.77338 -0.798844 0
M  V30 4022 C 391.355 -2.44412 2.64452 0
M  V30 4023 C 391.208 -1.88749 4.08282 0
M  V30 4024 C 392.527 -3.46387 2.71485 0
M  V30 4025 H 389.646 -0.48098 0.558415 0
M  V30 4026 H 392.288 -0.635481 1.79058 0
M  V30 4027 H 390.438 -3.03363 2.427 0
M  V30 4028 H 392.11 -1.34134 4.41368 0
M  V30 4029 H 390.353 -1.19481 4.17021 0
M  V30 4030 H 391.024 -2.69491 4.81745 0
M  V30 4031 H 393.5 -2.9734 2.91081 0
M  V30 4032 H 392.376 -4.2202 3.50985 0
M  V30 4033 H 392.637 -4.04616 1.78153 0
M  V30 4034 N 391.696 -1.35014 -0.812953 0
M  V30 4035 C 392.659 -1.27292 -1.90602 0
M  V30 4036 C 393.659 -0.185817 -1.59723 0
M  V30 4037 O 394.849 -0.439102 -1.68575 0
M  V30 4038 C 391.981 -0.967676 -3.26877 0
M  V30 4039 H 393.174 -2.24479 -1.9887 0
M  V30 4040 H 390.727 -1.19446 -1.00808 0
M  V30 4041 H 391.462 0.0005954 -3.243 0
M  V30 4042 H 391.247 -1.75412 -3.50675 0
M  V30 4043 H 392.737 -0.939085 -4.06904 0
M  V30 4044 N 393.175 1.03435 -1.18907 0
M  V30 4045 C 394.138 2.09756 -0.923844 0
M  V30 4046 C 395.138 1.60528 0.093416 0
M  V30 4047 O 396.328 1.73631 -0.140727 0
M  V30 4048 C 393.46 3.38692 -0.387354 0
M  V30 4049 H 394.653 2.34719 -1.86674 0
M  V30 4050 H 392.206 1.19959 -1.00197 0
M  V30 4051 H 392.941 3.19396 0.561845 0
M  V30 4052 H 392.726 3.75742 -1.12074 0
M  V30 4053 H 394.216 4.17016 -0.220694 0
M  V30 4054 N 394.653 0.992116 1.22453 0
M  V30 4055 C 395.899 0.668523 1.91464 0
M  V30 4056 C 396.232 -0.797313 1.77078 0
M  V30 4057 O 395.507 -1.5765 1.13916 0
M  V30 4058 C 395.79 1.07424 3.43703 0
M  V30 4059 C 395.643 2.59857 3.67143 0
M  V30 4060 C 396.962 0.626891 4.35612 0
M  V30 4061 H 394.081 0.244341 0.695318 0
M  V30 4062 H 396.723 1.2355 1.44345 0
M  V30 4063 H 394.873 0.591816 3.83966 0
M  V30 4064 H 396.545 3.15764 3.3629 0
M  V30 4065 H 394.788 3.01961 3.11451 0
M  V30 4066 H 395.459 2.83296 4.73759 0
M  V30 4067 H 397.935 1.04125 4.02861 0
M  V30 4068 H 396.811 0.939076 5.40807 0
M  V30 4069 H 397.072 -0.472457 4.39568 0
M  V30 4070 N 396.131 -1.37776 0.765217 0
M  V30 4071 C 397.377 -2.00145 0.327072 0
M  V30 4072 C 397.71 -1.60607 -1.09175 0
M  V30 4073 O 396.985 -0.849127 -1.74986 0
M  V30 4074 C 397.268 -3.57109 0.46319 0
M  V30 4075 C 397.121 -4.06576 1.92395 0
M  V30 4076 C 398.44 -4.39888 -0.136473 0
M  V30 4077 H 395.559 -0.727113 0.120316 0
M  V30 4078 H 398.201 -1.63549 0.967039 0
M  V30 4079 H 396.351 -3.88414 -0.0816358 0
M  V30 4080 H 398.023 -3.85864 2.52798 0
M  V30 4081 H 396.266 -3.59011 2.43503 0
M  V30 4082 H 396.937 -5.15639 1.97028 0
M  V30 4083 H 399.413 -4.14803 0.328317 0
M  V30 4084 H 398.289 -5.48899 -0.0110582 0
M  V30 4085 H 398.55 -4.24758 -1.22608 0
M  V30 4086 N 397.609 -0.515225 -1.4894 0
M  V30 4087 C 398.539 0.244628 -2.32215 0
M  V30 4088 C 399.52 0.949136 -1.41157 0
M  V30 4089 O 400.705 0.937783 -1.70057 0
M  V30 4090 C 397.835 1.30096 -3.22013 0
M  V30 4091 C 396.789 0.715486 -4.21977 0
M  V30 4092 C 396.115 1.87339 -5.00808 0
M  V30 4093 C 397.415 -0.302982 -5.2142 0
M  V30 4094 H 399.109 -0.450501 -2.95991 0
M  V30 4095 H 396.655 -0.218098 -1.42339 0
M  V30 4096 H 398.608 1.84037 -3.79089 0
M  V30 4097 H 397.332 2.02547 -2.56207 0
M  V30 4098 H 395.991 0.197715 -3.66066 0
M  V30 4099 H 395.639 2.58592 -4.31438 0
M  V30 4100 H 395.339 1.48764 -5.68457 0
M  V30 4101 H 396.863 2.41686 -5.60732 0
M  V30 4102 H 398.277 0.148802 -5.73107 0
M  V30 4103 H 396.674 -0.60532 -5.97039 0
M  V30 4104 H 397.744 -1.21395 -4.69459 0
M  V30 4105 N 399.087 1.5561 -0.249682 0
M  V30 4106 C 400.017 2.24477 0.642826 0
M  V30 4107 C 400.998 1.22601 1.17911 0
M  V30 4108 O 402.183 1.5126 1.21795 0
M  V30 4109 C 399.313 2.94638 1.83863 0
M  V30 4110 C 398.267 4.03227 1.435 0
M  V30 4111 C 397.593 4.60828 2.71186 0
M  V30 4112 C 398.893 5.18796 0.604002 0
M  V30 4113 H 400.587 2.99321 0.0685625 0
M  V30 4114 H 398.133 1.43965 0.0315363 0
M  V30 4115 H 400.086 3.41517 2.46868 0
M  V30 4116 H 398.81 2.17287 2.43832 0
M  V30 4117 H 397.469 3.57121 0.828275 0
M  V30 4118 H 397.117 3.80174 3.29358 0
M  V30 4119 H 396.817 5.34132 2.44901 0
M  V30 4120 H 398.341 5.10442 3.35084 0
M  V30 4121 H 399.755 5.61883 1.13842 0
M  V30 4122 H 398.152 5.98506 0.437097 0
M  V30 4123 H 399.222 4.83384 -0.383147 0
M  V30 4124 N 400.565 -0.0233959 1.57583 0
M  V30 4125 C 401.812 -0.713063 1.8953 0
M  V30 4126 C 402.14 -1.75056 0.847673 0
M  V30 4127 O 401.395 -1.95119 -0.150636 0
M  V30 4128 C 401.694 -1.41428 3.28227 0
M  V30 4129 C 401.36 -0.512222 4.47981 0
M  V30 4130 C 400.022 -0.263785 4.80476 0
M  V30 4131 C 402.374 0.110248 5.21083 0
M  V30 4132 C 399.702 0.615804 5.83459 0
M  V30 4133 C 402.054 0.977573 6.25001 0
M  V30 4134 C 400.718 1.23542 6.55968 0
M  V30 4135 H 399.988 -0.260928 0.69354 0
M  V30 4136 H 402.635 0.0271047 1.91481 0
M  V30 4137 H 400.94 -2.22791 3.22291 0
M  V30 4138 H 402.637 -1.95355 3.50196 0
M  V30 4139 H 399.227 -0.716013 4.22577 0
M  V30 4140 H 403.411 -0.0687137 4.96252 0
M  V30 4141 H 398.667 0.82382 6.05824 0
M  V30 4142 H 402.841 1.46638 6.80786 0
M  V30 4143 H 400.468 1.91871 7.35588 0
M  V30 4144 N 402.043 -1.548 -0.295768 0
M  V30 4145 C 403.006 -1.85363 -1.34808 0
M  V30 4146 C 404.006 -0.726817 -1.43436 0
M  V30 4147 O 405.196 -0.995088 -1.42981 0
M  V30 4148 C 402.328 -2.03859 -2.73229 0
M  V30 4149 H 403.521 -2.7941 -1.08949 0
M  V30 4150 H 401.074 -1.46942 -0.532702 0
M  V30 4151 H 401.809 -1.12117 -3.04303 0
M  V30 4152 H 401.594 -2.8588 -2.68356 0
M  V30 4153 H 403.084 -2.28857 -3.49305 0
M  V30 4154 N 403.521 0.559213 -1.47345 0
M  V30 4155 C 404.484 1.64854 -1.59235 0
M  V30 4156 C 405.484 1.53851 -0.467607 0
M  V30 4157 O 406.674 1.58045 -0.732617 0
M  V30 4158 C 403.806 3.04388 -1.53496 0
M  V30 4159 H 404.999 1.55662 -2.56339 0
M  V30 4160 H 402.552 0.778973 -1.35505 0
M  V30 4161 H 403.287 3.19115 -0.577604 0
M  V30 4162 H 403.072 3.13783 -2.35123 0
M  V30 4163 H 404.562 3.83642 -1.6495 0
M  V30 4164 N 404.999 1.35443 0.805782 0
M  V30 4165 C 406.239 1.30127 1.57627 0
M  V30 4166 C 406.603 -0.122567 1.91608 0
M  V30 4167 O 407.804 -0.300107 2.67119 0
M  V30 4168 C 406.075 2.18314 2.82973 0
M  V30 4169 S 407.634 2.30521 3.7337 0
M  V30 4170 H 404.452 0.462439 0.540066 0
M  V30 4171 H 407.054 1.70843 0.95042 0
M  V30 4172 H 405.758 3.20741 2.56034 0
M  V30 4173 H 405.289 1.78558 3.50543 0
M  V30 4174 H 407.304 1.49062 4.73281 0
M  V30 4175 N 406.477 -1.02803 1.19454 0
M  V30 4176 C 407.723 -1.76598 1.0092 0
M  V30 4177 C 408.078 -1.86939 -0.455142 0
M  V30 4178 O 407.371 -1.37575 -1.33355 0
M  V30 4179 C 407.565 -3.18941 1.6128 0
M  V30 4180 C 407.394 -3.22476 3.13431 0
M  V30 4181 C 406.164 -3.30375 3.82336 0
M  V30 4182 C 408.362 -3.09451 4.10785 0
M  V30 4183 N 406.344 -3.23292 5.21877 0
M  V30 4184 C 407.715 -3.10012 5.36929 0
M  V30 4185 C 409.77 -2.93585 4.02135 0
M  V30 4186 C 408.473 -2.96334 6.55423 0
M  V30 4187 C 410.499 -2.81256 5.20239 0
M  V30 4188 C 409.861 -2.82472 6.45282 0
M  V30 4189 H 405.96 -0.657447 0.423424 0
M  V30 4190 H 408.544 -1.22369 1.5144 0
M  V30 4191 H 406.715 -3.71489 1.1336 0
M  V30 4192 H 408.447 -3.81102 1.36173 0
M  V30 4193 H 405.202 -3.3663 3.33132 0
M  V30 4194 H 405.626 -3.23156 5.94894 0
M  V30 4195 H 410.268 -2.91466 3.0628 0
M  V30 4196 H 407.986 -2.97203 7.51463 0
M  V30 4197 H 411.572 -2.70014 5.15348 0
M  V30 4198 H 410.452 -2.73036 7.35133 0
M  V30 4199 N 407.956 -0.998596 -1.21925 0
M  V30 4200 C 409.204 -0.676325 -1.90448 0
M  V30 4201 C 409.525 0.794719 -1.78071 0
M  V30 4202 O 408.795 1.5701 -1.17152 0
M  V30 4203 H 407.375 -0.247165 -0.704925 0
M  V30 4204 H 410.037 -1.26633 -1.48156 0
M  V30 4205 H 409.133 -0.943858 -2.97486 0
M  V30 4206 N 409.434 1.37368 -0.772513 0
M  V30 4207 C 410.845 1.8231 -0.402493 0
M  V30 4208 C 411.196 1.6436 1.07146 0
M  V30 4209 O 410.321 1.15514 1.82991 0
M  V30 4210 C 410.916 3.30979 -0.723776 0
M  V30 4211 C 409.475 3.74195 -0.406802 0
M  V30 4212 C 408.622 2.59885 -0.967218 0
M  V30 4213 H 411.573 1.25829 -0.967099 0
M  V30 4214 H 411.594 3.80499 -0.00870832 0
M  V30 4215 H 411.106 3.44011 -1.7966 0
M  V30 4216 H 409.207 3.66732 0.658673 0
M  V30 4217 H 409.32 4.7027 -0.915588 0
M  V30 4218 H 407.684 2.51674 -0.391416 0
M  V30 4219 H 408.467 2.7571 -2.04546 0
M  V30 4220 N 410.912 0.523116 1.48665 0
M  V30 4221 C 412.161 -0.01544 2.01694 0
M  V30 4222 C 412.474 -1.35975 1.40606 0
M  V30 4223 O 413.68 -1.98627 1.85093 0
M  V30 4224 C 412.136 -0.0779303 3.59816 0
M  V30 4225 C 411.744 1.26107 4.29885 0
M  V30 4226 C 413.488 -0.565678 4.20714 0
M  V30 4227 C 411.395 1.15954 5.79921 0
M  V30 4228 H 410.325 -0.00954163 0.75394 0
M  V30 4229 H 412.976 0.665865 1.70993 0
M  V30 4230 H 411.358 -0.824165 3.87329 0
M  V30 4231 H 412.532 2.02233 4.14051 0
M  V30 4232 H 410.847 1.68401 3.80828 0
M  V30 4233 H 413.444 -0.6595 5.30617 0
M  V30 4234 H 413.787 -1.56984 3.85567 0
M  V30 4235 H 414.32 0.12467 3.97605 0
M  V30 4236 H 411.059 2.13864 6.19631 0
M  V30 4237 H 410.579 0.439529 5.98187 0
M  V30 4238 H 412.258 0.847361 6.41427 0
M  V30 4239 N 412.39 -1.55475 0.257931 0
M  V30 4240 C 413.322 -2.19192 -0.669881 0
M  V30 4241 C 414.335 -1.17148 -1.1305 0
M  V30 4242 O 415.524 -1.43959 -1.05537 0
M  V30 4243 C 412.624 -2.79016 -1.92363 0
M  V30 4244 C 411.797 -4.06586 -1.61265 0
M  V30 4245 C 410.856 -4.50622 -2.7171 0
M  V30 4246 O 409.882 -5.16765 -2.38627 0
M  V30 4247 N 411.084 -4.19325 -4.01431 0
M  V30 4248 H 413.849 -2.99441 -0.124635 0
M  V30 4249 H 411.41 -1.6171 0.0783311 0
M  V30 4250 H 413.402 -3.05427 -2.65511 0
M  V30 4251 H 411.972 -2.0286 -2.37837 0
M  V30 4252 H 411.192 -3.87646 -0.715811 0
M  V30 4253 H 412.48 -4.89737 -1.37967 0
M  V30 4254 H 411.878 -3.66247 -4.31138 0
M  V30 4255 H 410.435 -4.50547 -4.7101 0
M  V30 4256 N 413.868 0.0150385 -1.57593 0
M  V30 4257 C 414.798 1.01047 -2.10503 0
M  V30 4258 C 415.779 1.36816 -1.01071 0
M  V30 4259 O 416.964 1.45455 -1.28672 0
M  V30 4260 C 414.094 2.30708 -2.59598 0
M  V30 4261 C 413.048 2.09142 -3.73421 0
M  V30 4262 C 412.374 3.44685 -4.08774 0
M  V30 4263 C 413.674 1.46619 -5.01298 0
M  V30 4264 H 415.368 0.569978 -2.93925 0
M  V30 4265 H 412.914 0.272724 -1.41394 0
M  V30 4266 H 414.867 3.00687 -2.95238 0
M  V30 4267 H 413.591 2.76843 -1.73279 0
M  V30 4268 H 412.25 1.41592 -3.38153 0
M  V30 4269 H 411.898 3.88495 -3.195 0
M  V30 4270 H 411.598 3.31077 -4.8545 0
M  V30 4271 H 413.122 4.16004 -4.4696 0
M  V30 4272 H 414.536 2.06535 -5.34805 0
M  V30 4273 H 412.933 1.43544 -5.82679 0
M  V30 4274 H 414.003 0.433611 -4.82957 0
M  V30 4275 N 415.346 1.54954 0.287554 0
M  V30 4276 C 416.593 1.74873 1.02106 0
M  V30 4277 C 416.921 0.541829 1.86801 0
M  V30 4278 O 416.176 -0.475992 1.89823 0
M  V30 4279 C 416.475 2.99833 1.94512 0
M  V30 4280 C 416.141 4.33029 1.25686 0
M  V30 4281 C 414.803 4.69233 1.06649 0
M  V30 4282 C 417.155 5.15542 0.765913 0
M  V30 4283 C 414.483 5.85518 0.372222 0
M  V30 4284 C 416.835 6.32542 0.0853101 0
M  V30 4285 C 415.499 6.67398 -0.1169 0
M  V30 4286 H 414.769 0.639906 0.373632 0
M  V30 4287 H 417.416 1.89219 0.294665 0
M  V30 4288 H 415.721 2.80325 2.73725 0
M  V30 4289 H 417.418 3.1244 2.51361 0
M  V30 4290 H 414.008 4.04564 1.41512 0
M  V30 4291 H 418.192 4.88059 0.90066 0
M  V30 4292 H 413.448 6.11057 0.204695 0
M  V30 4293 H 417.622 6.95741 -0.302936 0
M  V30 4294 H 415.249 7.57357 -0.656859 0
M  V30 4295 N 416.824 -0.551391 1.4764 0
M  V30 4296 C 417.754 -1.66757 1.63445 0
M  V30 4297 C 418.735 -1.63077 0.483742 0
M  V30 4298 O 419.92 -1.80607 0.71377 0
M  V30 4299 C 417.05 -3.05387 1.65396 0
M  V30 4300 C 416.004 -3.23918 2.79752 0
M  V30 4301 C 415.33 -4.63393 2.66779 0
M  V30 4302 C 416.63 -3.08735 4.21284 0
M  V30 4303 H 418.324 -1.53786 2.56886 0
M  V30 4304 H 415.87 -0.738415 1.23626 0
M  V30 4305 H 417.823 -3.83325 1.75043 0
M  V30 4306 H 416.547 -3.19332 0.685195 0
M  V30 4307 H 415.206 -2.48391 2.69625 0
M  V30 4308 H 414.854 -4.74144 1.67918 0
M  V30 4309 H 414.554 -4.7674 3.43501 0
M  V30 4310 H 416.078 -5.43458 2.78364 0
M  V30 4311 H 417.492 -3.76484 4.32357 0
M  V30 4312 H 415.889 -3.33588 4.98838 0
M  V30 4313 H 416.959 -2.0541 4.39243 0
M  V30 4314 N 418.302 -1.35869 -0.798587 0
M  V30 4315 C 419.548 -1.2978 -1.55836 0
M  V30 4316 C 419.881 0.125322 -1.93795 0
M  V30 4317 O 419.156 1.07658 -1.61987 0
M  V30 4318 C 419.439 -2.21188 -2.84162 0
M  V30 4319 C 419.292 -3.72155 -2.52628 0
M  V30 4320 C 420.611 -2.11545 -3.85923 0
M  V30 4321 H 417.73 -0.472769 -0.565383 0
M  V30 4322 H 420.372 -1.66341 -0.918192 0
M  V30 4323 H 418.522 -1.90139 -3.38791 0
M  V30 4324 H 420.194 -4.13682 -2.04121 0
M  V30 4325 H 418.437 -3.92042 -1.85704 0
M  V30 4326 H 419.108 -4.31511 -3.44242 0
M  V30 4327 H 421.584 -2.38855 -3.40716 0
M  V30 4328 H 420.46 -2.77688 -4.73477 0
M  V30 4329 H 420.721 -1.09987 -4.282 0
M  V30 4330 N 419.78 1.02168 -1.19998 0
M  V30 4331 C 420.71 2.12488 -0.96804 0
M  V30 4332 C 421.691 1.69799 0.101185 0
M  V30 4333 O 422.876 1.94121 -0.0552993 0
M  V30 4334 C 420.006 3.43479 -0.513776 0
M  V30 4335 C 418.96 3.99884 -1.52566 0
M  V30 4336 C 418.286 5.26582 -0.928214 0
M  V30 4337 C 419.586 4.33861 -2.90795 0
M  V30 4338 H 421.28 2.32149 -1.89069 0
M  V30 4339 H 418.826 1.11564 -0.910468 0
M  V30 4340 H 420.779 4.20036 -0.338774 0
M  V30 4341 H 419.503 3.23561 0.444493 0
M  V30 4342 H 418.162 3.25429 -1.68794 0
M  V30 4343 H 417.81 5.02986 0.0378289 0
M  V30 4344 H 417.51 5.65284 -1.60397 0
M  V30 4345 H 419.034 6.05799 -0.764167 0
M  V30 4346 H 420.448 5.01327 -2.78109 0
M  V30 4347 H 418.845 4.83664 -3.55231 0
M  V30 4348 H 419.915 3.42848 -3.42904 0
M  V30 4349 N 421.258 1.00505 1.21394 0
M  V30 4350 C 422.19 0.52372 2.23136 0
M  V30 4351 C 423.203 -0.387714 1.58116 0
M  V30 4352 O 424.392 -0.187905 1.77508 0
M  V30 4353 C 421.492 -0.258885 3.3791 0
M  V30 4354 C 420.665 0.651634 4.32519 0
M  V30 4355 C 419.724 -0.0813705 5.26137 0
M  V30 4356 O 418.75 0.537295 5.66658 0
M  V30 4357 N 419.952 -1.35992 5.64346 0
M  V30 4358 H 422.717 1.39865 2.65062 0
M  V30 4359 H 420.278 0.881196 1.35818 0
M  V30 4360 H 422.27 -0.758208 3.97534 0
M  V30 4361 H 420.84 -1.035 2.94968 0
M  V30 4362 H 420.06 1.33145 3.71034 0
M  V30 4363 H 421.348 1.27129 4.92662 0
M  V30 4364 H 420.746 -1.88368 5.33417 0
M  V30 4365 H 419.303 -1.8042 6.26332 0
M  V30 4366 N 422.737 -1.36956 0.779787 0
M  V30 4367 C 423.7 -2.2851 0.177662 0
M  V30 4368 C 424.7 -1.48393 -0.619377 0
M  V30 4369 O 425.89 -1.68505 -0.441785 0
M  V30 4370 C 423.022 -3.32428 -0.755279 0
M  V30 4371 H 424.215 -2.83269 0.984823 0
M  V30 4372 H 421.768 -1.46358 0.548544 0
M  V30 4373 H 422.503 -2.82808 -1.58714 0
M  V30 4374 H 422.288 -3.91659 -0.185817 0
M  V30 4375 H 423.778 -4.00824 -1.17174 0
M  V30 4376 N 424.215 -0.530993 -1.48385 0
M  V30 4377 C 425.145 0.219985 -2.32461 0
M  V30 4378 C 426.126 0.934111 -1.42156 0
M  V30 4379 O 427.311 0.919694 -1.71042 0
M  V30 4380 C 424.441 1.26674 -3.23375 0
M  V30 4381 C 423.395 0.67069 -4.22712 0
M  V30 4382 C 422.721 1.82017 -5.02766 0
M  V30 4383 C 424.021 -0.358268 -5.2107 0
M  V30 4384 H 425.715 -0.48187 -2.95497 0
M  V30 4385 H 423.261 -0.233182 -1.42099 0
M  V30 4386 H 425.214 1.80006 -3.81019 0
M  V30 4387 H 423.938 1.99818 -2.58341 0
M  V30 4388 H 422.597 0.158878 -3.66256 0
M  V30 4389 H 422.245 2.54002 -4.34157 0
M  V30 4390 H 421.945 1.42727 -5.70003 0
M  V30 4391 H 423.469 2.35725 -5.63264 0
M  V30 4392 H 424.883 0.0880081 -5.73232 0
M  V30 4393 H 423.28 -0.66861 -5.96364 0
M  V30 4394 H 424.35 -1.26367 -4.68145 0
M  V30 4395 N 425.693 1.55336 -0.266172 0
M  V30 4396 C 426.941 1.99003 0.35246 0
M  V30 4397 C 427.262 1.15591 1.57047 0
M  V30 4398 O 426.532 0.243268 1.94384 0
M  V30 4399 H 425.112 0.735025 0.133217 0
M  V30 4400 H 427.774 1.91367 -0.369434 0
M  V30 4401 H 426.87 3.05289 0.648453 0
M  V30 4402 N 427.171 -0.0066808 1.57599 0
M  V30 4403 C 428.582 -0.550379 1.78403 0
M  V30 4404 C 428.933 -1.74339 0.900014 0
M  V30 4405 O 428.058 -2.16166 0.100713 0
M  V30 4406 C 428.653 -1.00523 3.23544 0
M  V30 4407 C 427.212 -1.49428 3.45468 0
M  V30 4408 C 426.359 -0.442444 2.73748 0
M  V30 4409 H 429.31 0.219508 1.57175 0
M  V30 4410 H 429.331 -1.87157 3.31289 0
M  V30 4411 H 428.843 -0.136735 3.87859 0
M  V30 4412 H 426.944 -2.3839 2.86358 0
M  V30 4413 H 427.057 -1.52635 4.54136 0
M  V30 4414 H 425.421 -0.902578 2.38171 0
M  V30 4415 H 426.204 0.416973 3.40758 0
M  V30 4416 N 428.649 -1.55105 -0.279332 0
M  V30 4417 C 429.612 -1.86783 -1.32834 0
M  V30 4418 C 430.612 -0.74199 -1.42657 0
M  V30 4419 O 431.802 -1.0102 -1.41918 0
M  V30 4420 C 428.934 -2.06746 -2.71052 0
M  V30 4421 H 430.127 -2.8055 -1.05979 0
M  V30 4422 H 427.68 -1.47499 -0.517087 0
M  V30 4423 H 428.415 -1.15339 -3.03097 0
M  V30 4424 H 428.2 -2.88711 -2.65309 0
M  V30 4425 H 429.69 -2.32549 -3.46858 0
M  V30 4426 N 430.127 0.543554 -1.4793 0
M  V30 4427 C 431.375 1.29752 -1.54948 0
M  V30 4428 C 431.696 1.93764 -0.219242 0
M  V30 4429 O 430.966 1.80639 0.75805 0
M  V30 4430 H 429.546 0.481874 -0.570795 0
M  V30 4431 H 432.208 0.633636 -1.84312 0
M  V30 4432 H 431.304 2.08392 -2.32334 0
M  V30 4433 N 431.605 1.3629 0.791371 0
M  V30 4434 C 432.83 1.33726 1.58531 0
M  V30 4435 C 433.255 -0.0794933 1.87932 0
M  V30 4436 O 432.613 -1.05087 1.47738 0
M  V30 4437 C 432.661 2.16425 2.88431 0
M  V30 4438 O 431.765 1.5554 3.81944 0
M  V30 4439 H 431.106 0.457793 0.480959 0
M  V30 4440 H 433.636 1.79547 0.981031 0
M  V30 4441 H 433.646 2.28933 3.37718 0
M  V30 4442 H 432.321 3.19415 2.66359 0
M  V30 4443 H 430.898 1.51961 3.40532 0
M  V30 4444 N 433.083 -1.0153 1.20538 0
M  V30 4445 C 434.329 -1.75517 1.02787 0
M  V30 4446 C 434.684 -1.87411 -0.435289 0
M  V30 4447 O 433.977 -1.38982 -1.31889 0
M  V30 4448 C 434.171 -3.17213 1.64654 0
M  V30 4449 C 434 -3.19134 3.16834 0
M  V30 4450 C 432.77 -3.26301 3.85818 0
M  V30 4451 C 434.968 -3.05077 4.14044 0
M  V30 4452 N 432.95 -3.17739 5.25276 0
M  V30 4453 C 434.321 -3.04299 5.40187 0
M  V30 4454 C 436.376 -2.89303 4.05226 0
M  V30 4455 C 435.079 -2.89365 6.58529 0
M  V30 4456 C 437.105 -2.75723 5.23193 0
M  V30 4457 C 436.467 -2.75612 6.48242 0
M  V30 4458 H 432.566 -0.652919 0.430373 0
M  V30 4459 H 435.15 -1.20755 1.52729 0
M  V30 4460 H 433.321 -3.70266 1.17294 0
M  V30 4461 H 435.053 -3.79637 1.40208 0
M  V30 4462 H 431.808 -3.33078 3.36684 0
M  V30 4463 H 432.232 -3.16829 5.98288 0
M  V30 4464 H 436.874 -2.88201 3.09354 0
M  V30 4465 H 434.592 -2.89216 7.54573 0
M  V30 4466 H 438.178 -2.64533 5.18183 0
M  V30 4467 H 437.058 -2.65224 7.37988 0
M  V30 4468 N 434.561 -1.01147 -1.20859 0
M  V30 4469 C 435.511 -0.548247 -2.2131 0
M  V30 4470 C 436.495 0.393646 -1.5601 0
M  V30 4471 O 437.687 0.217445 -1.75659 0
M  V30 4472 C 434.816 0.117252 -3.431 0
M  V30 4473 C 433.902 -0.846043 -4.15575 0
M  V30 4474 N 434.293 -2.00149 -4.64515 0
M  V30 4475 C 432.591 -0.665783 -4.41003 0
M  V30 4476 C 433.292 -2.60764 -5.19978 0
M  V30 4477 N 432.268 -1.88868 -5.09735 0
M  V30 4478 H 436.07 -1.42921 -2.56809 0
M  V30 4479 H 433.584 -0.876142 -1.36739 0
M  V30 4480 H 435.581 0.46662 -4.1428 0
M  V30 4481 H 434.241 0.994115 -3.09107 0
M  V30 4482 H 435.252 -2.38162 -4.5989 0
M  V30 4483 H 431.929 0.163456 -4.1718 0
M  V30 4484 H 433.319 -3.58519 -5.68255 0
M  V30 4485 N 436.039 1.36541 -0.78704 0
M  V30 4486 C 437.45 1.81873 -0.421807 0
M  V30 4487 C 437.801 1.65487 1.05397 0
M  V30 4488 O 436.926 1.17448 1.81755 0
M  V30 4489 C 437.521 3.30192 -0.758841 0
M  V30 4490 C 436.08 3.73743 -0.446468 0
M  V30 4491 C 435.227 2.58844 -0.994728 0
M  V30 4492 H 438.178 1.24796 -0.98039 0
M  V30 4493 H 438.199 3.80468 -0.0490648 0
M  V30 4494 H 437.711 3.42087 -1.83299 0
M  V30 4495 H 435.812 3.6741 0.619739 0
M  V30 4496 H 435.925 4.69272 -0.965415 0
M  V30 4497 H 434.289 2.51245 -0.418087 0
M  V30 4498 H 435.072 2.73525 -2.07458 0
M  V30 4499 N 437.518 0.538854 1.48102 0
M  V30 4500 C 438.934 0.19732 1.58376 0
M  V30 4501 C 439.134 -1.29971 1.5398 0
M  V30 4502 O 438.19 -2.07861 1.43352 0
M  V30 4503 C 439.503 0.807716 2.89649 0
M  V30 4504 C 441.051 0.77726 3.03196 0
M  V30 4505 C 441.526 1.36639 4.37143 0
M  V30 4506 N 443.017 1.32875 4.43732 0
M  V30 4507 C 443.752 1.7544 5.45901 0
M  V30 4508 N 443.248 2.25776 6.54979 0
M  V30 4509 N 445.041 1.66623 5.36836 0
M  V30 4510 H 437.192 1.5117 1.49202 0
M  V30 4511 H 439.455 0.629327 0.708979 0
M  V30 4512 H 439.161 1.85909 2.98548 0
M  V30 4513 H 439.035 0.289975 3.76084 0
M  V30 4514 H 441.422 -0.265374 2.93904 0
M  V30 4515 H 441.503 1.33256 2.18349 0
M  V30 4516 H 441.147 2.408 4.47189 0
M  V30 4517 H 441.077 0.786689 5.20691 0
M  V30 4518 H 443.568 0.96037 3.65493 0
M  V30 4519 H 443.881 2.56226 7.29087 0
M  V30 4520 H 442.226 2.29775 6.55918 0
M  V30 4521 H 445.417 1.27089 4.50517 0
M  V30 4522 H 445.59 2.00115 6.16326 0
M  V30 4523 N 438.996 -1.55193 0.274407 0
M  V30 4524 C 440.221 -2.04446 -0.348824 0
M  V30 4525 C 440.646 -1.15149 -1.48735 0
M  V30 4526 O 440.004 -0.149952 -1.80679 0
M  V30 4527 C 440.052 -3.51431 -0.808009 0
M  V30 4528 O 439.156 -3.65225 -1.91531 0
M  V30 4529 H 438.497 -0.66006 -0.0722276 0
M  V30 4530 H 441.027 -2.00481 0.408498 0
M  V30 4531 H 441.037 -3.92781 -1.10395 0
M  V30 4532 H 439.712 -4.15892 0.0249865 0
M  V30 4533 H 438.289 -3.35778 -1.62196 0
M  V30 4534 N 440.474 -0.00167713 -1.576 0
M  V30 4535 C 441.704 0.692754 -1.94639 0
M  V30 4536 C 442.112 1.67744 -0.87513 0
M  V30 4537 O 441.455 1.8305 0.154382 0
M  V30 4538 C 441.517 1.47881 -3.27676 0
M  V30 4539 C 441.181 0.655518 -4.52274 0
M  V30 4540 C 442.178 -0.0575214 -5.19868 0
M  V30 4541 C 439.863 0.600994 -4.98692 0
M  V30 4542 C 441.857 -0.814052 -6.3218 0
M  V30 4543 C 439.544 -0.15926 -6.10892 0
M  V30 4544 C 440.542 -0.865515 -6.77494 0
M  V30 4545 O 440.23 -1.61336 -7.87544 0
M  V30 4546 H 439.962 0.197792 -0.646417 0
M  V30 4547 H 442.516 -0.049423 -2.05341 0
M  V30 4548 H 440.746 2.2655 -3.13388 0
M  V30 4549 H 442.435 2.05874 -3.49816 0
M  V30 4550 H 443.201 -0.0245611 -4.84994 0
M  V30 4551 H 439.08 1.14025 -4.46676 0
M  V30 4552 H 442.624 -1.36584 -6.84098 0
M  V30 4553 H 438.521 -0.194035 -6.45208 0
M  V30 4554 H 439.289 -1.53025 -8.04068 0
M  V30 4555 N 441.952 1.55251 0.271103 0
M  V30 4556 C 442.915 1.87484 1.31842 0
M  V30 4557 C 443.915 0.749545 1.42262 0
M  V30 4558 O 445.105 1.01771 1.4138 0
M  V30 4559 C 442.237 2.0818 2.69951 0
M  V30 4560 H 443.43 2.81108 1.0449 0
M  V30 4561 H 440.983 1.47771 0.509258 0
M  V30 4562 H 441.718 1.16944 3.02481 0
M  V30 4563 H 441.503 2.90114 2.63774 0
M  V30 4564 H 442.993 2.34385 3.4562 0
M  V30 4565 N 443.43 -0.535701 1.48216 0
M  V30 4566 C 444.393 -1.623 1.61838 0
M  V30 4567 C 445.393 -1.53087 0.492024 0
M  V30 4568 O 446.583 -1.5686 0.757668 0
M  V30 4569 C 443.715 -3.01907 1.58319 0
M  V30 4570 H 444.908 -1.51564 2.58783 0
M  V30 4571 H 442.461 -0.757317 1.36727 0
M  V30 4572 H 443.196 -3.18155 0.628299 0
M  V30 4573 H 442.981 -3.10003 2.40085 0
M  V30 4574 H 444.471 -3.80969 1.71033 0
M  V30 4575 N 444.908 -1.36708 -0.784132 0
M  V30 4576 C 446.138 -1.34203 -1.57077 0
M  V30 4577 C 446.546 0.0774945 -1.89041 0
M  V30 4578 O 445.889 1.04628 -1.50992 0
M  V30 4579 C 445.951 -2.10351 -2.91535 0
M  V30 4580 C 445.615 -3.59405 -2.82272 0
M  V30 4581 C 446.612 -4.53545 -2.54151 0
M  V30 4582 C 444.297 -4.02362 -3.00683 0
M  V30 4583 C 446.291 -5.8862 -2.44551 0
M  V30 4584 C 443.978 -5.37526 -2.90704 0
M  V30 4585 C 444.976 -6.30468 -2.62677 0
M  V30 4586 O 444.664 -7.63149 -2.52702 0
M  V30 4587 H 444.396 -0.461791 -0.493685 0
M  V30 4588 H 446.95 -1.80475 -0.980712 0
M  V30 4589 H 445.18 -1.5875 -3.52612 0
M  V30 4590 H 446.869 -2.00636 -3.52845 0
M  V30 4591 H 447.635 -4.21669 -2.39625 0
M  V30 4592 H 443.514 -3.30389 -3.21503 0
M  V30 4593 H 447.058 -6.61133 -2.22596 0
M  V30 4594 H 442.955 -5.69008 -3.04795 0
M  V30 4595 H 443.723 -7.73331 -2.68144 0
M  V30 4596 N 446.386 1.0089 -1.21074 0
M  V30 4597 C 447.349 2.0775 -0.968129 0
M  V30 4598 C 448.349 1.6069 0.0593445 0
M  V30 4599 O 449.539 1.73293 -0.177525 0
M  V30 4600 C 446.671 3.37794 -0.459108 0
M  V30 4601 H 447.864 2.30707 -1.9161 0
M  V30 4602 H 445.417 1.17807 -1.02719 0
M  V30 4603 H 446.152 3.20516 0.49397 0
M  V30 4604 H 445.937 3.7328 -1.20019 0
M  V30 4605 H 447.427 4.16454 -0.309099 0
M  V30 4606 N 447.864 1.01787 1.20321 0
M  V30 4607 C 448.794 0.609625 2.25401 0
M  V30 4608 C 449.775 -0.375951 1.65893 0
M  V30 4609 O 450.96 -0.261101 1.92437 0
M  V30 4610 C 448.09 -0.0515995 3.47262 0
M  V30 4611 C 447.044 0.855095 4.19371 0
M  V30 4612 C 446.37 0.0595757 5.34667 0
M  V30 4613 C 447.67 2.16374 4.75373 0
M  V30 4614 H 449.364 1.48803 2.59804 0
M  V30 4615 H 446.91 0.716934 1.24884 0
M  V30 4616 H 448.863 -0.348764 4.19954 0
M  V30 4617 H 447.587 -0.964726 3.12027 0
M  V30 4618 H 446.246 1.13628 3.48546 0
M  V30 4619 H 445.894 -0.85524 4.95676 0
M  V30 4620 H 445.594 0.663406 5.83843 0
M  V30 4621 H 447.118 -0.231105 6.10162 0
M  V30 4622 H 448.532 1.92885 5.39878 0
M  V30 4623 H 446.929 2.71853 5.34991 0
M  V30 4624 H 447.999 2.82589 3.94045 0
M  V30 4625 N 449.342 -1.36122 0.79427 0
M  V30 4626 C 450.289 -2.29982 0.194101 0
M  V30 4627 C 451.259 -1.52214 -0.664833 0
M  V30 4628 O 452.444 -1.80702 -0.612498 0
M  V30 4629 C 449.584 -3.38706 -0.661244 0
M  V30 4630 C 448.697 -4.31456 0.216766 0
M  V30 4631 C 447.832 -5.27265 -0.645411 0
M  V30 4632 C 446.871 -6.11653 0.233756 0
M  V30 4633 N 446.008 -6.99636 -0.587682 0
M  V30 4634 H 450.848 -2.80722 0.999965 0
M  V30 4635 H 448.385 -1.38172 0.504677 0
M  V30 4636 H 450.343 -4.00394 -1.17219 0
M  V30 4637 H 448.973 -2.89274 -1.43249 0
M  V30 4638 H 448.025 -3.7088 0.845724 0
M  V30 4639 H 449.337 -4.90724 0.893973 0
M  V30 4640 H 448.491 -5.94266 -1.22198 0
M  V30 4641 H 447.23 -4.68463 -1.35623 0
M  V30 4642 H 446.235 -5.4361 0.82269 0
M  V30 4643 H 447.46 -6.72531 0.942247 0
M  V30 4644 H 445.406 -6.43337 -1.2827 0
M  V30 4645 H 445.323 -7.55993 0.0317402 0
M  V30 4646 H 446.591 -7.71001 -1.14792 0
M  V30 4647 N 450.82 -0.546701 -1.47814 0
M  V30 4648 C 452.048 -0.0232857 -2.06887 0
M  V30 4649 C 452.463 1.26571 -1.4009 0
M  V30 4650 O 451.82 1.7569 -0.493906 0
M  V30 4651 C 451.871 0.186975 -3.61016 0
M  V30 4652 O 451.592 -1.05097 -4.25307 0
M  V30 4653 C 453.093 0.748872 -4.36929 0
M  V30 4654 H 450.313 -0.0410763 -0.669742 0
M  V30 4655 H 452.857 -0.757117 -1.89968 0
M  V30 4656 H 451.012 0.870903 -3.77484 0
M  V30 4657 H 451.426 -0.842121 -5.17695 0
M  V30 4658 H 452.9 0.845334 -5.45489 0
M  V30 4659 H 453.377 1.75772 -4.02493 0
M  V30 4660 H 453.983 0.100979 -4.2518 0
M  V30 4661 N 452.299 1.55045 -0.282633 0
M  V30 4662 C 453.545 2.0078 0.325436 0
M  V30 4663 C 453.9 1.1676 1.52921 0
M  V30 4664 O 453.193 0.231475 1.90197 0
M  V30 4665 C 453.387 3.49422 0.750938 0
M  V30 4666 C 453.216 4.47827 -0.410056 0
M  V30 4667 C 451.986 4.97288 -0.896239 0
M  V30 4668 C 454.184 4.98903 -1.24902 0
M  V30 4669 N 452.166 5.79508 -2.02591 0
M  V30 4670 C 453.537 5.78644 -2.22646 0
M  V30 4671 C 455.592 4.81126 -1.2815 0
M  V30 4672 C 454.295 6.42502 -3.23393 0
M  V30 4673 C 456.321 5.45789 -2.27745 0
M  V30 4674 C 455.683 6.25348 -3.24222 0
M  V30 4675 H 451.782 0.77747 0.08405 0
M  V30 4676 H 454.366 1.90369 -0.408368 0
M  V30 4677 H 452.537 3.60159 1.45395 0
M  V30 4678 H 454.269 3.81978 1.33698 0
M  V30 4679 H 451.024 4.71219 -0.474277 0
M  V30 4680 H 451.448 6.25308 -2.59459 0
M  V30 4681 H 456.09 4.19215 -0.549397 0
M  V30 4682 H 453.808 7.03558 -3.97533 0
M  V30 4683 H 457.394 5.33972 -2.31009 0
M  V30 4684 H 456.274 6.74498 -4.00027 0
M  V30 4685 N 453.777 0.010035 1.57597 0
M  V30 4686 C 454.74 -0.963029 2.07986 0
M  V30 4687 C 455.74 -1.26619 0.991173 0
M  V30 4688 O 456.93 -1.2097 1.25347 0
M  V30 4689 C 454.062 -2.2851 2.52974 0
M  V30 4690 H 455.255 -0.526971 2.95234 0
M  V30 4691 H 452.808 -0.237639 1.54483 0
M  V30 4692 H 453.543 -2.76784 1.69 0
M  V30 4693 H 453.328 -2.07824 3.32493 0
M  V30 4694 H 454.818 -2.98294 2.9225 0
M  V30 4695 N 455.255 -1.55392 -0.262866 0
M  V30 4696 C 456.205 -1.85355 -1.32768 0
M  V30 4697 C 457.189 -0.713188 -1.44231 0
M  V30 4698 O 458.381 -0.974765 -1.47741 0
M  V30 4699 C 455.51 -2.13781 -2.68612 0
M  V30 4700 C 454.596 -3.34104 -2.61219 0
M  V30 4701 N 454.987 -4.53766 -2.2345 0
M  V30 4702 C 453.285 -3.36895 -2.92263 0
M  V30 4703 C 453.986 -5.35877 -2.26298 0
M  V30 4704 N 452.962 -4.74536 -2.65172 0
M  V30 4705 H 456.764 -2.75413 -1.02591 0
M  V30 4706 H 454.278 -1.55405 -0.471503 0
M  V30 4707 H 456.275 -2.33407 -3.45437 0
M  V30 4708 H 454.935 -1.25013 -2.99669 0
M  V30 4709 H 455.946 -4.79682 -1.95258 0
M  V30 4710 H 452.623 -2.58351 -3.27965 0
M  V30 4711 H 454.013 -6.41577 -1.99572 0
M  V30 4712 N 456.733 0.527833 -1.48498 0
M  V30 4713 C 457.973 1.29401 -1.58224 0
M  V30 4714 C 458.337 1.90348 -0.251327 0
M  V30 4715 O 459.538 2.67868 -0.223588 0
M  V30 4716 C 457.809 2.35266 -2.69044 0
M  V30 4717 S 459.368 3.2158 -2.98549 0
M  V30 4718 H 456.186 0.440138 -0.558391 0
M  V30 4719 H 458.788 0.601079 -1.8603 0
M  V30 4720 H 457.492 1.88975 -3.64303 0
M  V30 4721 H 457.023 3.09263 -2.43146 0
M  V30 4722 H 459.038 4.35391 -2.38011 0
M  V30 4723 N 458.211 1.37122 0.776871 0
M  V30 4724 C 459.144 1.26835 1.89705 0
M  V30 4725 C 460.122 0.14992 1.61907 0
M  V30 4726 O 461.306 0.323242 1.85708 0
M  V30 4727 C 458.433 0.95986 3.24814 0
M  V30 4728 C 457.479 2.09447 3.7153 0
M  V30 4729 S 458.312 3.71368 3.85806 0
M  V30 4730 C 459.468 3.42659 5.23771 0
M  V30 4731 H 459.701 2.21647 1.98141 0
M  V30 4732 H 457.234 1.22685 0.937433 0
M  V30 4733 H 459.192 0.788696 4.02852 0
M  V30 4734 H 457.853 0.0293137 3.14086 0
M  V30 4735 H 457.046 1.8335 4.69467 0
M  V30 4736 H 456.648 2.2255 3.00578 0
M  V30 4737 H 458.94 2.9733 6.0877 0
M  V30 4738 H 459.883 4.39905 5.54878 0
M  V30 4739 H 460.291 2.77708 4.91466 0
M  V30 4740 N 459.689 -1.00246 1.21608 0
M  V30 4741 C 460.914 -1.78167 1.06167 0
M  V30 4742 C 461.339 -1.84138 -0.384035 0
M  V30 4743 O 460.697 -1.28683 -1.27712 0
M  V30 4744 C 460.745 -3.19786 1.66642 0
M  V30 4745 O 459.849 -4.02153 0.913613 0
M  V30 4746 H 459.19 -0.549 0.37349 0
M  V30 4747 H 461.72 -1.25994 1.61204 0
M  V30 4748 H 461.73 -3.70451 1.70969 0
M  V30 4749 H 460.405 -3.14754 2.7185 0
M  V30 4750 H 458.982 -3.60711 0.945635 0
M  V30 4751 N 461.167 -1.02423 -1.1978 0
M  V30 4752 C 462.397 -0.736387 -1.93031 0
M  V30 4753 C 462.805 0.708023 -1.75453 0
M  V30 4754 O 462.148 1.4927 -1.07071 0
M  V30 4755 C 462.21 -1.00194 -3.45255 0
M  V30 4756 C 461.874 -2.43698 -3.86601 0
M  V30 4757 C 462.871 -3.41814 -3.91738 0
M  V30 4758 C 460.556 -2.77975 -4.18372 0
M  V30 4759 C 462.55 -4.72265 -4.28071 0
M  V30 4760 C 460.237 -4.08636 -4.54378 0
M  V30 4761 C 461.235 -5.05592 -4.59201 0
M  V30 4762 O 460.923 -6.33914 -4.94376 0
M  V30 4763 H 460.655 -0.269116 -0.620123 0
M  V30 4764 H 463.209 -1.37043 -1.52998 0
M  V30 4765 H 461.439 -0.310747 -3.85449 0
M  V30 4766 H 463.128 -0.704488 -3.9974 0
M  V30 4767 H 463.894 -3.16671 -3.67348 0
M  V30 4768 H 459.773 -2.0319 -4.13805 0
M  V30 4769 H 463.317 -5.4794 -4.3175 0
M  V30 4770 H 459.214 -4.33556 -4.78226 0
M  V30 4771 H 459.982 -6.38317 -5.12341 0
M  V30 4772 N 462.645 1.35699 -0.801477 0
M  V30 4773 C 463.87 2.03687 -0.390678 0
M  V30 4774 C 464.295 1.60015 0.988778 0
M  V30 4775 O 463.653 0.774357 1.63931 0
M  V30 4776 C 463.701 3.57439 -0.476404 0
M  V30 4777 O 462.805 4.09208 0.512106 0
M  V30 4778 H 462.146 0.64344 -0.163956 0
M  V30 4779 H 464.676 1.73403 -1.08594 0
M  V30 4780 H 464.686 4.06544 -0.344357 0
M  V30 4781 H 463.361 3.88576 -1.48262 0
M  V30 4782 H 461.938 3.7134 0.340721 0
M  V30 4783 N 464.123 0.554532 1.47522 0
M  V30 4784 C 465.071 -0.207765 2.3167 0
M  V30 4785 C 466.065 -0.911914 1.4276 0
M  V30 4786 O 467.271 -0.833504 1.59539 0
M  V30 4787 H 463.646 -0.0858726 0.747081 0
M  V30 4788 H 465.617 0.521178 2.93813 0
M  V30 4789 C 464.366 -1.2263 3.25357 0
M  V30 4790 H 463.689 -0.693887 3.93732 0
M  V30 4791 H 465.129 -1.73062 3.87073 0
M  V30 4792 C 463.588 -2.27278 2.4869 0
M  V30 4793 O 464.118 -3.34156 2.22941 0
M  V30 4794 N 462.324 -2.01134 2.09746 0
M  V30 4795 H 461.871 -1.14232 2.30887 0
M  V30 4796 H 461.829 -2.71369 1.58765 0
M  V30 4797 N 465.601 -1.54893 0.290851 0
M  V30 4798 C 466.826 -2.04804 -0.32712 0
M  V30 4799 C 467.251 -1.16721 -1.47506 0
M  V30 4800 O 466.609 -0.169107 -1.8051 0
M  V30 4801 C 466.657 -3.52268 -0.770689 0
M  V30 4802 O 465.761 -3.67236 -1.87647 0
M  V30 4803 H 465.102 -0.660789 -0.0652227 0
M  V30 4804 H 467.632 -2.00036 0.429739 0
M  V30 4805 H 467.642 -3.9393 -1.06223 0
M  V30 4806 H 466.317 -4.15843 0.069096 0
M  V30 4807 H 464.894 -3.37479 -1.58626 0
M  V30 4808 N 467.08 -0.0183926 -1.57589 0
M  V30 4809 C 468.043 0.951986 -2.08494 0
M  V30 4810 C 469.043 1.26092 -0.997874 0
M  V30 4811 O 470.233 1.20304 -1.25987 0
M  V30 4812 C 467.365 2.27165 -2.54182 0
M  V30 4813 H 468.558 0.511307 -2.95509 0
M  V30 4814 H 466.111 0.229444 -1.54607 0
M  V30 4815 H 466.846 2.75884 -1.70465 0
M  V30 4816 H 466.631 2.06057 -3.33591 0
M  V30 4817 H 468.121 2.9674 -2.93828 0
M  V30 4818 N 468.558 1.5553 0.254621 0
M  V30 4819 C 469.488 1.9268 1.31897 0
M  V30 4820 C 470.469 0.790797 1.506 0
M  V30 4821 O 471.654 1.05045 1.63337 0
M  V30 4822 C 468.784 2.21477 2.67517 0
M  V30 4823 C 467.738 3.37256 2.63519 0
M  V30 4824 C 467.064 3.51576 4.02862 0
M  V30 4825 C 468.364 4.73157 2.21179 0
M  V30 4826 H 470.058 2.81832 1.01051 0
M  V30 4827 H 467.604 1.35599 0.484662 0
M  V30 4828 H 469.557 2.46055 3.42104 0
M  V30 4829 H 468.281 1.29144 2.99982 0
M  V30 4830 H 466.94 3.12675 1.9139 0
M  V30 4831 H 466.588 2.56676 4.32581 0
M  V30 4832 H 466.288 4.2943 4.01078 0
M  V30 4833 H 467.812 3.78467 4.79161 0
M  V30 4834 H 469.226 4.97158 2.85494 0
M  V30 4835 H 467.623 5.54058 2.30521 0
M  V30 4836 H 468.693 4.70739 1.16332 0
M  V30 4837 N 470.036 -0.519951 1.48776 0
M  V30 4838 C 470.984 -1.64443 1.64503 0
M  V30 4839 C 471.978 -1.61501 0.511248 0
M  V30 4840 O 473.184 -1.66238 0.690294 0
M  V30 4841 H 469.559 -0.544776 0.518385 0
M  V30 4842 H 471.53 -1.48325 2.58925 0
M  V30 4843 C 470.279 -3.02673 1.71127 0
M  V30 4844 H 469.602 -3.05635 2.57735 0
M  V30 4845 H 471.042 -3.80941 1.86172 0
M  V30 4846 C 469.501 -3.33854 0.452032 0
M  V30 4847 O 470.031 -3.99385 -0.430678 0
M  V30 4848 N 468.237 -2.88825 0.32069 0
M  V30 4849 H 467.784 -2.35674 1.03998 0
M  V30 4850 H 467.742 -3.10056 -0.520814 0
M  V30 4851 N 471.514 -1.37532 -0.769588 0
M  V30 4852 C 472.925 -1.29382 -1.346 0
M  V30 4853 C 473.276 0.0576039 -1.96115 0
M  V30 4854 O 472.401 0.95947 -1.93967 0
M  V30 4855 C 472.996 -2.34298 -2.44724 0
M  V30 4856 C 471.555 -2.29776 -2.98128 0
M  V30 4857 C 470.702 -2.18013 -1.71364 0
M  V30 4858 H 473.653 -1.48123 -0.56968 0
M  V30 4859 H 473.674 -1.99089 -3.24259 0
M  V30 4860 H 473.186 -3.32645 -1.99922 0
M  V30 4861 H 471.287 -1.34959 -3.47299 0
M  V30 4862 H 471.4 -3.23276 -3.53595 0
M  V30 4863 H 469.764 -1.64595 -1.94372 0
M  V30 4864 H 470.547 -3.18278 -1.28662 0
M  V30 4865 N 472.992 0.995999 -1.22138 0
M  V30 4866 C 473.922 2.10387 -1.01289 0
M  V30 4867 C 474.903 1.69975 0.0651454 0
M  V30 4868 O 476.088 1.9396 -0.0964628 0
M  V30 4869 C 473.218 3.42312 -0.586517 0
M  V30 4870 C 472.172 3.96558 -1.61014 0
M  V30 4871 C 471.498 5.24494 -1.0397 0
M  V30 4872 C 472.798 4.27595 -2.99933 0
M  V30 4873 H 474.492 2.28086 -1.93951 0
M  V30 4874 H 472.038 1.09607 -0.933928 0
M  V30 4875 H 473.991 4.19223 -0.427793 0
M  V30 4876 H 472.715 3.24431 0.375761 0
M  V30 4877 H 471.374 3.21776 -1.75658 0
M  V30 4878 H 471.022 5.02953 -0.0688703 0
M  V30 4879 H 470.722 5.61755 -1.72352 0
M  V30 4880 H 472.246 6.04042 -0.892494 0
M  V30 4881 H 473.66 4.95315 -2.8868 0
M  V30 4882 H 472.057 4.76021 -3.6541 0
M  V30 4883 H 473.127 3.35498 -3.50099 0
M  V30 4884 N 474.47 1.03057 1.19235 0
M  V30 4885 C 475.4 0.633497 2.24742 0
M  V30 4886 C 476.381 -0.358335 1.66283 0
M  V30 4887 O 477.566 -0.240676 1.92703 0
M  V30 4888 C 474.696 -0.0147648 3.47297 0
M  V30 4889 C 473.65 0.899527 4.18441 0
M  V30 4890 C 472.976 0.116281 5.34574 0
M  V30 4891 C 474.276 2.21404 4.73051 0
M  V30 4892 H 475.97 1.5155 2.58211 0
M  V30 4893 H 473.516 0.73014 1.24117 0
M  V30 4894 H 475.469 -0.304202 4.20301 0
M  V30 4895 H 474.193 -0.931577 3.13032 0
M  V30 4896 H 472.852 1.17319 3.47321 0
M  V30 4897 H 472.5 -0.802619 4.96555 0
M  V30 4898 H 472.2 0.725293 5.83107 0
M  V30 4899 H 473.724 -0.166376 6.10373 0
M  V30 4900 H 475.138 1.98601 5.37802 0
M  V30 4901 H 473.535 2.77512 5.32078 0
M  V30 4902 H 474.605 2.86752 3.91026 0
M  V30 4903 N 475.948 -1.35272 0.808662 0
M  V30 4904 C 477.178 -2.02652 0.401953 0
M  V30 4905 C 477.586 -1.6108 -0.992462 0
M  V30 4906 O 476.929 -0.804984 -1.65123 0
M  V30 4907 C 476.991 -3.57174 0.408246 0
M  V30 4908 C 476.655 -4.22019 1.75353 0
M  V30 4909 C 477.652 -4.43552 2.71215 0
M  V30 4910 C 475.337 -4.59093 2.03811 0
M  V30 4911 C 477.331 -5.01264 3.93717 0
M  V30 4912 C 475.018 -5.16519 3.26576 0
M  V30 4913 C 476.016 -5.37546 4.21347 0
M  V30 4914 O 475.704 -5.93761 5.41944 0
M  V30 4915 H 475.436 -0.656495 0.161216 0
M  V30 4916 H 477.99 -1.73829 1.0942 0
M  V30 4917 H 476.22 -3.85197 -0.340608 0
M  V30 4918 H 477.909 -4.05893 0.0235623 0
M  V30 4919 H 478.675 -4.15288 2.50522 0
M  V30 4920 H 474.554 -4.42039 1.30854 0
M  V30 4921 H 478.098 -5.17592 4.67701 0
M  V30 4922 H 473.995 -5.4421 3.47139 0
M  V30 4923 H 474.763 -6.1221 5.43269 0
M  V30 4924 N 477.426 -0.562348 -1.47226 0
M  V30 4925 C 478.389 0.172056 -2.28553 0
M  V30 4926 C 479.389 0.837928 -1.37242 0
M  V30 4927 O 480.579 0.693001 -1.59822 0
M  V30 4928 C 477.711 1.25223 -3.17068 0
M  V30 4929 H 478.904 -0.542401 -2.94954 0
M  V30 4930 H 476.457 -0.319493 -1.53 0
M  V30 4931 H 477.192 1.99892 -2.55369 0
M  V30 4932 H 476.977 0.779515 -3.84273 0
M  V30 4933 H 478.467 1.76791 -3.78332 0
M  V30 4934 N 478.904 1.54736 -0.299062 0
M  V30 4935 C 480.151 2.00101 0.310784 0
M  V30 4936 C 480.479 1.18746 1.54045 0
M  V30 4937 O 479.734 0.251198 1.94081 0
M  V30 4938 C 480.033 3.50199 0.713835 0
M  V30 4939 C 479.699 4.48997 -0.413873 0
M  V30 4940 C 478.361 4.7573 -0.723462 0
M  V30 4941 C 480.713 5.07839 -1.17257 0
M  V30 4942 C 478.041 5.5857 -1.79491 0
M  V30 4943 C 480.393 5.91844 -2.23392 0
M  V30 4944 C 479.057 6.16889 -2.54959 0
M  V30 4945 H 478.327 0.732221 0.113724 0
M  V30 4946 H 480.974 1.86888 -0.417756 0
M  V30 4947 H 479.279 3.61012 1.52243 0
M  V30 4948 H 480.976 3.82723 1.19684 0
M  V30 4949 H 477.566 4.28292 -0.162476 0
M  V30 4950 H 481.75 4.87188 -0.946651 0
M  V30 4951 H 477.006 5.76213 -2.04423 0
M  V30 4952 H 481.18 6.36465 -2.8264 0
M  V30 4953 H 478.807 6.80869 -3.38114 0
M  V30 4954 N 480.382 0.0267497 1.57577 0
M  V30 4955 C 481.312 -0.954308 2.13108 0
M  V30 4956 C 482.293 -1.34088 1.04663 0
M  V30 4957 O 483.478 -1.41992 1.32484 0
M  V30 4958 C 480.608 -2.23744 2.65624 0
M  V30 4959 C 479.562 -1.99168 3.78835 0
M  V30 4960 C 478.888 -3.33726 4.17769 0
M  V30 4961 C 480.188 -1.33277 5.0501 0
M  V30 4962 H 481.882 -0.491848 2.95332 0
M  V30 4963 H 479.428 -0.23514 1.42067 0
M  V30 4964 H 481.381 -2.92754 3.03106 0
M  V30 4965 H 480.105 -2.72151 1.80558 0
M  V30 4966 H 478.764 -1.32577 3.41788 0
M  V30 4967 H 478.412 -3.79888 3.29688 0
M  V30 4968 H 478.112 -3.18089 4.94058 0
M  V30 4969 H 479.636 -4.04008 4.57832 0
M  V30 4970 H 481.05 -1.92283 5.40093 0
M  V30 4971 H 479.447 -1.28045 5.8628 0
M  V30 4972 H 480.517 -0.305411 4.83937 0
M  V30 4973 N 481.861 -1.55662 -0.24637 0
M  V30 4974 C 483.109 -1.77168 -0.972411 0
M  V30 4975 C 483.43 -0.590827 -1.85834 0
M  V30 4976 O 482.7 0.393365 -1.9191 0
M  V30 4977 H 481.28 -0.653405 -0.362038 0
M  V30 4978 H 483.942 -1.93101 -0.264189 0
M  V30 4979 H 483.038 -2.68335 -1.59382 0
M  V30 4980 N 483.339 0.512053 -1.4905 0
M  V30 4981 C 484.564 1.2959 -1.6193 0
M  V30 4982 C 484.989 1.85906 -0.286454 0
M  V30 4983 O 484.347 1.65312 0.744426 0
M  V30 4984 C 484.395 2.40987 -2.68249 0
M  V30 4985 O 483.499 3.44531 -2.26654 0
M  V30 4986 H 482.84 0.383053 -0.542371 0
M  V30 4987 H 485.37 0.614231 -1.95162 0
M  V30 4988 H 485.38 2.86913 -2.90078 0
M  V30 4989 H 484.055 1.99361 -3.65004 0
M  V30 4990 H 482.632 3.046 -2.15112 0
M  V30 4991 N 484.817 1.37938 0.762283 0
M  V30 4992 C 485.767 1.30976 1.86626 0
M  V30 4993 C 486.751 0.195714 1.59705 0
M  V30 4994 O 487.943 0.430937 1.71674 0
M  V30 4995 C 485.072 1.12847 3.24223 0
M  V30 4996 C 484.158 2.28836 3.57064 0
M  V30 4997 N 484.549 3.54256 3.61022 0
M  V30 4998 C 482.847 2.21198 3.87282 0
M  V30 4999 C 483.548 4.30798 3.90881 0
M  V30 5000 N 482.524 3.60049 4.07266 0
M  V30 5001 H 486.326 2.25946 1.87951 0
M  V30 5002 H 483.84 1.31046 0.959206 0
M  V30 5003 H 485.837 1.05943 4.03214 0
M  V30 5004 H 484.497 0.188024 3.24155 0
M  V30 5005 H 485.508 3.8804 3.42995 0
M  V30 5006 H 482.185 1.35264 3.94981 0
M  V30 5007 H 483.575 5.39386 4.00639 0
M  V30 5008 N 486.295 -0.989507 1.22664 0
M  V30 5009 C 487.542 -1.72953 1.05325 0
M  V30 5010 C 487.87 -1.90104 -0.411168 0
M  V30 5011 O 487.125 -1.44386 -1.32103 0
M  V30 5012 C 487.424 -3.13649 1.71345 0
M  V30 5013 C 487.09 -3.16403 3.21248 0
M  V30 5014 C 485.752 -3.16862 3.62149 0
M  V30 5015 C 488.104 -3.12428 4.17179 0
M  V30 5016 C 485.432 -3.11051 4.97458 0
M  V30 5017 C 487.784 -3.08159 5.52468 0
M  V30 5018 C 486.448 -3.06935 5.92746 0
M  V30 5019 H 485.718 -0.632881 0.385412 0
M  V30 5020 H 488.365 -1.15863 1.52473 0
M  V30 5021 H 486.67 -3.74069 1.16532 0
M  V30 5022 H 488.367 -3.69658 1.55416 0
M  V30 5023 H 484.957 -3.16798 2.88682 0
M  V30 5024 H 489.141 -3.11221 3.86595 0
M  V30 5025 H 484.397 -3.0845 5.27891 0
M  V30 5026 H 488.571 -3.04039 6.26525 0
M  V30 5027 H 486.198 -3.02186 6.97558 0
M  V30 5028 N 487.773 -1.03688 -1.18687 0
M  V30 5029 C 489.189 -0.755413 -1.4059 0
M  V30 5030 C 489.389 0.656659 -1.905 0
M  V30 5031 O 488.445 1.42144 -2.08689 0
M  V30 5032 C 489.758 -1.7983 -2.41001 0
M  V30 5033 C 491.306 -1.81877 -2.54735 0
M  V30 5034 C 491.781 -2.85148 -3.58406 0
M  V30 5035 N 493.272 -2.84015 -3.6591 0
M  V30 5036 C 494.007 -3.60573 -4.45841 0
M  V30 5037 N 493.503 -4.46871 -5.29413 0
M  V30 5038 N 495.296 -3.49079 -4.40568 0
M  V30 5039 H 487.447 -1.94818 -0.846148 0
M  V30 5040 H 489.71 -0.842727 -0.434184 0
M  V30 5041 H 489.416 -2.81097 -2.1137 0
M  V30 5042 H 489.29 -1.62727 -3.40294 0
M  V30 5043 H 491.677 -0.812836 -2.83685 0
M  V30 5044 H 491.758 -2.03057 -1.55568 0
M  V30 5045 H 491.402 -3.85918 -3.30197 0
M  V30 5046 H 491.332 -2.61224 -4.57241 0
M  V30 5047 H 493.823 -2.21431 -3.0623 0
M  V30 5048 H 494.136 -5.02007 -5.87545 0
M  V30 5049 H 492.481 -4.5094 -5.28846 0
M  V30 5050 H 495.672 -2.81066 -3.74325 0
M  V30 5051 H 495.845 -4.08994 -5.02621 0
M  V30 5052 N 489.251 1.34841 -0.815825 0
M  V30 5053 C 490.183 2.28409 -0.190265 0
M  V30 5054 C 491.196 1.50705 0.615771 0
M  V30 5055 O 492.385 1.72822 0.446616 0
M  V30 5056 C 489.485 3.30441 0.752446 0
M  V30 5057 C 488.658 4.37399 -0.00922152 0
M  V30 5058 C 487.717 5.19234 0.853351 0
M  V30 5059 O 486.743 5.68404 0.300919 0
M  V30 5060 N 487.945 5.38248 2.17416 0
M  V30 5061 H 490.71 2.82732 -0.994114 0
M  V30 5062 H 488.271 1.47289 -0.672129 0
M  V30 5063 H 490.263 3.82084 1.33394 0
M  V30 5064 H 488.833 2.76565 1.45707 0
M  V30 5065 H 488.053 3.86567 -0.771979 0
M  V30 5066 H 489.341 5.05992 -0.533807 0
M  V30 5067 H 488.739 4.99961 2.6468 0
M  V30 5068 H 487.296 5.93035 2.70467 0
M  V30 5069 N 490.729 0.570148 1.46925 0
M  V30 5070 C 491.692 -0.159933 2.28641 0
M  V30 5071 C 492.692 -0.830638 1.37685 0
M  V30 5072 O 493.882 -0.684516 1.60187 0
M  V30 5073 C 491.014 -1.2354 3.17727 0
M  V30 5074 H 492.207 0.558035 2.94662 0
M  V30 5075 H 489.76 0.327603 1.52828 0
M  V30 5076 H 490.495 -1.98535 2.56426 0
M  V30 5077 H 490.28 -0.759125 3.84681 0
M  V30 5078 H 491.77 -1.74782 3.79264 0
M  V30 5079 N 492.207 -1.54576 0.307264 0
M  V30 5080 C 493.454 -2.00263 -0.300167 0
M  V30 5081 C 493.782 -1.19561 -1.53413 0
M  V30 5082 O 493.037 -0.261487 -1.93945 0
M  V30 5083 C 493.336 -3.50572 -0.695253 0
M  V30 5084 C 493.002 -4.48771 0.437679 0
M  V30 5085 C 491.664 -4.7534 0.748681 0
M  V30 5086 C 494.016 -5.0721 1.19949 0
M  V30 5087 C 491.344 -5.5761 1.8245 0
M  V30 5088 C 493.696 -5.90651 2.26527 0
M  V30 5089 C 492.36 -6.15528 2.58227 0
M  V30 5090 H 491.63 -0.732814 -0.109839 0
M  V30 5091 H 494.277 -1.86664 0.427661 0
M  V30 5092 H 492.582 -3.61814 -1.50326 0
M  V30 5093 H 494.279 -3.83352 -1.17653 0
M  V30 5094 H 490.869 -4.282 0.185187 0
M  V30 5095 H 495.053 -4.86679 0.972474 0
M  V30 5096 H 490.309 -5.75121 2.07476 0
M  V30 5097 H 494.483 -6.34957 2.86011 0
M  V30 5098 H 492.11 -6.79066 3.4172 0
M  V30 5099 N 493.685 -0.035106 -1.57561 0
M  V30 5100 C 495.101 0.321334 -1.56332 0
M  V30 5101 C 495.301 1.72509 -1.04129 0
M  V30 5102 O 494.357 2.4287 -0.690694 0
M  V30 5103 C 495.67 0.164469 -3.0025 0
M  V30 5104 C 497.218 0.236786 -3.12103 0
M  V30 5105 C 497.693 0.10864 -4.57871 0
M  V30 5106 N 499.184 0.165433 -4.62904 0
M  V30 5107 C 499.919 0.0901506 -5.73329 0
M  V30 5108 N 499.415 -0.0365606 -6.9279 0
M  V30 5109 N 501.208 0.144572 -5.61914 0
M  V30 5110 H 493.359 -0.952976 -1.89821 0
M  V30 5111 H 495.622 -0.368537 -0.873432 0
M  V30 5112 H 495.328 -0.802746 -3.42416 0
M  V30 5113 H 495.202 0.932194 -3.655 0
M  V30 5114 H 497.589 1.19446 -2.69845 0
M  V30 5115 H 497.67 -0.561419 -2.49563 0
M  V30 5116 H 497.314 -0.845644 -5.00811 0
M  V30 5117 H 497.244 0.925786 -5.18398 0
M  V30 5118 H 499.735 0.263269 -3.76982 0
M  V30 5119 H 500.048 -0.0871487 -7.72751 0
M  V30 5120 H 498.393 -0.0714256 -6.94963 0
M  V30 5121 H 501.584 0.242006 -4.67474 0
M  V30 5122 H 501.757 0.0824413 -6.47948 0
M  V30 5123 N 495.163 1.55791 0.238111 0
M  V30 5124 C 496.579 1.48411 0.587045 0
M  V30 5125 C 496.779 0.72702 1.87927 0
M  V30 5126 O 495.835 0.259942 2.51158 0
M  V30 5127 C 497.148 2.92873 0.681623 0
M  V30 5128 C 498.696 3.03295 0.773363 0
M  V30 5129 C 499.171 4.49082 0.899428 0
M  V30 5130 N 500.662 4.53056 0.964075 0
M  V30 5131 C 501.397 5.63117 1.08104 0
M  V30 5132 N 500.893 6.82969 1.16299 0
M  V30 5133 N 502.686 5.50933 1.11488 0
M  V30 5134 H 494.837 2.0345 -0.610076 0
M  V30 5135 H 497.1 0.924034 -0.211813 0
M  V30 5136 H 496.806 3.51142 -0.19802 0
M  V30 5137 H 496.68 3.43851 1.55069 0
M  V30 5138 H 499.067 2.45101 1.64346 0
M  V30 5139 H 499.148 2.55513 -0.121034 0
M  V30 5140 H 498.792 5.07889 0.0338586 0
M  V30 5141 H 498.722 4.94553 1.809 0
M  V30 5142 H 501.213 3.66737 0.91173 0
M  V30 5143 H 501.526 7.62598 1.25155 0
M  V30 5144 H 499.871 6.85712 1.13241 0
M  V30 5145 H 503.062 4.56231 1.0474 0
M  V30 5146 H 503.235 6.36743 1.20259 0
M  V30 5147 N 496.642 -0.504142 1.49319 0
M  V30 5148 C 497.888 -1.26033 1.58882 0
M  V30 5149 C 498.221 -1.92268 0.273274 0
M  V30 5150 O 497.496 -1.80567 -0.72291 0
M  V30 5151 C 497.779 -2.32976 2.7458 0
M  V30 5152 C 497.632 -1.71263 4.1592 0
M  V30 5153 C 498.951 -3.34561 2.85932 0
M  V30 5154 H 496.07 -0.456863 0.578312 0
M  V30 5155 H 498.712 -0.558965 1.81592 0
M  V30 5156 H 496.862 -2.92796 2.55348 0
M  V30 5157 H 498.534 -1.15294 4.4666 0
M  V30 5158 H 496.777 -1.01686 4.21714 0
M  V30 5159 H 497.448 -2.48816 4.92742 0
M  V30 5160 H 499.924 -2.84727 3.0343 0
M  V30 5161 H 498.8 -4.06754 3.68568 0
M  V30 5162 H 499.061 -3.96695 1.95154 0
M  V30 5163 N 498.12 -1.38341 -0.754957 0
M  V30 5164 C 499.36 -1.35888 -1.52689 0
M  V30 5165 C 499.724 0.0513682 -1.91931 0
M  V30 5166 O 500.925 0.200761 -2.68049 0
M  V30 5167 C 499.196 -2.28666 -2.74676 0
M  V30 5168 S 500.755 -2.4422 -3.64558 0
M  V30 5169 H 497.573 -0.482165 -0.522531 0
M  V30 5170 H 500.175 -1.74253 -0.886358 0
M  V30 5171 H 498.879 -3.30023 -2.43953 0
M  V30 5172 H 498.41 -1.91445 -3.43675 0
M  V30 5173 H 500.425 -1.66525 -4.67423 0
M  V30 5174 N 499.598 0.982988 -1.23187 0
M  V30 5175 C 501.009 1.53847 -1.05773 0
M  V30 5176 C 501.36 1.92568 0.375744 0
M  V30 5177 O 500.485 1.75783 1.26211 0
M  V30 5178 C 501.08 2.79567 -1.91384 0
M  V30 5179 C 499.639 3.31524 -1.78238 0
M  V30 5180 C 498.786 2.04534 -1.87246 0
M  V30 5181 H 501.737 0.802962 -1.36888 0
M  V30 5182 H 501.758 3.52317 -1.43711 0
M  V30 5183 H 501.27 2.51353 -2.95708 0
M  V30 5184 H 499.371 3.64623 -0.766875 0
M  V30 5185 H 499.484 4.01457 -2.61475 0
M  V30 5186 H 497.848 2.1855 -1.30797 0
M  V30 5187 H 498.631 1.78706 -2.9312 0
M  V30 5188 N 501.076 1.04316 1.18135 0
M  V30 5189 C 502.316 0.756937 1.89868 0
M  V30 5190 C 502.68 -0.702609 1.78682 0
M  V30 5191 O 503.881 -1.10255 2.45148 0
M  V30 5192 C 502.152 1.21327 3.36176 0
M  V30 5193 S 503.711 1.05307 4.25976 0
M  V30 5194 H 500.529 0.275143 0.655604 0
M  V30 5195 H 503.131 1.33597 1.42731 0
M  V30 5196 H 501.835 2.27086 3.41848 0
M  V30 5197 H 501.366 0.628137 3.88353 0
M  V30 5198 H 503.381 -0.0280093 4.96192 0
M  V30 5199 N 502.554 -1.34406 0.822964 0
M  V30 5200 C 503.517 -2.2783 0.250271 0
M  V30 5201 C 504.517 -1.50288 -0.571854 0
M  V30 5202 O 505.707 -1.69825 -0.387952 0
M  V30 5203 C 502.839 -3.34663 -0.649137 0
M  V30 5204 H 504.032 -2.79992 1.07444 0
M  V30 5205 H 501.585 -1.44539 0.594829 0
M  V30 5206 H 502.32 -2.87714 -1.49637 0
M  V30 5207 H 502.105 -3.92052 -0.0611199 0
M  V30 5208 H 503.595 -4.04349 -1.04363 0
M  V30 5209 N 504.032 -0.577932 -1.46621 0
M  V30 5210 C 505.443 -0.150071 -1.86096 0
M  V30 5211 C 505.794 1.28563 -1.48209 0
M  V30 5212 O 504.919 1.97036 -0.894754 0
M  V30 5213 C 505.514 -0.265576 -3.37758 0
M  V30 5214 C 504.073 0.10738 -3.76247 0
M  V30 5215 C 503.22 -0.603711 -2.70649 0
M  V30 5216 H 506.171 -0.786438 -1.37844 0
M  V30 5217 H 506.192 0.510352 -3.77062 0
M  V30 5218 H 505.704 -1.3106 -3.65301 0
M  V30 5219 H 503.805 1.15272 -3.54321 0
M  V30 5220 H 503.918 -0.26561 -4.78363 0
M  V30 5221 H 502.282 -0.0444884 -2.54661 0
M  V30 5222 H 503.065 -1.65029 -3.01032 0
M  V30 5223 N 505.51 1.54411 -0.315457 0
M  V30 5224 C 506.926 1.59556 0.037464 0
M  V30 5225 C 507.126 1.33217 1.5118 0
M  V30 5226 O 506.182 1.11264 2.26664 0
M  V30 5227 C 507.495 2.98372 -0.373477 0
M  V30 5228 C 509.043 3.11324 -0.323452 0
M  V30 5229 C 509.518 4.52472 -0.709433 0
M  V30 5230 N 511.009 4.58437 -0.662524 0
M  V30 5231 C 511.744 5.65751 -0.933474 0
M  V30 5232 N 511.24 6.81039 -1.27114 0
M  V30 5233 N 513.033 5.55489 -0.859573 0
M  V30 5234 H 505.184 1.6979 -1.27614 0
M  V30 5235 H 507.447 0.793732 -0.518356 0
M  V30 5236 H 507.153 3.22618 -1.40037 0
M  V30 5237 H 507.027 3.76264 0.265615 0
M  V30 5238 H 509.414 2.86818 0.694223 0
M  V30 5239 H 509.495 2.35555 -0.997367 0
M  V30 5240 H 509.139 4.7771 -1.72498 0
M  V30 5241 H 509.069 5.26598 -0.0132923 0
M  V30 5242 H 511.56 3.75636 -0.413065 0
M  V30 5243 H 511.873 7.58816 -1.46348 0
M  V30 5244 H 510.218 6.82555 -1.30932 0
M  V30 5245 H 513.409 4.64299 -0.595324 0
M  V30 5246 H 513.582 6.39036 -1.0741 0
M  V30 5247 N 506.988 0.0434614 1.5754 0
M  V30 5248 C 508.404 -0.313039 1.565 0
M  V30 5249 C 508.604 -1.71954 1.05043 0
M  V30 5250 O 507.66 -2.425 0.703564 0
M  V30 5251 C 508.973 -0.148544 3.00333 0
M  V30 5252 C 510.521 -0.220231 3.12224 0
M  V30 5253 C 510.996 -0.0843565 4.57922 0
M  V30 5254 N 512.487 -0.140881 4.62986 0
M  V30 5255 C 513.222 -0.0597443 5.73369 0
M  V30 5256 N 512.718 0.0733004 6.92761 0
M  V30 5257 N 514.511 -0.11477 5.61983 0
M  V30 5258 H 506.662 0.96303 1.89313 0
M  V30 5259 H 508.925 0.373164 0.871466 0
M  V30 5260 H 508.631 0.820894 3.41986 0
M  V30 5261 H 508.505 -0.912798 3.65989 0
M  V30 5262 H 510.892 -1.18014 2.70475 0
M  V30 5263 H 510.973 0.574646 2.49262 0
M  V30 5264 H 510.617 0.872192 5.00355 0
M  V30 5265 H 510.547 -0.898281 5.18882 0
M  V30 5266 H 513.038 -0.243273 3.77116 0
M  V30 5267 H 513.351 0.128128 7.72694 0
M  V30 5268 H 511.696 0.10828 6.94916 0
M  V30 5269 H 514.887 -0.217212 4.67596 0
M  V30 5270 H 515.06 -0.0480779 6.47982 0
M  V30 5271 N 508.466 -1.55915 -0.229846 0
M  V30 5272 C 509.877 -1.68809 -0.797531 0
M  V30 5273 C 510.228 -0.643995 -1.8533 0
M  V30 5274 O 509.353 0.206492 -2.15413 0
M  V30 5275 C 509.948 -3.06043 -1.45338 0
M  V30 5276 C 508.507 -3.20819 -1.96856 0
M  V30 5277 C 507.654 -2.6472 -0.825736 0
M  V30 5278 H 510.605 -1.58699 -0.00533733 0
M  V30 5279 H 510.626 -3.01438 -2.32196 0
M  V30 5280 H 510.138 -3.82012 -0.684743 0
M  V30 5281 H 508.239 -2.49704 -2.76548 0
M  V30 5282 H 508.352 -4.27937 -2.15423 0
M  V30 5283 H 506.716 -2.22985 -1.23084 0
M  V30 5284 H 507.499 -3.43229 -0.0699019 0
M  V30 5285 N 509.944 0.496216 -1.49584 0
M  V30 5286 C 511.36 0.827814 -1.36453 0
M  V30 5287 C 511.56 1.97464 -0.401285 0
M  V30 5288 O 510.616 2.51958 0.165296 0
M  V30 5289 C 511.929 1.16352 -2.77277 0
M  V30 5290 C 513.477 1.27145 -2.86013 0
M  V30 5291 C 513.952 1.64042 -4.27615 0
M  V30 5292 N 515.443 1.71082 -4.30448 0
M  V30 5293 C 516.178 2.01085 -5.36984 0
M  V30 5294 N 515.674 2.2928 -6.5376 0
M  V30 5295 N 517.467 2.02376 -5.24405 0
M  V30 5296 H 509.618 -0.259947 -2.10803 0
M  V30 5297 H 511.881 -0.0537163 -0.946477 0
M  V30 5298 H 511.587 0.394153 -3.49484 0
M  V30 5299 H 511.461 2.10582 -3.12946 0
M  V30 5300 H 513.848 2.03152 -2.1404 0
M  V30 5301 H 513.929 0.309542 -2.5392 0
M  V30 5302 H 513.573 0.88583 -5.00115 0
M  V30 5303 H 513.503 2.6134 -4.57175 0
M  V30 5304 H 515.994 1.51434 -3.46232 0
M  V30 5305 H 516.307 2.51376 -7.30774 0
M  V30 5306 H 514.652 2.26726 -6.56978 0
M  V30 5307 H 517.843 1.79829 -4.32179 0
M  V30 5308 H 518.016 2.25425 -6.07526 0
M  V30 5309 N 511.423 1.38739 0.74761 0
M  V30 5310 C 512.839 1.20067 1.05148 0
M  V30 5311 C 513.039 0.0534835 2.01429 0
M  V30 5312 O 512.095 -0.59886 2.45296 0
M  V30 5313 C 513.408 2.52957 1.62584 0
M  V30 5314 C 514.956 2.59692 1.74726 0
M  V30 5315 C 515.431 3.92772 2.35573 0
M  V30 5316 N 516.922 3.94343 2.42997 0
M  V30 5317 C 517.657 4.9408 2.90985 0
M  V30 5318 N 517.153 6.04214 3.38965 0
M  V30 5319 N 518.946 4.81466 2.9008 0
M  V30 5320 H 511.097 2.12121 0.108808 0
M  V30 5321 H 513.36 0.941491 0.110899 0
M  V30 5322 H 513.066 3.37389 0.993051 0
M  V30 5323 H 512.94 2.71779 2.61565 0
M  V30 5324 H 515.327 1.75651 2.3713 0
M  V30 5325 H 515.408 2.44731 0.744326 0
M  V30 5326 H 515.052 4.77238 1.738 0
M  V30 5327 H 514.982 4.05046 3.36519 0
M  V30 5328 H 517.473 3.14799 2.0907 0
M  V30 5329 H 517.786 6.76241 3.74056 0
M  V30 5330 H 516.131 6.07825 3.37007 0
M  V30 5331 H 519.322 3.94535 2.51912 0
M  V30 5332 H 519.495 5.59344 3.27166 0
M  V30 5333 N 512.901 -0.976442 1.23707 0
M  V30 5334 C 514.312 -1.53284 1.06587 0
M  V30 5335 C 514.663 -1.92765 -0.365526 0
M  V30 5336 O 513.788 -1.7645 -1.25277 0
M  V30 5337 C 514.383 -2.78548 1.92864 0
M  V30 5338 C 512.942 -3.30574 1.79994 0
M  V30 5339 C 512.089 -2.03538 1.88328 0
M  V30 5340 H 515.04 -0.795692 1.37311 0
M  V30 5341 H 515.061 -3.5155 1.45577 0
M  V30 5342 H 514.573 -2.49782 2.97037 0
M  V30 5343 H 512.674 -3.64211 0.786202 0
M  V30 5344 H 512.787 -4.00065 2.636 0
M  V30 5345 H 511.151 -2.17853 1.31954 0
M  V30 5346 H 511.934 -1.77149 2.94063 0
M  V30 5347 N 514.379 -1.04941 -1.1758 0
M  V30 5348 C 515.795 -0.770282 -1.39781 0
M  V30 5349 C 515.995 0.636417 -1.91186 0
M  V30 5350 O 515.051 1.39923 -2.10185 0
M  V30 5351 C 516.364 -1.82376 -2.3908 0
M  V30 5352 C 517.912 -1.84569 -2.52791 0
M  V30 5353 C 518.387 -2.88933 -3.55361 0
M  V30 5354 N 519.878 -2.8788 -3.62877 0
M  V30 5355 C 520.613 -3.65282 -4.41992 0
M  V30 5356 N 520.109 -4.52461 -5.24643 0
M  V30 5357 N 521.902 -3.53732 -4.36841 0
M  V30 5358 H 514.053 -1.95705 -0.825438 0
M  V30 5359 H 516.316 -0.847284 -0.425222 0
M  V30 5360 H 516.022 -2.83323 -2.08376 0
M  V30 5361 H 515.896 -1.66327 -3.38549 0
M  V30 5362 H 518.283 -0.842879 -2.82807 0
M  V30 5363 H 518.364 -2.04696 -1.53406 0
M  V30 5364 H 518.008 -3.89398 -3.26085 0
M  V30 5365 H 517.938 -2.66059 -4.54445 0
M  V30 5366 H 520.429 -2.24666 -3.03864 0
M  V30 5367 H 520.742 -5.08211 -5.82187 0
M  V30 5368 H 519.087 -4.56524 -5.24033 0
M  V30 5369 H 522.278 -2.85021 -3.71323 0
M  V30 5370 H 522.451 -4.14302 -4.98255 0
M  V30 5371 N 515.857 1.33968 -0.830081 0
M  V30 5372 C 517.273 1.51003 -0.516742 0
M  V30 5373 C 517.473 1.77286 0.957694 0
M  V30 5374 O 516.529 1.82797 1.74188 0
M  V30 5375 C 517.842 2.67036 -1.38247 0
M  V30 5376 C 519.39 2.80919 -1.38034 0
M  V30 5377 C 519.865 4.00004 -2.23071 0
M  V30 5378 N 521.356 4.07224 -2.20733 0
M  V30 5379 C 522.091 4.98541 -2.83275 0
M  V30 5380 N 521.587 5.95033 -3.54835 0
M  V30 5381 N 523.38 4.91469 -2.72791 0
M  V30 5382 H 515.531 1.15168 -1.78466 0
M  V30 5383 H 517.794 0.565443 -0.760906 0
M  V30 5384 H 517.5 2.54266 -2.42985 0
M  V30 5385 H 517.374 3.62226 -1.05225 0
M  V30 5386 H 519.761 2.93127 -0.340713 0
M  V30 5387 H 519.842 1.86517 -1.75057 0
M  V30 5388 H 519.486 3.88557 -3.27087 0
M  V30 5389 H 519.416 4.93634 -1.83394 0
M  V30 5390 H 521.907 3.38162 -1.68687 0
M  V30 5391 H 522.22 6.61357 -3.99784 0
M  V30 5392 H 520.565 5.95135 -3.58942 0
M  V30 5393 H 523.756 4.15048 -2.16456 0
M  V30 5394 H 523.929 5.62439 -3.21818 0
M  V30 5395 N 517.335 0.585699 1.46312 0
M  V30 5396 C 518.746 0.159938 1.86014 0
M  V30 5397 C 519.097 -1.27775 1.48889 0
M  V30 5398 O 518.222 -1.96559 0.90519 0
M  V30 5399 C 518.817 0.283485 3.37612 0
M  V30 5400 C 517.376 -0.0874256 3.76298 0
M  V30 5401 C 516.523 0.618055 2.70325 0
M  V30 5402 H 519.474 0.793737 1.37425 0
M  V30 5403 H 519.495 -0.490348 3.77327 0
M  V30 5404 H 519.007 1.32995 3.64601 0
M  V30 5405 H 517.108 -1.13391 3.54927 0
M  V30 5406 H 517.221 0.290975 4.78216 0
M  V30 5407 H 515.585 0.057993 2.54634 0
M  V30 5408 H 516.368 1.66623 3.00153 0
M  V30 5409 N 518.813 -1.54241 0.323641 0
M  V30 5410 C 520.061 -2.00174 -0.278359 0
M  V30 5411 C 520.382 -1.2134 -1.52648 0
M  V30 5412 O 519.652 -0.315244 -1.93347 0
M  V30 5413 H 518.232 -0.739463 -0.105845 0
M  V30 5414 H 520.894 -1.89864 0.440204 0
M  V30 5415 H 519.99 -3.07486 -0.5347 0
M  V30 5416 N 520.291 -0.0518155 -1.57515 0
M  V30 5417 C 521.702 0.483787 -1.80323 0
M  V30 5418 C 522.053 1.70879 -0.964099 0
M  V30 5419 O 521.178 2.15643 -0.180872 0
M  V30 5420 C 521.773 0.884459 -3.27052 0
M  V30 5421 C 520.332 1.36504 -3.50776 0
M  V30 5422 C 519.479 0.340539 -2.75201 0
M  V30 5423 H 522.43 -0.277691 -1.56252 0
M  V30 5424 H 522.451 1.74733 -3.38007 0
M  V30 5425 H 521.963 -0.00731093 -3.88099 0
M  V30 5426 H 520.064 2.27598 -2.95009 0
M  V30 5427 H 520.177 1.35675 -4.59488 0
M  V30 5428 H 518.541 0.81356 -2.41357 0
M  V30 5429 H 519.324 -0.543156 -3.38976 0
M  V30 5430 N 521.769 1.56035 0.221574 0
M  V30 5431 C 522.994 1.83476 0.967026 0
M  V30 5432 C 523.419 0.632139 1.7716 0
M  V30 5433 O 522.777 -0.419082 1.7639 0
M  V30 5434 C 522.825 3.08907 1.86034 0
M  V30 5435 O 521.929 2.876 2.95567 0
M  V30 5436 H 521.27 0.604913 0.273817 0
M  V30 5437 H 523.8 2.03247 0.234893 0
M  V30 5438 H 523.81 3.3901 2.27016 0
M  V30 5439 H 522.485 3.96068 1.26898 0
M  V30 5440 H 521.062 2.6873 2.58532 0
M  V30 5441 N 523.247 -0.488276 1.49845 0
M  V30 5442 C 524.524 -1.24959 1.50481 0
M  V30 5443 C 524.904 -2.09735 0.239698 0
M  V30 5444 O 524.252 -2.14865 -0.777524 0
M  V30 5445 C 524.462 -2.0954 2.79095 0
M  V30 5446 C 525.81 -2.68305 3.29086 0
M  V30 5447 O 526.834 -2.19797 2.80299 0
M  V30 5448 O 525.693 -3.56643 4.14087 0
M  V30 5449 H 522.787 -0.566133 0.602845 0
M  V30 5450 H 525.333 -0.501504 1.6212 0
M  V30 5451 H 524.105 -1.46958 3.62656 0
M  V30 5452 H 523.728 -2.91517 2.70377 0
M  V30 5453 N 524.725 -1.39134 -0.740242 0
M  V30 5454 C 526.136 -1.32208 -1.31825 0
M  V30 5455 C 526.487 0.0159919 -1.96193 0
M  V30 5456 O 525.612 0.918111 -1.95958 0
M  V30 5457 C 526.207 -2.39436 -2.39699 0
M  V30 5458 C 524.766 -2.36048 -2.93187 0
M  V30 5459 C 523.913 -2.21599 -1.66701 0
M  V30 5460 H 526.864 -1.49298 -0.538133 0
M  V30 5461 H 526.885 -2.05922 -3.19963 0
M  V30 5462 H 526.397 -3.36811 -1.92821 0
M  V30 5463 H 524.498 -1.42295 -3.44359 0
M  V30 5464 H 524.611 -3.30704 -3.46658 0
M  V30 5465 H 522.975 -1.68681 -1.90837 0
M  V30 5466 H 523.758 -3.20936 -1.21882 0
M  V30 5467 N 526.204 0.969867 -1.24223 0
M  V30 5468 C 527.167 2.04564 -1.03373 0
M  V30 5469 C 528.167 1.60798 0.00819206 0
M  V30 5470 O 529.357 1.72641 -0.232567 0
M  V30 5471 C 526.489 3.36163 -0.566343 0
M  V30 5472 H 527.682 2.24494 -1.98853 0
M  V30 5473 H 525.235 1.1448 -1.06415 0
M  V30 5474 H 525.97 3.21925 0.391751 0
M  V30 5475 H 525.755 3.69273 -1.31834 0
M  V30 5476 H 527.245 4.1526 -0.441435 0
M  V30 5477 N 527.682 1.05563 1.17022 0
M  V30 5478 C 528.645 0.664098 2.19368 0
M  V30 5479 C 529.645 -0.286358 1.5823 0
M  V30 5480 O 530.835 -0.069728 1.7406 0
M  V30 5481 C 527.967 -0.0239932 3.40892 0
M  V30 5482 H 529.16 1.57 2.55521 0
M  V30 5483 H 526.713 0.849964 1.31169 0
M  V30 5484 H 527.448 -0.942988 3.10287 0
M  V30 5485 H 527.233 0.659351 3.86516 0
M  V30 5486 H 528.723 -0.283909 4.16634 0
M  V30 5487 N 529.16 -1.33526 0.837174 0
M  V30 5488 C 530.571 -1.80182 0.489017 0
M  V30 5489 C 530.922 -1.69285 -0.991826 0
M  V30 5490 O 530.047 -1.24113 -1.77271 0
M  V30 5491 C 530.642 -3.27149 0.880866 0
M  V30 5492 C 529.201 -3.71828 0.584872 0
M  V30 5493 C 528.348 -2.54974 1.09011 0
M  V30 5494 H 531.299 -1.21071 1.02603 0
M  V30 5495 H 531.32 -3.80024 0.190239 0
M  V30 5496 H 530.832 -3.35048 1.95869 0
M  V30 5497 H 528.933 -3.69457 -0.48295 0
M  V30 5498 H 529.046 -4.65366 1.13892 0
M  V30 5499 H 527.41 -2.4952 0.511047 0
M  V30 5500 H 528.193 -2.65637 2.17467 0
M  V30 5501 N 530.638 -0.59345 -1.46 0
M  V30 5502 C 531.588 0.154751 -2.27474 0
M  V30 5503 C 532.572 0.851849 -1.365 0
M  V30 5504 O 533.764 0.744171 -1.60596 0
M  V30 5505 C 530.893 1.16079 -3.2308 0
M  V30 5506 C 529.979 0.465256 -4.2154 0
M  V30 5507 N 530.37 -0.485197 -5.03467 0
M  V30 5508 C 528.668 0.714634 -4.40237 0
M  V30 5509 C 529.369 -0.892709 -5.74809 0
M  V30 5510 N 528.345 -0.239511 -5.43072 0
M  V30 5511 H 532.147 -0.57546 -2.88211 0
M  V30 5512 H 529.661 -0.416046 -1.5698 0
M  V30 5513 H 531.658 1.71108 -3.80168 0
M  V30 5514 H 530.318 1.89171 -2.63903 0
M  V30 5515 H 531.329 -0.861258 -5.10689 0
M  V30 5516 H 528.006 1.43131 -3.92199 0
M  V30 5517 H 529.396 -1.67581 -6.50666 0
M  V30 5518 N 532.116 1.54067 -0.331816 0
M  V30 5519 C 533.079 2.23275 0.517768 0
M  V30 5520 C 534.079 1.22897 1.03697 0
M  V30 5521 O 535.269 1.47419 0.928084 0
M  V30 5522 C 532.401 2.94326 1.72004 0
M  V30 5523 H 533.594 2.99773 -0.0873507 0
M  V30 5524 H 531.147 1.56079 -0.0830042 0
M  V30 5525 H 531.882 2.21986 2.36417 0
M  V30 5526 H 531.667 3.67941 1.35507 0
M  V30 5527 H 533.157 3.47031 2.32291 0
M  V30 5528 N 533.594 0.0601682 1.57485 0
M  V30 5529 C 534.504 -0.926121 2.15546 0
M  V30 5530 C 535.52 -1.33532 1.11558 0
M  V30 5531 O 536.696 -1.4104 1.4377 0
M  V30 5532 C 533.761 -2.17952 2.69625 0
M  V30 5533 C 532.822 -1.82783 3.88444 0
M  V30 5534 C 532.055 -3.02148 4.39935 0
M  V30 5535 O 532.278 -4.15803 3.90466 0
M  V30 5536 O 531.212 -2.82639 5.31412 0
M  V30 5537 H 535.038 -0.462289 3.00161 0
M  V30 5538 H 532.623 -0.162246 1.48516 0
M  V30 5539 H 534.505 -2.91474 3.04337 0
M  V30 5540 H 533.18 -2.63456 1.88077 0
M  V30 5541 H 532.087 -1.06549 3.58606 0
M  V30 5542 H 533.42 -1.42072 4.7125 0
M  V30 5543 N 535.072 -1.5615 -0.213296 0
M  V30 5544 C 536.002 -1.96109 -1.26742 0
M  V30 5545 C 536.983 -0.830448 -1.48451 0
M  V30 5546 O 538.168 -1.09339 -1.60495 0
M  V30 5547 C 535.298 -2.28492 -2.61551 0
M  V30 5548 C 534.252 -3.44124 -2.54485 0
M  V30 5549 C 533.578 -3.62134 -3.93399 0
M  V30 5550 C 534.878 -4.78855 -2.08556 0
M  V30 5551 H 536.572 -2.84412 -0.935434 0
M  V30 5552 H 534.118 -1.36836 -0.44854 0
M  V30 5553 H 536.071 -2.55039 -3.3546 0
M  V30 5554 H 534.795 -1.37052 -2.96453 0
M  V30 5555 H 533.454 -3.17639 -1.83033 0
M  V30 5556 H 533.102 -2.68055 -4.25623 0
M  V30 5557 H 532.802 -4.39913 -3.89551 0
M  V30 5558 H 534.326 -3.91038 -4.68958 0
M  V30 5559 H 535.74 -5.04552 -2.72213 0
M  V30 5560 H 534.137 -5.59975 -2.1575 0
M  V30 5561 H 535.207 -4.73657 -1.03811 0
M  V30 5562 N 536.55 0.480323 -1.50102 0
M  V30 5563 C 537.48 1.58769 -1.71215 0
M  V30 5564 C 538.461 1.60583 -0.560997 0
M  V30 5565 O 539.646 1.76996 -0.799127 0
M  V30 5566 C 536.776 2.97148 -1.79778 0
M  V30 5567 C 535.73 3.10201 -2.94888 0
M  V30 5568 C 535.056 4.50137 -2.88584 0
M  V30 5569 C 536.356 2.88283 -4.35534 0
M  V30 5570 H 538.05 1.41354 -2.6393 0
M  V30 5571 H 535.596 0.678591 -1.27008 0
M  V30 5572 H 537.549 3.74536 -1.93133 0
M  V30 5573 H 536.273 3.15699 -0.836772 0
M  V30 5574 H 534.932 2.35244 -2.81169 0
M  V30 5575 H 534.58 4.65593 -1.90349 0
M  V30 5576 H 534.28 4.59808 -3.65856 0
M  V30 5577 H 535.804 5.29558 -3.03976 0
M  V30 5578 H 537.218 3.55427 -4.49827 0
M  V30 5579 H 535.615 3.09408 -5.14186 0
M  V30 5580 H 536.685 1.84219 -4.48544 0
M  V30 5581 N 538.028 1.39524 0.732853 0
M  V30 5582 C 539.444 1.21176 1.03868 0
M  V30 5583 C 539.644 0.0748448 2.01361 0
M  V30 5584 O 538.7 -0.57281 2.45917 0
M  V30 5585 C 540.013 2.54667 1.59892 0
M  V30 5586 C 541.561 2.6153 1.71962 0
M  V30 5587 C 542.036 3.95248 2.31394 0
M  V30 5588 N 543.527 3.96899 2.38801 0
M  V30 5589 C 544.262 4.97138 2.85729 0
M  V30 5590 N 543.758 6.07775 3.32537 0
M  V30 5591 N 545.551 4.84516 2.84957 0
M  V30 5592 H 537.702 2.12225 0.086304 0
M  V30 5593 H 539.965 0.942614 0.100907 0
M  V30 5594 H 539.671 3.38423 0.95721 0
M  V30 5595 H 539.545 2.74538 2.58668 0
M  V30 5596 H 541.932 1.78156 2.35254 0
M  V30 5597 H 542.013 2.45507 0.718327 0
M  V30 5598 H 541.657 4.79054 1.68729 0
M  V30 5599 H 541.587 4.08593 3.32204 0
M  V30 5600 H 544.078 3.16998 2.05719 0
M  V30 5601 H 544.391 6.8017 3.66862 0
M  V30 5602 H 542.736 6.11366 3.30541 0
M  V30 5603 H 545.927 3.97185 2.47713 0
M  V30 5604 H 546.1 5.62783 3.21215 0
M  V30 5605 N 539.506 -0.963266 1.24736 0
M  V30 5606 C 540.436 -2.07628 1.06832 0
M  V30 5607 C 541.417 -1.70088 -0.0200566 0
M  V30 5608 O 542.602 -1.93636 0.147854 0
M  V30 5609 C 539.732 -3.40636 0.677069 0
M  V30 5610 C 538.686 -3.9215 1.71471 0
M  V30 5611 C 538.012 -5.21553 1.1784 0
M  V30 5612 C 539.312 -4.19493 3.11164 0
M  V30 5613 H 541.006 -2.22864 1.9993 0
M  V30 5614 H 538.552 -1.07093 0.96266 0
M  V30 5615 H 540.505 -4.17941 0.538792 0
M  V30 5616 H 539.229 -3.25313 -0.289612 0
M  V30 5617 H 537.888 -3.17005 1.84128 0
M  V30 5618 H 537.536 -5.02593 0.202195 0
M  V30 5619 H 537.236 -5.56988 1.87185 0
M  V30 5620 H 538.76 -6.01463 1.05233 0
M  V30 5621 H 540.174 -4.87487 3.01711 0
M  V30 5622 H 538.571 -4.66165 3.77902 0
M  V30 5623 H 539.641 -3.26097 3.58871 0
M  V30 5624 N 540.985 -1.06182 -1.16461 0
M  V30 5625 C 542.233 -0.776326 -1.86595 0
M  V30 5626 C 542.554 0.69921 -1.82033 0
M  V30 5627 O 541.824 1.50579 -1.2531 0
M  V30 5628 H 540.404 -0.284184 -0.690832 0
M  V30 5629 H 543.066 -1.34308 -1.41235 0
M  V30 5630 H 542.162 -1.10022 -2.92064 0
M  V30 5631 N 542.463 1.3308 -0.844243 0
M  V30 5632 C 543.688 2.02341 -0.455282 0
M  V30 5633 C 544.113 1.6308 0.93737 0
M  V30 5634 O 543.471 0.826118 1.61385 0
M  V30 5635 C 543.519 3.55743 -0.58988 0
M  V30 5636 O 542.623 4.1063 0.38166 0
M  V30 5637 H 541.964 0.637898 -0.184343 0
M  V30 5638 H 544.494 1.6986 -1.14056 0
M  V30 5639 H 544.504 4.05243 -0.473522 0
M  V30 5640 H 543.179 3.83662 -1.60549 0
M  V30 5641 H 541.756 3.72236 0.22241 0
M  V30 5642 N 543.941 0.601185 1.45683 0
M  V30 5643 C 544.891 -0.142686 2.27553 0
M  V30 5644 C 545.875 -0.844598 1.3695 0
M  V30 5645 O 547.067 -0.735644 1.60988 0
M  V30 5646 C 544.196 -1.14364 3.23691 0
M  V30 5647 C 543.282 -0.442894 4.21781 0
M  V30 5648 N 543.673 0.51189 5.03203 0
M  V30 5649 C 541.971 -0.691277 4.4061 0
M  V30 5650 C 542.672 0.92318 5.74328 0
M  V30 5651 N 541.648 0.268308 5.42937 0
M  V30 5652 H 545.45 0.590736 2.87902 0
M  V30 5653 H 542.964 0.424365 1.56757 0
M  V30 5654 H 544.961 -1.6909 3.8107 0
M  V30 5655 H 543.621 -1.87768 2.64902 0
M  V30 5656 H 544.632 0.888329 5.10225 0
M  V30 5657 H 541.309 -1.41049 3.92952 0
M  V30 5658 H 542.699 1.71029 6.49768 0
M  V30 5659 N 545.419 -1.53889 0.339982 0
M  V30 5660 C 546.83 -1.86139 -0.144671 0
M  V30 5661 C 547.181 -1.2613 -1.50285 0
M  V30 5662 O 546.306 -0.573515 -2.08662 0
M  V30 5663 C 546.901 -3.37728 -0.269285 0
M  V30 5664 C 545.46 -3.69868 -0.698168 0
M  V30 5665 C 544.607 -2.76777 0.170249 0
M  V30 5666 H 547.558 -1.48503 0.559704 0
M  V30 5667 H 547.579 -3.64331 -1.0974 0
M  V30 5668 H 547.091 -3.81375 0.719366 0
M  V30 5669 H 545.192 -3.31764 -1.69597 0
M  V30 5670 H 545.305 -4.76582 -0.490533 0
M  V30 5671 H 543.669 -2.52188 -0.356844 0
M  V30 5672 H 544.452 -3.23253 1.15597 0
M  V30 5673 N 546.897 -0.0685191 -1.57451 0
M  V30 5674 C 547.86 0.885173 -2.11417 0
M  V30 5675 C 548.86 1.22853 -1.03748 0
M  V30 5676 O 550.05 1.16235 -1.2975 0
M  V30 5677 C 547.182 2.18964 -2.61281 0
M  V30 5678 H 548.375 0.417034 -2.96986 0
M  V30 5679 H 545.928 0.18014 -1.55258 0
M  V30 5680 H 546.663 2.70321 -1.79156 0
M  V30 5681 H 546.448 1.9534 -3.39977 0
M  V30 5682 H 547.938 2.87242 -3.0312 0
M  V30 5683 N 548.375 1.56261 0.205012 0
M  V30 5684 C 549.786 1.70056 0.770574 0
M  V30 5685 C 550.137 0.673398 1.84282 0
M  V30 5686 O 549.262 -0.172196 2.15714 0
M  V30 5687 C 549.857 3.08316 1.40451 0
M  V30 5688 C 548.416 3.2391 1.91727 0
M  V30 5689 C 547.563 2.66001 0.783516 0
M  V30 5690 H 550.514 1.58688 -0.019911 0
M  V30 5691 H 550.535 3.05094 2.27371 0
M  V30 5692 H 550.047 3.83053 0.623882 0
M  V30 5693 H 548.148 2.54072 2.7254 0
M  V30 5694 H 548.261 4.3131 2.08588 0
M  V30 5695 H 546.625 2.24915 1.19521 0
M  V30 5696 H 547.408 3.43297 0.0152883 0
M  V30 5697 N 549.853 -0.472356 1.50355 0
M  V30 5698 C 550.816 -1.5529 1.68576 0
M  V30 5699 C 551.816 -1.50863 0.556511 0
M  V30 5700 O 553.006 -1.53505 0.823516 0
M  V30 5701 C 550.138 -2.94921 1.70981 0
M  V30 5702 H 551.331 -1.40451 2.64978 0
M  V30 5703 H 548.884 -0.698645 1.39816 0
M  V30 5704 H 549.619 -3.15204 0.762675 0
M  V30 5705 H 549.404 -2.99541 2.53017 0
M  V30 5706 H 550.894 -3.73372 1.87037 0
M  V30 5707 N 551.331 -1.39911 -0.725443 0
M  V30 5708 C 552.747 -1.21725 -1.03224 0
M  V30 5709 C 552.947 -0.0855224 -2.01318 0
M  V30 5710 O 552.003 0.55976 -2.46217 0
M  V30 5711 C 553.316 -2.55511 -1.58539 0
M  V30 5712 C 554.864 -2.62439 -1.70572 0
M  V30 5713 C 555.339 -3.9647 -2.29294 0
M  V30 5714 N 556.83 -3.98159 -2.36692 0
M  V30 5715 C 557.565 -4.98647 -2.83088 0
M  V30 5716 N 557.061 -6.0953 -3.2931 0
M  V30 5717 N 558.854 -4.8602 -2.82384 0
M  V30 5718 H 551.005 -2.12267 -0.075048 0
M  V30 5719 H 553.268 -0.943136 -0.0959066 0
M  V30 5720 H 552.974 -3.38926 -0.939249 0
M  V30 5721 H 552.848 -2.75905 -2.57208 0
M  V30 5722 H 555.235 -1.79401 -2.34306 0
M  V30 5723 H 555.316 -2.45885 -0.705297 0
M  V30 5724 H 554.96 -4.79942 -1.66186 0
M  V30 5725 H 554.89 -4.10349 -3.30032 0
M  V30 5726 H 557.381 -3.18085 -2.04035 0
M  V30 5727 H 557.694 -6.82106 -3.6325 0
M  V30 5728 H 556.039 -6.1311 -3.27294 0
M  V30 5729 H 559.23 -3.98493 -2.45603 0
M  V30 5730 H 559.403 -5.64478 -3.18226 0
M  V30 5731 N 552.809 0.956637 -1.25245 0
M  V30 5732 C 553.772 2.03457 -1.05537 0
M  V30 5733 C 554.772 1.60798 -0.00886317 0
M  V30 5734 O 555.962 1.72384 -0.250865 0
M  V30 5735 C 553.094 3.35543 -0.601965 0
M  V30 5736 H 554.287 2.22372 -2.01223 0
M  V30 5737 H 551.84 1.13344 -1.07623 0
M  V30 5738 H 552.575 3.22323 0.357584 0
M  V30 5739 H 552.36 3.67854 -1.35743 0
M  V30 5740 H 553.85 4.14769 -0.485454 0
M  V30 5741 N 554.287 1.06798 1.15896 0
M  V30 5742 C 555.219 0.641263 2.20046 0
M  V30 5743 C 556.232 -0.303355 1.59949 0
M  V30 5744 O 557.421 -0.0935478 1.78255 0
M  V30 5745 C 554.521 -0.0794029 3.38807 0
M  V30 5746 C 553.694 0.879986 4.28457 0
M  V30 5747 C 552.753 0.197638 5.25829 0
M  V30 5748 O 551.779 0.836913 5.63014 0
M  V30 5749 N 552.981 -1.05886 5.70761 0
M  V30 5750 H 555.746 1.53718 2.57276 0
M  V30 5751 H 553.307 0.951951 1.30956 0
M  V30 5752 H 555.299 -0.546418 4.00994 0
M  V30 5753 H 553.869 -0.877193 3.0004 0
M  V30 5754 H 553.089 1.52625 3.63454 0
M  V30 5755 H 554.377 1.53065 4.8523 0
M  V30 5756 H 553.775 -1.59828 5.42652 0
M  V30 5757 H 552.332 -1.46965 6.35015 0
M  V30 5758 N 555.766 -1.3263 0.851289 0
M  V30 5759 C 556.713 -2.28952 0.291469 0
M  V30 5760 C 557.683 -1.54897 -0.599676 0
M  V30 5761 O 558.868 -1.83137 -0.535305 0
M  V30 5762 C 556.008 -3.41206 -0.516992 0
M  V30 5763 C 555.121 -4.30148 0.399566 0
M  V30 5764 C 554.256 -5.29527 -0.4212 0
M  V30 5765 C 553.295 -6.10112 0.492969 0
M  V30 5766 N 552.432 -7.01499 -0.290414 0
M  V30 5767 H 557.272 -2.76228 1.11813 0
M  V30 5768 H 554.809 -1.35907 0.562826 0
M  V30 5769 H 556.767 -4.05005 -1.00132 0
M  V30 5770 H 555.397 -2.9509 -1.30851 0
M  V30 5771 H 554.449 -3.66959 1.00227 0
M  V30 5772 H 555.761 -4.8649 1.1013 0
M  V30 5773 H 554.915 -5.98914 -0.968832 0
M  V30 5774 H 553.654 -4.73794 -1.15632 0
M  V30 5775 H 552.659 -5.39632 1.05251 0
M  V30 5776 H 553.884 -6.6793 1.22664 0
M  V30 5777 H 551.83 -6.48199 -1.00868 0
M  V30 5778 H 551.747 -7.55178 0.352354 0
M  V30 5779 H 553.015 -7.75176 -0.819882 0
M  V30 5780 N 557.244 -0.608902 -1.45362 0
M  V30 5781 C 558.655 -0.189511 -1.85736 0
M  V30 5782 C 559.006 1.2539 -1.50903 0
M  V30 5783 O 558.131 1.95094 -0.936347 0
M  V30 5784 C 558.726 -0.33716 -3.37118 0
M  V30 5785 C 557.285 0.0275487 -3.7639 0
M  V30 5786 C 556.432 -0.660983 -2.69307 0
M  V30 5787 H 559.383 -0.815499 -1.36144 0
M  V30 5788 H 559.404 0.430257 -3.7806 0
M  V30 5789 H 558.916 -1.38779 -3.62439 0
M  V30 5790 H 557.017 1.0773 -3.56686 0
M  V30 5791 H 557.13 -0.367018 -4.77692 0
M  V30 5792 H 555.494 -0.0984958 -2.54509 0
M  V30 5793 H 556.277 -1.71377 -2.97464 0
M  V30 5794 N 558.722 1.53707 -0.348139 0
M  V30 5795 C 559.97 2.00591 0.246478 0
M  V30 5796 C 560.291 1.23753 1.50699 0
M  V30 5797 O 559.561 0.345964 1.92821 0
M  V30 5798 H 558.141 0.741053 0.0940679 0
M  V30 5799 H 560.803 1.89139 -0.470354 0
M  V30 5800 H 559.899 3.08297 0.485714 0
M  V30 5801 N 560.2 0.0768682 1.57412 0
M  V30 5802 C 561.425 -0.603404 1.98428 0
M  V30 5803 C 561.85 -1.62047 0.955108 0
M  V30 5804 O 561.208 -1.81129 -0.0786778 0
M  V30 5805 C 561.256 -1.24396 3.38464 0
M  V30 5806 O 560.36 -2.35982 3.3821 0
M  V30 5807 H 559.701 -0.154741 0.645718 0
M  V30 5808 H 562.231 0.152885 2.04028 0
M  V30 5809 H 562.241 -1.5896 3.7576 0
M  V30 5810 H 560.916 -0.498735 4.12899 0
M  V30 5811 H 559.493 -2.03173 3.1269 0
M  V30 5812 N 561.678 -1.56367 -0.196722 0
M  V30 5813 C 562.903 -1.84991 -0.937714 0
M  V30 5814 C 563.328 -0.660244 -1.76132 0
M  V30 5815 O 562.686 0.390967 -1.77034 0
M  V30 5816 C 562.734 -3.11828 -1.81096 0
M  V30 5817 O 561.838 -2.92266 -2.90955 0
M  V30 5818 H 561.179 -0.609193 -0.264159 0
M  V30 5819 H 563.709 -2.03595 -0.202529 0
M  V30 5820 H 563.719 -3.42579 -2.21594 0
M  V30 5821 H 562.394 -3.98037 -1.2058 0
M  V30 5822 H 560.971 -2.72809 -2.54224 0
M  V30 5823 N 563.156 0.464375 -1.50603 0
M  V30 5824 C 564.404 1.21356 -1.61608 0
M  V30 5825 C 564.725 1.92329 -0.321643 0
M  V30 5826 O 563.995 1.84403 0.661232 0
M  V30 5827 H 562.575 0.45094 -0.595535 0
M  V30 5828 H 565.237 0.535046 -1.87412 0
M  V30 5829 H 564.333 1.95783 -2.43054 0
M  V30 5830 N 564.634 1.40294 0.718013 0
M  V30 5831 C 565.564 1.43118 1.84498 0
M  V30 5832 C 566.545 0.292403 1.67568 0
M  V30 5833 O 567.73 0.500675 1.87635 0
M  V30 5834 C 564.86 1.29065 3.22427 0
M  V30 5835 C 563.814 2.40521 3.54025 0
M  V30 5836 C 563.14 2.11546 4.91073 0
M  V30 5837 C 564.44 3.82859 3.55269 0
M  V30 5838 H 566.134 2.37432 1.82391 0
M  V30 5839 H 563.68 1.14283 0.87609 0
M  V30 5840 H 565.633 1.29658 4.00957 0
M  V30 5841 H 564.357 0.312271 3.25104 0
M  V30 5842 H 563.016 2.39173 2.77834 0
M  V30 5843 H 562.664 1.12104 4.90348 0
M  V30 5844 H 562.364 2.86216 5.1318 0
M  V30 5845 H 563.888 2.13817 5.71939 0
M  V30 5846 H 565.302 3.86044 4.23843 0
M  V30 5847 H 563.699 4.57029 3.88902 0
M  V30 5848 H 564.769 4.12617 2.54706 0
M  V30 5849 N 566.112 -0.949982 1.2575 0
M  V30 5850 C 567.075 -2.02894 1.06615 0
M  V30 5851 C 568.075 -1.60791 0.0173905 0
M  V30 5852 O 569.265 -1.72249 0.260003 0
M  V30 5853 C 566.397 -3.35219 0.619751 0
M  V30 5854 H 567.59 -2.21302 2.02399 0
M  V30 5855 H 565.143 -1.12772 1.08223 0
M  V30 5856 H 565.878 -3.22508 -0.340486 0
M  V30 5857 H 565.663 -3.67129 1.37692 0
M  V30 5858 H 567.153 -4.14505 0.507443 0
M  V30 5859 N 567.59 -1.07411 -1.15328 0
M  V30 5860 C 568.553 -0.698914 -2.18284 0
M  V30 5861 C 569.553 0.261149 -1.58665 0
M  V30 5862 O 570.743 0.0420277 -1.74149 0
M  V30 5863 C 567.875 -0.0302427 -3.40887 0
M  V30 5864 H 569.068 -1.61045 -2.52991 0
M  V30 5865 H 566.621 -0.870724 -1.298 0
M  V30 5866 H 567.356 0.893505 -3.11748 0
M  V30 5867 H 567.141 -0.720759 -3.85419 0
M  V30 5868 H 568.631 0.21759 -4.17033 0
M  V30 5869 N 569.068 1.32177 -0.85831 0
M  V30 5870 C 570.484 1.49873 -0.548656 0
M  V30 5871 C 570.684 1.79278 0.919874 0
M  V30 5872 O 569.74 1.86451 1.70271 0
M  V30 5873 C 571.053 2.64043 -1.4388 0
M  V30 5874 C 572.601 2.77928 -1.43961 0
M  V30 5875 C 573.076 3.95182 -2.31506 0
M  V30 5876 N 574.567 4.0245 -2.29321 0
M  V30 5877 C 575.302 4.9242 -2.93786 0
M  V30 5878 N 574.798 5.87373 -3.67376 0
M  V30 5879 N 576.591 4.85572 -2.83155 0
M  V30 5880 H 568.742 1.11357 -1.80868 0
M  V30 5881 H 571.005 0.549175 -0.772729 0
M  V30 5882 H 570.711 2.49055 -2.48324 0
M  V30 5883 H 570.585 3.59912 -1.12885 0
M  V30 5884 H 572.972 2.92338 -0.402813 0
M  V30 5885 H 573.053 1.82762 -1.78974 0
M  V30 5886 H 572.697 3.81531 -3.35256 0
M  V30 5887 H 572.627 4.89633 -1.93823 0
M  V30 5888 H 575.118 3.34507 -1.75822 0
M  V30 5889 H 575.431 6.52728 -4.13722 0
M  V30 5890 H 573.776 5.87388 -3.71484 0
M  V30 5891 H 576.967 4.10363 -2.25211 0
M  V30 5892 H 577.14 5.55486 -3.33676 0
M  V30 5893 N 570.547 0.616602 1.45037 0
M  V30 5894 C 571.795 0.115103 2.01772 0
M  V30 5895 C 572.116 -1.2622 1.48639 0
M  V30 5896 O 571.386 -1.83563 0.684199 0
M  V30 5897 H 569.966 0.0395607 0.745952 0
M  V30 5898 H 572.628 0.800032 1.77723 0
M  V30 5899 H 571.724 0.0717274 3.12018 0
M  V30 5900 N 572.025 -1.5352 0.356285 0
M  V30 5901 C 572.955 -2.28372 -0.486661 0
M  V30 5902 C 573.936 -1.30432 -1.09185 0
M  V30 5903 O 575.121 -1.59291 -1.11085 0
M  V30 5904 C 572.251 -3.06604 -1.63129 0
M  V30 5905 C 571.205 -4.12154 -1.15381 0
M  V30 5906 C 570.531 -4.78415 -2.38796 0
M  V30 5907 C 571.831 -5.21724 -0.245179 0
M  V30 5908 H 573.525 -2.99083 0.137797 0
M  V30 5909 H 571.071 -1.43841 0.0677134 0
M  V30 5910 H 573.024 -3.57712 -2.22755 0
M  V30 5911 H 571.748 -2.33568 -2.28284 0
M  V30 5912 H 570.407 -3.61978 -0.580294 0
M  V30 5913 H 570.055 -4.01959 -3.02387 0
M  V30 5914 H 569.755 -5.49734 -2.07524 0
M  V30 5915 H 571.279 -5.32313 -2.99125 0
M  V30 5916 H 572.693 -5.68391 -0.748646 0
M  V30 5917 H 571.09 -6.00095 -0.0237608 0
M  V30 5918 H 572.16 -4.79596 0.715229 0
M  V30 5919 N 573.503 -0.0852151 -1.57369 0
M  V30 5920 C 574.743 0.584297 -1.95871 0
M  V30 5921 C 575.107 1.6596 -0.965473 0
M  V30 5922 O 576.308 2.38561 -1.23862 0
M  V30 5923 C 574.579 1.13411 -3.38929 0
M  V30 5924 S 576.138 1.81687 -3.99419 0
M  V30 5925 H 572.956 0.19095 -0.684879 0
M  V30 5926 H 575.558 -0.162267 -1.94825 0
M  V30 5927 H 574.262 0.339845 -4.0899 0
M  V30 5928 H 573.793 1.91672 -3.43548 0
M  V30 5929 H 575.808 3.10037 -3.87417 0
M  V30 5930 N 574.981 1.5647 0.188427 0
M  V30 5931 C 576.227 1.81281 0.909124 0
M  V30 5932 C 576.56 0.66034 1.82628 0
M  V30 5933 O 575.835 -0.338737 1.91528 0
M  V30 5934 C 576.118 3.16388 1.7196 0
M  V30 5935 C 575.971 4.42137 0.826714 0
M  V30 5936 C 577.29 3.48256 2.69083 0
M  V30 5937 H 574.409 0.659457 0.329068 0
M  V30 5938 H 577.051 1.89182 0.176156 0
M  V30 5939 H 575.201 3.09784 2.34448 0
M  V30 5940 H 576.873 4.60794 0.216025 0
M  V30 5941 H 575.116 4.33594 0.133792 0
M  V30 5942 H 575.787 5.33184 1.42893 0
M  V30 5943 H 578.263 3.55203 2.16726 0
M  V30 5944 H 577.139 4.43899 3.2287 0
M  V30 5945 H 577.4 2.72088 3.48455 0
M  V30 5946 N 576.459 -0.456382 1.50847 0
M  V30 5947 C 577.389 -1.56025 1.73719 0
M  V30 5948 C 578.37 -1.5967 0.586473 0
M  V30 5949 O 579.555 -1.75702 0.827185 0
M  V30 5950 C 576.685 -2.94251 1.84483 0
M  V30 5951 C 575.639 -3.05471 2.99786 0
M  V30 5952 C 574.965 -4.45489 2.95709 0
M  V30 5953 C 576.265 -2.81318 4.40065 0
M  V30 5954 H 577.959 -1.37138 2.66146 0
M  V30 5955 H 575.505 -0.658299 1.28072 0
M  V30 5956 H 577.458 -3.71417 1.99067 0
M  V30 5957 H 576.182 -3.14328 0.886891 0
M  V30 5958 H 574.841 -2.30741 2.84876 0
M  V30 5959 H 574.489 -4.62505 1.97732 0
M  V30 5960 H 574.189 -4.53929 3.73125 0
M  V30 5961 H 575.713 -5.24655 3.12362 0
M  V30 5962 H 577.127 -3.48226 4.55425 0
M  V30 5963 H 575.524 -3.01188 5.19043 0
M  V30 5964 H 576.594 -1.7706 4.51418 0
M  V30 5965 N 577.937 -1.40673 -0.710563 0
M  V30 5966 C 579.185 -1.38947 -1.46759 0
M  V30 5967 C 579.506 0.00572879 -1.94999 0
M  V30 5968 O 578.776 0.961358 -1.70689 0
M  V30 5969 H 577.356 -0.5114 -0.544499 0
M  V30 5970 H 580.018 -1.75773 -0.842012 0
M  V30 5971 H 579.114 -2.06745 -2.33801 0
M  V30 5972 N 579.415 0.9433 -1.26252 0
M  V30 5973 C 580.325 2.07532 -1.09397 0
M  V30 5974 C 581.341 1.73977 -0.0280449 0
M  V30 5975 O 582.517 2.00067 -0.231337 0
M  V30 5976 C 579.582 3.39002 -0.726523 0
M  V30 5977 C 578.643 3.86353 -1.87163 0
M  V30 5978 C 577.876 5.11549 -1.52162 0
M  V30 5979 O 578.099 5.68834 -0.422385 0
M  V30 5980 O 577.033 5.53889 -2.35565 0
M  V30 5981 H 580.859 2.24658 -2.04359 0
M  V30 5982 H 578.444 1.05988 -1.05295 0
M  V30 5983 H 580.326 4.18 -0.534236 0
M  V30 5984 H 579.001 3.2312 0.193721 0
M  V30 5985 H 577.908 3.0831 -2.11886 0
M  V30 5986 H 579.241 4.06752 -2.77152 0
M  V30 5987 N 580.893 1.08022 1.14757 0
M  V30 5988 C 582.17 0.720386 1.81851 0
M  V30 5989 C 582.55 -0.796375 1.95502 0
M  V30 5990 O 581.898 -1.71339 1.51179 0
M  V30 5991 C 582.108 1.44273 3.17783 0
M  V30 5992 C 583.456 1.59925 3.93331 0
M  V30 5993 O 584.48 1.40407 3.2736 0
M  V30 5994 O 583.339 1.92096 5.11626 0
M  V30 5995 H 580.433 0.257142 0.786007 0
M  V30 5996 H 582.979 1.18155 1.21809 0
M  V30 5997 H 581.751 2.47618 3.02987 0
M  V30 5998 H 581.374 0.97279 3.85516 0
M  V30 5999 N 582.371 -1.3172 0.865308 0
M  V30 6000 C 583.319 -2.30569 0.306674 0
M  V30 6001 C 584.313 -1.59317 -0.575724 0
M  V30 6002 O 585.519 -1.73961 -0.462343 0
M  V30 6003 H 581.894 -0.747681 0.0804834 0
M  V30 6004 H 583.865 -2.75165 1.15441 0
M  V30 6005 C 582.614 -3.44358 -0.480952 0
M  V30 6006 H 581.937 -3.99354 0.18876 0
M  V30 6007 H 583.377 -4.15652 -0.837241 0
M  V30 6008 C 581.836 -2.92574 -1.67039 0
M  V30 6009 O 582.366 -2.90954 -2.76964 0
M  V30 6010 N 580.572 -2.48835 -1.50097 0
M  V30 6011 H 580.119 -2.50353 -0.606738 0
M  V30 6012 H 580.077 -2.14543 -2.29823 0
M  V30 6013 N 583.85 -0.624285 -1.44708 0
M  V30 6014 C 584.812 0.0749638 -2.29077 0
M  V30 6015 C 585.812 0.778965 -1.40673 0
M  V30 6016 O 587.003 0.624591 -1.62618 0
M  V30 6017 C 584.135 1.11663 -3.22094 0
M  V30 6018 H 585.327 -0.667013 -2.92388 0
M  V30 6019 H 582.88 -0.384098 -1.51507 0
M  V30 6020 H 583.615 1.88881 -2.63618 0
M  V30 6021 H 583.401 0.61583 -3.87234 0
M  V30 6022 H 584.891 1.60585 -3.8549 0
M  V30 6023 N 585.328 1.53329 -0.364422 0
M  V30 6024 C 586.739 1.86345 0.115039 0
M  V30 6025 C 587.09 1.28505 1.4826 0
M  V30 6026 O 586.215 0.606639 2.07723 0
M  V30 6027 C 586.81 3.38114 0.215522 0
M  V30 6028 C 585.369 3.70932 0.639237 0
M  V30 6029 C 584.516 2.76471 -0.214261 0
M  V30 6030 H 587.467 1.47593 -0.583258 0
M  V30 6031 H 587.488 3.66031 1.0393 0
M  V30 6032 H 587 3.80182 -0.779948 0
M  V30 6033 H 585.101 3.3442 1.64298 0
M  V30 6034 H 585.214 4.77302 0.41465 0
M  V30 6035 H 583.578 2.52724 0.316678 0
M  V30 6036 H 584.361 3.21373 -1.20725 0
M  V30 6037 N 586.806 0.0935595 1.57322 0
M  V30 6038 C 587.736 -0.863062 2.16964 0
M  V30 6039 C 588.717 -1.29528 1.10256 0
M  V30 6040 O 589.902 -1.36245 1.38387 0
M  V30 6041 C 587.032 -2.12276 2.74875 0
M  V30 6042 C 585.986 -1.82921 3.86942 0
M  V30 6043 C 585.312 -3.15707 4.31548 0
M  V30 6044 C 586.612 -1.11737 5.10208 0
M  V30 6045 H 588.306 -0.366145 2.97153 0
M  V30 6046 H 585.852 -0.174673 1.42937 0
M  V30 6047 H 587.805 -2.79634 3.1525 0
M  V30 6048 H 586.529 -2.64248 1.91938 0
M  V30 6049 H 585.188 -1.17961 3.47103 0
M  V30 6050 H 584.836 -3.65563 3.45504 0
M  V30 6051 H 584.536 -2.96849 5.07104 0
M  V30 6052 H 586.06 -3.84226 4.74555 0
M  V30 6053 H 587.474 -1.69203 5.47762 0
M  V30 6054 H 585.871 -1.03064 5.91183 0
M  V30 6055 H 586.941 -0.0998818 4.84797 0
M  V30 6056 O 588.323 -1.61433 -0.0465113 0
M  V30 6057 H 589.014 -1.8177 -0.669292 0
M  V30 END ATOM
M  V30 BEGIN BOND
M  V30 END BOND
M  V30 END CTAB
M  END
$$$$
