drugbank_target|Q969G3 SWI/SNF-related matrix-associated actin-dependent regulator of chromatin subfamily E member 1 (DB12695)
 OpenBabel12092121073D

  0  0  0     0  0            999 V3000
M  V30 BEGIN CTAB
M  V30 COUNTS 6406 6468 0 0 0
M  V30 BEGIN ATOM
M  V30 1 H -0.908 1.98254 -0.117106 0
M  V30 2 N 0 1.576 0 0
M  V30 3 C 0.933 2.03868 1.02534 0
M  V30 4 C 1.911 0.928543 1.3348 0
M  V30 5 O 3.095 1.19667 1.45644 0
M  V30 6 C 0.222 2.43627 2.35294 0
M  V30 7 C -0.732 3.65373 2.2001 0
M  V30 8 S 0.101 5.13292 1.52614 0
M  V30 9 C 1.257 5.56322 2.86805 0
M  V30 10 H 1.49 2.90518 0.631377 0
M  V30 11 H -0.977 1.52953 0.210867 0
M  V30 12 H 0.981 2.67203 3.11629 0
M  V30 13 H -0.358 1.57376 2.7183 0
M  V30 14 H -1.165 3.90944 3.18086 0
M  V30 15 H -1.563 3.418 1.51819 0
M  V30 16 H 0.729 5.58782 3.83104 0
M  V30 17 H 1.672 6.56266 2.65933 0
M  V30 18 H 2.08 4.83886 2.90714 0
M  V30 19 N 1.4781 -0.272755 1.55222 0
M  V30 20 C 2.7031 -1.02683 1.80197 0
M  V30 21 C 3.1281 -1.79142 0.573551 0
M  V30 22 O 2.4861 -1.74917 -0.476849 0
M  V30 23 C 2.5341 -1.9609 3.02624 0
M  V30 24 O 1.6381 -3.04863 2.77727 0
M  V30 25 H 0.9791 -0.293557 0.595584 0
M  V30 26 H 3.5091 -0.30159 2.02365 0
M  V30 27 H 3.5191 -2.38039 3.31363 0
M  V30 28 H 2.1941 -1.39851 3.91682 0
M  V30 29 H 0.7711 -2.67228 2.60084 0
M  V30 30 N 2.9562 -1.48159 -0.537278 0
M  V30 31 C 3.9032 -1.62138 -1.64256 0
M  V30 32 C 4.8732 -0.463668 -1.59497 0
M  V30 33 O 6.0582 -0.686241 -1.78032 0
M  V30 34 C 3.1982 -1.66028 -3.02537 0
M  V30 35 C 2.3112 -2.92855 -3.17585 0
M  V30 36 C 1.4462 -2.87952 -4.46382 0
M  V30 37 C 0.4852 -4.09516 -4.54932 0
M  V30 38 N -0.3778 -4.02733 -5.75109 0
M  V30 39 H 4.4622 -2.56529 -1.51647 0
M  V30 40 H 1.9992 -1.27224 -0.738414 0
M  V30 41 H 3.9572 -1.66265 -3.82638 0
M  V30 42 H 2.5872 -0.751331 -3.13934 0
M  V30 43 H 1.6392 -3.02395 -2.30784 0
M  V30 44 H 2.9512 -3.82822 -3.19764 0
M  V30 45 H 2.1052 -2.8655 -5.34765 0
M  V30 46 H 0.8442 -1.95702 -4.46712 0
M  V30 47 H -0.1508 -4.11201 -3.64957 0
M  V30 48 H 1.0742 -5.02917 -4.56346 0
M  V30 49 H -0.9798 -3.13299 -5.76351 0
M  V30 50 H -1.0628 -4.86397 -5.78752 0
M  V30 51 H 0.2052 -4.05379 -6.65799 0
M  V30 52 N 4.4343 0.785586 -1.36625 0
M  V30 53 C 5.8503 1.08419 -1.17122 0
M  V30 54 C 6.0503 2.015 0.00208491 0
M  V30 55 O 5.1063 2.43551 0.666278 0
M  V30 56 C 6.4193 1.69498 -2.48377 0
M  V30 57 C 7.9673 1.81821 -2.54775 0
M  V30 58 C 8.4423 2.46315 -3.86126 0
M  V30 59 N 9.9333 2.53779 -3.87492 0
M  V30 60 C 10.6683 3.045 -4.85868 0
M  V30 61 N 10.1643 3.55499 -5.94637 0
M  V30 62 N 11.9573 3.03247 -4.73284 0
M  V30 63 H 4.1083 0.167264 -2.1174 0
M  V30 64 H 6.3713 0.13682 -0.938075 0
M  V30 65 H 6.0773 1.08571 -3.34522 0
M  V30 66 H 5.9513 2.6896 -2.64462 0
M  V30 67 H 8.3383 2.41884 -1.69045 0
M  V30 68 H 8.4193 0.811532 -2.42586 0
M  V30 69 H 8.0633 1.86895 -4.72263 0
M  V30 70 H 7.9933 3.47561 -3.95612 0
M  V30 71 H 10.4843 2.17672 -3.08913 0
M  V30 72 H 10.7973 3.92562 -6.65669 0
M  V30 73 H 9.1423 3.5364 -5.98301 0
M  V30 74 H 12.3333 2.62696 -3.87438 0
M  V30 75 H 12.5063 3.42467 -5.50109 0
M  V30 76 N 5.9124 1.20967 1.01018 0
M  V30 77 C 7.3234 1.02319 1.56165 0
M  V30 78 C 7.6744 -0.418546 1.91684 0
M  V30 79 O 6.7994 -1.30096 1.72928 0
M  V30 80 C 7.3944 1.85109 2.8376 0
M  V30 81 C 5.9534 1.70809 3.35412 0
M  V30 82 C 5.1004 1.82643 2.08655 0
M  V30 83 H 8.0514 1.35065 0.833255 0
M  V30 84 H 8.0724 1.35827 3.55431 0
M  V30 85 H 7.5844 2.90035 2.57878 0
M  V30 86 H 5.6854 0.685464 3.66241 0
M  V30 87 H 5.7984 2.52467 4.07182 0
M  V30 88 H 4.1624 1.25896 2.21409 0
M  V30 89 H 4.9454 2.89066 1.85191 0
M  V30 90 N 7.3905 -1.2043 1.01659 0
M  V30 91 C 8.6155 -1.94318 0.724942 0
M  V30 92 C 9.0405 -1.74266 -0.708034 0
M  V30 93 O 8.3985 -1.03694 -1.48719 0
M  V30 94 C 8.4465 -3.44486 1.06591 0
M  V30 95 O 7.5505 -4.12017 0.177599 0
M  V30 96 H 6.8915 -0.60708 0.26898 0
M  V30 97 H 9.4215 -1.52861 1.35995 0
M  V30 98 H 9.4315 -3.95106 1.01762 0
M  V30 99 H 8.1065 -3.58404 2.10997 0
M  V30 100 H 6.6835 -3.71821 0.283421 0
M  V30 101 N 8.8686 -0.792821 -1.36206 0
M  V30 102 C 10.0986 -0.378275 -2.03107 0
M  V30 103 C 10.5066 1.01119 -1.59911 0
M  V30 104 O 9.8496 1.66052 -0.785658 0
M  V30 105 C 9.9116 -0.366535 -3.57627 0
M  V30 106 C 9.5756 -1.70416 -4.24037 0
M  V30 107 C 10.5726 -2.6602 -4.46687 0
M  V30 108 C 8.2576 -1.98439 -4.6144 0
M  V30 109 C 10.2516 -3.8784 -5.05825 0
M  V30 110 C 7.9386 -3.20525 -5.20295 0
M  V30 111 C 8.9366 -4.15044 -5.42427 0
M  V30 112 O 8.6246 -5.34978 -6.00045 0
M  V30 113 H 8.3566 -0.153543 -0.658332 0
M  V30 114 H 10.9106 -1.07383 -1.75094 0
M  V30 115 H 9.1406 0.385539 -3.84773 0
M  V30 116 H 10.8296 0.0238088 -4.05893 0
M  V30 117 H 11.5956 -2.45658 -4.18183 0
M  V30 118 H 7.4746 -1.25686 -4.43536 0
M  V30 119 H 11.0186 -4.61628 -5.23015 0
M  V30 120 H 6.9156 -3.40764 -5.48225 0
M  V30 121 H 7.6836 -5.36088 -6.18508 0
M  V30 122 N 10.3467 1.47872 -0.545128 0
M  V30 123 C 11.3097 2.28337 0.198717 0
M  V30 124 C 12.3097 1.36255 0.853888 0
M  V30 125 O 13.4997 1.59003 0.711606 0
M  V30 126 C 10.6317 3.15585 1.28915 0
M  V30 127 H 11.8247 2.95567 -0.507941 0
M  V30 128 H 9.3777 1.53362 -0.301616 0
M  V30 129 H 10.1127 2.53019 2.02859 0
M  V30 130 H 9.8977 3.83337 0.824309 0
M  V30 131 H 11.3877 3.76243 1.81194 0
M  V30 132 N 11.8248 0.280983 1.55075 0
M  V30 133 C 13.2358 -0.215629 1.85451 0
M  V30 134 C 13.5868 -1.54991 1.203 0
M  V30 135 O 12.7118 -2.10699 0.493435 0
M  V30 136 C 13.3068 -0.398026 3.36454 0
M  V30 137 C 11.8658 -0.838866 3.66933 0
M  V30 138 C 11.0128 0.064458 2.77225 0
M  V30 139 H 13.9638 0.502601 1.50531 0
M  V30 140 H 13.9848 -1.23569 3.59876 0
M  V30 141 H 13.4968 0.573241 3.83843 0
M  V30 142 H 11.5978 -1.8214 3.25048 0
M  V30 143 H 11.7108 -0.672123 4.74362 0
M  V30 144 H 10.0748 -0.452863 2.50642 0
M  V30 145 H 10.8578 1.03172 3.2743 0
M  V30 146 N 13.3029 -1.57598 0.00835791 0
M  V30 147 C 14.7139 -1.7892 -0.53333 0
M  V30 148 C 15.0649 -0.916609 -1.73473 0
M  V30 149 O 14.1899 -0.121336 -2.1606 0
M  V30 150 C 14.7849 -3.24488 -0.974313 0
M  V30 151 C 13.3439 -3.46878 -1.46125 0
M  V30 152 C 12.4909 -2.74157 -0.416302 0
M  V30 153 H 15.4419 -1.56958 0.234495 0
M  V30 154 H 15.4629 -3.3306 -1.83988 0
M  V30 155 H 14.9749 -3.87972 -0.099718 0
M  V30 156 H 13.0759 -2.8862 -2.35646 0
M  V30 157 H 13.1889 -4.55572 -1.48295 0
M  V30 158 H 11.5529 -2.39022 -0.87981 0
M  V30 159 H 12.3359 -3.40345 0.44947 0
M  V30 160 N 14.781 0.264519 -1.55364 0
M  V30 161 C 16.192 0.834936 -1.6699 0
M  V30 162 C 16.543 1.86718 -0.602552 0
M  V30 163 O 15.668 2.14899 0.254425 0
M  V30 164 C 16.263 1.5212 -3.02729 0
M  V30 165 C 14.822 2.03954 -3.16354 0
M  V30 166 C 13.969 0.884498 -2.62815 0
M  V30 167 H 16.92 0.0406869 -1.58648 0
M  V30 168 H 16.941 2.38853 -2.96191 0
M  V30 169 H 16.453 0.769668 -3.80392 0
M  V30 170 H 14.554 2.82041 -2.43482 0
M  V30 171 H 14.667 2.24902 -4.23032 0
M  V30 172 H 13.031 1.2802 -2.20188 0
M  V30 173 H 13.814 0.14634 -3.42988 0
M  V30 174 N 16.2591 1.48442 0.529413 0
M  V30 175 C 17.4871 1.60151 1.30994 0
M  V30 176 C 17.9021 0.261985 1.86973 0
M  V30 177 O 17.2591 -0.748805 1.66431 0
M  V30 178 C 17.3101 2.64854 2.46038 0
M  V30 179 O 17.0311 3.93608 1.92365 0
M  V30 180 C 18.5321 2.87007 3.37849 0
M  V30 181 H 15.7521 0.539971 0.398338 0
M  V30 182 H 18.2961 1.94273 0.638597 0
M  V30 183 H 16.4511 2.33589 3.09055 0
M  V30 184 H 16.8651 4.51055 2.67675 0
M  V30 185 H 18.3391 3.64068 4.14919 0
M  V30 186 H 18.8161 1.95852 3.93114 0
M  V30 187 H 19.4221 3.19579 2.80623 0
M  V30 188 N 17.7372 -0.778329 1.37039 0
M  V30 189 C 19.1482 -1.35421 1.28523 0
M  V30 190 C 19.4992 -1.96075 -0.0700901 0
M  V30 191 O 18.6242 -1.93352 -0.971801 0
M  V30 192 C 19.2192 -2.46211 2.32735 0
M  V30 193 C 17.7782 -2.99585 2.27873 0
M  V30 194 C 16.9252 -1.72748 2.16918 0
M  V30 195 H 19.8762 -0.5791 1.47757 0
M  V30 196 H 19.8972 -3.2552 1.9702 0
M  V30 197 H 19.4092 -2.02036 3.31365 0
M  V30 198 H 17.5102 -3.48152 1.32745 0
M  V30 199 H 17.6232 -3.55646 3.21018 0
M  V30 200 H 15.9872 -1.95416 1.63354 0
M  V30 201 H 16.7702 -1.30686 3.17452 0
M  V30 202 N 19.2153 -1.21501 -1.00376 0
M  V30 203 C 20.1783 -0.976927 -2.07337 0
M  V30 204 C 21.1783 0.0525322 -1.60714 0
M  V30 205 O 22.3683 -0.184869 -1.73216 0
M  V30 206 C 19.5003 -0.473423 -3.37597 0
M  V30 207 H 20.6933 -1.92587 -2.29892 0
M  V30 208 H 18.2463 -1.03217 -1.17371 0
M  V30 209 H 18.9813 0.480379 -3.20722 0
M  V30 210 H 18.7663 -1.216 -3.72768 0
M  V30 211 H 20.2563 -0.32675 -4.1632 0
M  V30 212 N 20.6934 1.19889 -1.02296 0
M  V30 213 C 22.1044 1.71124 -0.746568 0
M  V30 214 C 22.4554 1.81939 0.734335 0
M  V30 215 O 21.5804 1.48639 1.57275 0
M  V30 216 C 22.1754 3.10804 -1.34857 0
M  V30 217 C 20.7344 3.59323 -1.1209 0
M  V30 218 C 19.8814 2.3635 -1.45031 0
M  V30 219 H 22.8324 1.04813 -1.19163 0
M  V30 220 H 22.8534 3.73186 -0.742437 0
M  V30 221 H 22.3654 3.029 -2.42638 0
M  V30 222 H 20.4664 3.7255 -0.0610337 0
M  V30 223 H 20.5794 4.4378 -1.80544 0
M  V30 224 H 18.9434 2.39399 -0.869487 0
M  V30 225 H 19.7264 2.31081 -2.53883 0
M  V30 226 N 22.1715 0.800033 1.35784 0
M  V30 227 C 23.1345 0.211565 2.28221 0
M  V30 228 C 24.1345 -0.59728 1.49296 0
M  V30 229 O 25.3245 -0.416721 1.69142 0
M  V30 230 C 22.4565 -0.705846 3.33513 0
M  V30 231 H 23.6495 1.02677 2.81776 0
M  V30 232 H 21.2025 0.570211 1.45528 0
M  V30 233 H 21.9375 -1.54498 2.85133 0
M  V30 234 H 21.7225 -0.127655 3.91892 0
M  V30 235 H 23.2125 -1.11211 4.02519 0
M  V30 236 N 23.6496 -1.47581 0.552962 0
M  V30 237 C 24.8776 -2.06875 0.0320556 0
M  V30 238 C 25.2926 -1.40625 -1.25976 0
M  V30 239 O 24.6496 -0.501349 -1.75479 0
M  V30 240 C 24.7006 -3.61092 -0.17167 0
M  V30 241 O 24.4216 -4.24858 1.06899 0
M  V30 242 C 25.9226 -4.37242 -0.730344 0
M  V30 243 H 23.1426 -0.669561 0.043915 0
M  V30 244 H 25.6866 -1.89646 0.765163 0
M  V30 245 H 23.8416 -3.7785 -0.854894 0
M  V30 246 H 24.2556 -5.17334 0.864059 0
M  V30 247 H 25.7296 -5.45842 -0.822203 0
M  V30 248 H 26.2066 -4.03235 -1.74064 0
M  V30 249 H 26.8126 -4.25219 -0.0829543 0
M  V30 250 N 25.1277 -0.289203 -1.54924 0
M  V30 251 C 26.0597 0.625583 -2.20497 0
M  V30 252 C 27.0727 1.10667 -1.19402 0
M  V30 253 O 28.2617 1.02615 -1.46056 0
M  V30 254 C 25.3617 1.86702 -2.82835 0
M  V30 255 C 24.5347 1.5304 -4.09753 0
M  V30 256 C 23.5937 2.62576 -4.56005 0
M  V30 257 O 22.6197 2.28167 -5.21468 0
M  V30 258 N 23.8217 3.92901 -4.27328 0
M  V30 259 H 26.5867 0.0642801 -2.99631 0
M  V30 260 H 24.1477 -0.110896 -1.6152 0
M  V30 261 H 26.1397 2.59304 -3.10715 0
M  V30 262 H 24.7097 2.33702 -2.07611 0
M  V30 263 H 23.9297 0.637564 -3.8901 0
M  V30 264 H 25.2177 1.28072 -4.92418 0
M  V30 265 H 24.6157 4.23671 -3.74859 0
M  V30 266 H 23.1727 4.61837 -4.59946 0
M  V30 267 N 26.6058 1.57591 -0.0167156 0
M  V30 268 C 27.5388 2.04944 1.00366 0
M  V30 269 C 28.5168 0.942648 1.32487 0
M  V30 270 O 29.7008 1.21205 1.44367 0
M  V30 271 C 26.8278 2.46109 2.32697 0
M  V30 272 C 25.8738 3.67686 2.16123 0
M  V30 273 S 26.7068 5.14882 1.47161 0
M  V30 274 C 27.8628 5.59332 2.80888 0
M  V30 275 H 28.0958 2.91172 0.600528 0
M  V30 276 H 25.6288 1.53168 0.194632 0
M  V30 277 H 27.5868 2.70493 3.08778 0
M  V30 278 H 26.2478 1.6025 2.70146 0
M  V30 279 H 25.4408 3.94296 3.13922 0
M  V30 280 H 25.0428 3.43391 1.48185 0
M  V30 281 H 27.3348 5.62814 3.77156 0
M  V30 282 H 28.2778 6.5905 2.58958 0
M  V30 283 H 28.6858 4.86942 2.85565 0
M  V30 284 N 28.0839 -0.256276 1.55502 0
M  V30 285 C 29.4949 -0.826068 1.67431 0
M  V30 286 C 29.8459 -1.86396 0.612446 0
M  V30 287 O 28.9709 -2.15031 -0.243025 0
M  V30 288 C 29.5659 -1.50512 3.03532 0
M  V30 289 C 28.1249 -2.02273 3.17431 0
M  V30 290 C 27.2719 -0.870548 2.63281 0
M  V30 291 H 30.2229 -0.0322728 1.58667 0
M  V30 292 H 30.2439 -2.37279 2.97454 0
M  V30 293 H 29.7559 -0.749484 3.80794 0
M  V30 294 H 27.8569 -2.80746 2.44974 0
M  V30 295 H 27.9699 -2.22655 4.24219 0
M  V30 296 H 26.3339 -1.26851 2.20864 0
M  V30 297 H 27.1169 -0.128149 3.43061 0
M  V30 298 N 29.562 -1.4872 -0.521534 0
M  V30 299 C 30.787 -1.61101 -1.30618 0
M  V30 300 C 31.212 -0.274611 -1.86085 0
M  V30 301 O 30.57 0.754937 -1.64834 0
M  V30 302 C 30.618 -2.66709 -2.4269 0
M  V30 303 O 29.722 -2.24456 -3.45967 0
M  V30 304 H 29.063 -0.539921 -0.386499 0
M  V30 305 H 31.593 -1.94767 -0.626645 0
M  V30 306 H 31.603 -2.88245 -2.88754 0
M  V30 307 H 30.278 -3.63727 -2.01682 0
M  V30 308 H 28.855 -2.13168 -3.05964 0
M  V30 309 N 31.0401 0.771051 -1.3745 0
M  V30 310 C 32.2681 1.56015 -1.35893 0
M  V30 311 C 32.6831 1.88718 0.0555523 0
M  V30 312 O 32.0401 1.51502 1.01752 0
M  V30 313 C 32.0911 2.87001 -2.19801 0
M  V30 314 O 31.8121 2.557 -3.55738 0
M  V30 315 C 33.3131 3.81228 -2.26231 0
M  V30 316 H 30.5331 0.483317 -0.465453 0
M  V30 317 H 33.0771 0.955611 -1.80799 0
M  V30 318 H 31.2321 3.43877 -1.78402 0
M  V30 319 H 31.6461 3.39584 -3.99729 0
M  V30 320 H 33.1201 4.70139 -2.89263 0
M  V30 321 H 33.5971 4.20409 -1.27093 0
M  V30 322 H 34.2031 3.30281 -2.67945 0
M  V30 323 N 32.5182 1.22032 0.997298 0
M  V30 324 C 33.9292 1.0397 1.55071 0
M  V30 325 C 34.2802 -0.398192 1.92117 0
M  V30 326 O 33.4052 -1.28254 1.74298 0
M  V30 327 C 34.0002 1.88109 2.81781 0
M  V30 328 C 32.5592 1.74357 3.33581 0
M  V30 329 C 31.7062 1.84846 2.06706 0
M  V30 330 H 34.6572 1.35941 0.818883 0
M  V30 331 H 34.6782 1.39589 3.53971 0
M  V30 332 H 34.1902 2.92754 2.54787 0
M  V30 333 H 32.2912 0.72427 3.65493 0
M  V30 334 H 32.4042 2.56772 4.04481 0
M  V30 335 H 30.7682 1.28238 2.20062 0
M  V30 336 H 31.5512 2.91014 1.82114 0
M  V30 337 N 33.9963 -1.19345 1.0293 0
M  V30 338 C 35.2443 -1.88665 0.724574 0
M  V30 339 C 35.5653 -1.80036 -0.749144 0
M  V30 340 O 34.8353 -1.2111 -1.53978 0
M  V30 341 H 33.4153 -0.698406 0.265025 0
M  V30 342 H 36.0773 -1.44885 1.30362 0
M  V30 343 H 35.1733 -2.94987 1.01926 0
M  V30 344 N 35.4744 -0.807222 -1.35358 0
M  V30 345 C 36.7214 -0.387888 -1.9875 0
M  V30 346 C 37.0494 1.04509 -1.64037 0
M  V30 347 O 36.3044 1.73986 -0.895946 0
M  V30 348 C 36.6034 -0.519036 -3.53611 0
M  V30 349 C 36.2694 -1.91542 -4.08194 0
M  V30 350 C 34.9314 -2.29745 -4.22813 0
M  V30 351 C 37.2834 -2.82896 -4.37744 0
M  V30 352 C 34.6114 -3.58668 -4.643 0
M  V30 353 C 36.9634 -4.11265 -4.8067 0
M  V30 354 C 35.6274 -4.49466 -4.93494 0
M  V30 355 H 34.8974 -0.141938 -0.727279 0
M  V30 356 H 37.5444 -1.02814 -1.6156 0
M  V30 357 H 35.8494 0.204658 -3.91265 0
M  V30 358 H 37.5464 -0.175345 -4.00616 0
M  V30 359 H 34.1364 -1.60862 -3.97268 0
M  V30 360 H 38.3204 -2.54629 -4.26002 0
M  V30 361 H 33.5764 -3.88113 -4.72418 0
M  V30 362 H 37.7504 -4.82153 -5.02496 0
M  V30 363 H 35.3774 -5.49418 -5.25399 0
M  V30 364 N 36.9525 1.47285 -0.560781 0
M  V30 365 C 38.1985 2.02764 -0.0381184 0
M  V30 366 C 38.5315 1.43384 1.30976 0
M  V30 367 O 37.8065 0.590733 1.85312 0
M  V30 368 C 38.0895 3.60064 0.0511427 0
M  V30 369 C 37.9425 4.2987 -1.32408 0
M  V30 370 C 39.2615 4.33439 0.762795 0
M  V30 371 H 36.3805 0.736841 -0.0153264 0
M  V30 372 H 39.0225 1.75675 -0.723759 0
M  V30 373 H 37.1725 3.83274 0.635065 0
M  V30 374 H 38.8445 4.17989 -1.95148 0
M  V30 375 H 37.0875 3.90085 -1.8978 0
M  V30 376 H 37.7585 5.38478 -1.21431 0
M  V30 377 H 40.2345 4.15243 0.266965 0
M  V30 378 H 39.1105 5.43124 0.794221 0
M  V30 379 H 39.3715 4.02915 1.81966 0
M  V30 380 N 38.4306 0.297415 1.54768 0
M  V30 381 C 39.6786 -0.312295 1.99673 0
M  V30 382 C 39.9996 -1.54686 1.18732 0
M  V30 383 O 39.2696 -1.93854 0.282382 0
M  V30 384 H 37.8496 -0.118381 0.73756 0
M  V30 385 H 40.5116 0.407915 1.90583 0
M  V30 386 H 39.6076 -0.586813 3.06534 0
M  V30 387 N 39.9087 -1.5758 0.0250728 0
M  V30 388 C 41.1387 -1.95646 -0.663783 0
M  V30 389 C 41.5467 -0.899935 -1.66427 0
M  V30 390 O 40.8897 0.127191 -1.83259 0
M  V30 391 C 40.9517 -3.29835 -1.43 0
M  V30 392 C 40.6157 -4.53197 -0.588305 0
M  V30 393 C 41.6127 -5.19726 0.13469 0
M  V30 394 C 39.2977 -4.99529 -0.526897 0
M  V30 395 C 41.2917 -6.30902 0.90781 0
M  V30 396 C 38.9787 -6.10589 0.24993 0
M  V30 397 C 39.9767 -6.76134 0.965994 0
M  V30 398 O 39.6647 -7.85062 1.7301 0
M  V30 399 H 39.3967 -0.649282 -0.188174 0
M  V30 400 H 41.9507 -2.05245 0.0799006 0
M  V30 401 H 40.1807 -3.16716 -2.21873 0
M  V30 402 H 41.8697 -3.52833 -2.00658 0
M  V30 403 H 42.6357 -4.84904 0.0965562 0
M  V30 404 H 38.5147 -4.48319 -1.07381 0
M  V30 405 H 42.0587 -6.81995 1.46724 0
M  V30 406 H 37.9557 -6.44849 0.289795 0
M  V30 407 H 38.7237 -8.01708 1.64944 0
M  V30 408 N 41.3868 0.248026 -1.55636 0
M  V30 409 C 42.3348 1.32683 -1.91045 0
M  V30 410 C 43.3288 1.49883 -0.789401 0
M  V30 411 O 44.5348 1.51371 -0.974007 0
M  V30 412 H 40.9098 0.444272 -0.606734 0
M  V30 413 H 42.8808 1.00085 -2.81115 0
M  V30 414 C 41.6298 2.6755 -2.22064 0
M  V30 415 H 40.9528 2.55114 -3.07826 0
M  V30 416 H 42.3928 3.41912 -2.50743 0
M  V30 417 C 40.8518 3.20556 -1.0366 0
M  V30 418 O 41.3818 4.00695 -0.284016 0
M  V30 419 N 39.5878 2.78568 -0.82753 0
M  V30 420 H 39.1348 2.1351 -1.44123 0
M  V30 421 H 39.0928 3.14378 -0.0369803 0
M  V30 422 N 42.8649 1.48995 0.513639 0
M  V30 423 C 44.2759 1.5119 1.09537 0
M  V30 424 C 44.6269 0.290906 1.94031 0
M  V30 425 O 43.7519 -0.60049 2.07902 0
M  V30 426 C 44.3469 2.73964 1.99322 0
M  V30 427 C 42.9059 2.78978 2.52682 0
M  V30 428 C 42.0529 2.44934 1.30009 0
M  V30 429 H 45.0039 1.55875 0.298125 0
M  V30 430 H 45.0249 2.53409 2.83838 0
M  V30 431 H 44.5369 3.62813 1.37799 0
M  V30 432 H 42.6379 1.94378 3.1788 0
M  V30 433 H 42.7509 3.8083 2.90698 0
M  V30 434 H 41.1149 1.9644 1.62122 0
M  V30 435 H 41.8979 3.36043 0.702131 0
M  V30 436 N 44.343 -0.763751 1.37857 0
M  V30 437 C 45.573 -1.55067 1.3652 0
M  V30 438 C 45.981 -1.89135 -0.0494227 0
M  V30 439 O 45.324 -1.52529 -1.02375 0
M  V30 440 C 45.386 -2.8838 2.14656 0
M  V30 441 C 45.05 -2.76905 3.63555 0
M  V30 442 C 46.047 -2.4739 4.57268 0
M  V30 443 C 43.732 -2.94676 4.06781 0
M  V30 444 C 45.726 -2.35786 5.92186 0
M  V30 445 C 43.413 -2.82692 5.41782 0
M  V30 446 C 44.411 -2.53289 6.34298 0
M  V30 447 O 44.099 -2.41345 7.66817 0
M  V30 448 H 43.831 -0.486776 0.469069 0
M  V30 449 H 46.385 -0.953812 1.81911 0
M  V30 450 H 44.615 -3.50217 1.63967 0
M  V30 451 H 46.304 -3.49828 2.05852 0
M  V30 452 H 47.07 -2.33339 4.2518 0
M  V30 453 H 42.949 -3.16563 3.35126 0
M  V30 454 H 46.493 -2.12757 6.64365 0
M  V30 455 H 42.39 -2.96314 5.7347 0
M  V30 456 H 43.158 -2.56634 7.77226 0
M  V30 457 N 45.8211 -1.22559 -0.990812 0
M  V30 458 C 47.0461 -1.07862 -1.77145 0
M  V30 459 C 47.4711 0.366447 -1.84496 0
M  V30 460 O 46.8291 1.26478 -1.29896 0
M  V30 461 C 46.8771 -1.69686 -3.18181 0
M  V30 462 O 45.9811 -0.951946 -4.01263 0
M  V30 463 H 45.3221 -0.378712 -0.545411 0
M  V30 464 H 47.8521 -1.62399 -1.2445 0
M  V30 465 H 47.8621 -1.74496 -3.68802 0
M  V30 466 H 46.5371 -2.74841 -3.12146 0
M  V30 467 H 45.1141 -0.980011 -3.59792 0
M  V30 468 N 47.2992 1.18797 -1.03562 0
M  V30 469 C 48.2492 2.20161 -0.592724 0
M  V30 470 C 49.2332 1.56772 0.362133 0
M  V30 471 O 50.4252 1.76062 0.182009 0
M  V30 472 C 47.5542 3.43266 0.0481024 0
M  V30 473 C 46.6402 4.13786 -0.9296 0
M  V30 474 N 47.0312 4.60388 -2.09467 0
M  V30 475 C 45.3292 4.39572 -0.754499 0
M  V30 476 C 46.0302 5.14619 -2.71187 0
M  V30 477 N 45.0062 5.05826 -1.991 0
M  V30 478 H 48.8082 2.53877 -1.48066 0
M  V30 479 H 46.3222 1.34946 -0.903514 0
M  V30 480 H 48.3192 4.15136 0.383058 0
M  V30 481 H 46.9792 3.11048 0.931636 0
M  V30 482 H 47.9902 4.54999 -2.47379 0
M  V30 483 H 44.6672 4.17425 0.0793713 0
M  V30 484 H 46.0572 5.60917 -3.69895 0
M  V30 485 N 48.7773 0.814389 1.34928 0
M  V30 486 C 49.7073 0.244827 2.32213 0
M  V30 487 C 50.6883 -0.634024 1.57842 0
M  V30 488 O 51.8733 -0.562676 1.8587 0
M  V30 489 C 49.0033 -0.601106 3.42058 0
M  V30 490 C 47.9573 0.179896 4.27622 0
M  V30 491 C 47.2833 -0.788237 5.28858 0
M  V30 492 C 48.5833 1.38329 5.03649 0
M  V30 493 H 50.2773 1.05763 2.80097 0
M  V30 494 H 47.8233 0.510029 1.34665 0
M  V30 495 H 49.7763 -1.00968 4.09125 0
M  V30 496 H 48.5003 -1.44688 2.92802 0
M  V30 497 H 47.1593 0.569739 3.62146 0
M  V30 498 H 46.8073 -1.62973 4.75866 0
M  V30 499 H 46.5073 -0.269942 5.8698 0
M  V30 500 H 48.0313 -1.19485 5.98795 0
M  V30 501 H 49.4453 1.04918 5.63618 0
M  V30 502 H 47.8423 1.83662 5.71304 0
M  V30 503 H 48.9123 2.16592 4.33839 0
M  V30 504 N 50.2554 -1.46986 0.568584 0
M  V30 505 C 51.2184 -2.28624 -0.162366 0
M  V30 506 C 52.2184 -1.37596 -0.832103 0
M  V30 507 O 53.4084 -1.60115 -0.68622 0
M  V30 508 C 50.5404 -3.17596 -1.23878 0
M  V30 509 H 51.7334 -2.94722 0.554899 0
M  V30 510 H 49.2864 -1.52863 0.325976 0
M  V30 511 H 50.0214 -2.56214 -1.98808 0
M  V30 512 H 49.8064 -3.846 -0.763219 0
M  V30 513 H 51.2964 -3.79078 -1.75185 0
M  V30 514 N 51.7335 -0.305618 -1.54608 0
M  V30 515 C 52.9635 0.304333 -2.04346 0
M  V30 516 C 53.3715 1.47715 -1.18224 0
M  V30 517 O 52.7145 1.82591 -0.201577 0
M  V30 518 C 52.7765 0.819031 -3.50046 0
M  V30 519 C 52.4405 -0.22912 -4.56425 0
M  V30 520 C 53.4375 -1.05914 -5.08997 0
M  V30 521 C 51.1225 -0.372148 -5.0092 0
M  V30 522 C 53.1165 -2.01809 -6.04609 0
M  V30 523 C 50.8035 -1.33454 -5.9635 0
M  V30 524 C 51.8015 -2.15599 -6.48079 0
M  V30 525 O 51.4895 -3.10205 -7.41639 0
M  V30 526 H 51.2215 0.0693996 -0.672428 0
M  V30 527 H 53.7755 -0.444548 -2.00532 0
M  V30 528 H 52.0055 1.61852 -3.51199 0
M  V30 529 H 53.6945 1.34537 -3.82955 0
M  V30 530 H 54.4605 -0.959538 -4.75413 0
M  V30 531 H 50.3395 0.257304 -4.60281 0
M  V30 532 H 53.8835 -2.65966 -6.44909 0
M  V30 533 H 49.7805 -1.43485 -6.29351 0
M  V30 534 H 50.5485 -3.05237 -7.59455 0
M  V30 535 N 53.2116 1.57565 -0.0334293 0
M  V30 536 C 54.1596 2.1164 0.96496 0
M  V30 537 C 55.1536 1.04398 1.33407 0
M  V30 538 O 56.3596 1.22828 1.3158 0
M  V30 539 H 52.7346 0.676222 0.32898 0
M  V30 540 H 54.7056 2.94455 0.483614 0
M  V30 541 C 53.4546 2.66207 2.23672 0
M  V30 542 H 52.7776 3.48378 1.96145 0
M  V30 543 H 54.2176 3.07685 2.9173 0
M  V30 544 C 52.6766 1.59151 2.96939 0
M  V30 545 O 53.2066 0.993858 3.89211 0
M  V30 546 N 51.4126 1.31093 2.59351 0
M  V30 547 H 50.9596 1.7988 1.84393 0
M  V30 548 H 50.9176 0.596889 3.08682 0
M  V30 549 N 54.6897 -0.239769 1.55765 0
M  V30 550 C 55.6377 -1.31668 1.91745 0
M  V30 551 C 56.6317 -1.49462 0.797338 0
M  V30 552 O 57.8377 -1.50852 0.982021 0
M  V30 553 H 54.2127 -0.441048 0.609082 0
M  V30 554 H 56.1837 -0.985923 2.81642 0
M  V30 555 C 54.9327 -2.66368 2.2348 0
M  V30 556 H 54.2557 -2.53478 3.09175 0
M  V30 557 H 55.6957 -3.40578 2.52553 0
M  V30 558 C 54.1547 -3.20002 1.05359 0
M  V30 559 O 54.6847 -4.00538 0.305261 0
M  V30 560 N 52.8907 -2.78126 0.842292 0
M  V30 561 H 52.4377 -2.12742 1.45253 0
M  V30 562 H 52.3957 -3.14354 0.053652 0
M  V30 563 N 56.1678 -1.49265 -0.50573 0
M  V30 564 C 57.3978 -1.61979 -1.28243 0
M  V30 565 C 57.8058 -0.288576 -1.86986 0
M  V30 566 O 57.1488 0.735408 -1.68337 0
M  V30 567 C 57.2108 -2.62632 -2.45489 0
M  V30 568 C 56.8748 -4.071 -2.07651 0
M  V30 569 C 57.8718 -4.94049 -1.61901 0
M  V30 570 C 55.5568 -4.52801 -2.17431 0
M  V30 571 C 57.5508 -6.24736 -1.26428 0
M  V30 572 C 55.2378 -5.83503 -1.8157 0
M  V30 573 C 56.2358 -6.69294 -1.36142 0
M  V30 574 O 55.9238 -7.9756 -1.00764 0
M  V30 575 H 55.6558 -0.54834 -0.395347 0
M  V30 576 H 58.2098 -1.96002 -0.614204 0
M  V30 577 H 56.4398 -2.2378 -3.15372 0
M  V30 578 H 58.1288 -2.64925 -3.07522 0
M  V30 579 H 58.8948 -4.5997 -1.53795 0
M  V30 580 H 54.7738 -3.86196 -2.51742 0
M  V30 581 H 58.3178 -6.91652 -0.908992 0
M  V30 582 H 54.2148 -6.17112 -1.89324 0
M  V30 583 H 54.9828 -8.10529 -1.13952 0
M  V30 584 N 57.6459 0.756429 -1.3826 0
M  V30 585 C 59.0619 1.0591 -1.19395 0
M  V30 586 C 59.2619 2.01459 -0.0406567 0
M  V30 587 O 58.3179 2.44909 0.614467 0
M  V30 588 C 59.6309 1.64191 -2.51916 0
M  V30 589 C 61.1789 1.76376 -2.58574 0
M  V30 590 C 61.6539 2.38069 -3.91264 0
M  V30 591 N 63.1449 2.45503 -3.92788 0
M  V30 592 C 63.8799 2.94126 -4.92217 0
M  V30 593 N 63.3759 3.42805 -6.02043 0
M  V30 594 N 65.1689 2.9314 -4.7961 0
M  V30 595 H 57.3199 0.122313 -2.12048 0
M  V30 596 H 59.5829 0.116892 -0.940766 0
M  V30 597 H 59.2889 1.01451 -3.3675 0
M  V30 598 H 59.1629 2.6329 -2.70108 0
M  V30 599 H 61.5499 2.38244 -1.74137 0
M  V30 600 H 61.6309 0.759894 -2.44252 0
M  V30 601 H 61.2749 1.76835 -4.76121 0
M  V30 602 H 61.2049 3.39091 -4.02895 0
M  V30 603 H 63.6959 2.1107 -3.13461 0
M  V30 604 H 64.0089 3.78354 -6.73846 0
M  V30 605 H 62.3539 3.4087 -6.05667 0
M  V30 606 H 65.5449 2.54419 -3.92923 0
M  V30 607 H 65.7179 3.30721 -5.5725 0
M  V30 608 N 59.124 1.23083 0.984299 0
M  V30 609 C 60.054 1.03292 2.09411 0
M  V30 610 C 61.035 -0.048923 1.7003 0
M  V30 611 O 62.22 0.114967 1.93859 0
M  V30 612 C 59.35 0.619155 3.41736 0
M  V30 613 C 58.304 1.64791 3.95004 0
M  V30 614 C 57.63 1.0897 5.23478 0
M  V30 615 C 58.93 3.03999 4.24714 0
M  V30 616 H 60.624 1.96119 2.26225 0
M  V30 617 H 58.17 0.944344 1.08711 0
M  V30 618 H 60.123 0.467777 4.18796 0
M  V30 619 H 58.847 -0.344786 3.24775 0
M  V30 620 H 57.506 1.78721 3.20085 0
M  V30 621 H 57.154 0.11686 5.02864 0
M  V30 622 H 56.854 1.77704 5.60085 0
M  V30 623 H 58.378 0.950093 6.03163 0
M  V30 624 H 59.792 2.93393 4.92538 0
M  V30 625 H 58.189 3.69936 4.72512 0
M  V30 626 H 59.259 3.53285 3.32142 0
M  V30 627 N 60.6021 -1.18246 1.0419 0
M  V30 628 C 61.8501 -1.87886 0.744543 0
M  V30 629 C 62.1711 -1.8082 -0.730006 0
M  V30 630 O 61.4411 -1.22736 -1.52685 0
M  V30 631 H 60.0211 -0.695556 0.272417 0
M  V30 632 H 62.6831 -1.43494 1.31892 0
M  V30 633 H 61.7791 -2.9389 1.05049 0
M  V30 634 N 62.0802 -0.821533 -1.34494 0
M  V30 635 C 63.3282 -0.408139 -1.97936 0
M  V30 636 C 63.6492 1.03193 -1.65457 0
M  V30 637 O 62.9192 1.71622 -0.944595 0
M  V30 638 H 61.4992 -0.147928 -0.732206 0
M  V30 639 H 64.1612 -1.05067 -1.64155 0
M  V30 640 H 63.2572 -0.52601 -3.07635 0
M  V30 641 N 63.5583 1.46682 -0.576371 0
M  V30 642 C 64.5063 2.31953 0.17335 0
M  V30 643 C 65.5003 1.44098 0.89062 0
M  V30 644 O 66.7063 1.60759 0.809728 0
M  V30 645 H 63.0813 0.748273 0.0747727 0
M  V30 646 H 65.0523 2.93007 -0.564738 0
M  V30 647 C 63.8013 3.27142 1.17786 0
M  V30 648 H 63.1243 3.94719 0.635361 0
M  V30 649 H 64.5643 3.896 1.67296 0
M  V30 650 C 63.0233 2.52036 2.23561 0
M  V30 651 O 63.5533 2.27877 3.3081 0
M  V30 652 N 61.7593 2.12709 1.97998 0
M  V30 653 H 61.3063 2.32557 1.10792 0
M  V30 654 H 61.2643 1.62776 2.68982 0
M  V30 655 N 65.0364 0.313813 1.54444 0
M  V30 656 C 66.4474 -0.176243 1.85866 0
M  V30 657 C 66.7984 -1.52405 1.23561 0
M  V30 658 O 65.9234 -2.09605 0.538016 0
M  V30 659 C 66.5184 -0.32657 3.37222 0
M  V30 660 C 65.0774 -0.760846 3.6863 0
M  V30 661 C 64.2244 0.123247 2.77026 0
M  V30 662 H 67.1754 0.534418 1.49431 0
M  V30 663 H 67.1964 -1.15908 3.62416 0
M  V30 664 H 66.7084 0.654531 3.82541 0
M  V30 665 H 64.8094 -1.75204 3.28838 0
M  V30 666 H 64.9224 -0.571353 4.75681 0
M  V30 667 H 63.2864 -0.399597 2.51546 0
M  V30 668 H 64.0694 1.10094 3.25168 0
M  V30 669 N 66.5145 -1.57545 0.0417849 0
M  V30 670 C 67.7625 -1.91937 -0.632829 0
M  V30 671 C 68.0835 -0.919978 -1.71934 0
M  V30 672 O 67.3535 0.0366064 -1.95866 0
M  V30 673 H 65.9335 -0.708493 -0.236742 0
M  V30 674 H 68.5955 -1.9468 0.0925745 0
M  V30 675 H 67.6915 -2.92912 -1.07746 0
M  V30 676 N 67.9926 0.231505 -1.5589 0
M  V30 677 C 69.2206 0.974505 -1.82513 0
M  V30 678 C 69.6356 1.78344 -0.619591 0
M  V30 679 O 68.9926 1.77792 0.411848 0
M  V30 680 C 69.0436 1.90007 -3.07538 0
M  V30 681 O 68.7646 1.12385 -4.2344 0
M  V30 682 C 70.2656 2.75779 -3.47075 0
M  V30 683 H 67.4856 0.286065 -0.606966 0
M  V30 684 H 70.0296 0.249739 -2.02969 0
M  V30 685 H 68.1846 2.57891 -2.89086 0
M  V30 686 H 68.5986 1.75125 -4.944 0
M  V30 687 H 70.0726 3.36443 -4.37619 0
M  V30 688 H 70.5496 3.47672 -2.68367 0
M  V30 689 H 71.1556 2.13323 -3.67931 0
M  V30 690 N 69.4707 1.49531 0.497807 0
M  V30 691 C 70.4187 1.66926 1.61983 0
M  V30 692 C 71.4127 0.535167 1.60724 0
M  V30 693 O 72.6187 0.714896 1.65195 0
M  V30 694 H 68.9937 0.526415 0.537021 0
M  V30 695 H 70.9647 2.61098 1.44465 0
M  V30 696 C 69.7137 1.75602 3.00099 0
M  V30 697 H 69.0367 2.62244 3.01775 0
M  V30 698 H 70.4767 1.91807 3.78135 0
M  V30 699 C 68.9357 0.501543 3.33146 0
M  V30 700 O 69.4657 -0.371342 3.9998 0
M  V30 701 N 67.6717 0.363531 2.88317 0
M  V30 702 H 67.2187 1.07485 2.34104 0
M  V30 703 H 67.1767 -0.474728 3.10795 0
M  V30 704 N 70.9488 -0.749086 1.3866 0
M  V30 705 C 72.1738 -1.54344 1.38538 0
M  V30 706 C 72.5988 -1.88088 -0.0216655 0
M  V30 707 O 71.9568 -1.50899 -1.00494 0
M  V30 708 C 72.0048 -2.8164 2.25192 0
M  V30 709 O 71.1088 -3.7698 1.67212 0
M  V30 710 H 70.4498 -0.466654 0.472367 0
M  V30 711 H 72.9798 -0.925355 1.82478 0
M  V30 712 H 72.9898 -3.30519 2.3921 0
M  V30 713 H 71.6648 -2.56411 3.27454 0
M  V30 714 H 70.2418 -3.35699 1.6236 0
M  V30 715 N 72.4269 -1.23603 -0.977757 0
M  V30 716 C 73.8429 -0.999251 -1.24447 0
M  V30 717 C 74.0429 0.298053 -1.99283 0
M  V30 718 O 73.0989 1.01681 -2.31122 0
M  V30 719 C 74.4119 -2.20784 -2.04144 0
M  V30 720 C 75.9599 -2.25303 -2.17273 0
M  V30 721 C 76.4349 -3.45755 -3.00362 0
M  V30 722 N 77.9259 -3.4601 -3.07947 0
M  V30 723 C 78.6609 -4.35868 -3.72568 0
M  V30 724 N 78.1569 -5.35966 -4.38991 0
M  V30 725 N 79.9499 -4.23605 -3.6948 0
M  V30 726 H 72.1009 -2.06986 -0.476483 0
M  V30 727 H 74.3639 -0.907801 -0.273134 0
M  V30 728 H 74.0699 -3.14945 -1.56533 0
M  V30 729 H 73.9439 -2.22085 -3.04891 0
M  V30 730 H 76.3309 -1.3168 -2.64092 0
M  V30 731 H 76.4119 -2.28033 -1.15907 0
M  V30 732 H 76.0559 -4.39687 -2.5424 0
M  V30 733 H 75.9859 -3.40266 -4.01904 0
M  V30 734 H 78.4769 -2.73588 -2.60688 0
M  V30 735 H 78.7899 -6.00783 -4.86086 0
M  V30 736 H 77.1349 -5.39863 -4.37691 0
M  V30 737 H 80.3259 -3.44647 -3.16759 0
M  V30 738 H 80.4989 -4.93836 -4.1956 0
M  V30 739 N 73.905 1.17692 -1.04816 0
M  V30 740 C 75.151 1.88137 -0.75711 0
M  V30 741 C 75.484 1.80604 0.713841 0
M  V30 742 O 74.759 1.21146 1.52164 0
M  V30 743 C 75.042 3.38318 -1.2334 0
M  V30 744 C 74.895 3.54622 -2.76701 0
M  V30 745 C 76.214 4.32214 -0.829415 0
M  V30 746 H 73.333 0.683163 -0.27651 0
M  V30 747 H 75.975 1.38424 -1.30149 0
M  V30 748 H 74.125 3.80787 -0.770286 0
M  V30 749 H 75.797 3.21194 -3.31107 0
M  V30 750 H 74.04 2.97026 -3.16161 0
M  V30 751 H 74.711 4.60028 -3.05088 0
M  V30 752 H 77.187 3.97565 -1.22805 0
M  V30 753 H 76.063 5.35838 -1.19033 0
M  V30 754 H 76.324 4.41294 0.266891 0
M  V30 755 N 75.3831 0.828654 1.34056 0
M  V30 756 C 76.6111 0.43262 2.02326 0
M  V30 757 C 77.0261 -0.963147 1.62385 0
M  V30 758 O 76.3831 -1.62425 0.832121 0
M  V30 759 C 76.4341 0.53182 3.57567 0
M  V30 760 O 76.1551 1.87258 3.96063 0
M  V30 761 C 77.6561 0.131422 4.43105 0
M  V30 762 H 74.8761 0.172923 0.648335 0
M  V30 763 H 77.4201 1.1184 1.71208 0
M  V30 764 H 75.5751 -0.105938 3.87255 0
M  V30 765 H 75.9891 1.85087 4.90758 0
M  V30 766 H 77.4631 0.251904 5.51425 0
M  V30 767 H 77.9401 -0.925645 4.29335 0
M  V30 768 H 78.5461 0.743207 4.18756 0
M  V30 769 N 76.8612 -1.46375 0.584142 0
M  V30 770 C 77.8242 -2.28784 -0.138108 0
M  V30 771 C 78.8242 -1.38471 -0.817462 0
M  V30 772 O 80.0142 -1.60833 -0.669199 0
M  V30 773 C 77.1462 -3.18892 -1.20503 0
M  V30 774 H 78.3392 -2.94117 0.586127 0
M  V30 775 H 75.8922 -1.52509 0.342171 0
M  V30 776 H 76.6272 -2.58309 -1.96079 0
M  V30 777 H 76.4122 -3.85388 -0.722384 0
M  V30 778 H 77.9022 -3.80914 -1.71155 0
M  V30 779 N 78.3393 -0.321999 -1.54275 0
M  V30 780 C 79.5643 0.285791 -2.05422 0
M  V30 781 C 79.9893 1.45124 -1.19669 0
M  V30 782 O 79.3473 1.80132 -0.205441 0
M  V30 783 C 79.3953 0.69956 -3.53749 0
M  V30 784 O 78.4993 1.8021 -3.70942 0
M  V30 785 H 77.8403 0.0518962 -0.661969 0
M  V30 786 H 80.3703 -0.469954 -1.9913 0
M  V30 787 H 80.3803 0.982649 -3.9599 0
M  V30 788 H 79.0553 -0.152864 -4.15619 0
M  V30 789 H 77.6323 1.51794 -3.40607 0
M  V30 790 N 79.8174 1.5752 -0.0501392 0
M  V30 791 C 81.0424 1.97376 0.636997 0
M  V30 792 C 81.4674 0.927466 1.63645 0
M  V30 793 O 80.8254 -0.10941 1.8097 0
M  V30 794 C 80.8734 3.36304 1.30123 0
M  V30 795 O 79.9774 3.34156 2.41689 0
M  V30 796 H 79.3184 0.642998 0.165679 0
M  V30 797 H 81.8484 2.04258 -0.118233 0
M  V30 798 H 81.8584 3.73008 1.65315 0
M  V30 799 H 80.5334 4.11993 0.568746 0
M  V30 800 H 79.1104 3.09196 2.08451 0
M  V30 801 N 81.2955 -0.223234 1.56011 0
M  V30 802 C 82.5435 -0.946003 1.78592 0
M  V30 803 C 82.8645 -1.84936 0.618349 0
M  V30 804 O 82.1345 -1.92473 -0.364833 0
M  V30 805 H 80.7145 -0.352298 0.658707 0
M  V30 806 H 83.3765 -0.235494 1.93472 0
M  V30 807 H 82.4725 -1.55381 2.70672 0
M  V30 808 N 82.7736 -1.49793 -0.48987 0
M  V30 809 C 84.0226 -1.59085 -1.23995 0
M  V30 810 C 84.3356 -0.287907 -1.9347 0
M  V30 811 O 85.5416 -0.259506 -2.70257 0
M  V30 812 C 83.9976 -2.80736 -2.252 0
M  V30 813 C 83.6056 -4.17833 -1.61614 0
M  V30 814 C 85.3496 -2.99364 -3.00967 0
M  V30 815 C 83.2566 -5.30693 -2.60996 0
M  V30 816 H 82.1866 -0.592372 -0.466488 0
M  V30 817 H 84.8376 -1.76197 -0.51252 0
M  V30 818 H 83.2196 -2.57142 -3.01154 0
M  V30 819 H 84.3936 -4.51608 -0.915774 0
M  V30 820 H 82.7086 -4.04656 -0.981977 0
M  V30 821 H 85.3056 -3.80851 -3.75308 0
M  V30 822 H 85.6486 -2.10356 -3.59244 0
M  V30 823 H 86.1816 -3.2305 -2.32128 0
M  V30 824 H 82.9206 -6.21796 -2.07485 0
M  V30 825 H 82.4406 -5.01359 -3.2924 0
M  V30 826 H 84.1196 -5.6049 -3.23202 0
M  V30 827 N 84.2517 0.741722 -1.39055 0
M  V30 828 C 85.4797 1.53098 -1.39171 0
M  V30 829 C 85.8947 1.88794 0.0155099 0
M  V30 830 O 85.2517 1.53626 0.985159 0
M  V30 831 C 85.3027 2.82274 -2.2584 0
M  V30 832 O 85.0237 2.48097 -3.61081 0
M  V30 833 C 86.5247 3.76343 -2.34266 0
M  V30 834 H 83.7447 0.473335 -0.4756 0
M  V30 835 H 86.2887 0.917045 -1.82785 0
M  V30 836 H 84.4437 3.40015 -1.85656 0
M  V30 837 H 84.8577 3.31029 -4.06842 0
M  V30 838 H 86.3317 4.63898 -2.9917 0
M  V30 839 H 86.8087 4.17619 -1.35982 0
M  V30 840 H 87.4147 3.24523 -2.74891 0
M  V30 841 N 85.7298 1.2412 0.971189 0
M  V30 842 C 86.9788 1.07284 1.70801 0
M  V30 843 C 87.2918 -0.388902 1.91695 0
M  V30 844 O 88.4978 -0.677379 2.62914 0
M  V30 845 C 86.9538 1.87145 3.07416 0
M  V30 846 C 86.5618 3.37707 2.94377 0
M  V30 847 C 88.3058 1.78828 3.84995 0
M  V30 848 C 86.2128 4.09925 4.26281 0
M  V30 849 H 85.1428 0.397854 0.64049 0
M  V30 850 H 87.7938 1.4817 1.0825 0
M  V30 851 H 86.1758 1.39071 3.70777 0
M  V30 852 H 87.3498 3.93335 2.4005 0
M  V30 853 H 85.6648 3.46938 2.30267 0
M  V30 854 H 88.2618 2.30089 4.82662 0
M  V30 855 H 88.6048 0.75284 4.09436 0
M  V30 856 H 89.1378 2.24563 3.28354 0
M  V30 857 H 85.8768 5.13813 4.07033 0
M  V30 858 H 85.3968 3.59083 4.80437 0
M  V30 859 H 87.0758 4.1673 4.94919 0
M  V30 860 N 87.2079 -1.17134 1.05439 0
M  V30 861 C 88.6189 -1.69084 0.791676 0
M  V30 862 C 88.9699 -1.83822 -0.685839 0
M  V30 863 O 88.0949 -1.52757 -1.53278 0
M  V30 864 C 88.6899 -3.07119 1.4305 0
M  V30 865 C 87.2489 -3.56225 1.21577 0
M  V30 866 C 86.3959 -2.32421 1.51247 0
M  V30 867 H 89.3469 -1.01617 1.219 0
M  V30 868 H 89.3679 -3.71087 0.84112 0
M  V30 869 H 88.8799 -2.9636 2.50584 0
M  V30 870 H 86.9809 -3.72257 0.159787 0
M  V30 871 H 87.0939 -4.38837 1.92246 0
M  V30 872 H 85.4579 -2.3701 0.932653 0
M  V30 873 H 86.2409 -2.24268 2.5992 0
M  V30 874 N 88.686 -0.835752 -1.33615 0
M  V30 875 C 89.633 -0.26473 -2.29277 0
M  V30 876 C 90.603 0.617712 -1.54187 0
M  V30 877 O 91.788 0.556641 -1.825 0
M  V30 878 C 88.928 0.556777 -3.40579 0
M  V30 879 C 88.041 -0.349339 -4.30585 0
M  V30 880 C 87.176 0.482969 -5.29 0
M  V30 881 C 86.215 -0.421732 -6.10645 0
M  V30 882 N 85.352 0.372262 -7.01112 0
M  V30 883 H 90.192 -1.08582 -2.77514 0
M  V30 884 H 87.729 -0.546927 -1.36554 0
M  V30 885 H 89.687 1.04852 -4.03809 0
M  V30 886 H 88.317 1.34286 -2.93542 0
M  V30 887 H 87.369 -0.959372 -3.68104 0
M  V30 888 H 88.681 -1.04445 -4.87742 0
M  V30 889 H 87.835 1.03866 -5.97743 0
M  V30 890 H 86.574 1.21153 -4.72412 0
M  V30 891 H 85.579 -0.989464 -5.40823 0
M  V30 892 H 86.804 -1.14861 -6.69316 0
M  V30 893 H 84.75 1.08426 -6.46977 0
M  V30 894 H 84.667 -0.264198 -7.55538 0
M  V30 895 H 85.935 0.910293 -7.74167 0
M  V30 896 N 90.1641 1.46063 -0.591896 0
M  V30 897 C 91.5751 1.85944 -0.167822 0
M  V30 898 C 91.9261 1.49429 1.27143 0
M  V30 899 O 91.0511 0.913515 1.96173 0
M  V30 900 C 91.6461 3.37489 -0.297794 0
M  V30 901 C 90.2051 3.76332 0.0714732 0
M  V30 902 C 89.3521 2.7006 -0.629509 0
M  V30 903 H 92.3031 1.37087 -0.799555 0
M  V30 904 H 92.3241 3.77532 0.474349 0
M  V30 905 H 91.8361 3.64034 -1.3454 0
M  V30 906 H 89.9371 3.55405 1.11886 0
M  V30 907 H 90.0501 4.78088 -0.311245 0
M  V30 908 H 88.4141 2.54607 -0.0687867 0
M  V30 909 H 89.1971 2.99444 -1.67894 0
M  V30 910 N 91.6422 0.330177 1.54103 0
M  V30 911 C 93.0532 -0.15652 1.86043 0
M  V30 912 C 93.4042 -1.51086 1.2517 0
M  V30 913 O 92.5292 -2.09023 0.560217 0
M  V30 914 C 93.1242 -0.290784 3.3755 0
M  V30 915 C 91.6832 -0.721705 3.69416 0
M  V30 916 C 90.8302 0.152622 2.7688 0
M  V30 917 H 93.7812 0.550237 1.48856 0
M  V30 918 H 93.8022 -1.12058 3.63625 0
M  V30 919 H 93.3142 0.695068 3.81825 0
M  V30 920 H 91.4152 -1.71706 3.30678 0
M  V30 921 H 91.5282 -0.520869 4.7626 0
M  V30 922 H 89.8922 -0.372894 2.51956 0
M  V30 923 H 90.6752 1.13536 3.23982 0
M  V30 924 N 93.1203 -1.57491 0.0584922 0
M  V30 925 C 94.0673 -2.11958 -0.913376 0
M  V30 926 C 95.0373 -1.02875 -1.30407 0
M  V30 927 O 96.2223 -1.30464 -1.39226 0
M  V30 928 C 93.3623 -2.67497 -2.18035 0
M  V30 929 C 92.4753 -3.90691 -1.84349 0
M  V30 930 C 91.6103 -4.3452 -3.05559 0
M  V30 931 C 90.6493 -5.50395 -2.67827 0
M  V30 932 N 89.7863 -5.89244 -3.81754 0
M  V30 933 H 94.6263 -2.94704 -0.442017 0
M  V30 934 H 92.1633 -1.45643 -0.206545 0
M  V30 935 H 94.1213 -2.978 -2.92183 0
M  V30 936 H 92.7513 -1.87537 -2.62735 0
M  V30 937 H 91.8033 -3.66934 -1.00319 0
M  V30 938 H 93.1153 -4.7489 -1.5258 0
M  V30 939 H 92.2693 -4.66414 -3.87998 0
M  V30 940 H 91.0083 -3.49147 -3.40511 0
M  V30 941 H 90.0133 -5.18165 -1.83806 0
M  V30 942 H 91.2383 -6.3749 -2.34059 0
M  V30 943 H 89.1843 -5.06823 -4.16493 0
M  V30 944 H 89.1013 -6.68151 -3.53708 0
M  V30 945 H 90.3693 -6.25756 -4.64811 0
M  V30 946 N 94.5984 0.214957 -1.56127 0
M  V30 947 C 96.0094 0.781386 -1.69562 0
M  V30 948 C 96.3604 1.84707 -0.66165 0
M  V30 949 O 95.4854 2.156 0.185927 0
M  V30 950 C 96.0804 1.42411 -3.07416 0
M  V30 951 C 94.6394 1.93786 -3.22683 0
M  V30 952 C 93.7864 0.800438 -2.65496 0
M  V30 953 H 96.7374 -0.00980633 -1.58697 0
M  V30 954 H 96.7584 2.29309 -3.0364 0
M  V30 955 H 96.2704 0.64826 -3.82648 0
M  V30 956 H 94.3714 2.74152 -2.52332 0
M  V30 957 H 94.4844 2.1133 -4.29973 0
M  V30 958 H 92.8484 1.2095 -2.2415 0
M  V30 959 H 93.6314 0.0371471 -3.4328 0
M  V30 960 N 96.0765 1.50051 0.48192 0
M  V30 961 C 97.4875 1.5348 1.06305 0
M  V30 962 C 97.8385 0.331997 1.93371 0
M  V30 963 O 96.9635 -0.556256 2.09129 0
M  V30 964 C 97.5585 2.7813 1.93466 0
M  V30 965 C 96.1175 2.84275 2.46707 0
M  V30 966 C 95.2645 2.47637 1.24785 0
M  V30 967 H 98.2155 1.56472 0.264995 0
M  V30 968 H 98.2365 2.59372 2.78399 0
M  V30 969 H 97.7485 3.65654 1.30072 0
M  V30 970 H 95.8495 2.01077 3.13686 0
M  V30 971 H 95.9625 3.8691 2.82555 0
M  V30 972 H 94.3265 1.99835 1.57918 0
M  V30 973 H 95.1095 3.37457 0.630694 0
M  V30 974 N 97.5546 -0.734337 1.39446 0
M  V30 975 C 98.8316 -1.48579 1.27215 0
M  V30 976 C 99.2116 -2.1077 -0.117968 0
M  V30 977 O 98.5596 -1.98646 -1.12924 0
M  V30 978 C 98.7696 -2.53667 2.39696 0
M  V30 979 C 100.118 -3.20031 2.79044 0
M  V30 980 O 101.142 -2.6398 2.39151 0
M  V30 981 O 100.001 -4.21455 3.47905 0
M  V30 982 H 97.0946 -0.659816 0.49857 0
M  V30 983 H 99.6406 -0.768106 1.51322 0
M  V30 984 H 98.4126 -2.06096 3.32626 0
M  V30 985 H 98.0356 -3.32994 2.17258 0
M  V30 986 N 99.0327 -1.24633 -0.964593 0
M  V30 987 C 99.9797 -1.04144 -2.05968 0
M  V30 988 C 100.95 0.046262 -1.66036 0
M  V30 989 O 102.135 -0.108972 -1.90489 0
M  V30 990 C 99.2747 -0.65563 -3.38815 0
M  V30 991 C 98.3877 -1.81714 -3.91923 0
M  V30 992 C 97.5227 -1.37662 -5.13052 0
M  V30 993 C 96.5617 -2.50788 -5.58365 0
M  V30 994 N 95.6987 -2.07582 -6.70712 0
M  V30 995 H 100.539 -1.9787 -2.22827 0
M  V30 996 H 98.0757 -0.9855 -1.09208 0
M  V30 997 H 100.034 -0.412954 -4.15151 0
M  V30 998 H 98.6637 0.244627 -3.21872 0
M  V30 999 H 97.7157 -2.1734 -3.12198 0
M  V30 1000 H 99.0277 -2.66705 -4.21509 0
M  V30 1001 H 98.1817 -1.093 -5.96773 0
M  V30 1002 H 96.9207 -0.497293 -4.85158 0
M  V30 1003 H 95.9257 -2.79906 -4.73215 0
M  V30 1004 H 97.1507 -3.39283 -5.88272 0
M  V30 1005 H 95.0967 -1.22051 -6.44546 0
M  V30 1006 H 95.0137 -2.86125 -6.99763 0
M  V30 1007 H 96.2817 -1.82369 -7.57867 0
M  V30 1008 N 100.511 1.16574 -1.06058 0
M  V30 1009 C 101.922 1.68662 -0.800632 0
M  V30 1010 C 102.273 1.84184 0.67608 0
M  V30 1011 O 101.398 1.53568 1.52466 0
M  V30 1012 C 101.993 3.06356 -1.44676 0
M  V30 1013 C 100.552 3.55575 -1.23465 0
M  V30 1014 C 99.6988 2.31616 -1.52477 0
M  V30 1015 H 102.65 1.00969 -1.22438 0
M  V30 1016 H 102.671 3.70636 -0.860788 0
M  V30 1017 H 102.183 2.95027 -2.52152 0
M  V30 1018 H 100.284 3.72167 -0.179527 0
M  V30 1019 H 100.397 4.37812 -1.94571 0
M  V30 1020 H 98.7608 2.36512 -0.945209 0
M  V30 1021 H 99.5438 2.22887 -2.61106 0
M  V30 1022 N 101.989 0.842826 1.3317 0
M  V30 1023 C 102.919 0.294028 2.31641 0
M  V30 1024 C 103.9 -0.600401 1.59151 0
M  V30 1025 O 105.085 -0.523124 1.87022 0
M  V30 1026 C 102.215 -0.528416 3.43257 0
M  V30 1027 C 101.169 0.27056 4.27144 0
M  V30 1028 C 100.495 -0.675881 5.30411 0
M  V30 1029 C 101.795 1.48981 5.00602 0
M  V30 1030 H 103.489 1.11681 2.77791 0
M  V30 1031 H 101.035 0.538478 1.33553 0
M  V30 1032 H 102.988 -0.922674 4.11175 0
M  V30 1033 H 101.712 -1.38445 2.95805 0
M  V30 1034 H 100.371 0.646427 3.60856 0
M  V30 1035 H 100.019 -1.52842 4.79216 0
M  V30 1036 H 99.7189 -0.145374 5.8742 0
M  V30 1037 H 101.243 -1.06757 6.01195 0
M  V30 1038 H 102.657 1.16849 5.61266 0
M  V30 1039 H 101.054 1.95739 5.6728 0
M  V30 1040 H 102.124 2.25746 4.29147 0
M  V30 1041 N 103.467 -1.45747 0.599634 0
M  V30 1042 C 104.4 -2.27547 -0.172552 0
M  V30 1043 C 105.378 -1.36657 -0.881116 0
M  V30 1044 O 106.562 -1.66081 -0.891595 0
M  V30 1045 C 103.689 -3.14829 -1.24903 0
M  V30 1046 C 102.735 -4.21603 -0.644465 0
M  V30 1047 S 103.568 -5.32754 0.541606 0
M  V30 1048 C 104.724 -6.23604 -0.535656 0
M  V30 1049 H 104.957 -2.92691 0.521468 0
M  V30 1050 H 102.49 -1.49473 0.386947 0
M  V30 1051 H 104.448 -3.65675 -1.86527 0
M  V30 1052 H 103.109 -2.48965 -1.91508 0
M  V30 1053 H 102.302 -4.82566 -1.45417 0
M  V30 1054 H 101.904 -3.73857 -0.103534 0
M  V30 1055 H 104.196 -6.62519 -1.41686 0
M  V30 1056 H 105.139 -7.0809 0.0376246 0
M  V30 1057 H 105.547 -5.58103 -0.84741 0
M  V30 1058 N 104.945 -0.338344 -1.53925 0
M  V30 1059 C 106.356 0.146651 -1.86123 0
M  V30 1060 C 106.707 1.5042 -1.2597 0
M  V30 1061 O 105.832 2.08723 -0.571294 0
M  V30 1062 C 106.427 0.272879 -3.37699 0
M  V30 1063 C 104.986 0.702103 -3.69794 0
M  V30 1064 C 104.133 -0.167304 -2.76795 0
M  V30 1065 H 107.084 -0.558123 -1.48562 0
M  V30 1066 H 107.105 1.10128 -3.64214 0
M  V30 1067 H 106.617 -0.715307 -3.81451 0
M  V30 1068 H 104.718 1.6995 -3.31584 0
M  V30 1069 H 104.831 0.495604 -4.7653 0
M  V30 1070 H 103.195 0.359527 -2.5215 0
M  V30 1071 H 103.978 -1.15253 -3.23375 0
M  V30 1072 N 106.423 1.57458 -0.0668435 0
M  V30 1073 C 107.653 1.97337 0.611677 0
M  V30 1074 C 108.061 0.943744 1.63982 0
M  V30 1075 O 107.404 -0.0785584 1.83532 0
M  V30 1076 C 107.466 3.33511 1.34205 0
M  V30 1077 C 107.13 4.54598 0.467941 0
M  V30 1078 C 108.127 5.19186 -0.272439 0
M  V30 1079 C 105.812 5.0075 0.39427 0
M  V30 1080 C 107.806 6.28274 -1.07476 0
M  V30 1081 C 105.493 6.09711 -0.411729 0
M  V30 1082 C 106.491 6.73335 -1.14492 0
M  V30 1083 O 106.179 7.80199 -1.93763 0
M  V30 1084 H 105.911 0.654042 0.170893 0
M  V30 1085 H 108.465 2.04961 -0.134289 0
M  V30 1086 H 106.695 3.22487 2.13398 0
M  V30 1087 H 108.384 3.58029 1.91233 0
M  V30 1088 H 109.15 4.84477 -0.225086 0
M  V30 1089 H 105.029 4.51009 0.954569 0
M  V30 1090 H 108.573 6.77866 -1.64755 0
M  V30 1091 H 104.47 6.43854 -0.460664 0
M  V30 1092 H 105.238 7.97053 -1.86142 0
M  V30 1093 N 107.901 -0.206675 1.56239 0
M  V30 1094 C 108.834 -1.28383 1.88661 0
M  V30 1095 C 109.812 -1.44504 0.745481 0
M  V30 1096 O 110.996 -1.60079 0.995336 0
M  V30 1097 C 108.123 -2.65211 2.10667 0
M  V30 1098 C 107.169 -2.66025 3.33366 0
M  V30 1099 S 108.002 -2.18609 4.88846 0
M  V30 1100 C 109.158 -3.57283 5.13906 0
M  V30 1101 H 109.391 -1.00691 2.7973 0
M  V30 1102 H 106.924 -0.409627 1.48867 0
M  V30 1103 H 108.882 -3.43979 2.24029 0
M  V30 1104 H 107.543 -2.90121 1.20369 0
M  V30 1105 H 106.736 -3.66607 3.45855 0
M  V30 1106 H 106.338 -1.95331 3.18938 0
M  V30 1107 H 108.63 -4.53074 5.03717 0
M  V30 1108 H 109.573 -3.49699 6.15724 0
M  V30 1109 H 109.981 -3.51659 4.41583 0
M  V30 1110 N 109.379 -1.50304 -0.473955 0
M  V30 1111 C 110.795 -1.37667 -0.807466 0
M  V30 1112 C 110.995 -0.430555 -1.96846 0
M  V30 1113 O 110.051 0.127874 -2.52176 0
M  V30 1114 C 111.364 -2.78974 -1.12223 0
M  V30 1115 C 112.912 -2.87868 -1.22885 0
M  V30 1116 C 113.387 -4.30003 -1.57676 0
M  V30 1117 N 114.878 -4.3294 -1.64673 0
M  V30 1118 C 115.613 -5.3991 -1.93091 0
M  V30 1119 N 115.109 -6.57092 -2.1955 0
M  V30 1120 N 116.902 -5.27351 -1.94569 0
M  V30 1121 H 109.053 -2.10394 0.291212 0
M  V30 1122 H 111.316 -0.945575 0.0677609 0
M  V30 1123 H 111.022 -3.50031 -0.342229 0
M  V30 1124 H 110.896 -3.16038 -2.05913 0
M  V30 1125 H 113.283 -2.17032 -1.99953 0
M  V30 1126 H 113.364 -2.54352 -0.271814 0
M  V30 1127 H 113.008 -5.01375 -0.81149 0
M  V30 1128 H 112.938 -4.61004 -2.54525 0
M  V30 1129 H 115.429 -3.48441 -1.46277 0
M  V30 1130 H 115.742 -7.34425 -2.405 0
M  V30 1131 H 114.087 -6.60272 -2.16948 0
M  V30 1132 H 117.278 -4.34801 -1.73394 0
M  V30 1133 H 117.451 -6.10805 -2.16381 0
M  V30 1134 N 110.857 0.726932 -1.39834 0
M  V30 1135 C 112.087 1.51393 -1.40583 0
M  V30 1136 C 112.495 1.892 -0.000740625 0
M  V30 1137 O 111.838 1.55189 0.982951 0
M  V30 1138 C 111.9 2.82588 -2.22226 0
M  V30 1139 C 111.564 2.67169 -3.70769 0
M  V30 1140 C 112.561 2.3518 -4.63666 0
M  V30 1141 C 110.246 2.83788 -4.14451 0
M  V30 1142 C 112.24 2.20002 -5.98229 0
M  V30 1143 C 109.927 2.68229 -5.49087 0
M  V30 1144 C 110.925 2.36382 -6.4079 0
M  V30 1145 O 110.613 2.2093 -7.72946 0
M  V30 1146 H 110.345 0.474168 -0.48181 0
M  V30 1147 H 112.899 0.905247 -1.84376 0
M  V30 1148 H 111.129 3.45746 -1.73195 0
M  V30 1149 H 112.818 3.44247 -2.15055 0
M  V30 1150 H 113.584 2.21984 -4.31217 0
M  V30 1151 H 109.463 3.07566 -3.43401 0
M  V30 1152 H 113.007 1.95067 -6.69772 0
M  V30 1153 H 108.904 2.81006 -5.81125 0
M  V30 1154 H 109.672 2.35937 -7.83757 0
M  V30 1155 N 112.336 1.25143 0.95797 0
M  V30 1156 C 113.561 1.12521 1.74223 0
M  V30 1157 C 113.986 -0.317402 1.85403 0
M  V30 1158 O 113.344 -1.2299 1.33204 0
M  V30 1159 C 113.392 1.78062 3.1357 0
M  V30 1160 O 112.496 1.058 3.98598 0
M  V30 1161 H 111.837 0.39304 0.535178 0
M  V30 1162 H 114.367 1.65641 1.201 0
M  V30 1163 H 114.377 1.84213 3.64046 0
M  V30 1164 H 113.052 2.83021 3.04749 0
M  V30 1165 H 111.629 1.07506 3.57067 0
M  V30 1166 N 113.814 -1.1601 1.06675 0
M  V30 1167 C 115.23 -1.38622 0.790948 0
M  V30 1168 C 115.43 -1.92109 -0.607965 0
M  V30 1169 O 114.486 -2.12239 -1.36787 0
M  V30 1170 C 115.799 -2.36347 1.85905 0
M  V30 1171 C 117.347 -2.50023 1.88301 0
M  V30 1172 C 117.822 -3.51033 2.94176 0
M  V30 1173 N 119.313 -3.58563 2.93235 0
M  V30 1174 C 120.048 -4.36521 3.71803 0
M  V30 1175 N 119.544 -5.17869 4.602 0
M  V30 1176 N 121.337 -4.31541 3.60178 0
M  V30 1177 H 113.488 -0.796294 1.96908 0
M  V30 1178 H 115.751 -0.412597 0.853503 0
M  V30 1179 H 115.457 -2.04147 2.86386 0
M  V30 1180 H 115.331 -3.36042 1.71334 0
M  V30 1181 H 117.718 -2.81524 0.884769 0
M  V30 1182 H 117.799 -1.5035 2.06951 0
M  V30 1183 H 117.443 -3.20268 3.94196 0
M  V30 1184 H 117.373 -4.50445 2.72776 0
M  V30 1185 H 119.864 -3.00496 2.29152 0
M  V30 1186 H 120.177 -5.74578 5.16797 0
M  V30 1187 H 118.522 -5.17199 4.64253 0
M  V30 1188 H 121.713 -3.67051 2.90502 0
M  V30 1189 H 121.886 -4.9205 4.21653 0
M  V30 1190 N 115.292 -0.849877 -1.32721 0
M  V30 1191 C 116.239 -0.289033 -2.28983 0
M  V30 1192 C 117.209 0.601324 -1.54833 0
M  V30 1193 O 118.394 0.537253 -1.8308 0
M  V30 1194 C 115.534 0.520623 -3.4115 0
M  V30 1195 C 114.647 -0.394989 -4.3019 0
M  V30 1196 C 113.782 0.426834 -5.29482 0
M  V30 1197 C 112.821 -0.486476 -6.10164 0
M  V30 1198 N 111.958 0.297879 -7.01468 0
M  V30 1199 H 116.798 -1.11519 -2.76347 0
M  V30 1200 H 114.335 -0.56138 -1.35967 0
M  V30 1201 H 116.293 1.00563 -4.04899 0
M  V30 1202 H 114.923 1.31165 -2.9495 0
M  V30 1203 H 113.975 -0.99836 -3.67065 0
M  V30 1204 H 115.287 -1.09612 -4.86607 0
M  V30 1205 H 114.441 0.975205 -5.98811 0
M  V30 1206 H 113.18 1.16136 -4.73671 0
M  V30 1207 H 112.185 -1.04677 -5.39743 0
M  V30 1208 H 113.41 -1.21953 -6.6806 0
M  V30 1209 H 111.356 1.01558 -6.48091 0
M  V30 1210 H 111.273 -0.344318 -7.55216 0
M  V30 1211 H 112.541 0.828131 -7.75089 0
M  V30 1212 N 116.77 1.45427 -0.607355 0
M  V30 1213 C 118.016 2.0254 -0.102607 0
M  V30 1214 C 118.349 1.47478 1.26348 0
M  V30 1215 O 117.624 0.64939 1.83339 0
M  V30 1216 C 117.907 3.60044 -0.0634347 0
M  V30 1217 C 117.76 4.2544 -1.46017 0
M  V30 1218 C 119.079 4.35646 0.624514 0
M  V30 1219 H 116.198 0.73598 -0.0387607 0
M  V30 1220 H 118.84 1.73284 -0.779282 0
M  V30 1221 H 116.99 3.85101 0.512808 0
M  V30 1222 H 118.662 4.11569 -2.08347 0
M  V30 1223 H 116.905 3.83849 -2.02094 0
M  V30 1224 H 117.576 5.34342 -1.385 0
M  V30 1225 H 120.052 4.15882 0.134723 0
M  V30 1226 H 118.928 5.45376 0.621028 0
M  V30 1227 H 119.189 4.08501 1.69055 0
M  V30 1228 N 118.248 0.346503 1.53744 0
M  V30 1229 C 119.494 -0.242135 2.01954 0
M  V30 1230 C 119.849 -1.47962 1.22984 0
M  V30 1231 O 119.142 -1.89077 0.309924 0
M  V30 1232 C 119.336 -0.605809 3.52228 0
M  V30 1233 C 119.165 0.594882 4.45748 0
M  V30 1234 C 117.935 1.1011 4.93157 0
M  V30 1235 C 120.133 1.45425 4.93311 0
M  V30 1236 N 118.115 2.26381 5.70636 0
M  V30 1237 C 119.486 2.46383 5.68942 0
M  V30 1238 C 121.541 1.47935 4.75415 0
M  V30 1239 C 120.244 3.49684 6.28581 0
M  V30 1240 C 122.27 2.50119 5.35905 0
M  V30 1241 C 121.632 3.49803 6.11406 0
M  V30 1242 H 117.731 -0.0518296 0.780281 0
M  V30 1243 H 120.315 0.486736 1.88518 0
M  V30 1244 H 118.486 -1.30378 3.65864 0
M  V30 1245 H 120.218 -1.17789 3.87179 0
M  V30 1246 H 116.973 0.668721 4.68855 0
M  V30 1247 H 117.397 2.85094 6.14044 0
M  V30 1248 H 122.039 0.722274 4.16585 0
M  V30 1249 H 119.757 4.26285 6.86518 0
M  V30 1250 H 123.343 2.52892 5.23963 0
M  V30 1251 H 122.223 4.27576 6.5738 0
M  V30 1252 N 119.726 -1.57421 0.075193 0
M  V30 1253 C 121.003 -1.85029 -0.634329 0
M  V30 1254 C 121.383 -0.968305 -1.87582 0
M  V30 1255 O 120.731 -0.0354749 -2.28472 0
M  V30 1256 C 120.941 -3.35286 -0.968742 0
M  V30 1257 C 122.289 -4.02875 -1.34077 0
M  V30 1258 O 123.313 -3.40051 -1.06037 0
M  V30 1259 O 122.172 -5.13691 -1.86506 0
M  V30 1260 H 119.266 -0.7645 -0.315387 0
M  V30 1261 H 121.812 -1.69366 0.106382 0
M  V30 1262 H 120.584 -3.91203 -0.0871376 0
M  V30 1263 H 120.207 -3.56223 -1.7661 0
M  V30 1264 N 121.204 0.198386 -1.56346 0
M  V30 1265 C 122.136 1.26987 -1.90806 0
M  V30 1266 C 123.149 1.41877 -0.798419 0
M  V30 1267 O 124.338 1.42362 -1.07682 0
M  V30 1268 C 121.438 2.64246 -2.12196 0
M  V30 1269 C 120.611 2.71007 -3.43328 0
M  V30 1270 C 119.67 3.89439 -3.5387 0
M  V30 1271 O 118.696 3.76695 -4.26719 0
M  V30 1272 N 119.898 5.04752 -2.86715 0
M  V30 1273 H 122.663 0.977433 -2.83313 0
M  V30 1274 H 120.224 0.388322 -1.57174 0
M  V30 1275 H 122.216 3.41896 -2.1654 0
M  V30 1276 H 120.786 2.85992 -1.26204 0
M  V30 1277 H 120.006 1.79657 -3.50881 0
M  V30 1278 H 121.294 2.72512 -4.29668 0
M  V30 1279 H 120.692 5.18004 -2.2735 0
M  V30 1280 H 119.249 5.8036 -2.96691 0
M  V30 1281 N 122.682 1.50554 0.465978 0
M  V30 1282 C 123.928 1.62038 1.21949 0
M  V30 1283 C 124.261 0.322116 1.9151 0
M  V30 1284 O 123.536 -0.676723 1.82348 0
M  V30 1285 C 123.819 2.80421 2.25912 0
M  V30 1286 C 123.672 4.20144 1.60622 0
M  V30 1287 C 124.991 2.94354 3.27176 0
M  V30 1288 H 122.11 0.589752 0.441998 0
M  V30 1289 H 124.752 1.82956 0.51257 0
M  V30 1290 H 122.902 2.62717 2.86203 0
M  V30 1291 H 124.574 4.49449 1.03889 0
M  V30 1292 H 122.817 4.24165 0.909211 0
M  V30 1293 H 123.488 4.98914 2.36196 0
M  V30 1294 H 125.964 3.10578 2.76913 0
M  V30 1295 H 124.84 3.788 3.97242 0
M  V30 1296 H 125.101 2.05186 3.916 0
M  V30 1297 N 124.16 -0.719506 1.40217 0
M  V30 1298 C 125.107 -1.83359 1.40172 0
M  V30 1299 C 126.077 -1.64065 0.259206 0
M  V30 1300 O 127.262 -1.85254 0.456677 0
M  V30 1301 C 124.402 -3.2103 1.26624 0
M  V30 1302 C 123.515 -3.51923 2.50548 0
M  V30 1303 C 122.65 -4.79079 2.29471 0
M  V30 1304 C 121.689 -5.02863 3.48992 0
M  V30 1305 N 120.826 -6.2123 3.27135 0
M  V30 1306 H 125.666 -1.82733 2.35399 0
M  V30 1307 H 123.203 -0.892688 1.16917 0
M  V30 1308 H 125.161 -4.00524 1.16776 0
M  V30 1309 H 123.791 -3.20895 0.350176 0
M  V30 1310 H 122.843 -2.67014 2.70939 0
M  V30 1311 H 124.155 -3.6541 3.39525 0
M  V30 1312 H 123.309 -5.66582 2.16955 0
M  V30 1313 H 122.048 -4.67794 1.37913 0
M  V30 1314 H 121.053 -4.13816 3.6199 0
M  V30 1315 H 122.278 -5.16023 4.41472 0
M  V30 1316 H 120.224 -6.11204 2.38256 0
M  V30 1317 H 120.141 -6.35375 4.09675 0
M  V30 1318 H 121.409 -7.11532 3.18344 0
M  V30 1319 N 125.638 -1.25649 -0.95132 0
M  V30 1320 C 126.601 -1.06399 -2.03007 0
M  V30 1321 C 127.601 -0.0156794 -1.60792 0
M  V30 1322 O 128.791 -0.25817 -1.72276 0
M  V30 1323 C 125.923 -0.616184 -3.35285 0
M  V30 1324 H 127.116 -2.02164 -2.21517 0
M  V30 1325 H 124.669 -1.08103 -1.12887 0
M  V30 1326 H 125.404 0.343917 -3.22471 0
M  V30 1327 H 125.189 -1.37301 -3.67275 0
M  V30 1328 H 126.679 -0.503032 -4.14559 0
M  V30 1329 N 127.117 1.15442 -1.07289 0
M  V30 1330 C 128.342 1.90638 -0.816828 0
M  V30 1331 C 128.767 1.77445 0.624083 0
M  V30 1332 O 128.125 1.10671 1.43602 0
M  V30 1333 C 128.173 3.39008 -1.22906 0
M  V30 1334 O 127.277 4.10701 -0.373975 0
M  V30 1335 H 126.618 0.593555 -0.297638 0
M  V30 1336 H 129.148 1.46198 -1.43134 0
M  V30 1337 H 129.158 3.89801 -1.20497 0
M  V30 1338 H 127.833 3.47929 -2.27856 0
M  V30 1339 H 126.41 3.70046 -0.460499 0
M  V30 1340 N 128.595 0.856903 1.32268 0
M  V30 1341 C 129.543 0.291987 2.3076 0
M  V30 1342 C 130.537 -0.585857 1.58947 0
M  V30 1343 O 131.743 -0.47341 1.73663 0
M  V30 1344 H 128.118 0.075721 0.748178 0
M  V30 1345 H 130.089 1.13687 2.75895 0
M  V30 1346 C 128.838 -0.502869 3.44044 0
M  V30 1347 H 128.161 0.163328 3.99466 0
M  V30 1348 H 129.601 -0.863691 4.1511 0
M  V30 1349 C 128.06 -1.68898 2.91505 0
M  V30 1350 O 128.59 -2.78811 2.89184 0
M  V30 1351 N 126.796 -1.51679 2.47875 0
M  V30 1352 H 126.343 -0.622666 2.49961 0
M  V30 1353 H 126.301 -2.31184 2.13076 0
M  V30 1354 N 130.073 -1.45103 0.615059 0
M  V30 1355 C 131.484 -1.85654 0.197383 0
M  V30 1356 C 131.835 -1.51433 -1.24749 0
M  V30 1357 O 130.96 -0.944608 -1.94695 0
M  V30 1358 C 131.555 -3.36972 0.351448 0
M  V30 1359 C 130.114 -3.76398 -0.011593 0
M  V30 1360 C 129.261 -2.69024 0.672394 0
M  V30 1361 H 132.212 -1.35797 0.821263 0
M  V30 1362 H 132.233 -3.78239 -0.414227 0
M  V30 1363 H 131.745 -3.61847 1.40314 0
M  V30 1364 H 129.846 -3.5714 -1.06217 0
M  V30 1365 H 129.959 -4.77532 0.387265 0
M  V30 1366 H 128.323 -2.54465 0.109284 0
M  V30 1367 H 129.106 -2.96735 1.72636 0
M  V30 1368 N 131.551 -0.354651 -1.53558 0
M  V30 1369 C 132.828 0.294281 -1.93374 0
M  V30 1370 C 133.208 1.67313 -1.28723 0
M  V30 1371 O 132.556 2.24179 -0.442247 0
M  V30 1372 C 132.766 0.355445 -3.47185 0
M  V30 1373 C 134.114 0.601007 -4.20325 0
M  V30 1374 O 135.138 0.437106 -3.53508 0
M  V30 1375 O 133.997 0.919322 -5.38712 0
M  V30 1376 H 131.091 0.174033 -0.808481 0
M  V30 1377 H 133.637 -0.406638 -1.64756 0
M  V30 1378 H 132.409 -0.611729 -3.86489 0
M  V30 1379 H 132.032 1.1027 -3.82003 0
M  V30 1380 N 133.029 1.57378 -0.0835403 0
M  V30 1381 C 133.959 2.1641 0.87686 0
M  V30 1382 C 134.94 1.09429 1.30228 0
M  V30 1383 O 136.125 1.37516 1.37124 0
M  V30 1384 C 133.255 2.73517 2.14022 0
M  V30 1385 C 132.209 3.85769 1.85381 0
M  V30 1386 C 131.535 4.29529 3.18448 0
M  V30 1387 C 132.835 5.09486 1.14984 0
M  V30 1388 H 134.529 2.96914 0.385059 0
M  V30 1389 H 132.075 1.42823 0.18377 0
M  V30 1390 H 134.028 3.13463 2.81636 0
M  V30 1391 H 132.752 1.90252 2.65465 0
M  V30 1392 H 131.411 3.46345 1.20169 0
M  V30 1393 H 131.059 3.43169 3.67755 0
M  V30 1394 H 130.759 5.05204 3.00071 0
M  V30 1395 H 132.283 4.72099 3.8724 0
M  V30 1396 H 133.697 5.46674 1.72687 0
M  V30 1397 H 132.094 5.90515 1.06826 0
M  V30 1398 H 133.164 4.84724 0.130749 0
M  V30 1399 N 134.507 -0.190092 1.56449 0
M  V30 1400 C 135.454 -1.23557 1.94942 0
M  V30 1401 C 136.424 -1.44972 0.810696 0
M  V30 1402 O 137.609 -1.58023 1.06927 0
M  V30 1403 C 134.749 -2.57416 2.2985 0
M  V30 1404 C 133.862 -2.43537 3.5681 0
M  V30 1405 C 132.997 -3.70134 3.81017 0
M  V30 1406 C 132.036 -3.51109 5.01387 0
M  V30 1407 N 131.173 -4.6973 5.21822 0
M  V30 1408 H 136.013 -0.900304 2.84075 0
M  V30 1409 H 133.55 -0.43318 1.40577 0
M  V30 1410 H 135.508 -3.35409 2.48106 0
M  V30 1411 H 134.138 -2.88975 1.43852 0
M  V30 1412 H 133.19 -1.56816 3.46573 0
M  V30 1413 H 134.502 -2.25415 4.4496 0
M  V30 1414 H 133.656 -4.56566 3.9954 0
M  V30 1415 H 132.395 -3.91215 2.91207 0
M  V30 1416 H 131.4 -2.63063 4.82782 0
M  V30 1417 H 132.625 -3.31468 5.9271 0
M  V30 1418 H 130.571 -4.91065 4.34961 0
M  V30 1419 H 130.488 -4.54452 6.0416 0
M  V30 1420 H 131.756 -5.57499 5.44808 0
M  V30 1421 N 135.985 -1.50799 -0.457987 0
M  V30 1422 C 136.915 -1.73553 -1.5621 0
M  V30 1423 C 137.896 -0.584774 -1.59732 0
M  V30 1424 O 139.081 -0.825314 -1.7579 0
M  V30 1425 C 136.211 -1.84169 -2.94447 0
M  V30 1426 C 135.165 -2.99461 -3.0579 0
M  V30 1427 C 134.491 -2.95235 -4.45803 0
M  V30 1428 C 135.791 -4.39766 -2.81786 0
M  V30 1429 H 137.485 -2.66 -1.37421 0
M  V30 1430 H 135.031 -1.28002 -0.659662 0
M  V30 1431 H 136.984 -1.98672 -3.71628 0
M  V30 1432 H 135.708 -0.883545 -3.14422 0
M  V30 1433 H 134.367 -2.8463 -2.31044 0
M  V30 1434 H 134.015 -1.97239 -4.62715 0
M  V30 1435 H 133.715 -3.72642 -4.54326 0
M  V30 1436 H 135.239 -3.11803 -5.24987 0
M  V30 1437 H 136.653 -4.55054 -3.4871 0
M  V30 1438 H 135.05 -5.18722 -3.0174 0
M  V30 1439 H 136.12 -4.51229 -1.7754 0
M  V30 1440 N 137.463 0.71206 -1.40597 0
M  V30 1441 C 138.709 1.47292 -1.40274 0
M  V30 1442 C 139.064 1.92399 -0.00576812 0
M  V30 1443 O 138.357 1.65507 0.965297 0
M  V30 1444 C 138.551 2.71039 -2.32965 0
M  V30 1445 C 138.38 2.38035 -3.81536 0
M  V30 1446 C 137.15 2.29203 -4.50327 0
M  V30 1447 C 139.348 2.02076 -4.72938 0
M  V30 1448 N 137.33 1.88911 -5.84111 0
M  V30 1449 C 138.701 1.72412 -5.95545 0
M  V30 1450 C 140.756 1.88742 -4.60739 0
M  V30 1451 C 139.459 1.30756 -7.07316 0
M  V30 1452 C 141.485 1.4849 -5.72455 0
M  V30 1453 C 140.847 1.19726 -6.94151 0
M  V30 1454 H 136.946 0.536919 -0.568544 0
M  V30 1455 H 139.53 0.825424 -1.76337 0
M  V30 1456 H 137.701 3.33533 -1.99023 0
M  V30 1457 H 139.433 3.37404 -2.23474 0
M  V30 1458 H 136.188 2.47059 -4.04053 0
M  V30 1459 H 136.612 1.71293 -6.54972 0
M  V30 1460 H 141.254 2.0964 -3.67166 0
M  V30 1461 H 138.972 1.08601 -8.00769 0
M  V30 1462 H 142.558 1.38747 -5.65014 0
M  V30 1463 H 141.438 0.890482 -7.79128 0
M  V30 1464 N 138.941 1.26152 0.944643 0
M  V30 1465 C 139.851 1.09176 2.07648 0
M  V30 1466 C 140.867 0.0261935 1.7398 0
M  V30 1467 O 142.043 0.229208 2.00091 0
M  V30 1468 C 139.108 0.722915 3.39079 0
M  V30 1469 C 138.169 1.86752 3.86552 0
M  V30 1470 C 137.402 1.51617 5.11711 0
M  V30 1471 O 137.625 0.416331 5.68879 0
M  V30 1472 O 136.559 2.34975 5.54139 0
M  V30 1473 H 140.385 2.0412 2.24875 0
M  V30 1474 H 137.97 1.05182 1.061 0
M  V30 1475 H 139.852 0.529787 4.18056 0
M  V30 1476 H 138.527 -0.197159 3.23099 0
M  V30 1477 H 137.434 2.11558 3.08535 0
M  V30 1478 H 138.767 2.76719 4.07047 0
M  V30 1479 N 140.419 -1.14872 1.07899 0
M  V30 1480 C 141.668 -1.85135 0.800499 0
M  V30 1481 C 141.981 -1.83547 -0.676014 0
M  V30 1482 O 143.187 -2.49548 -1.06948 0
M  V30 1483 C 141.643 -3.3231 1.38197 0
M  V30 1484 C 141.251 -3.42329 2.8899 0
M  V30 1485 C 142.995 -4.0772 1.18174 0
M  V30 1486 C 140.902 -4.83684 3.403 0
M  V30 1487 H 139.832 -0.693563 0.29578 0
M  V30 1488 H 142.483 -1.29532 1.29976 0
M  V30 1489 H 140.865 -3.87618 0.810431 0
M  V30 1490 H 142.039 -2.97097 3.52236 0
M  V30 1491 H 140.354 -2.80369 3.07867 0
M  V30 1492 H 142.951 -5.12049 1.5398 0
M  V30 1493 H 143.294 -4.16124 0.12117 0
M  V30 1494 H 143.827 -3.58696 1.71994 0
M  V30 1495 H 140.566 -4.80465 4.45907 0
M  V30 1496 H 140.086 -5.29474 2.81811 0
M  V30 1497 H 141.765 -5.52558 3.36584 0
M  V30 1498 N 141.898 -0.863906 -1.31812 0
M  V30 1499 C 143.146 -0.470904 -1.96537 0
M  V30 1500 C 143.467 0.978771 -1.68657 0
M  V30 1501 O 142.737 1.6853 -0.998717 0
M  V30 1502 H 141.317 -0.171148 -0.72713 0
M  V30 1503 H 143.979 -1.10236 -1.60729 0
M  V30 1504 H 143.075 -0.623616 -3.05806 0
M  V30 1505 N 143.376 1.44774 -0.622745 0
M  V30 1506 C 144.323 2.30635 0.0871679 0
M  V30 1507 C 145.293 1.42994 0.845097 0
M  V30 1508 O 146.478 1.71907 0.827812 0
M  V30 1509 C 143.618 3.28144 1.06844 0
M  V30 1510 C 142.731 4.30888 0.309809 0
M  V30 1511 C 141.866 5.15494 1.28215 0
M  V30 1512 C 140.905 6.09953 0.512198 0
M  V30 1513 N 140.042 6.87287 1.43458 0
M  V30 1514 H 144.882 2.90803 -0.650974 0
M  V30 1515 H 142.419 1.43286 -0.33281 0
M  V30 1516 H 144.377 3.83157 1.65066 0
M  V30 1517 H 143.007 2.69695 1.77382 0
M  V30 1518 H 142.059 3.78414 -0.388181 0
M  V30 1519 H 143.371 4.97955 -0.290254 0
M  V30 1520 H 142.525 5.74983 1.93596 0
M  V30 1521 H 141.264 4.48481 1.91614 0
M  V30 1522 H 140.269 5.49581 -0.155151 0
M  V30 1523 H 141.494 6.78999 -0.116958 0
M  V30 1524 H 139.44 6.2295 2.05594 0
M  V30 1525 H 139.357 7.50763 0.888335 0
M  V30 1526 H 140.625 7.51306 2.07749 0
M  V30 1527 N 144.854 0.36279 1.53368 0
M  V30 1528 C 146.103 -0.22888 2.00397 0
M  V30 1529 C 146.416 -1.50096 1.25421 0
M  V30 1530 O 147.622 -2.17106 1.63025 0
M  V30 1531 C 146.078 -0.458417 3.56969 0
M  V30 1532 C 145.686 0.798877 4.4082 0
M  V30 1533 C 147.43 -1.00789 4.12361 0
M  V30 1534 C 145.337 0.539078 5.88938 0
M  V30 1535 H 144.267 -0.089305 0.748693 0
M  V30 1536 H 146.918 0.481099 1.77081 0
M  V30 1537 H 145.3 -1.22959 3.76427 0
M  V30 1538 H 146.474 1.57262 4.33134 0
M  V30 1539 H 144.789 1.27137 3.96516 0
M  V30 1540 H 147.386 -1.21754 5.20653 0
M  V30 1541 H 147.729 -1.9692 3.66781 0
M  V30 1542 H 148.262 -0.296961 3.9669 0
M  V30 1543 H 145.001 1.47064 6.3879 0
M  V30 1544 H 144.521 -0.196222 5.99479 0
M  V30 1545 H 146.2 0.163542 6.46793 0
M  V30 1546 N 146.332 -1.57332 0.0918853 0
M  V30 1547 C 147.581 -1.93412 -0.572249 0
M  V30 1548 C 147.894 -0.975515 -1.69538 0
M  V30 1549 O 149.1 -1.22991 -2.42045 0
M  V30 1550 C 147.556 -3.43648 -1.0693 0
M  V30 1551 C 147.164 -4.47994 0.0239049 0
M  V30 1552 C 148.908 -3.88695 -1.70635 0
M  V30 1553 C 146.815 -5.89381 -0.488319 0
M  V30 1554 H 145.745 -0.721939 -0.217532 0
M  V30 1555 H 148.396 -1.82735 0.167369 0
M  V30 1556 H 146.778 -3.49466 -1.8625 0
M  V30 1557 H 147.952 -4.53815 0.799277 0
M  V30 1558 H 146.267 -4.12536 0.565946 0
M  V30 1559 H 148.864 -4.91725 -2.10025 0
M  V30 1560 H 149.207 -3.27166 -2.57426 0
M  V30 1561 H 149.74 -3.85564 -0.979023 0
M  V30 1562 H 146.479 -6.54602 0.342906 0
M  V30 1563 H 145.999 -5.87037 -1.23077 0
M  V30 1564 H 147.678 -6.39863 -0.958317 0
M  V30 1565 N 147.81 0.181792 -1.56548 0
M  V30 1566 C 149.058 0.89832 -1.81038 0
M  V30 1567 C 149.379 1.83232 -0.667164 0
M  V30 1568 O 148.649 1.93372 0.313673 0
M  V30 1569 H 147.229 0.33471 -0.667816 0
M  V30 1570 H 149.891 0.184116 -1.94028 0
M  V30 1571 H 148.987 1.4815 -2.74696 0
M  V30 1572 N 149.288 1.51039 0.449983 0
M  V30 1573 C 150.536 1.62759 1.19808 0
M  V30 1574 C 150.857 0.339981 1.92013 0
M  V30 1575 O 150.127 -0.643606 1.85026 0
M  V30 1576 H 148.707 0.599811 0.445237 0
M  V30 1577 H 151.369 1.87914 0.517138 0
M  V30 1578 H 150.465 2.44911 1.93455 0
M  V30 1579 N 150.766 -0.704594 1.40972 0
M  V30 1580 C 151.699 -1.82861 1.36518 0
M  V30 1581 C 152.677 -1.6091 0.23382 0
M  V30 1582 O 153.861 -1.83778 0.419271 0
M  V30 1583 C 150.988 -3.1939 1.12729 0
M  V30 1584 C 150.034 -3.60148 2.28463 0
M  V30 1585 S 150.867 -3.65994 3.90907 0
M  V30 1586 C 152.023 -5.05264 3.69403 0
M  V30 1587 H 152.256 -1.86361 2.3164 0
M  V30 1588 H 149.789 -0.872439 1.27389 0
M  V30 1589 H 151.747 -3.98211 0.996893 0
M  V30 1590 H 150.408 -3.1351 0.192427 0
M  V30 1591 H 149.601 -4.59309 2.07489 0
M  V30 1592 H 149.203 -2.88612 2.37863 0
M  V30 1593 H 151.495 -5.92504 3.28551 0
M  V30 1594 H 152.438 -5.31278 4.68134 0
M  V30 1595 H 152.846 -4.76377 3.02862 0
M  V30 1596 N 152.244 -1.26651 -0.937939 0
M  V30 1597 C 153.49 -1.13562 -1.68746 0
M  V30 1598 C 153.845 0.317241 -1.89767 0
M  V30 1599 O 153.138 1.22939 -1.46957 0
M  V30 1600 C 153.332 -1.84168 -3.06295 0
M  V30 1601 C 153.161 -3.36171 -2.98696 0
M  V30 1602 C 151.931 -4.05468 -3.01535 0
M  V30 1603 C 154.129 -4.32312 -2.78588 0
M  V30 1604 N 152.111 -5.44118 -2.84269 0
M  V30 1605 C 153.482 -5.58159 -2.69924 0
M  V30 1606 C 155.537 -4.22524 -2.63396 0
M  V30 1607 C 154.24 -6.75335 -2.47618 0
M  V30 1608 C 156.266 -5.39411 -2.42466 0
M  V30 1609 C 155.628 -6.64208 -2.34536 0
M  V30 1610 H 151.727 -0.470361 -0.624728 0
M  V30 1611 H 154.311 -1.59982 -1.10968 0
M  V30 1612 H 152.482 -1.40219 -3.62206 0
M  V30 1613 H 154.214 -1.63674 -3.70126 0
M  V30 1614 H 150.969 -3.56854 -3.11372 0
M  V30 1615 H 151.393 -6.1693 -2.78795 0
M  V30 1616 H 156.035 -3.26771 -2.68292 0
M  V30 1617 H 153.753 -7.71182 -2.41463 0
M  V30 1618 H 157.339 -5.33711 -2.31611 0
M  V30 1619 H 156.219 -7.53129 -2.18555 0
M  V30 1620 N 153.722 1.14298 -1.08507 0
M  V30 1621 C 155.138 1.37347 -0.812901 0
M  V30 1622 C 155.338 1.93052 0.577325 0
M  V30 1623 O 154.394 2.14389 1.33393 0
M  V30 1624 C 155.707 2.33359 -1.89642 0
M  V30 1625 C 157.255 2.46996 -1.92255 0
M  V30 1626 C 157.73 3.46309 -2.99724 0
M  V30 1627 N 159.221 3.53853 -2.98902 0
M  V30 1628 C 159.956 4.3055 -3.787 0
M  V30 1629 N 159.452 5.10482 -4.6838 0
M  V30 1630 N 161.245 4.25757 -3.66998 0
M  V30 1631 H 153.396 0.764867 -1.9815 0
M  V30 1632 H 155.659 0.398966 -0.859959 0
M  V30 1633 H 155.365 1.99565 -2.89597 0
M  V30 1634 H 155.239 3.33274 -1.76659 0
M  V30 1635 H 157.626 2.80081 -0.929445 0
M  V30 1636 H 157.707 1.47039 -2.09316 0
M  V30 1637 H 157.351 3.13957 -3.99241 0
M  V30 1638 H 157.281 4.46049 -2.79907 0
M  V30 1639 H 159.772 2.96812 -2.33904 0
M  V30 1640 H 160.085 5.66284 -5.25873 0
M  V30 1641 H 158.43 5.09747 -4.72422 0
M  V30 1642 H 161.621 3.62383 -2.96304 0
M  V30 1643 H 161.794 4.85279 -4.29427 0
M  V30 1644 N 155.201 0.870884 1.31352 0
M  V30 1645 C 156.478 0.402907 1.91405 0
M  V30 1646 C 156.858 -1.11512 1.79244 0
M  V30 1647 O 156.206 -1.94411 1.2007 0
M  V30 1648 C 156.416 0.885301 3.37585 0
M  V30 1649 C 157.764 0.911971 4.14691 0
M  V30 1650 O 158.788 0.831016 3.46371 0
M  V30 1651 O 157.647 1.02927 5.3672 0
M  V30 1652 H 154.741 0.120698 0.818145 0
M  V30 1653 H 157.287 0.958857 1.40014 0
M  V30 1654 H 156.059 1.92889 3.40455 0
M  V30 1655 H 155.682 0.307714 3.96407 0
M  V30 1656 N 156.679 -1.44442 0.630414 0
M  V30 1657 C 157.609 -2.33418 -0.0618083 0
M  V30 1658 C 158.59 -1.48165 -0.835541 0
M  V30 1659 O 159.775 -1.76886 -0.801564 0
M  V30 1660 C 156.905 -3.31222 -1.04449 0
M  V30 1661 C 155.859 -4.26288 -0.382436 0
M  V30 1662 C 155.185 -5.13954 -1.47497 0
M  V30 1663 C 156.485 -5.1744 0.710865 0
M  V30 1664 H 158.179 -2.91548 0.681184 0
M  V30 1665 H 155.725 -1.40191 0.329026 0
M  V30 1666 H 157.678 -3.92351 -1.53748 0
M  V30 1667 H 156.402 -2.71299 -1.81836 0
M  V30 1668 H 155.061 -3.6649 0.0899054 0
M  V30 1669 H 154.709 -4.50385 -2.2397 0
M  V30 1670 H 154.409 -5.7837 -1.03737 0
M  V30 1671 H 155.933 -5.77955 -1.96979 0
M  V30 1672 H 157.347 -5.72509 0.300996 0
M  V30 1673 H 155.744 -5.90455 1.07156 0
M  V30 1674 H 156.814 -4.58496 1.57829 0
M  V30 1675 N 158.157 -0.370918 -1.53173 0
M  V30 1676 C 159.385 0.217704 -2.05751 0
M  V30 1677 C 159.8 1.42018 -1.24404 0
M  V30 1678 O 159.157 1.80245 -0.286033 0
M  V30 1679 C 159.208 0.605954 -3.56385 0
M  V30 1680 O 158.929 -0.548734 -4.3465 0
M  V30 1681 C 160.43 1.2524 -4.25241 0
M  V30 1682 H 157.65 0.0371659 -0.66997 0
M  V30 1683 H 160.194 -0.530832 -1.9749 0
M  V30 1684 H 158.349 1.3044 -3.6478 0
M  V30 1685 H 158.763 -0.23376 -5.23979 0
M  V30 1686 H 160.237 1.47458 -5.3194 0
M  V30 1687 H 160.714 2.2143 -3.79296 0
M  V30 1688 H 161.32 0.595233 -4.21114 0
M  V30 1689 N 159.635 1.57281 -0.100228 0
M  V30 1690 C 160.912 1.86014 0.604812 0
M  V30 1691 C 161.292 0.998025 1.86018 0
M  V30 1692 O 160.64 0.0718184 2.28387 0
M  V30 1693 C 160.85 3.36784 0.915278 0
M  V30 1694 C 162.198 4.04957 1.27651 0
M  V30 1695 O 163.222 3.41695 1.00613 0
M  V30 1696 O 162.081 5.16593 1.7831 0
M  V30 1697 H 159.175 0.76942 0.303185 0
M  V30 1698 H 161.721 1.69176 -0.133313 0
M  V30 1699 H 160.493 3.91292 0.0248896 0
M  V30 1700 H 160.116 3.58987 1.70921 0
M  V30 1701 N 161.113 -0.173488 1.56642 0
M  V30 1702 C 162.023 -1.23482 1.99473 0
M  V30 1703 C 163.039 -1.48567 0.905752 0
M  V30 1704 O 164.215 -1.60758 1.21321 0
M  V30 1705 C 161.28 -2.55444 2.34413 0
M  V30 1706 C 160.341 -2.38241 3.57127 0
M  V30 1707 C 159.574 -3.63909 3.90392 0
M  V30 1708 O 159.797 -4.68996 3.24653 0
M  V30 1709 O 158.731 -3.58149 4.83749 0
M  V30 1710 H 162.557 -0.901279 2.90018 0
M  V30 1711 H 160.142 -0.380185 1.44482 0
M  V30 1712 H 162.024 -3.33292 2.57865 0
M  V30 1713 H 160.699 -2.88382 1.4703 0
M  V30 1714 H 159.606 -1.58431 3.38896 0
M  V30 1715 H 160.939 -2.10228 4.45045 0
M  V30 1716 N 162.591 -1.51276 -0.441967 0
M  V30 1717 C 163.501 -1.75092 -1.56141 0
M  V30 1718 C 164.517 -0.634963 -1.62001 0
M  V30 1719 O 165.693 -0.916686 -1.79329 0
M  V30 1720 C 162.758 -1.86666 -2.92158 0
M  V30 1721 C 161.819 -3.10506 -2.96453 0
M  V30 1722 C 161.052 -3.21519 -4.25982 0
M  V30 1723 O 161.275 -2.38586 -5.18105 0
M  V30 1724 O 160.209 -4.14465 -4.36466 0
M  V30 1725 H 164.035 -2.70044 -1.38961 0
M  V30 1726 H 161.62 -1.35722 -0.624499 0
M  V30 1727 H 163.502 -1.96292 -3.72891 0
M  V30 1728 H 162.177 -0.949014 -3.09476 0
M  V30 1729 H 161.084 -3.06363 -2.14692 0
M  V30 1730 H 162.417 -4.01945 -2.84079 0
M  V30 1731 N 164.069 0.697108 -1.41344 0
M  V30 1732 C 165.016 1.81106 -1.43071 0
M  V30 1733 C 165.986 1.63632 -0.285275 0
M  V30 1734 O 167.171 1.84504 -0.486091 0
M  V30 1735 C 164.311 3.18975 -1.31715 0
M  V30 1736 C 163.424 3.47892 -2.56115 0
M  V30 1737 C 162.559 4.75367 -2.37064 0
M  V30 1738 C 161.598 4.97247 -3.56948 0
M  V30 1739 N 160.735 6.15947 -3.36977 0
M  V30 1740 H 165.575 1.78965 -2.38276 0
M  V30 1741 H 163.112 0.873975 -1.18322 0
M  V30 1742 H 165.07 3.98615 -1.23133 0
M  V30 1743 H 163.7 3.20297 -0.401183 0
M  V30 1744 H 162.752 2.62669 -2.75153 0
M  V30 1745 H 164.064 3.59962 -3.45295 0
M  V30 1746 H 163.218 5.63059 -2.25941 0
M  V30 1747 H 161.957 4.65541 -1.45338 0
M  V30 1748 H 160.962 4.08004 -3.68527 0
M  V30 1749 H 162.187 5.08934 -4.49626 0
M  V30 1750 H 160.133 6.07336 -2.47949 0
M  V30 1751 H 160.05 6.28777 -4.19732 0
M  V30 1752 H 161.318 7.06377 -3.29623 0
M  V30 1753 N 165.547 1.27147 0.931209 0
M  V30 1754 C 166.479 1.05364 2.03546 0
M  V30 1755 C 167.492 0.0108438 1.62796 0
M  V30 1756 O 168.681 0.25202 1.76712 0
M  V30 1757 C 165.781 0.575566 3.33977 0
M  V30 1758 C 164.954 1.68985 4.03439 0
M  V30 1759 C 164.013 1.20813 5.12143 0
M  V30 1760 O 163.039 1.90712 5.363 0
M  V30 1761 N 164.241 0.0618851 5.80467 0
M  V30 1762 H 167.006 2.00454 2.22796 0
M  V30 1763 H 164.567 1.18666 1.10136 0
M  V30 1764 H 166.559 0.237264 4.04004 0
M  V30 1765 H 165.129 -0.282016 3.11325 0
M  V30 1766 H 164.349 2.19861 3.27192 0
M  V30 1767 H 165.637 2.4378 4.46597 0
M  V30 1768 H 165.035 -0.521621 5.6329 0
M  V30 1769 H 163.592 -0.217264 6.51438 0
M  V30 1770 N 167.025 -1.13721 1.09112 0
M  V30 1771 C 167.935 -2.22638 0.73957 0
M  V30 1772 C 168.951 -1.72091 -0.257068 0
M  V30 1773 O 170.127 -2.01155 -0.0992154 0
M  V30 1774 C 167.192 -3.46322 0.16191 0
M  V30 1775 C 166.253 -4.11775 1.21408 0
M  V30 1776 C 165.486 -5.29555 0.663891 0
M  V30 1777 O 165.709 -5.68077 -0.514274 0
M  V30 1778 O 164.643 -5.84973 1.41738 0
M  V30 1779 H 168.469 -2.55074 1.64836 0
M  V30 1780 H 166.054 -1.21791 0.865289 0
M  V30 1781 H 167.936 -4.21107 -0.157073 0
M  V30 1782 H 166.611 -3.15593 -0.719932 0
M  V30 1783 H 165.518 -3.3883 1.58571 0
M  V30 1784 H 166.851 -4.46627 2.06845 0
M  V30 1785 N 168.503 -0.877838 -1.30888 0
M  V30 1786 C 169.733 -0.506678 -2.00291 0
M  V30 1787 C 170.141 0.907449 -1.66018 0
M  V30 1788 O 169.484 1.60719 -0.88967 0
M  V30 1789 C 169.546 -0.59323 -3.54572 0
M  V30 1790 C 169.21 -1.97038 -4.12341 0
M  V30 1791 C 170.207 -2.93889 -4.28865 0
M  V30 1792 C 167.892 -2.27383 -4.47886 0
M  V30 1793 C 169.886 -4.19224 -4.80136 0
M  V30 1794 C 167.573 -3.52965 -4.98857 0
M  V30 1795 C 168.571 -4.48701 -5.14934 0
M  V30 1796 O 168.259 -5.72056 -5.64808 0
M  V30 1797 H 167.991 -0.1951 -0.647234 0
M  V30 1798 H 170.545 -1.18301 -1.6791 0
M  V30 1799 H 168.775 0.140057 -3.86446 0
M  V30 1800 H 170.464 -0.234372 -4.05223 0
M  V30 1801 H 171.23 -2.71756 -4.01714 0
M  V30 1802 H 167.109 -1.53639 -4.34645 0
M  V30 1803 H 170.653 -4.93956 -4.92599 0
M  V30 1804 H 166.55 -3.74939 -5.25443 0
M  V30 1805 H 167.318 -5.74337 -5.83163 0
M  V30 1806 N 169.982 1.44106 -0.638065 0
M  V30 1807 C 170.912 2.33448 0.0494287 0
M  V30 1808 C 171.893 1.48606 0.827672 0
M  V30 1809 O 173.078 1.77308 0.792173 0
M  V30 1810 C 170.208 3.31771 1.02691 0
M  V30 1811 C 169.162 4.26485 0.359823 0
M  V30 1812 C 168.488 5.14729 1.44769 0
M  V30 1813 C 169.788 5.17056 -0.738296 0
M  V30 1814 H 171.482 2.91183 -0.696636 0
M  V30 1815 H 169.028 1.40014 -0.336456 0
M  V30 1816 H 170.981 3.93161 1.51666 0
M  V30 1817 H 169.705 2.7226 1.80395 0
M  V30 1818 H 168.364 3.66437 -0.10934 0
M  V30 1819 H 168.012 4.51566 2.21578 0
M  V30 1820 H 167.712 5.78913 1.00668 0
M  V30 1821 H 169.236 5.78991 1.93911 0
M  V30 1822 H 170.65 5.72342 -0.331354 0
M  V30 1823 H 169.047 5.89879 -1.10286 0
M  V30 1824 H 170.117 4.57652 -1.60258 0
M  V30 1825 N 171.46 0.379036 1.52974 0
M  V30 1826 C 172.408 -0.476033 2.27677 0
M  V30 1827 C 173.402 -1.0719 1.31174 0
M  V30 1828 O 174.608 -1.01355 1.48752 0
M  V30 1829 H 170.983 -0.172255 0.732006 0
M  V30 1830 H 172.954 0.175615 2.97883 0
M  V30 1831 C 171.703 -1.5967 3.0887 0
M  V30 1832 H 171.026 -1.1475 3.82978 0
M  V30 1833 H 172.466 -2.16943 3.64296 0
M  V30 1834 C 170.925 -2.54682 2.20542 0
M  V30 1835 O 171.455 -3.57836 1.82527 0
M  V30 1836 N 169.661 -2.24183 1.84907 0
M  V30 1837 H 169.208 -1.40333 2.1602 0
M  V30 1838 H 169.166 -2.88006 1.26096 0
M  V30 1839 N 172.938 -1.57226 0.108567 0
M  V30 1840 C 173.848 -2.18292 -0.859401 0
M  V30 1841 C 174.864 -1.15612 -1.30038 0
M  V30 1842 O 176.04 -1.48039 -1.36552 0
M  V30 1843 C 173.105 -2.762 -2.09558 0
M  V30 1844 C 172.166 -3.93881 -1.70752 0
M  V30 1845 C 171.399 -4.49018 -2.88477 0
M  V30 1846 O 171.622 -4.03068 -4.036 0
M  V30 1847 O 170.556 -5.39852 -2.66164 0
M  V30 1848 H 174.382 -3.01441 -0.369769 0
M  V30 1849 H 171.967 -1.48945 -0.1165 0
M  V30 1850 H 173.849 -3.13156 -2.81978 0
M  V30 1851 H 172.524 -1.96089 -2.57548 0
M  V30 1852 H 171.431 -3.61713 -0.954714 0
M  V30 1853 H 172.764 -4.75396 -1.27513 0
M  V30 1854 N 174.416 0.165178 -1.56732 0
M  V30 1855 C 175.646 0.894919 -1.86212 0
M  V30 1856 C 176.054 1.76066 -0.692627 0
M  V30 1857 O 175.397 1.80387 0.347303 0
M  V30 1858 C 175.459 1.8174 -3.10179 0
M  V30 1859 C 175.123 1.13064 -4.42793 0
M  V30 1860 C 176.12 0.493169 -5.17556 0
M  V30 1861 C 173.805 1.12556 -4.89527 0
M  V30 1862 C 175.799 -0.140209 -6.37246 0
M  V30 1863 C 173.486 0.488366 -6.09145 0
M  V30 1864 C 174.484 -0.143411 -6.82849 0
M  V30 1865 O 174.172 -0.77055 -8.00199 0
M  V30 1866 H 173.904 0.265114 -0.621844 0
M  V30 1867 H 176.458 0.168242 -2.0471 0
M  V30 1868 H 174.688 2.58455 -2.87642 0
M  V30 1869 H 176.377 2.4175 -3.26055 0
M  V30 1870 H 177.143 0.489023 -4.82528 0
M  V30 1871 H 173.022 1.60672 -4.32094 0
M  V30 1872 H 176.566 -0.633932 -6.94714 0
M  V30 1873 H 172.463 0.490116 -6.43637 0
M  V30 1874 H 173.231 -0.670408 -8.1575 0
M  V30 1875 N 175.894 1.51508 0.433938 0
M  V30 1876 C 176.804 1.75917 1.5521 0
M  V30 1877 C 177.82 0.643545 1.61662 0
M  V30 1878 O 178.996 0.926183 1.7884 0
M  V30 1879 C 176.061 1.88213 2.91164 0
M  V30 1880 C 175.122 3.12074 2.94802 0
M  V30 1881 C 174.355 3.23774 4.24271 0
M  V30 1882 O 174.578 2.4133 5.16833 0
M  V30 1883 O 173.512 4.16774 4.34262 0
M  V30 1884 H 177.338 2.70777 1.37527 0
M  V30 1885 H 174.923 1.36051 0.617293 0
M  V30 1886 H 176.805 1.98267 3.71845 0
M  V30 1887 H 175.48 0.965413 3.08968 0
M  V30 1888 H 174.387 3.07497 2.13065 0
M  V30 1889 H 175.72 4.03446 2.81943 0
M  V30 1890 N 177.372 -0.689602 1.41712 0
M  V30 1891 C 178.335 -1.78521 1.43746 0
M  V30 1892 C 179.335 -1.57436 0.327191 0
M  V30 1893 O 180.525 -1.64 0.587348 0
M  V30 1894 C 177.657 -3.16971 1.25467 0
M  V30 1895 H 178.85 -1.78108 2.41283 0
M  V30 1896 H 176.403 -0.89781 1.27942 0
M  V30 1897 H 177.138 -3.23019 0.287948 0
M  V30 1898 H 176.923 -3.33678 2.05917 0
M  V30 1899 H 178.413 -3.96935 1.2974 0
M  V30 1900 N 178.85 -1.27639 -0.924453 0
M  V30 1901 C 179.76 -1.12466 -2.05885 0
M  V30 1902 C 180.776 -0.053869 -1.73917 0
M  V30 1903 O 181.952 -0.261012 -1.99702 0
M  V30 1904 C 179.017 -0.776768 -3.37886 0
M  V30 1905 C 178.078 -1.92878 -3.83532 0
M  V30 1906 C 177.311 -1.59739 -5.09234 0
M  V30 1907 O 177.534 -0.506782 -5.68144 0
M  V30 1908 O 176.468 -2.43761 -5.50331 0
M  V30 1909 H 180.294 -2.07671 -2.21599 0
M  V30 1910 H 177.879 -1.06857 -1.04413 0
M  V30 1911 H 179.761 -0.596229 -4.17161 0
M  V30 1912 H 178.436 0.145732 -3.23372 0
M  V30 1913 H 177.343 -2.1644 -3.0513 0
M  V30 1914 H 178.676 -2.8316 -4.02593 0
M  V30 1915 N 180.328 1.1314 -1.09713 0
M  V30 1916 C 181.275 2.18642 -0.739196 0
M  V30 1917 C 182.245 1.63706 0.280978 0
M  V30 1918 O 183.43 1.90111 0.161946 0
M  V30 1919 C 180.57 3.44685 -0.169102 0
M  V30 1920 C 179.683 4.13711 -1.24367 0
M  V30 1921 C 178.818 5.27379 -0.636019 0
M  V30 1922 C 177.857 5.88259 -1.69169 0
M  V30 1923 N 176.994 6.93352 -1.10485 0
M  V30 1924 H 181.834 2.48607 -1.64312 0
M  V30 1925 H 179.371 1.22066 -0.820875 0
M  V30 1926 H 181.329 4.16815 0.179256 0
M  V30 1927 H 179.959 3.15161 0.698079 0
M  V30 1928 H 179.011 3.39835 -1.70927 0
M  V30 1929 H 180.323 4.55037 -2.04311 0
M  V30 1930 H 179.477 6.06238 -0.236677 0
M  V30 1931 H 178.216 4.8731 0.194928 0
M  V30 1932 H 177.221 5.08092 -2.10055 0
M  V30 1933 H 178.446 6.30399 -2.52536 0
M  V30 1934 H 176.392 6.55335 -0.295234 0
M  V30 1935 H 176.309 7.33236 -1.84121 0
M  V30 1936 H 177.577 7.76057 -0.73181 0
M  V30 1937 N 181.806 0.884767 1.30421 0
M  V30 1938 C 183.055 0.499164 1.95426 0
M  V30 1939 C 183.368 -0.95645 1.70621 0
M  V30 1940 O 184.574 -1.44889 2.29607 0
M  V30 1941 C 183.03 0.84177 3.49917 0
M  V30 1942 C 182.638 2.31514 3.83543 0
M  V30 1943 C 184.382 0.525355 4.21237 0
M  V30 1944 C 182.289 2.59939 5.31212 0
M  V30 1945 H 181.219 0.182944 0.73147 0
M  V30 1946 H 183.87 1.07971 1.48373 0
M  V30 1947 H 182.252 0.190311 3.95542 0
M  V30 1948 H 183.426 3.0109 3.48829 0
M  V30 1949 H 181.741 2.59907 3.25326 0
M  V30 1950 H 184.338 0.714762 5.29901 0
M  V30 1951 H 184.681 -0.535222 4.12845 0
M  V30 1952 H 185.214 1.134 3.81294 0
M  V30 1953 H 181.953 3.64736 5.44654 0
M  V30 1954 H 181.473 1.94972 5.67227 0
M  V30 1955 H 183.152 2.45429 5.98643 0
M  V30 1956 N 183.284 -1.43765 0.645699 0
M  V30 1957 C 184.194 -2.34544 -0.0512957 0
M  V30 1958 C 185.21 -1.53455 -0.82022 0
M  V30 1959 O 186.386 -1.86133 -0.769176 0
M  V30 1960 C 183.451 -3.31636 -1.01087 0
M  V30 1961 C 182.512 -4.2863 -0.239712 0
M  V30 1962 C 181.745 -5.21084 -1.15358 0
M  V30 1963 O 181.968 -5.1779 -2.39269 0
M  V30 1964 O 180.902 -5.98593 -0.630038 0
M  V30 1965 H 184.728 -2.95624 0.695718 0
M  V30 1966 H 182.313 -1.43781 0.405882 0
M  V30 1967 H 184.195 -3.9136 -1.56254 0
M  V30 1968 H 182.87 -2.73069 -1.73824 0
M  V30 1969 H 181.777 -3.72408 0.355356 0
M  V30 1970 H 183.11 -4.90157 0.447936 0
M  V30 1971 N 184.763 -0.387143 -1.52771 0
M  V30 1972 C 185.993 0.195585 -2.05672 0
M  V30 1973 C 186.401 1.41241 -1.25887 0
M  V30 1974 O 185.744 1.81265 -0.298081 0
M  V30 1975 C 185.806 0.632327 -3.53895 0
M  V30 1976 C 185.47 -0.470739 -4.54569 0
M  V30 1977 C 186.467 -1.32746 -5.02667 0
M  V30 1978 C 184.152 -0.637151 -4.98243 0
M  V30 1979 C 186.146 -2.33574 -5.93061 0
M  V30 1980 C 183.833 -1.64877 -5.88438 0
M  V30 1981 C 184.831 -2.49649 -6.35739 0
M  V30 1982 O 184.519 -3.49082 -7.24153 0
M  V30 1983 H 184.251 0.033658 -0.675162 0
M  V30 1984 H 186.805 -0.550221 -1.97893 0
M  V30 1985 H 185.035 1.43008 -3.59285 0
M  V30 1986 H 186.724 1.14048 -3.89548 0
M  V30 1987 H 187.49 -1.21019 -4.69659 0
M  V30 1988 H 183.369 0.0129567 -4.60998 0
M  V30 1989 H 186.913 -2.99777 -6.29904 0
M  V30 1990 H 182.81 -1.76643 -6.2086 0
M  V30 1991 H 183.578 -3.45065 -7.42208 0
M  V30 1992 N 186.241 1.57166 -0.116904 0
M  V30 1993 C 187.189 2.16457 0.851418 0
M  V30 1994 C 188.183 1.11323 1.27686 0
M  V30 1995 O 189.389 1.2963 1.24884 0
M  V30 1996 H 185.764 0.69271 0.292672 0
M  V30 1997 H 187.735 2.96605 0.32685 0
M  V30 1998 C 186.484 2.77689 2.09246 0
M  V30 1999 H 185.807 3.58285 1.77402 0
M  V30 2000 H 187.247 3.22716 2.7501 0
M  V30 2001 C 185.706 1.74667 2.88085 0
M  V30 2002 O 186.236 1.19877 3.83396 0
M  V30 2003 N 184.442 1.44656 2.52038 0
M  V30 2004 H 183.989 1.89402 1.74599 0
M  V30 2005 H 183.947 0.759675 3.05084 0
M  V30 2006 N 187.719 -0.156864 1.56817 0
M  V30 2007 C 188.629 -1.2136 2.00771 0
M  V30 2008 C 189.645 -1.47598 0.921459 0
M  V30 2009 O 190.821 -1.59462 1.2302 0
M  V30 2010 C 187.886 -2.52943 2.37109 0
M  V30 2011 C 186.947 -2.34439 3.59634 0
M  V30 2012 C 186.18 -3.59748 3.94229 0
M  V30 2013 O 186.403 -4.65526 3.29609 0
M  V30 2014 O 185.337 -3.52998 4.8752 0
M  V30 2015 H 189.163 -0.870468 2.90958 0
M  V30 2016 H 186.748 -0.36484 1.44877 0
M  V30 2017 H 188.63 -3.30538 2.61386 0
M  V30 2018 H 187.305 -2.86806 1.5008 0
M  V30 2019 H 186.212 -1.54828 3.40557 0
M  V30 2020 H 187.545 -2.05496 4.4725 0
M  V30 2021 N 189.197 -1.51736 -0.425897 0
M  V30 2022 C 190.422 -1.69082 -1.20108 0
M  V30 2023 C 190.847 -0.392398 -1.83962 0
M  V30 2024 O 190.205 0.64858 -1.69302 0
M  V30 2025 C 190.253 -2.81604 -2.25237 0
M  V30 2026 O 189.357 -2.46004 -3.30992 0
M  V30 2027 H 188.698 -0.563408 -0.35138 0
M  V30 2028 H 191.228 -1.98358 -0.501512 0
M  V30 2029 H 191.238 -3.06025 -2.69838 0
M  V30 2030 H 189.913 -3.75817 -1.78142 0
M  V30 2031 H 188.49 -2.32195 -2.91787 0
M  V30 2032 N 190.675 0.682077 -1.42076 0
M  V30 2033 C 191.608 1.80666 -1.3941 0
M  V30 2034 C 192.586 1.60518 -0.25939 0
M  V30 2035 O 193.77 1.83088 -0.448456 0
M  V30 2036 C 190.897 3.17556 -1.17796 0
M  V30 2037 C 189.943 3.56468 -2.34164 0
M  V30 2038 S 190.776 3.59729 -3.96681 0
M  V30 2039 C 191.932 4.99323 -3.77395 0
M  V30 2040 H 192.165 1.82652 -2.34575 0
M  V30 2041 H 189.698 0.852062 -1.2876 0
M  V30 2042 H 191.656 3.96575 -1.06012 0
M  V30 2043 H 190.317 3.13164 -0.242279 0
M  V30 2044 H 189.51 4.5595 -2.1477 0
M  V30 2045 H 189.112 2.84792 -2.42425 0
M  V30 2046 H 191.404 5.87202 -3.37935 0
M  V30 2047 H 192.347 5.23763 -4.76527 0
M  V30 2048 H 192.755 4.71498 -3.10403 0
M  V30 2049 N 192.153 1.28127 0.917671 0
M  V30 2050 C 193.1 1.11717 2.0196 0
M  V30 2051 C 194.07 0.0153929 1.66093 0
M  V30 2052 O 195.255 0.179596 1.89953 0
M  V30 2053 C 192.395 0.780927 3.36148 0
M  V30 2054 C 191.508 1.96135 3.84909 0
M  V30 2055 C 190.643 1.56609 5.0759 0
M  V30 2056 C 189.682 2.71339 5.48673 0
M  V30 2057 N 188.819 2.32332 6.62545 0
M  V30 2058 H 193.659 2.06003 2.15329 0
M  V30 2059 H 191.196 1.02535 1.05475 0
M  V30 2060 H 193.154 0.56675 4.13333 0
M  V30 2061 H 191.784 -0.124998 3.22558 0
M  V30 2062 H 190.836 2.28777 3.03916 0
M  V30 2063 H 192.148 2.82165 4.1132 0
M  V30 2064 H 191.302 1.31374 5.92305 0
M  V30 2065 H 190.041 0.677014 4.82978 0
M  V30 2066 H 189.046 2.97276 4.62501 0
M  V30 2067 H 190.271 3.60882 5.75274 0
M  V30 2068 H 188.217 1.45889 6.39572 0
M  V30 2069 H 188.134 3.11899 6.88662 0
M  V30 2070 H 189.402 2.10371 7.50576 0
M  V30 2071 N 193.631 -1.12557 1.10312 0
M  V30 2072 C 194.594 -2.16434 0.75424 0
M  V30 2073 C 195.594 -1.59278 -0.220685 0
M  V30 2074 O 196.784 -1.742 0.00230591 0
M  V30 2075 C 193.916 -3.40699 0.116987 0
M  V30 2076 H 195.109 -2.48811 1.67431 0
M  V30 2077 H 192.662 -1.27542 0.903475 0
M  V30 2078 H 193.397 -3.13921 -0.813877 0
M  V30 2079 H 193.182 -3.83459 0.818613 0
M  V30 2080 H 194.672 -4.17451 -0.111387 0
M  V30 2081 N 195.109 -0.891671 -1.2995 0
M  V30 2082 C 196.339 -0.527893 -1.99742 0
M  V30 2083 C 196.747 0.88979 -1.66971 0
M  V30 2084 O 196.09 1.59766 -0.906667 0
M  V30 2085 C 196.152 -0.630804 -3.53922 0
M  V30 2086 C 195.816 -2.01401 -4.10228 0
M  V30 2087 C 196.813 -2.98422 -4.25724 0
M  V30 2088 C 194.498 -2.32121 -4.45449 0
M  V30 2089 C 196.492 -4.24293 -4.75662 0
M  V30 2090 C 194.179 -3.58237 -4.95086 0
M  V30 2091 C 195.177 -4.54137 -5.10146 0
M  V30 2092 O 194.865 -5.78014 -5.58708 0
M  V30 2093 H 194.597 -0.201953 -0.645129 0
M  V30 2094 H 197.151 -1.20076 -1.66646 0
M  V30 2095 H 195.381 0.0990616 -3.86573 0
M  V30 2096 H 197.07 -0.277338 -4.04951 0
M  V30 2097 H 197.836 -2.76001 -3.98809 0
M  V30 2098 H 193.715 -1.5824 -4.32991 0
M  V30 2099 H 197.259 -4.99153 -4.87332 0
M  V30 2100 H 193.156 -3.80491 -5.21437 0
M  V30 2101 H 193.924 -5.8049 -5.77039 0
M  V30 2102 N 196.587 1.43421 -0.653314 0
M  V30 2103 C 197.537 2.2792 0.060558 0
M  V30 2104 C 198.521 1.39906 0.794677 0
M  V30 2105 O 199.713 1.63536 0.677128 0
M  V30 2106 C 196.842 3.27603 1.0262 0
M  V30 2107 C 195.928 4.23104 0.290551 0
M  V30 2108 N 196.319 5.01031 -0.692967 0
M  V30 2109 C 194.617 4.42816 0.531984 0
M  V30 2110 C 195.318 5.70626 -1.12963 0
M  V30 2111 N 194.294 5.41617 -0.463867 0
M  V30 2112 H 198.096 2.85585 -0.694143 0
M  V30 2113 H 195.61 1.55126 -0.480602 0
M  V30 2114 H 197.607 3.86918 1.55242 0
M  V30 2115 H 196.267 2.71499 1.78096 0
M  V30 2116 H 197.278 5.0669 -1.07169 0
M  V30 2117 H 193.955 3.97782 1.26791 0
M  V30 2118 H 195.345 6.4318 -1.94343 0
M  V30 2119 N 198.065 0.39524 1.52563 0
M  V30 2120 C 199.013 -0.451859 2.28169 0
M  V30 2121 C 200.007 -1.05792 1.32304 0
M  V30 2122 O 201.213 -0.997718 1.49818 0
M  V30 2123 H 197.588 -0.164481 0.733792 0
M  V30 2124 H 199.559 0.207199 2.9768 0
M  V30 2125 C 198.308 -1.56385 3.10546 0
M  V30 2126 H 197.631 -1.10682 3.84174 0
M  V30 2127 H 199.071 -2.13067 3.66577 0
M  V30 2128 C 197.53 -2.52328 2.23231 0
M  V30 2129 O 198.06 -3.5588 1.86312 0
M  V30 2130 N 196.266 -2.22209 1.87274 0
M  V30 2131 H 195.813 -1.38033 2.17496 0
M  V30 2132 H 195.771 -2.86652 1.29143 0
M  V30 2133 N 199.544 -1.57102 0.125237 0
M  V30 2134 C 200.769 -2.0019 -0.542101 0
M  V30 2135 C 201.194 -1.00449 -1.59034 0
M  V30 2136 O 200.552 0.0229423 -1.81285 0
M  V30 2137 C 200.6 -3.42129 -1.13929 0
M  V30 2138 O 199.704 -3.45307 -2.2547 0
M  V30 2139 H 199.045 -0.650171 -0.134812 0
M  V30 2140 H 201.575 -2.03461 0.215553 0
M  V30 2141 H 201.585 -3.80471 -1.4733 0
M  V30 2142 H 200.26 -4.14237 -0.371531 0
M  V30 2143 H 198.837 -3.1879 -1.93462 0
M  V30 2144 N 201.022 0.148545 -1.56898 0
M  V30 2145 C 202.433 0.708766 -1.72723 0
M  V30 2146 C 202.784 1.81734 -0.739395 0
M  V30 2147 O 201.909 2.16194 0.0943169 0
M  V30 2148 C 202.504 1.29245 -3.13179 0
M  V30 2149 C 201.063 1.79925 -3.30611 0
M  V30 2150 C 200.21 0.687111 -2.68652 0
M  V30 2151 H 203.161 -0.0771063 -1.58513 0
M  V30 2152 H 203.182 2.16224 -3.13093 0
M  V30 2153 H 202.694 0.485382 -3.85053 0
M  V30 2154 H 200.795 2.63203 -2.63732 0
M  V30 2155 H 200.908 1.92903 -4.38549 0
M  V30 2156 H 199.272 1.11335 -2.29078 0
M  V30 2157 H 200.055 -0.108483 -3.43129 0
M  V30 2158 N 202.5 1.5196 0.417844 0
M  V30 2159 C 203.463 1.74065 1.49111 0
M  V30 2160 C 204.463 0.610537 1.48758 0
M  V30 2161 O 205.653 0.87832 1.50437 0
M  V30 2162 C 202.785 1.81502 2.88565 0
M  V30 2163 H 203.978 2.69869 1.30807 0
M  V30 2164 H 201.531 1.42244 0.647785 0
M  V30 2165 H 202.266 0.875813 3.1225 0
M  V30 2166 H 202.051 2.63651 2.90225 0
M  V30 2167 H 203.541 2.00376 3.66387 0
M  V30 2168 N 203.978 -0.674533 1.42435 0
M  V30 2169 C 205.208 -1.46071 1.46105 0
M  V30 2170 C 205.616 -1.89067 0.0709605 0
M  V30 2171 O 204.959 -1.58731 -0.924677 0
M  V30 2172 C 205.021 -2.74145 2.32561 0
M  V30 2173 C 204.685 -2.53224 3.8043 0
M  V30 2174 C 205.682 -2.17809 4.72075 0
M  V30 2175 C 203.367 -2.6821 4.24698 0
M  V30 2176 C 205.361 -1.97648 6.05982 0
M  V30 2177 C 203.048 -2.47665 5.58664 0
M  V30 2178 C 204.046 -2.12437 6.49122 0
M  V30 2179 O 203.734 -1.9209 7.80613 0
M  V30 2180 H 203.466 -0.455959 0.499076 0
M  V30 2181 H 206.02 -0.836193 1.87609 0
M  V30 2182 H 204.25 -3.3908 1.85908 0
M  V30 2183 H 205.939 -3.36028 2.27683 0
M  V30 2184 H 206.705 -2.05826 4.39159 0
M  V30 2185 H 202.584 -2.94609 3.54579 0
M  V30 2186 H 206.128 -1.70075 6.7655 0
M  V30 2187 H 202.025 -2.59244 5.91154 0
M  V30 2188 H 202.793 -2.06686 7.91974 0
M  V30 2189 N 205.456 -1.28612 -0.910864 0
M  V30 2190 C 206.386 -1.15326 -2.03032 0
M  V30 2191 C 207.367 -0.0502924 -1.70026 0
M  V30 2192 O 208.552 -0.227797 -1.92859 0
M  V30 2193 C 205.682 -0.817343 -3.37545 0
M  V30 2194 C 204.636 -1.8754 -3.84724 0
M  V30 2195 C 203.962 -1.39305 -5.16235 0
M  V30 2196 C 205.262 -3.28244 -4.06267 0
M  V30 2197 H 206.956 -2.08975 -2.14406 0
M  V30 2198 H 204.502 -1.00612 -1.03021 0
M  V30 2199 H 206.455 -0.711151 -4.15356 0
M  V30 2200 H 205.179 0.154846 -3.26233 0
M  V30 2201 H 203.838 -1.97079 -3.09121 0
M  V30 2202 H 203.486 -0.409846 -5.01328 0
M  V30 2203 H 203.186 -2.10057 -5.48771 0
M  V30 2204 H 204.71 -1.30014 -5.96598 0
M  V30 2205 H 206.124 -3.21611 -4.74594 0
M  V30 2206 H 204.521 -3.96855 -4.5014 0
M  V30 2207 H 205.591 -3.72048 -3.10979 0
M  V30 2208 N 206.934 1.1197 -1.10907 0
M  V30 2209 C 207.897 2.16031 -0.765707 0
M  V30 2210 C 208.897 1.59393 0.212235 0
M  V30 2211 O 210.087 1.74196 -0.0115441 0
M  V30 2212 C 207.219 3.40632 -0.135053 0
M  V30 2213 H 208.412 2.47919 -1.68748 0
M  V30 2214 H 205.965 1.27061 -0.910226 0
M  V30 2215 H 206.7 3.14348 0.797218 0
M  V30 2216 H 206.485 3.8302 -0.838937 0
M  V30 2217 H 207.975 4.17505 0.0892469 0
M  V30 2218 N 208.412 0.89855 1.29475 0
M  V30 2219 C 209.642 0.538479 1.99459 0
M  V30 2220 C 210.05 -0.880922 1.67441 0
M  V30 2221 O 209.393 -1.59283 0.915127 0
M  V30 2222 C 209.455 0.649564 3.53583 0
M  V30 2223 C 209.119 2.03573 4.09154 0
M  V30 2224 C 210.116 3.00675 4.24135 0
M  V30 2225 C 207.801 2.3448 4.44212 0
M  V30 2226 C 209.795 4.26809 4.73405 0
M  V30 2227 C 207.482 3.60857 4.93179 0
M  V30 2228 C 208.48 4.56836 5.0773 0
M  V30 2229 O 208.168 5.80969 5.55635 0
M  V30 2230 H 207.9 0.205372 0.644048 0
M  V30 2231 H 210.454 1.20958 1.66007 0
M  V30 2232 H 208.684 -0.0785592 3.8662 0
M  V30 2233 H 210.373 0.29881 4.04799 0
M  V30 2234 H 211.139 2.78112 3.97339 0
M  V30 2235 H 207.018 1.60534 4.32145 0
M  V30 2236 H 210.562 5.0173 4.84678 0
M  V30 2237 H 206.459 3.83251 5.19412 0
M  V30 2238 H 207.227 5.83542 5.73952 0
M  V30 2239 N 209.89 -1.43072 0.660911 0
M  V30 2240 C 211.139 -2.00942 0.174735 0
M  V30 2241 C 211.452 -1.52797 -1.22117 0
M  V30 2242 O 212.658 -2.02991 -1.80297 0
M  V30 2243 C 211.114 -3.58948 0.261559 0
M  V30 2244 C 210.722 -4.16085 1.66064 0
M  V30 2245 C 212.466 -4.24173 -0.166617 0
M  V30 2246 C 210.373 -5.6641 1.70098 0
M  V30 2247 H 209.303 -0.751483 0.0615631 0
M  V30 2248 H 211.954 -1.63955 0.824069 0
M  V30 2249 H 210.336 -3.93372 -0.455421 0
M  V30 2250 H 211.51 -3.93147 2.40359 0
M  V30 2251 H 209.825 -3.6326 2.03546 0
M  V30 2252 H 212.422 -5.34471 -0.156433 0
M  V30 2253 H 212.765 -3.98647 -1.19943 0
M  V30 2254 H 213.298 -3.94659 0.498875 0
M  V30 2255 H 210.037 -5.96715 2.71315 0
M  V30 2256 H 209.557 -5.91382 1.00139 0
M  V30 2257 H 211.236 -6.30585 1.44816 0
M  V30 2258 N 211.368 -0.403325 -1.52352 0
M  V30 2259 C 212.316 0.439752 -2.28405 0
M  V30 2260 C 213.31 1.05089 -1.32863 0
M  V30 2261 O 214.516 0.989759 -1.50345 0
M  V30 2262 H 210.891 0.160587 -0.734653 0
M  V30 2263 H 212.862 -0.222983 -2.97566 0
M  V30 2264 C 211.611 1.54736 -3.11371 0
M  V30 2265 H 210.934 1.08643 -3.84755 0
M  V30 2266 H 212.374 2.1112 -3.67701 0
M  V30 2267 C 210.833 2.51141 -2.24566 0
M  V30 2268 O 211.363 3.54887 -1.88196 0
M  V30 2269 N 209.569 2.21213 -1.8845 0
M  V30 2270 H 209.116 1.36878 -2.18225 0
M  V30 2271 H 209.074 2.85963 -1.30662 0
M  V30 2272 N 212.846 1.57033 -0.133567 0
M  V30 2273 C 213.809 2.14897 0.796995 0
M  V30 2274 C 214.809 1.0874 1.18458 0
M  V30 2275 O 215.999 1.34446 1.1077 0
M  V30 2276 C 213.131 2.70112 2.07973 0
M  V30 2277 H 214.324 2.98457 0.293873 0
M  V30 2278 H 211.877 1.55871 0.115787 0
M  V30 2279 H 212.612 1.9018 2.62682 0
M  V30 2280 H 212.397 3.47764 1.81115 0
M  V30 2281 H 213.887 3.14738 2.74462 0
M  V30 2282 N 214.325 -0.140222 1.56975 0
M  V30 2283 C 215.272 -1.17292 1.98774 0
M  V30 2284 C 216.242 -1.4232 0.856408 0
M  V30 2285 O 217.427 -1.54541 1.119 0
M  V30 2286 C 214.567 -2.49973 2.37923 0
M  V30 2287 C 213.68 -2.32062 3.64378 0
M  V30 2288 C 212.815 -3.57825 3.926 0
M  V30 2289 C 211.854 -3.3498 5.12303 0
M  V30 2290 N 210.991 -4.52891 5.36502 0
M  V30 2291 H 215.831 -0.809472 2.86795 0
M  V30 2292 H 213.368 -0.388237 1.41884 0
M  V30 2293 H 215.326 -3.27346 2.58652 0
M  V30 2294 H 213.956 -2.84252 1.52972 0
M  V30 2295 H 213.008 -1.45711 3.51387 0
M  V30 2296 H 214.32 -2.11145 4.51906 0
M  V30 2297 H 213.474 -4.43624 4.13863 0
M  V30 2298 H 212.213 -3.81753 3.03506 0
M  V30 2299 H 211.218 -2.4757 4.90906 0
M  V30 2300 H 212.443 -3.12444 6.02956 0
M  V30 2301 H 210.389 -4.76979 4.50363 0
M  V30 2302 H 210.306 -4.35001 6.18312 0
M  V30 2303 H 211.574 -5.39884 5.62268 0
M  V30 2304 N 215.803 -1.52179 -0.40978 0
M  V30 2305 C 217.028 -1.70347 -1.18308 0
M  V30 2306 C 217.453 -0.411887 -1.83535 0
M  V30 2307 O 216.811 0.630587 -1.6998 0
M  V30 2308 C 216.859 -2.83977 -2.22238 0
M  V30 2309 O 215.963 -2.495 -3.28365 0
M  V30 2310 H 215.304 -0.567103 -0.345384 0
M  V30 2311 H 217.834 -1.98879 -0.480445 0
M  V30 2312 H 217.844 -3.0887 -2.66577 0
M  V30 2313 H 216.519 -3.77685 -1.74146 0
M  V30 2314 H 215.096 -2.35277 -2.89308 0
M  V30 2315 N 217.281 0.66697 -1.42791 0
M  V30 2316 C 218.697 0.981027 -1.25889 0
M  V30 2317 C 218.897 2.00793 -0.168695 0
M  V30 2318 O 217.953 2.48321 0.45747 0
M  V30 2319 C 219.266 1.47838 -2.61848 0
M  V30 2320 C 220.814 1.59575 -2.69267 0
M  V30 2321 C 221.289 2.12704 -4.05612 0
M  V30 2322 N 222.78 2.20026 -4.07606 0
M  V30 2323 C 223.515 2.62227 -5.09926 0
M  V30 2324 N 223.011 3.03824 -6.22626 0
M  V30 2325 N 224.804 2.62045 -4.97281 0
M  V30 2326 H 216.955 -0.0127891 -2.12396 0
M  V30 2327 H 219.218 0.0568258 -0.946295 0
M  V30 2328 H 218.924 0.798299 -3.4252 0
M  V30 2329 H 218.798 2.45579 -2.86305 0
M  V30 2330 H 221.185 2.26687 -1.88936 0
M  V30 2331 H 221.266 0.60302 -2.48591 0
M  V30 2332 H 220.91 1.46198 -4.86404 0
M  V30 2333 H 220.84 3.12782 -4.23645 0
M  V30 2334 H 223.331 1.90708 -3.2625 0
M  V30 2335 H 223.644 3.34734 -6.96544 0
M  V30 2336 H 221.989 3.01662 -6.26119 0
M  V30 2337 H 225.18 2.28916 -4.08308 0
M  V30 2338 H 225.353 2.94613 -5.77154 0
M  V30 2339 N 218.759 1.29093 0.90403 0
M  V30 2340 C 219.722 1.1386 1.98919 0
M  V30 2341 C 220.722 0.0753457 1.60623 0
M  V30 2342 O 221.912 0.321931 1.71199 0
M  V30 2343 C 219.044 0.740198 3.32767 0
M  V30 2344 H 220.237 2.10246 2.13861 0
M  V30 2345 H 217.79 1.12218 1.08797 0
M  V30 2346 H 218.525 -0.223997 3.23525 0
M  V30 2347 H 218.31 1.50838 3.61926 0
M  V30 2348 H 219.8 0.656546 4.12407 0
M  V30 2349 N 220.237 -1.11381 1.11499 0
M  V30 2350 C 221.147 -2.21019 0.786628 0
M  V30 2351 C 222.163 -1.72597 -0.220507 0
M  V30 2352 O 223.339 -2.01321 -0.0565251 0
M  V30 2353 C 220.404 -3.459 0.235333 0
M  V30 2354 C 219.465 -4.09107 1.30115 0
M  V30 2355 C 218.698 -5.28027 0.776068 0
M  V30 2356 O 218.921 -5.6904 -0.393661 0
M  V30 2357 O 217.855 -5.81835 1.54114 0
M  V30 2358 H 221.681 -2.51521 1.70209 0
M  V30 2359 H 219.266 -1.19928 0.890928 0
M  V30 2360 H 221.148 -4.21346 -0.067715 0
M  V30 2361 H 219.823 -3.17049 -0.652828 0
M  V30 2362 H 218.73 -3.35391 1.65722 0
M  V30 2363 H 220.063 -4.42139 2.16273 0
M  V30 2364 N 221.715 -0.905404 -1.28997 0
M  V30 2365 C 222.678 -0.392253 -2.25819 0
M  V30 2366 C 223.678 0.476753 -1.5357 0
M  V30 2367 O 224.868 0.280994 -1.71919 0
M  V30 2368 C 222 0.438588 -3.38067 0
M  V30 2369 H 223.193 -1.24743 -2.72725 0
M  V30 2370 H 220.746 -0.684051 -1.40536 0
M  V30 2371 H 221.481 1.31352 -2.96508 0
M  V30 2372 H 221.266 -0.184167 -3.91667 0
M  V30 2373 H 222.756 0.78873 -4.10084 0
M  V30 2374 N 223.193 1.4272 -0.668489 0
M  V30 2375 C 224.156 2.292 0.00448567 0
M  V30 2376 C 225.156 1.43001 0.735339 0
M  V30 2377 O 226.346 1.64461 0.57429 0
M  V30 2378 C 223.478 3.25375 1.01705 0
M  V30 2379 H 224.671 2.90199 -0.756608 0
M  V30 2380 H 222.224 1.50254 -0.430506 0
M  V30 2381 H 222.959 2.69301 1.80686 0
M  V30 2382 H 222.744 3.88944 0.496463 0
M  V30 2383 H 224.234 3.90245 1.48655 0
M  V30 2384 N 224.671 0.411399 1.52136 0
M  V30 2385 C 225.601 -0.404015 2.29978 0
M  V30 2386 C 226.582 -1.04412 1.34284 0
M  V30 2387 O 227.767 -1.0527 1.63192 0
M  V30 2388 C 224.897 -1.5197 3.12286 0
M  V30 2389 C 223.851 -1.00448 4.16046 0
M  V30 2390 C 223.177 -2.21393 4.86712 0
M  V30 2391 C 224.477 -0.0569336 5.22269 0
M  V30 2392 H 226.171 0.245529 2.98392 0
M  V30 2393 H 223.717 0.119525 1.43503 0
M  V30 2394 H 225.67 -2.09715 3.6551 0
M  V30 2395 H 224.394 -2.19716 2.41646 0
M  V30 2396 H 223.053 -0.449421 3.63835 0
M  V30 2397 H 222.701 -2.87699 4.12599 0
M  V30 2398 H 222.401 -1.87571 5.56858 0
M  V30 2399 H 223.925 -2.7974 5.4275 0
M  V30 2400 H 225.339 -0.54325 5.7072 0
M  V30 2401 H 223.736 0.192594 5.99791 0
M  V30 2402 H 224.806 0.887663 4.76706 0
M  V30 2403 N 226.149 -1.5696 0.141893 0
M  V30 2404 C 227.059 -2.20066 -0.812905 0
M  V30 2405 C 228.075 -1.18344 -1.27557 0
M  V30 2406 O 229.251 -1.50902 -1.33381 0
M  V30 2407 C 226.316 -2.80583 -2.03652 0
M  V30 2408 C 225.377 -3.97414 -1.62359 0
M  V30 2409 C 224.61 -4.55036 -2.78887 0
M  V30 2410 O 224.833 -4.11538 -3.94959 0
M  V30 2411 O 223.767 -5.45376 -2.54653 0
M  V30 2412 H 227.593 -3.02157 -0.305746 0
M  V30 2413 H 225.178 -1.49159 -0.0848799 0
M  V30 2414 H 227.06 -3.19067 -2.75272 0
M  V30 2415 H 225.735 -2.01508 -2.5333 0
M  V30 2416 H 224.642 -3.63656 -0.877775 0
M  V30 2417 H 225.975 -4.77994 -1.17401 0
M  V30 2418 N 227.627 0.131896 -1.57047 0
M  V30 2419 C 228.537 1.1815 -2.02676 0
M  V30 2420 C 229.553 1.46113 -0.944824 0
M  V30 2421 O 230.729 1.57485 -1.25541 0
M  V30 2422 C 227.794 2.49139 -2.41103 0
M  V30 2423 C 226.855 2.28688 -3.63318 0
M  V30 2424 C 226.088 3.53431 -3.99903 0
M  V30 2425 O 226.311 4.60223 -3.36973 0
M  V30 2426 O 225.245 3.45198 -4.93074 0
M  V30 2427 H 229.071 0.824069 -2.92306 0
M  V30 2428 H 226.656 0.341745 -1.45439 0
M  V30 2429 H 228.538 3.26338 -2.66611 0
M  V30 2430 H 227.213 2.84382 -1.54624 0
M  V30 2431 H 226.12 1.4939 -3.42977 0
M  V30 2432 H 227.453 1.98355 -4.50462 0
M  V30 2433 N 229.106 1.52395 0.401703 0
M  V30 2434 C 230.016 1.7917 1.51444 0
M  V30 2435 C 231.032 0.677691 1.6026 0
M  V30 2436 O 232.208 0.963909 1.76835 0
M  V30 2437 C 229.273 1.94347 2.87107 0
M  V30 2438 C 228.334 3.18257 2.88116 0
M  V30 2439 C 227.567 3.32701 4.17308 0
M  V30 2440 O 227.79 2.52238 5.11598 0
M  V30 2441 O 226.724 4.25891 4.25324 0
M  V30 2442 H 230.55 2.73633 1.31752 0
M  V30 2443 H 228.135 1.3733 0.588296 0
M  V30 2444 H 230.017 2.06109 3.67555 0
M  V30 2445 H 228.692 1.03073 3.06851 0
M  V30 2446 H 227.599 3.11947 2.06494 0
M  V30 2447 H 228.932 4.09336 2.73322 0
M  V30 2448 N 230.584 -0.659388 1.43143 0
M  V30 2449 C 231.809 -1.45221 1.48073 0
M  V30 2450 C 232.234 -1.87845 0.097995 0
M  V30 2451 O 231.592 -1.56985 -0.90694 0
M  V30 2452 C 231.64 -2.66748 2.42647 0
M  V30 2453 O 230.744 -3.65583 1.90848 0
M  V30 2454 H 230.085 -0.435669 0.501088 0
M  V30 2455 H 232.615 -0.807432 1.87994 0
M  V30 2456 H 232.625 -3.14637 2.59745 0
M  V30 2457 H 231.3 -2.35067 3.43098 0
M  V30 2458 H 229.877 -3.24693 1.83381 0
M  V30 2459 N 232.062 -1.29571 -0.897171 0
M  V30 2460 C 233.478 -1.07637 -1.17841 0
M  V30 2461 C 233.678 0.170713 -2.00776 0
M  V30 2462 O 232.734 0.867768 -2.3712 0
M  V30 2463 C 234.047 -2.3332 -1.8969 0
M  V30 2464 C 235.595 -2.38664 -2.02505 0
M  V30 2465 C 236.07 -3.64157 -2.77765 0
M  V30 2466 N 237.561 -3.64894 -2.85318 0
M  V30 2467 C 238.296 -4.58679 -3.44094 0
M  V30 2468 N 237.792 -5.62799 -4.04017 0
M  V30 2469 N 239.585 -4.46245 -3.41793 0
M  V30 2470 H 231.736 -2.09598 -0.343883 0
M  V30 2471 H 233.999 -0.923333 -0.214848 0
M  V30 2472 H 233.705 -3.24262 -1.36187 0
M  V30 2473 H 233.579 -2.41025 -2.9015 0
M  V30 2474 H 235.966 -1.48208 -2.55183 0
M  V30 2475 H 236.047 -2.34943 -1.01171 0
M  V30 2476 H 235.691 -4.54965 -2.25763 0
M  V30 2477 H 235.621 -3.65137 -3.7945 0
M  V30 2478 H 238.112 -2.89613 -2.42761 0
M  V30 2479 H 238.425 -6.3048 -4.46895 0
M  V30 2480 H 236.77 -5.66605 -4.02472 0
M  V30 2481 H 239.961 -3.64094 -2.94199 0
M  V30 2482 H 240.134 -5.19518 -3.87304 0
M  V30 2483 N 233.54 1.10788 -1.12088 0
M  V30 2484 C 234.472 2.16816 -0.743213 0
M  V30 2485 C 235.485 1.6119 0.228412 0
M  V30 2486 O 236.674 1.78497 0.0102931 0
M  V30 2487 C 233.774 3.38809 -0.0787313 0
M  V30 2488 C 232.947 4.23885 -1.0789 0
M  V30 2489 C 232.006 5.24334 -0.442713 0
M  V30 2490 O 231.032 5.58497 -1.09864 0
M  V30 2491 N 232.234 5.75079 0.791457 0
M  V30 2492 H 234.999 2.49825 -1.65552 0
M  V30 2493 H 232.56 1.26373 -1.012 0
M  V30 2494 H 234.552 4.03107 0.358766 0
M  V30 2495 H 233.122 3.03805 0.736275 0
M  V30 2496 H 232.342 3.55939 -1.69414 0
M  V30 2497 H 233.63 4.77562 -1.75533 0
M  V30 2498 H 233.028 5.49517 1.3434 0
M  V30 2499 H 231.585 6.4118 1.17183 0
M  V30 2500 N 235.018 0.912232 1.28515 0
M  V30 2501 C 236.434 0.610159 1.47476 0
M  V30 2502 C 236.634 -0.844955 1.82928 0
M  V30 2503 O 235.69 -1.62416 1.93332 0
M  V30 2504 C 237.003 1.54675 2.57868 0
M  V30 2505 C 238.551 1.55331 2.71738 0
M  V30 2506 C 239.026 2.47649 3.85272 0
M  V30 2507 N 240.517 2.45767 3.92623 0
M  V30 2508 C 241.252 3.13896 4.79851 0
M  V30 2509 N 240.748 3.9135 5.71679 0
M  V30 2510 N 242.541 3.02991 4.73448 0
M  V30 2511 H 234.692 1.85318 1.03783 0
M  V30 2512 H 236.955 0.794777 0.516753 0
M  V30 2513 H 236.661 2.5841 2.38574 0
M  V30 2514 H 236.535 1.27671 3.54937 0
M  V30 2515 H 238.922 0.52335 2.90422 0
M  V30 2516 H 239.003 1.86378 1.75205 0
M  V30 2517 H 238.647 3.50745 3.67342 0
M  V30 2518 H 238.577 2.13904 4.81199 0
M  V30 2519 H 241.068 1.89503 3.26951 0
M  V30 2520 H 241.381 4.40359 6.35062 0
M  V30 2521 H 239.726 3.95455 5.71524 0
M  V30 2522 H 242.917 2.41987 4.007 0
M  V30 2523 H 243.09 3.5636 5.41213 0
M  V30 2524 N 236.496 -1.42363 0.676048 0
M  V30 2525 C 237.428 -2.29164 -0.0404605 0
M  V30 2526 C 238.441 -1.43747 -0.764245 0
M  V30 2527 O 239.63 -1.67453 -0.618195 0
M  V30 2528 C 236.73 -3.21196 -1.08103 0
M  V30 2529 C 235.903 -4.35273 -0.430812 0
M  V30 2530 C 234.962 -5.08017 -1.37133 0
M  V30 2531 O 233.988 -5.62494 -0.87116 0
M  V30 2532 N 235.19 -5.13647 -2.70456 0
M  V30 2533 H 237.955 -2.91298 0.704667 0
M  V30 2534 H 235.516 -1.53303 0.520559 0
M  V30 2535 H 237.508 -3.66728 -1.71152 0
M  V30 2536 H 236.078 -2.60505 -1.72788 0
M  V30 2537 H 235.298 -3.92372 0.379209 0
M  V30 2538 H 236.586 -5.08795 0.0221132 0
M  V30 2539 H 235.984 -4.708 -3.1363 0
M  V30 2540 H 234.541 -5.62821 -3.28749 0
M  V30 2541 N 237.974 -0.419461 -1.51915 0
M  V30 2542 C 239.199 0.154572 -2.06823 0
M  V30 2543 C 239.624 1.3722 -1.28656 0
M  V30 2544 O 238.982 1.78461 -0.319583 0
M  V30 2545 C 239.03 0.473172 -3.57482 0
M  V30 2546 O 238.134 1.56255 -3.81652 0
M  V30 2547 H 237.475 0.0096924 -0.663929 0
M  V30 2548 H 240.005 -0.595642 -1.95738 0
M  V30 2549 H 240.015 0.728825 -4.01438 0
M  V30 2550 H 238.69 -0.416873 -4.13805 0
M  V30 2551 H 237.267 1.29825 -3.49571 0
M  V30 2552 N 239.452 1.56882 -0.150215 0
M  V30 2553 C 240.868 1.58263 0.20617 0
M  V30 2554 C 241.068 1.16464 1.64434 0
M  V30 2555 O 240.124 0.866422 2.3717 0
M  V30 2556 C 241.437 3.00649 -0.0555025 0
M  V30 2557 C 242.985 3.12999 0.00795388 0
M  V30 2558 C 243.46 4.5744 -0.226429 0
M  V30 2559 N 244.951 4.62875 -0.173469 0
M  V30 2560 C 245.686 5.72454 -0.329288 0
M  V30 2561 N 245.182 6.90669 -0.543005 0
M  V30 2562 N 246.975 5.61467 -0.266666 0
M  V30 2563 H 239.126 1.82345 -1.08922 0
M  V30 2564 H 241.389 0.844149 -0.431413 0
M  V30 2565 H 241.095 3.3563 -1.05096 0
M  V30 2566 H 240.969 3.71337 0.66246 0
M  V30 2567 H 243.356 2.77857 0.993966 0
M  V30 2568 H 243.437 2.4479 -0.742388 0
M  V30 2569 H 243.081 4.93287 -1.20956 0
M  V30 2570 H 243.011 5.2378 0.544274 0
M  V30 2571 H 245.502 3.77898 -0.0130709 0
M  V30 2572 H 245.815 7.70045 -0.651922 0
M  V30 2573 H 244.16 6.92581 -0.579366 0
M  V30 2574 H 247.351 4.67992 -0.100441 0
M  V30 2575 H 247.524 6.46816 -0.391535 0
M  V30 2576 N 240.93 -0.123565 1.57115 0
M  V30 2577 C 241.863 -1.18202 1.95201 0
M  V30 2578 C 242.841 -1.40349 0.821031 0
M  V30 2579 O 244.025 -1.54578 1.07879 0
M  V30 2580 C 241.152 -2.53671 2.24429 0
M  V30 2581 C 240.198 -2.4798 3.46999 0
M  V30 2582 S 241.031 -1.92389 4.99747 0
M  V30 2583 C 242.187 -3.2954 5.32123 0
M  V30 2584 H 242.42 -0.857212 2.84674 0
M  V30 2585 H 239.953 -0.33014 1.50829 0
M  V30 2586 H 241.911 -3.3162 2.41947 0
M  V30 2587 H 240.572 -2.83332 1.35579 0
M  V30 2588 H 239.765 -3.47758 3.64801 0
M  V30 2589 H 239.367 -1.7815 3.28844 0
M  V30 2590 H 241.659 -4.25736 5.27025 0
M  V30 2591 H 242.602 -3.16569 6.33395 0
M  V30 2592 H 243.01 -3.27758 4.59603 0
M  V30 2593 N 242.408 -1.52605 -0.393616 0
M  V30 2594 C 243.318 -1.79971 -1.50492 0
M  V30 2595 C 244.334 -0.686181 -1.59899 0
M  V30 2596 O 245.51 -0.973274 -1.76322 0
M  V30 2597 C 242.575 -1.95867 -2.86072 0
M  V30 2598 C 241.636 -3.19781 -2.86424 0
M  V30 2599 C 240.869 -3.34909 -4.15538 0
M  V30 2600 O 241.092 -2.54948 -5.10253 0
M  V30 2601 O 240.026 -4.28141 -4.23059 0
M  V30 2602 H 243.852 -2.74328 -1.30299 0
M  V30 2603 H 241.437 -1.3764 -0.581005 0
M  V30 2604 H 243.319 -2.08056 -3.66457 0
M  V30 2605 H 241.994 -1.04699 -3.063 0
M  V30 2606 H 240.901 -3.13038 -2.04837 0
M  V30 2607 H 242.234 -4.1078 -2.71147 0
M  V30 2608 N 243.887 0.651787 -1.4349 0
M  V30 2609 C 244.834 1.76462 -1.4876 0
M  V30 2610 C 245.804 1.62641 -0.337189 0
M  V30 2611 O 246.989 1.82864 -0.544544 0
M  V30 2612 C 244.129 3.14623 -1.41796 0
M  V30 2613 C 243.242 3.39568 -2.67053 0
M  V30 2614 C 242.377 4.67585 -2.52068 0
M  V30 2615 C 241.416 4.85639 -3.72587 0
M  V30 2616 N 240.553 6.04915 -3.56402 0
M  V30 2617 H 245.393 1.71293 -2.43849 0
M  V30 2618 H 242.93 0.835889 -1.21043 0
M  V30 2619 H 244.888 3.94496 -1.35753 0
M  V30 2620 H 243.518 3.18859 -0.50288 0
M  V30 2621 H 242.57 2.53783 -2.8337 0
M  V30 2622 H 243.882 3.48795 -3.56572 0
M  V30 2623 H 243.036 5.55586 -2.4374 0
M  V30 2624 H 241.775 4.60681 -1.60075 0
M  V30 2625 H 240.78 3.96073 -3.81321 0
M  V30 2626 H 242.005 4.94372 -4.65589 0
M  V30 2627 H 239.951 5.9914 -2.67146 0
M  V30 2628 H 239.868 6.15106 -4.39524 0
M  V30 2629 H 241.136 6.95533 -3.51929 0
M  V30 2630 N 245.365 1.30045 0.890287 0
M  V30 2631 C 246.613 1.18327 1.63839 0
M  V30 2632 C 246.934 -0.263455 1.93212 0
M  V30 2633 O 246.204 -1.17856 1.56482 0
M  V30 2634 H 244.784 0.434933 0.607324 0
M  V30 2635 H 247.446 1.631 1.06698 0
M  V30 2636 H 246.542 1.74024 2.59079 0
M  V30 2637 N 246.843 -1.10192 1.12674 0
M  V30 2638 C 247.753 -2.20172 0.810026 0
M  V30 2639 C 248.769 -1.72821 -0.202188 0
M  V30 2640 O 249.945 -2.01369 -0.0351691 0
M  V30 2641 C 247.01 -3.45631 0.272007 0
M  V30 2642 C 246.071 -4.07704 1.34447 0
M  V30 2643 C 245.304 -5.27175 0.832029 0
M  V30 2644 O 245.527 -5.69425 -0.333284 0
M  V30 2645 O 244.461 -5.80168 1.60277 0
M  V30 2646 H 248.287 -2.49701 1.72867 0
M  V30 2647 H 245.872 -1.18977 0.903597 0
M  V30 2648 H 247.754 -4.21394 -0.0230219 0
M  V30 2649 H 246.429 -3.17723 -0.619164 0
M  V30 2650 H 245.336 -3.33614 1.6927 0
M  V30 2651 H 246.669 -4.3982 2.2095 0
M  V30 2652 N 248.321 -0.919034 -1.28029 0
M  V30 2653 C 249.732 -0.600735 -1.76771 0
M  V30 2654 C 250.083 0.884024 -1.75156 0
M  V30 2655 O 249.208 1.69163 -1.34956 0
M  V30 2656 C 249.803 -1.08372 -3.21 0
M  V30 2657 C 248.362 -0.816248 -3.67443 0
M  V30 2658 C 247.509 -1.24742 -2.47658 0
M  V30 2659 H 250.46 -1.09974 -1.14418 0
M  V30 2660 H 250.481 -0.427512 -3.78091 0
M  V30 2661 H 249.993 -2.16437 -3.22144 0
M  V30 2662 H 248.094 0.250968 -3.71754 0
M  V30 2663 H 248.207 -1.4277 -4.57333 0
M  V30 2664 H 246.571 -0.666083 -2.45836 0
M  V30 2665 H 247.354 -2.33653 -2.51518 0
M  V30 2666 N 249.799 1.42003 -0.683588 0
M  V30 2667 C 251.029 2.05448 -0.217866 0
M  V30 2668 C 251.437 1.51491 1.13346 0
M  V30 2669 O 250.78 0.653048 1.717 0
M  V30 2670 C 250.842 3.59399 -0.0850118 0
M  V30 2671 C 250.506 4.36093 -1.36645 0
M  V30 2672 C 251.503 4.66169 -2.30179 0
M  V30 2673 C 249.188 4.75578 -1.61649 0
M  V30 2674 C 251.182 5.34676 -3.46988 0
M  V30 2675 C 248.869 5.43824 -2.78745 0
M  V30 2676 C 249.867 5.73299 -3.71238 0
M  V30 2677 O 249.555 6.40142 -4.86285 0
M  V30 2678 H 249.287 0.668344 -0.101454 0
M  V30 2679 H 251.841 1.82974 -0.933248 0
M  V30 2680 H 250.071 3.80566 0.686031 0
M  V30 2681 H 251.76 4.04457 0.341973 0
M  V30 2682 H 252.526 4.36156 -2.12115 0
M  V30 2683 H 248.405 4.52025 -0.905243 0
M  V30 2684 H 251.949 5.57599 -4.19201 0
M  V30 2685 H 247.846 5.73254 -2.96732 0
M  V30 2686 H 248.614 6.58636 -4.85944 0
M  V30 2687 N 251.277 0.427512 1.51691 0
M  V30 2688 C 252.21 -0.433876 2.24037 0
M  V30 2689 C 253.188 -1.03287 1.25581 0
M  V30 2690 O 254.372 -1.07722 1.54688 0
M  V30 2691 C 251.499 -1.60385 2.98319 0
M  V30 2692 C 250.545 -1.12648 4.11355 0
M  V30 2693 S 251.378 -0.076543 5.35445 0
M  V30 2694 C 252.534 -1.25141 6.13262 0
M  V30 2695 H 252.767 0.180367 2.96752 0
M  V30 2696 H 250.3 0.211946 1.52938 0
M  V30 2697 H 252.258 -2.27462 3.41718 0
M  V30 2698 H 250.919 -2.18948 2.25213 0
M  V30 2699 H 250.112 -2.0011 4.62571 0
M  V30 2700 H 249.714 -0.534088 3.70167 0
M  V30 2701 H 252.006 -2.17162 6.41753 0
M  V30 2702 H 252.949 -0.779411 7.03797 0
M  V30 2703 H 253.357 -1.48553 5.44603 0
M  V30 2704 N 252.755 -1.56801 0.158532 0
M  V30 2705 C 253.98 -2.01295 -0.499516 0
M  V30 2706 C 254.405 -1.03799 -1.56867 0
M  V30 2707 O 253.763 -0.0155162 -1.81293 0
M  V30 2708 C 253.811 -3.44469 -1.06647 0
M  V30 2709 O 252.915 -3.50012 -2.18095 0
M  V30 2710 H 252.256 -0.652884 -0.12099 0
M  V30 2711 H 254.786 -2.02958 0.258661 0
M  V30 2712 H 254.796 -3.8351 -1.39227 0
M  V30 2713 H 253.471 -4.14932 -0.283581 0
M  V30 2714 H 252.048 -3.22822 -1.86656 0
M  V30 2715 N 254.233 0.115231 -1.57178 0
M  V30 2716 C 255.482 0.820945 -1.84237 0
M  V30 2717 C 255.795 1.80866 -0.744761 0
M  V30 2718 O 257.001 2.56083 -0.901871 0
M  V30 2719 C 255.457 1.51072 -3.26658 0
M  V30 2720 C 255.065 0.563795 -4.44438 0
M  V30 2721 C 256.809 2.20134 -3.62962 0
M  V30 2722 C 254.716 1.25701 -5.77887 0
M  V30 2723 H 253.646 0.310328 -0.687177 0
M  V30 2724 H 256.297 0.0737134 -1.83352 0
M  V30 2725 H 254.679 2.30471 -3.22024 0
M  V30 2726 H 255.853 -0.197247 -4.60378 0
M  V30 2727 H 254.168 -0.0200638 -4.16395 0
M  V30 2728 H 256.765 2.72696 -4.59936 0
M  V30 2729 H 257.108 2.98107 -2.90582 0
M  V30 2730 H 257.641 1.47619 -3.69396 0
M  V30 2731 H 254.38 0.518493 -6.53446 0
M  V30 2732 H 253.9 1.98997 -5.65827 0
M  V30 2733 H 255.579 1.78915 -6.2177 0
M  V30 2734 N 255.711 1.52812 0.385517 0
M  V30 2735 C 256.643 1.74096 1.49074 0
M  V30 2736 C 257.656 0.621462 1.50472 0
M  V30 2737 O 258.845 0.897245 1.54311 0
M  V30 2738 C 255.945 1.78774 2.87911 0
M  V30 2739 C 255.118 3.08134 3.10439 0
M  V30 2740 C 254.177 3.04313 4.29278 0
M  V30 2741 O 253.203 3.78168 4.25415 0
M  V30 2742 N 254.405 2.23741 5.35649 0
M  V30 2743 H 257.17 2.69455 1.31202 0
M  V30 2744 H 254.731 1.51343 0.575065 0
M  V30 2745 H 256.723 1.73721 3.65518 0
M  V30 2746 H 255.293 0.907869 2.99126 0
M  V30 2747 H 254.513 3.26649 2.20667 0
M  V30 2748 H 255.801 3.93662 3.22347 0
M  V30 2749 H 255.199 1.63211 5.41645 0
M  V30 2750 H 253.756 2.24524 6.11909 0
M  V30 2751 N 257.189 -0.644168 1.43834 0
M  V30 2752 C 258.6 -1.22554 1.40845 0
M  V30 2753 C 258.951 -1.9585 0.117115 0
M  V30 2754 O 258.076 -2.01734 -0.783086 0
M  V30 2755 C 258.671 -2.22907 2.55143 0
M  V30 2756 C 257.23 -2.76501 2.5539 0
M  V30 2757 C 256.377 -1.51287 2.32396 0
M  V30 2758 H 259.328 -0.43563 1.52604 0
M  V30 2759 H 259.349 -3.05259 2.2715 0
M  V30 2760 H 258.861 -1.69533 3.49114 0
M  V30 2761 H 256.962 -3.33914 1.65324 0
M  V30 2762 H 257.075 -3.23429 3.53455 0
M  V30 2763 H 255.439 -1.78957 1.81236 0
M  V30 2764 H 256.222 -0.998336 3.28463 0
M  V30 2765 N 258.668 -1.30515 -0.883378 0
M  V30 2766 C 259.631 -1.1701 -1.97082 0
M  V30 2767 C 260.631 -0.10089 -1.60483 0
M  V30 2768 O 261.821 -0.349127 -1.70666 0
M  V30 2769 C 258.953 -0.793045 -3.31547 0
M  V30 2770 H 260.146 -2.13622 -2.10489 0
M  V30 2771 H 257.699 -1.13935 -1.06998 0
M  V30 2772 H 258.434 0.172499 -3.23841 0
M  V30 2773 H 258.219 -1.56576 -3.5948 0
M  V30 2774 H 259.709 -0.722073 -4.1131 0
M  V30 2775 N 260.146 1.09593 -1.13257 0
M  V30 2776 C 261.056 2.19739 -0.821691 0
M  V30 2777 C 262.072 1.72926 0.19302 0
M  V30 2778 O 263.248 2.01385 0.0244895 0
M  V30 2779 C 260.313 3.45482 -0.290333 0
M  V30 2780 C 259.374 4.06985 -1.36607 0
M  V30 2781 C 258.607 5.26726 -0.859975 0
M  V30 2782 O 258.83 5.69594 0.303082 0
M  V30 2783 O 257.764 5.7931 -1.63351 0
M  V30 2784 H 261.59 2.48781 -1.74189 0
M  V30 2785 H 259.175 1.18496 -0.909894 0
M  V30 2786 H 261.057 4.214 0.000674022 0
M  V30 2787 H 259.732 3.18047 0.602306 0
M  V30 2788 H 258.639 3.32712 -1.71037 0
M  V30 2789 H 259.972 4.38643 -2.23279 0
M  V30 2790 N 261.624 0.925811 1.2754 0
M  V30 2791 C 262.901 0.483726 1.89524 0
M  V30 2792 C 263.281 -1.03809 1.83812 0
M  V30 2793 O 262.629 -1.89143 1.28207 0
M  V30 2794 C 262.839 1.02769 3.33526 0
M  V30 2795 C 264.187 1.08703 4.10449 0
M  V30 2796 O 265.211 0.977175 3.42534 0
M  V30 2797 O 264.07 1.25599 5.31871 0
M  V30 2798 H 261.164 0.15529 0.812289 0
M  V30 2799 H 263.71 1.01738 1.35822 0
M  V30 2800 H 262.482 2.07155 3.31967 0
M  V30 2801 H 262.105 0.475567 3.94746 0
M  V30 2802 N 263.102 -1.41638 0.69111 0
M  V30 2803 C 264.513 -1.84346 0.295517 0
M  V30 2804 C 264.864 -1.57833 -1.16547 0
M  V30 2805 O 263.989 -1.04648 -1.89414 0
M  V30 2806 C 264.584 -3.34636 0.529575 0
M  V30 2807 C 263.143 -3.7593 0.187944 0
M  V30 2808 C 262.29 -2.65082 0.814052 0
M  V30 2809 H 265.241 -1.31253 0.892092 0
M  V30 2810 H 265.262 -3.79903 -0.213148 0
M  V30 2811 H 264.774 -3.53901 1.59297 0
M  V30 2812 H 262.875 -3.62268 -0.871367 0
M  V30 2813 H 262.988 -4.74808 0.63985 0
M  V30 2814 H 261.352 -2.53528 0.244017 0
M  V30 2815 H 262.135 -2.87167 1.88123 0
M  V30 2816 N 264.58 -0.43555 -1.51462 0
M  V30 2817 C 265.857 0.191364 -1.94662 0
M  V30 2818 C 266.237 1.60254 -1.37411 0
M  V30 2819 O 265.585 2.2152 -0.560458 0
M  V30 2820 C 265.795 0.17091 -3.48581 0
M  V30 2821 C 267.143 0.377357 -4.2292 0
M  V30 2822 O 268.167 0.249104 -3.55328 0
M  V30 2823 O 267.026 0.63247 -5.42828 0
M  V30 2824 H 264.12 0.130932 -0.816569 0
M  V30 2825 H 266.666 -0.4934 -1.62369 0
M  V30 2826 H 265.438 -0.815738 -3.82703 0
M  V30 2827 H 265.061 0.898659 -3.87311 0
M  V30 2828 N 266.058 1.56714 -0.166846 0
M  V30 2829 C 267.335 1.88412 0.525373 0
M  V30 2830 C 267.715 1.07602 1.81618 0
M  V30 2831 O 267.063 0.168621 2.27877 0
M  V30 2832 C 267.273 3.40363 0.771613 0
M  V30 2833 C 268.621 4.10007 1.1036 0
M  V30 2834 O 269.645 3.45655 0.860304 0
M  V30 2835 O 268.504 5.2369 1.56239 0
M  V30 2836 H 265.598 0.781587 0.270278 0
M  V30 2837 H 268.144 1.68458 -0.204946 0
M  V30 2838 H 266.916 3.91046 -0.141093 0
M  V30 2839 H 266.539 3.65914 1.55541 0
M  V30 2840 N 267.536 -0.106894 1.57237 0
M  V30 2841 C 268.766 -0.825191 1.89405 0
M  V30 2842 C 269.174 -1.73374 0.757496 0
M  V30 2843 O 268.517 -1.81552 -0.280115 0
M  V30 2844 C 268.579 -1.70102 3.1671 0
M  V30 2845 C 268.243 -0.965523 4.46684 0
M  V30 2846 C 269.24 -0.300741 5.19029 0
M  V30 2847 C 266.925 -0.943105 4.93367 0
M  V30 2848 C 268.919 0.376622 6.36286 0
M  V30 2849 C 266.606 -0.261949 6.10538 0
M  V30 2850 C 267.604 0.396748 6.81847 0
M  V30 2851 O 267.292 1.06701 7.96787 0
M  V30 2852 H 267.024 -0.241852 0.631255 0
M  V30 2853 H 269.578 -0.0921491 2.05193 0
M  V30 2854 H 267.808 -2.47601 2.97036 0
M  V30 2855 H 269.497 -2.29483 3.34802 0
M  V30 2856 H 270.263 -0.309599 4.84011 0
M  V30 2857 H 266.142 -1.44524 4.3776 0
M  V30 2858 H 269.686 0.891334 6.91882 0
M  V30 2859 H 265.583 -0.250896 6.45012 0
M  V30 2860 H 266.351 0.972707 8.127 0
M  V30 2861 N 269.014 -1.53014 -0.377408 0
M  V30 2862 C 270.291 -1.59215 -1.13622 0
M  V30 2863 C 270.671 -0.392407 -2.07421 0
M  V30 2864 O 270.019 0.618342 -2.19975 0
M  V30 2865 C 270.229 -2.93669 -1.88573 0
M  V30 2866 C 271.577 -3.47822 -2.43526 0
M  V30 2867 O 272.601 -2.9562 -1.98715 0
M  V30 2868 O 271.46 -4.39055 -3.25412 0
M  V30 2869 H 268.554 -0.642625 -0.52054 0
M  V30 2870 H 271.1 -1.65353 -0.381625 0
M  V30 2871 H 269.872 -3.7243 -1.20048 0
M  V30 2872 H 269.495 -2.90968 -2.70968 0
M  V30 2873 N 270.492 0.636531 -1.44174 0
M  V30 2874 C 271.769 1.39463 -1.37148 0
M  V30 2875 C 272.149 2.11082 -0.027507 0
M  V30 2876 O 271.497 2.05954 0.989716 0
M  V30 2877 C 271.707 2.36552 -2.56601 0
M  V30 2878 C 273.055 3.00048 -3.00427 0
M  V30 2879 O 274.079 2.46878 -2.56767 0
M  V30 2880 O 272.938 3.96488 -3.76111 0
M  V30 2881 H 270.032 0.623903 -0.542839 0
M  V30 2882 H 272.578 0.662039 -1.56253 0
M  V30 2883 H 271.35 1.82692 -3.46034 0
M  V30 2884 H 270.973 3.17236 -2.39681 0
M  V30 2885 N 271.97 1.30982 0.876444 0
M  V30 2886 C 273.218 1.20058 1.62575 0
M  V30 2887 C 273.539 -0.242947 1.93481 0
M  V30 2888 O 272.809 -1.1619 1.57724 0
M  V30 2889 H 271.389 0.44135 0.602677 0
M  V30 2890 H 274.051 1.64222 1.04962 0
M  V30 2891 H 273.147 1.76762 2.57219 0
M  V30 2892 N 273.449 -1.08991 1.13837 0
M  V30 2893 C 274.696 -1.81258 0.902882 0
M  V30 2894 C 275.024 -1.85936 -0.570803 0
M  V30 2895 O 274.279 -1.3267 -1.43865 0
M  V30 2896 C 274.578 -3.27042 1.44147 0
M  V30 2897 C 274.244 -3.4249 2.93276 0
M  V30 2898 C 272.906 -3.46414 3.33992 0
M  V30 2899 C 275.258 -3.4666 3.892 0
M  V30 2900 C 272.586 -3.52091 4.69307 0
M  V30 2901 C 274.938 -3.53872 5.24364 0
M  V30 2902 C 273.602 -3.56066 5.646 0
M  V30 2903 H 272.872 -0.663268 0.330388 0
M  V30 2904 H 275.519 -1.28368 1.42105 0
M  V30 2905 H 273.824 -3.82599 0.844097 0
M  V30 2906 H 275.521 -3.81499 1.23528 0
M  V30 2907 H 272.111 -3.40124 2.60794 0
M  V30 2908 H 276.295 -3.42865 3.58828 0
M  V30 2909 H 271.551 -3.52079 4.9985 0
M  V30 2910 H 275.725 -3.56043 5.98503 0
M  V30 2911 H 273.352 -3.60218 6.69438 0
M  V30 2912 N 274.927 -0.932562 -1.27047 0
M  V30 2913 C 276.152 -0.591474 -1.98787 0
M  V30 2914 C 276.577 0.824601 -1.69062 0
M  V30 2915 O 275.935 1.5541 -0.933677 0
M  V30 2916 C 275.983 -0.829808 -3.50922 0
M  V30 2917 O 275.087 0.102266 -4.12273 0
M  V30 2918 H 274.428 -0.227185 -0.623926 0
M  V30 2919 H 276.958 -1.25314 -1.61733 0
M  V30 2920 H 276.968 -0.747292 -4.01098 0
M  V30 2921 H 275.643 -1.86201 -3.7189 0
M  V30 2922 H 274.22 -0.0305761 -3.72887 0
M  V30 2923 N 276.405 1.4127 -0.698611 0
M  V30 2924 C 277.338 2.28195 0.0153898 0
M  V30 2925 C 278.316 1.42402 0.784883 0
M  V30 2926 O 279.5 1.71828 0.775067 0
M  V30 2927 C 276.627 3.22685 1.02918 0
M  V30 2928 C 275.673 4.25041 0.352501 0
M  V30 2929 S 276.506 5.27757 -0.907322 0
M  V30 2930 C 277.662 6.25812 0.104796 0
M  V30 2931 H 277.895 2.88403 -0.721858 0
M  V30 2932 H 275.428 1.46452 -0.488996 0
M  V30 2933 H 277.386 3.77655 1.60893 0
M  V30 2934 H 276.047 2.61566 1.73902 0
M  V30 2935 H 275.24 4.91437 1.11828 0
M  V30 2936 H 274.842 3.73682 -0.154254 0
M  V30 2937 H 277.134 6.70705 0.957103 0
M  V30 2938 H 278.077 7.06149 -0.525323 0
M  V30 2939 H 278.485 5.62615 0.460931 0
M  V30 2940 N 277.883 0.443576 1.51229 0
M  V30 2941 C 278.83 -0.364716 2.279 0
M  V30 2942 C 279.8 -1.0114 1.31757 0
M  V30 2943 O 280.985 -1.02912 1.60667 0
M  V30 2944 C 278.125 -1.45644 3.12861 0
M  V30 2945 C 277.238 -0.827269 4.24005 0
M  V30 2946 C 276.373 -1.89456 4.96266 0
M  V30 2947 C 275.412 -1.24416 5.99322 0
M  V30 2948 N 274.549 -2.25309 6.64966 0
M  V30 2949 H 279.389 0.295464 2.96532 0
M  V30 2950 H 276.926 0.157554 1.46254 0
M  V30 2951 H 278.884 -2.10076 3.6045 0
M  V30 2952 H 277.514 -2.08616 2.46331 0
M  V30 2953 H 276.566 -0.0710839 3.80334 0
M  V30 2954 H 277.878 -0.312481 4.9782 0
M  V30 2955 H 277.032 -2.61535 5.47434 0
M  V30 2956 H 275.771 -2.4431 4.22095 0
M  V30 2957 H 274.776 -0.508868 5.4744 0
M  V30 2958 H 276.001 -0.702882 6.75453 0
M  V30 2959 H 273.947 -2.79231 5.93604 0
M  V30 2960 H 273.864 -1.78739 7.34567 0
M  V30 2961 H 275.132 -2.96853 7.20763 0
M  V30 2962 N 279.361 -1.56624 0.175154 0
M  V30 2963 C 280.311 -2.14747 -0.766004 0
M  V30 2964 C 281.295 -1.08275 -1.19018 0
M  V30 2965 O 282.487 -1.34388 -1.15191 0
M  V30 2966 C 279.616 -2.79478 -1.99366 0
M  V30 2967 C 278.702 -3.93114 -1.5913 0
M  V30 2968 N 279.093 -4.97752 -0.89872 0
M  V30 2969 C 277.391 -4.04345 -1.88204 0
M  V30 2970 C 278.092 -5.77473 -0.700012 0
M  V30 2971 N 277.068 -5.29207 -1.24263 0
M  V30 2972 H 280.87 -2.93015 -0.22793 0
M  V30 2973 H 278.384 -1.6238 -0.0253843 0
M  V30 2974 H 280.381 -3.19498 -2.67818 0
M  V30 2975 H 279.041 -2.02692 -2.53665 0
M  V30 2976 H 280.052 -5.14903 -0.556347 0
M  V30 2977 H 276.729 -3.38667 -2.44153 0
M  V30 2978 H 278.119 -6.71728 -0.152047 0
M  V30 2979 N 280.839 0.0985539 -1.57292 0
M  V30 2980 C 282.067 0.816318 -1.90115 0
M  V30 2981 C 282.482 1.72451 -0.768509 0
M  V30 2982 O 281.839 1.80643 0.259687 0
M  V30 2983 C 281.89 1.63259 -3.22535 0
M  V30 2984 O 281.611 0.760934 -4.31441 0
M  V30 2985 C 283.112 2.45372 -3.69199 0
M  V30 2986 H 280.332 0.233595 -0.629027 0
M  V30 2987 H 282.876 0.0768229 -2.04356 0
M  V30 2988 H 281.031 2.32463 -3.09903 0
M  V30 2989 H 281.445 1.32595 -5.07463 0
M  V30 2990 H 282.919 2.98144 -4.64558 0
M  V30 2991 H 283.396 3.23677 -2.96867 0
M  V30 2992 H 284.002 1.81373 -3.84687 0
M  V30 2993 N 282.317 1.53212 0.369288 0
M  V30 2994 C 283.28 1.7872 1.43498 0
M  V30 2995 C 284.28 0.657554 1.46741 0
M  V30 2996 O 285.47 0.925736 1.47566 0
M  V30 2997 C 282.602 1.90591 2.82645 0
M  V30 2998 H 283.795 2.73894 1.22156 0
M  V30 2999 H 281.348 1.44233 0.602203 0
M  V30 3000 H 282.083 0.974709 3.09306 0
M  V30 3001 H 281.868 2.72751 2.8169 0
M  V30 3002 H 283.358 2.11931 3.59826 0
M  V30 3003 N 283.795 -0.628877 1.44509 0
M  V30 3004 C 285.023 -1.41554 1.50897 0
M  V30 3005 C 285.438 -1.8832 0.134564 0
M  V30 3006 O 284.795 -1.60969 -0.859965 0
M  V30 3007 C 284.846 -2.63435 2.47556 0
M  V30 3008 O 284.567 -2.18619 3.79654 0
M  V30 3009 C 286.068 -3.56537 2.63431 0
M  V30 3010 H 283.288 -0.434044 0.511709 0
M  V30 3011 H 285.832 -0.768895 1.89495 0
M  V30 3012 H 283.987 -3.24187 2.12089 0
M  V30 3013 H 284.401 -2.97652 4.31861 0
M  V30 3014 H 285.875 -4.38657 3.35088 0
M  V30 3015 H 286.352 -4.05493 1.68738 0
M  V30 3016 H 286.958 -3.01653 2.9981 0
M  V30 3017 N 285.273 -1.31445 -0.869486 0
M  V30 3018 C 286.236 -1.19094 -1.9583 0
M  V30 3019 C 287.236 -0.117906 -1.60367 0
M  V30 3020 O 288.426 -0.367208 -1.70286 0
M  V30 3021 C 285.558 -0.828165 -3.30688 0
M  V30 3022 H 286.751 -2.15842 -2.08212 0
M  V30 3023 H 284.304 -1.15063 -1.05784 0
M  V30 3024 H 285.039 0.138142 -3.24006 0
M  V30 3025 H 284.824 -1.6038 -3.578 0
M  V30 3026 H 286.314 -0.765658 -4.10521 0
M  V30 3027 N 286.751 1.08385 -1.14413 0
M  V30 3028 C 288.167 1.32844 -0.884563 0
M  V30 3029 C 288.367 1.95841 0.474181 0
M  V30 3030 O 287.423 2.21158 1.21842 0
M  V30 3031 C 288.736 2.22978 -2.01745 0
M  V30 3032 C 290.284 2.36458 -2.05077 0
M  V30 3033 C 290.759 3.29934 -3.1766 0
M  V30 3034 N 292.25 3.37511 -3.17239 0
M  V30 3035 C 292.985 4.09871 -4.0099 0
M  V30 3036 N 292.481 4.84936 -4.94781 0
M  V30 3037 N 294.274 4.05704 -3.89051 0
M  V30 3038 H 286.425 0.658756 -2.01926 0
M  V30 3039 H 288.688 0.352821 -0.879899 0
M  V30 3040 H 288.394 1.83934 -2.99769 0
M  V30 3041 H 288.268 3.23441 -1.94077 0
M  V30 3042 H 290.655 2.7476 -1.0766 0
M  V30 3043 H 290.736 1.35736 -2.16816 0
M  V30 3044 H 290.38 2.92352 -4.15322 0
M  V30 3045 H 290.31 4.30584 -3.03158 0
M  V30 3046 H 292.801 2.83996 -2.49308 0
M  V30 3047 H 293.114 5.37612 -5.55151 0
M  V30 3048 H 291.459 4.83988 -4.98779 0
M  V30 3049 H 294.65 3.46167 -3.15097 0
M  V30 3050 H 294.823 4.61834 -4.54547 0
M  V30 3051 N 288.23 0.939286 1.26551 0
M  V30 3052 C 289.477 0.585847 1.9384 0
M  V30 3053 C 289.805 -0.874784 1.73718 0
M  V30 3054 O 289.06 -1.64092 1.06642 0
M  V30 3055 C 289.359 0.872106 3.46596 0
M  V30 3056 C 289.025 2.31632 3.86856 0
M  V30 3057 C 287.687 2.71111 3.97558 0
M  V30 3058 C 290.039 3.25494 4.07066 0
M  V30 3059 C 287.367 4.03553 4.25866 0
M  V30 3060 C 289.719 4.57531 4.36862 0
M  V30 3061 C 288.383 4.96828 4.45778 0
M  V30 3062 H 287.653 0.214377 0.709312 0
M  V30 3063 H 290.3 1.18544 1.50398 0
M  V30 3064 H 288.605 0.18996 3.91339 0
M  V30 3065 H 290.302 0.577442 3.96821 0
M  V30 3066 H 286.892 2.00008 3.79071 0
M  V30 3067 H 291.076 2.9619 3.98227 0
M  V30 3068 H 286.332 4.33665 4.30981 0
M  V30 3069 H 290.506 5.30254 4.51446 0
M  V30 3070 H 288.133 5.99482 4.67468 0
M  V30 3071 N 289.708 -1.40897 0.706093 0
M  V30 3072 C 290.64 -2.29199 0.00815776 0
M  V30 3073 C 291.653 -1.45336 -0.733582 0
M  V30 3074 O 292.842 -1.68727 -0.582537 0
M  V30 3075 C 289.942 -3.23417 -1.01265 0
M  V30 3076 C 289.115 -4.36089 -0.338387 0
M  V30 3077 C 288.174 -5.10811 -1.26326 0
M  V30 3078 O 287.2 -5.64215 -0.751651 0
M  V30 3079 N 288.402 -5.19269 -2.595 0
M  V30 3080 H 291.167 -2.89738 0.766297 0
M  V30 3081 H 288.728 -1.52164 0.55296 0
M  V30 3082 H 290.72 -3.70276 -1.63334 0
M  V30 3083 H 289.29 -2.64112 -1.67223 0
M  V30 3084 H 288.51 -3.91479 0.462352 0
M  V30 3085 H 289.798 -5.08634 0.130031 0
M  V30 3086 H 289.196 -4.77347 -3.03573 0
M  V30 3087 H 287.753 -5.69667 -3.16737 0
M  V30 3088 N 291.186 -0.45159 -1.50991 0
M  V30 3089 C 292.602 -0.104647 -1.59257 0
M  V30 3090 C 292.802 1.38728 -1.4614 0
M  V30 3091 O 291.858 2.15866 -1.30989 0
M  V30 3092 C 293.171 -0.637468 -2.93865 0
M  V30 3093 C 294.719 -0.599166 -3.07212 0
M  V30 3094 C 295.194 -1.1092 -4.44366 0
M  V30 3095 N 296.685 -1.06778 -4.50725 0
M  V30 3096 C 297.42 -1.43314 -5.55201 0
M  V30 3097 N 296.916 -1.87204 -6.67028 0
M  V30 3098 N 298.709 -1.3504 -5.45638 0
M  V30 3099 H 290.86 -1.42214 -1.57762 0
M  V30 3100 H 293.123 -0.586921 -0.744465 0
M  V30 3101 H 292.829 -1.68187 -3.08879 0
M  V30 3102 H 292.703 -0.0702139 -3.77135 0
M  V30 3103 H 295.09 0.436277 -2.91857 0
M  V30 3104 H 295.171 -1.20299 -2.25747 0
M  V30 3105 H 294.815 -2.14318 -4.60467 0
M  V30 3106 H 294.745 -0.481773 -5.24392 0
M  V30 3107 H 297.236 -0.745643 -3.70471 0
M  V30 3108 H 297.549 -2.13282 -7.42786 0
M  V30 3109 H 295.894 -1.91142 -6.68199 0
M  V30 3110 H 299.085 -1.00607 -4.57161 0
M  V30 3111 H 299.258 -1.63841 -6.26945 0
M  V30 3112 N 292.664 1.56529 -0.183458 0
M  V30 3113 C 293.612 2.19873 0.758845 0
M  V30 3114 C 294.606 1.16638 1.22849 0
M  V30 3115 O 295.812 1.3481 1.19274 0
M  V30 3116 H 292.187 0.7045 0.263029 0
M  V30 3117 H 294.158 2.97724 0.200755 0
M  V30 3118 C 292.907 2.86314 1.9728 0
M  V30 3119 H 292.23 3.65487 1.62047 0
M  V30 3120 H 293.67 3.3409 2.61075 0
M  V30 3121 C 292.129 1.86729 2.80418 0
M  V30 3122 O 292.659 1.36031 3.77966 0
M  V30 3123 N 290.865 1.55216 2.45675 0
M  V30 3124 H 290.412 1.96636 1.66409 0
M  V30 3125 H 290.37 0.888388 3.01588 0
M  V30 3126 N 294.142 -0.090211 1.57342 0
M  V30 3127 C 295.092 -1.11557 1.98844 0
M  V30 3128 C 296.076 -1.35503 0.867624 0
M  V30 3129 O 297.268 -1.36113 1.13148 0
M  V30 3130 C 294.397 -2.43446 2.42051 0
M  V30 3131 C 293.483 -2.22853 3.60828 0
M  V30 3132 N 293.874 -1.72141 4.75606 0
M  V30 3133 C 292.172 -2.53401 3.67021 0
M  V30 3134 C 292.873 -1.65932 5.57531 0
M  V30 3135 N 291.849 -2.11323 5.00843 0
M  V30 3136 H 295.651 -0.716499 2.85032 0
M  V30 3137 H 293.165 -0.297567 1.59651 0
M  V30 3138 H 295.162 -3.17644 2.70014 0
M  V30 3139 H 293.822 -2.84087 1.57241 0
M  V30 3140 H 294.833 -1.41268 4.98261 0
M  V30 3141 H 291.51 -2.97532 2.92884 0
M  V30 3142 H 292.9 -1.27733 6.59647 0
M  V30 3143 N 295.62 -1.53406 -0.361157 0
M  V30 3144 C 297.036 -1.43277 -0.703124 0
M  V30 3145 C 297.236 -0.575384 -1.9311 0
M  V30 3146 O 296.292 -0.0595362 -2.5243 0
M  V30 3147 C 297.605 -2.8653 -0.9122 0
M  V30 3148 C 299.153 -2.96191 -1.01193 0
M  V30 3149 C 299.628 -4.40514 -1.25345 0
M  V30 3150 N 301.119 -4.43962 -1.32105 0
M  V30 3151 C 301.854 -5.52746 -1.5251 0
M  V30 3152 N 301.35 -6.71567 -1.70203 0
M  V30 3153 N 303.143 -5.40331 -1.54916 0
M  V30 3154 H 295.294 -2.07654 0.446475 0
M  V30 3155 H 297.557 -0.937944 0.137715 0
M  V30 3156 H 297.263 -3.51605 -0.0816414 0
M  V30 3157 H 297.137 -3.30441 -1.81903 0
M  V30 3158 H 299.524 -2.31266 -1.83303 0
M  V30 3159 H 299.605 -2.55667 -0.0823929 0
M  V30 3160 H 299.249 -5.06014 -0.437346 0
M  V30 3161 H 299.179 -4.78614 -2.19627 0
M  V30 3162 H 301.67 -3.58332 -1.20028 0
M  V30 3163 H 301.983 -7.50241 -1.85359 0
M  V30 3164 H 300.328 -6.74545 -1.67373 0
M  V30 3165 H 303.519 -4.46465 -1.40663 0
M  V30 3166 H 303.692 -6.25173 -1.70477 0
M  V30 3167 N 297.098 0.621204 -1.44841 0
M  V30 3168 C 298.028 1.74366 -1.55303 0
M  V30 3169 C 299.009 1.65199 -0.405385 0
M  V30 3170 O 300.194 1.83807 -0.626787 0
M  V30 3171 C 297.324 3.12931 -1.50637 0
M  V30 3172 C 296.278 3.36896 -2.63979 0
M  V30 3173 C 295.604 4.75594 -2.44366 0
M  V30 3174 C 296.904 3.28483 -4.06074 0
M  V30 3175 H 298.598 1.65867 -2.49256 0
M  V30 3176 H 296.144 0.796558 -1.19962 0
M  V30 3177 H 298.097 3.9124 -1.56555 0
M  V30 3178 H 296.821 3.22237 -0.532057 0
M  V30 3179 H 295.48 2.60972 -2.57467 0
M  V30 3180 H 295.128 4.81616 -1.45105 0
M  V30 3181 H 294.828 4.92586 -3.20364 0
M  V30 3182 H 296.352 5.5612 -2.52117 0
M  V30 3183 H 297.766 3.96684 -4.13902 0
M  V30 3184 H 296.163 3.57008 -4.82354 0
M  V30 3185 H 297.233 2.26133 -4.28943 0
M  V30 3186 N 298.576 1.31904 0.862503 0
M  V30 3187 C 299.825 1.21373 1.61094 0
M  V30 3188 C 300.138 -0.22504 1.94301 0
M  V30 3189 O 301.344 -0.452121 2.67709 0
M  V30 3190 C 299.8 2.12525 2.9045 0
M  V30 3191 C 299.408 3.61441 2.64697 0
M  V30 3192 C 301.152 2.10813 3.68454 0
M  V30 3193 C 299.059 4.44578 3.90006 0
M  V30 3194 H 297.989 0.450705 0.604468 0
M  V30 3195 H 300.64 1.56811 0.953027 0
M  V30 3196 H 299.022 1.69994 3.57656 0
M  V30 3197 H 300.196 4.12264 2.05851 0
M  V30 3198 H 298.511 3.65205 2.00036 0
M  V30 3199 H 301.108 2.70167 4.61426 0
M  V30 3200 H 301.451 1.09713 4.01583 0
M  V30 3201 H 301.984 2.51583 3.08141 0
M  V30 3202 H 298.723 5.46461 3.62023 0
M  V30 3203 H 298.243 3.98508 4.48276 0
M  V30 3204 H 299.922 4.57176 4.5782 0
M  V30 3205 N 300.054 -1.07777 1.14986 0
M  V30 3206 C 301.279 -1.84558 0.946213 0
M  V30 3207 C 301.704 -1.81323 -0.500362 0
M  V30 3208 O 301.062 -1.20301 -1.35637 0
M  V30 3209 C 301.11 -3.29736 1.45968 0
M  V30 3210 O 300.214 -4.07149 0.65601 0
M  V30 3211 H 299.555 -0.571641 0.33782 0
M  V30 3212 H 302.085 -1.35991 1.52865 0
M  V30 3213 H 302.095 -3.80574 1.47063 0
M  V30 3214 H 300.77 -3.31406 2.51283 0
M  V30 3215 H 299.347 -3.65994 0.714322 0
M  V30 3216 N 301.532 -0.945985 -1.26051 0
M  V30 3217 C 302.442 -0.465633 -2.29933 0
M  V30 3218 C 303.458 0.462761 -1.67733 0
M  V30 3219 O 304.634 0.341118 -1.9849 0
M  V30 3220 C 301.699 0.256994 -3.45746 0
M  V30 3221 C 300.76 -0.708549 -4.23412 0
M  V30 3222 C 299.993 -0.0203135 -5.33696 0
M  V30 3223 O 300.216 1.19571 -5.57726 0
M  V30 3224 O 299.15 -0.701459 -5.97799 0
M  V30 3225 H 302.976 -1.32866 -2.73094 0
M  V30 3226 H 300.561 -0.712071 -1.31339 0
M  V30 3227 H 302.443 0.663852 -4.16138 0
M  V30 3228 H 301.118 1.09533 -3.04605 0
M  V30 3229 H 300.025 -1.16545 -3.55483 0
M  V30 3230 H 301.358 -1.51465 -4.68315 0
M  V30 3231 N 303.011 1.40521 -0.713556 0
M  V30 3232 C 304.26 2.00155 -0.249192 0
M  V30 3233 C 304.573 1.57224 1.16362 0
M  V30 3234 O 305.779 2.09542 1.72639 0
M  V30 3235 C 304.235 3.5773 -0.3946 0
M  V30 3236 C 303.843 4.09635 -1.81392 0
M  V30 3237 C 305.587 4.24499 0.00907364 0
M  V30 3238 C 303.494 5.59707 -1.91003 0
M  V30 3239 H 302.424 0.74868 -0.0894114 0
M  V30 3240 H 305.075 1.60784 -0.884352 0
M  V30 3241 H 303.457 3.94792 0.30911 0
M  V30 3242 H 304.631 3.83955 -2.54785 0
M  V30 3243 H 302.946 3.55456 -2.16888 0
M  V30 3244 H 305.543 5.34683 -0.0420404 0
M  V30 3245 H 305.886 4.02824 1.05065 0
M  V30 3246 H 306.419 3.92536 -0.645007 0
M  V30 3247 H 303.158 5.86234 -2.93275 0
M  V30 3248 H 302.678 5.87258 -1.22019 0
M  V30 3249 H 304.357 6.24776 -1.6812 0
M  V30 3250 N 304.489 0.459591 1.5075 0
M  V30 3251 C 305.419 -0.330644 2.31147 0
M  V30 3252 C 306.4 -1.00087 1.37538 0
M  V30 3253 O 307.585 -1.00025 1.66459 0
M  V30 3254 C 304.715 -1.41958 3.16962 0
M  V30 3255 C 303.669 -0.871608 4.19031 0
M  V30 3256 C 302.995 -2.05797 4.9351 0
M  V30 3257 C 304.295 0.109251 5.22186 0
M  V30 3258 H 305.989 0.340336 2.97459 0
M  V30 3259 H 303.535 0.165119 1.4305 0
M  V30 3260 H 305.488 -1.9798 3.71997 0
M  V30 3261 H 304.212 -2.11917 2.48513 0
M  V30 3262 H 302.871 -0.333442 3.6508 0
M  V30 3263 H 302.519 -2.74427 4.21544 0
M  V30 3264 H 302.219 -1.6976 5.62544 0
M  V30 3265 H 303.743 -2.62331 5.51375 0
M  V30 3266 H 305.157 -0.361405 5.7216 0
M  V30 3267 H 303.554 0.383316 5.98875 0
M  V30 3268 H 304.624 1.03887 4.73641 0
M  V30 3269 N 305.967 -1.56429 0.191757 0
M  V30 3270 C 307.192 -2.02309 -0.456706 0
M  V30 3271 C 307.617 -1.07103 -1.5463 0
M  V30 3272 O 306.975 -0.0539677 -1.8122 0
M  V30 3273 C 307.023 -3.46654 -0.993159 0
M  V30 3274 O 306.127 -3.54559 -2.10622 0
M  V30 3275 H 305.468 -0.655303 -0.107114 0
M  V30 3276 H 307.998 -2.02364 0.301653 0
M  V30 3277 H 308.008 -3.86377 -1.31061 0
M  V30 3278 H 306.683 -4.1544 -0.195504 0
M  V30 3279 H 305.26 -3.26708 -1.79767 0
M  V30 3280 N 307.445 0.0818655 -1.57387 0
M  V30 3281 C 308.355 1.11642 -2.06333 0
M  V30 3282 C 309.371 1.43033 -0.99083 0
M  V30 3283 O 310.547 1.53411 -1.30488 0
M  V30 3284 C 307.612 2.41342 -2.48907 0
M  V30 3285 C 306.673 2.17014 -3.7041 0
M  V30 3286 C 305.906 3.4053 -4.10944 0
M  V30 3287 O 306.129 4.4927 -3.51444 0
M  V30 3288 O 305.063 3.29336 -5.03807 0
M  V30 3289 H 308.889 0.730657 -2.9478 0
M  V30 3290 H 306.474 0.295301 -1.46452 0
M  V30 3291 H 308.356 3.17691 -2.76858 0
M  V30 3292 H 307.031 2.79319 -1.63593 0
M  V30 3293 H 305.938 1.38403 -3.47556 0
M  V30 3294 H 307.271 1.83923 -4.56545 0
M  V30 3295 N 308.923 1.53595 0.353017 0
M  V30 3296 C 310.148 1.7462 1.11904 0
M  V30 3297 C 310.573 0.479721 1.8188 0
M  V30 3298 O 309.931 -0.567066 1.72204 0
M  V30 3299 C 309.979 2.92029 2.11545 0
M  V30 3300 O 309.083 2.61516 3.18878 0
M  V30 3301 H 308.424 0.579531 0.324099 0
M  V30 3302 H 310.954 2.00525 0.406301 0
M  V30 3303 H 310.964 3.18551 2.5493 0
M  V30 3304 H 309.639 3.83888 1.60008 0
M  V30 3305 H 308.216 2.45852 2.80377 0
M  V30 3306 N 310.401 -0.613514 1.45168 0
M  V30 3307 C 311.647 -1.37471 1.49096 0
M  V30 3308 C 311.98 -1.93765 0.129901 0
M  V30 3309 O 311.255 -1.74707 -0.854858 0
M  V30 3310 C 311.538 -2.52701 2.56542 0
M  V30 3311 C 311.391 -2.01643 4.0207 0
M  V30 3312 C 312.71 -3.54849 2.60327 0
M  V30 3313 H 309.829 -0.498502 0.54283 0
M  V30 3314 H 312.471 -0.692125 1.76945 0
M  V30 3315 H 310.621 -3.10931 2.32926 0
M  V30 3316 H 312.293 -1.48108 4.36877 0
M  V30 3317 H 310.536 -1.32688 4.13009 0
M  V30 3318 H 311.207 -2.84681 4.72928 0
M  V30 3319 H 313.683 -3.0645 2.81474 0
M  V30 3320 H 312.559 -4.32973 3.37381 0
M  V30 3321 H 312.82 -4.10079 1.6519 0
M  V30 3322 N 311.879 -1.3236 -0.855495 0
M  V30 3323 C 313.125 -1.23054 -1.612 0
M  V30 3324 C 313.458 0.207404 -1.93089 0
M  V30 3325 O 312.733 1.14432 -1.57275 0
M  V30 3326 C 313.016 -2.08937 -2.93287 0
M  V30 3327 C 312.869 -3.61105 -2.68185 0
M  V30 3328 C 314.188 -1.94986 -3.94549 0
M  V30 3329 H 311.307 -0.448364 -0.584926 0
M  V30 3330 H 313.949 -1.62297 -0.987917 0
M  V30 3331 H 312.099 -1.75599 -3.46551 0
M  V30 3332 H 313.771 -4.04652 -2.21483 0
M  V30 3333 H 312.014 -3.83813 -2.02164 0
M  V30 3334 H 312.685 -4.16522 -3.62234 0
M  V30 3335 H 315.161 -2.24189 -3.5054 0
M  V30 3336 H 314.037 -2.57356 -4.84829 0
M  V30 3337 H 314.298 -0.917263 -4.3248 0
M  V30 3338 N 313.357 1.07166 -1.15556 0
M  V30 3339 C 314.768 1.6127 -0.940693 0
M  V30 3340 C 315.119 1.89251 0.517551 0
M  V30 3341 O 314.244 1.65937 1.38903 0
M  V30 3342 C 314.839 2.92993 -1.7012 0
M  V30 3343 C 313.398 3.43832 -1.53156 0
M  V30 3344 C 312.545 2.1786 -1.71558 0
M  V30 3345 H 315.496 0.90229 -1.30554 0
M  V30 3346 H 315.517 3.62007 -1.17181 0
M  V30 3347 H 315.029 2.72596 -2.76248 0
M  V30 3348 H 313.13 3.69307 -0.494294 0
M  V30 3349 H 313.243 4.19747 -2.30975 0
M  V30 3350 H 311.607 2.2765 -1.14225 0
M  V30 3351 H 312.39 1.99956 -2.79056 0
M  V30 3352 N 314.835 0.952656 1.25548 0
M  V30 3353 C 316.112 0.523818 1.88456 0
M  V30 3354 C 316.492 -0.998871 1.85973 0
M  V30 3355 O 315.84 -1.86381 1.3219 0
M  V30 3356 C 316.05 1.0982 3.31271 0
M  V30 3357 C 317.398 1.17385 4.08051 0
M  V30 3358 O 318.422 1.04961 3.40384 0
M  V30 3359 O 317.281 1.36852 5.29088 0
M  V30 3360 H 314.375 0.172485 0.808813 0
M  V30 3361 H 316.921 1.04596 1.33633 0
M  V30 3362 H 315.693 2.1415 3.27499 0
M  V30 3363 H 315.316 0.559191 3.93648 0
M  V30 3364 N 316.313 -1.40141 0.720998 0
M  V30 3365 C 317.559 -2.01084 0.263231 0
M  V30 3366 C 317.892 -1.57052 -1.14229 0
M  V30 3367 O 317.167 -0.793027 -1.77599 0
M  V30 3368 C 317.45 -3.58401 0.349344 0
M  V30 3369 C 317.303 -4.12491 1.79363 0
M  V30 3370 C 318.622 -4.39231 -0.276351 0
M  V30 3371 H 315.741 -0.730572 0.0971228 0
M  V30 3372 H 318.383 -1.66543 0.914518 0
M  V30 3373 H 316.533 -3.87958 -0.205165 0
M  V30 3374 H 318.205 -3.93711 2.40394 0
M  V30 3375 H 316.448 -3.66576 2.31958 0
M  V30 3376 H 317.119 -5.21646 1.80524 0
M  V30 3377 H 319.595 -4.15637 0.196184 0
M  V30 3378 H 318.471 -5.48586 -0.185681 0
M  V30 3379 H 318.732 -4.20643 -1.36059 0
M  V30 3380 N 317.792 -0.46758 -1.50504 0
M  V30 3381 C 319.208 -0.121533 -1.59137 0
M  V30 3382 C 319.408 1.3717 -1.47603 0
M  V30 3383 O 318.464 2.14464 -1.33272 0
M  V30 3384 C 319.777 -0.6686 -2.93173 0
M  V30 3385 C 321.325 -0.631716 -3.06559 0
M  V30 3386 C 321.8 -1.15627 -4.43164 0
M  V30 3387 N 323.291 -1.11553 -4.49567 0
M  V30 3388 C 324.026 -1.49195 -5.5365 0
M  V30 3389 N 323.522 -1.94269 -6.65005 0
M  V30 3390 N 325.315 -1.4082 -5.44175 0
M  V30 3391 H 317.466 -1.4388 -1.56245 0
M  V30 3392 H 319.729 -0.594784 -0.738198 0
M  V30 3393 H 319.435 -1.71453 -3.07078 0
M  V30 3394 H 319.309 -0.11021 -3.77039 0
M  V30 3395 H 321.696 0.405297 -2.92304 0
M  V30 3396 H 321.777 -1.22687 -2.24458 0
M  V30 3397 H 321.421 -2.1919 -4.58168 0
M  V30 3398 H 321.351 -0.537365 -5.23851 0
M  V30 3399 H 323.842 -0.784895 -3.69659 0
M  V30 3400 H 324.155 -2.21148 -7.40482 0
M  V30 3401 H 322.5 -1.98219 -6.66134 0
M  V30 3402 H 325.691 -1.0545 -4.56068 0
M  V30 3403 H 325.864 -1.70481 -6.25172 0
M  V30 3404 N 319.27 1.56325 -0.20005 0
M  V30 3405 C 320.495 2.02548 0.44597 0
M  V30 3406 C 320.92 1.07922 1.5406 0
M  V30 3407 O 320.278 0.0635775 1.81188 0
M  V30 3408 C 320.326 3.47175 0.974761 0
M  V30 3409 O 319.43 3.55671 2.08739 0
M  V30 3410 H 318.771 0.655862 0.103638 0
M  V30 3411 H 321.301 2.02201 -0.312381 0
M  V30 3412 H 321.311 3.87067 1.2901 0
M  V30 3413 H 319.986 4.15538 0.17347 0
M  V30 3414 H 318.563 3.27657 1.78032 0
M  V30 3415 N 320.748 -0.0735177 1.57428 0
M  V30 3416 C 321.994 -0.774145 1.87443 0
M  V30 3417 C 322.327 -1.77311 0.792103 0
M  V30 3418 O 321.602 -1.93492 -0.197793 0
M  V30 3419 C 321.885 -1.48367 3.28115 0
M  V30 3420 C 321.738 -0.501227 4.46999 0
M  V30 3421 C 323.057 -2.429 3.66998 0
M  V30 3422 H 320.176 -0.279971 0.681752 0
M  V30 3423 H 322.818 -0.0373616 1.89963 0
M  V30 3424 H 320.968 -2.11171 3.26097 0
M  V30 3425 H 322.64 0.121468 4.6114 0
M  V30 3426 H 320.883 0.183593 4.33411 0
M  V30 3427 H 321.554 -1.03526 5.42205 0
M  V30 3428 H 324.03 -1.90175 3.70098 0
M  V30 3429 H 322.906 -2.89549 4.66318 0
M  V30 3430 H 323.167 -3.27628 2.96837 0
M  V30 3431 N 322.226 -1.5378 -0.344866 0
M  V30 3432 C 323.472 -1.71216 -1.08687 0
M  V30 3433 C 323.805 -0.473281 -1.88345 0
M  V30 3434 O 323.08 0.52968 -1.87149 0
M  V30 3435 C 323.363 -2.97486 -2.02914 0
M  V30 3436 C 323.216 -4.31579 -1.26727 0
M  V30 3437 C 324.535 -3.19422 -3.0275 0
M  V30 3438 H 321.654 -0.62301 -0.393735 0
M  V30 3439 H 324.296 -1.8645 -0.365563 0
M  V30 3440 H 322.446 -2.84629 -2.64421 0
M  V30 3441 H 324.118 -4.56284 -0.67845 0
M  V30 3442 H 322.361 -4.30049 -0.569273 0
M  V30 3443 H 323.032 -5.16106 -1.95803 0
M  V30 3444 H 325.508 -3.316 -2.51357 0
M  V30 3445 H 324.384 -4.09169 -3.65885 0
M  V30 3446 H 324.645 -2.35656 -3.74057 0
M  V30 3447 N 323.704 0.605807 -1.45491 0
M  V30 3448 C 324.932 1.39136 -1.5313 0
M  V30 3449 C 325.347 1.88082 -0.164507 0
M  V30 3450 O 324.704 1.62316 0.834247 0
M  V30 3451 C 324.755 2.59463 -2.51716 0
M  V30 3452 O 324.476 2.12551 -3.83084 0
M  V30 3453 C 325.977 3.52301 -2.6907 0
M  V30 3454 H 323.197 0.425849 -0.51855 0
M  V30 3455 H 325.741 0.73865 -1.90694 0
M  V30 3456 H 323.896 3.20772 -2.17219 0
M  V30 3457 H 324.31 2.90744 -4.36541 0
M  V30 3458 H 325.784 4.33271 -3.42024 0
M  V30 3459 H 326.261 4.02757 -1.75167 0
M  V30 3460 H 326.867 2.96845 -3.04571 0
M  V30 3461 N 325.182 1.32811 0.848464 0
M  V30 3462 C 326.41 1.26739 1.63538 0
M  V30 3463 C 326.825 -0.163484 1.88091 0
M  V30 3464 O 326.182 -1.10258 1.45429 0
M  V30 3465 C 326.233 2.03013 2.99112 0
M  V30 3466 O 325.954 3.40518 2.75643 0
M  V30 3467 C 327.455 2.04038 3.93552 0
M  V30 3468 H 324.675 0.437024 0.509167 0
M  V30 3469 H 327.219 1.75033 1.05753 0
M  V30 3470 H 325.374 1.58426 3.53525 0
M  V30 3471 H 325.788 3.79635 3.61908 0
M  V30 3472 H 327.262 2.61877 4.85926 0
M  V30 3473 H 327.739 1.0282 4.26995 0
M  V30 3474 H 328.345 2.486 3.45077 0
M  V30 3475 N 326.66 -1.06551 1.16123 0
M  V30 3476 C 327.623 -2.12132 0.867906 0
M  V30 3477 C 328.623 -1.60224 -0.135944 0
M  V30 3478 O 329.813 -1.73943 0.0946422 0
M  V30 3479 C 326.945 -3.396 0.297419 0
M  V30 3480 H 328.138 -2.39586 1.80385 0
M  V30 3481 H 325.691 -1.22574 0.969812 0
M  V30 3482 H 326.426 -3.17794 -0.64633 0
M  V30 3483 H 326.211 -3.78581 1.02073 0
M  V30 3484 H 327.701 -4.17455 0.110052 0
M  V30 3485 N 328.138 -0.959301 -1.25041 0
M  V30 3486 C 329.554 -0.664474 -1.4511 0
M  V30 3487 C 329.754 0.776481 -1.85938 0
M  V30 3488 O 328.81 1.55128 -1.99227 0
M  V30 3489 C 330.123 -1.64139 -2.5195 0
M  V30 3490 C 331.671 -1.65309 -2.65786 0
M  V30 3491 C 332.146 -2.61777 -3.75815 0
M  V30 3492 N 333.637 -2.60169 -3.83231 0
M  V30 3493 C 334.372 -3.31489 -4.6787 0
M  V30 3494 N 333.868 -4.12298 -5.56761 0
M  V30 3495 N 335.661 -3.20354 -4.61876 0
M  V30 3496 H 327.812 -1.89043 -0.968332 0
M  V30 3497 H 330.075 -0.813408 -0.4869 0
M  V30 3498 H 329.781 -2.67086 -2.28819 0
M  V30 3499 H 329.655 -1.40756 -3.49954 0
M  V30 3500 H 332.042 -0.630778 -2.8828 0
M  V30 3501 H 332.123 -1.92753 -1.68167 0
M  V30 3502 H 331.767 -3.64137 -3.54071 0
M  V30 3503 H 331.697 -2.31616 -4.72929 0
M  V30 3504 H 334.188 -2.01507 -3.19692 0
M  V30 3505 H 334.501 -4.63625 -6.18281 0
M  V30 3506 H 332.846 -4.16395 -5.56454 0
M  V30 3507 H 336.037 -2.56692 -3.91442 0
M  V30 3508 H 336.21 -3.76201 -5.27614 0
M  V30 3509 N 329.616 1.39756 -0.72842 0
M  V30 3510 C 330.549 2.28176 -0.0330172 0
M  V30 3511 C 331.527 1.44035 0.754501 0
M  V30 3512 O 332.711 1.73434 0.738445 0
M  V30 3513 C 329.838 3.24795 0.960504 0
M  V30 3514 C 328.884 4.25693 0.262264 0
M  V30 3515 S 329.717 5.25714 -1.01906 0
M  V30 3516 C 330.873 6.25894 -0.0279717 0
M  V30 3517 H 331.106 2.86807 -0.78287 0
M  V30 3518 H 328.639 1.45382 -0.519951 0
M  V30 3519 H 330.597 3.80983 1.52846 0
M  V30 3520 H 329.258 2.65196 1.68315 0
M  V30 3521 H 328.451 4.93699 1.01379 0
M  V30 3522 H 328.053 3.7327 -0.233482 0
M  V30 3523 H 330.345 6.72585 0.814621 0
M  V30 3524 H 331.288 7.04876 -0.67499 0
M  V30 3525 H 331.696 5.63466 0.341489 0
M  V30 3526 N 331.094 0.475555 1.50254 0
M  V30 3527 C 332.026 -0.352649 2.26471 0
M  V30 3528 C 333.039 -0.953165 1.3198 0
M  V30 3529 O 334.228 -0.840815 1.57457 0
M  V30 3530 C 331.328 -1.50902 3.0345 0
M  V30 3531 C 330.501 -1.02047 4.25329 0
M  V30 3532 C 329.56 -2.05142 4.84565 0
M  V30 3533 O 328.586 -1.63023 5.45355 0
M  V30 3534 N 329.788 -3.37987 4.71959 0
M  V30 3535 H 332.553 0.300767 2.98187 0
M  V30 3536 H 330.114 0.306598 1.5897 0
M  V30 3537 H 332.106 -2.19572 3.39956 0
M  V30 3538 H 330.676 -2.06705 2.34504 0
M  V30 3539 H 329.896 -0.159507 3.93877 0
M  V30 3540 H 331.184 -0.672061 5.04342 0
M  V30 3541 H 330.582 -3.74913 4.23623 0
M  V30 3542 H 329.139 -4.02443 5.12721 0
M  V30 3543 N 332.573 -1.56217 0.208337 0
M  V30 3544 C 333.819 -1.98242 -0.427552 0
M  V30 3545 C 334.152 -1.09554 -1.60348 0
M  V30 3546 O 333.427 -0.15035 -1.93918 0
M  V30 3547 C 333.71 -3.4931 -0.874907 0
M  V30 3548 C 333.563 -4.48773 0.303751 0
M  V30 3549 C 334.882 -4.04424 -1.73577 0
M  V30 3550 H 332.001 -0.720744 -0.153936 0
M  V30 3551 H 334.643 -1.87586 0.30192 0
M  V30 3552 H 332.793 -3.58522 -1.49648 0
M  V30 3553 H 334.465 -4.51586 0.941682 0
M  V30 3554 H 332.708 -4.23194 0.953375 0
M  V30 3555 H 333.379 -5.51976 -0.0519883 0
M  V30 3556 H 335.855 -3.98075 -1.21143 0
M  V30 3557 H 334.731 -5.1047 -2.01771 0
M  V30 3558 H 334.992 -3.50494 -2.69456 0
M  V30 3559 N 334.051 0.0651679 -1.57465 0
M  V30 3560 C 334.981 1.07693 -2.07182 0
M  V30 3561 C 335.962 1.39962 -0.966673 0
M  V30 3562 O 337.147 1.49475 -1.2398 0
M  V30 3563 C 334.277 2.3885 -2.52127 0
M  V30 3564 C 333.231 2.20917 -3.66579 0
M  V30 3565 C 332.557 3.57515 -3.97601 0
M  V30 3566 C 333.857 1.62493 -4.9638 0
M  V30 3567 H 335.551 0.663199 -2.91962 0
M  V30 3568 H 333.097 0.317569 -1.40455 0
M  V30 3569 H 335.05 3.09928 -2.85522 0
M  V30 3570 H 333.774 2.82215 -1.64384 0
M  V30 3571 H 332.433 1.52279 -3.33477 0
M  V30 3572 H 332.081 3.98463 -3.06979 0
M  V30 3573 H 331.781 3.46353 -4.74672 0
M  V30 3574 H 333.305 4.30013 -4.33499 0
M  V30 3575 H 334.719 2.23445 -5.27963 0
M  V30 3576 H 333.116 1.62009 -5.77818 0
M  V30 3577 H 334.186 0.587041 -4.81333 0
M  V30 3578 N 335.529 1.53961 0.336706 0
M  V30 3579 C 336.476 1.82428 1.41381 0
M  V30 3580 C 337.446 0.670444 1.51968 0
M  V30 3581 O 338.631 0.915565 1.67398 0
M  V30 3582 C 335.771 2.04564 2.77934 0
M  V30 3583 C 334.884 3.32267 2.76084 0
M  V30 3584 C 334.019 3.44434 4.04399 0
M  V30 3585 C 333.058 4.66061 3.96804 0
M  V30 3586 N 332.195 4.75224 5.16823 0
M  V30 3587 H 337.035 2.74324 1.16405 0
M  V30 3588 H 334.572 1.35869 0.563752 0
M  V30 3589 H 336.53 2.15388 3.57301 0
M  V30 3590 H 335.16 1.15974 3.01247 0
M  V30 3591 H 334.212 3.3025 1.88784 0
M  V30 3592 H 335.524 4.21733 2.66351 0
M  V30 3593 H 334.678 3.54728 4.92192 0
M  V30 3594 H 333.417 2.53037 4.16921 0
M  V30 3595 H 332.422 4.55838 3.07396 0
M  V30 3596 H 333.647 5.58829 3.85858 0
M  V30 3597 H 331.593 3.86739 5.29876 0
M  V30 3598 H 331.51 5.58636 5.09374 0
M  V30 3599 H 332.778 4.89835 6.06367 0
M  V30 3600 N 337.007 -0.598083 1.45811 0
M  V30 3601 C 338.423 -0.919847 1.30426 0
M  V30 3602 C 338.623 -1.99759 0.264303 0
M  V30 3603 O 337.679 -2.50221 -0.338472 0
M  V30 3604 C 338.992 -1.35176 2.68603 0
M  V30 3605 C 340.54 -1.46546 2.76574 0
M  V30 3606 C 341.015 -1.9311 4.15298 0
M  V30 3607 N 342.506 -2.00328 4.1764 0
M  V30 3608 C 343.241 -2.37599 5.21856 0
M  V30 3609 N 342.737 -2.73771 6.36413 0
M  V30 3610 N 344.53 -2.38021 5.09218 0
M  V30 3611 H 336.681 0.114111 2.12093 0
M  V30 3612 H 338.944 -0.0116121 0.947929 0
M  V30 3613 H 338.65 -0.633969 3.45939 0
M  V30 3614 H 338.524 -2.3164 2.97696 0
M  V30 3615 H 340.911 -2.17415 1.99537 0
M  V30 3616 H 340.992 -0.483727 2.51185 0
M  V30 3617 H 340.636 -1.22824 4.92825 0
M  V30 3618 H 340.566 -2.92213 4.38086 0
M  V30 3619 H 343.057 -1.74925 3.34977 0
M  V30 3620 H 343.37 -3.0112 7.11721 0
M  V30 3621 H 341.715 -2.71445 6.39799 0
M  V30 3622 H 344.906 -2.09174 4.18765 0
M  V30 3623 H 345.079 -2.66741 5.90554 0
M  V30 3624 N 338.485 -1.33259 -0.841409 0
M  V30 3625 C 339.417 -1.19136 -1.95804 0
M  V30 3626 C 340.43 -0.122965 -1.62335 0
M  V30 3627 O 341.619 -0.373154 -1.74556 0
M  V30 3628 C 338.719 -0.804268 -3.29218 0
M  V30 3629 C 337.892 -1.96376 -3.90839 0
M  V30 3630 C 336.951 -1.55806 -5.02604 0
M  V30 3631 O 335.977 -2.27203 -5.21888 0
M  V30 3632 N 337.179 -0.461609 -5.78662 0
M  V30 3633 H 339.944 -2.15326 -2.08458 0
M  V30 3634 H 337.505 -1.25971 -1.017 0
M  V30 3635 H 339.497 -0.51501 -4.0141 0
M  V30 3636 H 338.067 0.0668809 -3.12528 0
M  V30 3637 H 337.287 -2.41879 -3.11269 0
M  V30 3638 H 338.575 -2.73966 -4.28742 0
M  V30 3639 H 337.973 0.132343 -5.65545 0
M  V30 3640 H 336.53 -0.232013 -6.51387 0
M  V30 3641 N 339.963 1.05934 -1.16686 0
M  V30 3642 C 341.209 1.79065 -0.95203 0
M  V30 3643 C 341.542 1.87147 0.518629 0
M  V30 3644 O 340.817 1.36574 1.38484 0
M  V30 3645 C 341.1 3.23359 -1.58464 0
M  V30 3646 C 340.953 3.23336 -3.12689 0
M  V30 3647 C 342.272 4.21004 -1.28232 0
M  V30 3648 H 339.391 0.65005 -0.34728 0
M  V30 3649 H 342.033 1.23868 -1.44072 0
M  V30 3650 H 340.183 3.70493 -1.16908 0
M  V30 3651 H 341.855 2.84336 -3.6325 0
M  V30 3652 H 340.098 2.61886 -3.4583 0
M  V30 3653 H 340.769 4.25144 -3.52075 0
M  V30 3654 H 343.245 3.8233 -1.64203 0
M  V30 3655 H 342.121 5.20225 -1.75092 0
M  V30 3656 H 342.382 4.41639 -0.201791 0
M  V30 3657 N 341.441 0.965919 1.2453 0
M  V30 3658 C 342.373 0.452465 2.2469 0
M  V30 3659 C 343.386 -0.437821 1.56802 0
M  V30 3660 O 344.575 -0.244283 1.76821 0
M  V30 3661 C 341.675 -0.366258 3.36915 0
M  V30 3662 C 340.848 0.513701 4.34373 0
M  V30 3663 C 339.907 -0.248716 5.25612 0
M  V30 3664 O 338.933 0.356745 5.68081 0
M  V30 3665 N 340.135 -1.53877 5.59734 0
M  V30 3666 H 342.9 1.31361 2.69378 0
M  V30 3667 H 340.461 0.837541 1.38553 0
M  V30 3668 H 342.453 -0.884297 3.94921 0
M  V30 3669 H 341.023 -1.12832 2.91526 0
M  V30 3670 H 340.243 1.21273 3.75082 0
M  V30 3671 H 341.531 1.11391 4.96457 0
M  V30 3672 H 340.929 -2.05243 5.27154 0
M  V30 3673 H 339.486 -2.00254 6.20275 0
M  V30 3674 N 342.919 -1.39368 0.735821 0
M  V30 3675 C 344.144 -2.05319 0.293052 0
M  V30 3676 C 344.569 -1.55115 -1.064 0
M  V30 3677 O 343.927 -0.695261 -1.67439 0
M  V30 3678 C 343.975 -3.59305 0.305323 0
M  V30 3679 O 343.079 -4.06299 -0.706761 0
M  V30 3680 H 342.42 -0.650529 0.13307 0
M  V30 3681 H 344.95 -1.78386 1.00197 0
M  V30 3682 H 344.96 -4.07724 0.149997 0
M  V30 3683 H 343.635 -3.95207 1.29553 0
M  V30 3684 H 342.212 -3.69292 -0.517504 0
M  V30 3685 N 344.397 -0.483516 -1.5 0
M  V30 3686 C 345.327 0.293829 -2.31644 0
M  V30 3687 C 346.308 0.978864 -1.39112 0
M  V30 3688 O 347.493 0.973644 -1.68029 0
M  V30 3689 C 344.623 1.36897 -3.19181 0
M  V30 3690 C 343.577 0.804833 -4.20365 0
M  V30 3691 C 342.903 1.9792 -4.96721 0
M  V30 3692 C 344.203 -0.192313 -5.21946 0
M  V30 3693 H 345.897 -0.387616 -2.9688 0
M  V30 3694 H 343.443 -0.187856 -1.42769 0
M  V30 3695 H 345.396 1.92037 -3.751 0
M  V30 3696 H 344.12 2.07936 -2.51853 0
M  V30 3697 H 342.779 0.275319 -3.65565 0
M  V30 3698 H 342.427 2.67686 -4.25856 0
M  V30 3699 H 342.127 1.60789 -5.65173 0
M  V30 3700 H 343.651 2.53526 -5.55479 0
M  V30 3701 H 345.065 0.270333 -5.72662 0
M  V30 3702 H 343.462 -0.478543 -5.98189 0
M  V30 3703 H 344.532 -1.11409 -4.71928 0
M  V30 3704 N 345.875 1.56104 -0.216619 0
M  V30 3705 C 346.808 2.16026 0.735395 0
M  V30 3706 C 347.786 1.1032 1.1945 0
M  V30 3707 O 348.97 1.38549 1.27814 0
M  V30 3708 C 346.097 2.73656 1.99575 0
M  V30 3709 C 345.143 3.92146 1.67702 0
M  V30 3710 S 345.976 5.29397 0.806145 0
M  V30 3711 C 347.132 5.90463 2.07617 0
M  V30 3712 H 347.365 2.96439 0.226072 0
M  V30 3713 H 344.898 1.544 -0.00136639 0
M  V30 3714 H 346.856 3.075 2.71945 0
M  V30 3715 H 345.517 1.93245 2.47619 0
M  V30 3716 H 344.71 4.30954 2.61332 0
M  V30 3717 H 344.312 3.59423 1.03398 0
M  V30 3718 H 346.604 6.06136 3.02664 0
M  V30 3719 H 347.547 6.86589 1.73207 0
M  V30 3720 H 347.955 5.19252 2.21445 0
M  V30 3721 N 347.353 -0.0568162 1.57498 0
M  V30 3722 C 348.599 -0.75422 1.88253 0
M  V30 3723 C 348.932 -1.76461 0.810865 0
M  V30 3724 O 348.207 -1.93691 -0.177259 0
M  V30 3725 C 348.49 -1.44878 3.2967 0
M  V30 3726 C 348.343 -0.453789 4.47505 0
M  V30 3727 C 349.662 -2.38994 3.69554 0
M  V30 3728 H 346.781 -0.272724 0.684683 0
M  V30 3729 H 349.423 -0.0172113 1.89992 0
M  V30 3730 H 347.573 -2.077 3.28318 0
M  V30 3731 H 349.245 0.170371 4.60985 0
M  V30 3732 H 347.488 0.229552 4.33192 0
M  V30 3733 H 348.159 -0.977699 5.43273 0
M  V30 3734 H 350.635 -1.86239 3.72095 0
M  V30 3735 H 349.511 -2.84587 4.69363 0
M  V30 3736 H 349.772 -3.24461 3.00296 0
M  V30 3737 N 348.832 -1.54138 -0.328536 0
M  V30 3738 C 349.782 -1.79557 -1.4051 0
M  V30 3739 C 350.766 -0.651373 -1.47126 0
M  V30 3740 O 351.958 -0.911226 -1.51742 0
M  V30 3741 C 349.087 -2.02196 -2.77438 0
M  V30 3742 C 348.173 -3.22724 -2.75155 0
M  V30 3743 N 348.564 -4.43881 -2.42494 0
M  V30 3744 C 346.862 -3.24196 -3.06289 0
M  V30 3745 C 347.563 -5.25797 -2.48822 0
M  V30 3746 N 346.539 -4.62862 -2.8506 0
M  V30 3747 H 350.341 -2.70814 -1.1418 0
M  V30 3748 H 347.855 -1.53265 -0.536991 0
M  V30 3749 H 349.852 -2.18546 -3.55026 0
M  V30 3750 H 348.512 -1.12191 -3.04702 0
M  V30 3751 H 349.523 -4.70969 -2.15428 0
M  V30 3752 H 346.2 -2.44208 -3.38627 0
M  V30 3753 H 347.59 -6.32535 -2.26603 0
M  V30 3754 N 350.31 0.590341 -1.46126 0
M  V30 3755 C 351.242 1.71427 -1.52136 0
M  V30 3756 C 352.255 1.57542 -0.41042 0
M  V30 3757 O 353.444 1.65106 -0.678389 0
M  V30 3758 C 350.544 3.09605 -1.37834 0
M  V30 3759 C 349.717 3.49566 -2.62912 0
M  V30 3760 C 348.776 4.66773 -2.42918 0
M  V30 3761 O 347.802 4.73019 -3.1661 0
M  V30 3762 N 349.004 5.61161 -1.4859 0
M  V30 3763 H 351.769 1.66728 -2.49042 0
M  V30 3764 H 349.33 0.776113 -1.42085 0
M  V30 3765 H 351.322 3.85796 -1.22243 0
M  V30 3766 H 349.892 3.08714 -0.491393 0
M  V30 3767 H 349.112 2.63158 -2.93499 0
M  V30 3768 H 350.4 3.73028 -3.46017 0
M  V30 3769 H 349.798 5.58844 -0.87808 0
M  V30 3770 H 348.355 6.36814 -1.38965 0
M  V30 3771 N 351.788 1.33704 0.83433 0
M  V30 3772 C 353.204 1.13137 1.12571 0
M  V30 3773 C 353.404 -0.0747261 2.01361 0
M  V30 3774 O 352.46 -0.753647 2.4099 0
M  V30 3775 C 353.773 2.42105 1.78342 0
M  V30 3776 C 355.321 2.48054 1.90888 0
M  V30 3777 C 355.796 3.76995 2.60075 0
M  V30 3778 N 357.287 3.78092 2.67584 0
M  V30 3779 C 358.022 4.74574 3.21818 0
M  V30 3780 N 357.518 5.81434 3.76705 0
M  V30 3781 N 359.311 4.62044 3.20112 0
M  V30 3782 H 351.462 2.11 0.243489 0
M  V30 3783 H 353.725 0.932532 0.17055 0
M  V30 3784 H 353.431 3.30391 1.20561 0
M  V30 3785 H 353.305 2.54594 2.7832 0
M  V30 3786 H 355.692 1.60215 2.47821 0
M  V30 3787 H 355.773 2.39502 0.898459 0
M  V30 3788 H 355.417 4.65219 2.03799 0
M  V30 3789 H 355.347 3.82825 3.61597 0
M  V30 3790 H 357.838 3.00865 2.28667 0
M  V30 3791 H 358.151 6.51084 4.16305 0
M  V30 3792 H 356.496 5.85163 3.7498 0
M  V30 3793 H 359.687 3.77716 2.76493 0
M  V30 3794 H 359.86 5.37406 3.62076 0
M  V30 3795 N 353.266 -1.05314 1.17247 0
M  V30 3796 C 354.213 -2.13031 0.888058 0
M  V30 3797 C 355.183 -1.65253 -0.167537 0
M  V30 3798 O 356.368 -1.90775 -0.0305974 0
M  V30 3799 C 353.508 -3.42702 0.406147 0
M  V30 3800 C 352.621 -4.04161 1.52572 0
M  V30 3801 C 351.756 -5.21744 0.997808 0
M  V30 3802 C 350.795 -5.75207 2.09291 0
M  V30 3803 N 349.932 -6.84094 1.57986 0
M  V30 3804 H 354.772 -2.36698 1.81048 0
M  V30 3805 H 352.309 -1.16121 0.903013 0
M  V30 3806 H 354.267 -4.17059 0.108305 0
M  V30 3807 H 352.897 -3.19222 -0.479313 0
M  V30 3808 H 351.949 -3.27253 1.93931 0
M  V30 3809 H 353.261 -4.39881 2.35172 0
M  V30 3810 H 352.415 -6.03168 0.653739 0
M  V30 3811 H 351.154 -4.87495 0.141232 0
M  V30 3812 H 350.159 -4.92414 2.44557 0
M  V30 3813 H 351.384 -6.11505 2.95362 0
M  V30 3814 H 349.33 -6.51745 0.74598 0
M  V30 3815 H 349.247 -7.18811 2.34195 0
M  V30 3816 H 350.515 -7.69172 1.26468 0
M  V30 3817 N 354.744 -0.972509 -1.24016 0
M  V30 3818 C 355.674 -0.525548 -2.27509 0
M  V30 3819 C 356.655 0.437262 -1.64384 0
M  V30 3820 O 357.84 0.332343 -1.91335 0
M  V30 3821 C 354.97 0.180448 -3.46831 0
M  V30 3822 C 353.924 -0.698859 -4.22256 0
M  V30 3823 C 353.25 0.138903 -5.3452 0
M  V30 3824 C 354.55 -1.98582 -4.83076 0
M  V30 3825 H 356.244 -1.39058 -2.65148 0
M  V30 3826 H 353.79 -0.67009 -1.27459 0
M  V30 3827 H 355.743 0.504387 -4.18371 0
M  V30 3828 H 354.467 1.07987 -3.08231 0
M  V30 3829 H 353.126 -1.00614 -3.52523 0
M  V30 3830 H 352.774 1.03862 -4.9216 0
M  V30 3831 H 352.474 -0.446259 -5.85903 0
M  V30 3832 H 353.998 0.457404 -6.08884 0
M  V30 3833 H 355.412 -1.72715 -5.46665 0
M  V30 3834 H 353.809 -2.5181 -5.44713 0
M  V30 3835 H 354.879 -2.67769 -4.04262 0
M  V30 3836 N 356.222 1.38976 -0.743202 0
M  V30 3837 C 357.132 2.3434 -0.110399 0
M  V30 3838 C 358.148 1.58741 0.712559 0
M  V30 3839 O 359.324 1.9099 0.639125 0
M  V30 3840 C 356.389 3.37812 0.780012 0
M  V30 3841 C 355.45 4.29263 -0.0561319 0
M  V30 3842 C 354.683 5.27793 0.791875 0
M  V30 3843 O 354.906 5.33043 2.03031 0
M  V30 3844 O 353.84 6.01512 0.216183 0
M  V30 3845 H 357.666 2.90129 -0.897714 0
M  V30 3846 H 355.251 1.40643 -0.503966 0
M  V30 3847 H 357.133 4.01194 1.28923 0
M  V30 3848 H 355.808 2.84395 1.546 0
M  V30 3849 H 354.715 3.69076 -0.611056 0
M  V30 3850 H 356.048 4.85907 -0.784531 0
M  V30 3851 N 357.7 0.491464 1.49741 0
M  V30 3852 C 358.663 -0.280906 2.27472 0
M  V30 3853 C 359.663 -0.902454 1.33088 0
M  V30 3854 O 360.853 -0.768465 1.56334 0
M  V30 3855 C 357.985 -1.40209 3.10732 0
M  V30 3856 H 359.178 0.401056 2.97206 0
M  V30 3857 H 356.731 0.246131 1.5435 0
M  V30 3858 H 357.466 -2.11849 2.45541 0
M  V30 3859 H 357.251 -0.961969 3.80117 0
M  V30 3860 H 358.741 -1.9464 3.69466 0
M  V30 3861 N 359.178 -1.55987 0.224894 0
M  V30 3862 C 360.088 -2.24066 -0.69511 0
M  V30 3863 C 361.104 -1.24939 -1.21104 0
M  V30 3864 O 362.28 -1.5776 -1.25195 0
M  V30 3865 C 359.345 -2.90983 -1.88493 0
M  V30 3866 C 358.406 -4.05462 -1.41064 0
M  V30 3867 C 357.639 -4.69179 -2.54375 0
M  V30 3868 O 357.862 -4.31895 -3.72589 0
M  V30 3869 O 356.796 -5.58108 -2.25386 0
M  V30 3870 H 360.622 -3.03353 -0.145149 0
M  V30 3871 H 358.207 -1.49399 -0.00569476 0
M  V30 3872 H 360.089 -3.33209 -2.57972 0
M  V30 3873 H 358.764 -2.14653 -2.42293 0
M  V30 3874 H 357.671 -3.67798 -0.683774 0
M  V30 3875 H 359.004 -4.83545 -0.918985 0
M  V30 3876 N 360.656 0.0484629 -1.57525 0
M  V30 3877 C 361.586 1.0549 -2.08313 0
M  V30 3878 C 362.567 1.38929 -0.981463 0
M  V30 3879 O 363.752 1.48151 -1.25558 0
M  V30 3880 C 360.882 2.36162 -2.54646 0
M  V30 3881 C 359.836 2.17016 -3.68901 0
M  V30 3882 C 359.162 3.53278 -4.01371 0
M  V30 3883 C 360.462 1.57219 -4.98076 0
M  V30 3884 H 362.156 0.632195 -2.92649 0
M  V30 3885 H 359.702 0.302654 -1.40784 0
M  V30 3886 H 361.655 3.06882 -2.88793 0
M  V30 3887 H 360.379 2.80456 -1.67368 0
M  V30 3888 H 359.038 1.48733 -3.35073 0
M  V30 3889 H 358.686 3.95185 -3.11188 0
M  V30 3890 H 358.386 3.41299 -4.78318 0
M  V30 3891 H 359.91 4.25391 -4.38035 0
M  V30 3892 H 361.324 2.17832 -5.30304 0
M  V30 3893 H 359.721 1.55871 -5.79503 0
M  V30 3894 H 360.791 0.535956 -4.81929 0
M  V30 3895 N 362.134 1.5431 0.320358 0
M  V30 3896 C 363.064 1.86912 1.3995 0
M  V30 3897 C 364.045 0.726211 1.53819 0
M  V30 3898 O 365.23 0.980233 1.67646 0
M  V30 3899 C 362.36 2.09932 2.7667 0
M  V30 3900 C 361.314 3.25776 2.77586 0
M  V30 3901 C 360.64 3.34173 4.17412 0
M  V30 3902 C 361.94 4.6335 2.41048 0
M  V30 3903 H 363.634 2.77292 1.12914 0
M  V30 3904 H 361.18 1.33421 0.541738 0
M  V30 3905 H 363.133 2.31324 3.52232 0
M  V30 3906 H 361.857 1.16304 3.0519 0
M  V30 3907 H 360.516 3.04276 2.04479 0
M  V30 3908 H 360.164 2.38098 4.43078 0
M  V30 3909 H 359.864 4.12033 4.18931 0
M  V30 3910 H 361.388 3.57803 4.94782 0
M  V30 3911 H 362.802 4.84602 3.06324 0
M  V30 3912 H 361.199 5.43782 2.53813 0
M  V30 3913 H 362.269 4.65381 1.36193 0
M  V30 3914 N 363.613 -0.582584 1.46437 0
M  V30 3915 C 364.545 -1.70618 1.53043 0
M  V30 3916 C 365.558 -1.57322 0.418769 0
M  V30 3917 O 366.747 -1.64744 0.687136 0
M  V30 3918 C 363.847 -3.08869 1.39474 0
M  V30 3919 C 363.02 -3.48166 2.64762 0
M  V30 3920 C 362.079 -4.65478 2.4539 0
M  V30 3921 O 361.105 -4.71333 3.19114 0
M  V30 3922 N 362.307 -5.60365 1.51564 0
M  V30 3923 H 365.072 -1.65405 2.49923 0
M  V30 3924 H 362.633 -0.768567 1.42494 0
M  V30 3925 H 364.625 -3.85143 1.24287 0
M  V30 3926 H 363.195 -3.08449 0.507758 0
M  V30 3927 H 362.415 -2.61598 2.9489 0
M  V30 3928 H 363.703 -3.71188 3.4799 0
M  V30 3929 H 363.101 -5.5837 0.907705 0
M  V30 3930 H 361.658 -6.36068 1.4234 0
M  V30 3931 N 365.091 -1.34144 -0.827227 0
M  V30 3932 C 366.34 -1.25602 -1.5782 0
M  V30 3933 C 366.653 0.173445 -1.94829 0
M  V30 3934 O 367.859 0.380984 -2.68814 0
M  V30 3935 C 366.315 -2.20151 -2.84713 0
M  V30 3936 C 365.923 -3.68331 -2.55021 0
M  V30 3937 C 367.667 -2.20508 -3.62735 0
M  V30 3938 C 365.574 -4.54762 -3.78082 0
M  V30 3939 H 364.504 -0.466573 -0.592306 0
M  V30 3940 H 367.155 -1.59283 -0.911116 0
M  V30 3941 H 365.537 -1.79417 -3.53023 0
M  V30 3942 H 366.711 -4.17577 -1.94849 0
M  V30 3943 H 365.026 -3.7038 -1.90283 0
M  V30 3944 H 367.623 -2.82306 -4.54101 0
M  V30 3945 H 367.966 -1.20322 -3.98533 0
M  V30 3946 H 368.499 -2.59664 -3.01362 0
M  V30 3947 H 365.238 -5.55867 -3.47407 0
M  V30 3948 H 364.758 -4.10254 -4.37552 0
M  V30 3949 H 366.437 -4.69153 -4.45538 0
M  V30 3950 N 366.569 1.04691 -1.17803 0
M  V30 3951 C 367.479 2.16057 -0.914151 0
M  V30 3952 C 368.495 1.73589 0.119503 0
M  V30 3953 O 369.671 2.01308 -0.0609468 0
M  V30 3954 C 366.736 3.4394 -0.436603 0
M  V30 3955 C 365.797 4.00825 -1.53746 0
M  V30 3956 C 365.03 5.22604 -1.0826 0
M  V30 3957 O 365.253 5.70367 0.0612244 0
M  V30 3958 O 364.187 5.7186 -1.87775 0
M  V30 3959 H 368.013 2.41169 -1.84584 0
M  V30 3960 H 365.598 1.1453 -0.959334 0
M  V30 3961 H 367.48 4.21024 -0.178057 0
M  V30 3962 H 366.155 3.20316 0.466869 0
M  V30 3963 H 365.062 3.25158 -1.84995 0
M  V30 3964 H 366.395 4.28778 -2.41683 0
M  V30 3965 N 368.047 0.979072 1.23499 0
M  V30 3966 C 368.957 0.526431 2.28617 0
M  V30 3967 C 369.973 -0.418126 1.68901 0
M  V30 3968 O 371.149 -0.288372 1.99325 0
M  V30 3969 C 368.214 -0.165235 3.46306 0
M  V30 3970 C 367.275 0.82056 4.21385 0
M  V30 3971 C 366.508 0.161807 5.33455 0
M  V30 3972 O 366.731 -1.04742 5.60701 0
M  V30 3973 O 365.665 0.859708 5.95729 0
M  V30 3974 H 369.491 1.4006 2.69475 0
M  V30 3975 H 367.076 0.746643 1.29405 0
M  V30 3976 H 368.958 -0.553287 4.17752 0
M  V30 3977 H 367.633 -1.01419 3.07402 0
M  V30 3978 H 366.54 1.25929 3.52268 0
M  V30 3979 H 367.873 1.63828 4.64135 0
M  V30 3980 N 369.525 -1.3858 0.750561 0
M  V30 3981 C 370.941 -1.53759 0.427824 0
M  V30 3982 C 371.141 -1.71401 -1.05943 0
M  V30 3983 O 370.197 -1.72331 -1.84549 0
M  V30 3984 C 371.51 -2.74642 1.22443 0
M  V30 3985 C 373.058 -2.88489 1.2142 0
M  V30 3986 C 373.533 -4.12329 1.9937 0
M  V30 3987 N 375.024 -4.194 1.96616 0
M  V30 3988 C 375.759 -5.14209 2.53727 0
M  V30 3989 N 375.255 -6.14709 3.19539 0
M  V30 3990 N 377.048 -5.06537 2.43673 0
M  V30 3991 H 369.199 -1.25377 1.71447 0
M  V30 3992 H 371.462 -0.608844 0.726645 0
M  V30 3993 H 371.168 -2.68 2.27747 0
M  V30 3994 H 371.042 -3.67745 0.839273 0
M  V30 3995 H 373.429 -2.94614 0.169232 0
M  V30 3996 H 373.51 -1.96406 1.63885 0
M  V30 3997 H 373.154 -4.06966 3.03877 0
M  V30 3998 H 373.084 -5.03486 1.54302 0
M  V30 3999 H 375.575 -3.47421 1.48684 0
M  V30 4000 H 375.888 -6.8354 3.60545 0
M  V30 4001 H 374.233 -6.1505 3.23633 0
M  V30 4002 H 377.424 -4.26962 1.91889 0
M  V30 4003 H 377.597 -5.80245 2.88479 0
M  V30 4004 N 371.003 -0.499398 -1.49478 0
M  V30 4005 C 371.953 0.299103 -2.2603 0
M  V30 4006 C 372.937 0.936934 -1.30807 0
M  V30 4007 O 374.129 0.844798 -1.55538 0
M  V30 4008 C 371.258 1.36391 -3.15044 0
M  V30 4009 C 370.344 0.732398 -4.17728 0
M  V30 4010 N 370.735 -0.164028 -5.05534 0
M  V30 4011 C 369.033 0.993162 -4.34801 0
M  V30 4012 C 369.734 -0.525345 -5.79323 0
M  V30 4013 N 368.71 0.106348 -5.43496 0
M  V30 4014 H 372.512 -0.391003 -2.91287 0
M  V30 4015 H 370.026 -0.31537 -1.59308 0
M  V30 4016 H 372.023 1.94939 -3.68516 0
M  V30 4017 H 370.683 2.05571 -2.51338 0
M  V30 4018 H 371.694 -0.534736 -5.15132 0
M  V30 4019 H 368.371 1.67783 -3.82302 0
M  V30 4020 H 369.761 -1.25862 -6.60006 0
M  V30 4021 N 372.481 1.55866 -0.233164 0
M  V30 4022 C 373.413 2.18099 0.704668 0
M  V30 4023 C 374.426 1.15334 1.14899 0
M  V30 4024 O 375.615 1.42262 1.07814 0
M  V30 4025 C 372.715 2.7592 1.96777 0
M  V30 4026 C 371.888 4.03969 1.67713 0
M  V30 4027 C 370.947 4.46242 2.78845 0
M  V30 4028 O 369.973 5.12903 2.46818 0
M  V30 4029 N 371.175 4.12886 4.08051 0
M  V30 4030 H 373.94 2.99205 0.172258 0
M  V30 4031 H 371.501 1.61815 -0.0525945 0
M  V30 4032 H 373.493 3.01165 2.70337 0
M  V30 4033 H 372.063 1.99051 2.41034 0
M  V30 4034 H 371.283 3.86459 0.777391 0
M  V30 4035 H 372.571 4.8748 1.4574 0
M  V30 4036 H 371.969 3.59342 4.3691 0
M  V30 4037 H 370.526 4.42997 4.78118 0
M  V30 4038 N 373.959 -0.0401083 1.57549 0
M  V30 4039 C 374.869 -1.06133 2.0922 0
M  V30 4040 C 375.885 -1.40356 1.0284 0
M  V30 4041 O 377.061 -1.49897 1.34509 0
M  V30 4042 C 374.126 -2.34658 2.55218 0
M  V30 4043 C 373.187 -2.07117 3.76033 0
M  V30 4044 C 372.42 -3.29514 4.19829 0
M  V30 4045 O 372.643 -4.39794 3.63232 0
M  V30 4046 O 371.577 -3.15863 5.12362 0
M  V30 4047 H 375.403 -0.652244 2.96613 0
M  V30 4048 H 372.988 -0.256368 1.47184 0
M  V30 4049 H 374.87 -3.10239 2.85184 0
M  V30 4050 H 373.545 -2.74883 1.70941 0
M  V30 4051 H 372.452 -1.29139 3.51104 0
M  V30 4052 H 373.785 -1.71754 4.61261 0
M  V30 4053 N 375.437 -1.54477 -0.31217 0
M  V30 4054 C 376.384 -1.84655 -1.38461 0
M  V30 4055 C 377.354 -0.694536 -1.50882 0
M  V30 4056 O 378.539 -0.942081 -1.6592 0
M  V30 4057 C 375.679 -2.0896 -2.74645 0
M  V30 4058 C 374.792 -3.36618 -2.70763 0
M  V30 4059 C 373.927 -3.50824 -3.98868 0
M  V30 4060 C 372.966 -4.72315 -3.89339 0
M  V30 4061 N 372.103 -4.83387 -5.09197 0
M  V30 4062 H 376.943 -2.76142 -1.12026 0
M  V30 4063 H 374.48 -1.36748 -0.542065 0
M  V30 4064 H 376.438 -2.21045 -3.53829 0
M  V30 4065 H 375.068 -1.20752 -2.99364 0
M  V30 4066 H 374.12 -3.33211 -1.83506 0
M  V30 4067 H 375.432 -4.25917 -2.59608 0
M  V30 4068 H 374.586 -3.62513 -4.86486 0
M  V30 4069 H 373.325 -2.59638 -4.12843 0
M  V30 4070 H 372.33 -4.6067 -3.00105 0
M  V30 4071 H 373.555 -5.64897 -3.76919 0
M  V30 4072 H 371.501 -3.9512 -5.23657 0
M  V30 4073 H 371.418 -5.66669 -5.00422 0
M  V30 4074 H 372.686 -4.9942 -5.98498 0
M  V30 4075 N 376.915 0.57481 -1.46744 0
M  V30 4076 C 377.862 1.68329 -1.57905 0
M  V30 4077 C 378.832 1.60625 -0.422927 0
M  V30 4078 O 380.017 1.79721 -0.640711 0
M  V30 4079 C 377.157 3.06665 -1.58274 0
M  V30 4080 C 376.27 3.24935 -2.84678 0
M  V30 4081 C 375.405 4.53566 -2.76499 0
M  V30 4082 C 374.444 4.65207 -3.97806 0
M  V30 4083 N 373.581 5.85172 -3.87967 0
M  V30 4084 H 378.421 1.58127 -2.52587 0
M  V30 4085 H 375.958 0.770552 -1.25303 0
M  V30 4086 H 377.916 3.86745 -1.56473 0
M  V30 4087 H 376.546 3.15745 -0.671194 0
M  V30 4088 H 375.598 2.38405 -2.96424 0
M  V30 4089 H 376.91 3.29403 -3.7456 0
M  V30 4090 H 376.064 5.41885 -2.72848 0
M  V30 4091 H 374.803 4.51548 -1.8427 0
M  V30 4092 H 373.808 3.75304 -4.0178 0
M  V30 4093 H 375.033 4.68997 -4.9114 0
M  V30 4094 H 372.979 5.84137 -2.98529 0
M  V30 4095 H 372.896 5.90943 -4.71511 0
M  V30 4096 H 374.164 6.759 -3.88303 0
M  V30 4097 N 378.394 1.34581 0.820102 0
M  V30 4098 C 379.81 1.14325 1.11364 0
M  V30 4099 C 380.01 -0.0533648 2.01429 0
M  V30 4100 O 379.066 -0.728044 2.41776 0
M  V30 4101 C 380.379 2.43983 1.75764 0
M  V30 4102 C 381.927 2.50065 1.88246 0
M  V30 4103 C 382.402 3.79732 2.56061 0
M  V30 4104 N 383.893 3.80908 2.63558 0
M  V30 4105 C 384.628 4.77961 3.16766 0
M  V30 4106 N 384.124 5.85397 3.70517 0
M  V30 4107 N 385.917 4.65413 3.15194 0
M  V30 4108 H 378.068 2.11246 0.221096 0
M  V30 4109 H 380.331 0.934289 0.160649 0
M  V30 4110 H 380.037 3.31651 1.1705 0
M  V30 4111 H 379.911 2.57531 2.75604 0
M  V30 4112 H 382.298 1.62834 2.46108 0
M  V30 4113 H 382.379 2.40442 0.873006 0
M  V30 4114 H 382.023 4.67354 1.98853 0
M  V30 4115 H 381.953 3.86639 3.57516 0
M  V30 4116 H 384.444 3.03274 2.25463 0
M  V30 4117 H 384.757 6.55463 4.09376 0
M  V30 4118 H 383.102 5.89107 3.68752 0
M  V30 4119 H 386.293 3.80627 2.72471 0
M  V30 4120 H 386.466 5.41216 3.56356 0
M  V30 4121 N 379.872 -1.04064 1.18357 0
M  V30 4122 C 380.819 -2.12077 0.910603 0
M  V30 4123 C 381.789 -1.65421 -0.15 0
M  V30 4124 O 382.974 -1.90797 -0.0103614 0
M  V30 4125 C 380.114 -3.42252 0.442472 0
M  V30 4126 C 379.227 -4.0252 1.5685 0
M  V30 4127 C 378.362 -5.20657 1.05309 0
M  V30 4128 C 377.401 -5.72955 2.1538 0
M  V30 4129 N 376.538 -6.8238 1.65233 0
M  V30 4130 H 381.378 -2.34764 1.83548 0
M  V30 4131 H 378.915 -1.15157 0.915279 0
M  V30 4132 H 380.873 -4.16921 0.152534 0
M  V30 4133 H 379.503 -3.19712 -0.445428 0
M  V30 4134 H 378.555 -3.25178 1.97391 0
M  V30 4135 H 379.867 -4.37362 2.39824 0
M  V30 4136 H 379.021 -6.0244 0.717677 0
M  V30 4137 H 377.76 -4.87318 0.19293 0
M  V30 4138 H 376.765 -4.89793 2.49766 0
M  V30 4139 H 377.99 -6.08337 3.01832 0
M  V30 4140 H 375.936 -6.50917 0.815064 0
M  V30 4141 H 375.853 -7.16286 2.41805 0
M  V30 4142 H 377.121 -7.67788 1.34619 0
M  V30 4143 N 381.35 -0.985608 -1.22978 0
M  V30 4144 C 382.597 -0.657386 -1.91532 0
M  V30 4145 C 382.925 0.809707 -1.76845 0
M  V30 4146 O 382.18 1.60021 -1.12658 0
M  V30 4147 C 382.479 -1.00014 -3.43121 0
M  V30 4148 C 382.145 -2.4583 -3.77993 0
M  V30 4149 C 380.807 -2.85679 -3.87222 0
M  V30 4150 C 383.159 -3.40378 -3.94705 0
M  V30 4151 C 380.487 -4.19081 -4.10595 0
M  V30 4152 C 382.839 -4.73429 -4.1958 0
M  V30 4153 C 381.503 -5.1303 -4.27032 0
M  V30 4154 H 380.773 -0.240555 -0.700867 0
M  V30 4155 H 383.42 -1.24044 -1.45895 0
M  V30 4156 H 381.725 -0.335072 -3.90365 0
M  V30 4157 H 383.422 -0.724322 -3.94404 0
M  V30 4158 H 380.012 -2.13939 -3.71387 0
M  V30 4159 H 384.196 -3.10766 -3.8696 0
M  V30 4160 H 379.452 -4.49362 -4.14589 0
M  V30 4161 H 383.626 -5.46644 -4.31455 0
M  V30 4162 H 381.253 -6.16418 -4.44896 0
M  V30 4163 N 382.828 1.3818 -0.7579 0
M  V30 4164 C 383.758 2.33027 -0.148597 0
M  V30 4165 C 384.739 1.55085 0.69875 0
M  V30 4166 O 385.924 1.83384 0.639053 0
M  V30 4167 C 383.054 3.3928 0.742034 0
M  V30 4168 C 382.008 4.28 -0.00291946 0
M  V30 4169 C 381.334 5.25146 1.00625 0
M  V30 4170 C 382.634 5.08938 -1.17385 0
M  V30 4171 H 384.328 2.84231 -0.940909 0
M  V30 4172 H 381.874 1.36659 -0.453908 0
M  V30 4173 H 383.827 4.046 1.17799 0
M  V30 4174 H 382.551 2.86569 1.56671 0
M  V30 4175 H 381.21 3.64192 -0.419504 0
M  V30 4176 H 380.858 4.68721 1.8251 0
M  V30 4177 H 380.558 5.85361 0.512428 0
M  V30 4178 H 382.082 5.93342 1.44143 0
M  V30 4179 H 383.496 5.67474 -0.815224 0
M  V30 4180 H 381.893 5.7841 -1.59882 0
M  V30 4181 H 382.963 4.42424 -1.98468 0
M  V30 4182 N 384.306 0.507319 1.49211 0
M  V30 4183 C 385.216 -0.272136 2.33016 0
M  V30 4184 C 386.232 -0.961206 1.45041 0
M  V30 4185 O 387.408 -0.941191 1.78055 0
M  V30 4186 C 384.473 -1.31895 3.20631 0
M  V30 4187 C 383.534 -0.642648 4.24463 0
M  V30 4188 C 382.767 -1.63959 5.07891 0
M  V30 4189 O 382.99 -2.87007 4.92933 0
M  V30 4190 O 381.924 -1.19143 5.8999 0
M  V30 4191 H 385.75 0.413982 3.00865 0
M  V30 4192 H 383.335 0.268556 1.46966 0
M  V30 4193 H 385.217 -1.92446 3.7489 0
M  V30 4194 H 383.892 -1.98788 2.5547 0
M  V30 4195 H 382.799 0.00276252 3.741 0
M  V30 4196 H 384.132 -0.0160534 4.92197 0
M  V30 4197 N 385.784 -1.5574 0.241426 0
M  V30 4198 C 387.009 -2.0366 -0.392111 0
M  V30 4199 C 387.434 -1.11969 -1.51144 0
M  V30 4200 O 386.792 -0.111594 -1.80956 0
M  V30 4201 C 386.84 -3.49638 -0.882371 0
M  V30 4202 O 385.944 -3.6108 -1.99235 0
M  V30 4203 H 385.285 -0.658379 -0.0862122 0
M  V30 4204 H 387.815 -2.01302 0.365881 0
M  V30 4205 H 387.825 -3.90351 -1.18702 0
M  V30 4206 H 386.5 -4.15852 -0.0632361 0
M  V30 4207 H 385.077 -3.32262 -1.69282 0
M  V30 4208 N 387.262 0.0317525 -1.57568 0
M  V30 4209 C 388.49 0.734949 -1.93407 0
M  V30 4210 C 388.905 1.69036 -0.84096 0
M  V30 4211 O 388.262 1.81582 0.182836 0
M  V30 4212 C 388.313 1.49432 -3.29169 0
M  V30 4213 O 388.034 0.577261 -4.3428 0
M  V30 4214 C 389.535 2.29492 -3.79273 0
M  V30 4215 H 386.755 0.206706 -0.638368 0
M  V30 4216 H 389.299 -0.00992046 -2.04498 0
M  V30 4217 H 387.454 2.1911 -3.19483 0
M  V30 4218 H 387.868 1.10952 -5.1263 0
M  V30 4219 H 389.342 2.78172 -4.76785 0
M  V30 4220 H 389.819 3.10794 -3.10328 0
M  V30 4221 H 390.425 1.64894 -3.92033 0
M  V30 4222 N 388.74 1.54641 0.303973 0
M  V30 4223 C 390.017 1.64455 1.05896 0
M  V30 4224 C 390.397 0.490923 2.05312 0
M  V30 4225 O 389.745 -0.512685 2.22674 0
M  V30 4226 C 389.955 3.02331 1.74347 0
M  V30 4227 C 391.303 3.59045 2.26653 0
M  V30 4228 O 392.327 3.04764 1.84384 0
M  V30 4229 O 391.186 4.54081 3.04093 0
M  V30 4230 H 388.28 0.666729 0.489287 0
M  V30 4231 H 390.826 1.66986 0.302298 0
M  V30 4232 H 389.598 3.77734 1.02142 0
M  V30 4233 H 389.221 3.03565 2.56777 0
M  V30 4234 N 390.218 -0.567019 1.47046 0
M  V30 4235 C 391.443 -1.3551 1.57009 0
M  V30 4236 C 391.868 -1.86841 0.217259 0
M  V30 4237 O 391.226 -1.62435 -0.805268 0
M  V30 4238 C 391.274 -2.50777 2.5912 0
M  V30 4239 O 390.378 -3.52706 2.13711 0
M  V30 4240 H 389.719 -0.402919 0.52778 0
M  V30 4241 H 392.249 -0.686241 1.92748 0
M  V30 4242 H 392.259 -2.97481 2.79229 0
M  V30 4243 H 390.934 -2.12771 3.57353 0
M  V30 4244 H 389.511 -3.12374 2.03659 0
M  V30 4245 N 391.696 -1.35014 -0.812953 0
M  V30 4246 C 392.943 -1.27931 -1.56971 0
M  V30 4247 C 393.271 0.148034 -1.93936 0
M  V30 4248 O 392.526 1.11175 -1.61054 0
M  V30 4249 C 392.825 -2.12524 -2.87347 0
M  V30 4250 C 392.491 -3.61401 -2.6963 0
M  V30 4251 C 391.153 -4.01983 -2.64506 0
M  V30 4252 C 393.505 -4.55894 -2.52607 0
M  V30 4253 C 390.833 -5.35235 -2.40293 0
M  V30 4254 C 393.185 -5.89336 -2.29925 0
M  V30 4255 C 391.849 -6.2907 -2.23219 0
M  V30 4256 H 391.119 -0.468131 -0.574399 0
M  V30 4257 H 393.766 -1.66851 -0.939836 0
M  V30 4258 H 392.071 -1.66463 -3.54679 0
M  V30 4259 H 393.768 -2.04383 -3.45005 0
M  V30 4260 H 390.358 -3.29193 -2.74463 0
M  V30 4261 H 394.542 -4.25431 -2.55583 0
M  V30 4262 H 389.798 -5.65028 -2.33566 0
M  V30 4263 H 393.972 -6.62139 -2.15743 0
M  V30 4264 H 391.599 -7.32256 -2.04219 0
M  V30 4265 N 393.175 1.03435 -1.18907 0
M  V30 4266 C 394.123 2.13703 -0.918353 0
M  V30 4267 C 395.117 1.68947 0.123767 0
M  V30 4268 O 396.323 1.79983 -0.0249701 0
M  V30 4269 H 392.698 0.698112 -0.279542 0
M  V30 4270 H 394.669 2.33731 -1.85506 0
M  V30 4271 C 393.418 3.44542 -0.467532 0
M  V30 4272 H 392.741 3.79394 -1.26095 0
M  V30 4273 H 394.181 4.22812 -0.317164 0
M  V30 4274 C 392.64 3.26829 0.817588 0
M  V30 4275 O 393.17 3.54975 1.88031 0
M  V30 4276 N 391.376 2.80139 0.772677 0
M  V30 4277 H 390.923 2.57434 -0.0923883 0
M  V30 4278 H 390.881 2.68668 1.63294 0
M  V30 4279 N 394.653 0.992116 1.22453 0
M  V30 4280 C 395.601 0.534644 2.26372 0
M  V30 4281 C 396.595 -0.414293 1.64256 0
M  V30 4282 O 397.801 -0.286899 1.77699 0
M  V30 4283 H 394.176 0.154502 0.735957 0
M  V30 4284 H 396.147 1.42256 2.62309 0
M  V30 4285 C 394.896 -0.135815 3.47435 0
M  V30 4286 H 394.219 0.585311 3.95492 0
M  V30 4287 H 395.659 -0.419374 4.21921 0
M  V30 4288 C 394.118 -1.37089 3.07747 0
M  V30 4289 O 394.648 -2.46629 3.17076 0
M  V30 4290 N 392.854 -1.24585 2.62539 0
M  V30 4291 H 392.401 -0.354542 2.55149 0
M  V30 4292 H 392.359 -2.07327 2.36353 0
M  V30 4293 N 396.131 -1.37776 0.765217 0
M  V30 4294 C 397.041 -2.34135 0.147666 0
M  V30 4295 C 398.057 -1.59854 -0.687215 0
M  V30 4296 O 399.233 -1.91983 -0.608659 0
M  V30 4297 C 396.298 -3.3901 -0.72617 0
M  V30 4298 C 395.359 -4.2912 0.124417 0
M  V30 4299 C 394.592 -5.28986 -0.707807 0
M  V30 4300 O 394.815 -5.36205 -1.94525 0
M  V30 4301 O 393.749 -6.01779 -0.12046 0
M  V30 4302 H 397.575 -2.88664 0.943758 0
M  V30 4303 H 395.16 -1.39824 0.526277 0
M  V30 4304 H 397.042 -4.03195 -1.22524 0
M  V30 4305 H 395.717 -2.86819 -1.50056 0
M  V30 4306 H 394.624 -3.68057 0.669696 0
M  V30 4307 H 395.957 -4.84598 0.861736 0
M  V30 4308 N 397.609 -0.515225 -1.4894 0
M  V30 4309 C 398.539 0.244628 -2.32215 0
M  V30 4310 C 399.52 0.949136 -1.41157 0
M  V30 4311 O 400.705 0.937783 -1.70057 0
M  V30 4312 C 397.835 1.30096 -3.22013 0
M  V30 4313 C 396.789 0.715486 -4.21977 0
M  V30 4314 C 396.115 1.87339 -5.00808 0
M  V30 4315 C 397.415 -0.302982 -5.2142 0
M  V30 4316 H 399.109 -0.450501 -2.95991 0
M  V30 4317 H 396.655 -0.218098 -1.42339 0
M  V30 4318 H 398.608 1.84037 -3.79089 0
M  V30 4319 H 397.332 2.02547 -2.56207 0
M  V30 4320 H 395.991 0.197715 -3.66066 0
M  V30 4321 H 395.639 2.58592 -4.31438 0
M  V30 4322 H 395.339 1.48764 -5.68457 0
M  V30 4323 H 396.863 2.41686 -5.60732 0
M  V30 4324 H 398.277 0.148802 -5.73107 0
M  V30 4325 H 396.674 -0.60532 -5.97039 0
M  V30 4326 H 397.744 -1.21395 -4.69459 0
M  V30 4327 N 399.087 1.5561 -0.249682 0
M  V30 4328 C 400.034 2.21496 0.648694 0
M  V30 4329 C 401.004 1.17977 1.16921 0
M  V30 4330 O 402.189 1.46434 1.22318 0
M  V30 4331 C 399.329 2.92039 1.83868 0
M  V30 4332 C 398.442 4.10219 1.35442 0
M  V30 4333 C 397.577 4.6847 2.50419 0
M  V30 4334 C 396.616 5.78893 1.98869 0
M  V30 4335 N 395.753 6.31315 3.07223 0
M  V30 4336 H 400.593 2.97892 0.0801582 0
M  V30 4337 H 398.13 1.47074 0.0278031 0
M  V30 4338 H 400.088 3.31138 2.53778 0
M  V30 4339 H 398.718 2.18111 2.37965 0
M  V30 4340 H 397.77 3.76413 0.54928 0
M  V30 4341 H 399.082 4.89927 0.936649 0
M  V30 4342 H 398.236 5.10158 3.28366 0
M  V30 4343 H 396.975 3.87984 2.95499 0
M  V30 4344 H 395.98 5.3668 1.19393 0
M  V30 4345 H 397.205 6.61232 1.54755 0
M  V30 4346 H 395.151 5.53733 3.51732 0
M  V30 4347 H 395.068 7.06224 2.69784 0
M  V30 4348 H 396.336 6.77662 3.8522 0
M  V30 4349 N 400.565 -0.0233959 1.57583 0
M  V30 4350 C 401.981 -0.379134 1.55031 0
M  V30 4351 C 402.181 -1.76255 0.976548 0
M  V30 4352 O 401.237 -2.45266 0.600078 0
M  V30 4353 C 402.55 -0.275792 2.99433 0
M  V30 4354 C 404.098 -0.352458 3.11009 0
M  V30 4355 C 404.573 -0.278501 4.57152 0
M  V30 4356 N 406.064 -0.337123 4.61972 0
M  V30 4357 C 406.799 -0.302876 5.726 0
M  V30 4358 N 406.295 -0.220589 6.92449 0
M  V30 4359 N 408.088 -0.353023 5.6099 0
M  V30 4360 H 400.239 0.881869 1.93227 0
M  V30 4361 H 402.502 0.335867 0.886509 0
M  V30 4362 H 402.208 0.675108 3.4516 0
M  V30 4363 H 402.082 -1.06721 3.61788 0
M  V30 4364 H 404.469 -1.29379 2.65226 0
M  V30 4365 H 404.55 0.468409 2.51475 0
M  V30 4366 H 404.194 0.659189 5.03604 0
M  V30 4367 H 404.124 -1.11755 5.14605 0
M  V30 4368 H 406.615 -0.403002 3.75745 0
M  V30 4369 H 406.928 -0.199713 7.72542 0
M  V30 4370 H 405.273 -0.186555 6.9475 0
M  V30 4371 H 408.464 -0.415339 4.66254 0
M  V30 4372 H 408.637 -0.322866 6.47195 0
M  V30 4373 N 402.043 -1.548 -0.295768 0
M  V30 4374 C 402.973 -1.89115 -1.36959 0
M  V30 4375 C 403.954 -0.75059 -1.52644 0
M  V30 4376 O 405.139 -1.00678 -1.66065 0
M  V30 4377 C 402.269 -2.14307 -2.73295 0
M  V30 4378 C 401.223 -3.30151 -2.72368 0
M  V30 4379 C 400.549 -3.40772 -4.12042 0
M  V30 4380 C 401.849 -4.67126 -2.33646 0
M  V30 4381 H 403.543 -2.79053 -1.08488 0
M  V30 4382 H 401.089 -1.34266 -0.520443 0
M  V30 4383 H 403.042 -2.36898 -3.48507 0
M  V30 4384 H 401.766 -1.21145 -3.03301 0
M  V30 4385 H 400.425 -3.0749 -1.99613 0
M  V30 4386 H 400.073 -2.45117 -4.39234 0
M  V30 4387 H 399.773 -4.18645 -4.12322 0
M  V30 4388 H 401.297 -3.6563 -4.89027 0
M  V30 4389 H 402.711 -4.89414 -2.98575 0
M  V30 4390 H 401.108 -5.47751 -2.45129 0
M  V30 4391 H 402.178 -4.67489 -1.28772 0
M  V30 4392 N 403.521 0.559213 -1.47345 0
M  V30 4393 C 404.761 1.32728 -1.55444 0
M  V30 4394 C 405.125 1.90838 -0.210895 0
M  V30 4395 O 406.326 2.68282 -0.166719 0
M  V30 4396 C 404.597 2.4092 -2.63993 0
M  V30 4397 S 406.156 3.2784 -2.91661 0
M  V30 4398 H 402.974 0.451883 -0.548929 0
M  V30 4399 H 405.576 0.640404 -1.84714 0
M  V30 4400 H 404.28 1.9666 -3.60212 0
M  V30 4401 H 403.811 3.14351 -2.36531 0
M  V30 4402 H 405.826 4.40341 -2.28722 0
M  V30 4403 N 404.999 1.35443 0.805782 0
M  V30 4404 C 406.247 1.28507 1.55982 0
M  V30 4405 C 406.568 -0.140046 1.94496 0
M  V30 4406 O 405.838 -1.07666 1.63661 0
M  V30 4407 H 404.418 0.472676 0.578434 0
M  V30 4408 H 407.08 1.69555 0.961098 0
M  V30 4409 H 406.176 1.90148 2.47488 0
M  V30 4410 N 406.477 -1.02803 1.19454 0
M  V30 4411 C 407.407 -2.12999 0.956758 0
M  V30 4412 C 408.388 -1.69743 -0.110188 0
M  V30 4413 O 409.573 -1.94148 0.0450038 0
M  V30 4414 C 406.703 -3.43746 0.495553 0
M  V30 4415 C 405.657 -4.00688 1.50443 0
M  V30 4416 C 404.983 -5.27067 0.900275 0
M  V30 4417 C 406.283 -4.35397 2.8849 0
M  V30 4418 H 407.977 -2.33148 1.87836 0
M  V30 4419 H 405.523 -1.12045 0.904539 0
M  V30 4420 H 407.476 -4.2021 0.316493 0
M  V30 4421 H 406.2 -3.23321 -0.461646 0
M  V30 4422 H 404.859 -3.2632 1.67065 0
M  V30 4423 H 404.507 -5.02959 -0.064503 0
M  V30 4424 H 404.207 -5.66127 1.57397 0
M  V30 4425 H 405.731 -6.06196 0.73203 0
M  V30 4426 H 407.145 -5.02795 2.75446 0
M  V30 4427 H 405.542 -4.85541 3.52661 0
M  V30 4428 H 406.612 -3.44662 3.41081 0
M  V30 4429 N 407.956 -0.998596 -1.21925 0
M  V30 4430 C 408.903 -0.553621 -2.24062 0
M  V30 4431 C 409.873 0.416999 -1.6078 0
M  V30 4432 O 411.058 0.320482 -1.88089 0
M  V30 4433 C 408.198 0.119959 -3.44891 0
M  V30 4434 C 407.311 -0.893077 -4.22668 0
M  V30 4435 C 406.446 -0.192424 -5.30851 0
M  V30 4436 C 405.485 -1.19344 -6.00353 0
M  V30 4437 N 404.622 -0.520707 -7.00166 0
M  V30 4438 H 409.462 -1.4293 -2.61486 0
M  V30 4439 H 406.999 -0.715838 -1.28507 0
M  V30 4440 H 408.957 0.527459 -4.13852 0
M  V30 4441 H 407.587 0.959389 -3.08214 0
M  V30 4442 H 406.639 -1.41886 -3.52948 0
M  V30 4443 H 407.951 -1.65512 -4.70539 0
M  V30 4444 H 407.105 0.271515 -6.06092 0
M  V30 4445 H 405.844 0.602075 -4.83969 0
M  V30 4446 H 404.849 -1.66795 -5.23889 0
M  V30 4447 H 406.074 -1.98891 -6.49322 0
M  V30 4448 H 404.02 0.254252 -6.55507 0
M  V30 4449 H 403.937 -1.2211 -7.46073 0
M  V30 4450 H 405.205 -0.0797596 -7.79459 0
M  V30 4451 N 409.434 1.37368 -0.772513 0
M  V30 4452 C 410.68 1.99969 -0.337681 0
M  V30 4453 C 411.013 1.61184 1.08321 0
M  V30 4454 O 410.288 0.858395 1.74533 0
M  V30 4455 C 410.571 3.56858 -0.482121 0
M  V30 4456 C 410.424 4.0555 -1.94549 0
M  V30 4457 C 411.743 4.39955 0.113143 0
M  V30 4458 H 408.862 0.726464 -0.124171 0
M  V30 4459 H 411.504 1.63034 -0.975699 0
M  V30 4460 H 409.654 3.88452 0.0610361 0
M  V30 4461 H 411.326 3.84518 -2.54841 0
M  V30 4462 H 409.569 3.57715 -2.45403 0
M  V30 4463 H 410.24 5.14587 -1.9976 0
M  V30 4464 H 412.716 4.14623 -0.35031 0
M  V30 4465 H 411.592 5.48897 -0.0180514 0
M  V30 4466 H 411.853 4.25403 1.20354 0
M  V30 4467 N 410.912 0.523116 1.48665 0
M  V30 4468 C 411.822 -0.247406 2.33292 0
M  V30 4469 C 412.838 -0.945769 1.46052 0
M  V30 4470 O 414.014 -0.922253 1.79043 0
M  V30 4471 C 411.079 -1.28487 3.22012 0
M  V30 4472 C 410.14 -0.597592 4.2512 0
M  V30 4473 C 409.373 -1.58563 5.09601 0
M  V30 4474 O 409.596 -2.81763 4.95949 0
M  V30 4475 O 408.53 -1.12879 5.91221 0
M  V30 4476 H 412.356 0.445869 3.00409 0
M  V30 4477 H 409.941 0.284128 1.46673 0
M  V30 4478 H 411.823 -1.88459 3.7691 0
M  V30 4479 H 410.498 -1.96068 2.57564 0
M  V30 4480 H 409.405 0.0424407 3.74076 0
M  V30 4481 H 410.738 0.0361517 4.92187 0
M  V30 4482 N 412.39 -1.55475 0.257931 0
M  V30 4483 C 413.636 -1.99502 -0.364266 0
M  V30 4484 C 413.969 -1.146 -1.56782 0
M  V30 4485 O 413.244 -0.211968 -1.93342 0
M  V30 4486 C 413.527 -3.51917 -0.763333 0
M  V30 4487 C 413.38 -4.4758 0.446371 0
M  V30 4488 C 414.699 -4.09742 -1.60623 0
M  V30 4489 H 411.818 -0.725277 -0.130929 0
M  V30 4490 H 414.46 -1.8653 0.361446 0
M  V30 4491 H 412.61 -3.63101 -1.38166 0
M  V30 4492 H 414.282 -4.48362 1.08487 0
M  V30 4493 H 412.525 -4.19947 1.08753 0
M  V30 4494 H 413.196 -5.51862 0.123645 0
M  V30 4495 H 415.672 -4.01727 -1.08418 0
M  V30 4496 H 414.548 -5.16631 -1.85429 0
M  V30 4497 H 414.809 -3.58889 -2.58169 0
M  V30 4498 N 413.868 0.0150385 -1.57593 0
M  V30 4499 C 415.145 0.7392 -1.81094 0
M  V30 4500 C 415.525 1.92817 -0.859344 0
M  V30 4501 O 414.873 2.28301 0.095362 0
M  V30 4502 C 415.083 1.15907 -3.29191 0
M  V30 4503 C 416.431 1.56918 -3.9454 0
M  V30 4504 O 417.455 1.25328 -3.33424 0
M  V30 4505 O 416.314 2.15604 -5.02173 0
M  V30 4506 H 413.408 0.358631 -0.745193 0
M  V30 4507 H 415.954 -0.00926156 -1.69697 0
M  V30 4508 H 414.726 0.310921 -3.90063 0
M  V30 4509 H 414.349 1.96711 -3.45529 0
M  V30 4510 N 415.346 1.54954 0.287554 0
M  V30 4511 C 416.279 1.81737 1.3801 0
M  V30 4512 C 417.257 0.669412 1.48181 0
M  V30 4513 O 418.441 0.910839 1.65033 0
M  V30 4514 C 415.568 1.96606 2.75796 0
M  V30 4515 C 414.614 3.19098 2.82982 0
M  V30 4516 S 415.447 4.7683 2.43707 0
M  V30 4517 C 416.603 4.94653 3.83496 0
M  V30 4518 H 416.836 2.74122 1.15085 0
M  V30 4519 H 414.369 1.46538 0.486403 0
M  V30 4520 H 416.327 2.05858 3.55152 0
M  V30 4521 H 414.988 1.05136 2.95982 0
M  V30 4522 H 414.181 3.26344 3.84077 0
M  V30 4523 H 413.783 3.08361 2.11635 0
M  V30 4524 H 416.075 4.79502 4.78628 0
M  V30 4525 H 417.018 5.96728 3.8121 0
M  V30 4526 H 417.426 4.2272 3.74123 0
M  V30 4527 N 416.824 -0.551391 1.4764 0
M  V30 4528 C 417.734 -1.68525 1.63207 0
M  V30 4529 C 418.75 -1.6621 0.514815 0
M  V30 4530 O 419.926 -1.85551 0.783113 0
M  V30 4531 C 416.991 -3.05025 1.64805 0
M  V30 4532 C 416.052 -3.18362 2.88 0
M  V30 4533 C 415.285 -4.4835 2.89513 0
M  V30 4534 O 415.508 -5.34163 2.00065 0
M  V30 4535 O 414.442 -4.65602 3.81443 0
M  V30 4536 H 418.268 -1.58333 2.59161 0
M  V30 4537 H 415.853 -0.722063 1.30792 0
M  V30 4538 H 417.735 -3.86245 1.68502 0
M  V30 4539 H 416.41 -3.15587 0.720197 0
M  V30 4540 H 415.317 -2.36518 2.89845 0
M  V30 4541 H 416.65 -3.12707 3.80099 0
M  V30 4542 N 418.302 -1.35869 -0.798587 0
M  V30 4543 C 419.249 -1.29446 -1.91082 0
M  V30 4544 C 420.219 -0.16487 -1.6528 0
M  V30 4545 O 421.404 -0.349888 -1.87564 0
M  V30 4546 C 418.544 -1.0804 -3.27752 0
M  V30 4547 C 417.657 -2.29993 -3.65687 0
M  V30 4548 C 416.792 -2.01673 -4.91428 0
M  V30 4549 C 415.831 -3.19636 -5.22015 0
M  V30 4550 N 414.968 -2.91039 -6.38937 0
M  V30 4551 H 419.808 -2.24553 -1.95907 0
M  V30 4552 H 417.345 -1.11615 -0.958148 0
M  V30 4553 H 419.303 -0.936586 -4.06551 0
M  V30 4554 H 417.933 -0.16592 -3.22373 0
M  V30 4555 H 416.985 -2.55211 -2.82085 0
M  V30 4556 H 418.297 -3.18052 -3.84245 0
M  V30 4557 H 417.451 -1.84168 -5.78072 0
M  V30 4558 H 416.19 -1.10911 -4.74921 0
M  V30 4559 H 415.195 -3.37709 -4.33858 0
M  V30 4560 H 416.42 -4.11211 -5.40447 0
M  V30 4561 H 414.366 -2.0288 -6.2384 0
M  V30 4562 H 414.283 -3.72635 -6.57784 0
M  V30 4563 H 415.551 -2.77093 -7.28587 0
M  V30 4564 N 419.78 1.02168 -1.19998 0
M  V30 4565 C 421.029 1.75091 -1.0013 0
M  V30 4566 C 421.342 1.89923 0.467835 0
M  V30 4567 O 422.548 2.59888 0.785515 0
M  V30 4568 C 421.004 3.14892 -1.74273 0
M  V30 4569 C 420.612 3.0809 -3.25245 0
M  V30 4570 C 422.356 3.9206 -1.62755 0
M  V30 4571 C 420.263 4.42867 -3.91948 0
M  V30 4572 H 419.193 0.656394 -0.37103 0
M  V30 4573 H 421.844 1.14284 -1.43567 0
M  V30 4574 H 420.226 3.7621 -1.2362 0
M  V30 4575 H 421.4 2.5611 -3.83072 0
M  V30 4576 H 419.715 2.44416 -3.3712 0
M  V30 4577 H 422.312 4.91764 -2.09934 0
M  V30 4578 H 422.655 4.12199 -0.582894 0
M  V30 4579 H 423.188 3.37359 -2.10793 0
M  V30 4580 H 419.927 4.27931 -4.96543 0
M  V30 4581 H 419.447 4.94874 -3.3891 0
M  V30 4582 H 421.126 5.11728 -3.95909 0
M  V30 4583 N 421.258 1.00505 1.21394 0
M  V30 4584 C 422.221 0.570459 2.21987 0
M  V30 4585 C 423.221 -0.353211 1.56873 0
M  V30 4586 O 424.411 -0.14349 1.73608 0
M  V30 4587 C 421.543 -0.168555 3.40483 0
M  V30 4588 H 422.736 1.46021 2.6195 0
M  V30 4589 H 420.289 0.793565 1.34656 0
M  V30 4590 H 421.024 -1.07374 3.06009 0
M  V30 4591 H 420.809 0.494823 3.88965 0
M  V30 4592 H 422.299 -0.460362 4.15055 0
M  V30 4593 N 422.737 -1.36956 0.779787 0
M  V30 4594 C 423.7 -2.2851 0.177662 0
M  V30 4595 C 424.7 -1.48393 -0.619377 0
M  V30 4596 O 425.89 -1.68505 -0.441785 0
M  V30 4597 C 423.022 -3.32428 -0.755279 0
M  V30 4598 H 424.215 -2.83269 0.984823 0
M  V30 4599 H 421.768 -1.46358 0.548544 0
M  V30 4600 H 422.503 -2.82808 -1.58714 0
M  V30 4601 H 422.288 -3.91659 -0.185817 0
M  V30 4602 H 423.778 -4.00824 -1.17174 0
M  V30 4603 N 424.215 -0.530993 -1.48385 0
M  V30 4604 C 425.125 0.23503 -2.3342 0
M  V30 4605 C 426.141 0.93801 -1.46552 0
M  V30 4606 O 427.317 0.912745 -1.7953 0
M  V30 4607 C 424.382 1.26778 -3.22689 0
M  V30 4608 C 423.443 0.575038 -4.25431 0
M  V30 4609 C 422.676 1.55858 -5.10435 0
M  V30 4610 O 422.899 2.79129 -4.97437 0
M  V30 4611 O 421.833 1.09742 -5.91811 0
M  V30 4612 H 425.659 -0.461794 -3.00169 0
M  V30 4613 H 423.244 -0.291903 -1.46521 0
M  V30 4614 H 425.126 1.86457 -3.77904 0
M  V30 4615 H 423.801 1.94699 -2.586 0
M  V30 4616 H 422.708 -0.0622782 -3.74048 0
M  V30 4617 H 424.041 -0.062253 -4.92161 0
M  V30 4618 N 425.693 1.55336 -0.266172 0
M  V30 4619 C 426.942 1.98574 0.353749 0
M  V30 4620 C 427.255 1.15789 1.57646 0
M  V30 4621 O 428.461 1.49129 2.26876 0
M  V30 4622 C 426.917 3.53403 0.680747 0
M  V30 4623 C 426.525 4.44953 -0.52165 0
M  V30 4624 C 428.269 4.05251 1.26379 0
M  V30 4625 C 426.176 5.91156 -0.169736 0
M  V30 4626 H 425.106 0.741643 0.135949 0
M  V30 4627 H 427.757 1.79743 -0.369421 0
M  V30 4628 H 426.139 3.68001 1.46257 0
M  V30 4629 H 427.313 4.42121 -1.29869 0
M  V30 4630 H 425.628 4.03691 -1.02093 0
M  V30 4631 H 428.225 5.12021 1.54074 0
M  V30 4632 H 428.568 3.53749 2.19471 0
M  V30 4633 H 429.101 3.94057 0.544447 0
M  V30 4634 H 425.84 6.46736 -1.0683 0
M  V30 4635 H 425.36 5.97079 0.570717 0
M  V30 4636 H 427.039 6.4655 0.241245 0
M  V30 4637 N 427.171 -0.0066808 1.57599 0
M  V30 4638 C 428.134 -0.985035 2.06953 0
M  V30 4639 C 429.134 -1.27663 0.977687 0
M  V30 4640 O 430.324 -1.22293 1.24057 0
M  V30 4641 C 427.456 -2.3118 2.50536 0
M  V30 4642 H 428.649 -0.558255 2.94658 0
M  V30 4643 H 426.202 -0.254011 1.54222 0
M  V30 4644 H 426.937 -2.78561 1.66054 0
M  V30 4645 H 426.722 -2.11338 3.3027 0
M  V30 4646 H 428.212 -3.01377 2.8907 0
M  V30 4647 N 428.649 -1.55105 -0.279332 0
M  V30 4648 C 429.581 -1.83952 -1.36727 0
M  V30 4649 C 430.594 -0.723642 -1.45833 0
M  V30 4650 O 431.783 -1.00141 -1.47763 0
M  V30 4651 C 428.883 -1.98183 -2.74912 0
M  V30 4652 C 428.056 -3.28787 -2.88475 0
M  V30 4653 C 427.115 -3.33162 -4.07295 0
M  V30 4654 O 426.141 -4.06576 -3.98353 0
M  V30 4655 N 427.343 -2.60109 -5.18964 0
M  V30 4656 H 430.108 -2.77853 -1.12328 0
M  V30 4657 H 427.669 -1.54945 -0.469442 0
M  V30 4658 H 429.661 -1.98488 -3.52682 0
M  V30 4659 H 428.231 -1.11177 -2.92162 0
M  V30 4660 H 427.451 -3.41075 -1.97641 0
M  V30 4661 H 428.739 -4.14933 -2.94463 0
M  V30 4662 H 428.137 -2.00136 -5.29115 0
M  V30 4663 H 426.694 -2.66143 -5.94988 0
M  V30 4664 N 430.127 0.543554 -1.4793 0
M  V30 4665 C 431.09 1.63156 -1.60975 0
M  V30 4666 C 432.09 1.53346 -0.483899 0
M  V30 4667 O 433.28 1.5726 -0.749339 0
M  V30 4668 C 430.412 3.02743 -1.56716 0
M  V30 4669 H 431.605 1.52934 -2.57975 0
M  V30 4670 H 429.158 0.764557 -1.36324 0
M  V30 4671 H 429.893 3.18484 -0.611418 0
M  V30 4672 H 429.678 3.11272 -2.38438 0
M  V30 4673 H 431.168 3.81871 -1.6901 0
M  V30 4674 N 431.605 1.3629 0.791371 0
M  V30 4675 C 432.515 1.32606 1.93527 0
M  V30 4676 C 433.531 0.228541 1.72493 0
M  V30 4677 O 434.707 0.460571 1.96063 0
M  V30 4678 C 431.772 1.11271 3.28359 0
M  V30 4679 C 430.833 2.3048 3.62185 0
M  V30 4680 C 430.066 2.10154 4.90583 0
M  V30 4681 O 430.289 1.07572 5.60165 0
M  V30 4682 O 429.223 2.97884 5.23019 0
M  V30 4683 H 433.049 2.28909 1.99585 0
M  V30 4684 H 430.634 1.16818 0.931344 0
M  V30 4685 H 432.516 1.01283 4.09047 0
M  V30 4686 H 431.191 0.180292 3.23198 0
M  V30 4687 H 430.098 2.46036 2.81811 0
M  V30 4688 H 431.431 3.22221 3.72068 0
M  V30 4689 N 433.083 -1.0153 1.20538 0
M  V30 4690 C 433.993 -2.13557 0.971113 0
M  V30 4691 C 435.009 -1.73845 -0.0734366 0
M  V30 4692 O 436.185 -2.01075 0.114299 0
M  V30 4693 C 433.25 -3.42661 0.527639 0
M  V30 4694 C 432.311 -3.96608 1.64319 0
M  V30 4695 C 431.544 -5.1955 1.22078 0
M  V30 4696 O 431.767 -5.70329 0.0900198 0
M  V30 4697 O 430.701 -5.66681 2.02871 0
M  V30 4698 H 434.527 -2.3619 1.90913 0
M  V30 4699 H 432.112 -1.11946 0.989362 0
M  V30 4700 H 433.994 -4.20404 0.289621 0
M  V30 4701 H 432.669 -3.21441 -0.381779 0
M  V30 4702 H 431.576 -3.20139 1.93551 0
M  V30 4703 H 432.909 -4.22219 2.52966 0
M  V30 4704 N 434.561 -1.01147 -1.20859 0
M  V30 4705 C 435.493 -0.535546 -2.22855 0
M  V30 4706 C 436.506 0.379323 -1.58319 0
M  V30 4707 O 437.695 0.178489 -1.77605 0
M  V30 4708 C 434.795 0.240962 -3.38042 0
M  V30 4709 C 433.968 -0.674562 -4.32167 0
M  V30 4710 C 433.027 0.053467 -5.26173 0
M  V30 4711 O 432.053 -0.567339 -5.66366 0
M  V30 4712 N 433.255 1.32997 -5.65059 0
M  V30 4713 H 436.02 -1.41268 -2.64317 0
M  V30 4714 H 433.581 -0.888386 -1.35349 0
M  V30 4715 H 435.573 0.737115 -3.97931 0
M  V30 4716 H 434.143 1.01935 -2.95513 0
M  V30 4717 H 433.363 -1.35111 -3.70322 0
M  V30 4718 H 434.651 -1.2974 -4.91981 0
M  V30 4719 H 434.049 1.85536 -5.34409 0
M  V30 4720 H 432.606 1.77095 -6.2728 0
M  V30 4721 N 436.039 1.36541 -0.78704 0
M  V30 4722 C 437.002 2.28413 -0.189778 0
M  V30 4723 C 438.002 1.48719 0.611499 0
M  V30 4724 O 439.192 1.68737 0.432842 0
M  V30 4725 C 436.324 3.32824 0.737638 0
M  V30 4726 H 437.517 2.82743 -0.999831 0
M  V30 4727 H 435.07 1.46065 -0.556298 0
M  V30 4728 H 435.805 2.83646 1.57212 0
M  V30 4729 H 435.59 3.91752 0.165044 0
M  V30 4730 H 437.08 4.0144 1.15047 0
M  V30 4731 N 437.518 0.538854 1.48102 0
M  V30 4732 C 438.934 0.19732 1.58376 0
M  V30 4733 C 439.134 -1.29971 1.5398 0
M  V30 4734 O 438.19 -2.07861 1.43352 0
M  V30 4735 C 439.503 0.807716 2.89649 0
M  V30 4736 C 441.051 0.77726 3.03196 0
M  V30 4737 C 441.526 1.36639 4.37143 0
M  V30 4738 N 443.017 1.32875 4.43732 0
M  V30 4739 C 443.752 1.7544 5.45901 0
M  V30 4740 N 443.248 2.25776 6.54979 0
M  V30 4741 N 445.041 1.66623 5.36836 0
M  V30 4742 H 437.192 1.5117 1.49202 0
M  V30 4743 H 439.455 0.629327 0.708979 0
M  V30 4744 H 439.161 1.85909 2.98548 0
M  V30 4745 H 439.035 0.289975 3.76084 0
M  V30 4746 H 441.422 -0.265374 2.93904 0
M  V30 4747 H 441.503 1.33256 2.18349 0
M  V30 4748 H 441.147 2.408 4.47189 0
M  V30 4749 H 441.077 0.786689 5.20691 0
M  V30 4750 H 443.568 0.96037 3.65493 0
M  V30 4751 H 443.881 2.56226 7.29087 0
M  V30 4752 H 442.226 2.29775 6.55918 0
M  V30 4753 H 445.417 1.27089 4.50517 0
M  V30 4754 H 445.59 2.00115 6.16326 0
M  V30 4755 N 438.996 -1.55193 0.274407 0
M  V30 4756 C 439.943 -2.225 -0.613374 0
M  V30 4757 C 440.913 -1.19823 -1.15029 0
M  V30 4758 O 442.098 -1.48362 -1.19973 0
M  V30 4759 C 439.238 -2.94927 -1.79199 0
M  V30 4760 C 438.351 -4.12322 -1.28899 0
M  V30 4761 C 437.486 -4.72394 -2.42934 0
M  V30 4762 C 436.525 -5.81984 -1.89634 0
M  V30 4763 N 435.662 -6.36123 -2.9714 0
M  V30 4764 H 440.502 -2.97982 -0.032756 0
M  V30 4765 H 438.039 -1.47099 -0.00440146 0
M  V30 4766 H 439.997 -3.35134 -2.48478 0
M  V30 4767 H 438.627 -2.2187 -2.34465 0
M  V30 4768 H 437.679 -3.7724 -0.489327 0
M  V30 4769 H 438.991 -4.91355 -0.858587 0
M  V30 4770 H 438.145 -5.15317 -3.20208 0
M  V30 4771 H 436.884 -3.92636 -2.8929 0
M  V30 4772 H 435.889 -5.38511 -1.1084 0
M  V30 4773 H 437.114 -6.6361 -1.44215 0
M  V30 4774 H 435.06 -5.59259 -3.42878 0
M  V30 4775 H 434.977 -7.10427 -2.58515 0
M  V30 4776 H 436.245 -6.83704 -3.74391 0
M  V30 4777 N 440.474 -0.00167713 -1.576 0
M  V30 4778 C 441.89 0.354422 -1.55615 0
M  V30 4779 C 442.09 1.74679 -1.00447 0
M  V30 4780 O 441.146 2.4428 -0.639022 0
M  V30 4781 C 442.459 0.22812 -2.99833 0
M  V30 4782 C 444.007 0.302934 -3.11531 0
M  V30 4783 C 444.482 0.205737 -4.57538 0
M  V30 4784 N 445.973 0.263584 -4.62449 0
M  V30 4785 C 446.708 0.211742 -5.73009 0
M  V30 4786 N 446.204 0.110399 -6.92712 0
M  V30 4787 N 447.997 0.263729 -5.61481 0
M  V30 4788 H 440.148 -0.912498 -1.918 0
M  V30 4789 H 442.411 -0.349928 -0.881053 0
M  V30 4790 H 442.117 -0.729934 -3.44042 0
M  V30 4791 H 441.991 1.00951 -3.6344 0
M  V30 4792 H 444.378 1.25143 -2.67251 0
M  V30 4793 H 444.459 -0.508357 -2.50698 0
M  V30 4794 H 444.103 -0.739225 -5.02492 0
M  V30 4795 H 444.033 1.03554 -5.16318 0
M  V30 4796 H 446.524 0.343173 -3.76339 0
M  V30 4797 H 446.837 0.0767828 -7.72762 0
M  V30 4798 H 445.182 0.0760025 -6.94958 0
M  V30 4799 H 448.373 0.34111 -4.66855 0
M  V30 4800 H 448.546 0.219862 -6.47627 0
M  V30 4801 N 441.952 1.55251 0.271103 0
M  V30 4802 C 442.884 1.84675 1.35749 0
M  V30 4803 C 443.897 0.731366 1.45447 0
M  V30 4804 O 445.086 1.00924 1.4723 0
M  V30 4805 C 442.186 1.99638 2.73857 0
M  V30 4806 C 441.359 3.30312 2.86727 0
M  V30 4807 C 440.418 3.35318 4.05522 0
M  V30 4808 O 439.444 4.08682 3.96191 0
M  V30 4809 N 440.646 2.62857 5.17577 0
M  V30 4810 H 443.411 2.78445 1.10853 0
M  V30 4811 H 440.972 1.55191 0.461218 0
M  V30 4812 H 442.964 2.00355 3.51625 0
M  V30 4813 H 441.534 1.12725 2.91568 0
M  V30 4814 H 440.754 3.42118 1.95829 0
M  V30 4815 H 442.042 4.16488 2.92258 0
M  V30 4816 H 441.44 2.02939 5.28046 0
M  V30 4817 H 439.997 2.69295 5.93568 0
M  V30 4818 N 443.43 -0.535701 1.48216 0
M  V30 4819 C 444.34 -1.66785 1.64985 0
M  V30 4820 C 445.356 -1.65654 0.532414 0
M  V30 4821 O 446.532 -1.8471 0.80275 0
M  V30 4822 C 443.597 -3.0326 1.68031 0
M  V30 4823 C 442.658 -3.1529 2.9136 0
M  V30 4824 C 441.891 -4.45255 2.94252 0
M  V30 4825 O 442.114 -5.32011 2.05719 0
M  V30 4826 O 441.048 -4.6153 3.86359 0
M  V30 4827 H 444.874 -1.55576 2.60825 0
M  V30 4828 H 442.459 -0.70815 1.31551 0
M  V30 4829 H 444.341 -3.84436 1.72589 0
M  V30 4830 H 443.016 -3.14805 0.753628 0
M  V30 4831 H 441.923 -2.3343 2.92337 0
M  V30 4832 H 443.256 -3.08658 3.83394 0
M  V30 4833 N 444.908 -1.36708 -0.784132 0
M  V30 4834 C 445.818 -1.3363 -1.92822 0
M  V30 4835 C 446.834 -0.237686 -1.72369 0
M  V30 4836 O 448.01 -0.470962 -1.95816 0
M  V30 4837 C 445.075 -1.13011 -3.27764 0
M  V30 4838 C 444.136 -2.32397 -3.60957 0
M  V30 4839 C 443.369 -2.12752 -4.89461 0
M  V30 4840 O 443.592 -1.10541 -5.59586 0
M  V30 4841 O 442.526 -3.00653 -5.21432 0
M  V30 4842 H 446.352 -2.29964 -1.98369 0
M  V30 4843 H 443.937 -1.1731 -0.925136 0
M  V30 4844 H 445.819 -1.03451 -4.08504 0
M  V30 4845 H 444.494 -0.19743 -3.23097 0
M  V30 4846 H 443.401 -2.47527 -2.80502 0
M  V30 4847 H 444.734 -3.2419 -3.70354 0
M  V30 4848 N 446.386 1.0089 -1.21074 0
M  V30 4849 C 447.802 1.2695 -0.967257 0
M  V30 4850 C 448.002 1.9846 0.348673 0
M  V30 4851 O 447.058 2.28459 1.0753 0
M  V30 4852 C 448.371 2.09697 -2.15517 0
M  V30 4853 C 449.919 2.22937 -2.197 0
M  V30 4854 C 450.394 3.09064 -3.37999 0
M  V30 4855 N 451.885 3.16653 -3.38061 0
M  V30 4856 C 452.62 3.8354 -4.26245 0
M  V30 4857 N 452.116 4.52488 -5.2462 0
M  V30 4858 N 453.909 3.80141 -4.14064 0
M  V30 4859 H 446.06 0.529005 -2.05707 0
M  V30 4860 H 448.323 0.296148 -0.900556 0
M  V30 4861 H 448.029 1.64497 -3.10859 0
M  V30 4862 H 447.903 3.10444 -2.14253 0
M  V30 4863 H 450.29 2.67357 -1.24916 0
M  V30 4864 H 450.371 1.21673 -2.2501 0
M  V30 4865 H 450.015 2.65347 -4.33074 0
M  V30 4866 H 449.945 4.10433 -3.29928 0
M  V30 4867 H 452.436 2.67566 -2.66865 0
M  V30 4868 H 452.749 5.01219 -5.88217 0
M  V30 4869 H 451.094 4.51288 -5.28549 0
M  V30 4870 H 454.285 3.25427 -3.36474 0
M  V30 4871 H 454.458 4.31992 -4.82998 0
M  V30 4872 N 447.864 1.01787 1.20321 0
M  V30 4873 C 448.774 0.598898 2.26827 0
M  V30 4874 C 449.79 -0.36418 1.70146 0
M  V30 4875 O 450.966 -0.224812 2.00141 0
M  V30 4876 C 448.031 -0.0549769 3.46656 0
M  V30 4877 C 447.092 0.954205 4.18561 0
M  V30 4878 C 446.325 0.331439 5.3267 0
M  V30 4879 O 446.548 -0.86851 5.63749 0
M  V30 4880 O 445.482 1.0488 5.92692 0
M  V30 4881 H 449.308 1.48562 2.64883 0
M  V30 4882 H 446.893 0.787434 1.26964 0
M  V30 4883 H 448.775 -0.420102 4.19301 0
M  V30 4884 H 447.45 -0.915876 3.10473 0
M  V30 4885 H 446.357 1.37072 3.48083 0
M  V30 4886 H 447.69 1.78511 4.58688 0
M  V30 4887 N 449.342 -1.36122 0.79427 0
M  V30 4888 C 450.289 -2.29982 0.194101 0
M  V30 4889 C 451.259 -1.52214 -0.664833 0
M  V30 4890 O 452.444 -1.80702 -0.612498 0
M  V30 4891 C 449.584 -3.38706 -0.661244 0
M  V30 4892 C 448.697 -4.31456 0.216766 0
M  V30 4893 C 447.832 -5.27265 -0.645411 0
M  V30 4894 C 446.871 -6.11653 0.233756 0
M  V30 4895 N 446.008 -6.99636 -0.587682 0
M  V30 4896 H 450.848 -2.80722 0.999965 0
M  V30 4897 H 448.385 -1.38172 0.504677 0
M  V30 4898 H 450.343 -4.00394 -1.17219 0
M  V30 4899 H 448.973 -2.89274 -1.43249 0
M  V30 4900 H 448.025 -3.7088 0.845724 0
M  V30 4901 H 449.337 -4.90724 0.893973 0
M  V30 4902 H 448.491 -5.94266 -1.22198 0
M  V30 4903 H 447.23 -4.68463 -1.35623 0
M  V30 4904 H 446.235 -5.4361 0.82269 0
M  V30 4905 H 447.46 -6.72531 0.942247 0
M  V30 4906 H 445.406 -6.43337 -1.2827 0
M  V30 4907 H 445.323 -7.55993 0.0317402 0
M  V30 4908 H 446.591 -7.71001 -1.14792 0
M  V30 4909 N 450.82 -0.546701 -1.47814 0
M  V30 4910 C 451.73 0.21026 -2.33656 0
M  V30 4911 C 452.746 0.922413 -1.47538 0
M  V30 4912 O 453.922 0.893652 -1.80488 0
M  V30 4913 C 450.987 1.23348 -3.24016 0
M  V30 4914 C 450.048 0.529883 -4.26017 0
M  V30 4915 C 449.281 1.50435 -5.12059 0
M  V30 4916 O 449.504 2.73837 -5.00369 0
M  V30 4917 O 448.438 1.03459 -5.92942 0
M  V30 4918 H 452.264 -0.493605 -2.99662 0
M  V30 4919 H 449.849 -0.307427 -1.46203 0
M  V30 4920 H 451.731 1.82438 -3.79861 0
M  V30 4921 H 450.406 1.91945 -2.60651 0
M  V30 4922 H 449.313 -0.101948 -3.73961 0
M  V30 4923 H 450.646 -0.11445 -4.92067 0
M  V30 4924 N 452.299 1.55045 -0.282633 0
M  V30 4925 C 453.262 2.21515 0.588539 0
M  V30 4926 C 454.262 1.19535 1.07554 0
M  V30 4927 O 455.452 1.44391 0.974514 0
M  V30 4928 C 452.584 2.88704 1.8128 0
M  V30 4929 H 453.777 2.99899 0.00806397 0
M  V30 4930 H 451.33 1.56265 -0.0333067 0
M  V30 4931 H 452.065 2.14352 2.43359 0
M  V30 4932 H 451.85 3.63443 1.47144 0
M  V30 4933 H 453.34 3.39465 2.43214 0
M  V30 4934 N 453.777 0.010035 1.57597 0
M  V30 4935 C 454.74 -0.963029 2.07986 0
M  V30 4936 C 455.74 -1.26619 0.991173 0
M  V30 4937 O 456.93 -1.2097 1.25347 0
M  V30 4938 C 454.062 -2.2851 2.52974 0
M  V30 4939 H 455.255 -0.526971 2.95234 0
M  V30 4940 H 452.808 -0.237639 1.54483 0
M  V30 4941 H 453.543 -2.76784 1.69 0
M  V30 4942 H 453.328 -2.07824 3.32493 0
M  V30 4943 H 454.818 -2.98294 2.9225 0
M  V30 4944 N 455.255 -1.55392 -0.262866 0
M  V30 4945 C 456.165 -1.92077 -1.34698 0
M  V30 4946 C 457.181 -0.819227 -1.53508 0
M  V30 4947 O 458.357 -1.11921 -1.67439 0
M  V30 4948 C 455.422 -2.19407 -2.68443 0
M  V30 4949 C 454.483 -3.42905 -2.58292 0
M  V30 4950 C 453.716 -3.68921 -3.85659 0
M  V30 4951 O 453.939 -2.97275 -4.8681 0
M  V30 4952 O 452.873 -4.62455 -3.85252 0
M  V30 4953 H 456.699 -2.84384 -1.06581 0
M  V30 4954 H 454.284 -1.42069 -0.462264 0
M  V30 4955 H 456.166 -2.38365 -3.47506 0
M  V30 4956 H 454.841 -1.30282 -2.96325 0
M  V30 4957 H 453.748 -3.29272 -1.7757 0
M  V30 4958 H 455.081 -4.32282 -2.35358 0
M  V30 4959 N 456.733 0.527833 -1.48498 0
M  V30 4960 C 457.665 1.6482 -1.5927 0
M  V30 4961 C 458.678 1.55659 -0.476869 0
M  V30 4962 O 459.867 1.62081 -0.747806 0
M  V30 4963 C 456.967 3.0348 -1.50842 0
M  V30 4964 C 456.14 3.381 -2.77502 0
M  V30 4965 C 455.199 4.5605 -2.62497 0
M  V30 4966 O 454.225 4.59165 -3.36387 0
M  V30 4967 N 455.427 5.54353 -1.72257 0
M  V30 4968 H 458.192 1.56015 -2.55889 0
M  V30 4969 H 455.753 0.715152 -1.45249 0
M  V30 4970 H 457.745 3.80264 -1.38496 0
M  V30 4971 H 456.315 3.06352 -0.621887 0
M  V30 4972 H 455.535 2.50473 -3.04396 0
M  V30 4973 H 456.823 3.58017 -3.61527 0
M  V30 4974 H 456.221 5.54617 -1.11431 0
M  V30 4975 H 454.778 6.30347 -1.65849 0
M  V30 4976 N 458.211 1.37122 0.776871 0
M  V30 4977 C 459.174 1.32301 1.8716 0
M  V30 4978 C 460.174 0.228099 1.59174 0
M  V30 4979 O 461.364 0.483642 1.67352 0
M  V30 4980 C 458.496 1.054 3.24197 0
M  V30 4981 H 459.689 2.29673 1.92848 0
M  V30 4982 H 457.242 1.22077 0.97606 0
M  V30 4983 H 457.977 0.0853872 3.24188 0
M  V30 4984 H 457.762 1.84648 3.45901 0
M  V30 4985 H 459.252 1.04664 4.04271 0
M  V30 4986 N 459.689 -1.00246 1.21608 0
M  V30 4987 C 460.599 -2.12515 0.993709 0
M  V30 4988 C 461.615 -1.73913 -0.0549939 0
M  V30 4989 O 462.791 -2.00943 0.135619 0
M  V30 4990 C 459.856 -3.42083 0.563953 0
M  V30 4991 C 458.917 -3.94843 1.68516 0
M  V30 4992 C 458.15 -5.18226 1.27582 0
M  V30 4993 O 458.373 -5.70201 0.150506 0
M  V30 4994 O 457.307 -5.64497 2.0887 0
M  V30 4995 H 461.133 -2.34152 1.93407 0
M  V30 4996 H 458.718 -1.10891 1.00118 0
M  V30 4997 H 460.6 -4.20073 0.334194 0
M  V30 4998 H 459.275 -3.21828 -0.347665 0
M  V30 4999 H 458.182 -3.18068 1.96935 0
M  V30 5000 H 459.515 -4.19512 2.5743 0
M  V30 5001 N 461.167 -1.02423 -1.1978 0
M  V30 5002 C 462.583 -0.740459 -1.41384 0
M  V30 5003 C 462.783 0.676827 -1.89793 0
M  V30 5004 O 461.839 1.4435 -2.0717 0
M  V30 5005 C 463.152 -1.77264 -2.42895 0
M  V30 5006 C 464.7 -1.79165 -2.56649 0
M  V30 5007 C 465.175 -2.8133 -3.6141 0
M  V30 5008 N 466.666 -2.80118 -3.68901 0
M  V30 5009 C 467.401 -3.55824 -4.49641 0
M  V30 5010 N 466.897 -4.41231 -5.34123 0
M  V30 5011 N 468.69 -3.44387 -4.44246 0
M  V30 5012 H 460.841 -1.9391 -0.866764 0
M  V30 5013 H 463.104 -0.838074 -0.443098 0
M  V30 5014 H 462.81 -2.7884 -2.14339 0
M  V30 5015 H 462.684 -1.59108 -3.42001 0
M  V30 5016 H 465.071 -0.782702 -2.84531 0
M  V30 5017 H 465.152 -2.01396 -1.57713 0
M  V30 5018 H 464.796 -3.82394 -3.34271 0
M  V30 5019 H 464.726 -2.56359 -4.59986 0
M  V30 5020 H 467.217 -2.1817 -3.08562 0
M  V30 5021 H 467.53 -4.95747 -5.92836 0
M  V30 5022 H 465.875 -4.45306 -5.33599 0
M  V30 5023 H 469.066 -2.7708 -3.77285 0
M  V30 5024 H 469.239 -4.0364 -5.06931 0
M  V30 5025 N 462.645 1.35699 -0.801477 0
M  V30 5026 C 463.87 2.03687 -0.390678 0
M  V30 5027 C 464.295 1.60015 0.988778 0
M  V30 5028 O 463.653 0.774357 1.63931 0
M  V30 5029 C 463.701 3.57439 -0.476404 0
M  V30 5030 O 462.805 4.09208 0.512106 0
M  V30 5031 H 462.146 0.64344 -0.163956 0
M  V30 5032 H 464.676 1.73403 -1.08594 0
M  V30 5033 H 464.686 4.06544 -0.344357 0
M  V30 5034 H 463.361 3.88576 -1.48262 0
M  V30 5035 H 461.938 3.7134 0.340721 0
M  V30 5036 N 464.123 0.554532 1.47522 0
M  V30 5037 C 465.055 -0.232106 2.28022 0
M  V30 5038 C 466.068 -0.881865 1.36847 0
M  V30 5039 O 467.257 -0.756168 1.61692 0
M  V30 5040 C 464.357 -1.34604 3.11022 0
M  V30 5041 C 463.53 -0.793582 4.30141 0
M  V30 5042 C 462.589 -1.79168 4.94758 0
M  V30 5043 O 461.615 -1.33886 5.5323 0
M  V30 5044 N 462.817 -3.12495 4.89211 0
M  V30 5045 H 465.582 0.458407 2.96173 0
M  V30 5046 H 463.143 0.390433 1.57122 0
M  V30 5047 H 465.135 -2.01243 3.51118 0
M  V30 5048 H 463.705 -1.93983 2.45131 0
M  V30 5049 H 462.925 0.0495025 3.94169 0
M  V30 5050 H 464.213 -0.403776 5.07195 0
M  V30 5051 H 463.611 -3.51931 4.42901 0
M  V30 5052 H 462.168 -3.74698 5.33333 0
M  V30 5053 N 465.601 -1.54893 0.290851 0
M  V30 5054 C 466.826 -2.04804 -0.32712 0
M  V30 5055 C 467.251 -1.16721 -1.47506 0
M  V30 5056 O 466.609 -0.169107 -1.8051 0
M  V30 5057 C 466.657 -3.52268 -0.770689 0
M  V30 5058 O 465.761 -3.67236 -1.87647 0
M  V30 5059 H 465.102 -0.660789 -0.0652227 0
M  V30 5060 H 467.632 -2.00036 0.429739 0
M  V30 5061 H 467.642 -3.9393 -1.06223 0
M  V30 5062 H 466.317 -4.15843 0.069096 0
M  V30 5063 H 464.894 -3.37479 -1.58626 0
M  V30 5064 N 467.08 -0.0183926 -1.57589 0
M  V30 5065 C 468.305 0.676634 -1.96052 0
M  V30 5066 C 468.73 1.6548 -0.894307 0
M  V30 5067 O 468.088 1.80712 0.145849 0
M  V30 5068 C 468.136 1.36872 -3.33614 0
M  V30 5069 O 467.24 2.48372 -3.29219 0
M  V30 5070 H 466.581 0.1786 -0.63953 0
M  V30 5071 H 469.111 -0.077056 -2.04455 0
M  V30 5072 H 469.121 1.72797 -3.69601 0
M  V30 5073 H 467.796 0.651636 -4.10763 0
M  V30 5074 H 466.373 2.14639 -3.04934 0
M  V30 5075 N 468.558 1.5553 0.254621 0
M  V30 5076 C 469.807 1.76202 0.981612 0
M  V30 5077 C 470.12 0.580883 1.86776 0
M  V30 5078 O 471.326 0.670448 2.63092 0
M  V30 5079 C 469.782 3.11921 1.79537 0
M  V30 5080 C 469.39 4.37659 0.956991 0
M  V30 5081 C 471.134 3.41936 2.51555 0
M  V30 5082 C 469.041 5.64411 1.76619 0
M  V30 5083 H 467.971 0.656841 0.370237 0
M  V30 5084 H 470.622 1.81969 0.236556 0
M  V30 5085 H 469.004 3.00241 2.58208 0
M  V30 5086 H 470.178 4.60307 0.21315 0
M  V30 5087 H 468.493 4.14922 0.350497 0
M  V30 5088 H 471.09 4.33849 3.12536 0
M  V30 5089 H 471.433 2.62905 3.22779 0
M  V30 5090 H 471.966 3.54797 1.799 0
M  V30 5091 H 468.705 6.46241 1.09783 0
M  V30 5092 H 468.225 5.45877 2.48551 0
M  V30 5093 H 469.904 6.03386 2.33527 0
M  V30 5094 N 470.036 -0.519951 1.48776 0
M  V30 5095 C 471.282 -1.27711 1.57536 0
M  V30 5096 C 471.615 -1.92547 0.252866 0
M  V30 5097 O 470.89 -1.7979 -0.742021 0
M  V30 5098 C 471.173 -2.35875 2.72094 0
M  V30 5099 C 471.026 -1.75664 4.1408 0
M  V30 5100 C 472.345 -3.37575 2.82367 0
M  V30 5101 H 469.464 -0.462971 0.573434 0
M  V30 5102 H 472.106 -0.578194 1.80989 0
M  V30 5103 H 470.256 -2.95488 2.52228 0
M  V30 5104 H 471.928 -1.20025 4.45412 0
M  V30 5105 H 470.171 -1.06154 4.20611 0
M  V30 5106 H 470.842 -2.54029 4.90075 0
M  V30 5107 H 473.318 -2.87929 3.00393 0
M  V30 5108 H 472.194 -4.1064 3.64233 0
M  V30 5109 H 472.455 -3.98743 1.90936 0
M  V30 5110 N 471.514 -1.37532 -0.769588 0
M  V30 5111 C 472.925 -1.29382 -1.346 0
M  V30 5112 C 473.276 0.0576039 -1.96115 0
M  V30 5113 O 472.401 0.95947 -1.93967 0
M  V30 5114 C 472.996 -2.34298 -2.44724 0
M  V30 5115 C 471.555 -2.29776 -2.98128 0
M  V30 5116 C 470.702 -2.18013 -1.71364 0
M  V30 5117 H 473.653 -1.48123 -0.56968 0
M  V30 5118 H 473.674 -1.99089 -3.24259 0
M  V30 5119 H 473.186 -3.32645 -1.99922 0
M  V30 5120 H 471.287 -1.34959 -3.47299 0
M  V30 5121 H 471.4 -3.23276 -3.53595 0
M  V30 5122 H 469.764 -1.64595 -1.94372 0
M  V30 5123 H 470.547 -3.18278 -1.28662 0
M  V30 5124 N 472.992 0.995999 -1.22138 0
M  V30 5125 C 473.902 2.11985 -1.00496 0
M  V30 5126 C 474.918 1.7394 0.0457701 0
M  V30 5127 O 476.094 2.00868 -0.146273 0
M  V30 5128 C 473.159 3.41779 -0.582086 0
M  V30 5129 C 472.22 3.93943 -1.70608 0
M  V30 5130 C 471.453 5.17542 -1.30328 0
M  V30 5131 O 471.676 5.70114 -0.180743 0
M  V30 5132 O 470.61 5.63382 -2.11861 0
M  V30 5133 H 474.436 2.33123 -1.94647 0
M  V30 5134 H 472.021 1.10358 -1.00705 0
M  V30 5135 H 473.903 4.1989 -0.356467 0
M  V30 5136 H 472.578 3.22007 0.330592 0
M  V30 5137 H 471.485 3.17019 -1.98619 0
M  V30 5138 H 472.818 4.18141 -2.59651 0
M  V30 5139 N 474.47 1.03057 1.19235 0
M  V30 5140 C 475.38 0.622922 2.26179 0
M  V30 5141 C 476.396 -0.346113 1.70523 0
M  V30 5142 O 477.572 -0.203572 2.00369 0
M  V30 5143 C 474.637 -0.0182063 3.46695 0
M  V30 5144 C 473.698 0.998546 4.17526 0
M  V30 5145 C 472.931 0.387917 5.32288 0
M  V30 5146 O 473.154 -0.808668 5.64639 0
M  V30 5147 O 472.088 1.1116 5.91546 0
M  V30 5148 H 475.914 1.51363 2.63292 0
M  V30 5149 H 473.499 0.800856 1.26122 0
M  V30 5150 H 475.381 -0.375606 4.19723 0
M  V30 5151 H 474.056 -0.882895 3.11427 0
M  V30 5152 H 472.963 1.40756 3.4661 0
M  V30 5153 H 474.296 1.83366 4.56769 0
M  V30 5154 N 475.948 -1.35272 0.808662 0
M  V30 5155 C 476.858 -2.33546 0.222079 0
M  V30 5156 C 477.874 -1.6196 -0.636011 0
M  V30 5157 O 479.05 -1.93822 -0.547274 0
M  V30 5158 C 476.115 -3.41148 -0.61795 0
M  V30 5159 C 475.176 -4.28507 0.260875 0
M  V30 5160 C 474.409 -5.3097 -0.539156 0
M  V30 5161 O 474.632 -5.42123 -1.77367 0
M  V30 5162 O 473.566 -6.01858 0.0710526 0
M  V30 5163 H 477.392 -2.85515 1.03512 0
M  V30 5164 H 474.977 -1.38079 0.570495 0
M  V30 5165 H 476.859 -4.06889 -1.09634 0
M  V30 5166 H 475.534 -2.91447 -1.40855 0
M  V30 5167 H 474.441 -3.6574 0.786451 0
M  V30 5168 H 475.774 -4.81611 1.01547 0
M  V30 5169 N 477.426 -0.562348 -1.47226 0
M  V30 5170 C 478.358 0.220011 -2.28142 0
M  V30 5171 C 479.371 0.874596 -1.37312 0
M  V30 5172 O 480.56 0.747583 -1.62091 0
M  V30 5173 C 477.66 1.32953 -3.11732 0
M  V30 5174 C 476.833 0.770759 -4.30556 0
M  V30 5175 C 475.892 1.76541 -4.95701 0
M  V30 5176 O 474.918 1.3095 -5.53932 0
M  V30 5177 N 476.12 3.09896 -4.90861 0
M  V30 5178 H 478.885 -0.474107 -2.95926 0
M  V30 5179 H 476.446 -0.398761 -1.56912 0
M  V30 5180 H 478.438 1.99378 -3.5218 0
M  V30 5181 H 477.008 1.92681 -2.46156 0
M  V30 5182 H 476.228 -0.0704056 -3.94137 0
M  V30 5183 H 477.516 0.376872 -5.07402 0
M  V30 5184 H 476.914 3.49577 -4.44761 0
M  V30 5185 H 475.471 3.71865 -5.35313 0
M  V30 5186 N 478.904 1.54736 -0.299062 0
M  V30 5187 C 479.867 2.22127 0.565012 0
M  V30 5188 C 480.867 1.20669 1.06281 0
M  V30 5189 O 482.057 1.45417 0.959145 0
M  V30 5190 C 479.189 2.90611 1.78208 0
M  V30 5191 H 480.382 2.99891 -0.0237448 0
M  V30 5192 H 477.935 1.5622 -0.0498788 0
M  V30 5193 H 478.67 2.16921 2.41072 0
M  V30 5194 H 478.455 3.64984 1.43281 0
M  V30 5195 H 479.945 3.42026 2.396 0
M  V30 5196 N 480.382 0.0267497 1.57577 0
M  V30 5197 C 481.345 -0.940916 2.08996 0
M  V30 5198 C 482.345 -1.25561 1.00455 0
M  V30 5199 O 483.535 -1.19634 1.26623 0
M  V30 5200 C 480.667 -2.25814 2.55384 0
M  V30 5201 H 481.86 -0.495628 2.95776 0
M  V30 5202 H 479.413 -0.221241 1.54726 0
M  V30 5203 H 480.148 -2.74976 1.71926 0
M  V30 5204 H 479.933 -2.04285 3.34679 0
M  V30 5205 H 481.423 -2.95178 2.95398 0
M  V30 5206 N 481.861 -1.55662 -0.24637 0
M  V30 5207 C 482.809 -1.91186 -1.3248 0
M  V30 5208 C 483.803 -0.790996 -1.49799 0
M  V30 5209 O 485.009 -0.975617 -1.51267 0
M  V30 5210 H 481.384 -0.607207 -0.443626 0
M  V30 5211 H 483.355 -2.81221 -0.997853 0
M  V30 5212 C 482.104 -2.22349 -2.67313 0
M  V30 5213 H 481.427 -3.08097 -2.54786 0
M  V30 5214 H 482.867 -2.51107 -3.41645 0
M  V30 5215 C 481.326 -1.04001 -3.20446 0
M  V30 5216 O 481.856 -0.28828 -4.00664 0
M  V30 5217 N 480.062 -0.830494 -2.7848 0
M  V30 5218 H 479.609 -1.4435 -2.13356 0
M  V30 5219 H 479.567 -0.0403258 -3.14374 0
M  V30 5220 N 483.339 0.512053 -1.4905 0
M  V30 5221 C 484.286 1.6148 -1.64902 0
M  V30 5222 C 485.256 1.58687 -0.490673 0
M  V30 5223 O 486.441 1.76842 -0.71636 0
M  V30 5224 C 483.581 2.99676 -1.71139 0
M  V30 5225 C 482.694 3.12568 -2.98203 0
M  V30 5226 C 481.829 4.4143 -2.95487 0
M  V30 5227 C 480.868 4.47916 -4.17179 0
M  V30 5228 N 480.005 5.68191 -4.12437 0
M  V30 5229 H 484.845 1.47271 -2.59066 0
M  V30 5230 H 482.382 0.716713 -1.28459 0
M  V30 5231 H 484.34 3.79761 -1.72736 0
M  V30 5232 H 482.97 3.12614 -0.804508 0
M  V30 5233 H 482.022 2.25618 -3.06269 0
M  V30 5234 H 483.334 3.1322 -3.88194 0
M  V30 5235 H 482.488 5.29825 -2.95585 0
M  V30 5236 H 481.227 4.43326 -2.03256 0
M  V30 5237 H 480.232 3.57925 -4.17337 0
M  V30 5238 H 481.457 4.47744 -5.1059 0
M  V30 5239 H 479.403 5.7095 -3.23036 0
M  V30 5240 H 479.32 5.70413 -4.96151 0
M  V30 5241 H 480.588 6.58823 -4.16621 0
M  V30 5242 N 484.817 1.37938 0.762283 0
M  V30 5243 C 486.065 1.33404 1.51815 0
M  V30 5244 C 486.386 -0.0780975 1.94844 0
M  V30 5245 O 485.656 -1.02405 1.67003 0
M  V30 5246 H 484.236 0.490839 0.563104 0
M  V30 5247 H 486.898 1.72527 0.906669 0
M  V30 5248 H 485.994 1.97926 2.41313 0
M  V30 5249 N 486.295 -0.989507 1.22664 0
M  V30 5250 C 487.205 -2.11449 1.01619 0
M  V30 5251 C 488.221 -1.73962 -0.036545 0
M  V30 5252 O 489.397 -2.00788 0.156924 0
M  V30 5253 C 486.462 -3.41465 0.600204 0
M  V30 5254 C 485.523 -3.93033 1.72695 0
M  V30 5255 C 484.756 -5.16844 1.33071 0
M  V30 5256 O 484.979 -5.7001 0.210975 0
M  V30 5257 O 483.913 -5.6225 2.14845 0
M  V30 5258 H 487.739 -2.32088 1.9588 0
M  V30 5259 H 485.324 -1.09823 1.01289 0
M  V30 5260 H 487.206 -4.19695 0.37873 0
M  V30 5261 H 485.881 -3.22178 -0.313511 0
M  V30 5262 H 484.788 -3.15961 2.00298 0
M  V30 5263 H 486.121 -4.16758 2.61865 0
M  V30 5264 N 487.773 -1.03688 -1.18687 0
M  V30 5265 C 488.683 -0.634908 -2.25845 0
M  V30 5266 C 489.699 0.337065 -1.70704 0
M  V30 5267 O 490.875 0.192943 -2.00474 0
M  V30 5268 C 487.94 -0.000180054 -3.467 0
M  V30 5269 C 487.001 -1.02067 -4.1699 0
M  V30 5270 C 486.234 -0.41614 -5.32075 0
M  V30 5271 O 486.457 0.778712 -5.65059 0
M  V30 5272 O 485.391 -1.14296 -5.90948 0
M  V30 5273 H 489.217 -1.52757 -2.62486 0
M  V30 5274 H 486.802 -0.807533 -1.25695 0
M  V30 5275 H 488.684 0.353342 -4.19916 0
M  V30 5276 H 487.359 0.866367 -3.11891 0
M  V30 5277 H 486.266 -1.42592 -3.45859 0
M  V30 5278 H 487.599 -1.85786 -4.5579 0
M  V30 5279 N 489.251 1.34841 -0.815825 0
M  V30 5280 C 490.198 2.29644 -0.230664 0
M  V30 5281 C 491.168 1.53253 0.640533 0
M  V30 5282 O 492.353 1.81653 0.583672 0
M  V30 5283 C 489.493 3.39715 0.607275 0
M  V30 5284 C 488.606 4.31056 -0.28538 0
M  V30 5285 C 487.741 5.28225 0.561446 0
M  V30 5286 C 486.78 6.11204 -0.331035 0
M  V30 5287 N 485.917 7.00483 0.476302 0
M  V30 5288 H 490.757 2.79095 -1.0445 0
M  V30 5289 H 488.294 1.37351 -0.526595 0
M  V30 5290 H 490.252 4.02208 1.10835 0
M  V30 5291 H 488.882 2.91517 1.38629 0
M  V30 5292 H 487.934 3.69487 -0.904621 0
M  V30 5293 H 489.246 4.89239 -0.97193 0
M  V30 5294 H 488.4 5.96135 1.12728 0
M  V30 5295 H 487.139 4.70562 1.28153 0
M  V30 5296 H 486.144 5.42232 -0.909069 0
M  V30 5297 H 487.369 6.70947 -1.04912 0
M  V30 5298 H 485.315 6.45296 1.18019 0
M  V30 5299 H 485.232 7.55847 -0.152008 0
M  V30 5300 H 486.5 7.7273 1.02512 0
M  V30 5301 N 490.729 0.570148 1.46925 0
M  V30 5302 C 491.676 -0.170257 2.30171 0
M  V30 5303 C 492.646 -0.896099 1.39855 0
M  V30 5304 O 493.831 -0.889248 1.68811 0
M  V30 5305 C 490.971 -1.18605 3.24079 0
M  V30 5306 C 490.084 -0.464947 4.29491 0
M  V30 5307 C 489.219 -1.46716 5.10537 0
M  V30 5308 C 488.258 -0.731758 6.0771 0
M  V30 5309 N 487.395 -1.68142 6.81669 0
M  V30 5310 H 492.235 0.545713 2.92961 0
M  V30 5311 H 489.772 0.280938 1.44392 0
M  V30 5312 H 491.73 -1.78771 3.76957 0
M  V30 5313 H 490.36 -1.86989 2.63125 0
M  V30 5314 H 489.412 0.251506 3.79568 0
M  V30 5315 H 490.724 0.110548 4.98677 0
M  V30 5316 H 489.878 -2.14199 5.6763 0
M  V30 5317 H 488.617 -2.07658 4.41282 0
M  V30 5318 H 487.622 -0.0430787 5.49783 0
M  V30 5319 H 488.847 -0.127904 6.7898 0
M  V30 5320 H 486.793 -2.27918 6.15134 0
M  V30 5321 H 486.71 -1.15841 7.47072 0
M  V30 5322 H 487.978 -2.347 7.43328 0
M  V30 5323 N 492.207 -1.54576 0.307264 0
M  V30 5324 C 493.484 -1.92377 -0.353605 0
M  V30 5325 C 493.864 -1.23517 -1.71192 0
M  V30 5326 O 493.212 -0.373101 -2.25433 0
M  V30 5327 C 493.422 -3.45928 -0.462039 0
M  V30 5328 C 494.77 -4.18278 -0.729975 0
M  V30 5329 O 495.794 -3.51997 -0.545605 0
M  V30 5330 O 494.653 -5.3563 -1.08454 0
M  V30 5331 H 491.747 -0.802747 -0.198812 0
M  V30 5332 H 494.293 -1.65929 0.355783 0
M  V30 5333 H 493.065 -3.88187 0.492592 0
M  V30 5334 H 492.688 -3.78431 -1.21965 0
M  V30 5335 N 493.685 -0.035106 -1.57561 0
M  V30 5336 C 494.962 0.681212 -1.83354 0
M  V30 5337 C 495.342 1.89986 -0.920252 0
M  V30 5338 O 494.69 2.28489 0.0226815 0
M  V30 5339 C 494.9 1.05376 -3.32712 0
M  V30 5340 C 496.248 1.44286 -3.99333 0
M  V30 5341 O 497.272 1.14656 -3.37242 0
M  V30 5342 O 496.131 1.99518 -5.08778 0
M  V30 5343 H 493.225 0.334741 -0.756226 0
M  V30 5344 H 495.771 -0.0632448 -1.69582 0
M  V30 5345 H 494.543 0.186668 -3.90854 0
M  V30 5346 H 494.166 1.85619 -3.51613 0
M  V30 5347 N 495.163 1.55791 0.238111 0
M  V30 5348 C 496.073 1.94196 1.31625 0
M  V30 5349 C 497.089 0.843545 1.52185 0
M  V30 5350 O 498.265 1.1457 1.65637 0
M  V30 5351 C 495.33 2.2365 2.64918 0
M  V30 5352 C 494.391 3.46971 2.52804 0
M  V30 5353 C 493.624 3.7501 3.79741 0
M  V30 5354 O 493.847 3.04982 4.82019 0
M  V30 5355 O 492.781 4.68525 3.77846 0
M  V30 5356 H 496.607 2.86044 1.02043 0
M  V30 5357 H 494.192 1.42786 0.439603 0
M  V30 5358 H 496.074 2.43863 3.4367 0
M  V30 5359 H 494.749 1.34979 2.94215 0
M  V30 5360 H 493.656 3.32055 1.72309 0
M  V30 5361 H 494.989 4.35971 2.28451 0
M  V30 5362 N 496.642 -0.504142 1.49319 0
M  V30 5363 C 497.59 -1.62689 1.66238 0
M  V30 5364 C 498.584 -1.6095 0.528349 0
M  V30 5365 O 499.79 -1.65496 0.707887 0
M  V30 5366 H 496.165 -0.539247 0.524134 0
M  V30 5367 H 498.136 -1.45571 2.60484 0
M  V30 5368 C 496.885 -3.00841 1.74328 0
M  V30 5369 H 496.208 -3.02884 2.60963 0
M  V30 5370 H 497.648 -3.78945 1.90202 0
M  V30 5371 C 496.107 -3.33355 0.487416 0
M  V30 5372 O 496.637 -3.99819 -0.388294 0
M  V30 5373 N 494.843 -2.88469 0.351306 0
M  V30 5374 H 494.39 -2.34557 1.06492 0
M  V30 5375 H 494.348 -3.10591 -0.487899 0
M  V30 5376 N 498.12 -1.38341 -0.754957 0
M  V30 5377 C 499.369 -1.33791 -1.5094 0
M  V30 5378 C 499.682 0.0699267 -1.95475 0
M  V30 5379 O 500.888 0.237956 -2.70455 0
M  V30 5380 C 499.344 -2.34934 -2.72643 0
M  V30 5381 C 498.952 -3.81332 -2.35138 0
M  V30 5382 C 500.696 -2.39425 -3.50536 0
M  V30 5383 C 498.603 -4.74164 -3.53444 0
M  V30 5384 H 497.533 -0.497314 -0.566741 0
M  V30 5385 H 500.184 -1.63888 -0.825403 0
M  V30 5386 H 498.566 -1.97878 -3.43017 0
M  V30 5387 H 499.74 -4.27319 -1.7244 0
M  V30 5388 H 498.055 -3.79946 -1.70382 0
M  V30 5389 H 500.652 -3.0598 -4.38498 0
M  V30 5390 H 500.995 -1.41278 -3.91594 0
M  V30 5391 H 501.528 -2.75274 -2.87174 0
M  V30 5392 H 498.267 -5.73501 -3.17453 0
M  V30 5393 H 497.787 -4.3287 -4.15191 0
M  V30 5394 H 499.466 -4.92111 -4.20043 0
M  V30 5395 N 499.598 0.982988 -1.23187 0
M  V30 5396 C 501.009 1.53847 -1.05773 0
M  V30 5397 C 501.36 1.92568 0.375744 0
M  V30 5398 O 500.485 1.75783 1.26211 0
M  V30 5399 C 501.08 2.79567 -1.91384 0
M  V30 5400 C 499.639 3.31524 -1.78238 0
M  V30 5401 C 498.786 2.04534 -1.87246 0
M  V30 5402 H 501.737 0.802962 -1.36888 0
M  V30 5403 H 501.758 3.52317 -1.43711 0
M  V30 5404 H 501.27 2.51353 -2.95708 0
M  V30 5405 H 499.371 3.64623 -0.766875 0
M  V30 5406 H 499.484 4.01457 -2.61475 0
M  V30 5407 H 497.848 2.1855 -1.30797 0
M  V30 5408 H 498.631 1.78706 -2.9312 0
M  V30 5409 N 501.076 1.04316 1.18135 0
M  V30 5410 C 502.009 0.580823 2.20685 0
M  V30 5411 C 502.987 -0.385943 1.57953 0
M  V30 5412 O 504.171 -0.299654 1.86103 0
M  V30 5413 C 501.298 -0.151162 3.38363 0
M  V30 5414 C 500.344 0.769247 4.19505 0
M  V30 5415 S 501.177 2.25352 4.85774 0
M  V30 5416 C 502.333 1.53246 6.0685 0
M  V30 5417 H 502.566 1.44968 2.5956 0
M  V30 5418 H 500.099 0.85434 1.28609 0
M  V30 5419 H 502.057 -0.567315 4.06561 0
M  V30 5420 H 500.718 -0.995936 2.97892 0
M  V30 5421 H 499.911 0.203335 5.0359 0
M  V30 5422 H 499.513 1.12436 3.56699 0
M  V30 5423 H 501.805 0.82689 6.72435 0
M  V30 5424 H 502.748 2.35044 6.67952 0
M  V30 5425 H 503.156 1.0237 5.5514 0
M  V30 5426 N 502.554 -1.34406 0.822964 0
M  V30 5427 C 503.464 -2.33298 0.246838 0
M  V30 5428 C 504.48 -1.62625 -0.618797 0
M  V30 5429 O 505.656 -1.94391 -0.526685 0
M  V30 5430 C 502.721 -3.41785 -0.581731 0
M  V30 5431 C 501.782 -4.28206 0.306309 0
M  V30 5432 C 501.015 -5.31512 -0.48281 0
M  V30 5433 O 501.238 -5.43973 -1.71607 0
M  V30 5434 O 500.172 -6.01749 0.134884 0
M  V30 5435 H 503.998 -2.84401 1.06534 0
M  V30 5436 H 501.583 -1.37466 0.585108 0
M  V30 5437 H 503.465 -4.08028 -1.05313 0
M  V30 5438 H 502.14 -2.92925 -1.37756 0
M  V30 5439 H 501.047 -3.64885 0.825199 0
M  V30 5440 H 502.38 -4.80507 1.06649 0
M  V30 5441 N 504.032 -0.577932 -1.46621 0
M  V30 5442 C 505.26 -0.0671642 -2.06791 0
M  V30 5443 C 505.675 1.23571 -1.42743 0
M  V30 5444 O 505.032 1.74602 -0.531062 0
M  V30 5445 C 505.083 0.110357 -3.61332 0
M  V30 5446 O 504.804 -1.14095 -4.22982 0
M  V30 5447 C 506.305 0.656025 -4.38419 0
M  V30 5448 H 503.525 -0.0552732 -0.66872 0
M  V30 5449 H 506.069 -0.797242 -1.8832 0
M  V30 5450 H 504.224 0.790637 -3.79246 0
M  V30 5451 H 504.638 -0.951742 -5.15793 0
M  V30 5452 H 506.112 0.729438 -5.47159 0
M  V30 5453 H 506.589 1.67195 -4.06131 0
M  V30 5454 H 507.195 0.0107692 -4.25299 0
M  V30 5455 N 505.51 1.54411 -0.315457 0
M  V30 5456 C 506.42 2.27737 0.56329 0
M  V30 5457 C 507.436 1.31787 1.13614 0
M  V30 5458 O 508.612 1.64791 1.15784 0
M  V30 5459 C 505.677 3.01478 1.71207 0
M  V30 5460 C 504.738 4.12997 1.17185 0
M  V30 5461 C 503.971 4.83212 2.26588 0
M  V30 5462 O 504.194 4.52884 3.46775 0
M  V30 5463 O 503.128 5.70299 1.92463 0
M  V30 5464 H 506.954 3.03683 -0.0319614 0
M  V30 5465 H 504.539 1.49178 -0.0814188 0
M  V30 5466 H 506.421 3.47683 2.38106 0
M  V30 5467 H 505.096 2.28414 2.29366 0
M  V30 5468 H 504.003 3.71159 0.468174 0
M  V30 5469 H 505.336 4.8808 0.635501 0
M  V30 5470 N 506.988 0.0434614 1.5754 0
M  V30 5471 C 507.898 -0.94893 2.14552 0
M  V30 5472 C 508.914 -1.34707 1.10136 0
M  V30 5473 O 510.09 -1.42557 1.42266 0
M  V30 5474 C 507.155 -2.208 2.67298 0
M  V30 5475 C 506.216 -1.86893 3.86484 0
M  V30 5476 C 505.449 -3.06797 4.36705 0
M  V30 5477 O 505.672 -4.19921 3.86034 0
M  V30 5478 O 504.606 -2.8826 5.28384 0
M  V30 5479 H 508.432 -0.494099 2.99654 0
M  V30 5480 H 506.017 -0.177989 1.48336 0
M  V30 5481 H 507.899 -2.94686 3.01228 0
M  V30 5482 H 506.574 -2.65436 1.85272 0
M  V30 5483 H 505.481 -1.10347 3.57455 0
M  V30 5484 H 506.814 -1.47062 4.69716 0
M  V30 5485 N 508.466 -1.55915 -0.229846 0
M  V30 5486 C 509.694 -1.82617 -0.972562 0
M  V30 5487 C 510.109 -0.621488 -1.78278 0
M  V30 5488 O 509.466 0.409956 -1.77836 0
M  V30 5489 C 509.517 -3.0774 -1.89679 0
M  V30 5490 O 509.238 -4.23559 -1.11934 0
M  V30 5491 C 510.739 -3.47368 -2.75409 0
M  V30 5492 H 507.959 -0.60727 -0.285419 0
M  V30 5493 H 510.503 -2.02996 -0.247579 0
M  V30 5494 H 508.658 -2.89361 -2.57583 0
M  V30 5495 H 509.072 -4.94586 -1.74599 0
M  V30 5496 H 510.546 -4.37977 -3.35977 0
M  V30 5497 H 511.023 -2.68737 -3.47386 0
M  V30 5498 H 511.629 -3.68158 -2.12931 0
M  V30 5499 N 509.944 0.496216 -1.49584 0
M  V30 5500 C 510.894 1.59422 -1.62999 0
M  V30 5501 C 511.878 1.53402 -0.485457 0
M  V30 5502 O 513.07 1.60851 -0.738649 0
M  V30 5503 C 510.199 2.98009 -1.70427 0
M  V30 5504 C 509.285 3.09008 -2.90473 0
M  V30 5505 N 509.676 2.89884 -4.14489 0
M  V30 5506 C 507.974 3.40115 -2.8851 0
M  V30 5507 C 508.675 3.0519 -4.95211 0
M  V30 5508 N 507.651 3.3428 -4.2867 0
M  V30 5509 H 511.453 1.43297 -2.56599 0
M  V30 5510 H 508.967 0.702443 -1.46422 0
M  V30 5511 H 510.964 3.76926 -1.78136 0
M  V30 5512 H 509.624 3.152 -0.77967 0
M  V30 5513 H 510.635 2.65963 -4.44392 0
M  V30 5514 H 507.312 3.63452 -2.05448 0
M  V30 5515 H 508.702 2.94856 -6.03746 0
M  V30 5516 N 511.423 1.38739 0.74761 0
M  V30 5517 C 512.353 1.39173 1.87492 0
M  V30 5518 C 513.334 0.256794 1.6815 0
M  V30 5519 O 514.519 0.460762 1.88655 0
M  V30 5520 C 511.649 1.22197 3.25093 0
M  V30 5521 C 510.603 2.32957 3.59047 0
M  V30 5522 C 509.929 2.01082 4.95449 0
M  V30 5523 C 511.229 3.75237 3.6331 0
M  V30 5524 H 512.923 2.3351 1.87386 0
M  V30 5525 H 510.469 1.12399 0.900134 0
M  V30 5526 H 512.422 1.21124 4.03617 0
M  V30 5527 H 511.146 0.243241 3.25693 0
M  V30 5528 H 509.805 2.33226 2.82845 0
M  V30 5529 H 509.453 1.01678 4.92616 0
M  V30 5530 H 509.153 2.75267 5.19136 0
M  V30 5531 H 510.677 2.01638 5.76346 0
M  V30 5532 H 512.091 3.76966 4.31937 0
M  V30 5533 H 510.488 4.48677 3.98509 0
M  V30 5534 H 511.558 4.07122 2.634 0
M  V30 5535 N 512.901 -0.976442 1.23707 0
M  V30 5536 C 513.811 -2.10359 1.03856 0
M  V30 5537 C 514.827 -1.73991 -0.0180919 0
M  V30 5538 O 516.003 -2.0061 0.178211 0
M  V30 5539 C 513.068 -3.40809 0.636387 0
M  V30 5540 C 512.129 -3.91179 1.76854 0
M  V30 5541 C 511.362 -5.15404 1.38546 0
M  V30 5542 O 511.585 -5.69754 0.27142 0
M  V30 5543 O 510.519 -5.5994 2.20797 0
M  V30 5544 H 514.345 -2.29997 1.98331 0
M  V30 5545 H 511.93 -1.08742 1.02448 0
M  V30 5546 H 513.812 -4.19269 0.423223 0
M  V30 5547 H 512.487 -3.22493 -0.279322 0
M  V30 5548 H 511.394 -3.13819 2.03638 0
M  V30 5549 H 512.727 -4.13958 2.6627 0
M  V30 5550 N 514.379 -1.04941 -1.1758 0
M  V30 5551 C 515.289 -0.658826 -2.25159 0
M  V30 5552 C 516.305 0.318941 -1.71052 0
M  V30 5553 O 517.481 0.171669 -2.00667 0
M  V30 5554 C 514.546 -0.0369522 -3.4668 0
M  V30 5555 C 513.607 -1.06484 -4.15884 0
M  V30 5556 C 512.84 -0.472551 -5.31604 0
M  V30 5557 O 513.063 0.718736 -5.65854 0
M  V30 5558 O 511.997 -1.20557 -5.89703 0
M  V30 5559 H 515.823 -1.55533 -2.60851 0
M  V30 5560 H 513.408 -0.820819 -1.24832 0
M  V30 5561 H 515.29 0.308784 -4.20267 0
M  V30 5562 H 513.965 0.833238 -3.12792 0
M  V30 5563 H 512.872 -1.46253 -3.44327 0
M  V30 5564 H 514.205 -1.9061 -4.53794 0
M  V30 5565 N 515.857 1.33968 -0.830081 0
M  V30 5566 C 517.085 2.0228 -0.434773 0
M  V30 5567 C 517.5 1.62487 0.961419 0
M  V30 5568 O 516.857 0.833849 1.62337 0
M  V30 5569 C 516.908 3.5751 -0.535625 0
M  V30 5570 O 516.629 3.95864 -1.87679 0
M  V30 5571 C 518.13 4.43091 -0.136137 0
M  V30 5572 H 515.35 0.648151 -0.173613 0
M  V30 5573 H 517.894 1.71089 -1.12022 0
M  V30 5574 H 516.049 3.87266 0.101817 0
M  V30 5575 H 516.463 4.9056 -1.85609 0
M  V30 5576 H 517.937 5.51398 -0.257772 0
M  V30 5577 H 518.414 4.29433 0.921076 0
M  V30 5578 H 519.02 4.18677 -0.747662 0
M  V30 5579 N 517.335 0.585699 1.46312 0
M  V30 5580 C 518.563 0.0781299 2.06752 0
M  V30 5581 C 518.978 -1.22812 1.43396 0
M  V30 5582 O 518.335 -1.74318 0.540314 0
M  V30 5583 C 518.386 -0.0911927 3.61385 0
M  V30 5584 O 518.107 1.16336 4.22371 0
M  V30 5585 C 519.608 -0.632765 4.38761 0
M  V30 5586 H 516.828 0.0588188 0.668417 0
M  V30 5587 H 519.372 0.807218 1.87894 0
M  V30 5588 H 517.527 -0.770514 3.7966 0
M  V30 5589 H 517.941 0.979082 5.15281 0
M  V30 5590 H 519.415 -0.70041 5.47538 0
M  V30 5591 H 519.892 -1.65039 4.07012 0
M  V30 5592 H 520.498 0.0117856 4.25298 0
M  V30 5593 N 518.813 -1.54241 0.323641 0
M  V30 5594 C 519.723 -2.28033 -0.551205 0
M  V30 5595 C 520.739 -1.32388 -1.12913 0
M  V30 5596 O 521.915 -1.65403 -1.14908 0
M  V30 5597 C 518.98 -3.02382 -1.69606 0
M  V30 5598 C 518.041 -4.13612 -1.14993 0
M  V30 5599 C 517.274 -4.84407 -2.24022 0
M  V30 5600 O 517.497 -4.54716 -3.44368 0
M  V30 5601 O 516.431 -5.71312 -1.89436 0
M  V30 5602 H 520.257 -3.03662 0.048066 0
M  V30 5603 H 517.842 -1.49133 0.0893289 0
M  V30 5604 H 519.724 -3.48941 -2.36259 0
M  V30 5605 H 518.399 -2.29628 -2.28151 0
M  V30 5606 H 517.306 -3.71402 -0.448484 0
M  V30 5607 H 518.639 -4.8841 -0.609608 0
M  V30 5608 N 520.291 -0.0518155 -1.57515 0
M  V30 5609 C 521.516 0.634896 -1.97443 0
M  V30 5610 C 521.941 1.63546 -0.929207 0
M  V30 5611 O 521.299 1.80981 0.107484 0
M  V30 5612 C 521.347 1.29765 -3.36442 0
M  V30 5613 O 520.451 2.41333 -3.34413 0
M  V30 5614 H 519.792 0.164994 -0.643174 0
M  V30 5615 H 522.322 -0.120407 -2.04245 0
M  V30 5616 H 522.332 1.64918 -3.73184 0
M  V30 5617 H 521.007 0.564361 -4.12053 0
M  V30 5618 H 519.584 2.08122 -3.09418 0
M  V30 5619 N 521.769 1.56035 0.221574 0
M  V30 5620 C 522.701 1.889 1.29805 0
M  V30 5621 C 523.714 0.777269 1.43047 0
M  V30 5622 O 524.903 1.05557 1.43945 0
M  V30 5623 C 522.003 2.0825 2.67367 0
M  V30 5624 C 521.176 3.39267 2.76073 0
M  V30 5625 C 520.235 3.48049 3.94649 0
M  V30 5626 O 519.261 4.2108 3.82988 0
M  V30 5627 N 520.463 2.79191 5.08953 0
M  V30 5628 H 523.228 2.81831 1.01938 0
M  V30 5629 H 520.789 1.5658 0.411612 0
M  V30 5630 H 522.781 2.11441 3.45072 0
M  V30 5631 H 521.351 1.21944 2.87834 0
M  V30 5632 H 520.571 3.48175 1.84846 0
M  V30 5633 H 521.859 4.25575 2.7886 0
M  V30 5634 H 521.257 2.19635 5.21322 0
M  V30 5635 H 519.814 2.88043 5.84701 0
M  V30 5636 N 523.247 -0.488276 1.49845 0
M  V30 5637 C 524.179 -1.60539 1.63584 0
M  V30 5638 C 525.192 -1.5434 0.517972 0
M  V30 5639 O 526.381 -1.60041 0.790516 0
M  V30 5640 C 523.481 -2.99374 1.58835 0
M  V30 5641 C 522.654 -3.30624 2.86368 0
M  V30 5642 C 521.713 -4.4893 2.74496 0
M  V30 5643 O 520.739 -4.50085 3.48443 0
M  V30 5644 N 521.941 -5.49591 1.86894 0
M  V30 5645 H 524.706 -1.49176 2.59936 0
M  V30 5646 H 522.267 -0.67639 1.47094 0
M  V30 5647 H 524.259 -3.76459 1.48529 0
M  V30 5648 H 522.829 -3.04595 0.702892 0
M  V30 5649 H 522.049 -2.42314 3.1093 0
M  V30 5650 H 523.337 -3.48305 3.70892 0
M  V30 5651 H 522.735 -5.51467 1.26097 0
M  V30 5652 H 521.292 -6.25728 1.82503 0
M  V30 5653 N 524.725 -1.39134 -0.740242 0
M  V30 5654 C 525.673 -1.3757 -1.87556 0
M  V30 5655 C 526.667 -0.259593 -1.67399 0
M  V30 5656 O 527.873 -0.429349 -1.74804 0
M  V30 5657 H 524.248 -0.42947 -0.6173 0
M  V30 5658 H 526.219 -2.33345 -1.85991 0
M  V30 5659 C 524.968 -1.23087 -3.25184 0
M  V30 5660 H 524.291 -2.08237 -3.41288 0
M  V30 5661 H 525.731 -1.26049 -4.0483 0
M  V30 5662 C 524.19 0.0611471 -3.36845 0
M  V30 5663 O 524.72 1.03328 -3.88183 0
M  V30 5664 N 522.926 0.122454 -2.90342 0
M  V30 5665 H 522.473 -0.669329 -2.48752 0
M  V30 5666 H 522.431 0.986463 -2.98523 0
M  V30 5667 N 526.204 0.969867 -1.24223 0
M  V30 5668 C 527.452 1.70918 -1.0785 0
M  V30 5669 C 527.773 1.91186 0.383763 0
M  V30 5670 O 527.043 1.48806 1.27411 0
M  V30 5671 H 525.623 0.633334 -0.396103 0
M  V30 5672 H 528.285 1.16689 -1.56108 0
M  V30 5673 H 527.381 2.69455 -1.57482 0
M  V30 5674 N 527.682 1.05563 1.17022 0
M  V30 5675 C 528.592 0.670758 2.24807 0
M  V30 5676 C 529.608 -0.309865 1.71219 0
M  V30 5677 O 530.784 -0.161025 2.00755 0
M  V30 5678 C 527.849 0.055337 3.46656 0
M  V30 5679 C 526.91 1.08688 4.15314 0
M  V30 5680 C 526.143 0.500736 5.31346 0
M  V30 5681 O 526.366 -0.688718 5.66227 0
M  V30 5682 O 525.3 1.23683 5.89055 0
M  V30 5683 H 529.126 1.56914 2.60023 0
M  V30 5684 H 526.711 0.827428 1.24395 0
M  V30 5685 H 528.593 -0.286492 4.20425 0
M  V30 5686 H 527.268 -0.816638 3.13229 0
M  V30 5687 H 526.175 1.48077 3.43546 0
M  V30 5688 H 527.508 1.93014 4.52777 0
M  V30 5689 N 529.16 -1.33526 0.837174 0
M  V30 5690 C 530.07 -2.33023 0.271568 0
M  V30 5691 C 531.086 -1.63272 -0.601514 0
M  V30 5692 O 532.262 -1.94939 -0.506038 0
M  V30 5693 C 529.327 -3.42382 -0.545448 0
M  V30 5694 C 528.388 -4.27857 0.351709 0
M  V30 5695 C 527.621 -5.31994 -0.426409 0
M  V30 5696 O 527.844 -5.45763 -1.65828 0
M  V30 5697 O 526.778 -6.01572 0.1987 0
M  V30 5698 H 530.604 -2.83256 1.09545 0
M  V30 5699 H 528.189 -1.36837 0.599655 0
M  V30 5700 H 530.071 -4.09122 -1.00979 0
M  V30 5701 H 528.746 -2.94369 -1.34641 0
M  V30 5702 H 527.653 -3.6399 0.863853 0
M  V30 5703 H 528.986 -4.79349 1.1174 0
M  V30 5704 N 530.638 -0.59345 -1.46 0
M  V30 5705 C 531.886 -0.082988 -2.0193 0
M  V30 5706 C 532.207 1.28569 -1.46612 0
M  V30 5707 O 531.477 1.84629 -0.654909 0
M  V30 5708 H 530.057 -0.0276882 -0.746487 0
M  V30 5709 H 532.719 -0.771657 -1.78973 0
M  V30 5710 H 531.815 -0.022079 -3.12092 0
M  V30 5711 N 532.116 1.54067 -0.331816 0
M  V30 5712 C 533.344 2.05131 0.269996 0
M  V30 5713 C 533.759 1.20749 1.45138 0
M  V30 5714 O 533.116 0.240069 1.80914 0
M  V30 5715 C 533.167 3.54728 0.696456 0
M  V30 5716 O 532.888 4.35906 -0.43794 0
M  V30 5717 C 534.389 4.21916 1.36021 0
M  V30 5718 H 531.609 0.668807 0.0542042 0
M  V30 5719 H 534.153 1.98777 -0.4804 0
M  V30 5720 H 532.308 3.61342 1.39681 0
M  V30 5721 H 532.722 5.24404 -0.100334 0
M  V30 5722 H 534.196 5.28015 1.60947 0
M  V30 5723 H 534.673 3.73538 2.31011 0
M  V30 5724 H 535.279 4.19463 0.702212 0
M  V30 5725 N 533.594 0.0601682 1.57485 0
M  V30 5726 C 534.819 -0.624416 1.97777 0
M  V30 5727 C 535.244 -1.63051 0.937867 0
M  V30 5728 O 534.602 -1.81036 -0.0978845 0
M  V30 5729 C 534.65 -1.27979 3.37126 0
M  V30 5730 O 533.754 -2.39556 3.35688 0
M  V30 5731 H 533.095 -0.161581 0.64404 0
M  V30 5732 H 535.625 0.131237 2.04179 0
M  V30 5733 H 535.635 -1.62937 3.74053 0
M  V30 5734 H 534.31 -0.542501 4.12347 0
M  V30 5735 H 532.887 -2.06478 3.10517 0
M  V30 5736 N 535.072 -1.5615 -0.213296 0
M  V30 5737 C 536.3 -1.83638 -0.953139 0
M  V30 5738 C 536.715 -0.640362 -1.77609 0
M  V30 5739 O 536.072 0.391071 -1.78261 0
M  V30 5740 C 536.123 -3.09735 -1.86405 0
M  V30 5741 O 535.844 -4.24723 -1.07435 0
M  V30 5742 C 537.345 -3.5027 -2.71709 0
M  V30 5743 H 534.565 -0.610263 -0.278962 0
M  V30 5744 H 537.109 -2.03247 -0.226035 0
M  V30 5745 H 535.264 -2.92077 -2.545 0
M  V30 5746 H 535.678 -4.9641 -1.69343 0
M  V30 5747 H 537.152 -4.41515 -3.31313 0
M  V30 5748 H 537.629 -2.72406 -3.44516 0
M  V30 5749 H 538.235 -3.70396 -2.09015 0
M  V30 5750 N 536.55 0.480323 -1.50102 0
M  V30 5751 C 537.961 1.06142 -1.53593 0
M  V30 5752 C 538.312 1.93335 -0.334055 0
M  V30 5753 O 537.437 2.09188 0.55403 0
M  V30 5754 C 538.032 1.9317 -2.78336 0
M  V30 5755 C 536.591 2.46405 -2.84538 0
M  V30 5756 C 535.738 1.24521 -2.4777 0
M  V30 5757 H 538.689 0.26333 -1.565 0
M  V30 5758 H 538.71 2.78123 -2.59669 0
M  V30 5759 H 538.222 1.29683 -3.65792 0
M  V30 5760 H 536.323 3.13472 -2.01411 0
M  V30 5761 H 536.436 2.82143 -3.87211 0
M  V30 5762 H 534.8 1.57706 -2.00003 0
M  V30 5763 H 535.583 0.627102 -3.37524 0
M  V30 5764 N 538.028 1.39524 0.732853 0
M  V30 5765 C 538.938 1.40695 1.87729 0
M  V30 5766 C 539.954 0.301496 1.71368 0
M  V30 5767 O 541.13 0.543313 1.93933 0
M  V30 5768 C 538.195 1.25098 3.23344 0
M  V30 5769 C 537.256 2.45634 3.52083 0
M  V30 5770 C 536.489 2.30772 4.81228 0
M  V30 5771 O 536.712 1.31233 5.55098 0
M  V30 5772 O 535.646 3.19799 5.09914 0
M  V30 5773 H 539.472 2.37168 1.89697 0
M  V30 5774 H 537.057 1.20663 0.880959 0
M  V30 5775 H 538.939 1.18541 4.04383 0
M  V30 5776 H 537.614 0.317209 3.22142 0
M  V30 5777 H 536.521 2.57767 2.71122 0
M  V30 5778 H 537.854 3.37712 3.58066 0
M  V30 5779 N 539.506 -0.963266 1.24736 0
M  V30 5780 C 540.783 -1.68248 0.9976 0
M  V30 5781 C 541.163 -2.05599 -0.478776 0
M  V30 5782 O 540.511 -1.7626 -1.45412 0
M  V30 5783 C 540.721 -2.91118 1.92487 0
M  V30 5784 C 542.069 -3.63261 2.19833 0
M  V30 5785 O 543.093 -3.01184 1.90176 0
M  V30 5786 O 541.952 -4.75019 2.7022 0
M  V30 5787 H 539.046 -0.735744 0.377637 0
M  V30 5788 H 541.592 -1.01696 1.35853 0
M  V30 5789 H 540.364 -2.60242 2.92215 0
M  V30 5790 H 539.987 -3.65402 1.56738 0
M  V30 5791 N 540.985 -1.06182 -1.16461 0
M  V30 5792 C 541.932 -0.671613 -2.20812 0
M  V30 5793 C 542.902 0.331186 -1.62765 0
M  V30 5794 O 544.087 0.22033 -1.89524 0
M  V30 5795 C 541.227 -0.063029 -3.45042 0
M  V30 5796 C 540.34 -1.11587 -4.1734 0
M  V30 5797 C 539.475 -0.473546 -5.29085 0
M  V30 5798 C 538.514 -1.51 -5.93182 0
M  V30 5799 N 537.651 -0.891118 -6.96422 0
M  V30 5800 H 542.491 -1.56589 -2.53542 0
M  V30 5801 H 540.028 -0.782951 -1.24532 0
M  V30 5802 H 541.986 0.307344 -4.16066 0
M  V30 5803 H 540.616 0.794663 -3.12866 0
M  V30 5804 H 539.668 -1.60396 -3.44931 0
M  V30 5805 H 540.98 -1.90221 -4.61104 0
M  V30 5806 H 540.134 -0.0501432 -6.06679 0
M  V30 5807 H 538.873 0.344687 -4.8648 0
M  V30 5808 H 537.878 -1.94331 -5.14311 0
M  V30 5809 H 539.103 -2.33031 -6.37866 0
M  V30 5810 H 537.049 -0.0935753 -6.55933 0
M  V30 5811 H 536.966 -1.61486 -7.38551 0
M  V30 5812 H 538.234 -0.492822 -7.77941 0
M  V30 5813 N 542.463 1.3308 -0.844243 0
M  V30 5814 C 543.373 2.32876 -0.283922 0
M  V30 5815 C 544.389 1.63589 0.592846 0
M  V30 5816 O 545.565 1.95205 0.495693 0
M  V30 5817 C 542.63 3.42667 0.527283 0
M  V30 5818 C 541.691 4.27664 -0.374394 0
M  V30 5819 C 540.924 5.32212 0.39819 0
M  V30 5820 O 541.147 5.46635 1.62932 0
M  V30 5821 O 540.081 6.01458 -0.2306 0
M  V30 5822 H 543.907 2.82671 -1.11045 0
M  V30 5823 H 541.492 1.36518 -0.606903 0
M  V30 5824 H 543.374 4.09652 0.988078 0
M  V30 5825 H 542.049 2.95079 1.33078 0
M  V30 5826 H 540.956 3.63526 -0.883144 0
M  V30 5827 H 542.289 4.78749 -1.1428 0
M  V30 5828 N 543.941 0.601185 1.45683 0
M  V30 5829 C 545.166 0.0982245 2.07167 0
M  V30 5830 C 545.591 -1.20546 1.44396 0
M  V30 5831 O 544.949 -1.73247 0.534347 0
M  V30 5832 C 544.997 -0.0346976 3.60583 0
M  V30 5833 O 544.101 -1.08657 3.97828 0
M  V30 5834 H 543.442 0.0711618 0.660176 0
M  V30 5835 H 545.972 0.829376 1.87036 0
M  V30 5836 H 545.982 -0.234969 4.07323 0
M  V30 5837 H 544.657 0.917265 4.05659 0
M  V30 5838 H 543.234 -0.863275 3.6277 0
M  V30 5839 N 545.419 -1.53889 0.339982 0
M  V30 5840 C 546.667 -2.00458 -0.257112 0
M  V30 5841 C 546.988 -1.22953 -1.51353 0
M  V30 5842 O 546.258 -0.335734 -1.93002 0
M  V30 5843 H 544.838 -0.740544 -0.0979965 0
M  V30 5844 H 547.5 -1.89386 0.460317 0
M  V30 5845 H 546.596 -3.08035 -0.502057 0
M  V30 5846 N 546.897 -0.0685191 -1.57451 0
M  V30 5847 C 547.829 0.929372 -2.09512 0
M  V30 5848 C 548.842 1.26354 -1.02657 0
M  V30 5849 O 550.031 1.2213 -1.30179 0
M  V30 5850 C 547.131 2.24612 -2.53777 0
M  V30 5851 C 546.304 2.09128 -3.84167 0
M  V30 5852 C 545.363 3.24079 -4.14559 0
M  V30 5853 O 544.389 2.99215 -4.8421 0
M  V30 5854 N 545.591 4.49077 -3.67845 0
M  V30 5855 H 548.356 0.484901 -2.95751 0
M  V30 5856 H 545.917 0.11729 -1.61475 0
M  V30 5857 H 547.909 3.00412 -2.71172 0
M  V30 5858 H 546.479 2.60569 -1.72692 0
M  V30 5859 H 545.699 1.17815 -3.76182 0
M  V30 5860 H 546.987 1.9603 -4.69521 0
M  V30 5861 H 546.385 4.72165 -3.11571 0
M  V30 5862 H 544.942 5.21915 -3.90446 0
M  V30 5863 N 548.375 1.56261 0.205012 0
M  V30 5864 C 549.285 1.96944 1.27476 0
M  V30 5865 C 550.301 0.875636 1.50362 0
M  V30 5866 O 551.477 1.18058 1.6317 0
M  V30 5867 C 548.542 2.29219 2.60115 0
M  V30 5868 C 547.603 3.52255 2.45387 0
M  V30 5869 C 546.836 3.8298 3.71701 0
M  V30 5870 O 547.059 3.15138 4.75441 0
M  V30 5871 O 545.993 4.76435 3.67823 0
M  V30 5872 H 549.819 2.88144 0.959527 0
M  V30 5873 H 547.404 1.43686 0.409217 0
M  V30 5874 H 549.286 2.51098 3.3842 0
M  V30 5875 H 547.961 1.4119 2.91285 0
M  V30 5876 H 546.868 3.35635 1.65227 0
M  V30 5877 H 548.201 4.40719 2.19152 0
M  V30 5878 N 549.853 -0.472356 1.50355 0
M  V30 5879 C 551.101 -1.22211 1.60962 0
M  V30 5880 C 551.422 -1.92497 0.311439 0
M  V30 5881 O 550.692 -1.8405 -0.671002 0
M  V30 5882 H 549.272 -0.454092 0.593135 0
M  V30 5883 H 551.934 -0.544977 1.87126 0
M  V30 5884 H 551.03 -1.9707 2.42012 0
M  V30 5885 N 551.331 -1.39911 -0.725443 0
M  V30 5886 C 552.577 -1.37858 -1.48738 0
M  V30 5887 C 552.91 0.0224187 -1.94187 0
M  V30 5888 O 552.185 0.989204 -1.67466 0
M  V30 5889 C 552.468 -2.3594 -2.72038 0
M  V30 5890 C 552.321 -3.85023 -2.32546 0
M  V30 5891 C 553.64 -2.31704 -3.74167 0
M  V30 5892 H 550.759 -0.502074 -0.539528 0
M  V30 5893 H 553.401 -1.70974 -0.828728 0
M  V30 5894 H 551.551 -2.0783 -3.28236 0
M  V30 5895 H 553.223 -4.2392 -1.81905 0
M  V30 5896 H 551.466 -4.01334 -1.64661 0
M  V30 5897 H 552.137 -4.49152 -3.20884 0
M  V30 5898 H 554.613 -2.5658 -3.27576 0
M  V30 5899 H 553.489 -3.02395 -4.58092 0
M  V30 5900 H 553.75 -1.3253 -4.21768 0
M  V30 5901 N 552.809 0.956637 -1.25245 0
M  V30 5902 C 554.086 1.67716 -1.00651 0
M  V30 5903 C 554.466 2.0585 0.467866 0
M  V30 5904 O 553.814 1.77029 1.44475 0
M  V30 5905 C 554.024 2.90093 -1.94028 0
M  V30 5906 C 555.372 3.6209 -2.21756 0
M  V30 5907 O 556.396 3.00171 -1.9177 0
M  V30 5908 O 555.255 4.7358 -2.72735 0
M  V30 5909 H 552.349 0.733731 -0.381533 0
M  V30 5910 H 554.895 1.00974 -1.3639 0
M  V30 5911 H 553.667 2.58689 -2.93591 0
M  V30 5912 H 553.29 3.64566 -1.58674 0
M  V30 5913 N 554.287 1.06798 1.15896 0
M  V30 5914 C 555.512 0.808739 1.90982 0
M  V30 5915 C 555.937 -0.6316 1.77179 0
M  V30 5916 O 555.295 -1.4407 1.10061 0
M  V30 5917 C 555.343 1.21468 3.39526 0
M  V30 5918 O 554.447 0.356562 4.10856 0
M  V30 5919 H 553.788 0.29512 0.594811 0
M  V30 5920 H 556.318 1.42513 1.46804 0
M  V30 5921 H 556.328 1.18844 3.90308 0
M  V30 5922 H 555.003 2.26379 3.48891 0
M  V30 5923 H 553.58 0.444808 3.70238 0
M  V30 5924 N 555.766 -1.3263 0.851289 0
M  V30 5925 C 556.699 -2.26952 0.238318 0
M  V30 5926 C 557.677 -1.50243 -0.621757 0
M  V30 5927 O 558.861 -1.79378 -0.579298 0
M  V30 5928 C 555.988 -3.32124 -0.664178 0
M  V30 5929 C 555.034 -4.26325 0.122067 0
M  V30 5930 S 555.867 -5.14404 1.48824 0
M  V30 5931 C 557.023 -6.231 0.591372 0
M  V30 5932 H 557.256 -2.78594 1.03791 0
M  V30 5933 H 554.789 -1.4011 0.648731 0
M  V30 5934 H 556.747 -3.93197 -1.17924 0
M  V30 5935 H 555.408 -2.79273 -1.43755 0
M  V30 5936 H 554.601 -5.00821 -0.565181 0
M  V30 5937 H 554.203 -3.69652 0.568602 0
M  V30 5938 H 556.495 -6.77187 -0.205762 0
M  V30 5939 H 557.438 -6.95936 1.30687 0
M  V30 5940 H 557.846 -5.64252 0.167206 0
M  V30 5941 N 557.244 -0.608902 -1.45362 0
M  V30 5942 C 558.207 0.0992563 -2.28985 0
M  V30 5943 C 559.207 0.793841 -1.39838 0
M  V30 5944 O 560.397 0.641804 -1.61946 0
M  V30 5945 C 557.529 1.15073 -3.20891 0
M  V30 5946 H 558.722 -0.635964 -2.93079 0
M  V30 5947 H 556.275 -0.368007 -1.51906 0
M  V30 5948 H 557.01 1.91667 -2.616 0
M  V30 5949 H 556.795 0.656867 -3.86559 0
M  V30 5950 H 558.285 1.64665 -3.83765 0
M  V30 5951 N 558.722 1.53707 -0.348139 0
M  V30 5952 C 559.632 2.28881 0.514857 0
M  V30 5953 C 560.648 1.34168 1.10793 0
M  V30 5954 O 561.824 1.6721 1.12262 0
M  V30 5955 C 558.889 3.05042 1.64774 0
M  V30 5956 C 557.95 4.15389 1.08398 0
M  V30 5957 C 557.183 4.87909 2.16287 0
M  V30 5958 O 557.406 4.60137 3.3709 0
M  V30 5959 O 556.34 5.74254 1.80323 0
M  V30 5960 H 560.166 3.03547 -0.0963699 0
M  V30 5961 H 557.751 1.48972 -0.113043 0
M  V30 5962 H 559.633 3.52656 2.30677 0
M  V30 5963 H 558.308 2.33228 2.24469 0
M  V30 5964 H 557.215 3.72068 0.389341 0
M  V30 5965 H 558.548 4.89318 0.531829 0
M  V30 5966 N 560.2 0.0768682 1.57412 0
M  V30 5967 C 561.11 -0.903207 2.16516 0
M  V30 5968 C 562.126 -1.32341 1.12968 0
M  V30 5969 O 563.302 -1.39507 1.45258 0
M  V30 5970 C 560.367 -2.1508 2.71922 0
M  V30 5971 C 559.428 -1.78653 3.90361 0
M  V30 5972 C 558.661 -2.97465 4.43114 0
M  V30 5973 O 558.884 -4.11638 3.94854 0
M  V30 5974 O 557.818 -2.76987 5.3438 0
M  V30 5975 H 561.644 -0.430427 3.00634 0
M  V30 5976 H 559.229 -0.146485 1.4868 0
M  V30 5977 H 561.111 -2.8823 3.07411 0
M  V30 5978 H 559.786 -2.61446 1.9086 0
M  V30 5979 H 558.693 -1.0274 3.59716 0
M  V30 5980 H 560.026 -1.37066 4.7273 0
M  V30 5981 N 561.678 -1.56367 -0.196722 0
M  V30 5982 C 562.926 -1.80172 -0.915554 0
M  V30 5983 C 563.247 -0.649649 -1.8386 0
M  V30 5984 O 562.517 0.332111 -1.93064 0
M  V30 5985 H 561.097 -0.664592 -0.341067 0
M  V30 5986 H 563.759 -1.93844 -0.202622 0
M  V30 5987 H 562.855 -2.7327 -1.50764 0
M  V30 5988 N 563.156 0.464375 -1.50603 0
M  V30 5989 C 564.384 1.23907 -1.65695 0
M  V30 5990 C 564.799 1.85658 -0.343027 0
M  V30 5991 O 564.156 1.69529 0.675739 0
M  V30 5992 C 564.207 2.3429 -2.75301 0
M  V30 5993 O 563.928 1.7507 -4.01599 0
M  V30 5994 C 565.429 3.25051 -3.01424 0
M  V30 5995 H 562.649 0.374485 -0.556778 0
M  V30 5996 H 565.193 0.55353 -1.96866 0
M  V30 5997 H 563.348 2.98607 -2.46804 0
M  V30 5998 H 563.762 2.47812 -4.62266 0
M  V30 5999 H 565.236 3.98699 -3.81763 0
M  V30 6000 H 565.713 3.84227 -2.12758 0
M  V30 6001 H 566.319 2.66463 -3.31477 0
M  V30 6002 N 564.634 1.40294 0.718013 0
M  V30 6003 C 565.859 1.41941 1.5122 0
M  V30 6004 C 566.284 0.0202371 1.88089 0
M  V30 6005 O 565.642 -0.971078 1.53101 0
M  V30 6006 C 565.69 2.3141 2.76554 0
M  V30 6007 O 564.794 1.75567 3.73162 0
M  V30 6008 H 564.135 0.482644 0.456016 0
M  V30 6009 H 566.665 1.84494 0.884478 0
M  V30 6010 H 566.675 2.46513 3.25108 0
M  V30 6011 H 565.35 3.33085 2.49053 0
M  V30 6012 H 563.927 1.69798 3.31999 0
M  V30 6013 N 566.112 -0.949982 1.2575 0
M  V30 6014 C 567.389 -1.6718 1.01539 0
M  V30 6015 C 567.769 -2.06095 -0.456942 0
M  V30 6016 O 567.117 -1.77792 -1.43534 0
M  V30 6017 C 567.327 -2.8906 1.95564 0
M  V30 6018 C 568.675 -3.60909 2.23673 0
M  V30 6019 O 569.699 -2.9915 1.9336 0
M  V30 6020 O 568.558 -4.72127 2.75243 0
M  V30 6021 H 565.652 -0.731697 0.385419 0
M  V30 6022 H 568.198 -1.00249 1.36924 0
M  V30 6023 H 566.97 -2.57128 2.94959 0
M  V30 6024 H 566.593 -3.63719 1.60605 0
M  V30 6025 N 567.59 -1.07411 -1.15328 0
M  V30 6026 C 568.815 -0.818856 -1.90551 0
M  V30 6027 C 569.24 0.622194 -1.77512 0
M  V30 6028 O 568.598 1.43484 -1.10824 0
M  V30 6029 C 568.646 -1.23267 -3.38877 0
M  V30 6030 O 567.75 -0.378345 -4.10661 0
M  V30 6031 H 567.091 -0.29827 -0.593238 0
M  V30 6032 H 569.621 -1.43289 -1.46046 0
M  V30 6033 H 569.631 -1.20912 -3.89672 0
M  V30 6034 H 568.306 -2.28226 -3.47686 0
M  V30 6035 H 566.883 -0.464437 -3.69996 0
M  V30 6036 N 569.068 1.32177 -0.85831 0
M  V30 6037 C 570.016 2.30729 -0.294442 0
M  V30 6038 C 571.01 1.59009 0.584165 0
M  V30 6039 O 572.216 1.73713 0.471562 0
M  V30 6040 H 568.591 0.748097 -0.0765171 0
M  V30 6041 H 570.562 2.75774 -1.1398 0
M  V30 6042 C 569.311 3.44098 0.499208 0
M  V30 6043 H 568.634 3.99449 -0.167579 0
M  V30 6044 H 570.074 4.15202 0.859273 0
M  V30 6045 C 568.533 2.91684 1.68588 0
M  V30 6046 O 569.063 2.89481 2.78503 0
M  V30 6047 N 567.269 2.48036 1.51415 0
M  V30 6048 H 566.816 2.50027 0.620006 0
M  V30 6049 H 566.774 2.13322 2.30957 0
M  V30 6050 N 570.547 0.616602 1.45037 0
M  V30 6051 C 571.775 0.121968 2.0654 0
M  V30 6052 C 572.19 -1.19743 1.45969 0
M  V30 6053 O 571.547 -1.73133 0.577168 0
M  V30 6054 C 571.598 -0.0145171 3.61497 0
M  V30 6055 O 571.319 1.25269 4.19809 0
M  V30 6056 C 572.82 -0.539555 4.40004 0
M  V30 6057 H 570.04 0.0729837 0.667019 0
M  V30 6058 H 572.584 0.846891 1.8614 0
M  V30 6059 H 570.739 -0.689809 3.81209 0
M  V30 6060 H 571.153 1.08816 5.13088 0
M  V30 6061 H 572.627 -0.584112 5.48901 0
M  V30 6062 H 573.104 -1.56368 4.10421 0
M  V30 6063 H 573.71 0.101995 4.25178 0
M  V30 6064 N 572.025 -1.5352 0.356285 0
M  V30 6065 C 573.273 -2.00719 -0.235837 0
M  V30 6066 C 573.594 -1.24551 -1.5004 0
M  V30 6067 O 572.864 -0.356185 -1.92635 0
M  V30 6068 H 571.444 -0.741542 -0.0901366 0
M  V30 6069 H 574.106 -1.88887 0.480378 0
M  V30 6070 H 573.202 -3.08551 -0.469357 0
M  V30 6071 N 573.503 -0.0852151 -1.57369 0
M  V30 6072 C 574.728 0.592872 -1.98746 0
M  V30 6073 C 575.153 1.61538 -0.963689 0
M  V30 6074 O 574.511 1.81168 0.069071 0
M  V30 6075 C 574.559 1.22599 -3.39119 0
M  V30 6076 O 573.663 2.34185 -3.39457 0
M  V30 6077 H 573.004 0.151314 -0.646529 0
M  V30 6078 H 575.534 -0.163703 -2.03944 0
M  V30 6079 H 575.544 1.56965 -3.76598 0
M  V30 6080 H 574.219 0.476831 -4.13158 0
M  V30 6081 H 572.796 2.01512 -3.13763 0
M  V30 6082 N 574.981 1.5647 0.188427 0
M  V30 6083 C 575.891 1.98285 1.2538 0
M  V30 6084 C 576.907 0.891535 1.49424 0
M  V30 6085 O 578.083 1.19782 1.61908 0
M  V30 6086 C 575.148 2.31965 2.57669 0
M  V30 6087 C 574.209 3.54838 2.41638 0
M  V30 6088 C 573.442 3.86901 3.67618 0
M  V30 6089 O 573.665 3.20163 4.72072 0
M  V30 6090 O 572.599 4.80309 3.62749 0
M  V30 6091 H 576.425 2.89145 0.928912 0
M  V30 6092 H 574.01 1.44112 0.393955 0
M  V30 6093 H 575.892 2.54673 3.35737 0
M  V30 6094 H 574.567 1.44271 2.89771 0
M  V30 6095 H 573.474 3.37369 1.61658 0
M  V30 6096 H 574.807 4.43019 2.14465 0
M  V30 6097 N 576.459 -0.456382 1.50847 0
M  V30 6098 C 577.684 -1.2349 1.66628 0
M  V30 6099 C 578.109 -1.84715 0.355254 0
M  V30 6100 O 577.467 -1.67961 -0.682559 0
M  V30 6101 C 577.515 -2.30865 2.77009 0
M  V30 6102 O 576.619 -3.35882 2.39285 0
M  V30 6103 H 575.96 -0.36266 0.556214 0
M  V30 6104 H 578.49 -0.541374 1.97308 0
M  V30 6105 H 578.5 -2.75949 3.00526 0
M  V30 6106 H 577.175 -1.85677 3.72152 0
M  V30 6107 H 575.752 -2.96406 2.26269 0
M  V30 6108 N 577.937 -1.40673 -0.710563 0
M  V30 6109 C 578.885 -1.41517 -1.84596 0
M  V30 6110 C 579.879 -0.295043 -1.66811 0
M  V30 6111 O 581.085 -0.466331 -1.73854 0
M  V30 6112 H 577.46 -0.442467 -0.608052 0
M  V30 6113 H 579.431 -2.37238 -1.80999 0
M  V30 6114 C 578.18 -1.29957 -3.225 0
M  V30 6115 H 577.503 -2.15429 -3.36794 0
M  V30 6116 H 578.943 -1.34608 -4.02066 0
M  V30 6117 C 577.402 -0.0103164 -3.36898 0
M  V30 6118 O 577.932 0.950707 -3.90288 0
M  V30 6119 N 576.138 0.0608409 -2.90536 0
M  V30 6120 H 575.685 -0.721943 -2.47277 0
M  V30 6121 H 575.643 0.92292 -3.00549 0
M  V30 6122 N 579.415 0.9433 -1.26252 0
M  V30 6123 C 580.64 1.72898 -1.14547 0
M  V30 6124 C 581.065 1.85761 0.295743 0
M  V30 6125 O 580.423 1.3463 1.21427 0
M  V30 6126 C 580.471 3.11471 -1.8171 0
M  V30 6127 O 579.575 3.97336 -1.10445 0
M  V30 6128 H 578.916 0.530555 -0.399259 0
M  V30 6129 H 581.446 1.18159 -1.67032 0
M  V30 6130 H 581.456 3.61872 -1.88449 0
M  V30 6131 H 580.131 3.01425 -2.86558 0
M  V30 6132 H 578.708 3.55788 -1.11666 0
M  V30 6133 N 580.893 1.08022 1.14757 0
M  V30 6134 C 581.856 0.71048 2.1791 0
M  V30 6135 C 582.856 -0.252731 1.58801 0
M  V30 6136 O 584.046 -0.0327915 1.74169 0
M  V30 6137 C 581.178 0.0483203 3.40866 0
M  V30 6138 H 582.371 1.62384 2.52134 0
M  V30 6139 H 579.924 0.877595 1.29337 0
M  V30 6140 H 580.659 -0.876959 3.12218 0
M  V30 6141 H 580.444 0.741189 3.85031 0
M  V30 6142 H 581.934 -0.195471 4.17142 0
M  V30 6143 N 582.371 -1.3172 0.865308 0
M  V30 6144 C 583.599 -2.01057 0.488251 0
M  V30 6145 C 584.014 -1.64979 -0.918 0
M  V30 6146 O 583.371 -0.876597 -1.60069 0
M  V30 6147 C 583.422 -3.55964 0.630224 0
M  V30 6148 O 583.143 -3.90749 1.98109 0
M  V30 6149 C 584.644 -4.42574 0.253567 0
M  V30 6150 H 581.864 -0.64332 0.190736 0
M  V30 6151 H 584.408 -1.68058 1.16519 0
M  V30 6152 H 582.563 -3.874 0.000895422 0
M  V30 6153 H 582.977 -4.85467 1.9855 0
M  V30 6154 H 584.451 -5.50521 0.403875 0
M  V30 6155 H 584.928 -4.31724 -0.806895 0
M  V30 6156 H 585.534 -4.16547 0.858404 0
M  V30 6157 N 583.85 -0.624285 -1.44708 0
M  V30 6158 C 585.096 -0.126237 -2.02407 0
M  V30 6159 C 585.428 1.24618 -1.48943 0
M  V30 6160 O 584.704 1.82569 -0.670742 0
M  V30 6161 C 584.986 -0.105449 -3.59946 0
M  V30 6162 C 584.84 -1.50972 -4.23707 0
M  V30 6163 C 586.159 0.573629 -4.36346 0
M  V30 6164 H 583.278 -0.0473472 -0.735478 0
M  V30 6165 H 585.92 -0.799452 -1.72362 0
M  V30 6166 H 584.07 0.46783 -3.85673 0
M  V30 6167 H 585.742 -2.13136 -4.0911 0
M  V30 6168 H 583.985 -2.0656 -3.81465 0
M  V30 6169 H 584.656 -1.44727 -5.32689 0
M  V30 6170 H 587.132 0.0861787 -4.16011 0
M  V30 6171 H 586.008 0.557338 -5.46063 0
M  V30 6172 H 586.269 1.64276 -4.10446 0
M  V30 6173 N 585.328 1.53329 -0.364422 0
M  V30 6174 C 586.238 2.29414 0.490552 0
M  V30 6175 C 587.254 1.35335 1.09363 0
M  V30 6176 O 588.43 1.68391 1.10483 0
M  V30 6177 C 585.495 3.06772 1.61529 0
M  V30 6178 C 584.556 4.16516 1.03986 0
M  V30 6179 C 583.789 4.90176 2.111 0
M  V30 6180 O 584.012 4.63687 3.32191 0
M  V30 6181 O 582.946 5.76134 1.74222 0
M  V30 6182 H 586.772 3.03428 -0.12856 0
M  V30 6183 H 584.357 1.48843 -0.128837 0
M  V30 6184 H 586.239 3.55082 2.26924 0
M  V30 6185 H 584.914 2.35596 2.21983 0
M  V30 6186 H 583.821 3.7246 0.349856 0
M  V30 6187 H 585.154 4.89855 0.4799 0
M  V30 6188 N 586.806 0.0935595 1.57322 0
M  V30 6189 C 587.716 -0.880192 2.17462 0
M  V30 6190 C 588.732 -1.31135 1.14366 0
M  V30 6191 O 589.908 -1.37958 1.46729 0
M  V30 6192 C 586.973 -2.12184 2.74188 0
M  V30 6193 C 586.034 -1.74503 3.92234 0
M  V30 6194 C 585.267 -2.92748 4.46245 0
M  V30 6195 O 585.49 -4.07427 3.99198 0
M  V30 6196 O 584.424 -2.71303 5.37288 0
M  V30 6197 H 588.25 -0.398516 3.01074 0
M  V30 6198 H 585.835 -0.130707 1.48827 0
M  V30 6199 H 587.717 -2.84953 3.10451 0
M  V30 6200 H 586.392 -2.59407 1.93623 0
M  V30 6201 H 585.299 -0.989186 3.60785 0
M  V30 6202 H 586.632 -1.32044 4.74157 0
M  V30 6203 N 588.284 -1.56567 -0.180126 0
M  V30 6204 C 589.695 -1.7126 -0.743422 0
M  V30 6205 C 590.046 -0.70263 -1.83187 0
M  V30 6206 O 589.171 0.137856 -2.1596 0
M  V30 6207 C 589.766 -3.10512 -1.35528 0
M  V30 6208 C 588.325 -3.26919 -1.8655 0
M  V30 6209 C 587.472 -2.67213 -0.741099 0
M  V30 6210 H 590.423 -1.58636 0.0451543 0
M  V30 6211 H 590.444 -3.08673 -2.22489 0
M  V30 6212 H 589.956 -3.83997 -0.562862 0
M  V30 6213 H 588.057 -2.58376 -2.68464 0
M  V30 6214 H 588.17 -4.34574 -2.01699 0
M  V30 6215 H 586.534 -2.26788 -1.15927 0
M  V30 6216 H 587.317 -3.43277 0.0393291 0
M  V30 6217 N 589.762 0.448376 -1.51087 0
M  V30 6218 C 591.173 1.0286 -1.5581 0
M  V30 6219 C 591.524 1.92583 -0.374989 0
M  V30 6220 O 590.649 2.10316 0.509533 0
M  V30 6221 C 591.244 1.87223 -2.8237 0
M  V30 6222 C 589.803 2.40314 -2.897 0
M  V30 6223 C 588.95 1.19238 -2.50355 0
M  V30 6224 H 591.901 0.230075 -1.57023 0
M  V30 6225 H 591.922 2.72553 -2.6551 0
M  V30 6226 H 591.434 1.21894 -3.68461 0
M  V30 6227 H 589.535 3.09129 -2.08014 0
M  V30 6228 H 589.648 2.73866 -3.93108 0
M  V30 6229 H 588.012 1.53428 -2.03303 0
M  V30 6230 H 588.795 0.555367 -3.38778 0
M  V30 6231 N 591.24 1.41047 0.703093 0
M  V30 6232 C 592.468 1.4334 1.49202 0
M  V30 6233 C 592.883 0.0365596 1.88765 0
M  V30 6234 O 592.24 -0.942419 1.56284 0
M  V30 6235 C 592.291 2.33538 2.75939 0
M  V30 6236 O 592.012 3.67786 2.38045 0
M  V30 6237 C 593.513 2.44555 3.6974 0
M  V30 6238 H 590.733 0.488472 0.460039 0
M  V30 6239 H 593.277 1.85245 0.86629 0
M  V30 6240 H 591.432 1.94962 3.34766 0
M  V30 6241 H 591.846 4.15816 3.19683 0
M  V30 6242 H 593.32 3.11849 4.55471 0
M  V30 6243 H 593.797 1.47447 4.1371 0
M  V30 6244 H 594.403 2.83735 3.16819 0
M  V30 6245 N 592.718 -0.936591 1.26751 0
M  V30 6246 C 593.995 -1.66094 1.03306 0
M  V30 6247 C 594.375 -2.06568 -0.435058 0
M  V30 6248 O 593.723 -1.79305 -1.41641 0
M  V30 6249 C 593.933 -2.86969 1.98619 0
M  V30 6250 C 595.281 -3.58516 2.27489 0
M  V30 6251 O 596.305 -2.97082 1.96522 0
M  V30 6252 O 595.164 -4.69181 2.80235 0
M  V30 6253 H 592.258 -0.727568 0.393158 0
M  V30 6254 H 594.804 -0.987914 1.3798 0
M  V30 6255 H 593.576 -2.53985 2.9767 0
M  V30 6256 H 593.199 -3.61996 1.64454 0
M  V30 6257 N 594.196 -1.08629 -1.14182 0
M  V30 6258 C 595.607 -0.838003 -1.66836 0
M  V30 6259 C 595.958 0.634885 -1.85644 0
M  V30 6260 O 595.083 1.49008 -1.56926 0
M  V30 6261 C 595.678 -1.51465 -3.03058 0
M  V30 6262 C 594.237 -1.31355 -3.52736 0
M  V30 6263 C 593.384 -1.57599 -2.28162 0
M  V30 6264 H 596.335 -1.24656 -0.982165 0
M  V30 6265 H 596.356 -0.943134 -3.68626 0
M  V30 6266 H 595.868 -2.58661 -2.89337 0
M  V30 6267 H 593.969 -0.262384 -3.71675 0
M  V30 6268 H 594.082 -2.04275 -4.33369 0
M  V30 6269 H 592.446 -0.997659 -2.34348 0
M  V30 6270 H 593.229 -2.66006 -2.17015 0
M  V30 6271 N 595.674 1.31259 -0.872281 0
M  V30 6272 C 596.923 1.95893 -0.480493 0
M  V30 6273 C 597.236 1.697 0.972688 0
M  V30 6274 O 598.442 2.28214 1.47073 0
M  V30 6275 C 596.898 3.50705 -0.808342 0
M  V30 6276 C 596.506 3.85735 -2.27844 0
M  V30 6277 C 598.25 4.21719 -0.485136 0
M  V30 6278 C 596.157 5.33668 -2.54858 0
M  V30 6279 H 595.087 0.733182 -0.175955 0
M  V30 6280 H 597.738 1.49396 -1.0655 0
M  V30 6281 H 596.12 3.95706 -0.152558 0
M  V30 6282 H 597.294 3.51686 -2.97748 0
M  V30 6283 H 595.609 3.27792 -2.56791 0
M  V30 6284 H 598.206 5.30559 -0.664166 0
M  V30 6285 H 598.549 4.12316 0.574592 0
M  V30 6286 H 599.082 3.82359 -1.09756 0
M  V30 6287 H 595.821 5.48109 -3.59523 0
M  V30 6288 H 595.341 5.69061 -1.8955 0
M  V30 6289 H 597.02 6.00958 -2.39706 0
M  V30 6290 N 597.152 0.631951 1.44375 0
M  V30 6291 C 598.563 0.219036 1.85411 0
M  V30 6292 C 598.914 -1.22974 1.52879 0
M  V30 6293 O 598.039 -1.93579 0.967266 0
M  V30 6294 C 598.634 0.39075 3.36539 0
M  V30 6295 C 597.193 0.0323351 3.76386 0
M  V30 6296 C 596.34 0.703744 2.68221 0
M  V30 6297 H 599.291 0.837056 1.3483 0
M  V30 6298 H 599.312 -0.370056 3.78696 0
M  V30 6299 H 598.824 1.44527 3.60185 0
M  V30 6300 H 596.925 -1.02042 3.58355 0
M  V30 6301 H 597.038 0.442969 4.77048 0
M  V30 6302 H 595.402 0.138974 2.54321 0
M  V30 6303 H 596.185 1.76088 2.947 0
M  V30 6304 N 598.631 -1.53133 0.372548 0
M  V30 6305 C 599.541 -2.29671 -0.478379 0
M  V30 6306 C 600.557 -1.35913 -1.08644 0
M  V30 6307 O 601.733 -1.68975 -1.09588 0
M  V30 6308 C 598.798 -3.07625 -1.599 0
M  V30 6309 C 597.859 -4.17061 -1.01776 0
M  V30 6310 C 597.092 -4.91289 -2.08497 0
M  V30 6311 O 597.315 -4.65442 -3.29727 0
M  V30 6312 O 596.249 -5.7705 -1.71164 0
M  V30 6313 H 600.075 -3.03355 0.144649 0
M  V30 6314 H 597.66 -1.48773 0.136729 0
M  V30 6315 H 599.542 -3.56281 -2.25038 0
M  V30 6316 H 598.217 -2.3677 -2.2073 0
M  V30 6317 H 597.124 -3.72641 -0.330098 0
M  V30 6318 H 598.457 -4.90102 -0.453915 0
M  V30 6319 N 600.109 -0.101901 -1.5727 0
M  V30 6320 C 601.386 0.602832 -1.86079 0
M  V30 6321 C 601.766 1.85912 -1 0
M  V30 6322 O 601.114 2.28379 -0.0742488 0
M  V30 6323 C 601.324 0.911694 -3.36881 0
M  V30 6324 C 602.672 1.2722 -4.05093 0
M  V30 6325 O 603.696 1.0025 -3.41802 0
M  V30 6326 O 602.555 1.7776 -5.16782 0
M  V30 6327 H 599.649 0.302366 -0.769743 0
M  V30 6328 H 602.195 -0.135113 -1.69161 0
M  V30 6329 H 600.967 0.0207256 -3.91295 0
M  V30 6330 H 600.59 1.70538 -3.59169 0
M  V30 6331 N 601.587 1.56661 0.17182 0
M  V30 6332 C 602.497 1.99604 1.2327 0
M  V30 6333 C 603.513 0.907333 1.4847 0
M  V30 6334 O 604.689 1.21492 1.60629 0
M  V30 6335 C 601.754 2.34685 2.55194 0
M  V30 6336 C 600.815 3.57381 2.3786 0
M  V30 6337 C 600.048 3.90779 3.63494 0
M  V30 6338 O 600.271 3.25152 4.6865 0
M  V30 6339 O 599.205 4.84129 3.57634 0
M  V30 6340 H 603.031 2.90114 0.898192 0
M  V30 6341 H 600.616 1.44522 0.378647 0
M  V30 6342 H 602.498 2.5822 3.33017 0
M  V30 6343 H 601.173 1.47336 2.88225 0
M  V30 6344 H 600.08 3.39064 1.5807 0
M  V30 6345 H 601.413 4.45268 2.09754 0
M  V30 6346 N 603.065 -0.440357 1.51323 0
M  V30 6347 C 604.012 -1.53429 1.72419 0
M  V30 6348 C 604.982 -1.56165 0.565826 0
M  V30 6349 O 606.167 -1.73222 0.799917 0
M  V30 6350 C 603.307 -2.91169 1.85242 0
M  V30 6351 C 602.42 -2.97985 3.12777 0
M  V30 6352 C 601.555 -4.26829 3.16212 0
M  V30 6353 C 600.594 -4.27501 4.38074 0
M  V30 6354 N 599.731 -5.47866 4.39076 0
M  V30 6355 H 604.571 -1.34743 2.65797 0
M  V30 6356 H 602.108 -0.654608 1.31732 0
M  V30 6357 H 604.066 -3.71087 1.90658 0
M  V30 6358 H 602.696 -3.0842 0.952744 0
M  V30 6359 H 601.748 -2.10749 3.16685 0
M  V30 6360 H 603.06 -2.94342 4.02696 0
M  V30 6361 H 602.214 -5.15118 3.20527 0
M  V30 6362 H 600.953 -4.33124 2.24176 0
M  V30 6363 H 599.958 -3.37606 4.33938 0
M  V30 6364 H 601.183 -4.22873 5.31371 0
M  V30 6365 H 599.129 -5.54887 3.49909 0
M  V30 6366 H 599.046 -5.46091 5.22801 0
M  V30 6367 H 600.314 -6.38195 4.4758 0
M  V30 6368 N 604.543 -1.41418 -0.695603 0
M  V30 6369 C 605.49 -1.43264 -1.80954 0
M  V30 6370 C 606.46 -0.287016 -1.63601 0
M  V30 6371 O 607.645 -0.488054 -1.84452 0
M  V30 6372 C 604.785 -1.32054 -3.18835 0
M  V30 6373 C 603.898 -2.56485 -3.4762 0
M  V30 6374 C 603.033 -2.3757 -4.75115 0
M  V30 6375 C 602.072 -3.57477 -4.96867 0
M  V30 6376 N 601.209 -3.37632 -6.15588 0
M  V30 6377 H 606.049 -2.38467 -1.78711 0
M  V30 6378 H 603.586 -1.18415 -0.872715 0
M  V30 6379 H 605.544 -1.23558 -3.98484 0
M  V30 6380 H 604.174 -0.404592 -3.20254 0
M  V30 6381 H 603.226 -2.75432 -2.62376 0
M  V30 6382 H 604.538 -3.45678 -3.59594 0
M  V30 6383 H 603.692 -2.2654 -5.62818 0
M  V30 6384 H 602.431 -1.45834 -4.65386 0
M  V30 6385 H 601.436 -3.68961 -4.07612 0
M  V30 6386 H 602.661 -4.50167 -5.08455 0
M  V30 6387 H 600.607 -2.48596 -6.07072 0
M  V30 6388 H 600.524 -4.20401 -6.2833 0
M  V30 6389 H 601.792 -3.30375 -7.06026 0
M  V30 6390 N 606.021 0.929856 -1.27246 0
M  V30 6391 C 606.931 2.0636 -1.11592 0
M  V30 6392 C 607.947 1.73938 -0.046496 0
M  V30 6393 O 609.123 1.9981 -0.252544 0
M  V30 6394 C 606.188 3.38213 -0.762437 0
M  V30 6395 C 605.249 3.84346 -1.9125 0
M  V30 6396 C 604.482 5.09906 -1.57579 0
M  V30 6397 O 604.705 5.68354 -0.482694 0
M  V30 6398 O 603.639 5.51359 -2.41426 0
M  V30 6399 H 607.465 2.22478 -2.0673 0
M  V30 6400 H 605.05 1.04865 -1.06413 0
M  V30 6401 H 606.932 4.1741 -0.57854 0
M  V30 6402 H 605.607 3.23307 0.159439 0
M  V30 6403 H 604.514 3.06045 -2.15144 0
M  V30 6404 H 605.847 4.0379 -2.81451 0
M  V30 6405 O 607.538 1.21494 1.06403 0
M  V30 6406 H 608.229 0.975073 1.67368 0
M  V30 END ATOM
M  V30 BEGIN BOND
M  V30 END BOND
M  V30 END CTAB
M  END
$$$$
