drugbank_target|Q969P6 DNA topoisomerase I, mitochondrial (DB00762; DB01030)
 OpenBabel12092119243D

  0  0  0     0  0            999 V3000
M  V30 BEGIN CTAB
M  V30 COUNTS 24066 25845 0 0 0
M  V30 BEGIN ATOM
M  V30 1 H -1.547 9.37743 -1.21644 0
M  V30 2 O -1.44 8.89599 -0.40059 0
M  V30 3 P 0 8.91 0 0
M  V30 4 O 0.22 10.1746 0.733838 0
M  V30 5 O 0.79 8.73346 -1.23964 0
M  V30 6 O 0.25 7.66872 0.971405 0
M  V30 7 C -0.69 7.42405 2.04668 0
M  V30 8 C 0.04 6.86059 3.24661 0
M  V30 9 O 0.25 5.42934 3.03695 0
M  V30 10 C 1.44 7.41287 3.50796 0
M  V30 11 O 1.83 7.27073 4.86816 0
M  V30 12 C 2.32 6.5273 2.63741 0
M  V30 13 C 1.61 5.1842 2.73198 0
M  V30 14 N 1.66 4.38762 1.4784 0
M  V30 15 H -1.178 8.36899 2.3252 0
M  V30 16 H -1.45 6.70391 1.71179 0
M  V30 17 H -0.582 7.03638 4.13219 0
M  V30 18 H 2.073 4.59931 3.54016 0
M  V30 19 H 2.353 6.88995 1.59871 0
M  V30 20 H 3.344 6.4684 3.0373 0
M  V30 21 H 1.51 8.47002 3.20749 0
M  V30 22 P 3.37998 7.20834 5.23717 0
M  V30 23 O 3.59998 7.79853 6.57286 0
M  V30 24 O 4.16998 7.79239 4.12957 0
M  V30 25 O 3.62998 5.63315 5.29344 0
M  V30 26 C 2.68998 4.80255 6.01876 0
M  V30 27 C 3.41998 3.64202 6.65911 0
M  V30 28 O 3.62998 2.60694 5.64732 0
M  V30 29 C 4.81998 3.93473 7.1943 0
M  V30 30 O 5.20998 3.02071 8.21205 0
M  V30 31 C 5.69998 3.73047 5.97036 0
M  V30 32 C 4.98998 2.58828 5.25741 0
M  V30 33 N 5.03998 2.68068 3.77503 0
M  V30 34 C 4.95998 3.79715 2.96723 0
M  V30 35 N 5.03998 3.5377 1.68852 0
M  V30 36 C 5.17998 2.15054 1.63254 0
M  V30 37 C 5.30998 1.28964 0.518571 0
M  V30 38 N 5.42998 -0.0538097 0.918425 0
M  V30 39 C 5.42998 -0.494275 2.22578 0
M  V30 40 N 5.55998 -1.81086 2.40434 0
M  V30 41 N 5.29998 0.313645 3.27502 0
M  V30 42 C 5.17998 1.61829 2.91033 0
M  V30 43 H 2.20098 5.40332 6.79951 0
M  V30 44 H 1.93098 4.41613 5.32378 0
M  V30 45 H 2.79798 3.26331 7.47797 0
M  V30 46 P 6.75996 2.75334 8.47391 0
M  V30 47 O 6.97996 2.44571 9.90142 0
M  V30 48 O 7.54996 3.87688 7.92115 0
M  V30 49 O 7.00996 1.4459 7.59357 0
M  V30 50 C 6.06996 0.347608 7.69215 0
M  V30 51 C 6.79996 -0.96767 7.52806 0
M  V30 52 O 7.00996 -1.21036 6.1011 0
M  V30 53 C 8.19996 -1.04544 8.13308 0
M  V30 54 O 8.58996 -2.38311 8.41922 0
M  V30 55 C 9.07996 -0.491279 7.02284 0
M  V30 56 C 8.36996 -0.996264 5.77469 0
M  V30 57 N 8.41996 -0.0501916 4.62973 0
M  V30 58 H 5.58096 0.374722 8.67691 0
M  V30 59 H 5.31096 0.443485 6.90277 0
M  V30 60 H 6.17796 -1.75537 7.96793 0
M  V30 61 P 10.1399 -2.75334 8.47391 0
M  V30 62 O 10.3599 -3.84128 9.44797 0
M  V30 63 O 10.9299 -1.51947 8.68712 0
M  V30 64 O 10.3899 -3.29363 6.99321 0
M  V30 65 C 9.44994 -4.24011 6.4274 0
M  V30 66 C 10.1799 -5.20775 5.52155 0
M  V30 67 O 10.3899 -4.56534 4.22446 0
M  V30 68 C 11.5799 -5.62629 5.96531 0
M  V30 69 O 11.9699 -6.87667 5.41053 0
M  V30 70 C 12.4599 -4.52537 5.39283 0
M  V30 71 C 11.7499 -4.20027 4.08623 0
M  V30 72 N 11.7999 -2.76189 3.71603 0
M  V30 73 H 8.96094 -4.797 7.24003 0
M  V30 74 H 8.69094 -3.69856 5.84513 0
M  V30 75 H 9.55794 -6.10356 5.41441 0
M  V30 76 P 13.5199 -7.20834 5.23717 0
M  V30 77 O 13.7399 -8.66104 5.38572 0
M  V30 78 O 14.3099 -6.33544 6.1349 0
M  V30 79 O 13.7699 -6.7751 3.72168 0
M  V30 80 C 12.8299 -7.20825 2.7076 0
M  V30 81 C 13.5599 -7.45864 1.40599 0
M  V30 82 O 13.7699 -6.17651 0.734225 0
M  V30 83 C 14.9599 -8.05808 1.51899 0
M  V30 84 O 15.3499 -8.74358 0.335205 0
M  V30 85 C 15.8399 -6.83093 1.70294 0
M  V30 86 C 15.1299 -5.79992 0.836974 0
M  V30 87 N 15.1799 -4.41864 1.38293 0
M  V30 88 C 15.0999 -3.99538 2.69438 0
M  V30 89 N 15.1799 -2.69909 2.84277 0
M  V30 90 C 15.3199 -2.21719 1.5408 0
M  V30 91 C 15.4499 -0.891712 1.06628 0
M  V30 92 N 15.5699 -0.856846 -0.334985 0
M  V30 93 C 15.5699 -1.9641 -1.15789 0
M  V30 94 N 15.6999 -1.72708 -2.46522 0
M  V30 95 N 15.4399 -3.21165 -0.713741 0
M  V30 96 C 15.3199 -3.26797 0.639748 0
M  V30 97 H 12.3409 -8.13644 3.0377 0
M  V30 98 H 12.0709 -6.42788 2.55485 0
M  V30 99 H 12.9379 -8.12039 0.792769 0
M  V30 100 P 16.8999 -8.91 1.09116e-15 0
M  V30 101 O 17.1199 -10.1726 -0.733694 0
M  V30 102 O 17.6899 -8.73148 1.23936 0
M  V30 103 O 17.1499 -7.66872 -0.971405 0
M  V30 104 C 16.2099 -7.42309 -2.04641 0
M  V30 105 C 16.9399 -6.86059 -3.24661 0
M  V30 106 O 17.1499 -5.42847 -3.03646 0
M  V30 107 C 18.3399 -7.41196 -3.50753 0
M  V30 108 O 18.7299 -7.27073 -4.86816 0
M  V30 109 C 19.2199 -6.5273 -2.63741 0
M  V30 110 C 18.5099 -5.1842 -2.73198 0
M  V30 111 N 18.5599 -4.38762 -1.4784 0
M  V30 112 H 15.7209 -8.36803 -2.32493 0
M  V30 113 H 15.4509 -6.70197 -1.71129 0
M  V30 114 H 16.3179 -7.03551 -4.13168 0
M  V30 115 P 20.2799 -7.20834 -5.23717 0
M  V30 116 O 20.4999 -7.79853 -6.57286 0
M  V30 117 O 21.0699 -7.79239 -4.12957 0
M  V30 118 O 20.5299 -5.63315 -5.29344 0
M  V30 119 C 19.5899 -4.80255 -6.01876 0
M  V30 120 C 20.3199 -3.64202 -6.65911 0
M  V30 121 O 20.5299 -2.60694 -5.64732 0
M  V30 122 C 21.7199 -3.93473 -7.1943 0
M  V30 123 O 22.1099 -3.02071 -8.21205 0
M  V30 124 C 22.5999 -3.73047 -5.97036 0
M  V30 125 C 21.8899 -2.58828 -5.25741 0
M  V30 126 N 21.9399 -2.68068 -3.77503 0
M  V30 127 H 19.1009 -5.40332 -6.79951 0
M  V30 128 H 18.8309 -4.41613 -5.32378 0
M  V30 129 H 19.6979 -3.26331 -7.47797 0
M  V30 130 P 23.6599 -2.75334 -8.47391 0
M  V30 131 O 23.8799 -2.44571 -9.90142 0
M  V30 132 O 24.4499 -3.87688 -7.92115 0
M  V30 133 O 23.9099 -1.4459 -7.59357 0
M  V30 134 C 22.9699 -0.347608 -7.69215 0
M  V30 135 C 23.6999 0.96767 -7.52806 0
M  V30 136 O 23.9099 1.21036 -6.1011 0
M  V30 137 C 25.0999 1.04544 -8.13308 0
M  V30 138 O 25.4899 2.38311 -8.41922 0
M  V30 139 C 25.9799 0.491279 -7.02284 0
M  V30 140 C 25.2699 0.996264 -5.77469 0
M  V30 141 N 25.3199 0.0501916 -4.62973 0
M  V30 142 C 25.2399 -1.32786 -4.63244 0
M  V30 143 N 25.3199 -1.86957 -3.44545 0
M  V30 144 C 25.4599 -0.780241 -2.58481 0
M  V30 145 C 25.5899 -0.738536 -1.17757 0
M  V30 146 N 25.7099 0.58337 -0.711393 0
M  V30 147 C 25.7099 1.70816 -1.51017 0
M  V30 148 N 25.8399 2.87826 -0.880757 0
M  V30 149 N 25.5799 1.67126 -2.8339 0
M  V30 150 C 25.4599 0.401421 -3.30572 0
M  V30 151 H 22.4809 -0.374722 -8.67691 0
M  V30 152 H 22.2109 -0.443485 -6.90277 0
M  V30 153 H 23.0779 1.75537 -7.96793 0
M  V30 154 P 27.0398 2.75334 -8.47391 0
M  V30 155 O 27.2598 3.84128 -9.44797 0
M  V30 156 O 27.8298 1.51947 -8.68712 0
M  V30 157 O 27.2898 3.29363 -6.99321 0
M  V30 158 C 26.3498 4.24011 -6.4274 0
M  V30 159 C 27.0798 5.20775 -5.52155 0
M  V30 160 O 27.2898 4.56534 -4.22446 0
M  V30 161 C 28.4798 5.62629 -5.96531 0
M  V30 162 O 28.8698 6.87667 -5.41053 0
M  V30 163 C 29.3598 4.52537 -5.39283 0
M  V30 164 C 28.6498 4.20027 -4.08623 0
M  V30 165 N 28.6998 2.76189 -3.71603 0
M  V30 166 H 25.8608 4.797 -7.24003 0
M  V30 167 H 25.5908 3.69856 -5.84513 0
M  V30 168 H 26.4578 6.10356 -5.41441 0
M  V30 169 P 30.4198 7.20834 -5.23717 0
M  V30 170 O 30.6398 8.66104 -5.38572 0
M  V30 171 O 31.2098 6.33544 -6.1349 0
M  V30 172 O 30.6698 6.7751 -3.72168 0
M  V30 173 C 29.7298 7.20825 -2.7076 0
M  V30 174 C 30.4598 7.45864 -1.40599 0
M  V30 175 O 30.6698 6.17651 -0.734225 0
M  V30 176 C 31.8598 8.05808 -1.51899 0
M  V30 177 O 32.2498 8.74358 -0.335205 0
M  V30 178 C 32.7398 6.83093 -1.70294 0
M  V30 179 C 32.0298 5.79992 -0.836974 0
M  V30 180 N 32.0798 4.41864 -1.38293 0
M  V30 181 C 31.9998 3.99538 -2.69438 0
M  V30 182 N 32.0798 2.69909 -2.84277 0
M  V30 183 C 32.2198 2.21719 -1.5408 0
M  V30 184 C 32.3498 0.891712 -1.06628 0
M  V30 185 N 32.4698 0.856846 0.334985 0
M  V30 186 C 32.4698 1.9641 1.15789 0
M  V30 187 N 32.5998 1.72708 2.46522 0
M  V30 188 N 32.3398 3.21165 0.713741 0
M  V30 189 C 32.2198 3.26797 -0.639748 0
M  V30 190 H 29.2408 8.13644 -3.0377 0
M  V30 191 H 28.9708 6.42788 -2.55485 0
M  V30 192 H 29.8378 8.12039 -0.792769 0
M  V30 193 P 33.7998 8.91 -2.18232e-15 0
M  V30 194 O 34.0198 10.1746 0.733838 0
M  V30 195 O 34.5898 8.73346 -1.23964 0
M  V30 196 O 34.0498 7.66872 0.971405 0
M  V30 197 C 33.1098 7.42405 2.04668 0
M  V30 198 C 33.8398 6.86059 3.24661 0
M  V30 199 O 34.0498 5.42934 3.03695 0
M  V30 200 C 35.2398 7.41287 3.50796 0
M  V30 201 O 35.6298 7.27073 4.86816 0
M  V30 202 C 36.1198 6.5273 2.63741 0
M  V30 203 C 35.4098 5.1842 2.73198 0
M  V30 204 N 35.4598 4.38762 1.4784 0
M  V30 205 C 35.3798 4.83651 0.183876 0
M  V30 206 N 35.4498 3.88759 -0.699393 0
M  V30 207 C 35.5998 2.7404 0.0575568 0
M  V30 208 C 35.7298 1.37902 -0.293928 0
M  V30 209 N 35.7398 0.938021 -1.54797 0
M  V30 210 N 35.8498 0.491817 0.70549 0
M  V30 211 C 35.8398 0.931735 1.95979 0
M  V30 212 N 35.7198 2.16017 2.41481 0
M  V30 213 C 35.5998 3.02547 1.39121 0
M  V30 214 H 32.6218 8.36899 2.3252 0
M  V30 215 H 32.3498 6.70391 1.71179 0
M  V30 216 H 33.2178 7.03638 4.13219 0
M  V30 217 H 35.8728 4.59931 3.54016 0
M  V30 218 H 36.1528 6.88995 1.59871 0
M  V30 219 H 37.1438 6.4684 3.0373 0
M  V30 220 H 35.3098 8.47002 3.20749 0
M  V30 221 H 35.2688 5.8885 -0.0765548 0
M  V30 222 H 35.6498 1.60276 -2.32875 0
M  V30 223 H 35.8388 -0.0699355 -1.73859 0
M  V30 224 H 35.9468 0.165507 2.71897 0
M  V30 225 P 37.1798 7.20834 5.23717 0
M  V30 226 O 37.3998 7.80006 6.57415 0
M  V30 227 O 37.9698 7.79416 4.13051 0
M  V30 228 O 37.4298 5.63315 5.29344 0
M  V30 229 C 36.4898 4.80318 6.01954 0
M  V30 230 C 37.2198 3.64202 6.65911 0
M  V30 231 O 37.4298 2.60736 5.64823 0
M  V30 232 C 38.6198 3.93521 7.19518 0
M  V30 233 O 39.0098 3.02071 8.21205 0
M  V30 234 C 39.4998 3.73047 5.97036 0
M  V30 235 C 38.7898 2.58828 5.25741 0
M  V30 236 N 38.8398 2.68068 3.77503 0
M  V30 237 C 38.7598 3.80474 2.99159 0
M  V30 238 N 38.8298 3.55622 1.71925 0
M  V30 239 C 38.9798 2.1832 1.65733 0
M  V30 240 C 39.1098 1.28842 0.572777 0
M  V30 241 N 39.1198 1.66875 -0.70098 0
M  V30 242 N 39.2298 -0.016788 0.859836 0
M  V30 243 C 39.2198 -0.398145 2.13316 0
M  V30 244 N 39.0998 0.328224 3.22333 0
M  V30 245 C 38.9798 1.62992 2.90383 0
M  V30 246 H 36.0018 5.40394 6.8003 0
M  V30 247 H 35.7298 4.41741 5.32532 0
M  V30 248 H 36.5978 3.26371 7.47889 0
M  V30 249 H 39.2528 1.64007 5.56746 0
M  V30 250 H 39.5328 4.63439 5.3432 0
M  V30 251 H 40.5238 3.44776 6.25925 0
M  V30 252 H 38.6898 4.96707 7.57347 0
M  V30 253 H 38.6488 4.8089 3.39924 0
M  V30 254 H 39.0298 2.66547 -0.941919 0
M  V30 255 H 39.2188 0.965341 -1.44766 0
M  V30 256 H 39.3268 -1.46427 2.29697 0
M  V30 257 P 40.5598 2.75334 8.47391 0
M  V30 258 O 40.7798 2.44571 9.90142 0
M  V30 259 O 41.3498 3.87688 7.92115 0
M  V30 260 O 40.8098 1.4459 7.59357 0
M  V30 261 C 39.8698 0.347608 7.69215 0
M  V30 262 C 40.5998 -0.96767 7.52806 0
M  V30 263 O 40.8098 -1.21036 6.1011 0
M  V30 264 C 41.9998 -1.04544 8.13308 0
M  V30 265 O 42.3898 -2.38311 8.41922 0
M  V30 266 C 42.8798 -0.491279 7.02284 0
M  V30 267 C 42.1698 -0.996264 5.77469 0
M  V30 268 N 42.2198 -0.0501916 4.62973 0
M  V30 269 H 39.3808 0.374722 8.67691 0
M  V30 270 H 39.1108 0.443485 6.90277 0
M  V30 271 H 39.9778 -1.75537 7.96793 0
M  V30 272 P 43.9397 -2.75334 8.47391 0
M  V30 273 O 44.1597 -3.84166 9.4489 0
M  V30 274 O 44.7297 -1.51964 8.6881 0
M  V30 275 O 44.1897 -3.29363 6.99321 0
M  V30 276 C 43.2497 -4.23956 6.42656 0
M  V30 277 C 43.9797 -5.20775 5.52155 0
M  V30 278 O 44.1897 -4.56534 4.22446 0
M  V30 279 C 45.3797 -5.62629 5.96531 0
M  V30 280 O 45.7697 -6.87667 5.41053 0
M  V30 281 C 46.2597 -4.52537 5.39283 0
M  V30 282 C 45.5497 -4.20027 4.08623 0
M  V30 283 N 45.5997 -2.7613 3.71522 0
M  V30 284 C 45.7497 -2.45612 2.37989 0
M  V30 285 O 45.8397 -3.30919 1.51621 0
M  V30 286 N 45.7897 -1.10684 2.08435 0
M  V30 287 C 45.6997 -0.0690084 2.9792 0
M  V30 288 O 45.7497 1.10553 2.59426 0
M  V30 289 C 45.5497 -0.481522 4.35345 0
M  V30 290 C 45.4397 0.618778 5.36443 0
M  V30 291 C 45.4997 -1.78906 4.67968 0
M  V30 292 H 42.7597 -4.797 7.24003 0
M  V30 293 H 42.4907 -3.69802 5.84429 0
M  V30 294 H 43.3577 -6.10356 5.41441 0
M  V30 295 H 46.0127 -4.78651 3.27911 0
M  V30 296 H 46.2917 -3.64957 6.05871 0
M  V30 297 H 47.2837 -4.8868 5.2125 0
M  V30 298 H 45.4497 -5.66726 7.06352 0
M  V30 299 H 45.3787 -2.07737 5.72367 0
M  V30 300 H 46.4087 0.754375 5.86871 0
M  V30 301 H 44.6717 0.359721 6.10641 0
M  V30 302 H 45.1597 1.55533 4.8581 0
M  V30 303 H 45.8957 -0.862651 1.12037 0
M  V30 304 P 47.3197 -7.20834 5.23717 0
M  V30 305 O 47.5397 -8.66104 5.38572 0
M  V30 306 O 48.1097 -6.33544 6.1349 0
M  V30 307 O 47.5697 -6.7751 3.72168 0
M  V30 308 C 46.6297 -7.20825 2.7076 0
M  V30 309 C 47.3597 -7.45864 1.40599 0
M  V30 310 O 47.5697 -6.17651 0.734225 0
M  V30 311 C 48.7597 -8.05808 1.51899 0
M  V30 312 O 49.1497 -8.74358 0.335205 0
M  V30 313 C 49.6397 -6.83093 1.70294 0
M  V30 314 C 48.9297 -5.79992 0.836974 0
M  V30 315 N 48.9797 -4.41864 1.38293 0
M  V30 316 H 46.1407 -8.13644 3.0377 0
M  V30 317 H 45.8707 -6.42788 2.55485 0
M  V30 318 H 46.7377 -8.12039 0.792769 0
M  V30 319 P 50.6997 -8.91 3.27348e-15 0
M  V30 320 O 50.9197 -10.1726 -0.733694 0
M  V30 321 O 51.4897 -8.73148 1.23936 0
M  V30 322 O 50.9497 -7.66872 -0.971405 0
M  V30 323 C 50.0097 -7.42309 -2.04641 0
M  V30 324 C 50.7397 -6.86059 -3.24661 0
M  V30 325 O 50.9497 -5.42847 -3.03646 0
M  V30 326 C 52.1397 -7.41196 -3.50753 0
M  V30 327 O 52.5297 -7.27073 -4.86816 0
M  V30 328 C 53.0197 -6.5273 -2.63741 0
M  V30 329 C 52.3097 -5.1842 -2.73198 0
M  V30 330 N 52.3597 -4.38762 -1.4784 0
M  V30 331 H 49.5207 -8.36803 -2.32493 0
M  V30 332 H 49.2507 -6.70197 -1.71129 0
M  V30 333 H 50.1177 -7.03551 -4.13168 0
M  V30 334 P 54.0797 -7.20834 -5.23717 0
M  V30 335 O 54.2997 -7.79853 -6.57286 0
M  V30 336 O 54.8697 -7.79239 -4.12957 0
M  V30 337 O 54.3297 -5.63315 -5.29344 0
M  V30 338 C 53.3897 -4.80255 -6.01876 0
M  V30 339 C 54.1197 -3.64202 -6.65911 0
M  V30 340 O 54.3297 -2.60694 -5.64732 0
M  V30 341 C 55.5197 -3.93473 -7.1943 0
M  V30 342 O 55.9097 -3.02071 -8.21205 0
M  V30 343 C 56.3997 -3.73047 -5.97036 0
M  V30 344 C 55.6897 -2.58828 -5.25741 0
M  V30 345 N 55.7397 -2.68068 -3.77503 0
M  V30 346 C 55.6597 -3.79715 -2.96723 0
M  V30 347 N 55.7397 -3.5377 -1.68852 0
M  V30 348 C 55.8797 -2.15054 -1.63254 0
M  V30 349 C 56.0097 -1.28964 -0.518571 0
M  V30 350 O 56.0297 -1.56826 0.679156 0
M  V30 351 N 56.1297 0.0538097 -0.918425 0
M  V30 352 C 56.1297 0.494275 -2.22578 0
M  V30 353 N 56.2597 1.81086 -2.40434 0
M  V30 354 N 55.9997 -0.313645 -3.27502 0
M  V30 355 C 55.8797 -1.61829 -2.91033 0
M  V30 356 H 52.9007 -5.40332 -6.79951 0
M  V30 357 H 52.6307 -4.41613 -5.32378 0
M  V30 358 H 53.4977 -3.26331 -7.47797 0
M  V30 359 H 56.1527 -1.63422 -5.56814 0
M  V30 360 H 56.4317 -4.63374 -5.34244 0
M  V30 361 H 57.4237 -3.44728 -6.25838 0
M  V30 362 H 55.5897 -4.96652 -7.57263 0
M  V30 363 H 55.5407 -4.80617 -3.3614 0
M  V30 364 H 56.2227 0.742702 -0.199384 0
M  V30 365 H 56.2597 2.20598 -3.35588 0
M  V30 366 H 56.3607 2.43518 -1.58945 0
M  V30 367 P 57.4597 -2.75334 -8.47391 0
M  V30 368 O 57.6797 -2.44571 -9.90142 0
M  V30 369 O 58.2497 -3.87688 -7.92115 0
M  V30 370 O 57.7097 -1.4459 -7.59357 0
M  V30 371 C 56.7697 -0.347608 -7.69215 0
M  V30 372 C 57.4997 0.96767 -7.52806 0
M  V30 373 O 57.7097 1.21036 -6.1011 0
M  V30 374 C 58.8997 1.04544 -8.13308 0
M  V30 375 O 59.2897 2.38311 -8.41922 0
M  V30 376 C 59.7797 0.491279 -7.02284 0
M  V30 377 C 59.0697 0.996264 -5.77469 0
M  V30 378 N 59.1197 0.0501916 -4.62973 0
M  V30 379 H 56.2807 -0.374722 -8.67691 0
M  V30 380 H 56.0107 -0.443485 -6.90277 0
M  V30 381 H 56.8777 1.75537 -7.96793 0
M  V30 382 P 60.8396 2.75334 -8.47391 0
M  V30 383 O 61.0596 3.84128 -9.44797 0
M  V30 384 O 61.6296 1.51947 -8.68712 0
M  V30 385 O 61.0896 3.29363 -6.99321 0
M  V30 386 C 60.1496 4.24011 -6.4274 0
M  V30 387 C 60.8796 5.20775 -5.52155 0
M  V30 388 O 61.0896 4.56534 -4.22446 0
M  V30 389 C 62.2796 5.62629 -5.96531 0
M  V30 390 O 62.6696 6.87667 -5.41053 0
M  V30 391 C 63.1596 4.52537 -5.39283 0
M  V30 392 C 62.4496 4.20027 -4.08623 0
M  V30 393 N 62.4996 2.76189 -3.71603 0
M  V30 394 H 59.6606 4.797 -7.24003 0
M  V30 395 H 59.3906 3.69856 -5.84513 0
M  V30 396 H 60.2576 6.10356 -5.41441 0
M  V30 397 P 64.2196 7.20834 -5.23717 0
M  V30 398 O 64.4396 8.66104 -5.38572 0
M  V30 399 O 65.0096 6.33544 -6.1349 0
M  V30 400 O 64.4696 6.7751 -3.72168 0
M  V30 401 C 63.5296 7.20825 -2.7076 0
M  V30 402 C 64.2596 7.45864 -1.40599 0
M  V30 403 O 64.4696 6.17651 -0.734225 0
M  V30 404 C 65.6596 8.05808 -1.51899 0
M  V30 405 O 66.0496 8.74358 -0.335205 0
M  V30 406 C 66.5396 6.83093 -1.70294 0
M  V30 407 C 65.8296 5.79992 -0.836974 0
M  V30 408 N 65.8796 4.41864 -1.38293 0
M  V30 409 H 63.0406 8.13644 -3.0377 0
M  V30 410 H 62.7706 6.42788 -2.55485 0
M  V30 411 H 63.6376 8.12039 -0.792769 0
M  V30 412 P 67.5996 8.91 -4.36464e-15 0
M  V30 413 O 67.8196 10.1726 0.733694 0
M  V30 414 O 68.3896 8.73148 -1.23936 0
M  V30 415 O 67.8496 7.66872 0.971405 0
M  V30 416 C 66.9096 7.42309 2.04641 0
M  V30 417 C 67.6396 6.86059 3.24661 0
M  V30 418 O 67.8496 5.42847 3.03646 0
M  V30 419 C 69.0396 7.41196 3.50753 0
M  V30 420 O 69.4296 7.27073 4.86816 0
M  V30 421 C 69.9196 6.5273 2.63741 0
M  V30 422 C 69.2096 5.1842 2.73198 0
M  V30 423 N 69.2596 4.38762 1.4784 0
M  V30 424 C 69.1796 4.81605 0.168631 0
M  V30 425 N 69.2596 3.85454 -0.713363 0
M  V30 426 C 69.3996 2.6994 0.0566958 0
M  V30 427 C 69.5296 1.34815 -0.338502 0
M  V30 428 N 69.6496 0.496304 0.77465 0
M  V30 429 C 69.6496 0.908403 2.09122 0
M  V30 430 N 69.7796 -0.0517805 3.00955 0
M  V30 431 N 69.5196 2.17875 2.46519 0
M  V30 432 C 69.3996 3.01988 1.4033 0
M  V30 433 H 66.4206 8.36803 2.32493 0
M  V30 434 H 66.1506 6.70197 1.71129 0
M  V30 435 H 67.0176 7.03551 4.13168 0
M  V30 436 P 70.9796 7.20834 5.23717 0
M  V30 437 O 71.1996 7.79853 6.57286 0
M  V30 438 O 71.7696 7.79239 4.12957 0
M  V30 439 O 71.2296 5.63315 5.29344 0
M  V30 440 C 70.2896 4.80255 6.01876 0
M  V30 441 C 71.0196 3.64202 6.65911 0
M  V30 442 O 71.2296 2.60694 5.64732 0
M  V30 443 C 72.4196 3.93473 7.1943 0
M  V30 444 O 72.8096 3.02071 8.21205 0
M  V30 445 C 73.2996 3.73047 5.97036 0
M  V30 446 C 72.5896 2.58828 5.25741 0
M  V30 447 N 72.6396 2.68068 3.77503 0
M  V30 448 C 72.5596 3.79715 2.96723 0
M  V30 449 N 72.6396 3.5377 1.68852 0
M  V30 450 C 72.7796 2.15054 1.63254 0
M  V30 451 C 72.9096 1.28964 0.518571 0
M  V30 452 N 73.0296 -0.0538097 0.918425 0
M  V30 453 C 73.0296 -0.494275 2.22578 0
M  V30 454 N 73.1596 -1.81086 2.40434 0
M  V30 455 N 72.8996 0.313645 3.27502 0
M  V30 456 C 72.7796 1.61829 2.91033 0
M  V30 457 H 69.8006 5.40332 6.79951 0
M  V30 458 H 69.5306 4.41613 5.32378 0
M  V30 459 H 70.3976 3.26331 7.47797 0
M  V30 460 P 74.3596 2.75334 8.47391 0
M  V30 461 O 74.5796 2.44571 9.90142 0
M  V30 462 O 75.1496 3.87688 7.92115 0
M  V30 463 O 74.6096 1.4459 7.59357 0
M  V30 464 C 73.6696 0.347608 7.69215 0
M  V30 465 C 74.3996 -0.96767 7.52806 0
M  V30 466 O 74.6096 -1.21036 6.1011 0
M  V30 467 C 75.7996 -1.04544 8.13308 0
M  V30 468 O 76.1896 -2.38311 8.41922 0
M  V30 469 C 76.6796 -0.491279 7.02284 0
M  V30 470 C 75.9696 -0.996264 5.77469 0
M  V30 471 N 76.0196 -0.0501916 4.62973 0
M  V30 472 H 73.1806 0.374722 8.67691 0
M  V30 473 H 72.9106 0.443485 6.90277 0
M  V30 474 H 73.7776 -1.75537 7.96793 0
M  V30 475 P 77.7395 -2.75334 8.47391 0
M  V30 476 O 77.9595 -3.84204 9.44982 0
M  V30 477 O 78.5295 -1.51982 8.68909 0
M  V30 478 O 77.9895 -3.29363 6.99321 0
M  V30 479 C 77.0495 -4.24066 6.42823 0
M  V30 480 C 77.7795 -5.20775 5.52155 0
M  V30 481 O 77.9895 -4.56607 4.22514 0
M  V30 482 C 79.1795 -5.62697 5.96604 0
M  V30 483 O 79.5695 -6.87667 5.41053 0
M  V30 484 C 80.0595 -4.52537 5.39283 0
M  V30 485 C 79.3495 -4.20027 4.08623 0
M  V30 486 N 79.3995 -2.76189 3.71603 0
M  V30 487 C 79.3195 -1.66944 4.54297 0
M  V30 488 N 79.3895 -0.536169 3.91344 0
M  V30 489 C 79.5395 -0.901569 2.58849 0
M  V30 490 C 79.6695 -0.146599 1.40236 0
M  V30 491 N 79.6795 1.18234 1.37046 0
M  V30 492 N 79.7895 -0.822941 0.249738 0
M  V30 493 C 79.7795 -2.15179 0.280525 0
M  V30 494 N 79.6595 -2.96414 1.30822 0
M  V30 495 C 79.5395 -2.25804 2.44748 0
M  V30 496 H 76.5615 -4.79756 7.24086 0
M  V30 497 H 76.2895 -3.69963 5.84682 0
M  V30 498 H 77.1575 -6.10431 5.41508 0
M  V30 499 H 79.8125 -4.78816 3.28024 0
M  V30 500 H 80.0925 -3.64957 6.05871 0
M  V30 501 H 81.0835 -4.88748 5.21323 0
M  V30 502 H 79.2495 -5.66789 7.0643 0
M  V30 503 H 79.2085 -1.74684 5.62396 0
M  V30 504 H 79.5895 1.71949 2.24394 0
M  V30 505 H 79.7785 1.67511 0.470742 0
M  V30 506 H 79.8865 -2.63704 -0.6828 0
M  V30 507 P 81.1195 -7.20834 5.23717 0
M  V30 508 O 81.3395 -8.66104 5.38572 0
M  V30 509 O 81.9095 -6.33544 6.1349 0
M  V30 510 O 81.3695 -6.7751 3.72168 0
M  V30 511 C 80.4295 -7.20825 2.7076 0
M  V30 512 C 81.1595 -7.45864 1.40599 0
M  V30 513 O 81.3695 -6.17651 0.734225 0
M  V30 514 C 82.5595 -8.05808 1.51899 0
M  V30 515 O 82.9495 -8.74358 0.335205 0
M  V30 516 C 83.4395 -6.83093 1.70294 0
M  V30 517 C 82.7295 -5.79992 0.836974 0
M  V30 518 N 82.7795 -4.41864 1.38293 0
M  V30 519 H 79.9405 -8.13644 3.0377 0
M  V30 520 H 79.6705 -6.42788 2.55485 0
M  V30 521 H 80.5375 -8.12039 0.792769 0
M  V30 522 P 84.4995 -8.91 5.4558e-15 0
M  V30 523 O 84.7195 -10.1726 -0.733694 0
M  V30 524 O 85.2895 -8.73148 1.23936 0
M  V30 525 O 84.7495 -7.66872 -0.971405 0
M  V30 526 C 83.8095 -7.42309 -2.04641 0
M  V30 527 C 84.5395 -6.86059 -3.24661 0
M  V30 528 O 84.7495 -5.42847 -3.03646 0
M  V30 529 C 85.9395 -7.41196 -3.50753 0
M  V30 530 O 86.3295 -7.27073 -4.86816 0
M  V30 531 C 86.8195 -6.5273 -2.63741 0
M  V30 532 C 86.1095 -5.1842 -2.73198 0
M  V30 533 N 86.1595 -4.38762 -1.4784 0
M  V30 534 C 86.0795 -4.81605 -0.168631 0
M  V30 535 N 86.1595 -3.85454 0.713363 0
M  V30 536 C 86.2995 -2.6994 -0.0566958 0
M  V30 537 C 86.4295 -1.34815 0.338502 0
M  V30 538 N 86.5495 -0.496304 -0.77465 0
M  V30 539 C 86.5495 -0.908403 -2.09122 0
M  V30 540 N 86.6795 0.0517805 -3.00955 0
M  V30 541 N 86.4195 -2.17875 -2.46519 0
M  V30 542 C 86.2995 -3.01988 -1.4033 0
M  V30 543 H 83.3205 -8.36803 -2.32493 0
M  V30 544 H 83.0505 -6.70197 -1.71129 0
M  V30 545 H 83.9175 -7.03551 -4.13168 0
M  V30 546 P 87.8795 -7.20834 -5.23717 0
M  V30 547 O 88.0995 -7.79853 -6.57286 0
M  V30 548 O 88.6695 -7.79239 -4.12957 0
M  V30 549 O 88.1295 -5.63315 -5.29344 0
M  V30 550 C 87.1895 -4.80255 -6.01876 0
M  V30 551 C 87.9195 -3.64202 -6.65911 0
M  V30 552 O 88.1295 -2.60694 -5.64732 0
M  V30 553 C 89.3195 -3.93473 -7.1943 0
M  V30 554 O 89.7095 -3.02071 -8.21205 0
M  V30 555 C 90.1995 -3.73047 -5.97036 0
M  V30 556 C 89.4895 -2.58828 -5.25741 0
M  V30 557 N 89.5395 -2.68068 -3.77503 0
M  V30 558 C 89.4595 -3.79715 -2.96723 0
M  V30 559 N 89.5395 -3.5377 -1.68852 0
M  V30 560 C 89.6795 -2.15054 -1.63254 0
M  V30 561 C 89.8095 -1.28964 -0.518571 0
M  V30 562 O 89.8295 -1.56826 0.679156 0
M  V30 563 N 89.9295 0.0538097 -0.918425 0
M  V30 564 C 89.9295 0.494275 -2.22578 0
M  V30 565 N 90.0595 1.81086 -2.40434 0
M  V30 566 N 89.7995 -0.313645 -3.27502 0
M  V30 567 C 89.6795 -1.61829 -2.91033 0
M  V30 568 H 86.7005 -5.40332 -6.79951 0
M  V30 569 H 86.4305 -4.41613 -5.32378 0
M  V30 570 H 87.2975 -3.26331 -7.47797 0
M  V30 571 H 89.9525 -1.63422 -5.56814 0
M  V30 572 H 90.2315 -4.63374 -5.34244 0
M  V30 573 H 91.2235 -3.44728 -6.25838 0
M  V30 574 H 89.3895 -4.96652 -7.57263 0
M  V30 575 H 89.3405 -4.80617 -3.3614 0
M  V30 576 H 90.0225 0.742702 -0.199384 0
M  V30 577 H 90.0595 2.20598 -3.35588 0
M  V30 578 H 90.1605 2.43518 -1.58945 0
M  V30 579 P 91.2595 -2.75334 -8.47391 0
M  V30 580 O 91.4795 -2.44571 -9.90142 0
M  V30 581 O 92.0495 -3.87688 -7.92115 0
M  V30 582 O 91.5095 -1.4459 -7.59357 0
M  V30 583 C 90.5695 -0.347608 -7.69215 0
M  V30 584 C 91.2995 0.96767 -7.52806 0
M  V30 585 O 91.5095 1.21036 -6.1011 0
M  V30 586 C 92.6995 1.04544 -8.13308 0
M  V30 587 O 93.0895 2.38311 -8.41922 0
M  V30 588 C 93.5795 0.491279 -7.02284 0
M  V30 589 C 92.8695 0.996264 -5.77469 0
M  V30 590 N 92.9195 0.0501916 -4.62973 0
M  V30 591 H 90.0805 -0.374722 -8.67691 0
M  V30 592 H 89.8105 -0.443485 -6.90277 0
M  V30 593 H 90.6775 1.75537 -7.96793 0
M  V30 594 P 94.6394 2.75334 -8.47391 0
M  V30 595 O 94.8594 3.84128 -9.44797 0
M  V30 596 O 95.4294 1.51947 -8.68712 0
M  V30 597 O 94.8894 3.29363 -6.99321 0
M  V30 598 C 93.9494 4.24011 -6.4274 0
M  V30 599 C 94.6794 5.20775 -5.52155 0
M  V30 600 O 94.8894 4.56534 -4.22446 0
M  V30 601 C 96.0794 5.62629 -5.96531 0
M  V30 602 O 96.4694 6.87667 -5.41053 0
M  V30 603 C 96.9594 4.52537 -5.39283 0
M  V30 604 C 96.2494 4.20027 -4.08623 0
M  V30 605 N 96.2994 2.76189 -3.71603 0
M  V30 606 H 93.4604 4.797 -7.24003 0
M  V30 607 H 93.1904 3.69856 -5.84513 0
M  V30 608 H 94.0574 6.10356 -5.41441 0
M  V30 609 P 98.0194 7.20834 -5.23717 0
M  V30 610 O 98.2394 8.66104 -5.38572 0
M  V30 611 O 98.8094 6.33544 -6.1349 0
M  V30 612 O 98.2694 6.7751 -3.72168 0
M  V30 613 C 97.3294 7.20825 -2.7076 0
M  V30 614 C 98.0594 7.45864 -1.40599 0
M  V30 615 O 98.2694 6.17651 -0.734225 0
M  V30 616 C 99.4594 8.05808 -1.51899 0
M  V30 617 O 99.8494 8.74358 -0.335205 0
M  V30 618 C 100.339 6.83093 -1.70294 0
M  V30 619 C 99.6294 5.79992 -0.836974 0
M  V30 620 N 99.6794 4.41864 -1.38293 0
M  V30 621 C 99.5994 3.99538 -2.69438 0
M  V30 622 N 99.6794 2.69909 -2.84277 0
M  V30 623 C 99.8194 2.21719 -1.5408 0
M  V30 624 C 99.9494 0.891712 -1.06628 0
M  V30 625 O 99.9694 -0.161298 -1.70137 0
M  V30 626 N 100.069 0.856846 0.334985 0
M  V30 627 C 100.069 1.9641 1.15789 0
M  V30 628 N 100.199 1.72708 2.46522 0
M  V30 629 N 99.9394 3.21165 0.713741 0
M  V30 630 C 99.8194 3.26797 -0.639748 0
M  V30 631 H 96.8404 8.13644 -3.0377 0
M  V30 632 H 96.5704 6.42788 -2.55485 0
M  V30 633 H 97.4374 8.12039 -0.792769 0
M  V30 634 H 100.092 5.80061 0.166416 0
M  V30 635 H 100.371 6.51287 -2.75604 0
M  V30 636 H 101.363 7.01734 -1.34462 0
M  V30 637 H 99.5294 8.73674 -2.38337 0
M  V30 638 H 99.4804 4.68207 -3.53221 0
M  V30 639 H 100.162 -0.0398818 0.767965 0
M  V30 640 H 100.199 2.50995 3.13503 0
M  V30 641 H 100.3 0.759148 2.80716 0
M  V30 642 P 101.399 8.91 -6.54696e-15 0
M  V30 643 O 101.619 10.1726 0.733694 0
M  V30 644 O 102.189 8.73148 -1.23936 0
M  V30 645 O 101.649 7.66872 0.971405 0
M  V30 646 C 100.709 7.42309 2.04641 0
M  V30 647 C 101.439 6.86059 3.24661 0
M  V30 648 O 101.649 5.42847 3.03646 0
M  V30 649 C 102.839 7.41196 3.50753 0
M  V30 650 O 103.229 7.27073 4.86816 0
M  V30 651 C 103.719 6.5273 2.63741 0
M  V30 652 C 103.009 5.1842 2.73198 0
M  V30 653 N 103.059 4.38762 1.4784 0
M  V30 654 H 100.22 8.36803 2.32493 0
M  V30 655 H 99.9504 6.70197 1.71129 0
M  V30 656 H 100.817 7.03551 4.13168 0
M  V30 657 P 104.779 7.20834 5.23717 0
M  V30 658 O 104.999 7.79853 6.57286 0
M  V30 659 O 105.569 7.79239 4.12957 0
M  V30 660 O 105.029 5.63315 5.29344 0
M  V30 661 C 104.089 4.80255 6.01876 0
M  V30 662 C 104.819 3.64202 6.65911 0
M  V30 663 O 105.029 2.60694 5.64732 0
M  V30 664 C 106.219 3.93473 7.1943 0
M  V30 665 O 106.609 3.02071 8.21205 0
M  V30 666 C 107.099 3.73047 5.97036 0
M  V30 667 C 106.389 2.58828 5.25741 0
M  V30 668 N 106.439 2.68068 3.77503 0
M  V30 669 C 106.359 3.79715 2.96723 0
M  V30 670 N 106.439 3.5377 1.68852 0
M  V30 671 C 106.579 2.15054 1.63254 0
M  V30 672 C 106.709 1.28964 0.518571 0
M  V30 673 N 106.829 -0.0538097 0.918425 0
M  V30 674 C 106.829 -0.494275 2.22578 0
M  V30 675 N 106.959 -1.81086 2.40434 0
M  V30 676 N 106.699 0.313645 3.27502 0
M  V30 677 C 106.579 1.61829 2.91033 0
M  V30 678 H 103.6 5.40332 6.79951 0
M  V30 679 H 103.33 4.41613 5.32378 0
M  V30 680 H 104.197 3.26331 7.47797 0
M  V30 681 P 108.159 2.75334 8.47391 0
M  V30 682 O 108.379 2.44571 9.90142 0
M  V30 683 O 108.949 3.87688 7.92115 0
M  V30 684 O 108.409 1.4459 7.59357 0
M  V30 685 C 107.469 0.347608 7.69215 0
M  V30 686 C 108.199 -0.96767 7.52806 0
M  V30 687 O 108.409 -1.21036 6.1011 0
M  V30 688 C 109.599 -1.04544 8.13308 0
M  V30 689 O 109.989 -2.38311 8.41922 0
M  V30 690 C 110.479 -0.491279 7.02284 0
M  V30 691 C 109.769 -0.996264 5.77469 0
M  V30 692 N 109.819 -0.0501916 4.62973 0
M  V30 693 C 109.739 1.32786 4.63244 0
M  V30 694 N 109.819 1.86957 3.44545 0
M  V30 695 C 109.959 0.780241 2.58481 0
M  V30 696 C 110.089 0.738536 1.17757 0
M  V30 697 N 110.209 -0.58337 0.711393 0
M  V30 698 C 110.209 -1.70816 1.51017 0
M  V30 699 N 110.339 -2.87826 0.880757 0
M  V30 700 N 110.079 -1.67126 2.8339 0
M  V30 701 C 109.959 -0.401421 3.30572 0
M  V30 702 H 106.98 0.374722 8.67691 0
M  V30 703 H 106.71 0.443485 6.90277 0
M  V30 704 H 107.577 -1.75537 7.96793 0
M  V30 705 P 111.539 -2.75334 8.47391 0
M  V30 706 O 111.759 -3.84166 9.4489 0
M  V30 707 O 112.329 -1.51964 8.6881 0
M  V30 708 O 111.789 -3.29363 6.99321 0
M  V30 709 C 110.849 -4.23956 6.42656 0
M  V30 710 C 111.579 -5.20775 5.52155 0
M  V30 711 O 111.789 -4.56534 4.22446 0
M  V30 712 C 112.979 -5.62629 5.96531 0
M  V30 713 O 113.369 -6.87667 5.41053 0
M  V30 714 C 113.859 -4.52537 5.39283 0
M  V30 715 C 113.149 -4.20027 4.08623 0
M  V30 716 N 113.199 -2.7613 3.71522 0
M  V30 717 C 113.349 -2.45612 2.37989 0
M  V30 718 O 113.439 -3.30919 1.51621 0
M  V30 719 N 113.389 -1.10684 2.08435 0
M  V30 720 C 113.299 -0.0690084 2.9792 0
M  V30 721 O 113.349 1.10553 2.59426 0
M  V30 722 C 113.149 -0.481522 4.35345 0
M  V30 723 C 113.039 0.618778 5.36443 0
M  V30 724 C 113.099 -1.78906 4.67968 0
M  V30 725 H 110.359 -4.797 7.24003 0
M  V30 726 H 110.09 -3.69802 5.84429 0
M  V30 727 H 110.957 -6.10356 5.41441 0
M  V30 728 H 113.612 -4.78651 3.27911 0
M  V30 729 H 113.891 -3.64957 6.05871 0
M  V30 730 H 114.883 -4.8868 5.2125 0
M  V30 731 H 113.049 -5.66726 7.06352 0
M  V30 732 H 112.978 -2.07737 5.72367 0
M  V30 733 H 114.008 0.754375 5.86871 0
M  V30 734 H 112.271 0.359721 6.10641 0
M  V30 735 H 112.759 1.55533 4.8581 0
M  V30 736 H 113.495 -0.862651 1.12037 0
M  V30 737 P 114.919 -7.20834 5.23717 0
M  V30 738 O 115.139 -8.66104 5.38572 0
M  V30 739 O 115.709 -6.33544 6.1349 0
M  V30 740 O 115.169 -6.7751 3.72168 0
M  V30 741 C 114.229 -7.20825 2.7076 0
M  V30 742 C 114.959 -7.45864 1.40599 0
M  V30 743 O 115.169 -6.17651 0.734225 0
M  V30 744 C 116.359 -8.05808 1.51899 0
M  V30 745 O 116.749 -8.74358 0.335205 0
M  V30 746 C 117.239 -6.83093 1.70294 0
M  V30 747 C 116.529 -5.79992 0.836974 0
M  V30 748 N 116.579 -4.41864 1.38293 0
M  V30 749 H 113.74 -8.13644 3.0377 0
M  V30 750 H 113.47 -6.42788 2.55485 0
M  V30 751 H 114.337 -8.12039 0.792769 0
M  V30 752 P 118.299 -8.91 7.63812e-15 0
M  V30 753 O 118.519 -10.1726 -0.733694 0
M  V30 754 O 119.089 -8.73148 1.23936 0
M  V30 755 O 118.549 -7.66872 -0.971405 0
M  V30 756 C 117.609 -7.42309 -2.04641 0
M  V30 757 C 118.339 -6.86059 -3.24661 0
M  V30 758 O 118.549 -5.42847 -3.03646 0
M  V30 759 C 119.739 -7.41196 -3.50753 0
M  V30 760 O 120.129 -7.27073 -4.86816 0
M  V30 761 C 120.619 -6.5273 -2.63741 0
M  V30 762 C 119.909 -5.1842 -2.73198 0
M  V30 763 N 119.959 -4.38762 -1.4784 0
M  V30 764 H 117.12 -8.36803 -2.32493 0
M  V30 765 H 116.85 -6.70197 -1.71129 0
M  V30 766 H 117.717 -7.03551 -4.13168 0
M  V30 767 P 121.679 -7.20834 -5.23717 0
M  V30 768 O 121.899 -7.79853 -6.57286 0
M  V30 769 O 122.469 -7.79239 -4.12957 0
M  V30 770 O 121.929 -5.63315 -5.29344 0
M  V30 771 C 120.989 -4.80255 -6.01876 0
M  V30 772 C 121.719 -3.64202 -6.65911 0
M  V30 773 O 121.929 -2.60694 -5.64732 0
M  V30 774 C 123.119 -3.93473 -7.1943 0
M  V30 775 O 123.509 -3.02071 -8.21205 0
M  V30 776 C 123.999 -3.73047 -5.97036 0
M  V30 777 C 123.289 -2.58828 -5.25741 0
M  V30 778 N 123.339 -2.68068 -3.77503 0
M  V30 779 C 123.259 -3.79715 -2.96723 0
M  V30 780 N 123.339 -3.5377 -1.68852 0
M  V30 781 C 123.479 -2.15054 -1.63254 0
M  V30 782 C 123.609 -1.28964 -0.518571 0
M  V30 783 O 123.629 -1.56826 0.679156 0
M  V30 784 N 123.729 0.0538097 -0.918425 0
M  V30 785 C 123.729 0.494275 -2.22578 0
M  V30 786 N 123.859 1.81086 -2.40434 0
M  V30 787 N 123.599 -0.313645 -3.27502 0
M  V30 788 C 123.479 -1.61829 -2.91033 0
M  V30 789 H 120.5 -5.40332 -6.79951 0
M  V30 790 H 120.23 -4.41613 -5.32378 0
M  V30 791 H 121.097 -3.26331 -7.47797 0
M  V30 792 H 123.752 -1.63422 -5.56814 0
M  V30 793 H 124.031 -4.63374 -5.34244 0
M  V30 794 H 125.023 -3.44728 -6.25838 0
M  V30 795 H 123.189 -4.96652 -7.57263 0
M  V30 796 H 123.14 -4.80617 -3.3614 0
M  V30 797 H 123.822 0.742702 -0.199384 0
M  V30 798 H 123.859 2.20598 -3.35588 0
M  V30 799 H 123.96 2.43518 -1.58945 0
M  V30 800 P 125.059 -2.75334 -8.47391 0
M  V30 801 O 125.279 -2.44571 -9.90142 0
M  V30 802 O 125.849 -3.87688 -7.92115 0
M  V30 803 O 125.309 -1.4459 -7.59357 0
M  V30 804 C 124.369 -0.347608 -7.69215 0
M  V30 805 C 125.099 0.96767 -7.52806 0
M  V30 806 O 125.309 1.21036 -6.1011 0
M  V30 807 C 126.499 1.04544 -8.13308 0
M  V30 808 O 126.889 2.38311 -8.41922 0
M  V30 809 C 127.379 0.491279 -7.02284 0
M  V30 810 C 126.669 0.996264 -5.77469 0
M  V30 811 N 126.719 0.0501916 -4.62973 0
M  V30 812 H 123.88 -0.374722 -8.67691 0
M  V30 813 H 123.61 -0.443485 -6.90277 0
M  V30 814 H 124.477 1.75537 -7.96793 0
M  V30 815 P 128.439 2.75334 -8.47391 0
M  V30 816 O 128.659 3.84128 -9.44797 0
M  V30 817 O 129.229 1.51947 -8.68712 0
M  V30 818 O 128.689 3.29363 -6.99321 0
M  V30 819 C 127.749 4.24011 -6.4274 0
M  V30 820 C 128.479 5.20775 -5.52155 0
M  V30 821 O 128.689 4.56534 -4.22446 0
M  V30 822 C 129.879 5.62629 -5.96531 0
M  V30 823 O 130.269 6.87667 -5.41053 0
M  V30 824 C 130.759 4.52537 -5.39283 0
M  V30 825 C 130.049 4.20027 -4.08623 0
M  V30 826 N 130.099 2.76189 -3.71603 0
M  V30 827 C 130.019 1.64862 -4.52822 0
M  V30 828 N 130.099 0.512671 -3.88633 0
M  V30 829 C 130.239 0.888083 -2.54977 0
M  V30 830 C 130.369 0.094668 -1.38677 0
M  V30 831 O 130.389 -1.13053 -1.28163 0
M  V30 832 N 130.489 0.890102 -0.232633 0
M  V30 833 C 130.489 2.26958 -0.21772 0
M  V30 834 N 130.619 2.84626 0.97925 0
M  V30 835 N 130.359 3.0178 -1.31033 0
M  V30 836 C 130.239 2.26781 -2.43843 0
M  V30 837 H 127.26 4.797 -7.24003 0
M  V30 838 H 126.99 3.69856 -5.84513 0
M  V30 839 H 127.857 6.10356 -5.41441 0
M  V30 840 H 130.512 4.79061 -3.27488 0
M  V30 841 H 130.791 3.64906 -6.05785 0
M  V30 842 H 131.783 4.8868 -5.2125 0
M  V30 843 H 129.949 5.66726 -7.06352 0
M  V30 844 H 129.9 1.71169 -5.60966 0
M  V30 845 H 130.582 0.419134 0.644739 0
M  V30 846 H 130.619 3.87332 1.06098 0
M  V30 847 H 130.72 2.26417 1.82483 0
M  V30 848 P 131.819 7.20834 -5.23717 0
M  V30 849 O 132.039 8.66274 -5.38678 0
M  V30 850 O 132.609 6.33687 -6.13629 0
M  V30 851 O 132.069 6.7751 -3.72168 0
M  V30 852 C 131.129 7.20919 -2.70795 0
M  V30 853 C 131.859 7.45864 -1.40599 0
M  V30 854 O 132.069 6.17751 -0.734343 0
M  V30 855 C 133.259 8.05906 -1.51917 0
M  V30 856 O 133.649 8.74358 -0.335205 0
M  V30 857 C 134.139 6.83093 -1.70294 0
M  V30 858 C 133.429 5.79992 -0.836974 0
M  V30 859 N 133.479 4.41864 -1.38293 0
M  V30 860 C 133.399 4.02089 -2.69407 0
M  V30 861 N 133.469 2.73403 -2.85089 0
M  V30 862 C 133.619 2.25086 -1.5642 0
M  V30 863 C 133.749 0.942887 -1.04836 0
M  V30 864 N 133.759 -0.150999 -1.80369 0
M  V30 865 N 133.869 0.812565 0.28167 0
M  V30 866 C 133.859 1.90572 1.03784 0
M  V30 867 N 133.739 3.167 0.683905 0
M  V30 868 C 133.619 3.26538 -0.652815 0
M  V30 869 H 130.641 8.13738 -3.03804 0
M  V30 870 H 130.369 6.42974 -2.55559 0
M  V30 871 H 131.237 8.12139 -0.792866 0
M  V30 872 H 133.892 5.80178 0.160643 0
M  V30 873 H 134.172 6.51379 -2.75643 0
M  V30 874 H 135.163 7.01832 -1.3448 0
M  V30 875 H 133.329 8.73771 -2.38364 0
M  V30 876 H 133.288 4.7189 -3.52311 0
M  V30 877 H 133.669 -0.0721434 -2.82608 0
M  V30 878 H 133.858 -1.0785 -1.36544 0
M  V30 879 H 133.966 1.73207 2.10241 0
M  V30 880 P 135.199 8.91 -8.72928e-15 0
M  V30 881 O 135.419 10.1726 0.733694 0
M  V30 882 O 135.989 8.73148 -1.23936 0
M  V30 883 O 135.449 7.66872 0.971405 0
M  V30 884 C 134.509 7.42309 2.04641 0
M  V30 885 C 135.239 6.86059 3.24661 0
M  V30 886 O 135.449 5.42847 3.03646 0
M  V30 887 C 136.639 7.41196 3.50753 0
M  V30 888 O 137.029 7.27073 4.86816 0
M  V30 889 C 137.519 6.5273 2.63741 0
M  V30 890 C 136.809 5.1842 2.73198 0
M  V30 891 N 136.859 4.38762 1.4784 0
M  V30 892 C 136.779 4.81605 0.168631 0
M  V30 893 N 136.859 3.85454 -0.713363 0
M  V30 894 C 136.999 2.6994 0.0566958 0
M  V30 895 C 137.129 1.34815 -0.338502 0
M  V30 896 N 137.249 0.496304 0.77465 0
M  V30 897 C 137.249 0.908403 2.09122 0
M  V30 898 N 137.379 -0.0517805 3.00955 0
M  V30 899 N 137.119 2.17875 2.46519 0
M  V30 900 C 136.999 3.01988 1.4033 0
M  V30 901 H 134.02 8.36803 2.32493 0
M  V30 902 H 133.75 6.70197 1.71129 0
M  V30 903 H 134.617 7.03551 4.13168 0
M  V30 904 P 138.579 7.20834 5.23717 0
M  V30 905 O 138.799 7.80006 6.57415 0
M  V30 906 O 139.369 7.79416 4.13051 0
M  V30 907 O 138.829 5.63315 5.29344 0
M  V30 908 C 137.889 4.80318 6.01954 0
M  V30 909 C 138.619 3.64202 6.65911 0
M  V30 910 O 138.829 2.60736 5.64823 0
M  V30 911 C 140.019 3.93521 7.19518 0
M  V30 912 O 140.409 3.02071 8.21205 0
M  V30 913 C 140.899 3.73047 5.97036 0
M  V30 914 C 140.189 2.58828 5.25741 0
M  V30 915 N 140.239 2.68068 3.77503 0
M  V30 916 H 137.401 5.40394 6.8003 0
M  V30 917 H 137.129 4.41741 5.32532 0
M  V30 918 H 137.997 3.26371 7.47889 0
M  V30 919 H 140.652 1.64007 5.56746 0
M  V30 920 H 140.932 4.63439 5.3432 0
M  V30 921 H 141.923 3.44776 6.25925 0
M  V30 922 H 140.089 4.96707 7.57347 0
M  V30 923 P 141.959 2.75334 8.47391 0
M  V30 924 O 142.179 2.44571 9.90142 0
M  V30 925 O 142.749 3.87688 7.92115 0
M  V30 926 O 142.209 1.4459 7.59357 0
M  V30 927 C 141.269 0.347608 7.69215 0
M  V30 928 C 141.999 -0.96767 7.52806 0
M  V30 929 O 142.209 -1.21036 6.1011 0
M  V30 930 C 143.399 -1.04544 8.13308 0
M  V30 931 O 143.789 -2.38311 8.41922 0
M  V30 932 C 144.279 -0.491279 7.02284 0
M  V30 933 C 143.569 -0.996264 5.77469 0
M  V30 934 N 143.619 -0.0501916 4.62973 0
M  V30 935 H 140.78 0.374722 8.67691 0
M  V30 936 H 140.51 0.443485 6.90277 0
M  V30 937 H 141.377 -1.75537 7.96793 0
M  V30 938 P 145.339 -2.75334 8.47391 0
M  V30 939 O 145.559 -3.84128 9.44797 0
M  V30 940 O 146.129 -1.51947 8.68712 0
M  V30 941 O 145.589 -3.29363 6.99321 0
M  V30 942 C 144.649 -4.24011 6.4274 0
M  V30 943 C 145.379 -5.20775 5.52155 0
M  V30 944 O 145.589 -4.56534 4.22446 0
M  V30 945 C 146.779 -5.62629 5.96531 0
M  V30 946 O 147.169 -6.87667 5.41053 0
M  V30 947 C 147.659 -4.52537 5.39283 0
M  V30 948 C 146.949 -4.20027 4.08623 0
M  V30 949 N 146.999 -2.76189 3.71603 0
M  V30 950 H 144.16 -4.797 7.24003 0
M  V30 951 H 143.89 -3.69856 5.84513 0
M  V30 952 H 144.757 -6.10356 5.41441 0
M  V30 953 P 148.719 -7.20834 5.23717 0
M  V30 954 O 148.939 -8.66104 5.38572 0
M  V30 955 O 149.509 -6.33544 6.1349 0
M  V30 956 O 148.969 -6.7751 3.72168 0
M  V30 957 C 148.029 -7.20825 2.7076 0
M  V30 958 C 148.759 -7.45864 1.40599 0
M  V30 959 O 148.969 -6.17651 0.734225 0
M  V30 960 C 150.159 -8.05808 1.51899 0
M  V30 961 O 150.549 -8.74358 0.335205 0
M  V30 962 C 151.039 -6.83093 1.70294 0
M  V30 963 C 150.329 -5.79992 0.836974 0
M  V30 964 N 150.379 -4.41864 1.38293 0
M  V30 965 H 147.54 -8.13644 3.0377 0
M  V30 966 H 147.27 -6.42788 2.55485 0
M  V30 967 H 148.137 -8.12039 0.792769 0
M  V30 968 P 152.099 -8.91 9.82044e-15 0
M  V30 969 O 152.319 -10.1726 -0.733694 0
M  V30 970 O 152.889 -8.73148 1.23936 0
M  V30 971 O 152.349 -7.66872 -0.971405 0
M  V30 972 C 151.409 -7.42309 -2.04641 0
M  V30 973 C 152.139 -6.86059 -3.24661 0
M  V30 974 O 152.349 -5.42847 -3.03646 0
M  V30 975 C 153.539 -7.41196 -3.50753 0
M  V30 976 O 153.929 -7.27073 -4.86816 0
M  V30 977 C 154.419 -6.5273 -2.63741 0
M  V30 978 C 153.709 -5.1842 -2.73198 0
M  V30 979 N 153.759 -4.38762 -1.4784 0
M  V30 980 H 150.92 -8.36803 -2.32493 0
M  V30 981 H 150.65 -6.70197 -1.71129 0
M  V30 982 H 151.517 -7.03551 -4.13168 0
M  V30 983 P 155.479 -7.20834 -5.23717 0
M  V30 984 O 155.699 -7.80006 -6.57415 0
M  V30 985 O 156.269 -7.79416 -4.13051 0
M  V30 986 O 155.729 -5.63315 -5.29344 0
M  V30 987 C 154.789 -4.80318 -6.01954 0
M  V30 988 C 155.519 -3.64202 -6.65911 0
M  V30 989 O 155.729 -2.60736 -5.64823 0
M  V30 990 C 156.919 -3.93521 -7.19518 0
M  V30 991 O 157.309 -3.02071 -8.21205 0
M  V30 992 C 157.799 -3.73047 -5.97036 0
M  V30 993 C 157.089 -2.58828 -5.25741 0
M  V30 994 N 157.139 -2.68068 -3.77503 0
M  V30 995 H 154.301 -5.40394 -6.8003 0
M  V30 996 H 154.029 -4.41741 -5.32532 0
M  V30 997 H 154.897 -3.26371 -7.47889 0
M  V30 998 H 157.552 -1.64007 -5.56746 0
M  V30 999 H 157.832 -4.63439 -5.3432 0
M  V30 1000 H 158.823 -3.44776 -6.25925 0
M  V30 1001 H 156.989 -4.96707 -7.57347 0
M  V30 1002 P 158.859 -2.75334 -8.47391 0
M  V30 1003 O 159.079 -2.44571 -9.90142 0
M  V30 1004 O 159.649 -3.87688 -7.92115 0
M  V30 1005 O 159.109 -1.4459 -7.59357 0
M  V30 1006 C 158.169 -0.347608 -7.69215 0
M  V30 1007 C 158.899 0.96767 -7.52806 0
M  V30 1008 O 159.109 1.21036 -6.1011 0
M  V30 1009 C 160.299 1.04544 -8.13308 0
M  V30 1010 O 160.689 2.38311 -8.41922 0
M  V30 1011 C 161.179 0.491279 -7.02284 0
M  V30 1012 C 160.469 0.996264 -5.77469 0
M  V30 1013 N 160.519 0.0501916 -4.62973 0
M  V30 1014 H 157.68 -0.374722 -8.67691 0
M  V30 1015 H 157.41 -0.443485 -6.90277 0
M  V30 1016 H 158.277 1.75537 -7.96793 0
M  V30 1017 P 162.239 2.75334 -8.47391 0
M  V30 1018 O 162.459 3.84128 -9.44797 0
M  V30 1019 O 163.029 1.51947 -8.68712 0
M  V30 1020 O 162.489 3.29363 -6.99321 0
M  V30 1021 C 161.549 4.24011 -6.4274 0
M  V30 1022 C 162.279 5.20775 -5.52155 0
M  V30 1023 O 162.489 4.56534 -4.22446 0
M  V30 1024 C 163.679 5.62629 -5.96531 0
M  V30 1025 O 164.069 6.87667 -5.41053 0
M  V30 1026 C 164.559 4.52537 -5.39283 0
M  V30 1027 C 163.849 4.20027 -4.08623 0
M  V30 1028 N 163.899 2.76189 -3.71603 0
M  V30 1029 H 161.06 4.797 -7.24003 0
M  V30 1030 H 160.79 3.69856 -5.84513 0
M  V30 1031 H 161.657 6.10356 -5.41441 0
M  V30 1032 P 165.619 7.20834 -5.23717 0
M  V30 1033 O 165.839 8.66104 -5.38572 0
M  V30 1034 O 166.409 6.33544 -6.1349 0
M  V30 1035 O 165.869 6.7751 -3.72168 0
M  V30 1036 C 164.929 7.20825 -2.7076 0
M  V30 1037 C 165.659 7.45864 -1.40599 0
M  V30 1038 O 165.869 6.17651 -0.734225 0
M  V30 1039 C 167.059 8.05808 -1.51899 0
M  V30 1040 O 167.449 8.74358 -0.335205 0
M  V30 1041 C 167.939 6.83093 -1.70294 0
M  V30 1042 C 167.229 5.79992 -0.836974 0
M  V30 1043 N 167.279 4.41864 -1.38293 0
M  V30 1044 C 167.199 3.99538 -2.69438 0
M  V30 1045 N 167.279 2.69909 -2.84277 0
M  V30 1046 C 167.419 2.21719 -1.5408 0
M  V30 1047 C 167.549 0.891712 -1.06628 0
M  V30 1048 O 167.569 -0.161298 -1.70137 0
M  V30 1049 N 167.669 0.856846 0.334985 0
M  V30 1050 C 167.669 1.9641 1.15789 0
M  V30 1051 N 167.799 1.72708 2.46522 0
M  V30 1052 N 167.539 3.21165 0.713741 0
M  V30 1053 C 167.419 3.26797 -0.639748 0
M  V30 1054 H 164.44 8.13644 -3.0377 0
M  V30 1055 H 164.17 6.42788 -2.55485 0
M  V30 1056 H 165.037 8.12039 -0.792769 0
M  V30 1057 H 167.692 5.80061 0.166416 0
M  V30 1058 H 167.971 6.51287 -2.75604 0
M  V30 1059 H 168.963 7.01734 -1.34462 0
M  V30 1060 H 167.129 8.73674 -2.38337 0
M  V30 1061 H 167.08 4.68207 -3.53221 0
M  V30 1062 H 167.762 -0.0398818 0.767965 0
M  V30 1063 H 167.799 2.50995 3.13503 0
M  V30 1064 H 167.9 0.759148 2.80716 0
M  V30 1065 P 168.999 8.91 -1.09116e-14 0
M  V30 1066 O 169.219 10.1726 0.733694 0
M  V30 1067 O 169.789 8.73148 -1.23936 0
M  V30 1068 O 169.249 7.66872 0.971405 0
M  V30 1069 C 168.309 7.42309 2.04641 0
M  V30 1070 C 169.039 6.86059 3.24661 0
M  V30 1071 O 169.249 5.42847 3.03646 0
M  V30 1072 C 170.439 7.41196 3.50753 0
M  V30 1073 O 170.829 7.27073 4.86816 0
M  V30 1074 C 171.319 6.5273 2.63741 0
M  V30 1075 C 170.609 5.1842 2.73198 0
M  V30 1076 N 170.659 4.38762 1.4784 0
M  V30 1077 H 167.82 8.36803 2.32493 0
M  V30 1078 H 167.55 6.70197 1.71129 0
M  V30 1079 H 168.417 7.03551 4.13168 0
M  V30 1080 P 172.379 7.20834 5.23717 0
M  V30 1081 O 172.599 7.79853 6.57286 0
M  V30 1082 O 173.169 7.79239 4.12957 0
M  V30 1083 O 172.629 5.63315 5.29344 0
M  V30 1084 C 171.689 4.80255 6.01876 0
M  V30 1085 C 172.419 3.64202 6.65911 0
M  V30 1086 O 172.629 2.60694 5.64732 0
M  V30 1087 C 173.819 3.93473 7.1943 0
M  V30 1088 O 174.209 3.02071 8.21205 0
M  V30 1089 C 174.699 3.73047 5.97036 0
M  V30 1090 C 173.989 2.58828 5.25741 0
M  V30 1091 N 174.039 2.68068 3.77503 0
M  V30 1092 H 171.2 5.40332 6.79951 0
M  V30 1093 H 170.93 4.41613 5.32378 0
M  V30 1094 H 171.797 3.26331 7.47797 0
M  V30 1095 P 175.759 2.75334 8.47391 0
M  V30 1096 O 175.979 2.44619 9.90336 0
M  V30 1097 O 176.549 3.87776 7.92294 0
M  V30 1098 O 176.009 1.4459 7.59357 0
M  V30 1099 C 175.069 0.347653 7.69315 0
M  V30 1100 C 175.799 -0.96767 7.52806 0
M  V30 1101 O 176.009 -1.21055 6.10208 0
M  V30 1102 C 177.199 -1.04557 8.13408 0
M  V30 1103 O 177.589 -2.38311 8.41922 0
M  V30 1104 C 178.079 -0.491279 7.02284 0
M  V30 1105 C 177.369 -0.996264 5.77469 0
M  V30 1106 N 177.419 -0.0501916 4.62973 0
M  V30 1107 H 174.581 0.374765 8.67791 0
M  V30 1108 H 174.309 0.443613 6.90476 0
M  V30 1109 H 175.177 -1.75559 7.96891 0
M  V30 1110 H 177.832 -1.94563 5.46818 0
M  V30 1111 H 178.112 0.608651 7.04676 0
M  V30 1112 H 179.103 -0.889796 7.09039 0
M  V30 1113 H 177.269 -0.433128 9.04664 0
M  V30 1114 P 179.139 -2.75334 8.47391 0
M  V30 1115 O 179.359 -3.84128 9.44797 0
M  V30 1116 O 179.929 -1.51947 8.68712 0
M  V30 1117 O 179.389 -3.29363 6.99321 0
M  V30 1118 C 178.449 -4.24011 6.4274 0
M  V30 1119 C 179.179 -5.20775 5.52155 0
M  V30 1120 O 179.389 -4.56534 4.22446 0
M  V30 1121 C 180.579 -5.62629 5.96531 0
M  V30 1122 O 180.969 -6.87667 5.41053 0
M  V30 1123 C 181.459 -4.52537 5.39283 0
M  V30 1124 C 180.749 -4.20027 4.08623 0
M  V30 1125 N 180.799 -2.76189 3.71603 0
M  V30 1126 C 180.719 -1.64862 4.52822 0
M  V30 1127 N 180.799 -0.512671 3.88633 0
M  V30 1128 C 180.939 -0.888083 2.54977 0
M  V30 1129 C 181.069 -0.094668 1.38677 0
M  V30 1130 N 181.189 -0.890102 0.232633 0
M  V30 1131 C 181.189 -2.26958 0.21772 0
M  V30 1132 N 181.319 -2.84626 -0.97925 0
M  V30 1133 N 181.059 -3.0178 1.31033 0
M  V30 1134 C 180.939 -2.26781 2.43843 0
M  V30 1135 H 177.96 -4.797 7.24003 0
M  V30 1136 H 177.69 -3.69856 5.84513 0
M  V30 1137 H 178.557 -6.10356 5.41441 0
M  V30 1138 P 182.519 -7.20834 5.23717 0
M  V30 1139 O 182.739 -8.66104 5.38572 0
M  V30 1140 O 183.309 -6.33544 6.1349 0
M  V30 1141 O 182.769 -6.7751 3.72168 0
M  V30 1142 C 181.829 -7.20825 2.7076 0
M  V30 1143 C 182.559 -7.45864 1.40599 0
M  V30 1144 O 182.769 -6.17651 0.734225 0
M  V30 1145 C 183.959 -8.05808 1.51899 0
M  V30 1146 O 184.349 -8.74358 0.335205 0
M  V30 1147 C 184.839 -6.83093 1.70294 0
M  V30 1148 C 184.129 -5.79992 0.836974 0
M  V30 1149 N 184.179 -4.41864 1.38293 0
M  V30 1150 H 181.34 -8.13644 3.0377 0
M  V30 1151 H 181.07 -6.42788 2.55485 0
M  V30 1152 H 181.937 -8.12039 0.792769 0
M  V30 1153 P 185.899 -8.91 -8.29613e-14 0
M  V30 1154 O 186.119 -10.1726 -0.733694 0
M  V30 1155 O 186.689 -8.73148 1.23936 0
M  V30 1156 O 186.149 -7.66872 -0.971405 0
M  V30 1157 C 185.209 -7.42309 -2.04641 0
M  V30 1158 C 185.939 -6.86059 -3.24661 0
M  V30 1159 O 186.149 -5.42847 -3.03646 0
M  V30 1160 C 187.339 -7.41196 -3.50753 0
M  V30 1161 O 187.729 -7.27073 -4.86816 0
M  V30 1162 C 188.219 -6.5273 -2.63741 0
M  V30 1163 C 187.509 -5.1842 -2.73198 0
M  V30 1164 N 187.559 -4.38762 -1.4784 0
M  V30 1165 H 184.72 -8.36803 -2.32493 0
M  V30 1166 H 184.45 -6.70197 -1.71129 0
M  V30 1167 H 185.317 -7.03551 -4.13168 0
M  V30 1168 P 189.279 -7.20834 -5.23717 0
M  V30 1169 O 189.499 -7.79853 -6.57286 0
M  V30 1170 O 190.069 -7.79239 -4.12957 0
M  V30 1171 O 189.529 -5.63315 -5.29344 0
M  V30 1172 C 188.589 -4.80255 -6.01876 0
M  V30 1173 C 189.319 -3.64202 -6.65911 0
M  V30 1174 O 189.529 -2.60694 -5.64732 0
M  V30 1175 C 190.719 -3.93473 -7.1943 0
M  V30 1176 O 191.109 -3.02071 -8.21205 0
M  V30 1177 C 191.599 -3.73047 -5.97036 0
M  V30 1178 C 190.889 -2.58828 -5.25741 0
M  V30 1179 N 190.939 -2.68068 -3.77503 0
M  V30 1180 H 188.1 -5.40332 -6.79951 0
M  V30 1181 H 187.83 -4.41613 -5.32378 0
M  V30 1182 H 188.697 -3.26331 -7.47797 0
M  V30 1183 P 192.659 -2.75334 -8.47391 0
M  V30 1184 O 192.879 -2.44619 -9.90336 0
M  V30 1185 O 193.449 -3.87776 -7.92294 0
M  V30 1186 O 192.909 -1.4459 -7.59357 0
M  V30 1187 C 191.969 -0.347653 -7.69315 0
M  V30 1188 C 192.699 0.96767 -7.52806 0
M  V30 1189 O 192.909 1.21055 -6.10208 0
M  V30 1190 C 194.099 1.04557 -8.13408 0
M  V30 1191 O 194.489 2.38311 -8.41922 0
M  V30 1192 C 194.979 0.491279 -7.02284 0
M  V30 1193 C 194.269 0.996264 -5.77469 0
M  V30 1194 N 194.319 0.0501916 -4.62973 0
M  V30 1195 H 191.481 -0.374765 -8.67791 0
M  V30 1196 H 191.209 -0.443613 -6.90476 0
M  V30 1197 H 192.077 1.75559 -7.96891 0
M  V30 1198 H 194.732 1.94563 -5.46818 0
M  V30 1199 H 195.012 -0.608651 -7.04676 0
M  V30 1200 H 196.003 0.889796 -7.09039 0
M  V30 1201 H 194.169 0.433128 -9.04664 0
M  V30 1202 P 196.039 2.75334 -8.47391 0
M  V30 1203 O 196.259 3.84128 -9.44797 0
M  V30 1204 O 196.829 1.51947 -8.68712 0
M  V30 1205 O 196.289 3.29363 -6.99321 0
M  V30 1206 C 195.349 4.24011 -6.4274 0
M  V30 1207 C 196.079 5.20775 -5.52155 0
M  V30 1208 O 196.289 4.56534 -4.22446 0
M  V30 1209 C 197.479 5.62629 -5.96531 0
M  V30 1210 O 197.869 6.87667 -5.41053 0
M  V30 1211 C 198.359 4.52537 -5.39283 0
M  V30 1212 C 197.649 4.20027 -4.08623 0
M  V30 1213 N 197.699 2.76189 -3.71603 0
M  V30 1214 H 194.86 4.797 -7.24003 0
M  V30 1215 H 194.59 3.69856 -5.84513 0
M  V30 1216 H 195.457 6.10356 -5.41441 0
M  V30 1217 P 199.419 7.20834 -5.23717 0
M  V30 1218 O 199.639 8.66104 -5.38572 0
M  V30 1219 O 200.209 6.33544 -6.1349 0
M  V30 1220 O 199.669 6.7751 -3.72168 0
M  V30 1221 C 198.729 7.20825 -2.7076 0
M  V30 1222 C 199.459 7.45864 -1.40599 0
M  V30 1223 O 199.669 6.17651 -0.734225 0
M  V30 1224 C 200.859 8.05808 -1.51899 0
M  V30 1225 O 201.249 8.74358 -0.335205 0
M  V30 1226 C 201.739 6.83093 -1.70294 0
M  V30 1227 C 201.029 5.79992 -0.836974 0
M  V30 1228 N 201.079 4.41864 -1.38293 0
M  V30 1229 C 200.999 3.99538 -2.69438 0
M  V30 1230 N 201.079 2.69909 -2.84277 0
M  V30 1231 C 201.219 2.21719 -1.5408 0
M  V30 1232 C 201.349 0.891712 -1.06628 0
M  V30 1233 O 201.369 -0.161298 -1.70137 0
M  V30 1234 N 201.469 0.856846 0.334985 0
M  V30 1235 C 201.469 1.9641 1.15789 0
M  V30 1236 N 201.599 1.72708 2.46522 0
M  V30 1237 N 201.339 3.21165 0.713741 0
M  V30 1238 C 201.219 3.26797 -0.639748 0
M  V30 1239 H 198.24 8.13644 -3.0377 0
M  V30 1240 H 197.97 6.42788 -2.55485 0
M  V30 1241 H 198.837 8.12039 -0.792769 0
M  V30 1242 H 201.492 5.80061 0.166416 0
M  V30 1243 H 201.771 6.51287 -2.75604 0
M  V30 1244 H 202.763 7.01734 -1.34462 0
M  V30 1245 H 200.929 8.73674 -2.38337 0
M  V30 1246 H 200.88 4.68207 -3.53221 0
M  V30 1247 H 201.562 -0.0398818 0.767965 0
M  V30 1248 H 201.599 2.50995 3.13503 0
M  V30 1249 H 201.7 0.759148 2.80716 0
M  V30 1250 P 202.799 8.91 2.40144e-13 0
M  V30 1251 O 203.019 10.1726 0.733694 0
M  V30 1252 O 203.589 8.73148 -1.23936 0
M  V30 1253 O 203.049 7.66872 0.971405 0
M  V30 1254 C 202.109 7.42309 2.04641 0
M  V30 1255 C 202.839 6.86059 3.24661 0
M  V30 1256 O 203.049 5.42847 3.03646 0
M  V30 1257 C 204.239 7.41196 3.50753 0
M  V30 1258 O 204.629 7.27073 4.86816 0
M  V30 1259 C 205.119 6.5273 2.63741 0
M  V30 1260 C 204.409 5.1842 2.73198 0
M  V30 1261 N 204.459 4.38762 1.4784 0
M  V30 1262 H 201.62 8.36803 2.32493 0
M  V30 1263 H 201.35 6.70197 1.71129 0
M  V30 1264 H 202.217 7.03551 4.13168 0
M  V30 1265 P 206.179 7.20834 5.23717 0
M  V30 1266 O 206.399 7.7993 6.57351 0
M  V30 1267 O 206.969 7.79328 4.13004 0
M  V30 1268 O 206.429 5.63315 5.29344 0
M  V30 1269 C 205.489 4.80193 6.01798 0
M  V30 1270 C 206.219 3.64202 6.65911 0
M  V30 1271 O 206.429 2.60694 5.64732 0
M  V30 1272 C 207.619 3.93473 7.1943 0
M  V30 1273 O 208.009 3.02071 8.21205 0
M  V30 1274 C 208.499 3.73047 5.97036 0
M  V30 1275 C 207.789 2.58828 5.25741 0
M  V30 1276 N 207.839 2.6801 3.77422 0
M  V30 1277 C 207.989 1.50443 3.07133 0
M  V30 1278 O 208.079 0.419406 3.61576 0
M  V30 1279 N 208.029 1.6403 1.69677 0
M  V30 1280 C 207.939 2.81206 0.986255 0
M  V30 1281 C 207.789 3.99158 1.80325 0
M  V30 1282 C 207.739 3.89779 3.1476 0
M  V30 1283 H 204.999 5.40332 6.79951 0
M  V30 1284 H 204.73 4.41549 5.32301 0
M  V30 1285 H 205.597 3.26331 7.47797 0
M  V30 1286 H 208.252 1.6395 5.56554 0
M  V30 1287 H 208.531 4.63439 5.3432 0
M  V30 1288 H 209.523 3.44728 6.25838 0
M  V30 1289 H 207.689 4.96652 7.57263 0
M  V30 1290 H 207.618 4.80159 3.74441 0
M  V30 1291 P 209.559 2.75334 8.47391 0
M  V30 1292 O 209.779 2.44571 9.90142 0
M  V30 1293 O 210.349 3.87688 7.92115 0
M  V30 1294 O 209.809 1.4459 7.59357 0
M  V30 1295 C 208.869 0.347608 7.69215 0
M  V30 1296 C 209.599 -0.96767 7.52806 0
M  V30 1297 O 209.809 -1.21036 6.1011 0
M  V30 1298 C 210.999 -1.04544 8.13308 0
M  V30 1299 O 211.389 -2.38311 8.41922 0
M  V30 1300 C 211.879 -0.491279 7.02284 0
M  V30 1301 C 211.169 -0.996264 5.77469 0
M  V30 1302 N 211.219 -0.0501916 4.62973 0
M  V30 1303 H 208.38 0.374722 8.67691 0
M  V30 1304 H 208.11 0.443485 6.90277 0
M  V30 1305 H 208.977 -1.75537 7.96793 0
M  V30 1306 P 212.939 -2.75334 8.47391 0
M  V30 1307 O 213.159 -3.84204 9.44982 0
M  V30 1308 O 213.729 -1.51982 8.68909 0
M  V30 1309 O 213.189 -3.29363 6.99321 0
M  V30 1310 C 212.249 -4.24066 6.42823 0
M  V30 1311 C 212.979 -5.20775 5.52155 0
M  V30 1312 O 213.189 -4.56607 4.22514 0
M  V30 1313 C 214.379 -5.62697 5.96604 0
M  V30 1314 O 214.769 -6.87667 5.41053 0
M  V30 1315 C 215.259 -4.52537 5.39283 0
M  V30 1316 C 214.549 -4.20027 4.08623 0
M  V30 1317 N 214.599 -2.76189 3.71603 0
M  V30 1318 C 214.519 -1.66944 4.54297 0
M  V30 1319 N 214.589 -0.536169 3.91344 0
M  V30 1320 C 214.739 -0.901569 2.58849 0
M  V30 1321 C 214.869 -0.146599 1.40236 0
M  V30 1322 N 214.879 1.18234 1.37046 0
M  V30 1323 N 214.989 -0.822941 0.249738 0
M  V30 1324 C 214.979 -2.15179 0.280525 0
M  V30 1325 N 214.859 -2.96414 1.30822 0
M  V30 1326 C 214.739 -2.25804 2.44748 0
M  V30 1327 H 211.761 -4.79756 7.24086 0
M  V30 1328 H 211.489 -3.69963 5.84682 0
M  V30 1329 H 212.357 -6.10431 5.41508 0
M  V30 1330 H 215.012 -4.78816 3.28024 0
M  V30 1331 H 215.292 -3.64957 6.05871 0
M  V30 1332 H 216.283 -4.88748 5.21323 0
M  V30 1333 H 214.449 -5.66789 7.0643 0
M  V30 1334 H 214.408 -1.74684 5.62396 0
M  V30 1335 H 214.789 1.71949 2.24394 0
M  V30 1336 H 214.978 1.67511 0.470742 0
M  V30 1337 H 215.086 -2.63704 -0.6828 0
M  V30 1338 P 216.319 -7.20834 5.23717 0
M  V30 1339 O 216.539 -8.66104 5.38572 0
M  V30 1340 O 217.109 -6.33544 6.1349 0
M  V30 1341 O 216.569 -6.7751 3.72168 0
M  V30 1342 C 215.629 -7.20825 2.7076 0
M  V30 1343 C 216.359 -7.45864 1.40599 0
M  V30 1344 O 216.569 -6.17651 0.734225 0
M  V30 1345 C 217.759 -8.05808 1.51899 0
M  V30 1346 O 218.149 -8.74358 0.335205 0
M  V30 1347 C 218.639 -6.83093 1.70294 0
M  V30 1348 C 217.929 -5.79992 0.836974 0
M  V30 1349 N 217.979 -4.41864 1.38293 0
M  V30 1350 H 215.14 -8.13644 3.0377 0
M  V30 1351 H 214.87 -6.42788 2.55485 0
M  V30 1352 H 215.737 -8.12039 0.792769 0
M  V30 1353 P 219.699 -8.91 -3.97326e-13 0
M  V30 1354 O 219.919 -10.1726 -0.733694 0
M  V30 1355 O 220.489 -8.73148 1.23936 0
M  V30 1356 O 219.949 -7.66872 -0.971405 0
M  V30 1357 C 219.009 -7.42309 -2.04641 0
M  V30 1358 C 219.739 -6.86059 -3.24661 0
M  V30 1359 O 219.949 -5.42847 -3.03646 0
M  V30 1360 C 221.139 -7.41196 -3.50753 0
M  V30 1361 O 221.529 -7.27073 -4.86816 0
M  V30 1362 C 222.019 -6.5273 -2.63741 0
M  V30 1363 C 221.309 -5.1842 -2.73198 0
M  V30 1364 N 221.359 -4.38762 -1.4784 0
M  V30 1365 H 218.52 -8.36803 -2.32493 0
M  V30 1366 H 218.25 -6.70197 -1.71129 0
M  V30 1367 H 219.117 -7.03551 -4.13168 0
M  V30 1368 P 223.079 -7.20834 -5.23717 0
M  V30 1369 O 223.299 -7.7993 -6.57351 0
M  V30 1370 O 223.869 -7.79328 -4.13004 0
M  V30 1371 O 223.329 -5.63315 -5.29344 0
M  V30 1372 C 222.389 -4.80193 -6.01798 0
M  V30 1373 C 223.119 -3.64202 -6.65911 0
M  V30 1374 O 223.329 -2.60694 -5.64732 0
M  V30 1375 C 224.519 -3.93473 -7.1943 0
M  V30 1376 O 224.909 -3.02071 -8.21205 0
M  V30 1377 C 225.399 -3.73047 -5.97036 0
M  V30 1378 C 224.689 -2.58828 -5.25741 0
M  V30 1379 N 224.739 -2.6801 -3.77422 0
M  V30 1380 C 224.889 -1.50443 -3.07133 0
M  V30 1381 O 224.979 -0.419406 -3.61576 0
M  V30 1382 N 224.929 -1.6403 -1.69677 0
M  V30 1383 C 224.839 -2.81206 -0.986255 0
M  V30 1384 C 224.689 -3.99158 -1.80325 0
M  V30 1385 C 224.639 -3.89779 -3.1476 0
M  V30 1386 H 221.899 -5.40332 -6.79951 0
M  V30 1387 H 221.63 -4.41549 -5.32301 0
M  V30 1388 H 222.497 -3.26331 -7.47797 0
M  V30 1389 H 225.152 -1.6395 -5.56554 0
M  V30 1390 H 225.431 -4.63439 -5.3432 0
M  V30 1391 H 226.423 -3.44728 -6.25838 0
M  V30 1392 H 224.589 -4.96652 -7.57263 0
M  V30 1393 H 224.518 -4.80159 -3.74441 0
M  V30 1394 P 226.459 -2.75334 -8.47391 0
M  V30 1395 O 226.679 -2.44571 -9.90142 0
M  V30 1396 O 227.249 -3.87688 -7.92115 0
M  V30 1397 O 226.709 -1.4459 -7.59357 0
M  V30 1398 C 225.769 -0.347608 -7.69215 0
M  V30 1399 C 226.499 0.96767 -7.52806 0
M  V30 1400 O 226.709 1.21036 -6.1011 0
M  V30 1401 C 227.899 1.04544 -8.13308 0
M  V30 1402 O 228.289 2.38311 -8.41922 0
M  V30 1403 C 228.779 0.491279 -7.02284 0
M  V30 1404 C 228.069 0.996264 -5.77469 0
M  V30 1405 N 228.119 0.0501916 -4.62973 0
M  V30 1406 H 225.28 -0.374722 -8.67691 0
M  V30 1407 H 225.01 -0.443485 -6.90277 0
M  V30 1408 H 225.877 1.75537 -7.96793 0
M  V30 1409 P 229.839 2.75334 -8.47391 0
M  V30 1410 O 230.059 3.84128 -9.44797 0
M  V30 1411 O 230.629 1.51947 -8.68712 0
M  V30 1412 O 230.089 3.29363 -6.99321 0
M  V30 1413 C 229.149 4.24011 -6.4274 0
M  V30 1414 C 229.879 5.20775 -5.52155 0
M  V30 1415 O 230.089 4.56534 -4.22446 0
M  V30 1416 C 231.279 5.62629 -5.96531 0
M  V30 1417 O 231.669 6.87667 -5.41053 0
M  V30 1418 C 232.159 4.52537 -5.39283 0
M  V30 1419 C 231.449 4.20027 -4.08623 0
M  V30 1420 N 231.499 2.76189 -3.71603 0
M  V30 1421 H 228.66 4.797 -7.24003 0
M  V30 1422 H 228.39 3.69856 -5.84513 0
M  V30 1423 H 229.257 6.10356 -5.41441 0
M  V30 1424 P 233.219 7.20834 -5.23717 0
M  V30 1425 O 233.439 8.66104 -5.38572 0
M  V30 1426 O 234.009 6.33544 -6.1349 0
M  V30 1427 O 233.469 6.7751 -3.72168 0
M  V30 1428 C 232.529 7.20825 -2.7076 0
M  V30 1429 C 233.259 7.45864 -1.40599 0
M  V30 1430 O 233.469 6.17651 -0.734225 0
M  V30 1431 C 234.659 8.05808 -1.51899 0
M  V30 1432 O 235.049 8.74358 -0.335205 0
M  V30 1433 C 235.539 6.83093 -1.70294 0
M  V30 1434 C 234.829 5.79992 -0.836974 0
M  V30 1435 N 234.879 4.41864 -1.38293 0
M  V30 1436 H 232.04 8.13644 -3.0377 0
M  V30 1437 H 231.77 6.42788 -2.55485 0
M  V30 1438 H 232.637 8.12039 -0.792769 0
M  V30 1439 P 236.599 8.91 5.54508e-13 0
M  V30 1440 O 236.819 10.1726 0.733694 0
M  V30 1441 O 237.389 8.73148 -1.23936 0
M  V30 1442 O 236.849 7.66872 0.971405 0
M  V30 1443 C 235.909 7.42309 2.04641 0
M  V30 1444 C 236.639 6.86059 3.24661 0
M  V30 1445 O 236.849 5.42847 3.03646 0
M  V30 1446 C 238.039 7.41196 3.50753 0
M  V30 1447 O 238.429 7.27073 4.86816 0
M  V30 1448 C 238.919 6.5273 2.63741 0
M  V30 1449 C 238.209 5.1842 2.73198 0
M  V30 1450 N 238.259 4.38762 1.4784 0
M  V30 1451 H 235.42 8.36803 2.32493 0
M  V30 1452 H 235.15 6.70197 1.71129 0
M  V30 1453 H 236.017 7.03551 4.13168 0
M  V30 1454 P 239.979 7.20834 5.23717 0
M  V30 1455 O 240.199 7.79853 6.57286 0
M  V30 1456 O 240.769 7.79239 4.12957 0
M  V30 1457 O 240.229 5.63315 5.29344 0
M  V30 1458 C 239.289 4.80255 6.01876 0
M  V30 1459 C 240.019 3.64202 6.65911 0
M  V30 1460 O 240.229 2.60694 5.64732 0
M  V30 1461 C 241.419 3.93473 7.1943 0
M  V30 1462 O 241.809 3.02071 8.21205 0
M  V30 1463 C 242.299 3.73047 5.97036 0
M  V30 1464 C 241.589 2.58828 5.25741 0
M  V30 1465 N 241.639 2.68068 3.77503 0
M  V30 1466 H 238.8 5.40332 6.79951 0
M  V30 1467 H 238.53 4.41613 5.32378 0
M  V30 1468 H 239.397 3.26331 7.47797 0
M  V30 1469 P 243.359 2.75334 8.47391 0
M  V30 1470 O 243.579 2.44571 9.90142 0
M  V30 1471 O 244.149 3.87688 7.92115 0
M  V30 1472 O 243.609 1.4459 7.59357 0
M  V30 1473 C 242.669 0.347608 7.69215 0
M  V30 1474 C 243.399 -0.96767 7.52806 0
M  V30 1475 O 243.609 -1.21036 6.1011 0
M  V30 1476 C 244.799 -1.04544 8.13308 0
M  V30 1477 O 245.189 -2.38311 8.41922 0
M  V30 1478 C 245.679 -0.491279 7.02284 0
M  V30 1479 C 244.969 -0.996264 5.77469 0
M  V30 1480 N 245.019 -0.0501916 4.62973 0
M  V30 1481 C 244.939 1.32786 4.63244 0
M  V30 1482 N 245.019 1.86957 3.44545 0
M  V30 1483 C 245.159 0.780241 2.58481 0
M  V30 1484 C 245.289 0.738536 1.17757 0
M  V30 1485 O 245.309 1.66794 0.372349 0
M  V30 1486 N 245.409 -0.58337 0.711393 0
M  V30 1487 C 245.409 -1.70816 1.51017 0
M  V30 1488 N 245.539 -2.87826 0.880757 0
M  V30 1489 N 245.279 -1.67126 2.8339 0
M  V30 1490 C 245.159 -0.401421 3.30572 0
M  V30 1491 H 242.18 0.374722 8.67691 0
M  V30 1492 H 241.91 0.443485 6.90277 0
M  V30 1493 H 242.777 -1.75537 7.96793 0
M  V30 1494 H 245.432 -1.95076 5.46529 0
M  V30 1495 H 245.711 0.608565 7.04577 0
M  V30 1496 H 246.703 -0.889672 7.08939 0
M  V30 1497 H 244.869 -0.43308 9.04564 0
M  V30 1498 H 244.82 1.91249 5.54442 0
M  V30 1499 H 245.502 -0.718054 -0.275244 0
M  V30 1500 H 245.539 -3.75721 1.41832 0
M  V30 1501 H 245.64 -2.90436 -0.145468 0
M  V30 1502 P 246.739 -2.75334 8.47391 0
M  V30 1503 O 246.959 -3.84128 9.44797 0
M  V30 1504 O 247.529 -1.51947 8.68712 0
M  V30 1505 O 246.989 -3.29363 6.99321 0
M  V30 1506 C 246.049 -4.24011 6.4274 0
M  V30 1507 C 246.779 -5.20775 5.52155 0
M  V30 1508 O 246.989 -4.56534 4.22446 0
M  V30 1509 C 248.179 -5.62629 5.96531 0
M  V30 1510 O 248.569 -6.87667 5.41053 0
M  V30 1511 C 249.059 -4.52537 5.39283 0
M  V30 1512 C 248.349 -4.20027 4.08623 0
M  V30 1513 N 248.399 -2.76189 3.71603 0
M  V30 1514 H 245.56 -4.797 7.24003 0
M  V30 1515 H 245.29 -3.69856 5.84513 0
M  V30 1516 H 246.157 -6.10356 5.41441 0
M  V30 1517 P 250.119 -7.20834 5.23717 0
M  V30 1518 O 250.339 -8.66104 5.38572 0
M  V30 1519 O 250.909 -6.33544 6.1349 0
M  V30 1520 O 250.369 -6.7751 3.72168 0
M  V30 1521 C 249.429 -7.20825 2.7076 0
M  V30 1522 C 250.159 -7.45864 1.40599 0
M  V30 1523 O 250.369 -6.17651 0.734225 0
M  V30 1524 C 251.559 -8.05808 1.51899 0
M  V30 1525 O 251.949 -8.74358 0.335205 0
M  V30 1526 C 252.439 -6.83093 1.70294 0
M  V30 1527 C 251.729 -5.79992 0.836974 0
M  V30 1528 N 251.779 -4.41864 1.38293 0
M  V30 1529 C 251.699 -3.99538 2.69438 0
M  V30 1530 N 251.779 -2.69909 2.84277 0
M  V30 1531 C 251.919 -2.21719 1.5408 0
M  V30 1532 C 252.049 -0.891712 1.06628 0
M  V30 1533 N 252.169 -0.856846 -0.334985 0
M  V30 1534 C 252.169 -1.9641 -1.15789 0
M  V30 1535 N 252.299 -1.72708 -2.46522 0
M  V30 1536 N 252.039 -3.21165 -0.713741 0
M  V30 1537 C 251.919 -3.26797 0.639748 0
M  V30 1538 H 248.94 -8.13644 3.0377 0
M  V30 1539 H 248.67 -6.42788 2.55485 0
M  V30 1540 H 249.537 -8.12039 0.792769 0
M  V30 1541 P 253.498 -8.91 -7.1169e-13 0
M  V30 1542 O 253.718 -10.1726 -0.733694 0
M  V30 1543 O 254.288 -8.73148 1.23936 0
M  V30 1544 O 253.748 -7.66872 -0.971405 0
M  V30 1545 C 252.808 -7.42309 -2.04641 0
M  V30 1546 C 253.538 -6.86059 -3.24661 0
M  V30 1547 O 253.748 -5.42847 -3.03646 0
M  V30 1548 C 254.938 -7.41196 -3.50753 0
M  V30 1549 O 255.328 -7.27073 -4.86816 0
M  V30 1550 C 255.818 -6.5273 -2.63741 0
M  V30 1551 C 255.108 -5.1842 -2.73198 0
M  V30 1552 N 255.158 -4.38762 -1.4784 0
M  V30 1553 H 252.319 -8.36803 -2.32493 0
M  V30 1554 H 252.049 -6.70197 -1.71129 0
M  V30 1555 H 252.916 -7.03551 -4.13168 0
M  V30 1556 P 256.878 -7.20834 -5.23717 0
M  V30 1557 O 257.098 -7.79853 -6.57286 0
M  V30 1558 O 257.668 -7.79239 -4.12957 0
M  V30 1559 O 257.128 -5.63315 -5.29344 0
M  V30 1560 C 256.188 -4.80255 -6.01876 0
M  V30 1561 C 256.918 -3.64202 -6.65911 0
M  V30 1562 O 257.128 -2.60694 -5.64732 0
M  V30 1563 C 258.318 -3.93473 -7.1943 0
M  V30 1564 O 258.708 -3.02071 -8.21205 0
M  V30 1565 C 259.198 -3.73047 -5.97036 0
M  V30 1566 C 258.488 -2.58828 -5.25741 0
M  V30 1567 N 258.538 -2.68068 -3.77503 0
M  V30 1568 H 255.699 -5.40332 -6.79951 0
M  V30 1569 H 255.429 -4.41613 -5.32378 0
M  V30 1570 H 256.296 -3.26331 -7.47797 0
M  V30 1571 P 260.258 -2.75334 -8.47391 0
M  V30 1572 O 260.478 -2.44595 -9.90239 0
M  V30 1573 O 261.048 -3.87732 -7.92204 0
M  V30 1574 O 260.508 -1.4459 -7.59357 0
M  V30 1575 C 259.568 -0.347563 -7.69115 0
M  V30 1576 C 260.298 0.96767 -7.52806 0
M  V30 1577 O 260.508 1.21036 -6.1011 0
M  V30 1578 C 261.698 1.04544 -8.13308 0
M  V30 1579 O 262.088 2.38311 -8.41922 0
M  V30 1580 C 262.578 0.491279 -7.02284 0
M  V30 1581 C 261.868 0.996264 -5.77469 0
M  V30 1582 N 261.918 0.0501808 -4.62873 0
M  V30 1583 C 262.068 0.588177 -3.36904 0
M  V30 1584 O 262.158 1.78598 -3.17173 0
M  V30 1585 N 262.108 -0.329694 -2.33686 0
M  V30 1586 C 262.018 -1.6953 -2.45079 0
M  V30 1587 C 261.868 -2.16933 -3.80505 0
M  V30 1588 C 261.818 -1.30326 -4.83752 0
M  V30 1589 H 259.078 -0.374722 -8.67691 0
M  V30 1590 H 258.809 -0.443421 -6.90177 0
M  V30 1591 H 259.676 1.75537 -7.96793 0
M  V30 1592 H 262.331 1.94496 -5.46629 0
M  V30 1593 H 262.61 -0.608651 -7.04676 0
M  V30 1594 H 263.602 0.889672 -7.08939 0
M  V30 1595 H 261.768 0.43308 -9.04564 0
M  V30 1596 H 261.697 -1.68366 -5.8516 0
M  V30 1597 P 263.638 2.75334 -8.47391 0
M  V30 1598 O 263.858 3.84128 -9.44797 0
M  V30 1599 O 264.428 1.51947 -8.68712 0
M  V30 1600 O 263.888 3.29363 -6.99321 0
M  V30 1601 C 262.948 4.24011 -6.4274 0
M  V30 1602 C 263.678 5.20775 -5.52155 0
M  V30 1603 O 263.888 4.56534 -4.22446 0
M  V30 1604 C 265.078 5.62629 -5.96531 0
M  V30 1605 O 265.468 6.87667 -5.41053 0
M  V30 1606 C 265.958 4.52537 -5.39283 0
M  V30 1607 C 265.248 4.20027 -4.08623 0
M  V30 1608 N 265.298 2.76189 -3.71603 0
M  V30 1609 H 262.459 4.797 -7.24003 0
M  V30 1610 H 262.189 3.69856 -5.84513 0
M  V30 1611 H 263.056 6.10356 -5.41441 0
M  V30 1612 P 267.018 7.20834 -5.23717 0
M  V30 1613 O 267.238 8.66104 -5.38572 0
M  V30 1614 O 267.808 6.33544 -6.1349 0
M  V30 1615 O 267.268 6.7751 -3.72168 0
M  V30 1616 C 266.328 7.20825 -2.7076 0
M  V30 1617 C 267.058 7.45864 -1.40599 0
M  V30 1618 O 267.268 6.17651 -0.734225 0
M  V30 1619 C 268.458 8.05808 -1.51899 0
M  V30 1620 O 268.848 8.74358 -0.335205 0
M  V30 1621 C 269.338 6.83093 -1.70294 0
M  V30 1622 C 268.628 5.79992 -0.836974 0
M  V30 1623 N 268.678 4.41864 -1.38293 0
M  V30 1624 C 268.598 3.99538 -2.69438 0
M  V30 1625 N 268.678 2.69909 -2.84277 0
M  V30 1626 C 268.818 2.21719 -1.5408 0
M  V30 1627 C 268.948 0.891712 -1.06628 0
M  V30 1628 O 268.968 -0.161298 -1.70137 0
M  V30 1629 N 269.068 0.856846 0.334985 0
M  V30 1630 C 269.068 1.9641 1.15789 0
M  V30 1631 N 269.198 1.72708 2.46522 0
M  V30 1632 N 268.938 3.21165 0.713741 0
M  V30 1633 C 268.818 3.26797 -0.639748 0
M  V30 1634 H 265.839 8.13644 -3.0377 0
M  V30 1635 H 265.569 6.42788 -2.55485 0
M  V30 1636 H 266.436 8.12039 -0.792769 0
M  V30 1637 H 269.091 5.80061 0.166416 0
M  V30 1638 H 269.37 6.51287 -2.75604 0
M  V30 1639 H 270.362 7.01734 -1.34462 0
M  V30 1640 H 268.528 8.73674 -2.38337 0
M  V30 1641 H 268.479 4.68207 -3.53221 0
M  V30 1642 H 269.161 -0.0398818 0.767965 0
M  V30 1643 H 269.198 2.50995 3.13503 0
M  V30 1644 H 269.299 0.759148 2.80716 0
M  V30 1645 P 270.398 8.91 8.68872e-13 0
M  V30 1646 O 270.618 10.1726 0.733694 0
M  V30 1647 O 271.188 8.73148 -1.23936 0
M  V30 1648 O 270.648 7.66872 0.971405 0
M  V30 1649 C 269.708 7.42309 2.04641 0
M  V30 1650 C 270.438 6.86059 3.24661 0
M  V30 1651 O 270.648 5.42847 3.03646 0
M  V30 1652 C 271.838 7.41196 3.50753 0
M  V30 1653 O 272.228 7.27073 4.86816 0
M  V30 1654 C 272.718 6.5273 2.63741 0
M  V30 1655 C 272.008 5.1842 2.73198 0
M  V30 1656 N 272.058 4.38762 1.4784 0
M  V30 1657 C 271.978 4.81605 0.168631 0
M  V30 1658 N 272.058 3.85454 -0.713363 0
M  V30 1659 C 272.198 2.6994 0.0566958 0
M  V30 1660 C 272.328 1.34815 -0.338502 0
M  V30 1661 N 272.448 0.496304 0.77465 0
M  V30 1662 C 272.448 0.908403 2.09122 0
M  V30 1663 N 272.578 -0.0517805 3.00955 0
M  V30 1664 N 272.318 2.17875 2.46519 0
M  V30 1665 C 272.198 3.01988 1.4033 0
M  V30 1666 H 269.219 8.36803 2.32493 0
M  V30 1667 H 268.949 6.70197 1.71129 0
M  V30 1668 H 269.816 7.03551 4.13168 0
M  V30 1669 P 273.778 7.20834 5.23717 0
M  V30 1670 O 273.998 7.79853 6.57286 0
M  V30 1671 O 274.568 7.79239 4.12957 0
M  V30 1672 O 274.028 5.63315 5.29344 0
M  V30 1673 C 273.088 4.80255 6.01876 0
M  V30 1674 C 273.818 3.64202 6.65911 0
M  V30 1675 O 274.028 2.60694 5.64732 0
M  V30 1676 C 275.218 3.93473 7.1943 0
M  V30 1677 O 275.608 3.02071 8.21205 0
M  V30 1678 C 276.098 3.73047 5.97036 0
M  V30 1679 C 275.388 2.58828 5.25741 0
M  V30 1680 N 275.438 2.68068 3.77503 0
M  V30 1681 H 272.599 5.40332 6.79951 0
M  V30 1682 H 272.329 4.41613 5.32378 0
M  V30 1683 H 273.196 3.26331 7.47797 0
M  V30 1684 P 277.158 2.75334 8.47391 0
M  V30 1685 O 277.378 2.44571 9.90142 0
M  V30 1686 O 277.948 3.87688 7.92115 0
M  V30 1687 O 277.408 1.4459 7.59357 0
M  V30 1688 C 276.468 0.347608 7.69215 0
M  V30 1689 C 277.198 -0.96767 7.52806 0
M  V30 1690 O 277.408 -1.21036 6.1011 0
M  V30 1691 C 278.598 -1.04544 8.13308 0
M  V30 1692 O 278.988 -2.38311 8.41922 0
M  V30 1693 C 279.478 -0.491279 7.02284 0
M  V30 1694 C 278.768 -0.996264 5.77469 0
M  V30 1695 N 278.818 -0.0501916 4.62973 0
M  V30 1696 H 275.979 0.374722 8.67691 0
M  V30 1697 H 275.709 0.443485 6.90277 0
M  V30 1698 H 276.576 -1.75537 7.96793 0
M  V30 1699 P 280.538 -2.75334 8.47391 0
M  V30 1700 O 280.758 -3.84128 9.44797 0
M  V30 1701 O 281.328 -1.51947 8.68712 0
M  V30 1702 O 280.788 -3.29363 6.99321 0
M  V30 1703 C 279.848 -4.24011 6.4274 0
M  V30 1704 C 280.578 -5.20775 5.52155 0
M  V30 1705 O 280.788 -4.56534 4.22446 0
M  V30 1706 C 281.978 -5.62629 5.96531 0
M  V30 1707 O 282.368 -6.87667 5.41053 0
M  V30 1708 C 282.858 -4.52537 5.39283 0
M  V30 1709 C 282.148 -4.20027 4.08623 0
M  V30 1710 N 282.198 -2.76189 3.71603 0
M  V30 1711 C 282.118 -1.64862 4.52822 0
M  V30 1712 N 282.198 -0.512671 3.88633 0
M  V30 1713 C 282.338 -0.888083 2.54977 0
M  V30 1714 C 282.468 -0.094668 1.38677 0
M  V30 1715 N 282.588 -0.890102 0.232633 0
M  V30 1716 C 282.588 -2.26958 0.21772 0
M  V30 1717 N 282.718 -2.84626 -0.97925 0
M  V30 1718 N 282.458 -3.0178 1.31033 0
M  V30 1719 C 282.338 -2.26781 2.43843 0
M  V30 1720 H 279.359 -4.797 7.24003 0
M  V30 1721 H 279.089 -3.69856 5.84513 0
M  V30 1722 H 279.956 -6.10356 5.41441 0
M  V30 1723 P 283.918 -7.20834 5.23717 0
M  V30 1724 O 284.138 -8.66104 5.38572 0
M  V30 1725 O 284.708 -6.33544 6.1349 0
M  V30 1726 O 284.168 -6.7751 3.72168 0
M  V30 1727 C 283.228 -7.20825 2.7076 0
M  V30 1728 C 283.958 -7.45864 1.40599 0
M  V30 1729 O 284.168 -6.17651 0.734225 0
M  V30 1730 C 285.358 -8.05808 1.51899 0
M  V30 1731 O 285.748 -8.74358 0.335205 0
M  V30 1732 C 286.238 -6.83093 1.70294 0
M  V30 1733 C 285.528 -5.79992 0.836974 0
M  V30 1734 N 285.578 -4.41864 1.38293 0
M  V30 1735 H 282.739 -8.13644 3.0377 0
M  V30 1736 H 282.469 -6.42788 2.55485 0
M  V30 1737 H 283.336 -8.12039 0.792769 0
M  V30 1738 P 287.298 -8.91 -1.02605e-12 0
M  V30 1739 O 287.518 -10.1726 -0.733694 0
M  V30 1740 O 288.088 -8.73148 1.23936 0
M  V30 1741 O 287.548 -7.66872 -0.971405 0
M  V30 1742 C 286.608 -7.42309 -2.04641 0
M  V30 1743 C 287.338 -6.86059 -3.24661 0
M  V30 1744 O 287.548 -5.42847 -3.03646 0
M  V30 1745 C 288.738 -7.41196 -3.50753 0
M  V30 1746 O 289.128 -7.27073 -4.86816 0
M  V30 1747 C 289.618 -6.5273 -2.63741 0
M  V30 1748 C 288.908 -5.1842 -2.73198 0
M  V30 1749 N 288.958 -4.38762 -1.4784 0
M  V30 1750 H 286.119 -8.36803 -2.32493 0
M  V30 1751 H 285.849 -6.70197 -1.71129 0
M  V30 1752 H 286.716 -7.03551 -4.13168 0
M  V30 1753 P 290.678 -7.20834 -5.23717 0
M  V30 1754 O 290.898 -7.79853 -6.57286 0
M  V30 1755 O 291.468 -7.79239 -4.12957 0
M  V30 1756 O 290.928 -5.63315 -5.29344 0
M  V30 1757 C 289.988 -4.80255 -6.01876 0
M  V30 1758 C 290.718 -3.64202 -6.65911 0
M  V30 1759 O 290.928 -2.60694 -5.64732 0
M  V30 1760 C 292.118 -3.93473 -7.1943 0
M  V30 1761 O 292.508 -3.02071 -8.21205 0
M  V30 1762 C 292.998 -3.73047 -5.97036 0
M  V30 1763 C 292.288 -2.58828 -5.25741 0
M  V30 1764 N 292.338 -2.68068 -3.77503 0
M  V30 1765 H 289.499 -5.40332 -6.79951 0
M  V30 1766 H 289.229 -4.41613 -5.32378 0
M  V30 1767 H 290.096 -3.26331 -7.47797 0
M  V30 1768 P 294.058 -2.75334 -8.47391 0
M  V30 1769 O 294.278 -2.44619 -9.90336 0
M  V30 1770 O 294.848 -3.87776 -7.92294 0
M  V30 1771 O 294.308 -1.4459 -7.59357 0
M  V30 1772 C 293.368 -0.347653 -7.69315 0
M  V30 1773 C 294.098 0.96767 -7.52806 0
M  V30 1774 O 294.308 1.21055 -6.10208 0
M  V30 1775 C 295.498 1.04557 -8.13408 0
M  V30 1776 O 295.888 2.38311 -8.41922 0
M  V30 1777 C 296.378 0.491279 -7.02284 0
M  V30 1778 C 295.668 0.996264 -5.77469 0
M  V30 1779 N 295.718 0.0501916 -4.62973 0
M  V30 1780 C 295.638 -1.31969 -4.65661 0
M  V30 1781 N 295.708 -1.86649 -3.48119 0
M  V30 1782 C 295.858 -0.792089 -2.62406 0
M  V30 1783 C 295.988 -0.705684 -1.2207 0
M  V30 1784 N 295.998 -1.76207 -0.413762 0
M  V30 1785 N 296.108 0.518981 -0.685754 0
M  V30 1786 C 296.098 1.57595 -1.49174 0
M  V30 1787 N 295.978 1.62909 -2.80066 0
M  V30 1788 C 295.858 0.388195 -3.3073 0
M  V30 1789 H 292.88 -0.374765 -8.67791 0
M  V30 1790 H 292.608 -0.443613 -6.90476 0
M  V30 1791 H 293.476 1.75559 -7.96891 0
M  V30 1792 H 296.131 1.94563 -5.46818 0
M  V30 1793 H 296.411 -0.608651 -7.04676 0
M  V30 1794 H 297.402 0.889796 -7.09039 0
M  V30 1795 H 295.568 0.433128 -9.04664 0
M  V30 1796 H 295.527 -1.89246 -5.57664 0
M  V30 1797 H 295.908 -2.71005 -0.804694 0
M  V30 1798 H 296.097 -1.63189 0.603768 0
M  V30 1799 H 296.205 2.53475 -0.997614 0
M  V30 1800 P 297.438 2.75334 -8.47391 0
M  V30 1801 O 297.658 3.84204 -9.44982 0
M  V30 1802 O 298.228 1.51982 -8.68909 0
M  V30 1803 O 297.688 3.29363 -6.99321 0
M  V30 1804 C 296.748 4.24066 -6.42823 0
M  V30 1805 C 297.478 5.20775 -5.52155 0
M  V30 1806 O 297.688 4.56607 -4.22514 0
M  V30 1807 C 298.878 5.62697 -5.96604 0
M  V30 1808 O 299.268 6.87667 -5.41053 0
M  V30 1809 C 299.758 4.52537 -5.39283 0
M  V30 1810 C 299.048 4.20027 -4.08623 0
M  V30 1811 N 299.098 2.76189 -3.71603 0
M  V30 1812 C 299.018 1.66944 -4.54297 0
M  V30 1813 N 299.088 0.536169 -3.91344 0
M  V30 1814 C 299.238 0.901569 -2.58849 0
M  V30 1815 C 299.368 0.146599 -1.40236 0
M  V30 1816 N 299.378 -1.18234 -1.37046 0
M  V30 1817 N 299.488 0.822941 -0.249738 0
M  V30 1818 C 299.478 2.15179 -0.280525 0
M  V30 1819 N 299.358 2.96414 -1.30822 0
M  V30 1820 C 299.238 2.25804 -2.44748 0
M  V30 1821 H 296.26 4.79756 -7.24086 0
M  V30 1822 H 295.988 3.69963 -5.84682 0
M  V30 1823 H 296.856 6.10431 -5.41508 0
M  V30 1824 H 299.511 4.78816 -3.28024 0
M  V30 1825 H 299.791 3.64957 -6.05871 0
M  V30 1826 H 300.782 4.88748 -5.21323 0
M  V30 1827 H 298.948 5.66789 -7.0643 0
M  V30 1828 H 298.907 1.74684 -5.62396 0
M  V30 1829 H 299.288 -1.71949 -2.24394 0
M  V30 1830 H 299.477 -1.67511 -0.470742 0
M  V30 1831 H 299.585 2.63704 0.6828 0
M  V30 1832 P 300.818 7.20834 -5.23717 0
M  V30 1833 O 301.038 8.66104 -5.38572 0
M  V30 1834 O 301.608 6.33544 -6.1349 0
M  V30 1835 O 301.068 6.7751 -3.72168 0
M  V30 1836 C 300.128 7.20825 -2.7076 0
M  V30 1837 C 300.858 7.45864 -1.40599 0
M  V30 1838 O 301.068 6.17651 -0.734225 0
M  V30 1839 C 302.258 8.05808 -1.51899 0
M  V30 1840 O 302.648 8.74358 -0.335205 0
M  V30 1841 C 303.138 6.83093 -1.70294 0
M  V30 1842 C 302.428 5.79992 -0.836974 0
M  V30 1843 N 302.478 4.41864 -1.38293 0
M  V30 1844 H 299.639 8.13644 -3.0377 0
M  V30 1845 H 299.369 6.42788 -2.55485 0
M  V30 1846 H 300.236 8.12039 -0.792769 0
M  V30 1847 P 304.198 8.91 1.18324e-12 0
M  V30 1848 O 304.418 10.1726 0.733694 0
M  V30 1849 O 304.988 8.73148 -1.23936 0
M  V30 1850 O 304.448 7.66872 0.971405 0
M  V30 1851 C 303.508 7.42309 2.04641 0
M  V30 1852 C 304.238 6.86059 3.24661 0
M  V30 1853 O 304.448 5.42847 3.03646 0
M  V30 1854 C 305.638 7.41196 3.50753 0
M  V30 1855 O 306.028 7.27073 4.86816 0
M  V30 1856 C 306.518 6.5273 2.63741 0
M  V30 1857 C 305.808 5.1842 2.73198 0
M  V30 1858 N 305.858 4.38762 1.4784 0
M  V30 1859 H 303.019 8.36803 2.32493 0
M  V30 1860 H 302.749 6.70197 1.71129 0
M  V30 1861 H 303.616 7.03551 4.13168 0
M  V30 1862 P 307.578 7.20834 5.23717 0
M  V30 1863 O 307.798 7.79853 6.57286 0
M  V30 1864 O 308.368 7.79239 4.12957 0
M  V30 1865 O 307.828 5.63315 5.29344 0
M  V30 1866 C 306.888 4.80255 6.01876 0
M  V30 1867 C 307.618 3.64202 6.65911 0
M  V30 1868 O 307.828 2.60694 5.64732 0
M  V30 1869 C 309.018 3.93473 7.1943 0
M  V30 1870 O 309.408 3.02071 8.21205 0
M  V30 1871 C 309.898 3.73047 5.97036 0
M  V30 1872 C 309.188 2.58828 5.25741 0
M  V30 1873 N 309.238 2.68068 3.77503 0
M  V30 1874 H 306.399 5.40332 6.79951 0
M  V30 1875 H 306.129 4.41613 5.32378 0
M  V30 1876 H 306.996 3.26331 7.47797 0
M  V30 1877 P 310.958 2.75334 8.47391 0
M  V30 1878 O 311.178 2.44619 9.90336 0
M  V30 1879 O 311.748 3.87776 7.92294 0
M  V30 1880 O 311.208 1.4459 7.59357 0
M  V30 1881 C 310.268 0.347653 7.69315 0
M  V30 1882 C 310.998 -0.96767 7.52806 0
M  V30 1883 O 311.208 -1.21055 6.10208 0
M  V30 1884 C 312.398 -1.04557 8.13408 0
M  V30 1885 O 312.788 -2.38311 8.41922 0
M  V30 1886 C 313.278 -0.491279 7.02284 0
M  V30 1887 C 312.568 -0.996264 5.77469 0
M  V30 1888 N 312.618 -0.0501916 4.62973 0
M  V30 1889 C 312.538 1.31969 4.65661 0
M  V30 1890 N 312.608 1.86649 3.48119 0
M  V30 1891 C 312.758 0.792089 2.62406 0
M  V30 1892 C 312.888 0.705684 1.2207 0
M  V30 1893 N 312.898 1.76207 0.413762 0
M  V30 1894 N 313.008 -0.518981 0.685754 0
M  V30 1895 C 312.998 -1.57595 1.49174 0
M  V30 1896 N 312.878 -1.62909 2.80066 0
M  V30 1897 C 312.758 -0.388195 3.3073 0
M  V30 1898 H 309.78 0.374765 8.67791 0
M  V30 1899 H 309.508 0.443613 6.90476 0
M  V30 1900 H 310.376 -1.75559 7.96891 0
M  V30 1901 H 313.031 -1.94563 5.46818 0
M  V30 1902 H 313.311 0.608651 7.04676 0
M  V30 1903 H 314.302 -0.889796 7.09039 0
M  V30 1904 H 312.468 -0.433128 9.04664 0
M  V30 1905 H 312.427 1.89246 5.57664 0
M  V30 1906 H 312.808 2.71005 0.804694 0
M  V30 1907 H 312.997 1.63189 -0.603768 0
M  V30 1908 H 313.105 -2.53475 0.997614 0
M  V30 1909 P 314.338 -2.75334 8.47391 0
M  V30 1910 O 314.558 -3.84166 9.4489 0
M  V30 1911 O 315.128 -1.51964 8.6881 0
M  V30 1912 O 314.588 -3.29363 6.99321 0
M  V30 1913 C 313.648 -4.23956 6.42656 0
M  V30 1914 C 314.378 -5.20775 5.52155 0
M  V30 1915 O 314.588 -4.56534 4.22446 0
M  V30 1916 C 315.778 -5.62629 5.96531 0
M  V30 1917 O 316.168 -6.87667 5.41053 0
M  V30 1918 C 316.658 -4.52537 5.39283 0
M  V30 1919 C 315.948 -4.20027 4.08623 0
M  V30 1920 N 315.998 -2.7613 3.71522 0
M  V30 1921 C 316.148 -2.45612 2.37989 0
M  V30 1922 O 316.238 -3.30919 1.51621 0
M  V30 1923 N 316.188 -1.10684 2.08435 0
M  V30 1924 C 316.098 -0.0690084 2.9792 0
M  V30 1925 O 316.148 1.10553 2.59426 0
M  V30 1926 C 315.948 -0.481522 4.35345 0
M  V30 1927 C 315.838 0.618778 5.36443 0
M  V30 1928 C 315.898 -1.78906 4.67968 0
M  V30 1929 H 313.158 -4.797 7.24003 0
M  V30 1930 H 312.889 -3.69802 5.84429 0
M  V30 1931 H 313.756 -6.10356 5.41441 0
M  V30 1932 H 316.411 -4.78651 3.27911 0
M  V30 1933 H 316.69 -3.64957 6.05871 0
M  V30 1934 H 317.682 -4.8868 5.2125 0
M  V30 1935 H 315.848 -5.66726 7.06352 0
M  V30 1936 H 315.777 -2.07737 5.72367 0
M  V30 1937 H 316.807 0.754375 5.86871 0
M  V30 1938 H 315.07 0.359721 6.10641 0
M  V30 1939 H 315.558 1.55533 4.8581 0
M  V30 1940 H 316.294 -0.862651 1.12037 0
M  V30 1941 P 317.718 -7.20834 5.23717 0
M  V30 1942 O 317.938 -8.66104 5.38572 0
M  V30 1943 O 318.508 -6.33544 6.1349 0
M  V30 1944 O 317.968 -6.7751 3.72168 0
M  V30 1945 C 317.028 -7.20825 2.7076 0
M  V30 1946 C 317.758 -7.45864 1.40599 0
M  V30 1947 O 317.968 -6.17651 0.734225 0
M  V30 1948 C 319.158 -8.05808 1.51899 0
M  V30 1949 O 319.548 -8.74358 0.335205 0
M  V30 1950 C 320.038 -6.83093 1.70294 0
M  V30 1951 C 319.328 -5.79992 0.836974 0
M  V30 1952 N 319.378 -4.41864 1.38293 0
M  V30 1953 H 316.539 -8.13644 3.0377 0
M  V30 1954 H 316.269 -6.42788 2.55485 0
M  V30 1955 H 317.136 -8.12039 0.792769 0
M  V30 1956 P 321.098 -8.91 -1.34042e-12 0
M  V30 1957 O 321.318 -10.1736 -0.733766 0
M  V30 1958 O 321.888 -8.73247 1.2395 0
M  V30 1959 O 321.348 -7.66872 -0.971405 0
M  V30 1960 C 320.408 -7.42212 -2.04614 0
M  V30 1961 C 321.138 -6.86059 -3.24661 0
M  V30 1962 O 321.348 -5.42847 -3.03646 0
M  V30 1963 C 322.538 -7.41196 -3.50753 0
M  V30 1964 O 322.928 -7.27073 -4.86816 0
M  V30 1965 C 323.418 -6.5273 -2.63741 0
M  V30 1966 C 322.708 -5.1842 -2.73198 0
M  V30 1967 N 322.758 -4.38668 -1.47808 0
M  V30 1968 C 322.908 -3.02239 -1.60048 0
M  V30 1969 O 322.998 -2.46459 -2.67869 0
M  V30 1970 N 322.948 -2.32436 -0.408571 0
M  V30 1971 C 322.858 -2.85471 0.854993 0
M  V30 1972 C 322.708 -4.28918 0.887335 0
M  V30 1973 C 322.658 -5.00349 -0.255399 0
M  V30 1974 H 319.918 -8.36803 -2.32493 0
M  V30 1975 H 319.649 -6.701 -1.71105 0
M  V30 1976 H 320.516 -7.03551 -4.13168 0
M  V30 1977 H 323.171 -4.59773 -3.53894 0
M  V30 1978 H 323.45 -6.88995 -1.59871 0
M  V30 1979 H 324.442 -6.46749 -3.03687 0
M  V30 1980 H 322.608 -8.46908 -3.20714 0
M  V30 1981 H 322.537 -6.08548 -0.206986 0
M  V30 1982 P 324.478 -7.20834 -5.23717 0
M  V30 1983 O 324.698 -7.79853 -6.57286 0
M  V30 1984 O 325.268 -7.79239 -4.12957 0
M  V30 1985 O 324.728 -5.63315 -5.29344 0
M  V30 1986 C 323.788 -4.80255 -6.01876 0
M  V30 1987 C 324.518 -3.64202 -6.65911 0
M  V30 1988 O 324.728 -2.60694 -5.64732 0
M  V30 1989 C 325.918 -3.93473 -7.1943 0
M  V30 1990 O 326.308 -3.02071 -8.21205 0
M  V30 1991 C 326.798 -3.73047 -5.97036 0
M  V30 1992 C 326.088 -2.58828 -5.25741 0
M  V30 1993 N 326.138 -2.68068 -3.77503 0
M  V30 1994 C 326.058 -3.79715 -2.96723 0
M  V30 1995 N 326.138 -3.5377 -1.68852 0
M  V30 1996 C 326.278 -2.15054 -1.63254 0
M  V30 1997 C 326.408 -1.28964 -0.518571 0
M  V30 1998 O 326.428 -1.56826 0.679156 0
M  V30 1999 N 326.528 0.0538097 -0.918425 0
M  V30 2000 C 326.528 0.494275 -2.22578 0
M  V30 2001 N 326.658 1.81086 -2.40434 0
M  V30 2002 N 326.398 -0.313645 -3.27502 0
M  V30 2003 C 326.278 -1.61829 -2.91033 0
M  V30 2004 H 323.299 -5.40332 -6.79951 0
M  V30 2005 H 323.029 -4.41613 -5.32378 0
M  V30 2006 H 323.896 -3.26331 -7.47797 0
M  V30 2007 H 326.551 -1.63422 -5.56814 0
M  V30 2008 H 326.83 -4.63374 -5.34244 0
M  V30 2009 H 327.822 -3.44728 -6.25838 0
M  V30 2010 H 325.988 -4.96652 -7.57263 0
M  V30 2011 H 325.939 -4.80617 -3.3614 0
M  V30 2012 H 326.621 0.742702 -0.199384 0
M  V30 2013 H 326.658 2.20598 -3.35588 0
M  V30 2014 H 326.759 2.43518 -1.58945 0
M  V30 2015 P 327.858 -2.75334 -8.47391 0
M  V30 2016 O 328.078 -2.44571 -9.90142 0
M  V30 2017 O 328.648 -3.87688 -7.92115 0
M  V30 2018 O 328.108 -1.4459 -7.59357 0
M  V30 2019 C 327.168 -0.347608 -7.69215 0
M  V30 2020 C 327.898 0.96767 -7.52806 0
M  V30 2021 O 328.108 1.21036 -6.1011 0
M  V30 2022 C 329.298 1.04544 -8.13308 0
M  V30 2023 O 329.688 2.38311 -8.41922 0
M  V30 2024 C 330.178 0.491279 -7.02284 0
M  V30 2025 C 329.468 0.996264 -5.77469 0
M  V30 2026 N 329.518 0.0501916 -4.62973 0
M  V30 2027 C 329.438 -1.32786 -4.63244 0
M  V30 2028 N 329.518 -1.86957 -3.44545 0
M  V30 2029 C 329.658 -0.780241 -2.58481 0
M  V30 2030 C 329.788 -0.738536 -1.17757 0
M  V30 2031 N 329.908 0.58337 -0.711393 0
M  V30 2032 C 329.908 1.70816 -1.51017 0
M  V30 2033 N 330.038 2.87826 -0.880757 0
M  V30 2034 N 329.778 1.67126 -2.8339 0
M  V30 2035 C 329.658 0.401421 -3.30572 0
M  V30 2036 H 326.679 -0.374722 -8.67691 0
M  V30 2037 H 326.409 -0.443485 -6.90277 0
M  V30 2038 H 327.276 1.75537 -7.96793 0
M  V30 2039 P 331.238 2.75334 -8.47391 0
M  V30 2040 O 331.458 3.84204 -9.44982 0
M  V30 2041 O 332.028 1.51982 -8.68909 0
M  V30 2042 O 331.488 3.29363 -6.99321 0
M  V30 2043 C 330.548 4.24066 -6.42823 0
M  V30 2044 C 331.278 5.20775 -5.52155 0
M  V30 2045 O 331.488 4.56607 -4.22514 0
M  V30 2046 C 332.678 5.62697 -5.96604 0
M  V30 2047 O 333.068 6.87667 -5.41053 0
M  V30 2048 C 333.558 4.52537 -5.39283 0
M  V30 2049 C 332.848 4.20027 -4.08623 0
M  V30 2050 N 332.898 2.76189 -3.71603 0
M  V30 2051 H 330.06 4.79756 -7.24086 0
M  V30 2052 H 329.788 3.69963 -5.84682 0
M  V30 2053 H 330.656 6.10431 -5.41508 0
M  V30 2054 H 333.311 4.78816 -3.28024 0
M  V30 2055 H 333.591 3.64957 -6.05871 0
M  V30 2056 H 334.582 4.88748 -5.21323 0
M  V30 2057 H 332.748 5.66789 -7.0643 0
M  V30 2058 P 334.618 7.20834 -5.23717 0
M  V30 2059 O 334.838 8.66104 -5.38572 0
M  V30 2060 O 335.408 6.33544 -6.1349 0
M  V30 2061 O 334.868 6.7751 -3.72168 0
M  V30 2062 C 333.928 7.20825 -2.7076 0
M  V30 2063 C 334.658 7.45864 -1.40599 0
M  V30 2064 O 334.868 6.17651 -0.734225 0
M  V30 2065 C 336.058 8.05808 -1.51899 0
M  V30 2066 O 336.448 8.74358 -0.335205 0
M  V30 2067 C 336.938 6.83093 -1.70294 0
M  V30 2068 C 336.228 5.79992 -0.836974 0
M  V30 2069 N 336.278 4.41864 -1.38293 0
M  V30 2070 H 333.439 8.13644 -3.0377 0
M  V30 2071 H 333.169 6.42788 -2.55485 0
M  V30 2072 H 334.036 8.12039 -0.792769 0
M  V30 2073 P 337.998 8.91 1.4976e-12 0
M  V30 2074 O 338.218 10.1726 0.733694 0
M  V30 2075 O 338.788 8.73148 -1.23936 0
M  V30 2076 O 338.248 7.66872 0.971405 0
M  V30 2077 C 337.308 7.42309 2.04641 0
M  V30 2078 C 338.038 6.86059 3.24661 0
M  V30 2079 O 338.248 5.42847 3.03646 0
M  V30 2080 C 339.438 7.41196 3.50753 0
M  V30 2081 O 339.828 7.27073 4.86816 0
M  V30 2082 C 340.318 6.5273 2.63741 0
M  V30 2083 C 339.608 5.1842 2.73198 0
M  V30 2084 N 339.658 4.38762 1.4784 0
M  V30 2085 H 336.819 8.36803 2.32493 0
M  V30 2086 H 336.549 6.70197 1.71129 0
M  V30 2087 H 337.416 7.03551 4.13168 0
M  V30 2088 P 341.378 7.20834 5.23717 0
M  V30 2089 O 341.598 7.80006 6.57415 0
M  V30 2090 O 342.168 7.79416 4.13051 0
M  V30 2091 O 341.628 5.63315 5.29344 0
M  V30 2092 C 340.688 4.80318 6.01954 0
M  V30 2093 C 341.418 3.64202 6.65911 0
M  V30 2094 O 341.628 2.60736 5.64823 0
M  V30 2095 C 342.818 3.93521 7.19518 0
M  V30 2096 O 343.208 3.02071 8.21205 0
M  V30 2097 C 343.698 3.73047 5.97036 0
M  V30 2098 C 342.988 2.58828 5.25741 0
M  V30 2099 N 343.038 2.68068 3.77503 0
M  V30 2100 H 340.2 5.40394 6.8003 0
M  V30 2101 H 339.928 4.41741 5.32532 0
M  V30 2102 H 340.796 3.26371 7.47889 0
M  V30 2103 H 343.451 1.64007 5.56746 0
M  V30 2104 H 343.731 4.63439 5.3432 0
M  V30 2105 H 344.722 3.44776 6.25925 0
M  V30 2106 H 342.888 4.96707 7.57347 0
M  V30 2107 P 344.758 2.75334 8.47391 0
M  V30 2108 O 344.978 2.44571 9.90142 0
M  V30 2109 O 345.548 3.87688 7.92115 0
M  V30 2110 O 345.008 1.4459 7.59357 0
M  V30 2111 C 344.068 0.347608 7.69215 0
M  V30 2112 C 344.798 -0.96767 7.52806 0
M  V30 2113 O 345.008 -1.21036 6.1011 0
M  V30 2114 C 346.198 -1.04544 8.13308 0
M  V30 2115 O 346.588 -2.38311 8.41922 0
M  V30 2116 C 347.078 -0.491279 7.02284 0
M  V30 2117 C 346.368 -0.996264 5.77469 0
M  V30 2118 N 346.418 -0.0501916 4.62973 0
M  V30 2119 H 343.579 0.374722 8.67691 0
M  V30 2120 H 343.309 0.443485 6.90277 0
M  V30 2121 H 344.176 -1.75537 7.96793 0
M  V30 2122 P 348.138 -2.75334 8.47391 0
M  V30 2123 O 348.358 -3.84166 9.4489 0
M  V30 2124 O 348.928 -1.51964 8.6881 0
M  V30 2125 O 348.388 -3.29363 6.99321 0
M  V30 2126 C 347.448 -4.23956 6.42656 0
M  V30 2127 C 348.178 -5.20775 5.52155 0
M  V30 2128 O 348.388 -4.56534 4.22446 0
M  V30 2129 C 349.578 -5.62629 5.96531 0
M  V30 2130 O 349.968 -6.87667 5.41053 0
M  V30 2131 C 350.458 -4.52537 5.39283 0
M  V30 2132 C 349.748 -4.20027 4.08623 0
M  V30 2133 N 349.798 -2.7613 3.71522 0
M  V30 2134 C 349.948 -2.45612 2.37989 0
M  V30 2135 O 350.038 -3.30919 1.51621 0
M  V30 2136 N 349.988 -1.10684 2.08435 0
M  V30 2137 C 349.898 -0.0690084 2.9792 0
M  V30 2138 C 349.748 -0.481522 4.35345 0
M  V30 2139 C 349.698 -1.78906 4.67968 0
M  V30 2140 H 346.958 -4.797 7.24003 0
M  V30 2141 H 346.689 -3.69802 5.84429 0
M  V30 2142 H 347.556 -6.10356 5.41441 0
M  V30 2143 H 350.211 -4.78651 3.27911 0
M  V30 2144 H 350.49 -3.64957 6.05871 0
M  V30 2145 H 351.482 -4.8868 5.2125 0
M  V30 2146 H 349.648 -5.66726 7.06352 0
M  V30 2147 H 349.577 -2.07737 5.72367 0
M  V30 2148 P 351.518 -7.20834 5.23717 0
M  V30 2149 O 351.738 -8.66189 5.38625 0
M  V30 2150 O 352.308 -6.33615 6.1356 0
M  V30 2151 O 351.768 -6.7751 3.72168 0
M  V30 2152 C 350.828 -7.20732 2.70725 0
M  V30 2153 C 351.558 -7.45864 1.40599 0
M  V30 2154 O 351.768 -6.17651 0.734225 0
M  V30 2155 C 352.958 -8.05808 1.51899 0
M  V30 2156 O 353.348 -8.74358 0.335205 0
M  V30 2157 C 353.838 -6.83093 1.70294 0
M  V30 2158 C 353.128 -5.79992 0.836974 0
M  V30 2159 N 353.178 -4.41769 1.38263 0
M  V30 2160 C 353.328 -3.38591 0.481702 0
M  V30 2161 O 353.418 -3.56839 -0.718452 0
M  V30 2162 N 353.368 -2.1206 1.03569 0
M  V30 2163 C 353.278 -1.80696 2.36966 0
M  V30 2164 O 353.328 -0.630473 2.74862 0
M  V30 2165 C 353.128 -2.94845 3.23898 0
M  V30 2166 C 353.018 -2.65253 4.70362 0
M  V30 2167 C 353.078 -4.19803 2.73435 0
M  V30 2168 H 350.338 -8.13644 3.0377 0
M  V30 2169 H 350.069 -6.42695 2.55448 0
M  V30 2170 H 350.936 -8.12039 0.792769 0
M  V30 2171 H 353.591 -5.79978 -0.160587 0
M  V30 2172 H 353.87 -6.51379 2.75643 0
M  V30 2173 H 354.862 -7.01734 1.34462 0
M  V30 2174 H 353.028 -8.73674 2.38337 0
M  V30 2175 H 352.957 -5.04492 3.4095 0
M  V30 2176 H 353.987 -2.83924 5.1913 0
M  V30 2177 H 352.25 -3.29824 5.15163 0
M  V30 2178 H 352.738 -1.59723 4.84449 0
M  V30 2179 H 353.474 -1.35644 0.399345 0
M  V30 2180 P 354.898 -8.91 -1.65478e-12 0
M  V30 2181 O 355.118 -10.1736 -0.733766 0
M  V30 2182 O 355.688 -8.73247 1.2395 0
M  V30 2183 O 355.148 -7.66872 -0.971405 0
M  V30 2184 C 354.208 -7.42212 -2.04614 0
M  V30 2185 C 354.938 -6.86059 -3.24661 0
M  V30 2186 O 355.148 -5.42847 -3.03646 0
M  V30 2187 C 356.338 -7.41196 -3.50753 0
M  V30 2188 O 356.728 -7.27073 -4.86816 0
M  V30 2189 C 357.218 -6.5273 -2.63741 0
M  V30 2190 C 356.508 -5.1842 -2.73198 0
M  V30 2191 N 356.558 -4.38668 -1.47808 0
M  V30 2192 C 356.708 -3.02239 -1.60048 0
M  V30 2193 O 356.798 -2.46459 -2.67869 0
M  V30 2194 N 356.748 -2.32436 -0.408571 0
M  V30 2195 C 356.658 -2.85471 0.854993 0
M  V30 2196 O 356.708 -2.12566 1.8531 0
M  V30 2197 C 356.508 -4.28918 0.887335 0
M  V30 2198 C 356.398 -4.91066 2.24619 0
M  V30 2199 C 356.458 -5.00349 -0.255399 0
M  V30 2200 H 353.718 -8.36803 -2.32493 0
M  V30 2201 H 353.449 -6.701 -1.71105 0
M  V30 2202 H 354.316 -7.03551 -4.13168 0
M  V30 2203 H 356.971 -4.59773 -3.53894 0
M  V30 2204 H 357.25 -6.88995 -1.59871 0
M  V30 2205 H 358.242 -6.46749 -3.03687 0
M  V30 2206 H 356.408 -8.46908 -3.20714 0
M  V30 2207 H 356.337 -6.08548 -0.206986 0
M  V30 2208 H 357.367 -5.34836 2.53099 0
M  V30 2209 H 355.63 -5.69638 2.2291 0
M  V30 2210 H 356.118 -4.13971 2.98044 0
M  V30 2211 H 356.854 -1.33211 -0.474216 0
M  V30 2212 P 358.278 -7.20834 -5.23717 0
M  V30 2213 O 358.498 -7.79853 -6.57286 0
M  V30 2214 O 359.068 -7.79239 -4.12957 0
M  V30 2215 O 358.528 -5.63315 -5.29344 0
M  V30 2216 C 357.588 -4.80255 -6.01876 0
M  V30 2217 C 358.318 -3.64202 -6.65911 0
M  V30 2218 O 358.528 -2.60694 -5.64732 0
M  V30 2219 C 359.718 -3.93473 -7.1943 0
M  V30 2220 O 360.108 -3.02071 -8.21205 0
M  V30 2221 C 360.598 -3.73047 -5.97036 0
M  V30 2222 C 359.888 -2.58828 -5.25741 0
M  V30 2223 N 359.938 -2.68068 -3.77503 0
M  V30 2224 H 357.099 -5.40332 -6.79951 0
M  V30 2225 H 356.829 -4.41613 -5.32378 0
M  V30 2226 H 357.696 -3.26331 -7.47797 0
M  V30 2227 P 361.658 -2.75334 -8.47391 0
M  V30 2228 O 361.878 -2.44571 -9.90142 0
M  V30 2229 O 362.448 -3.87688 -7.92115 0
M  V30 2230 O 361.908 -1.4459 -7.59357 0
M  V30 2231 C 360.968 -0.347608 -7.69215 0
M  V30 2232 C 361.698 0.96767 -7.52806 0
M  V30 2233 O 361.908 1.21036 -6.1011 0
M  V30 2234 C 363.098 1.04544 -8.13308 0
M  V30 2235 O 363.488 2.38311 -8.41922 0
M  V30 2236 C 363.978 0.491279 -7.02284 0
M  V30 2237 C 363.268 0.996264 -5.77469 0
M  V30 2238 N 363.318 0.0501916 -4.62973 0
M  V30 2239 H 360.479 -0.374722 -8.67691 0
M  V30 2240 H 360.209 -0.443485 -6.90277 0
M  V30 2241 H 361.076 1.75537 -7.96793 0
M  V30 2242 P 365.038 2.75334 -8.47391 0
M  V30 2243 O 365.258 3.84128 -9.44797 0
M  V30 2244 O 365.828 1.51947 -8.68712 0
M  V30 2245 O 365.288 3.29363 -6.99321 0
M  V30 2246 C 364.348 4.24011 -6.4274 0
M  V30 2247 C 365.078 5.20775 -5.52155 0
M  V30 2248 O 365.288 4.56534 -4.22446 0
M  V30 2249 C 366.478 5.62629 -5.96531 0
M  V30 2250 O 366.868 6.87667 -5.41053 0
M  V30 2251 C 367.358 4.52537 -5.39283 0
M  V30 2252 C 366.648 4.20027 -4.08623 0
M  V30 2253 N 366.698 2.76189 -3.71603 0
M  V30 2254 H 363.859 4.797 -7.24003 0
M  V30 2255 H 363.589 3.69856 -5.84513 0
M  V30 2256 H 364.456 6.10356 -5.41441 0
M  V30 2257 P 368.418 7.20834 -5.23717 0
M  V30 2258 O 368.638 8.66104 -5.38572 0
M  V30 2259 O 369.208 6.33544 -6.1349 0
M  V30 2260 O 368.668 6.7751 -3.72168 0
M  V30 2261 C 367.728 7.20825 -2.7076 0
M  V30 2262 C 368.458 7.45864 -1.40599 0
M  V30 2263 O 368.668 6.17651 -0.734225 0
M  V30 2264 C 369.858 8.05808 -1.51899 0
M  V30 2265 O 370.248 8.74358 -0.335205 0
M  V30 2266 C 370.738 6.83093 -1.70294 0
M  V30 2267 C 370.028 5.79992 -0.836974 0
M  V30 2268 N 370.078 4.41864 -1.38293 0
M  V30 2269 H 367.239 8.13644 -3.0377 0
M  V30 2270 H 366.969 6.42788 -2.55485 0
M  V30 2271 H 367.836 8.12039 -0.792769 0
M  V30 2272 P 371.798 8.91 1.81197e-12 0
M  V30 2273 O 372.018 10.1726 0.733694 0
M  V30 2274 O 372.588 8.73148 -1.23936 0
M  V30 2275 O 372.048 7.66872 0.971405 0
M  V30 2276 C 371.108 7.42309 2.04641 0
M  V30 2277 C 371.838 6.86059 3.24661 0
M  V30 2278 O 372.048 5.42847 3.03646 0
M  V30 2279 C 373.238 7.41196 3.50753 0
M  V30 2280 O 373.628 7.27073 4.86816 0
M  V30 2281 C 374.118 6.5273 2.63741 0
M  V30 2282 C 373.408 5.1842 2.73198 0
M  V30 2283 N 373.458 4.38762 1.4784 0
M  V30 2284 C 373.378 4.81605 0.168631 0
M  V30 2285 N 373.458 3.85454 -0.713363 0
M  V30 2286 C 373.598 2.6994 0.0566958 0
M  V30 2287 C 373.728 1.34815 -0.338502 0
M  V30 2288 N 373.848 0.496304 0.77465 0
M  V30 2289 C 373.848 0.908403 2.09122 0
M  V30 2290 N 373.978 -0.0517805 3.00955 0
M  V30 2291 N 373.718 2.17875 2.46519 0
M  V30 2292 C 373.598 3.01988 1.4033 0
M  V30 2293 H 370.619 8.36803 2.32493 0
M  V30 2294 H 370.349 6.70197 1.71129 0
M  V30 2295 H 371.216 7.03551 4.13168 0
M  V30 2296 P 375.178 7.20834 5.23717 0
M  V30 2297 O 375.398 7.79853 6.57286 0
M  V30 2298 O 375.968 7.79239 4.12957 0
M  V30 2299 O 375.428 5.63315 5.29344 0
M  V30 2300 C 374.488 4.80255 6.01876 0
M  V30 2301 C 375.218 3.64202 6.65911 0
M  V30 2302 O 375.428 2.60694 5.64732 0
M  V30 2303 C 376.618 3.93473 7.1943 0
M  V30 2304 O 377.008 3.02071 8.21205 0
M  V30 2305 C 377.498 3.73047 5.97036 0
M  V30 2306 C 376.788 2.58828 5.25741 0
M  V30 2307 N 376.838 2.68068 3.77503 0
M  V30 2308 H 373.999 5.40332 6.79951 0
M  V30 2309 H 373.729 4.41613 5.32378 0
M  V30 2310 H 374.596 3.26331 7.47797 0
M  V30 2311 P 378.558 2.75334 8.47391 0
M  V30 2312 O 378.778 2.44571 9.90142 0
M  V30 2313 O 379.348 3.87688 7.92115 0
M  V30 2314 O 378.808 1.4459 7.59357 0
M  V30 2315 C 377.868 0.347608 7.69215 0
M  V30 2316 C 378.598 -0.96767 7.52806 0
M  V30 2317 O 378.808 -1.21036 6.1011 0
M  V30 2318 C 379.998 -1.04544 8.13308 0
M  V30 2319 O 380.388 -2.38311 8.41922 0
M  V30 2320 C 380.878 -0.491279 7.02284 0
M  V30 2321 C 380.168 -0.996264 5.77469 0
M  V30 2322 N 380.218 -0.0501916 4.62973 0
M  V30 2323 H 377.379 0.374722 8.67691 0
M  V30 2324 H 377.109 0.443485 6.90277 0
M  V30 2325 H 377.976 -1.75537 7.96793 0
M  V30 2326 P 381.938 -2.75334 8.47391 0
M  V30 2327 O 382.158 -3.84128 9.44797 0
M  V30 2328 O 382.728 -1.51947 8.68712 0
M  V30 2329 O 382.188 -3.29363 6.99321 0
M  V30 2330 C 381.248 -4.24011 6.4274 0
M  V30 2331 C 381.978 -5.20775 5.52155 0
M  V30 2332 O 382.188 -4.56534 4.22446 0
M  V30 2333 C 383.378 -5.62629 5.96531 0
M  V30 2334 O 383.768 -6.87667 5.41053 0
M  V30 2335 C 384.258 -4.52537 5.39283 0
M  V30 2336 C 383.548 -4.20027 4.08623 0
M  V30 2337 N 383.598 -2.76189 3.71603 0
M  V30 2338 H 380.759 -4.797 7.24003 0
M  V30 2339 H 380.489 -3.69856 5.84513 0
M  V30 2340 H 381.356 -6.10356 5.41441 0
M  V30 2341 P 385.318 -7.20834 5.23717 0
M  V30 2342 O 385.538 -8.66104 5.38572 0
M  V30 2343 O 386.108 -6.33544 6.1349 0
M  V30 2344 O 385.568 -6.7751 3.72168 0
M  V30 2345 C 384.628 -7.20825 2.7076 0
M  V30 2346 C 385.358 -7.45864 1.40599 0
M  V30 2347 O 385.568 -6.17651 0.734225 0
M  V30 2348 C 386.758 -8.05808 1.51899 0
M  V30 2349 O 387.148 -8.74358 0.335205 0
M  V30 2350 C 387.638 -6.83093 1.70294 0
M  V30 2351 C 386.928 -5.79992 0.836974 0
M  V30 2352 N 386.978 -4.41864 1.38293 0
M  V30 2353 H 384.139 -8.13644 3.0377 0
M  V30 2354 H 383.869 -6.42788 2.55485 0
M  V30 2355 H 384.736 -8.12039 0.792769 0
M  V30 2356 P 388.698 -8.91 -1.96915e-12 0
M  V30 2357 O 388.918 -10.1726 -0.733694 0
M  V30 2358 O 389.488 -8.73148 1.23936 0
M  V30 2359 O 388.948 -7.66872 -0.971405 0
M  V30 2360 C 388.008 -7.42309 -2.04641 0
M  V30 2361 C 388.738 -6.86059 -3.24661 0
M  V30 2362 O 388.948 -5.42847 -3.03646 0
M  V30 2363 C 390.138 -7.41196 -3.50753 0
M  V30 2364 O 390.528 -7.27073 -4.86816 0
M  V30 2365 C 391.018 -6.5273 -2.63741 0
M  V30 2366 C 390.308 -5.1842 -2.73198 0
M  V30 2367 N 390.358 -4.38762 -1.4784 0
M  V30 2368 H 387.519 -8.36803 -2.32493 0
M  V30 2369 H 387.249 -6.70197 -1.71129 0
M  V30 2370 H 388.116 -7.03551 -4.13168 0
M  V30 2371 P 392.078 -7.20834 -5.23717 0
M  V30 2372 O 392.298 -7.79853 -6.57286 0
M  V30 2373 O 392.868 -7.79239 -4.12957 0
M  V30 2374 O 392.328 -5.63315 -5.29344 0
M  V30 2375 C 391.388 -4.80255 -6.01876 0
M  V30 2376 C 392.118 -3.64202 -6.65911 0
M  V30 2377 O 392.328 -2.60694 -5.64732 0
M  V30 2378 C 393.518 -3.93473 -7.1943 0
M  V30 2379 O 393.908 -3.02071 -8.21205 0
M  V30 2380 C 394.398 -3.73047 -5.97036 0
M  V30 2381 C 393.688 -2.58828 -5.25741 0
M  V30 2382 N 393.738 -2.68068 -3.77503 0
M  V30 2383 H 390.899 -5.40332 -6.79951 0
M  V30 2384 H 390.629 -4.41613 -5.32378 0
M  V30 2385 H 391.496 -3.26331 -7.47797 0
M  V30 2386 P 395.458 -2.75334 -8.47391 0
M  V30 2387 O 395.678 -2.44619 -9.90336 0
M  V30 2388 O 396.248 -3.87776 -7.92294 0
M  V30 2389 O 395.708 -1.4459 -7.59357 0
M  V30 2390 C 394.768 -0.347653 -7.69315 0
M  V30 2391 C 395.498 0.96767 -7.52806 0
M  V30 2392 O 395.708 1.21055 -6.10208 0
M  V30 2393 C 396.898 1.04557 -8.13408 0
M  V30 2394 O 397.288 2.38311 -8.41922 0
M  V30 2395 C 397.778 0.491279 -7.02284 0
M  V30 2396 C 397.068 0.996264 -5.77469 0
M  V30 2397 N 397.118 0.0501916 -4.62973 0
M  V30 2398 H 394.28 -0.374765 -8.67791 0
M  V30 2399 H 394.008 -0.443613 -6.90476 0
M  V30 2400 H 394.876 1.75559 -7.96891 0
M  V30 2401 H 397.531 1.94563 -5.46818 0
M  V30 2402 H 397.811 -0.608651 -7.04676 0
M  V30 2403 H 398.802 0.889796 -7.09039 0
M  V30 2404 H 396.968 0.433128 -9.04664 0
M  V30 2405 P 398.838 2.75334 -8.47391 0
M  V30 2406 O 399.058 3.84128 -9.44797 0
M  V30 2407 O 399.628 1.51947 -8.68712 0
M  V30 2408 O 399.088 3.29363 -6.99321 0
M  V30 2409 C 398.148 4.24011 -6.4274 0
M  V30 2410 C 398.878 5.20775 -5.52155 0
M  V30 2411 O 399.088 4.56534 -4.22446 0
M  V30 2412 C 400.278 5.62629 -5.96531 0
M  V30 2413 O 400.668 6.87667 -5.41053 0
M  V30 2414 C 401.158 4.52537 -5.39283 0
M  V30 2415 C 400.448 4.20027 -4.08623 0
M  V30 2416 N 400.498 2.76189 -3.71603 0
M  V30 2417 C 400.418 1.64862 -4.52822 0
M  V30 2418 N 400.498 0.512671 -3.88633 0
M  V30 2419 C 400.638 0.888083 -2.54977 0
M  V30 2420 C 400.768 0.094668 -1.38677 0
M  V30 2421 N 400.888 0.890102 -0.232633 0
M  V30 2422 C 400.888 2.26958 -0.21772 0
M  V30 2423 N 401.018 2.84626 0.97925 0
M  V30 2424 N 400.758 3.0178 -1.31033 0
M  V30 2425 C 400.638 2.26781 -2.43843 0
M  V30 2426 H 397.659 4.797 -7.24003 0
M  V30 2427 H 397.389 3.69856 -5.84513 0
M  V30 2428 H 398.256 6.10356 -5.41441 0
M  V30 2429 P 402.218 7.20834 -5.23717 0
M  V30 2430 O 402.438 8.66104 -5.38572 0
M  V30 2431 O 403.008 6.33544 -6.1349 0
M  V30 2432 O 402.468 6.7751 -3.72168 0
M  V30 2433 C 401.528 7.20825 -2.7076 0
M  V30 2434 C 402.258 7.45864 -1.40599 0
M  V30 2435 O 402.468 6.17651 -0.734225 0
M  V30 2436 C 403.658 8.05808 -1.51899 0
M  V30 2437 O 404.048 8.74358 -0.335205 0
M  V30 2438 C 404.538 6.83093 -1.70294 0
M  V30 2439 C 403.828 5.79992 -0.836974 0
M  V30 2440 N 403.878 4.41864 -1.38293 0
M  V30 2441 H 401.039 8.13644 -3.0377 0
M  V30 2442 H 400.769 6.42788 -2.55485 0
M  V30 2443 H 401.636 8.12039 -0.792769 0
M  V30 2444 P 405.598 8.91 2.12633e-12 0
M  V30 2445 O 405.818 10.1726 0.733694 0
M  V30 2446 O 406.388 8.73148 -1.23936 0
M  V30 2447 O 405.848 7.66872 0.971405 0
M  V30 2448 C 404.908 7.42309 2.04641 0
M  V30 2449 C 405.638 6.86059 3.24661 0
M  V30 2450 O 405.848 5.42847 3.03646 0
M  V30 2451 C 407.038 7.41196 3.50753 0
M  V30 2452 O 407.428 7.27073 4.86816 0
M  V30 2453 C 407.918 6.5273 2.63741 0
M  V30 2454 C 407.208 5.1842 2.73198 0
M  V30 2455 N 407.258 4.38762 1.4784 0
M  V30 2456 H 404.419 8.36803 2.32493 0
M  V30 2457 H 404.149 6.70197 1.71129 0
M  V30 2458 H 405.016 7.03551 4.13168 0
M  V30 2459 P 408.978 7.20834 5.23717 0
M  V30 2460 O 409.198 7.80006 6.57415 0
M  V30 2461 O 409.768 7.79416 4.13051 0
M  V30 2462 O 409.228 5.63315 5.29344 0
M  V30 2463 C 408.288 4.80318 6.01954 0
M  V30 2464 C 409.018 3.64202 6.65911 0
M  V30 2465 O 409.228 2.60736 5.64823 0
M  V30 2466 C 410.418 3.93521 7.19518 0
M  V30 2467 O 410.808 3.02071 8.21205 0
M  V30 2468 C 411.298 3.73047 5.97036 0
M  V30 2469 C 410.588 2.58828 5.25741 0
M  V30 2470 N 410.638 2.68068 3.77503 0
M  V30 2471 H 407.8 5.40394 6.8003 0
M  V30 2472 H 407.528 4.41741 5.32532 0
M  V30 2473 H 408.396 3.26371 7.47889 0
M  V30 2474 H 411.051 1.64007 5.56746 0
M  V30 2475 H 411.331 4.63439 5.3432 0
M  V30 2476 H 412.322 3.44776 6.25925 0
M  V30 2477 H 410.488 4.96707 7.57347 0
M  V30 2478 P 412.358 2.75334 8.47391 0
M  V30 2479 O 412.578 2.44619 9.90336 0
M  V30 2480 O 413.148 3.87776 7.92294 0
M  V30 2481 O 412.608 1.4459 7.59357 0
M  V30 2482 C 411.668 0.347653 7.69315 0
M  V30 2483 C 412.398 -0.96767 7.52806 0
M  V30 2484 O 412.608 -1.21055 6.10208 0
M  V30 2485 C 413.798 -1.04557 8.13408 0
M  V30 2486 O 414.188 -2.38311 8.41922 0
M  V30 2487 C 414.678 -0.491279 7.02284 0
M  V30 2488 C 413.968 -0.996264 5.77469 0
M  V30 2489 N 414.018 -0.0501916 4.62973 0
M  V30 2490 C 413.938 1.31969 4.65661 0
M  V30 2491 N 414.008 1.86649 3.48119 0
M  V30 2492 C 414.158 0.792089 2.62406 0
M  V30 2493 C 414.288 0.705684 1.2207 0
M  V30 2494 N 414.298 1.76207 0.413762 0
M  V30 2495 N 414.408 -0.518981 0.685754 0
M  V30 2496 C 414.398 -1.57595 1.49174 0
M  V30 2497 N 414.278 -1.62909 2.80066 0
M  V30 2498 C 414.158 -0.388195 3.3073 0
M  V30 2499 H 411.18 0.374765 8.67791 0
M  V30 2500 H 410.908 0.443613 6.90476 0
M  V30 2501 H 411.776 -1.75559 7.96891 0
M  V30 2502 H 414.431 -1.94563 5.46818 0
M  V30 2503 H 414.711 0.608651 7.04676 0
M  V30 2504 H 415.702 -0.889796 7.09039 0
M  V30 2505 H 413.868 -0.433128 9.04664 0
M  V30 2506 H 413.827 1.89246 5.57664 0
M  V30 2507 H 414.208 2.71005 0.804694 0
M  V30 2508 H 414.397 1.63189 -0.603768 0
M  V30 2509 H 414.505 -2.53475 0.997614 0
M  V30 2510 P 415.738 -2.75334 8.47391 0
M  V30 2511 O 415.958 -3.84128 9.44797 0
M  V30 2512 O 416.528 -1.51947 8.68712 0
M  V30 2513 O 415.988 -3.29363 6.99321 0
M  V30 2514 C 415.048 -4.24011 6.4274 0
M  V30 2515 C 415.778 -5.20775 5.52155 0
M  V30 2516 O 415.988 -4.56534 4.22446 0
M  V30 2517 C 417.178 -5.62629 5.96531 0
M  V30 2518 O 417.568 -6.87667 5.41053 0
M  V30 2519 C 418.058 -4.52537 5.39283 0
M  V30 2520 C 417.348 -4.20027 4.08623 0
M  V30 2521 N 417.398 -2.76189 3.71603 0
M  V30 2522 H 414.559 -4.797 7.24003 0
M  V30 2523 H 414.289 -3.69856 5.84513 0
M  V30 2524 H 415.156 -6.10356 5.41441 0
M  V30 2525 P 419.118 -7.20834 5.23717 0
M  V30 2526 O 419.338 -8.66104 5.38572 0
M  V30 2527 O 419.908 -6.33544 6.1349 0
M  V30 2528 O 419.368 -6.7751 3.72168 0
M  V30 2529 C 418.428 -7.20825 2.7076 0
M  V30 2530 C 419.158 -7.45864 1.40599 0
M  V30 2531 O 419.368 -6.17651 0.734225 0
M  V30 2532 C 420.558 -8.05808 1.51899 0
M  V30 2533 O 420.948 -8.74358 0.335205 0
M  V30 2534 C 421.438 -6.83093 1.70294 0
M  V30 2535 C 420.728 -5.79992 0.836974 0
M  V30 2536 N 420.778 -4.41864 1.38293 0
M  V30 2537 H 417.939 -8.13644 3.0377 0
M  V30 2538 H 417.669 -6.42788 2.55485 0
M  V30 2539 H 418.536 -8.12039 0.792769 0
M  V30 2540 P 422.497 -8.91 -2.28351e-12 0
M  V30 2541 O 422.717 -10.1726 -0.733694 0
M  V30 2542 O 423.287 -8.73148 1.23936 0
M  V30 2543 O 422.747 -7.66872 -0.971405 0
M  V30 2544 C 421.807 -7.42309 -2.04641 0
M  V30 2545 C 422.537 -6.86059 -3.24661 0
M  V30 2546 O 422.747 -5.42847 -3.03646 0
M  V30 2547 C 423.937 -7.41196 -3.50753 0
M  V30 2548 O 424.327 -7.27073 -4.86816 0
M  V30 2549 C 424.817 -6.5273 -2.63741 0
M  V30 2550 C 424.107 -5.1842 -2.73198 0
M  V30 2551 N 424.157 -4.38762 -1.4784 0
M  V30 2552 H 421.318 -8.36803 -2.32493 0
M  V30 2553 H 421.048 -6.70197 -1.71129 0
M  V30 2554 H 421.915 -7.03551 -4.13168 0
M  V30 2555 P 425.877 -7.20834 -5.23717 0
M  V30 2556 O 426.097 -7.79853 -6.57286 0
M  V30 2557 O 426.667 -7.79239 -4.12957 0
M  V30 2558 O 426.127 -5.63315 -5.29344 0
M  V30 2559 C 425.187 -4.80255 -6.01876 0
M  V30 2560 C 425.917 -3.64202 -6.65911 0
M  V30 2561 O 426.127 -2.60694 -5.64732 0
M  V30 2562 C 427.317 -3.93473 -7.1943 0
M  V30 2563 O 427.707 -3.02071 -8.21205 0
M  V30 2564 C 428.197 -3.73047 -5.97036 0
M  V30 2565 C 427.487 -2.58828 -5.25741 0
M  V30 2566 N 427.537 -2.68068 -3.77503 0
M  V30 2567 C 427.457 -3.79715 -2.96723 0
M  V30 2568 N 427.537 -3.5377 -1.68852 0
M  V30 2569 C 427.677 -2.15054 -1.63254 0
M  V30 2570 C 427.807 -1.28964 -0.518571 0
M  V30 2571 N 427.927 0.0538097 -0.918425 0
M  V30 2572 C 427.927 0.494275 -2.22578 0
M  V30 2573 N 428.057 1.81086 -2.40434 0
M  V30 2574 N 427.797 -0.313645 -3.27502 0
M  V30 2575 C 427.677 -1.61829 -2.91033 0
M  V30 2576 H 424.698 -5.40332 -6.79951 0
M  V30 2577 H 424.428 -4.41613 -5.32378 0
M  V30 2578 H 425.295 -3.26331 -7.47797 0
M  V30 2579 P 429.257 -2.75334 -8.47391 0
M  V30 2580 O 429.477 -2.44571 -9.90142 0
M  V30 2581 O 430.047 -3.87688 -7.92115 0
M  V30 2582 O 429.507 -1.4459 -7.59357 0
M  V30 2583 C 428.567 -0.347608 -7.69215 0
M  V30 2584 C 429.297 0.96767 -7.52806 0
M  V30 2585 O 429.507 1.21036 -6.1011 0
M  V30 2586 C 430.697 1.04544 -8.13308 0
M  V30 2587 O 431.087 2.38311 -8.41922 0
M  V30 2588 C 431.577 0.491279 -7.02284 0
M  V30 2589 C 430.867 0.996264 -5.77469 0
M  V30 2590 N 430.917 0.0501916 -4.62973 0
M  V30 2591 H 428.078 -0.374722 -8.67691 0
M  V30 2592 H 427.808 -0.443485 -6.90277 0
M  V30 2593 H 428.675 1.75537 -7.96793 0
M  V30 2594 P 432.637 2.75334 -8.47391 0
M  V30 2595 O 432.857 3.84128 -9.44797 0
M  V30 2596 O 433.427 1.51947 -8.68712 0
M  V30 2597 O 432.887 3.29363 -6.99321 0
M  V30 2598 C 431.947 4.24011 -6.4274 0
M  V30 2599 C 432.677 5.20775 -5.52155 0
M  V30 2600 O 432.887 4.56534 -4.22446 0
M  V30 2601 C 434.077 5.62629 -5.96531 0
M  V30 2602 O 434.467 6.87667 -5.41053 0
M  V30 2603 C 434.957 4.52537 -5.39283 0
M  V30 2604 C 434.247 4.20027 -4.08623 0
M  V30 2605 N 434.297 2.76189 -3.71603 0
M  V30 2606 H 431.458 4.797 -7.24003 0
M  V30 2607 H 431.188 3.69856 -5.84513 0
M  V30 2608 H 432.055 6.10356 -5.41441 0
M  V30 2609 P 436.017 7.20834 -5.23717 0
M  V30 2610 O 436.237 8.66104 -5.38572 0
M  V30 2611 O 436.807 6.33544 -6.1349 0
M  V30 2612 O 436.267 6.7751 -3.72168 0
M  V30 2613 C 435.327 7.20825 -2.7076 0
M  V30 2614 C 436.057 7.45864 -1.40599 0
M  V30 2615 O 436.267 6.17651 -0.734225 0
M  V30 2616 C 437.457 8.05808 -1.51899 0
M  V30 2617 O 437.847 8.74358 -0.335205 0
M  V30 2618 C 438.337 6.83093 -1.70294 0
M  V30 2619 C 437.627 5.79992 -0.836974 0
M  V30 2620 N 437.677 4.41864 -1.38293 0
M  V30 2621 H 434.838 8.13644 -3.0377 0
M  V30 2622 H 434.568 6.42788 -2.55485 0
M  V30 2623 H 435.435 8.12039 -0.792769 0
M  V30 2624 P 439.397 8.91 2.44069e-12 0
M  V30 2625 O 439.617 10.1726 0.733694 0
M  V30 2626 O 440.187 8.73148 -1.23936 0
M  V30 2627 O 439.647 7.66872 0.971405 0
M  V30 2628 C 438.707 7.42309 2.04641 0
M  V30 2629 C 439.437 6.86059 3.24661 0
M  V30 2630 O 439.647 5.42847 3.03646 0
M  V30 2631 C 440.837 7.41196 3.50753 0
M  V30 2632 O 441.227 7.27073 4.86816 0
M  V30 2633 C 441.717 6.5273 2.63741 0
M  V30 2634 C 441.007 5.1842 2.73198 0
M  V30 2635 N 441.057 4.38762 1.4784 0
M  V30 2636 H 438.218 8.36803 2.32493 0
M  V30 2637 H 437.948 6.70197 1.71129 0
M  V30 2638 H 438.815 7.03551 4.13168 0
M  V30 2639 P 442.777 7.20834 5.23717 0
M  V30 2640 O 442.997 7.79853 6.57286 0
M  V30 2641 O 443.567 7.79239 4.12957 0
M  V30 2642 O 443.027 5.63315 5.29344 0
M  V30 2643 C 442.087 4.80255 6.01876 0
M  V30 2644 C 442.817 3.64202 6.65911 0
M  V30 2645 O 443.027 2.60694 5.64732 0
M  V30 2646 C 444.217 3.93473 7.1943 0
M  V30 2647 O 444.607 3.02071 8.21205 0
M  V30 2648 C 445.097 3.73047 5.97036 0
M  V30 2649 C 444.387 2.58828 5.25741 0
M  V30 2650 N 444.437 2.68068 3.77503 0
M  V30 2651 H 441.598 5.40332 6.79951 0
M  V30 2652 H 441.328 4.41613 5.32378 0
M  V30 2653 H 442.195 3.26331 7.47797 0
M  V30 2654 P 446.157 2.75334 8.47391 0
M  V30 2655 O 446.377 2.44571 9.90142 0
M  V30 2656 O 446.947 3.87688 7.92115 0
M  V30 2657 O 446.407 1.4459 7.59357 0
M  V30 2658 C 445.467 0.347608 7.69215 0
M  V30 2659 C 446.197 -0.96767 7.52806 0
M  V30 2660 O 446.407 -1.21036 6.1011 0
M  V30 2661 C 447.597 -1.04544 8.13308 0
M  V30 2662 O 447.987 -2.38311 8.41922 0
M  V30 2663 C 448.477 -0.491279 7.02284 0
M  V30 2664 C 447.767 -0.996264 5.77469 0
M  V30 2665 N 447.817 -0.0501916 4.62973 0
M  V30 2666 H 444.978 0.374722 8.67691 0
M  V30 2667 H 444.708 0.443485 6.90277 0
M  V30 2668 H 445.575 -1.75537 7.96793 0
M  V30 2669 P 449.537 -2.75334 8.47391 0
M  V30 2670 O 449.757 -3.84128 9.44797 0
M  V30 2671 O 450.327 -1.51947 8.68712 0
M  V30 2672 O 449.787 -3.29363 6.99321 0
M  V30 2673 C 448.847 -4.24011 6.4274 0
M  V30 2674 C 449.577 -5.20775 5.52155 0
M  V30 2675 O 449.787 -4.56534 4.22446 0
M  V30 2676 C 450.977 -5.62629 5.96531 0
M  V30 2677 O 451.367 -6.87667 5.41053 0
M  V30 2678 C 451.857 -4.52537 5.39283 0
M  V30 2679 C 451.147 -4.20027 4.08623 0
M  V30 2680 N 451.197 -2.76189 3.71603 0
M  V30 2681 H 448.358 -4.797 7.24003 0
M  V30 2682 H 448.088 -3.69856 5.84513 0
M  V30 2683 H 448.955 -6.10356 5.41441 0
M  V30 2684 P 452.917 -7.20834 5.23717 0
M  V30 2685 O 453.137 -8.66104 5.38572 0
M  V30 2686 O 453.707 -6.33544 6.1349 0
M  V30 2687 O 453.167 -6.7751 3.72168 0
M  V30 2688 C 452.227 -7.20825 2.7076 0
M  V30 2689 C 452.957 -7.45864 1.40599 0
M  V30 2690 O 453.167 -6.17651 0.734225 0
M  V30 2691 C 454.357 -8.05808 1.51899 0
M  V30 2692 O 454.747 -8.74358 0.335205 0
M  V30 2693 C 455.237 -6.83093 1.70294 0
M  V30 2694 C 454.527 -5.79992 0.836974 0
M  V30 2695 N 454.577 -4.41864 1.38293 0
M  V30 2696 H 451.738 -8.13644 3.0377 0
M  V30 2697 H 451.468 -6.42788 2.55485 0
M  V30 2698 H 452.335 -8.12039 0.792769 0
M  V30 2699 P 456.297 -8.91 -2.59788e-12 0
M  V30 2700 O 456.517 -10.1736 -0.733766 0
M  V30 2701 O 457.087 -8.73247 1.2395 0
M  V30 2702 O 456.547 -7.66872 -0.971405 0
M  V30 2703 C 455.607 -7.42309 -2.04641 0
M  V30 2704 C 456.337 -6.86059 -3.24661 0
M  V30 2705 O 456.547 -5.42847 -3.03646 0
M  V30 2706 C 457.737 -7.41196 -3.50753 0
M  V30 2707 O 458.127 -7.27073 -4.86816 0
M  V30 2708 C 458.617 -6.5273 -2.63741 0
M  V30 2709 C 457.907 -5.1842 -2.73198 0
M  V30 2710 N 457.957 -4.38668 -1.47808 0
M  V30 2711 C 458.107 -3.00789 -1.58511 0
M  V30 2712 O 458.197 -2.50116 -2.71298 0
M  V30 2713 N 458.157 -2.29703 -0.253698 0
M  V30 2714 C 458.057 -2.84269 0.750133 0
M  V30 2715 N 458.107 -2.06951 1.82612 0
M  V30 2716 C 457.907 -4.25803 0.889776 0
M  V30 2717 C 457.857 -4.98326 -0.259363 0
M  V30 2718 H 455.117 -8.36707 -2.32466 0
M  V30 2719 H 454.848 -6.701 -1.71105 0
M  V30 2720 H 455.715 -7.03638 -4.13219 0
M  V30 2721 H 458.37 -4.59852 -3.53955 0
M  V30 2722 H 458.649 -6.88995 -1.59871 0
M  V30 2723 H 459.641 -6.46749 -3.03687 0
M  V30 2724 H 457.807 -8.46908 -3.20714 0
M  V30 2725 H 457.735 -6.06349 -0.206238 0
M  V30 2726 H 457.837 -4.73163 1.86796 0
M  V30 2727 H 458.225 -1.05099 1.72271 0
M  V30 2728 H 458.028 -2.48716 2.76361 0
M  V30 2729 P 459.677 -7.20834 -5.23717 0
M  V30 2730 O 459.897 -7.79853 -6.57286 0
M  V30 2731 O 460.467 -7.79239 -4.12957 0
M  V30 2732 O 459.927 -5.63315 -5.29344 0
M  V30 2733 C 458.987 -4.80255 -6.01876 0
M  V30 2734 C 459.717 -3.64202 -6.65911 0
M  V30 2735 O 459.927 -2.60694 -5.64732 0
M  V30 2736 C 461.117 -3.93473 -7.1943 0
M  V30 2737 O 461.507 -3.02071 -8.21205 0
M  V30 2738 C 461.997 -3.73047 -5.97036 0
M  V30 2739 C 461.287 -2.58828 -5.25741 0
M  V30 2740 N 461.337 -2.68068 -3.77503 0
M  V30 2741 H 458.498 -5.40332 -6.79951 0
M  V30 2742 H 458.228 -4.41613 -5.32378 0
M  V30 2743 H 459.095 -3.26331 -7.47797 0
M  V30 2744 P 463.057 -2.75334 -8.47391 0
M  V30 2745 O 463.277 -2.44571 -9.90142 0
M  V30 2746 O 463.847 -3.87688 -7.92115 0
M  V30 2747 O 463.307 -1.4459 -7.59357 0
M  V30 2748 C 462.367 -0.347608 -7.69215 0
M  V30 2749 C 463.097 0.96767 -7.52806 0
M  V30 2750 O 463.307 1.21036 -6.1011 0
M  V30 2751 C 464.497 1.04544 -8.13308 0
M  V30 2752 O 464.887 2.38311 -8.41922 0
M  V30 2753 C 465.377 0.491279 -7.02284 0
M  V30 2754 C 464.667 0.996264 -5.77469 0
M  V30 2755 N 464.717 0.0501916 -4.62973 0
M  V30 2756 H 461.878 -0.374722 -8.67691 0
M  V30 2757 H 461.608 -0.443485 -6.90277 0
M  V30 2758 H 462.475 1.75537 -7.96793 0
M  V30 2759 P 466.437 2.75334 -8.47391 0
M  V30 2760 O 466.657 3.84166 -9.4489 0
M  V30 2761 O 467.227 1.51964 -8.6881 0
M  V30 2762 O 466.687 3.29363 -6.99321 0
M  V30 2763 C 465.747 4.23956 -6.42656 0
M  V30 2764 C 466.477 5.20775 -5.52155 0
M  V30 2765 O 466.687 4.56534 -4.22446 0
M  V30 2766 C 467.877 5.62629 -5.96531 0
M  V30 2767 O 468.267 6.87667 -5.41053 0
M  V30 2768 C 468.757 4.52537 -5.39283 0
M  V30 2769 C 468.047 4.20027 -4.08623 0
M  V30 2770 N 468.097 2.7613 -3.71522 0
M  V30 2771 C 468.247 2.45612 -2.37989 0
M  V30 2772 O 468.337 3.30919 -1.51621 0
M  V30 2773 N 468.287 1.10684 -2.08435 0
M  V30 2774 C 468.197 0.0690084 -2.9792 0
M  V30 2775 O 468.247 -1.10553 -2.59426 0
M  V30 2776 C 468.047 0.481522 -4.35345 0
M  V30 2777 C 467.937 -0.618778 -5.36443 0
M  V30 2778 C 467.997 1.78906 -4.67968 0
M  V30 2779 H 465.257 4.797 -7.24003 0
M  V30 2780 H 464.988 3.69802 -5.84429 0
M  V30 2781 H 465.855 6.10356 -5.41441 0
M  V30 2782 H 468.51 4.78651 -3.27911 0
M  V30 2783 H 468.789 3.64957 -6.05871 0
M  V30 2784 H 469.781 4.8868 -5.2125 0
M  V30 2785 H 467.947 5.66726 -7.06352 0
M  V30 2786 H 467.876 2.07737 -5.72367 0
M  V30 2787 H 468.906 -0.754375 -5.86871 0
M  V30 2788 H 467.169 -0.359721 -6.10641 0
M  V30 2789 H 467.657 -1.55533 -4.8581 0
M  V30 2790 H 468.393 0.862651 -1.12037 0
M  V30 2791 P 469.817 7.20834 -5.23717 0
M  V30 2792 O 470.037 8.66104 -5.38572 0
M  V30 2793 O 470.607 6.33544 -6.1349 0
M  V30 2794 O 470.067 6.7751 -3.72168 0
M  V30 2795 C 469.127 7.20825 -2.7076 0
M  V30 2796 C 469.857 7.45864 -1.40599 0
M  V30 2797 O 470.067 6.17651 -0.734225 0
M  V30 2798 C 471.257 8.05808 -1.51899 0
M  V30 2799 O 471.647 8.74358 -0.335205 0
M  V30 2800 C 472.137 6.83093 -1.70294 0
M  V30 2801 C 471.427 5.79992 -0.836974 0
M  V30 2802 N 471.477 4.41864 -1.38293 0
M  V30 2803 H 468.638 8.13644 -3.0377 0
M  V30 2804 H 468.368 6.42788 -2.55485 0
M  V30 2805 H 469.235 8.12039 -0.792769 0
M  V30 2806 P 473.197 8.91 2.75506e-12 0
M  V30 2807 O 473.417 10.1726 0.733694 0
M  V30 2808 O 473.987 8.73148 -1.23936 0
M  V30 2809 O 473.447 7.66872 0.971405 0
M  V30 2810 C 472.507 7.42309 2.04641 0
M  V30 2811 C 473.237 6.86059 3.24661 0
M  V30 2812 O 473.447 5.42847 3.03646 0
M  V30 2813 C 474.637 7.41196 3.50753 0
M  V30 2814 O 475.027 7.27073 4.86816 0
M  V30 2815 C 475.517 6.5273 2.63741 0
M  V30 2816 C 474.807 5.1842 2.73198 0
M  V30 2817 N 474.857 4.38762 1.4784 0
M  V30 2818 H 472.018 8.36803 2.32493 0
M  V30 2819 H 471.748 6.70197 1.71129 0
M  V30 2820 H 472.615 7.03551 4.13168 0
M  V30 2821 P 476.577 7.20834 5.23717 0
M  V30 2822 O 476.797 7.80006 6.57415 0
M  V30 2823 O 477.367 7.79416 4.13051 0
M  V30 2824 O 476.827 5.63315 5.29344 0
M  V30 2825 C 475.887 4.80318 6.01954 0
M  V30 2826 C 476.617 3.64202 6.65911 0
M  V30 2827 O 476.827 2.60736 5.64823 0
M  V30 2828 C 478.017 3.93521 7.19518 0
M  V30 2829 O 478.407 3.02071 8.21205 0
M  V30 2830 C 478.897 3.73047 5.97036 0
M  V30 2831 C 478.187 2.58828 5.25741 0
M  V30 2832 N 478.237 2.68068 3.77503 0
M  V30 2833 H 475.399 5.40394 6.8003 0
M  V30 2834 H 475.127 4.41741 5.32532 0
M  V30 2835 H 475.995 3.26371 7.47889 0
M  V30 2836 H 478.65 1.64007 5.56746 0
M  V30 2837 H 478.93 4.63439 5.3432 0
M  V30 2838 H 479.921 3.44776 6.25925 0
M  V30 2839 H 478.087 4.96707 7.57347 0
M  V30 2840 P 479.957 2.75334 8.47391 0
M  V30 2841 O 480.177 2.44571 9.90142 0
M  V30 2842 O 480.747 3.87688 7.92115 0
M  V30 2843 O 480.207 1.4459 7.59357 0
M  V30 2844 C 479.267 0.347608 7.69215 0
M  V30 2845 C 479.997 -0.96767 7.52806 0
M  V30 2846 O 480.207 -1.21036 6.1011 0
M  V30 2847 C 481.397 -1.04544 8.13308 0
M  V30 2848 O 481.787 -2.38311 8.41922 0
M  V30 2849 C 482.277 -0.491279 7.02284 0
M  V30 2850 C 481.567 -0.996264 5.77469 0
M  V30 2851 N 481.617 -0.0501916 4.62973 0
M  V30 2852 C 481.537 1.32786 4.63244 0
M  V30 2853 N 481.617 1.86957 3.44545 0
M  V30 2854 C 481.757 0.780241 2.58481 0
M  V30 2855 C 481.887 0.738536 1.17757 0
M  V30 2856 N 482.007 -0.58337 0.711393 0
M  V30 2857 C 482.007 -1.70816 1.51017 0
M  V30 2858 N 482.137 -2.87826 0.880757 0
M  V30 2859 N 481.877 -1.67126 2.8339 0
M  V30 2860 C 481.757 -0.401421 3.30572 0
M  V30 2861 H 478.778 0.374722 8.67691 0
M  V30 2862 H 478.508 0.443485 6.90277 0
M  V30 2863 H 479.375 -1.75537 7.96793 0
M  V30 2864 P 483.337 -2.75334 8.47391 0
M  V30 2865 O 483.557 -3.84166 9.4489 0
M  V30 2866 O 484.127 -1.51964 8.6881 0
M  V30 2867 O 483.587 -3.29363 6.99321 0
M  V30 2868 C 482.647 -4.23956 6.42656 0
M  V30 2869 C 483.377 -5.20775 5.52155 0
M  V30 2870 O 483.587 -4.56534 4.22446 0
M  V30 2871 C 484.777 -5.62629 5.96531 0
M  V30 2872 O 485.167 -6.87667 5.41053 0
M  V30 2873 C 485.657 -4.52537 5.39283 0
M  V30 2874 C 484.947 -4.20027 4.08623 0
M  V30 2875 N 484.997 -2.7613 3.71522 0
M  V30 2876 C 485.147 -2.45612 2.37989 0
M  V30 2877 O 485.237 -3.30919 1.51621 0
M  V30 2878 N 485.187 -1.10684 2.08435 0
M  V30 2879 C 485.097 -0.0690084 2.9792 0
M  V30 2880 C 484.947 -0.481522 4.35345 0
M  V30 2881 C 484.897 -1.78906 4.67968 0
M  V30 2882 H 482.157 -4.797 7.24003 0
M  V30 2883 H 481.888 -3.69802 5.84429 0
M  V30 2884 H 482.755 -6.10356 5.41441 0
M  V30 2885 H 485.41 -4.78651 3.27911 0
M  V30 2886 H 485.689 -3.64957 6.05871 0
M  V30 2887 H 486.681 -4.8868 5.2125 0
M  V30 2888 H 484.847 -5.66726 7.06352 0
M  V30 2889 H 484.776 -2.07737 5.72367 0
M  V30 2890 P 486.717 -7.20834 5.23717 0
M  V30 2891 O 486.937 -8.66104 5.38572 0
M  V30 2892 O 487.507 -6.33544 6.1349 0
M  V30 2893 O 486.967 -6.7751 3.72168 0
M  V30 2894 C 486.027 -7.20825 2.7076 0
M  V30 2895 C 486.757 -7.45864 1.40599 0
M  V30 2896 O 486.967 -6.17651 0.734225 0
M  V30 2897 C 488.157 -8.05808 1.51899 0
M  V30 2898 O 488.547 -8.74358 0.335205 0
M  V30 2899 C 489.037 -6.83093 1.70294 0
M  V30 2900 C 488.327 -5.79992 0.836974 0
M  V30 2901 N 488.377 -4.41864 1.38293 0
M  V30 2902 H 485.538 -8.13644 3.0377 0
M  V30 2903 H 485.268 -6.42788 2.55485 0
M  V30 2904 H 486.135 -8.12039 0.792769 0
M  V30 2905 P 490.097 -8.91 -2.91224e-12 0
M  V30 2906 O 490.317 -10.1726 -0.733694 0
M  V30 2907 O 490.887 -8.73148 1.23936 0
M  V30 2908 O 490.347 -7.66872 -0.971405 0
M  V30 2909 C 489.407 -7.42309 -2.04641 0
M  V30 2910 C 490.137 -6.86059 -3.24661 0
M  V30 2911 O 490.347 -5.42847 -3.03646 0
M  V30 2912 C 491.537 -7.41196 -3.50753 0
M  V30 2913 O 491.927 -7.27073 -4.86816 0
M  V30 2914 C 492.417 -6.5273 -2.63741 0
M  V30 2915 C 491.707 -5.1842 -2.73198 0
M  V30 2916 N 491.757 -4.38762 -1.4784 0
M  V30 2917 H 488.918 -8.36803 -2.32493 0
M  V30 2918 H 488.648 -6.70197 -1.71129 0
M  V30 2919 H 489.515 -7.03551 -4.13168 0
M  V30 2920 P 493.477 -7.20834 -5.23717 0
M  V30 2921 O 493.697 -7.79853 -6.57286 0
M  V30 2922 O 494.267 -7.79239 -4.12957 0
M  V30 2923 O 493.727 -5.63315 -5.29344 0
M  V30 2924 C 492.787 -4.80255 -6.01876 0
M  V30 2925 C 493.517 -3.64202 -6.65911 0
M  V30 2926 O 493.727 -2.60694 -5.64732 0
M  V30 2927 C 494.917 -3.93473 -7.1943 0
M  V30 2928 O 495.307 -3.02071 -8.21205 0
M  V30 2929 C 495.797 -3.73047 -5.97036 0
M  V30 2930 C 495.087 -2.58828 -5.25741 0
M  V30 2931 N 495.137 -2.68068 -3.77503 0
M  V30 2932 H 492.298 -5.40332 -6.79951 0
M  V30 2933 H 492.028 -4.41613 -5.32378 0
M  V30 2934 H 492.895 -3.26331 -7.47797 0
M  V30 2935 P 496.857 -2.75334 -8.47391 0
M  V30 2936 O 497.077 -2.44571 -9.90142 0
M  V30 2937 O 497.647 -3.87688 -7.92115 0
M  V30 2938 O 497.107 -1.4459 -7.59357 0
M  V30 2939 C 496.167 -0.347608 -7.69215 0
M  V30 2940 C 496.897 0.96767 -7.52806 0
M  V30 2941 O 497.107 1.21036 -6.1011 0
M  V30 2942 C 498.297 1.04544 -8.13308 0
M  V30 2943 O 498.687 2.38311 -8.41922 0
M  V30 2944 C 499.177 0.491279 -7.02284 0
M  V30 2945 C 498.467 0.996264 -5.77469 0
M  V30 2946 N 498.517 0.0501916 -4.62973 0
M  V30 2947 H 495.678 -0.374722 -8.67691 0
M  V30 2948 H 495.408 -0.443485 -6.90277 0
M  V30 2949 H 496.275 1.75537 -7.96793 0
M  V30 2950 P 500.237 2.75334 -8.47391 0
M  V30 2951 O 500.457 3.84204 -9.44982 0
M  V30 2952 O 501.027 1.51982 -8.68909 0
M  V30 2953 O 500.487 3.29363 -6.99321 0
M  V30 2954 C 499.547 4.24066 -6.42823 0
M  V30 2955 C 500.277 5.20775 -5.52155 0
M  V30 2956 O 500.487 4.56607 -4.22514 0
M  V30 2957 C 501.677 5.62697 -5.96604 0
M  V30 2958 O 502.067 6.87667 -5.41053 0
M  V30 2959 C 502.557 4.52537 -5.39283 0
M  V30 2960 C 501.847 4.20027 -4.08623 0
M  V30 2961 N 501.897 2.76189 -3.71603 0
M  V30 2962 C 501.817 1.66944 -4.54297 0
M  V30 2963 N 501.887 0.536169 -3.91344 0
M  V30 2964 C 502.037 0.901569 -2.58849 0
M  V30 2965 C 502.167 0.146599 -1.40236 0
M  V30 2966 N 502.177 -1.18234 -1.37046 0
M  V30 2967 N 502.287 0.822941 -0.249738 0
M  V30 2968 C 502.277 2.15179 -0.280525 0
M  V30 2969 N 502.157 2.96414 -1.30822 0
M  V30 2970 C 502.037 2.25804 -2.44748 0
M  V30 2971 H 499.059 4.79756 -7.24086 0
M  V30 2972 H 498.787 3.69963 -5.84682 0
M  V30 2973 H 499.655 6.10431 -5.41508 0
M  V30 2974 H 502.31 4.78816 -3.28024 0
M  V30 2975 H 502.59 3.64957 -6.05871 0
M  V30 2976 H 503.581 4.88748 -5.21323 0
M  V30 2977 H 501.747 5.66789 -7.0643 0
M  V30 2978 H 501.706 1.74684 -5.62396 0
M  V30 2979 H 502.087 -1.71949 -2.24394 0
M  V30 2980 H 502.276 -1.67511 -0.470742 0
M  V30 2981 H 502.384 2.63704 0.6828 0
M  V30 2982 P 503.617 7.20834 -5.23717 0
M  V30 2983 O 503.837 8.66274 -5.38678 0
M  V30 2984 O 504.407 6.33687 -6.13629 0
M  V30 2985 O 503.867 6.7751 -3.72168 0
M  V30 2986 C 502.927 7.20919 -2.70795 0
M  V30 2987 C 503.657 7.45864 -1.40599 0
M  V30 2988 O 503.867 6.17751 -0.734343 0
M  V30 2989 C 505.057 8.05906 -1.51917 0
M  V30 2990 O 505.447 8.74358 -0.335205 0
M  V30 2991 C 505.937 6.83093 -1.70294 0
M  V30 2992 C 505.227 5.79992 -0.836974 0
M  V30 2993 N 505.277 4.41864 -1.38293 0
M  V30 2994 C 505.197 4.02089 -2.69407 0
M  V30 2995 N 505.267 2.73403 -2.85089 0
M  V30 2996 C 505.417 2.25086 -1.5642 0
M  V30 2997 C 505.547 0.942887 -1.04836 0
M  V30 2998 N 505.557 -0.150999 -1.80369 0
M  V30 2999 N 505.667 0.812565 0.28167 0
M  V30 3000 C 505.657 1.90572 1.03784 0
M  V30 3001 N 505.537 3.167 0.683905 0
M  V30 3002 C 505.417 3.26538 -0.652815 0
M  V30 3003 H 502.439 8.13738 -3.03804 0
M  V30 3004 H 502.167 6.42974 -2.55559 0
M  V30 3005 H 503.035 8.12139 -0.792866 0
M  V30 3006 H 505.69 5.80178 0.160643 0
M  V30 3007 H 505.97 6.51379 -2.75643 0
M  V30 3008 H 506.961 7.01832 -1.3448 0
M  V30 3009 H 505.127 8.73771 -2.38364 0
M  V30 3010 H 505.086 4.7189 -3.52311 0
M  V30 3011 H 505.467 -0.0721434 -2.82608 0
M  V30 3012 H 505.656 -1.0785 -1.36544 0
M  V30 3013 H 505.764 1.73207 2.10241 0
M  V30 3014 P 506.997 8.91 3.06942e-12 0
M  V30 3015 O 507.217 10.1746 0.733838 0
M  V30 3016 O 507.787 8.73346 -1.23964 0
M  V30 3017 O 507.247 7.66872 0.971405 0
M  V30 3018 C 506.307 7.42405 2.04668 0
M  V30 3019 C 507.037 6.86059 3.24661 0
M  V30 3020 O 507.247 5.42934 3.03695 0
M  V30 3021 C 508.437 7.41287 3.50796 0
M  V30 3022 O 508.827 7.27073 4.86816 0
M  V30 3023 C 509.317 6.5273 2.63741 0
M  V30 3024 C 508.607 5.1842 2.73198 0
M  V30 3025 N 508.657 4.38762 1.4784 0
M  V30 3026 C 508.577 4.83651 0.183876 0
M  V30 3027 N 508.647 3.88759 -0.699393 0
M  V30 3028 C 508.797 2.7404 0.0575568 0
M  V30 3029 C 508.927 1.37902 -0.293928 0
M  V30 3030 N 508.937 0.938021 -1.54797 0
M  V30 3031 N 509.047 0.491817 0.70549 0
M  V30 3032 C 509.037 0.931735 1.95979 0
M  V30 3033 N 508.917 2.16017 2.41481 0
M  V30 3034 C 508.797 3.02547 1.39121 0
M  V30 3035 H 505.819 8.36899 2.3252 0
M  V30 3036 H 505.547 6.70391 1.71179 0
M  V30 3037 H 506.415 7.03638 4.13219 0
M  V30 3038 H 509.07 4.59931 3.54016 0
M  V30 3039 H 509.35 6.88995 1.59871 0
M  V30 3040 H 510.341 6.4684 3.0373 0
M  V30 3041 H 508.507 8.47002 3.20749 0
M  V30 3042 H 508.466 5.8885 -0.0765548 0
M  V30 3043 H 508.847 1.60276 -2.32875 0
M  V30 3044 H 509.036 -0.0699355 -1.73859 0
M  V30 3045 H 509.144 0.165507 2.71897 0
M  V30 3046 P 510.377 7.20834 5.23717 0
M  V30 3047 O 510.597 7.79853 6.57286 0
M  V30 3048 O 511.167 7.79239 4.12957 0
M  V30 3049 O 510.627 5.63315 5.29344 0
M  V30 3050 C 509.687 4.80255 6.01876 0
M  V30 3051 C 510.417 3.64202 6.65911 0
M  V30 3052 O 510.627 2.60694 5.64732 0
M  V30 3053 C 511.817 3.93473 7.1943 0
M  V30 3054 O 512.207 3.02071 8.21205 0
M  V30 3055 C 512.697 3.73047 5.97036 0
M  V30 3056 C 511.987 2.58828 5.25741 0
M  V30 3057 N 512.037 2.68068 3.77503 0
M  V30 3058 C 511.957 3.79715 2.96723 0
M  V30 3059 N 512.037 3.5377 1.68852 0
M  V30 3060 C 512.177 2.15054 1.63254 0
M  V30 3061 C 512.307 1.28964 0.518571 0
M  V30 3062 N 512.427 -0.0538097 0.918425 0
M  V30 3063 C 512.427 -0.494275 2.22578 0
M  V30 3064 N 512.557 -1.81086 2.40434 0
M  V30 3065 N 512.297 0.313645 3.27502 0
M  V30 3066 C 512.177 1.61829 2.91033 0
M  V30 3067 H 509.198 5.40332 6.79951 0
M  V30 3068 H 508.928 4.41613 5.32378 0
M  V30 3069 H 509.795 3.26331 7.47797 0
M  V30 3070 P 513.757 2.75334 8.47391 0
M  V30 3071 O 513.977 2.44571 9.90142 0
M  V30 3072 O 514.547 3.87688 7.92115 0
M  V30 3073 O 514.007 1.4459 7.59357 0
M  V30 3074 C 513.067 0.347608 7.69215 0
M  V30 3075 C 513.797 -0.96767 7.52806 0
M  V30 3076 O 514.007 -1.21036 6.1011 0
M  V30 3077 C 515.197 -1.04544 8.13308 0
M  V30 3078 O 515.587 -2.38311 8.41922 0
M  V30 3079 C 516.077 -0.491279 7.02284 0
M  V30 3080 C 515.367 -0.996264 5.77469 0
M  V30 3081 N 515.417 -0.0501916 4.62973 0
M  V30 3082 H 512.578 0.374722 8.67691 0
M  V30 3083 H 512.308 0.443485 6.90277 0
M  V30 3084 H 513.175 -1.75537 7.96793 0
M  V30 3085 P 517.137 -2.75334 8.47391 0
M  V30 3086 O 517.357 -3.84128 9.44797 0
M  V30 3087 O 517.927 -1.51947 8.68712 0
M  V30 3088 O 517.387 -3.29363 6.99321 0
M  V30 3089 C 516.447 -4.24011 6.4274 0
M  V30 3090 C 517.177 -5.20775 5.52155 0
M  V30 3091 O 517.387 -4.56534 4.22446 0
M  V30 3092 C 518.577 -5.62629 5.96531 0
M  V30 3093 O 518.967 -6.87667 5.41053 0
M  V30 3094 C 519.457 -4.52537 5.39283 0
M  V30 3095 C 518.747 -4.20027 4.08623 0
M  V30 3096 N 518.797 -2.76189 3.71603 0
M  V30 3097 H 515.958 -4.797 7.24003 0
M  V30 3098 H 515.688 -3.69856 5.84513 0
M  V30 3099 H 516.555 -6.10356 5.41441 0
M  V30 3100 P 520.517 -7.20834 5.23717 0
M  V30 3101 O 520.737 -8.66104 5.38572 0
M  V30 3102 O 521.307 -6.33544 6.1349 0
M  V30 3103 O 520.767 -6.7751 3.72168 0
M  V30 3104 C 519.827 -7.20825 2.7076 0
M  V30 3105 C 520.557 -7.45864 1.40599 0
M  V30 3106 O 520.767 -6.17651 0.734225 0
M  V30 3107 C 521.957 -8.05808 1.51899 0
M  V30 3108 O 522.347 -8.74358 0.335205 0
M  V30 3109 C 522.837 -6.83093 1.70294 0
M  V30 3110 C 522.127 -5.79992 0.836974 0
M  V30 3111 N 522.177 -4.41864 1.38293 0
M  V30 3112 H 519.338 -8.13644 3.0377 0
M  V30 3113 H 519.068 -6.42788 2.55485 0
M  V30 3114 H 519.935 -8.12039 0.792769 0
M  V30 3115 P 523.897 -8.91 -3.22661e-12 0
M  V30 3116 O 524.117 -10.1726 -0.733694 0
M  V30 3117 O 524.687 -8.73148 1.23936 0
M  V30 3118 O 524.147 -7.66872 -0.971405 0
M  V30 3119 C 523.207 -7.42309 -2.04641 0
M  V30 3120 C 523.937 -6.86059 -3.24661 0
M  V30 3121 O 524.147 -5.42847 -3.03646 0
M  V30 3122 C 525.337 -7.41196 -3.50753 0
M  V30 3123 O 525.727 -7.27073 -4.86816 0
M  V30 3124 C 526.217 -6.5273 -2.63741 0
M  V30 3125 C 525.507 -5.1842 -2.73198 0
M  V30 3126 N 525.557 -4.38762 -1.4784 0
M  V30 3127 H 522.718 -8.36803 -2.32493 0
M  V30 3128 H 522.448 -6.70197 -1.71129 0
M  V30 3129 H 523.315 -7.03551 -4.13168 0
M  V30 3130 P 527.277 -7.20834 -5.23717 0
M  V30 3131 O 527.497 -7.79853 -6.57286 0
M  V30 3132 O 528.067 -7.79239 -4.12957 0
M  V30 3133 O 527.527 -5.63315 -5.29344 0
M  V30 3134 C 526.587 -4.80255 -6.01876 0
M  V30 3135 C 527.317 -3.64202 -6.65911 0
M  V30 3136 O 527.527 -2.60694 -5.64732 0
M  V30 3137 C 528.717 -3.93473 -7.1943 0
M  V30 3138 O 529.107 -3.02071 -8.21205 0
M  V30 3139 C 529.597 -3.73047 -5.97036 0
M  V30 3140 C 528.887 -2.58828 -5.25741 0
M  V30 3141 N 528.937 -2.68068 -3.77503 0
M  V30 3142 C 528.857 -3.79715 -2.96723 0
M  V30 3143 N 528.937 -3.5377 -1.68852 0
M  V30 3144 C 529.077 -2.15054 -1.63254 0
M  V30 3145 C 529.207 -1.28964 -0.518571 0
M  V30 3146 N 529.327 0.0538097 -0.918425 0
M  V30 3147 C 529.327 0.494275 -2.22578 0
M  V30 3148 N 529.457 1.81086 -2.40434 0
M  V30 3149 N 529.197 -0.313645 -3.27502 0
M  V30 3150 C 529.077 -1.61829 -2.91033 0
M  V30 3151 H 526.098 -5.40332 -6.79951 0
M  V30 3152 H 525.828 -4.41613 -5.32378 0
M  V30 3153 H 526.695 -3.26331 -7.47797 0
M  V30 3154 P 530.657 -2.75334 -8.47391 0
M  V30 3155 O 530.877 -2.44571 -9.90142 0
M  V30 3156 O 531.447 -3.87688 -7.92115 0
M  V30 3157 O 530.907 -1.4459 -7.59357 0
M  V30 3158 C 529.967 -0.347608 -7.69215 0
M  V30 3159 C 530.697 0.96767 -7.52806 0
M  V30 3160 O 530.907 1.21036 -6.1011 0
M  V30 3161 C 532.097 1.04544 -8.13308 0
M  V30 3162 O 532.487 2.38311 -8.41922 0
M  V30 3163 C 532.977 0.491279 -7.02284 0
M  V30 3164 C 532.267 0.996264 -5.77469 0
M  V30 3165 N 532.317 0.0501916 -4.62973 0
M  V30 3166 H 529.478 -0.374722 -8.67691 0
M  V30 3167 H 529.208 -0.443485 -6.90277 0
M  V30 3168 H 530.075 1.75537 -7.96793 0
M  V30 3169 P 534.037 2.75334 -8.47391 0
M  V30 3170 O 534.257 3.84128 -9.44797 0
M  V30 3171 O 534.827 1.51947 -8.68712 0
M  V30 3172 O 534.287 3.29363 -6.99321 0
M  V30 3173 C 533.347 4.24011 -6.4274 0
M  V30 3174 C 534.077 5.20775 -5.52155 0
M  V30 3175 O 534.287 4.56534 -4.22446 0
M  V30 3176 C 535.477 5.62629 -5.96531 0
M  V30 3177 O 535.867 6.87667 -5.41053 0
M  V30 3178 C 536.357 4.52537 -5.39283 0
M  V30 3179 C 535.647 4.20027 -4.08623 0
M  V30 3180 N 535.697 2.76189 -3.71603 0
M  V30 3181 H 532.858 4.797 -7.24003 0
M  V30 3182 H 532.588 3.69856 -5.84513 0
M  V30 3183 H 533.455 6.10356 -5.41441 0
M  V30 3184 P 537.417 7.20834 -5.23717 0
M  V30 3185 O 537.637 8.66104 -5.38572 0
M  V30 3186 O 538.207 6.33544 -6.1349 0
M  V30 3187 O 537.667 6.7751 -3.72168 0
M  V30 3188 C 536.727 7.20825 -2.7076 0
M  V30 3189 C 537.457 7.45864 -1.40599 0
M  V30 3190 O 537.667 6.17651 -0.734225 0
M  V30 3191 C 538.857 8.05808 -1.51899 0
M  V30 3192 O 539.247 8.74358 -0.335205 0
M  V30 3193 C 539.737 6.83093 -1.70294 0
M  V30 3194 C 539.027 5.79992 -0.836974 0
M  V30 3195 N 539.077 4.41864 -1.38293 0
M  V30 3196 H 536.238 8.13644 -3.0377 0
M  V30 3197 H 535.968 6.42788 -2.55485 0
M  V30 3198 H 536.835 8.12039 -0.792769 0
M  V30 3199 P 540.797 8.91 3.38379e-12 0
M  V30 3200 O 541.017 10.1726 0.733694 0
M  V30 3201 O 541.587 8.73148 -1.23936 0
M  V30 3202 O 541.047 7.66872 0.971405 0
M  V30 3203 C 540.107 7.42309 2.04641 0
M  V30 3204 C 540.837 6.86059 3.24661 0
M  V30 3205 O 541.047 5.42847 3.03646 0
M  V30 3206 C 542.237 7.41196 3.50753 0
M  V30 3207 O 542.627 7.27073 4.86816 0
M  V30 3208 C 543.117 6.5273 2.63741 0
M  V30 3209 C 542.407 5.1842 2.73198 0
M  V30 3210 N 542.457 4.38762 1.4784 0
M  V30 3211 H 539.618 8.36803 2.32493 0
M  V30 3212 H 539.348 6.70197 1.71129 0
M  V30 3213 H 540.215 7.03551 4.13168 0
M  V30 3214 P 544.177 7.20834 5.23717 0
M  V30 3215 O 544.397 7.79853 6.57286 0
M  V30 3216 O 544.967 7.79239 4.12957 0
M  V30 3217 O 544.427 5.63315 5.29344 0
M  V30 3218 C 543.487 4.80255 6.01876 0
M  V30 3219 C 544.217 3.64202 6.65911 0
M  V30 3220 O 544.427 2.60694 5.64732 0
M  V30 3221 C 545.617 3.93473 7.1943 0
M  V30 3222 O 546.007 3.02071 8.21205 0
M  V30 3223 C 546.497 3.73047 5.97036 0
M  V30 3224 C 545.787 2.58828 5.25741 0
M  V30 3225 N 545.837 2.68068 3.77503 0
M  V30 3226 H 542.998 5.40332 6.79951 0
M  V30 3227 H 542.728 4.41613 5.32378 0
M  V30 3228 H 543.595 3.26331 7.47797 0
M  V30 3229 P 547.557 2.75334 8.47391 0
M  V30 3230 O 547.777 2.44571 9.90142 0
M  V30 3231 O 548.347 3.87688 7.92115 0
M  V30 3232 O 547.807 1.4459 7.59357 0
M  V30 3233 C 546.867 0.347608 7.69215 0
M  V30 3234 C 547.597 -0.96767 7.52806 0
M  V30 3235 O 547.807 -1.21036 6.1011 0
M  V30 3236 C 548.997 -1.04544 8.13308 0
M  V30 3237 O 549.387 -2.38311 8.41922 0
M  V30 3238 C 549.877 -0.491279 7.02284 0
M  V30 3239 C 549.167 -0.996264 5.77469 0
M  V30 3240 N 549.217 -0.0501916 4.62973 0
M  V30 3241 H 546.378 0.374722 8.67691 0
M  V30 3242 H 546.108 0.443485 6.90277 0
M  V30 3243 H 546.975 -1.75537 7.96793 0
M  V30 3244 P 550.937 -2.75334 8.47391 0
M  V30 3245 O 551.157 -3.84128 9.44797 0
M  V30 3246 O 551.727 -1.51947 8.68712 0
M  V30 3247 O 551.187 -3.29363 6.99321 0
M  V30 3248 C 550.247 -4.24011 6.4274 0
M  V30 3249 C 550.977 -5.20775 5.52155 0
M  V30 3250 O 551.187 -4.56534 4.22446 0
M  V30 3251 C 552.377 -5.62629 5.96531 0
M  V30 3252 O 552.767 -6.87667 5.41053 0
M  V30 3253 C 553.257 -4.52537 5.39283 0
M  V30 3254 C 552.547 -4.20027 4.08623 0
M  V30 3255 N 552.597 -2.76189 3.71603 0
M  V30 3256 H 549.758 -4.797 7.24003 0
M  V30 3257 H 549.488 -3.69856 5.84513 0
M  V30 3258 H 550.355 -6.10356 5.41441 0
M  V30 3259 P 554.317 -7.20834 5.23717 0
M  V30 3260 O 554.537 -8.66104 5.38572 0
M  V30 3261 O 555.107 -6.33544 6.1349 0
M  V30 3262 O 554.567 -6.7751 3.72168 0
M  V30 3263 C 553.627 -7.20825 2.7076 0
M  V30 3264 C 554.357 -7.45864 1.40599 0
M  V30 3265 O 554.567 -6.17651 0.734225 0
M  V30 3266 C 555.757 -8.05808 1.51899 0
M  V30 3267 O 556.147 -8.74358 0.335205 0
M  V30 3268 C 556.637 -6.83093 1.70294 0
M  V30 3269 C 555.927 -5.79992 0.836974 0
M  V30 3270 N 555.977 -4.41864 1.38293 0
M  V30 3271 H 553.138 -8.13644 3.0377 0
M  V30 3272 H 552.868 -6.42788 2.55485 0
M  V30 3273 H 553.735 -8.12039 0.792769 0
M  V30 3274 P 557.697 -8.91 -3.54097e-12 0
M  V30 3275 O 557.917 -10.1726 -0.733694 0
M  V30 3276 O 558.487 -8.73148 1.23936 0
M  V30 3277 O 557.947 -7.66872 -0.971405 0
M  V30 3278 C 557.007 -7.42309 -2.04641 0
M  V30 3279 C 557.737 -6.86059 -3.24661 0
M  V30 3280 O 557.947 -5.42847 -3.03646 0
M  V30 3281 C 559.137 -7.41196 -3.50753 0
M  V30 3282 O 559.527 -7.27073 -4.86816 0
M  V30 3283 C 560.017 -6.5273 -2.63741 0
M  V30 3284 C 559.307 -5.1842 -2.73198 0
M  V30 3285 N 559.357 -4.38762 -1.4784 0
M  V30 3286 H 556.518 -8.36803 -2.32493 0
M  V30 3287 H 556.248 -6.70197 -1.71129 0
M  V30 3288 H 557.115 -7.03551 -4.13168 0
M  V30 3289 P 561.077 -7.20834 -5.23717 0
M  V30 3290 O 561.297 -7.80006 -6.57415 0
M  V30 3291 O 561.867 -7.79416 -4.13051 0
M  V30 3292 O 561.327 -5.63315 -5.29344 0
M  V30 3293 C 560.387 -4.80318 -6.01954 0
M  V30 3294 C 561.117 -3.64202 -6.65911 0
M  V30 3295 O 561.327 -2.60736 -5.64823 0
M  V30 3296 C 562.517 -3.93521 -7.19518 0
M  V30 3297 O 562.907 -3.02071 -8.21205 0
M  V30 3298 C 563.397 -3.73047 -5.97036 0
M  V30 3299 C 562.687 -2.58828 -5.25741 0
M  V30 3300 N 562.737 -2.68068 -3.77503 0
M  V30 3301 C 562.657 -3.80474 -2.99159 0
M  V30 3302 N 562.727 -3.55622 -1.71925 0
M  V30 3303 C 562.877 -2.1832 -1.65733 0
M  V30 3304 C 563.007 -1.28842 -0.572777 0
M  V30 3305 N 563.017 -1.66875 0.70098 0
M  V30 3306 N 563.127 0.016788 -0.859836 0
M  V30 3307 C 563.117 0.398145 -2.13316 0
M  V30 3308 N 562.997 -0.328224 -3.22333 0
M  V30 3309 C 562.877 -1.62992 -2.90383 0
M  V30 3310 H 559.899 -5.40394 -6.8003 0
M  V30 3311 H 559.627 -4.41741 -5.32532 0
M  V30 3312 H 560.495 -3.26371 -7.47889 0
M  V30 3313 H 563.15 -1.64007 -5.56746 0
M  V30 3314 H 563.43 -4.63439 -5.3432 0
M  V30 3315 H 564.421 -3.44776 -6.25925 0
M  V30 3316 H 562.587 -4.96707 -7.57347 0
M  V30 3317 H 562.546 -4.8089 -3.39924 0
M  V30 3318 H 562.927 -2.66547 0.941919 0
M  V30 3319 H 563.116 -0.965341 1.44766 0
M  V30 3320 H 563.224 1.46427 -2.29697 0
M  V30 3321 P 564.457 -2.75334 -8.47391 0
M  V30 3322 O 564.677 -2.44571 -9.90142 0
M  V30 3323 O 565.247 -3.87688 -7.92115 0
M  V30 3324 O 564.707 -1.4459 -7.59357 0
M  V30 3325 C 563.767 -0.347608 -7.69215 0
M  V30 3326 C 564.497 0.96767 -7.52806 0
M  V30 3327 O 564.707 1.21036 -6.1011 0
M  V30 3328 C 565.897 1.04544 -8.13308 0
M  V30 3329 O 566.287 2.38311 -8.41922 0
M  V30 3330 C 566.777 0.491279 -7.02284 0
M  V30 3331 C 566.067 0.996264 -5.77469 0
M  V30 3332 N 566.117 0.0501916 -4.62973 0
M  V30 3333 H 563.278 -0.374722 -8.67691 0
M  V30 3334 H 563.008 -0.443485 -6.90277 0
M  V30 3335 H 563.875 1.75537 -7.96793 0
M  V30 3336 P 567.837 2.75334 -8.47391 0
M  V30 3337 O 568.057 3.84128 -9.44797 0
M  V30 3338 O 568.627 1.51947 -8.68712 0
M  V30 3339 O 568.087 3.29363 -6.99321 0
M  V30 3340 C 567.147 4.24011 -6.4274 0
M  V30 3341 C 567.877 5.20775 -5.52155 0
M  V30 3342 O 568.087 4.56534 -4.22446 0
M  V30 3343 C 569.277 5.62629 -5.96531 0
M  V30 3344 O 569.667 6.87667 -5.41053 0
M  V30 3345 C 570.157 4.52537 -5.39283 0
M  V30 3346 C 569.447 4.20027 -4.08623 0
M  V30 3347 N 569.497 2.76189 -3.71603 0
M  V30 3348 H 566.658 4.797 -7.24003 0
M  V30 3349 H 566.388 3.69856 -5.84513 0
M  V30 3350 H 567.255 6.10356 -5.41441 0
M  V30 3351 P 571.217 7.20834 -5.23717 0
M  V30 3352 O 571.437 8.66104 -5.38572 0
M  V30 3353 O 572.007 6.33544 -6.1349 0
M  V30 3354 O 571.467 6.7751 -3.72168 0
M  V30 3355 C 570.527 7.20825 -2.7076 0
M  V30 3356 C 571.257 7.45864 -1.40599 0
M  V30 3357 O 571.467 6.17651 -0.734225 0
M  V30 3358 C 572.657 8.05808 -1.51899 0
M  V30 3359 O 573.047 8.74358 -0.335205 0
M  V30 3360 C 573.537 6.83093 -1.70294 0
M  V30 3361 C 572.827 5.79992 -0.836974 0
M  V30 3362 N 572.877 4.41864 -1.38293 0
M  V30 3363 H 570.038 8.13644 -3.0377 0
M  V30 3364 H 569.768 6.42788 -2.55485 0
M  V30 3365 H 570.635 8.12039 -0.792769 0
M  V30 3366 P 574.597 8.91 3.69815e-12 0
M  V30 3367 O 574.817 10.1726 0.733694 0
M  V30 3368 O 575.387 8.73148 -1.23936 0
M  V30 3369 O 574.847 7.66872 0.971405 0
M  V30 3370 C 573.907 7.42309 2.04641 0
M  V30 3371 C 574.637 6.86059 3.24661 0
M  V30 3372 O 574.847 5.42847 3.03646 0
M  V30 3373 C 576.037 7.41196 3.50753 0
M  V30 3374 O 576.427 7.27073 4.86816 0
M  V30 3375 C 576.917 6.5273 2.63741 0
M  V30 3376 C 576.207 5.1842 2.73198 0
M  V30 3377 N 576.257 4.38762 1.4784 0
M  V30 3378 H 573.418 8.36803 2.32493 0
M  V30 3379 H 573.148 6.70197 1.71129 0
M  V30 3380 H 574.015 7.03551 4.13168 0
M  V30 3381 P 577.977 7.20834 5.23717 0
M  V30 3382 O 578.197 7.79853 6.57286 0
M  V30 3383 O 578.767 7.79239 4.12957 0
M  V30 3384 O 578.227 5.63315 5.29344 0
M  V30 3385 C 577.287 4.80255 6.01876 0
M  V30 3386 C 578.017 3.64202 6.65911 0
M  V30 3387 O 578.227 2.60694 5.64732 0
M  V30 3388 C 579.417 3.93473 7.1943 0
M  V30 3389 O 579.807 3.02071 8.21205 0
M  V30 3390 C 580.297 3.73047 5.97036 0
M  V30 3391 C 579.587 2.58828 5.25741 0
M  V30 3392 N 579.637 2.68068 3.77503 0
M  V30 3393 H 576.798 5.40332 6.79951 0
M  V30 3394 H 576.528 4.41613 5.32378 0
M  V30 3395 H 577.395 3.26331 7.47797 0
M  V30 3396 P 581.357 2.75334 8.47391 0
M  V30 3397 O 581.577 2.44571 9.90142 0
M  V30 3398 O 582.147 3.87688 7.92115 0
M  V30 3399 O 581.607 1.4459 7.59357 0
M  V30 3400 C 580.667 0.347608 7.69215 0
M  V30 3401 C 581.397 -0.96767 7.52806 0
M  V30 3402 O 581.607 -1.21036 6.1011 0
M  V30 3403 C 582.797 -1.04544 8.13308 0
M  V30 3404 O 583.187 -2.38311 8.41922 0
M  V30 3405 C 583.677 -0.491279 7.02284 0
M  V30 3406 C 582.967 -0.996264 5.77469 0
M  V30 3407 N 583.017 -0.0501916 4.62973 0
M  V30 3408 H 580.178 0.374722 8.67691 0
M  V30 3409 H 579.908 0.443485 6.90277 0
M  V30 3410 H 580.775 -1.75537 7.96793 0
M  V30 3411 P 584.737 -2.75334 8.47391 0
M  V30 3412 O 584.957 -3.84128 9.44797 0
M  V30 3413 O 585.527 -1.51947 8.68712 0
M  V30 3414 O 584.987 -3.29363 6.99321 0
M  V30 3415 C 584.047 -4.24011 6.4274 0
M  V30 3416 C 584.777 -5.20775 5.52155 0
M  V30 3417 O 584.987 -4.56534 4.22446 0
M  V30 3418 C 586.177 -5.62629 5.96531 0
M  V30 3419 O 586.567 -6.87667 5.41053 0
M  V30 3420 C 587.057 -4.52537 5.39283 0
M  V30 3421 C 586.347 -4.20027 4.08623 0
M  V30 3422 N 586.397 -2.76189 3.71603 0
M  V30 3423 H 583.558 -4.797 7.24003 0
M  V30 3424 H 583.288 -3.69856 5.84513 0
M  V30 3425 H 584.155 -6.10356 5.41441 0
M  V30 3426 P 588.117 -7.20834 5.23717 0
M  V30 3427 O 588.337 -8.66104 5.38572 0
M  V30 3428 O 588.907 -6.33544 6.1349 0
M  V30 3429 O 588.367 -6.7751 3.72168 0
M  V30 3430 C 587.427 -7.20825 2.7076 0
M  V30 3431 C 588.157 -7.45864 1.40599 0
M  V30 3432 O 588.367 -6.17651 0.734225 0
M  V30 3433 C 589.557 -8.05808 1.51899 0
M  V30 3434 O 589.947 -8.74358 0.335205 0
M  V30 3435 C 590.437 -6.83093 1.70294 0
M  V30 3436 C 589.727 -5.79992 0.836974 0
M  V30 3437 N 589.777 -4.41864 1.38293 0
M  V30 3438 C 589.697 -3.99538 2.69438 0
M  V30 3439 N 589.777 -2.69909 2.84277 0
M  V30 3440 C 589.917 -2.21719 1.5408 0
M  V30 3441 C 590.047 -0.891712 1.06628 0
M  V30 3442 O 590.067 0.161298 1.70137 0
M  V30 3443 N 590.167 -0.856846 -0.334985 0
M  V30 3444 C 590.167 -1.9641 -1.15789 0
M  V30 3445 N 590.297 -1.72708 -2.46522 0
M  V30 3446 N 590.037 -3.21165 -0.713741 0
M  V30 3447 C 589.917 -3.26797 0.639748 0
M  V30 3448 H 586.938 -8.13644 3.0377 0
M  V30 3449 H 586.668 -6.42788 2.55485 0
M  V30 3450 H 587.535 -8.12039 0.792769 0
M  V30 3451 H 590.19 -5.80061 -0.166416 0
M  V30 3452 H 590.469 -6.51287 2.75604 0
M  V30 3453 H 591.461 -7.01734 1.34462 0
M  V30 3454 H 589.627 -8.73674 2.38337 0
M  V30 3455 H 589.578 -4.68207 3.53221 0
M  V30 3456 H 590.26 0.0398818 -0.767965 0
M  V30 3457 H 590.297 -2.50995 -3.13503 0
M  V30 3458 H 590.398 -0.759148 -2.80716 0
M  V30 3459 P 591.496 -8.91 -3.85533e-12 0
M  V30 3460 O 591.716 -10.1736 -0.733766 0
M  V30 3461 O 592.286 -8.73247 1.2395 0
M  V30 3462 O 591.746 -7.66872 -0.971405 0
M  V30 3463 C 590.806 -7.42212 -2.04614 0
M  V30 3464 C 591.536 -6.86059 -3.24661 0
M  V30 3465 O 591.746 -5.42847 -3.03646 0
M  V30 3466 C 592.937 -7.41196 -3.50753 0
M  V30 3467 O 593.327 -7.27073 -4.86816 0
M  V30 3468 C 593.817 -6.5273 -2.63741 0
M  V30 3469 C 593.106 -5.1842 -2.73198 0
M  V30 3470 N 593.156 -4.38668 -1.47808 0
M  V30 3471 C 593.306 -3.02239 -1.60048 0
M  V30 3472 O 593.396 -2.46459 -2.67869 0
M  V30 3473 N 593.346 -2.32436 -0.408571 0
M  V30 3474 C 593.256 -2.85471 0.854993 0
M  V30 3475 C 593.106 -4.28918 0.887335 0
M  V30 3476 C 593.056 -5.00349 -0.255399 0
M  V30 3477 H 590.317 -8.36803 -2.32493 0
M  V30 3478 H 590.048 -6.701 -1.71105 0
M  V30 3479 H 590.914 -7.03551 -4.13168 0
M  V30 3480 H 593.569 -4.59773 -3.53894 0
M  V30 3481 H 593.848 -6.88995 -1.59871 0
M  V30 3482 H 594.841 -6.46749 -3.03687 0
M  V30 3483 H 593.006 -8.46908 -3.20714 0
M  V30 3484 H 592.935 -6.08548 -0.206986 0
M  V30 3485 P 594.876 -7.20834 -5.23717 0
M  V30 3486 O 595.096 -7.7993 -6.57351 0
M  V30 3487 O 595.666 -7.79328 -4.13004 0
M  V30 3488 O 595.126 -5.63315 -5.29344 0
M  V30 3489 C 594.186 -4.80255 -6.01876 0
M  V30 3490 C 594.916 -3.64202 -6.65911 0
M  V30 3491 O 595.126 -2.60694 -5.64732 0
M  V30 3492 C 596.316 -3.93473 -7.1943 0
M  V30 3493 O 596.706 -3.02071 -8.21205 0
M  V30 3494 C 597.196 -3.73047 -5.97036 0
M  V30 3495 C 596.486 -2.58828 -5.25741 0
M  V30 3496 N 596.536 -2.6801 -3.77422 0
M  V30 3497 C 596.686 -1.50173 -3.05038 0
M  V30 3498 O 596.776 -0.428832 -3.665 0
M  V30 3499 N 596.736 -1.70922 -1.55541 0
M  V30 3500 C 596.636 -2.7407 -1.06402 0
M  V30 3501 N 596.686 -2.74764 0.260931 0
M  V30 3502 C 596.486 -3.96781 -1.78296 0
M  V30 3503 C 596.436 -3.87909 -3.13891 0
M  V30 3504 H 593.696 -5.4027 -6.79873 0
M  V30 3505 H 593.427 -4.41549 -5.32301 0
M  V30 3506 H 594.294 -3.26371 -7.47889 0
M  V30 3507 H 596.949 -1.63978 -5.5665 0
M  V30 3508 H 597.228 -4.63439 -5.3432 0
M  V30 3509 H 598.22 -3.44728 -6.25838 0
M  V30 3510 H 596.386 -4.96652 -7.57263 0
M  V30 3511 H 596.314 -4.78425 -3.73088 0
M  V30 3512 H 596.416 -4.92593 -1.26997 0
M  V30 3513 H 596.804 -1.86285 0.77595 0
M  V30 3514 H 596.607 -3.63657 0.773896 0
M  V30 3515 P 598.256 -2.75334 -8.47391 0
M  V30 3516 O 598.476 -2.44571 -9.90142 0
M  V30 3517 O 599.046 -3.87688 -7.92115 0
M  V30 3518 O 598.506 -1.4459 -7.59357 0
M  V30 3519 C 597.566 -0.347608 -7.69215 0
M  V30 3520 C 598.296 0.96767 -7.52806 0
M  V30 3521 O 598.506 1.21036 -6.1011 0
M  V30 3522 C 599.696 1.04544 -8.13308 0
M  V30 3523 O 600.086 2.38311 -8.41922 0
M  V30 3524 C 600.576 0.491279 -7.02284 0
M  V30 3525 C 599.866 0.996264 -5.77469 0
M  V30 3526 N 599.916 0.0501916 -4.62973 0
M  V30 3527 H 597.077 -0.374722 -8.67691 0
M  V30 3528 H 596.807 -0.443485 -6.90277 0
M  V30 3529 H 597.674 1.75537 -7.96793 0
M  V30 3530 P 601.636 2.75334 -8.47391 0
M  V30 3531 O 601.856 3.84128 -9.44797 0
M  V30 3532 O 602.426 1.51947 -8.68712 0
M  V30 3533 O 601.886 3.29363 -6.99321 0
M  V30 3534 C 600.946 4.24011 -6.4274 0
M  V30 3535 C 601.676 5.20775 -5.52155 0
M  V30 3536 O 601.886 4.56534 -4.22446 0
M  V30 3537 C 603.076 5.62629 -5.96531 0
M  V30 3538 O 603.466 6.87667 -5.41053 0
M  V30 3539 C 603.956 4.52537 -5.39283 0
M  V30 3540 C 603.246 4.20027 -4.08623 0
M  V30 3541 N 603.296 2.76189 -3.71603 0
M  V30 3542 H 600.457 4.797 -7.24003 0
M  V30 3543 H 600.187 3.69856 -5.84513 0
M  V30 3544 H 601.054 6.10356 -5.41441 0
M  V30 3545 P 605.016 7.20834 -5.23717 0
M  V30 3546 O 605.236 8.66104 -5.38572 0
M  V30 3547 O 605.806 6.33544 -6.1349 0
M  V30 3548 O 605.266 6.7751 -3.72168 0
M  V30 3549 C 604.326 7.20825 -2.7076 0
M  V30 3550 C 605.056 7.45864 -1.40599 0
M  V30 3551 O 605.266 6.17651 -0.734225 0
M  V30 3552 C 606.456 8.05808 -1.51899 0
M  V30 3553 O 606.846 8.74358 -0.335205 0
M  V30 3554 C 607.336 6.83093 -1.70294 0
M  V30 3555 C 606.626 5.79992 -0.836974 0
M  V30 3556 N 606.676 4.41864 -1.38293 0
M  V30 3557 H 603.837 8.13644 -3.0377 0
M  V30 3558 H 603.567 6.42788 -2.55485 0
M  V30 3559 H 604.434 8.12039 -0.792769 0
M  V30 3560 P 608.396 8.91 4.01252e-12 0
M  V30 3561 O 608.616 10.1726 0.733694 0
M  V30 3562 O 609.186 8.73148 -1.23936 0
M  V30 3563 O 608.646 7.66872 0.971405 0
M  V30 3564 C 607.706 7.42309 2.04641 0
M  V30 3565 C 608.436 6.86059 3.24661 0
M  V30 3566 O 608.646 5.42847 3.03646 0
M  V30 3567 C 609.836 7.41196 3.50753 0
M  V30 3568 O 610.226 7.27073 4.86816 0
M  V30 3569 C 610.716 6.5273 2.63741 0
M  V30 3570 C 610.006 5.1842 2.73198 0
M  V30 3571 N 610.056 4.38762 1.4784 0
M  V30 3572 C 609.976 4.81605 0.168631 0
M  V30 3573 N 610.056 3.85454 -0.713363 0
M  V30 3574 C 610.196 2.6994 0.0566958 0
M  V30 3575 C 610.326 1.34815 -0.338502 0
M  V30 3576 O 610.346 0.869548 -1.47125 0
M  V30 3577 N 610.446 0.496304 0.77465 0
M  V30 3578 C 610.446 0.908403 2.09122 0
M  V30 3579 N 610.576 -0.0517805 3.00955 0
M  V30 3580 N 610.316 2.17875 2.46519 0
M  V30 3581 C 610.196 3.01988 1.4033 0
M  V30 3582 H 607.217 8.36803 2.32493 0
M  V30 3583 H 606.947 6.70197 1.71129 0
M  V30 3584 H 607.814 7.03551 4.13168 0
M  V30 3585 H 610.469 4.59498 3.54415 0
M  V30 3586 H 610.748 6.88898 1.59848 0
M  V30 3587 H 611.74 6.46749 3.03687 0
M  V30 3588 H 609.906 8.46908 3.20714 0
M  V30 3589 H 609.857 5.86405 -0.105564 0
M  V30 3590 H 610.539 -0.483664 0.597855 0
M  V30 3591 H 610.576 0.187865 4.0116 0
M  V30 3592 H 610.677 -1.03585 2.71726 0
M  V30 3593 P 611.776 7.20834 5.23717 0
M  V30 3594 O 611.996 7.80006 6.57415 0
M  V30 3595 O 612.566 7.79416 4.13051 0
M  V30 3596 O 612.026 5.63315 5.29344 0
M  V30 3597 C 611.086 4.80318 6.01954 0
M  V30 3598 C 611.816 3.64202 6.65911 0
M  V30 3599 O 612.026 2.60736 5.64823 0
M  V30 3600 C 613.216 3.93521 7.19518 0
M  V30 3601 O 613.606 3.02071 8.21205 0
M  V30 3602 C 614.096 3.73047 5.97036 0
M  V30 3603 C 613.386 2.58828 5.25741 0
M  V30 3604 N 613.436 2.68068 3.77503 0
M  V30 3605 H 610.598 5.40394 6.8003 0
M  V30 3606 H 610.326 4.41741 5.32532 0
M  V30 3607 H 611.194 3.26371 7.47889 0
M  V30 3608 H 613.849 1.64007 5.56746 0
M  V30 3609 H 614.129 4.63439 5.3432 0
M  V30 3610 H 615.12 3.44776 6.25925 0
M  V30 3611 H 613.286 4.96707 7.57347 0
M  V30 3612 P 615.156 2.75334 8.47391 0
M  V30 3613 O 615.376 2.44571 9.90142 0
M  V30 3614 O 615.946 3.87688 7.92115 0
M  V30 3615 O 615.406 1.4459 7.59357 0
M  V30 3616 C 614.466 0.347608 7.69215 0
M  V30 3617 C 615.196 -0.96767 7.52806 0
M  V30 3618 O 615.406 -1.21036 6.1011 0
M  V30 3619 C 616.596 -1.04544 8.13308 0
M  V30 3620 O 616.986 -2.38311 8.41922 0
M  V30 3621 C 617.476 -0.491279 7.02284 0
M  V30 3622 C 616.766 -0.996264 5.77469 0
M  V30 3623 N 616.816 -0.0501916 4.62973 0
M  V30 3624 H 613.977 0.374722 8.67691 0
M  V30 3625 H 613.707 0.443485 6.90277 0
M  V30 3626 H 614.574 -1.75537 7.96793 0
M  V30 3627 P 618.536 -2.75334 8.47391 0
M  V30 3628 O 618.756 -3.84128 9.44797 0
M  V30 3629 O 619.326 -1.51947 8.68712 0
M  V30 3630 O 618.786 -3.29363 6.99321 0
M  V30 3631 C 617.846 -4.24011 6.4274 0
M  V30 3632 C 618.576 -5.20775 5.52155 0
M  V30 3633 O 618.786 -4.56534 4.22446 0
M  V30 3634 C 619.976 -5.62629 5.96531 0
M  V30 3635 O 620.366 -6.87667 5.41053 0
M  V30 3636 C 620.856 -4.52537 5.39283 0
M  V30 3637 C 620.146 -4.20027 4.08623 0
M  V30 3638 N 620.196 -2.76189 3.71603 0
M  V30 3639 H 617.357 -4.797 7.24003 0
M  V30 3640 H 617.087 -3.69856 5.84513 0
M  V30 3641 H 617.954 -6.10356 5.41441 0
M  V30 3642 P 621.916 -7.20834 5.23717 0
M  V30 3643 O 622.136 -8.66104 5.38572 0
M  V30 3644 O 622.706 -6.33544 6.1349 0
M  V30 3645 O 622.166 -6.7751 3.72168 0
M  V30 3646 C 621.226 -7.20825 2.7076 0
M  V30 3647 C 621.956 -7.45864 1.40599 0
M  V30 3648 O 622.166 -6.17651 0.734225 0
M  V30 3649 C 623.356 -8.05808 1.51899 0
M  V30 3650 O 623.746 -8.74358 0.335205 0
M  V30 3651 C 624.236 -6.83093 1.70294 0
M  V30 3652 C 623.526 -5.79992 0.836974 0
M  V30 3653 N 623.576 -4.41864 1.38293 0
M  V30 3654 H 620.737 -8.13644 3.0377 0
M  V30 3655 H 620.467 -6.42788 2.55485 0
M  V30 3656 H 621.334 -8.12039 0.792769 0
M  V30 3657 P 625.296 -8.91 -4.1697e-12 0
M  V30 3658 O 625.516 -10.1726 -0.733694 0
M  V30 3659 O 626.086 -8.73148 1.23936 0
M  V30 3660 O 625.546 -7.66872 -0.971405 0
M  V30 3661 C 624.606 -7.42309 -2.04641 0
M  V30 3662 C 625.336 -6.86059 -3.24661 0
M  V30 3663 O 625.546 -5.42847 -3.03646 0
M  V30 3664 C 626.736 -7.41196 -3.50753 0
M  V30 3665 O 627.126 -7.27073 -4.86816 0
M  V30 3666 C 627.616 -6.5273 -2.63741 0
M  V30 3667 C 626.906 -5.1842 -2.73198 0
M  V30 3668 N 626.956 -4.38762 -1.4784 0
M  V30 3669 H 624.117 -8.36803 -2.32493 0
M  V30 3670 H 623.847 -6.70197 -1.71129 0
M  V30 3671 H 624.714 -7.03551 -4.13168 0
M  V30 3672 P 628.676 -7.20834 -5.23717 0
M  V30 3673 O 628.896 -7.79853 -6.57286 0
M  V30 3674 O 629.466 -7.79239 -4.12957 0
M  V30 3675 O 628.926 -5.63315 -5.29344 0
M  V30 3676 C 627.986 -4.80255 -6.01876 0
M  V30 3677 C 628.716 -3.64202 -6.65911 0
M  V30 3678 O 628.926 -2.60694 -5.64732 0
M  V30 3679 C 630.116 -3.93473 -7.1943 0
M  V30 3680 O 630.506 -3.02071 -8.21205 0
M  V30 3681 C 630.996 -3.73047 -5.97036 0
M  V30 3682 C 630.286 -2.58828 -5.25741 0
M  V30 3683 N 630.336 -2.68068 -3.77503 0
M  V30 3684 C 630.256 -3.79715 -2.96723 0
M  V30 3685 N 630.336 -3.5377 -1.68852 0
M  V30 3686 C 630.476 -2.15054 -1.63254 0
M  V30 3687 C 630.606 -1.28964 -0.518571 0
M  V30 3688 O 630.626 -1.56826 0.679156 0
M  V30 3689 N 630.726 0.0538097 -0.918425 0
M  V30 3690 C 630.726 0.494275 -2.22578 0
M  V30 3691 N 630.856 1.81086 -2.40434 0
M  V30 3692 N 630.596 -0.313645 -3.27502 0
M  V30 3693 C 630.476 -1.61829 -2.91033 0
M  V30 3694 H 627.497 -5.40332 -6.79951 0
M  V30 3695 H 627.227 -4.41613 -5.32378 0
M  V30 3696 H 628.094 -3.26331 -7.47797 0
M  V30 3697 H 630.749 -1.63422 -5.56814 0
M  V30 3698 H 631.028 -4.63374 -5.34244 0
M  V30 3699 H 632.02 -3.44728 -6.25838 0
M  V30 3700 H 630.186 -4.96652 -7.57263 0
M  V30 3701 H 630.137 -4.80617 -3.3614 0
M  V30 3702 H 630.819 0.742702 -0.199384 0
M  V30 3703 H 630.856 2.20598 -3.35588 0
M  V30 3704 H 630.957 2.43518 -1.58945 0
M  V30 3705 P 632.056 -2.75334 -8.47391 0
M  V30 3706 O 632.276 -2.44571 -9.90142 0
M  V30 3707 O 632.846 -3.87688 -7.92115 0
M  V30 3708 O 632.306 -1.4459 -7.59357 0
M  V30 3709 C 631.366 -0.347608 -7.69215 0
M  V30 3710 C 632.096 0.96767 -7.52806 0
M  V30 3711 O 632.306 1.21036 -6.1011 0
M  V30 3712 C 633.496 1.04544 -8.13308 0
M  V30 3713 O 633.886 2.38311 -8.41922 0
M  V30 3714 C 634.376 0.491279 -7.02284 0
M  V30 3715 C 633.666 0.996264 -5.77469 0
M  V30 3716 N 633.716 0.0501916 -4.62973 0
M  V30 3717 H 630.877 -0.374722 -8.67691 0
M  V30 3718 H 630.607 -0.443485 -6.90277 0
M  V30 3719 H 631.474 1.75537 -7.96793 0
M  V30 3720 P 635.436 2.75334 -8.47391 0
M  V30 3721 O 635.656 3.84128 -9.44797 0
M  V30 3722 O 636.226 1.51947 -8.68712 0
M  V30 3723 O 635.686 3.29363 -6.99321 0
M  V30 3724 C 634.746 4.24011 -6.4274 0
M  V30 3725 C 635.476 5.20775 -5.52155 0
M  V30 3726 O 635.686 4.56534 -4.22446 0
M  V30 3727 C 636.876 5.62629 -5.96531 0
M  V30 3728 O 637.266 6.87667 -5.41053 0
M  V30 3729 C 637.756 4.52537 -5.39283 0
M  V30 3730 C 637.046 4.20027 -4.08623 0
M  V30 3731 N 637.096 2.76189 -3.71603 0
M  V30 3732 H 634.257 4.797 -7.24003 0
M  V30 3733 H 633.987 3.69856 -5.84513 0
M  V30 3734 H 634.854 6.10356 -5.41441 0
M  V30 3735 P 638.816 7.20834 -5.23717 0
M  V30 3736 O 639.036 8.66104 -5.38572 0
M  V30 3737 O 639.606 6.33544 -6.1349 0
M  V30 3738 O 639.066 6.7751 -3.72168 0
M  V30 3739 C 638.126 7.20825 -2.7076 0
M  V30 3740 C 638.856 7.45864 -1.40599 0
M  V30 3741 O 639.066 6.17651 -0.734225 0
M  V30 3742 C 640.256 8.05808 -1.51899 0
M  V30 3743 O 640.646 8.74358 -0.335205 0
M  V30 3744 C 641.136 6.83093 -1.70294 0
M  V30 3745 C 640.426 5.79992 -0.836974 0
M  V30 3746 N 640.476 4.41864 -1.38293 0
M  V30 3747 H 637.637 8.13644 -3.0377 0
M  V30 3748 H 637.367 6.42788 -2.55485 0
M  V30 3749 H 638.234 8.12039 -0.792769 0
M  V30 3750 P 642.196 8.91 4.32688e-12 0
M  V30 3751 O 642.416 10.1726 0.733694 0
M  V30 3752 O 642.986 8.73148 -1.23936 0
M  V30 3753 O 642.446 7.66872 0.971405 0
M  V30 3754 C 641.506 7.42309 2.04641 0
M  V30 3755 C 642.236 6.86059 3.24661 0
M  V30 3756 O 642.446 5.42847 3.03646 0
M  V30 3757 C 643.636 7.41196 3.50753 0
M  V30 3758 O 644.026 7.27073 4.86816 0
M  V30 3759 C 644.516 6.5273 2.63741 0
M  V30 3760 C 643.806 5.1842 2.73198 0
M  V30 3761 N 643.856 4.38762 1.4784 0
M  V30 3762 H 641.017 8.36803 2.32493 0
M  V30 3763 H 640.747 6.70197 1.71129 0
M  V30 3764 H 641.614 7.03551 4.13168 0
M  V30 3765 P 645.576 7.20834 5.23717 0
M  V30 3766 O 645.796 7.79853 6.57286 0
M  V30 3767 O 646.366 7.79239 4.12957 0
M  V30 3768 O 645.826 5.63315 5.29344 0
M  V30 3769 C 644.886 4.80255 6.01876 0
M  V30 3770 C 645.616 3.64202 6.65911 0
M  V30 3771 O 645.826 2.60694 5.64732 0
M  V30 3772 C 647.016 3.93473 7.1943 0
M  V30 3773 O 647.406 3.02071 8.21205 0
M  V30 3774 C 647.896 3.73047 5.97036 0
M  V30 3775 C 647.186 2.58828 5.25741 0
M  V30 3776 N 647.236 2.68068 3.77503 0
M  V30 3777 H 644.397 5.40332 6.79951 0
M  V30 3778 H 644.127 4.41613 5.32378 0
M  V30 3779 H 644.994 3.26331 7.47797 0
M  V30 3780 P 648.956 2.75334 8.47391 0
M  V30 3781 O 649.176 2.44571 9.90142 0
M  V30 3782 O 649.746 3.87688 7.92115 0
M  V30 3783 O 649.206 1.4459 7.59357 0
M  V30 3784 C 648.266 0.347608 7.69215 0
M  V30 3785 C 648.996 -0.96767 7.52806 0
M  V30 3786 O 649.206 -1.21036 6.1011 0
M  V30 3787 C 650.396 -1.04544 8.13308 0
M  V30 3788 O 650.786 -2.38311 8.41922 0
M  V30 3789 C 651.276 -0.491279 7.02284 0
M  V30 3790 C 650.566 -0.996264 5.77469 0
M  V30 3791 N 650.616 -0.0501916 4.62973 0
M  V30 3792 H 647.777 0.374722 8.67691 0
M  V30 3793 H 647.507 0.443485 6.90277 0
M  V30 3794 H 648.374 -1.75537 7.96793 0
M  V30 3795 P 652.336 -2.75334 8.47391 0
M  V30 3796 O 652.556 -3.84128 9.44797 0
M  V30 3797 O 653.126 -1.51947 8.68712 0
M  V30 3798 O 652.586 -3.29363 6.99321 0
M  V30 3799 C 651.646 -4.24011 6.4274 0
M  V30 3800 C 652.376 -5.20775 5.52155 0
M  V30 3801 O 652.586 -4.56534 4.22446 0
M  V30 3802 C 653.776 -5.62629 5.96531 0
M  V30 3803 O 654.166 -6.87667 5.41053 0
M  V30 3804 C 654.656 -4.52537 5.39283 0
M  V30 3805 C 653.946 -4.20027 4.08623 0
M  V30 3806 N 653.996 -2.76189 3.71603 0
M  V30 3807 H 651.157 -4.797 7.24003 0
M  V30 3808 H 650.887 -3.69856 5.84513 0
M  V30 3809 H 651.754 -6.10356 5.41441 0
M  V30 3810 P 655.716 -7.20834 5.23717 0
M  V30 3811 O 655.936 -8.66104 5.38572 0
M  V30 3812 O 656.506 -6.33544 6.1349 0
M  V30 3813 O 655.966 -6.7751 3.72168 0
M  V30 3814 C 655.026 -7.20825 2.7076 0
M  V30 3815 C 655.756 -7.45864 1.40599 0
M  V30 3816 O 655.966 -6.17651 0.734225 0
M  V30 3817 C 657.156 -8.05808 1.51899 0
M  V30 3818 O 657.546 -8.74358 0.335205 0
M  V30 3819 C 658.036 -6.83093 1.70294 0
M  V30 3820 C 657.326 -5.79992 0.836974 0
M  V30 3821 N 657.376 -4.41864 1.38293 0
M  V30 3822 C 657.296 -3.99538 2.69438 0
M  V30 3823 N 657.376 -2.69909 2.84277 0
M  V30 3824 C 657.516 -2.21719 1.5408 0
M  V30 3825 C 657.646 -0.891712 1.06628 0
M  V30 3826 O 657.666 0.161298 1.70137 0
M  V30 3827 N 657.766 -0.856846 -0.334985 0
M  V30 3828 C 657.766 -1.9641 -1.15789 0
M  V30 3829 N 657.896 -1.72708 -2.46522 0
M  V30 3830 N 657.636 -3.21165 -0.713741 0
M  V30 3831 C 657.516 -3.26797 0.639748 0
M  V30 3832 H 654.537 -8.13644 3.0377 0
M  V30 3833 H 654.267 -6.42788 2.55485 0
M  V30 3834 H 655.134 -8.12039 0.792769 0
M  V30 3835 H 657.789 -5.80061 -0.166416 0
M  V30 3836 H 658.068 -6.51287 2.75604 0
M  V30 3837 H 659.06 -7.01734 1.34462 0
M  V30 3838 H 657.226 -8.73674 2.38337 0
M  V30 3839 H 657.177 -4.68207 3.53221 0
M  V30 3840 H 657.859 0.0398818 -0.767965 0
M  V30 3841 H 657.896 -2.50995 -3.13503 0
M  V30 3842 H 657.997 -0.759148 -2.80716 0
M  V30 3843 P 659.096 -8.91 -4.48406e-12 0
M  V30 3844 O 659.316 -10.1726 -0.733694 0
M  V30 3845 O 659.886 -8.73148 1.23936 0
M  V30 3846 O 659.346 -7.66872 -0.971405 0
M  V30 3847 C 658.406 -7.42309 -2.04641 0
M  V30 3848 C 659.136 -6.86059 -3.24661 0
M  V30 3849 O 659.346 -5.42847 -3.03646 0
M  V30 3850 C 660.536 -7.41196 -3.50753 0
M  V30 3851 O 660.926 -7.27073 -4.86816 0
M  V30 3852 C 661.416 -6.5273 -2.63741 0
M  V30 3853 C 660.706 -5.1842 -2.73198 0
M  V30 3854 N 660.756 -4.38762 -1.4784 0
M  V30 3855 H 657.917 -8.36803 -2.32493 0
M  V30 3856 H 657.647 -6.70197 -1.71129 0
M  V30 3857 H 658.514 -7.03551 -4.13168 0
M  V30 3858 P 662.476 -7.20834 -5.23717 0
M  V30 3859 O 662.696 -7.79853 -6.57286 0
M  V30 3860 O 663.266 -7.79239 -4.12957 0
M  V30 3861 O 662.726 -5.63315 -5.29344 0
M  V30 3862 C 661.786 -4.80255 -6.01876 0
M  V30 3863 C 662.516 -3.64202 -6.65911 0
M  V30 3864 O 662.726 -2.60694 -5.64732 0
M  V30 3865 C 663.916 -3.93473 -7.1943 0
M  V30 3866 O 664.306 -3.02071 -8.21205 0
M  V30 3867 C 664.796 -3.73047 -5.97036 0
M  V30 3868 C 664.086 -2.58828 -5.25741 0
M  V30 3869 N 664.136 -2.68068 -3.77503 0
M  V30 3870 H 661.297 -5.40332 -6.79951 0
M  V30 3871 H 661.027 -4.41613 -5.32378 0
M  V30 3872 H 661.894 -3.26331 -7.47797 0
M  V30 3873 P 665.856 -2.75334 -8.47391 0
M  V30 3874 O 666.076 -2.44571 -9.90142 0
M  V30 3875 O 666.646 -3.87688 -7.92115 0
M  V30 3876 O 666.106 -1.4459 -7.59357 0
M  V30 3877 C 665.166 -0.347608 -7.69215 0
M  V30 3878 C 665.896 0.96767 -7.52806 0
M  V30 3879 O 666.106 1.21036 -6.1011 0
M  V30 3880 C 667.296 1.04544 -8.13308 0
M  V30 3881 O 667.686 2.38311 -8.41922 0
M  V30 3882 C 668.176 0.491279 -7.02284 0
M  V30 3883 C 667.466 0.996264 -5.77469 0
M  V30 3884 N 667.516 0.0501916 -4.62973 0
M  V30 3885 C 667.436 -1.32786 -4.63244 0
M  V30 3886 N 667.516 -1.86957 -3.44545 0
M  V30 3887 C 667.656 -0.780241 -2.58481 0
M  V30 3888 C 667.786 -0.738536 -1.17757 0
M  V30 3889 N 667.906 0.58337 -0.711393 0
M  V30 3890 C 667.906 1.70816 -1.51017 0
M  V30 3891 N 668.036 2.87826 -0.880757 0
M  V30 3892 N 667.776 1.67126 -2.8339 0
M  V30 3893 C 667.656 0.401421 -3.30572 0
M  V30 3894 H 664.677 -0.374722 -8.67691 0
M  V30 3895 H 664.407 -0.443485 -6.90277 0
M  V30 3896 H 665.274 1.75537 -7.96793 0
M  V30 3897 P 669.236 2.75334 -8.47391 0
M  V30 3898 O 669.456 3.84128 -9.44797 0
M  V30 3899 O 670.026 1.51947 -8.68712 0
M  V30 3900 O 669.486 3.29363 -6.99321 0
M  V30 3901 C 668.546 4.24011 -6.4274 0
M  V30 3902 C 669.276 5.20775 -5.52155 0
M  V30 3903 O 669.486 4.56534 -4.22446 0
M  V30 3904 C 670.676 5.62629 -5.96531 0
M  V30 3905 O 671.066 6.87667 -5.41053 0
M  V30 3906 C 671.556 4.52537 -5.39283 0
M  V30 3907 C 670.846 4.20027 -4.08623 0
M  V30 3908 N 670.896 2.76189 -3.71603 0
M  V30 3909 C 670.816 1.64862 -4.52822 0
M  V30 3910 N 670.896 0.512671 -3.88633 0
M  V30 3911 C 671.036 0.888083 -2.54977 0
M  V30 3912 C 671.166 0.094668 -1.38677 0
M  V30 3913 O 671.186 -1.13053 -1.28163 0
M  V30 3914 N 671.286 0.890102 -0.232633 0
M  V30 3915 C 671.286 2.26958 -0.21772 0
M  V30 3916 N 671.416 2.84626 0.97925 0
M  V30 3917 N 671.156 3.0178 -1.31033 0
M  V30 3918 C 671.036 2.26781 -2.43843 0
M  V30 3919 H 668.057 4.797 -7.24003 0
M  V30 3920 H 667.787 3.69856 -5.84513 0
M  V30 3921 H 668.654 6.10356 -5.41441 0
M  V30 3922 H 671.309 4.79061 -3.27488 0
M  V30 3923 H 671.588 3.64906 -6.05785 0
M  V30 3924 H 672.58 4.8868 -5.2125 0
M  V30 3925 H 670.746 5.66726 -7.06352 0
M  V30 3926 H 670.697 1.71169 -5.60966 0
M  V30 3927 H 671.379 0.419134 0.644739 0
M  V30 3928 H 671.416 3.87332 1.06098 0
M  V30 3929 H 671.517 2.26417 1.82483 0
M  V30 3930 P 672.616 7.20834 -5.23717 0
M  V30 3931 O 672.836 8.66104 -5.38572 0
M  V30 3932 O 673.406 6.33544 -6.1349 0
M  V30 3933 O 672.866 6.7751 -3.72168 0
M  V30 3934 C 671.926 7.20825 -2.7076 0
M  V30 3935 C 672.656 7.45864 -1.40599 0
M  V30 3936 O 672.866 6.17651 -0.734225 0
M  V30 3937 C 674.056 8.05808 -1.51899 0
M  V30 3938 O 674.446 8.74358 -0.335205 0
M  V30 3939 C 674.936 6.83093 -1.70294 0
M  V30 3940 C 674.226 5.79992 -0.836974 0
M  V30 3941 N 674.276 4.41864 -1.38293 0
M  V30 3942 C 674.196 3.99538 -2.69438 0
M  V30 3943 N 674.276 2.69909 -2.84277 0
M  V30 3944 C 674.416 2.21719 -1.5408 0
M  V30 3945 C 674.546 0.891712 -1.06628 0
M  V30 3946 N 674.666 0.856846 0.334985 0
M  V30 3947 C 674.666 1.9641 1.15789 0
M  V30 3948 N 674.796 1.72708 2.46522 0
M  V30 3949 N 674.536 3.21165 0.713741 0
M  V30 3950 C 674.416 3.26797 -0.639748 0
M  V30 3951 H 671.437 8.13644 -3.0377 0
M  V30 3952 H 671.167 6.42788 -2.55485 0
M  V30 3953 H 672.034 8.12039 -0.792769 0
M  V30 3954 P 675.996 8.91 4.64125e-12 0
M  V30 3955 O 676.216 10.1726 0.733694 0
M  V30 3956 O 676.786 8.73148 -1.23936 0
M  V30 3957 O 676.246 7.66872 0.971405 0
M  V30 3958 C 675.306 7.42309 2.04641 0
M  V30 3959 C 676.036 6.86059 3.24661 0
M  V30 3960 O 676.246 5.42847 3.03646 0
M  V30 3961 C 677.436 7.41196 3.50753 0
M  V30 3962 O 677.826 7.27073 4.86816 0
M  V30 3963 C 678.316 6.5273 2.63741 0
M  V30 3964 C 677.606 5.1842 2.73198 0
M  V30 3965 N 677.656 4.38762 1.4784 0
M  V30 3966 C 677.576 4.81605 0.168631 0
M  V30 3967 N 677.656 3.85454 -0.713363 0
M  V30 3968 C 677.796 2.6994 0.0566958 0
M  V30 3969 C 677.926 1.34815 -0.338502 0
M  V30 3970 O 677.946 0.869548 -1.47125 0
M  V30 3971 N 678.046 0.496304 0.77465 0
M  V30 3972 C 678.046 0.908403 2.09122 0
M  V30 3973 N 678.176 -0.0517805 3.00955 0
M  V30 3974 N 677.916 2.17875 2.46519 0
M  V30 3975 C 677.796 3.01988 1.4033 0
M  V30 3976 H 674.817 8.36803 2.32493 0
M  V30 3977 H 674.547 6.70197 1.71129 0
M  V30 3978 H 675.414 7.03551 4.13168 0
M  V30 3979 H 678.069 4.59498 3.54415 0
M  V30 3980 H 678.348 6.88898 1.59848 0
M  V30 3981 H 679.34 6.46749 3.03687 0
M  V30 3982 H 677.506 8.46908 3.20714 0
M  V30 3983 H 677.457 5.86405 -0.105564 0
M  V30 3984 H 678.139 -0.483664 0.597855 0
M  V30 3985 H 678.176 0.187865 4.0116 0
M  V30 3986 H 678.277 -1.03585 2.71726 0
M  V30 3987 P 679.376 7.20834 5.23717 0
M  V30 3988 O 679.596 7.79853 6.57286 0
M  V30 3989 O 680.166 7.79239 4.12957 0
M  V30 3990 O 679.626 5.63315 5.29344 0
M  V30 3991 C 678.686 4.80255 6.01876 0
M  V30 3992 C 679.416 3.64202 6.65911 0
M  V30 3993 O 679.626 2.60694 5.64732 0
M  V30 3994 C 680.816 3.93473 7.1943 0
M  V30 3995 O 681.206 3.02071 8.21205 0
M  V30 3996 C 681.696 3.73047 5.97036 0
M  V30 3997 C 680.986 2.58828 5.25741 0
M  V30 3998 N 681.036 2.68068 3.77503 0
M  V30 3999 H 678.197 5.40332 6.79951 0
M  V30 4000 H 677.927 4.41613 5.32378 0
M  V30 4001 H 678.794 3.26331 7.47797 0
M  V30 4002 P 682.756 2.75334 8.47391 0
M  V30 4003 O 682.976 2.44619 9.90336 0
M  V30 4004 O 683.546 3.87776 7.92294 0
M  V30 4005 O 683.006 1.4459 7.59357 0
M  V30 4006 C 682.066 0.347653 7.69315 0
M  V30 4007 C 682.796 -0.96767 7.52806 0
M  V30 4008 O 683.006 -1.21055 6.10208 0
M  V30 4009 C 684.196 -1.04557 8.13408 0
M  V30 4010 O 684.586 -2.38311 8.41922 0
M  V30 4011 C 685.076 -0.491279 7.02284 0
M  V30 4012 C 684.366 -0.996264 5.77469 0
M  V30 4013 N 684.416 -0.0501916 4.62973 0
M  V30 4014 H 681.578 0.374765 8.67791 0
M  V30 4015 H 681.306 0.443613 6.90476 0
M  V30 4016 H 682.174 -1.75559 7.96891 0
M  V30 4017 H 684.829 -1.94563 5.46818 0
M  V30 4018 H 685.109 0.608651 7.04676 0
M  V30 4019 H 686.1 -0.889796 7.09039 0
M  V30 4020 H 684.266 -0.433128 9.04664 0
M  V30 4021 P 686.136 -2.75334 8.47391 0
M  V30 4022 O 686.356 -3.84128 9.44797 0
M  V30 4023 O 686.926 -1.51947 8.68712 0
M  V30 4024 O 686.386 -3.29363 6.99321 0
M  V30 4025 C 685.446 -4.24011 6.4274 0
M  V30 4026 C 686.176 -5.20775 5.52155 0
M  V30 4027 O 686.386 -4.56534 4.22446 0
M  V30 4028 C 687.576 -5.62629 5.96531 0
M  V30 4029 O 687.966 -6.87667 5.41053 0
M  V30 4030 C 688.456 -4.52537 5.39283 0
M  V30 4031 C 687.746 -4.20027 4.08623 0
M  V30 4032 N 687.796 -2.76189 3.71603 0
M  V30 4033 H 684.957 -4.797 7.24003 0
M  V30 4034 H 684.687 -3.69856 5.84513 0
M  V30 4035 H 685.554 -6.10356 5.41441 0
M  V30 4036 P 689.516 -7.20834 5.23717 0
M  V30 4037 O 689.736 -8.66104 5.38572 0
M  V30 4038 O 690.306 -6.33544 6.1349 0
M  V30 4039 O 689.766 -6.7751 3.72168 0
M  V30 4040 C 688.826 -7.20825 2.7076 0
M  V30 4041 C 689.556 -7.45864 1.40599 0
M  V30 4042 O 689.766 -6.17651 0.734225 0
M  V30 4043 C 690.956 -8.05808 1.51899 0
M  V30 4044 O 691.346 -8.74358 0.335205 0
M  V30 4045 C 691.836 -6.83093 1.70294 0
M  V30 4046 C 691.126 -5.79992 0.836974 0
M  V30 4047 N 691.176 -4.41864 1.38293 0
M  V30 4048 H 688.337 -8.13644 3.0377 0
M  V30 4049 H 688.067 -6.42788 2.55485 0
M  V30 4050 H 688.934 -8.12039 0.792769 0
M  V30 4051 P 692.896 -8.91 -4.67181e-12 0
M  V30 4052 O 693.116 -10.1746 -0.733838 0
M  V30 4053 O 693.686 -8.73346 1.23964 0
M  V30 4054 O 693.146 -7.66872 -0.971405 0
M  V30 4055 C 692.206 -7.42405 -2.04668 0
M  V30 4056 C 692.936 -6.86059 -3.24661 0
M  V30 4057 O 693.146 -5.42934 -3.03695 0
M  V30 4058 C 694.336 -7.41287 -3.50796 0
M  V30 4059 O 694.726 -7.27073 -4.86816 0
M  V30 4060 C 695.216 -6.5273 -2.63741 0
M  V30 4061 C 694.506 -5.1842 -2.73198 0
M  V30 4062 N 694.556 -4.38762 -1.4784 0
M  V30 4063 H 691.718 -8.36899 -2.3252 0
M  V30 4064 H 691.446 -6.70391 -1.71179 0
M  V30 4065 H 692.314 -7.03638 -4.13219 0
M  V30 4066 H 694.969 -4.59931 -3.54016 0
M  V30 4067 H 695.249 -6.88995 -1.59871 0
M  V30 4068 H 696.24 -6.4684 -3.0373 0
M  V30 4069 H 694.406 -8.47002 -3.20749 0
M  V30 4070 P 696.276 -7.20834 -5.23717 0
M  V30 4071 O 696.496 -7.79853 -6.57286 0
M  V30 4072 O 697.066 -7.79239 -4.12957 0
M  V30 4073 O 696.526 -5.63315 -5.29344 0
M  V30 4074 C 695.586 -4.80255 -6.01876 0
M  V30 4075 C 696.316 -3.64202 -6.65911 0
M  V30 4076 O 696.526 -2.60694 -5.64732 0
M  V30 4077 C 697.716 -3.93473 -7.1943 0
M  V30 4078 O 698.106 -3.02071 -8.21205 0
M  V30 4079 C 698.596 -3.73047 -5.97036 0
M  V30 4080 C 697.886 -2.58828 -5.25741 0
M  V30 4081 N 697.936 -2.68068 -3.77503 0
M  V30 4082 C 697.856 -3.79715 -2.96723 0
M  V30 4083 N 697.936 -3.5377 -1.68852 0
M  V30 4084 C 698.076 -2.15054 -1.63254 0
M  V30 4085 C 698.206 -1.28964 -0.518571 0
M  V30 4086 O 698.226 -1.56826 0.679156 0
M  V30 4087 N 698.326 0.0538097 -0.918425 0
M  V30 4088 C 698.326 0.494275 -2.22578 0
M  V30 4089 N 698.456 1.81086 -2.40434 0
M  V30 4090 N 698.196 -0.313645 -3.27502 0
M  V30 4091 C 698.076 -1.61829 -2.91033 0
M  V30 4092 H 695.097 -5.40332 -6.79951 0
M  V30 4093 H 694.827 -4.41613 -5.32378 0
M  V30 4094 H 695.694 -3.26331 -7.47797 0
M  V30 4095 H 698.349 -1.63422 -5.56814 0
M  V30 4096 H 698.628 -4.63374 -5.34244 0
M  V30 4097 H 699.62 -3.44728 -6.25838 0
M  V30 4098 H 697.786 -4.96652 -7.57263 0
M  V30 4099 H 697.737 -4.80617 -3.3614 0
M  V30 4100 H 698.419 0.742702 -0.199384 0
M  V30 4101 H 698.456 2.20598 -3.35588 0
M  V30 4102 H 698.557 2.43518 -1.58945 0
M  V30 4103 P 699.656 -2.75334 -8.47391 0
M  V30 4104 O 699.876 -2.44619 -9.90336 0
M  V30 4105 O 700.446 -3.87776 -7.92294 0
M  V30 4106 O 699.906 -1.4459 -7.59357 0
M  V30 4107 C 698.966 -0.347653 -7.69315 0
M  V30 4108 C 699.696 0.96767 -7.52806 0
M  V30 4109 O 699.906 1.21055 -6.10208 0
M  V30 4110 C 701.096 1.04557 -8.13408 0
M  V30 4111 O 701.486 2.38311 -8.41922 0
M  V30 4112 C 701.976 0.491279 -7.02284 0
M  V30 4113 C 701.266 0.996264 -5.77469 0
M  V30 4114 N 701.316 0.0501916 -4.62973 0
M  V30 4115 H 698.478 -0.374765 -8.67791 0
M  V30 4116 H 698.206 -0.443613 -6.90476 0
M  V30 4117 H 699.074 1.75559 -7.96891 0
M  V30 4118 H 701.729 1.94563 -5.46818 0
M  V30 4119 H 702.009 -0.608651 -7.04676 0
M  V30 4120 H 703 0.889796 -7.09039 0
M  V30 4121 H 701.166 0.433128 -9.04664 0
M  V30 4122 P 703.036 2.75334 -8.47391 0
M  V30 4123 O 703.256 3.84128 -9.44797 0
M  V30 4124 O 703.826 1.51947 -8.68712 0
M  V30 4125 O 703.286 3.29363 -6.99321 0
M  V30 4126 C 702.346 4.24011 -6.4274 0
M  V30 4127 C 703.076 5.20775 -5.52155 0
M  V30 4128 O 703.286 4.56534 -4.22446 0
M  V30 4129 C 704.476 5.62629 -5.96531 0
M  V30 4130 O 704.866 6.87667 -5.41053 0
M  V30 4131 C 705.356 4.52537 -5.39283 0
M  V30 4132 C 704.646 4.20027 -4.08623 0
M  V30 4133 N 704.696 2.76189 -3.71603 0
M  V30 4134 H 701.857 4.797 -7.24003 0
M  V30 4135 H 701.587 3.69856 -5.84513 0
M  V30 4136 H 702.454 6.10356 -5.41441 0
M  V30 4137 P 706.416 7.20834 -5.23717 0
M  V30 4138 O 706.636 8.66104 -5.38572 0
M  V30 4139 O 707.206 6.33544 -6.1349 0
M  V30 4140 O 706.666 6.7751 -3.72168 0
M  V30 4141 C 705.726 7.20825 -2.7076 0
M  V30 4142 C 706.456 7.45864 -1.40599 0
M  V30 4143 O 706.666 6.17651 -0.734225 0
M  V30 4144 C 707.856 8.05808 -1.51899 0
M  V30 4145 O 708.246 8.74358 -0.335205 0
M  V30 4146 C 708.736 6.83093 -1.70294 0
M  V30 4147 C 708.026 5.79992 -0.836974 0
M  V30 4148 N 708.076 4.41864 -1.38293 0
M  V30 4149 H 705.237 8.13644 -3.0377 0
M  V30 4150 H 704.967 6.42788 -2.55485 0
M  V30 4151 H 705.834 8.12039 -0.792769 0
M  V30 4152 P 709.796 8.91 4.82899e-12 0
M  V30 4153 O 710.016 10.1726 0.733694 0
M  V30 4154 O 710.586 8.73148 -1.23936 0
M  V30 4155 O 710.046 7.66872 0.971405 0
M  V30 4156 C 709.106 7.42309 2.04641 0
M  V30 4157 C 709.836 6.86059 3.24661 0
M  V30 4158 O 710.046 5.42847 3.03646 0
M  V30 4159 C 711.236 7.41196 3.50753 0
M  V30 4160 O 711.626 7.27073 4.86816 0
M  V30 4161 C 712.116 6.5273 2.63741 0
M  V30 4162 C 711.406 5.1842 2.73198 0
M  V30 4163 N 711.456 4.38762 1.4784 0
M  V30 4164 C 711.376 4.81605 0.168631 0
M  V30 4165 N 711.456 3.85454 -0.713363 0
M  V30 4166 C 711.596 2.6994 0.0566958 0
M  V30 4167 C 711.726 1.34815 -0.338502 0
M  V30 4168 N 711.846 0.496304 0.77465 0
M  V30 4169 C 711.846 0.908403 2.09122 0
M  V30 4170 N 711.976 -0.0517805 3.00955 0
M  V30 4171 N 711.716 2.17875 2.46519 0
M  V30 4172 C 711.596 3.01988 1.4033 0
M  V30 4173 H 708.617 8.36803 2.32493 0
M  V30 4174 H 708.347 6.70197 1.71129 0
M  V30 4175 H 709.214 7.03551 4.13168 0
M  V30 4176 P 713.176 7.20834 5.23717 0
M  V30 4177 O 713.396 7.79853 6.57286 0
M  V30 4178 O 713.966 7.79239 4.12957 0
M  V30 4179 O 713.426 5.63315 5.29344 0
M  V30 4180 C 712.486 4.80255 6.01876 0
M  V30 4181 C 713.216 3.64202 6.65911 0
M  V30 4182 O 713.426 2.60694 5.64732 0
M  V30 4183 C 714.616 3.93473 7.1943 0
M  V30 4184 O 715.006 3.02071 8.21205 0
M  V30 4185 C 715.496 3.73047 5.97036 0
M  V30 4186 C 714.786 2.58828 5.25741 0
M  V30 4187 N 714.836 2.68068 3.77503 0
M  V30 4188 C 714.756 3.79715 2.96723 0
M  V30 4189 N 714.836 3.5377 1.68852 0
M  V30 4190 C 714.976 2.15054 1.63254 0
M  V30 4191 C 715.106 1.28964 0.518571 0
M  V30 4192 N 715.226 -0.0538097 0.918425 0
M  V30 4193 C 715.226 -0.494275 2.22578 0
M  V30 4194 N 715.356 -1.81086 2.40434 0
M  V30 4195 N 715.096 0.313645 3.27502 0
M  V30 4196 C 714.976 1.61829 2.91033 0
M  V30 4197 H 711.997 5.40332 6.79951 0
M  V30 4198 H 711.727 4.41613 5.32378 0
M  V30 4199 H 712.594 3.26331 7.47797 0
M  V30 4200 P 716.556 2.75334 8.47391 0
M  V30 4201 O 716.776 2.44571 9.90142 0
M  V30 4202 O 717.346 3.87688 7.92115 0
M  V30 4203 O 716.806 1.4459 7.59357 0
M  V30 4204 C 715.866 0.347608 7.69215 0
M  V30 4205 C 716.596 -0.96767 7.52806 0
M  V30 4206 O 716.806 -1.21036 6.1011 0
M  V30 4207 C 717.996 -1.04544 8.13308 0
M  V30 4208 O 718.386 -2.38311 8.41922 0
M  V30 4209 C 718.876 -0.491279 7.02284 0
M  V30 4210 C 718.166 -0.996264 5.77469 0
M  V30 4211 N 718.216 -0.0501916 4.62973 0
M  V30 4212 H 715.377 0.374722 8.67691 0
M  V30 4213 H 715.107 0.443485 6.90277 0
M  V30 4214 H 715.974 -1.75537 7.96793 0
M  V30 4215 P 719.936 -2.75334 8.47391 0
M  V30 4216 O 720.156 -3.84166 9.4489 0
M  V30 4217 O 720.726 -1.51964 8.6881 0
M  V30 4218 O 720.186 -3.29363 6.99321 0
M  V30 4219 C 719.246 -4.23956 6.42656 0
M  V30 4220 C 719.976 -5.20775 5.52155 0
M  V30 4221 O 720.186 -4.56534 4.22446 0
M  V30 4222 C 721.376 -5.62629 5.96531 0
M  V30 4223 O 721.766 -6.87667 5.41053 0
M  V30 4224 C 722.256 -4.52537 5.39283 0
M  V30 4225 C 721.546 -4.20027 4.08623 0
M  V30 4226 N 721.596 -2.7613 3.71522 0
M  V30 4227 C 721.746 -2.45612 2.37989 0
M  V30 4228 O 721.836 -3.30919 1.51621 0
M  V30 4229 N 721.786 -1.10684 2.08435 0
M  V30 4230 C 721.696 -0.0690084 2.9792 0
M  V30 4231 O 721.746 1.10553 2.59426 0
M  V30 4232 C 721.546 -0.481522 4.35345 0
M  V30 4233 C 721.436 0.618778 5.36443 0
M  V30 4234 C 721.496 -1.78906 4.67968 0
M  V30 4235 H 718.756 -4.797 7.24003 0
M  V30 4236 H 718.487 -3.69802 5.84429 0
M  V30 4237 H 719.354 -6.10356 5.41441 0
M  V30 4238 H 722.009 -4.78651 3.27911 0
M  V30 4239 H 722.288 -3.64957 6.05871 0
M  V30 4240 H 723.28 -4.8868 5.2125 0
M  V30 4241 H 721.446 -5.66726 7.06352 0
M  V30 4242 H 721.375 -2.07737 5.72367 0
M  V30 4243 H 722.405 0.754375 5.86871 0
M  V30 4244 H 720.668 0.359721 6.10641 0
M  V30 4245 H 721.156 1.55533 4.8581 0
M  V30 4246 H 721.892 -0.862651 1.12037 0
M  V30 4247 P 723.316 -7.20834 5.23717 0
M  V30 4248 O 723.536 -8.66104 5.38572 0
M  V30 4249 O 724.106 -6.33544 6.1349 0
M  V30 4250 O 723.566 -6.7751 3.72168 0
M  V30 4251 C 722.626 -7.20825 2.7076 0
M  V30 4252 C 723.356 -7.45864 1.40599 0
M  V30 4253 O 723.566 -6.17651 0.734225 0
M  V30 4254 C 724.756 -8.05808 1.51899 0
M  V30 4255 O 725.146 -8.74358 0.335205 0
M  V30 4256 C 725.636 -6.83093 1.70294 0
M  V30 4257 C 724.926 -5.79992 0.836974 0
M  V30 4258 N 724.976 -4.41864 1.38293 0
M  V30 4259 H 722.137 -8.13644 3.0377 0
M  V30 4260 H 721.867 -6.42788 2.55485 0
M  V30 4261 H 722.734 -8.12039 0.792769 0
M  V30 4262 P 726.696 -8.91 -4.98617e-12 0
M  V30 4263 O 726.916 -10.1726 -0.733694 0
M  V30 4264 O 727.486 -8.73148 1.23936 0
M  V30 4265 O 726.946 -7.66872 -0.971405 0
M  V30 4266 C 726.006 -7.42309 -2.04641 0
M  V30 4267 C 726.736 -6.86059 -3.24661 0
M  V30 4268 O 726.946 -5.42847 -3.03646 0
M  V30 4269 C 728.136 -7.41196 -3.50753 0
M  V30 4270 O 728.526 -7.27073 -4.86816 0
M  V30 4271 C 729.016 -6.5273 -2.63741 0
M  V30 4272 C 728.306 -5.1842 -2.73198 0
M  V30 4273 N 728.356 -4.38762 -1.4784 0
M  V30 4274 H 725.517 -8.36803 -2.32493 0
M  V30 4275 H 725.247 -6.70197 -1.71129 0
M  V30 4276 H 726.114 -7.03551 -4.13168 0
M  V30 4277 P 730.076 -7.20834 -5.23717 0
M  V30 4278 O 730.296 -7.79853 -6.57286 0
M  V30 4279 O 730.866 -7.79239 -4.12957 0
M  V30 4280 O 730.326 -5.63315 -5.29344 0
M  V30 4281 C 729.386 -4.80255 -6.01876 0
M  V30 4282 C 730.116 -3.64202 -6.65911 0
M  V30 4283 O 730.326 -2.60694 -5.64732 0
M  V30 4284 C 731.516 -3.93473 -7.1943 0
M  V30 4285 O 731.906 -3.02071 -8.21205 0
M  V30 4286 C 732.396 -3.73047 -5.97036 0
M  V30 4287 C 731.686 -2.58828 -5.25741 0
M  V30 4288 N 731.736 -2.68068 -3.77503 0
M  V30 4289 H 728.897 -5.40332 -6.79951 0
M  V30 4290 H 728.627 -4.41613 -5.32378 0
M  V30 4291 H 729.494 -3.26331 -7.47797 0
M  V30 4292 P 733.456 -2.75334 -8.47391 0
M  V30 4293 O 733.676 -2.44571 -9.90142 0
M  V30 4294 O 734.246 -3.87688 -7.92115 0
M  V30 4295 O 733.706 -1.4459 -7.59357 0
M  V30 4296 C 732.766 -0.347608 -7.69215 0
M  V30 4297 C 733.496 0.96767 -7.52806 0
M  V30 4298 O 733.706 1.21036 -6.1011 0
M  V30 4299 C 734.896 1.04544 -8.13308 0
M  V30 4300 O 735.286 2.38311 -8.41922 0
M  V30 4301 C 735.776 0.491279 -7.02284 0
M  V30 4302 C 735.066 0.996264 -5.77469 0
M  V30 4303 N 735.116 0.0501916 -4.62973 0
M  V30 4304 H 732.277 -0.374722 -8.67691 0
M  V30 4305 H 732.007 -0.443485 -6.90277 0
M  V30 4306 H 732.874 1.75537 -7.96793 0
M  V30 4307 P 736.836 2.75334 -8.47391 0
M  V30 4308 O 737.056 3.84128 -9.44797 0
M  V30 4309 O 737.626 1.51947 -8.68712 0
M  V30 4310 O 737.086 3.29363 -6.99321 0
M  V30 4311 C 736.146 4.24011 -6.4274 0
M  V30 4312 C 736.876 5.20775 -5.52155 0
M  V30 4313 O 737.086 4.56534 -4.22446 0
M  V30 4314 C 738.276 5.62629 -5.96531 0
M  V30 4315 O 738.666 6.87667 -5.41053 0
M  V30 4316 C 739.156 4.52537 -5.39283 0
M  V30 4317 C 738.446 4.20027 -4.08623 0
M  V30 4318 N 738.496 2.76189 -3.71603 0
M  V30 4319 H 735.657 4.797 -7.24003 0
M  V30 4320 H 735.387 3.69856 -5.84513 0
M  V30 4321 H 736.254 6.10356 -5.41441 0
M  V30 4322 P 740.216 7.20834 -5.23717 0
M  V30 4323 O 740.436 8.66104 -5.38572 0
M  V30 4324 O 741.006 6.33544 -6.1349 0
M  V30 4325 O 740.466 6.7751 -3.72168 0
M  V30 4326 C 739.526 7.20825 -2.7076 0
M  V30 4327 C 740.256 7.45864 -1.40599 0
M  V30 4328 O 740.466 6.17651 -0.734225 0
M  V30 4329 C 741.656 8.05808 -1.51899 0
M  V30 4330 O 742.046 8.74358 -0.335205 0
M  V30 4331 C 742.536 6.83093 -1.70294 0
M  V30 4332 C 741.826 5.79992 -0.836974 0
M  V30 4333 N 741.876 4.41864 -1.38293 0
M  V30 4334 H 739.037 8.13644 -3.0377 0
M  V30 4335 H 738.767 6.42788 -2.55485 0
M  V30 4336 H 739.634 8.12039 -0.792769 0
M  V30 4337 P 743.596 8.91 5.14336e-12 0
M  V30 4338 O 743.816 10.1726 0.733694 0
M  V30 4339 O 744.386 8.73148 -1.23936 0
M  V30 4340 O 743.846 7.66872 0.971405 0
M  V30 4341 C 742.906 7.42309 2.04641 0
M  V30 4342 C 743.636 6.86059 3.24661 0
M  V30 4343 O 743.846 5.42847 3.03646 0
M  V30 4344 C 745.036 7.41196 3.50753 0
M  V30 4345 O 745.426 7.27073 4.86816 0
M  V30 4346 C 745.916 6.5273 2.63741 0
M  V30 4347 C 745.206 5.1842 2.73198 0
M  V30 4348 N 745.256 4.38762 1.4784 0
M  V30 4349 H 742.417 8.36803 2.32493 0
M  V30 4350 H 742.147 6.70197 1.71129 0
M  V30 4351 H 743.014 7.03551 4.13168 0
M  V30 4352 P 746.976 7.20834 5.23717 0
M  V30 4353 O 747.196 7.7993 6.57351 0
M  V30 4354 O 747.766 7.79328 4.13004 0
M  V30 4355 O 747.226 5.63315 5.29344 0
M  V30 4356 C 746.286 4.80255 6.01876 0
M  V30 4357 C 747.016 3.64202 6.65911 0
M  V30 4358 O 747.226 2.60694 5.64732 0
M  V30 4359 C 748.416 3.93473 7.1943 0
M  V30 4360 O 748.806 3.02071 8.21205 0
M  V30 4361 C 749.296 3.73047 5.97036 0
M  V30 4362 C 748.586 2.58828 5.25741 0
M  V30 4363 N 748.636 2.6801 3.77422 0
M  V30 4364 C 748.786 1.50173 3.05038 0
M  V30 4365 O 748.876 0.428832 3.665 0
M  V30 4366 N 748.836 1.70922 1.55541 0
M  V30 4367 C 748.736 2.7407 1.06402 0
M  V30 4368 N 748.786 2.74764 -0.260931 0
M  V30 4369 C 748.586 3.96781 1.78296 0
M  V30 4370 C 748.536 3.87909 3.13891 0
M  V30 4371 H 745.796 5.4027 6.79873 0
M  V30 4372 H 745.527 4.41549 5.32301 0
M  V30 4373 H 746.394 3.26371 7.47889 0
M  V30 4374 H 749.049 1.63978 5.5665 0
M  V30 4375 H 749.328 4.63439 5.3432 0
M  V30 4376 H 750.32 3.44728 6.25838 0
M  V30 4377 H 748.486 4.96652 7.57263 0
M  V30 4378 H 748.414 4.78425 3.73088 0
M  V30 4379 H 748.516 4.92593 1.26997 0
M  V30 4380 H 748.904 1.86285 -0.77595 0
M  V30 4381 H 748.707 3.63657 -0.773896 0
M  V30 4382 P 750.356 2.75334 8.47391 0
M  V30 4383 O 750.576 2.44571 9.90142 0
M  V30 4384 O 751.146 3.87688 7.92115 0
M  V30 4385 O 750.606 1.4459 7.59357 0
M  V30 4386 C 749.666 0.347608 7.69215 0
M  V30 4387 C 750.396 -0.96767 7.52806 0
M  V30 4388 O 750.606 -1.21036 6.1011 0
M  V30 4389 C 751.796 -1.04544 8.13308 0
M  V30 4390 O 752.186 -2.38311 8.41922 0
M  V30 4391 C 752.676 -0.491279 7.02284 0
M  V30 4392 C 751.966 -0.996264 5.77469 0
M  V30 4393 N 752.016 -0.0501916 4.62973 0
M  V30 4394 H 749.177 0.374722 8.67691 0
M  V30 4395 H 748.907 0.443485 6.90277 0
M  V30 4396 H 749.774 -1.75537 7.96793 0
M  V30 4397 P 753.736 -2.75334 8.47391 0
M  V30 4398 O 753.956 -3.84128 9.44797 0
M  V30 4399 O 754.526 -1.51947 8.68712 0
M  V30 4400 O 753.986 -3.29363 6.99321 0
M  V30 4401 C 753.046 -4.24011 6.4274 0
M  V30 4402 C 753.776 -5.20775 5.52155 0
M  V30 4403 O 753.986 -4.56534 4.22446 0
M  V30 4404 C 755.176 -5.62629 5.96531 0
M  V30 4405 O 755.566 -6.87667 5.41053 0
M  V30 4406 C 756.056 -4.52537 5.39283 0
M  V30 4407 C 755.346 -4.20027 4.08623 0
M  V30 4408 N 755.396 -2.76189 3.71603 0
M  V30 4409 C 755.316 -1.64862 4.52822 0
M  V30 4410 N 755.396 -0.512671 3.88633 0
M  V30 4411 C 755.536 -0.888083 2.54977 0
M  V30 4412 C 755.666 -0.094668 1.38677 0
M  V30 4413 N 755.786 -0.890102 0.232633 0
M  V30 4414 C 755.786 -2.26958 0.21772 0
M  V30 4415 N 755.916 -2.84626 -0.97925 0
M  V30 4416 N 755.656 -3.0178 1.31033 0
M  V30 4417 C 755.536 -2.26781 2.43843 0
M  V30 4418 H 752.557 -4.797 7.24003 0
M  V30 4419 H 752.287 -3.69856 5.84513 0
M  V30 4420 H 753.154 -6.10356 5.41441 0
M  V30 4421 P 757.116 -7.20834 5.23717 0
M  V30 4422 O 757.336 -8.66104 5.38572 0
M  V30 4423 O 757.906 -6.33544 6.1349 0
M  V30 4424 O 757.366 -6.7751 3.72168 0
M  V30 4425 C 756.426 -7.20825 2.7076 0
M  V30 4426 C 757.156 -7.45864 1.40599 0
M  V30 4427 O 757.366 -6.17651 0.734225 0
M  V30 4428 C 758.556 -8.05808 1.51899 0
M  V30 4429 O 758.946 -8.74358 0.335205 0
M  V30 4430 C 759.436 -6.83093 1.70294 0
M  V30 4431 C 758.726 -5.79992 0.836974 0
M  V30 4432 N 758.776 -4.41864 1.38293 0
M  V30 4433 H 755.937 -8.13644 3.0377 0
M  V30 4434 H 755.667 -6.42788 2.55485 0
M  V30 4435 H 756.534 -8.12039 0.792769 0
M  V30 4436 P 760.496 -8.91 -5.30054e-12 0
M  V30 4437 O 760.716 -10.1726 -0.733694 0
M  V30 4438 O 761.286 -8.73148 1.23936 0
M  V30 4439 O 760.746 -7.66872 -0.971405 0
M  V30 4440 C 759.806 -7.42309 -2.04641 0
M  V30 4441 C 760.536 -6.86059 -3.24661 0
M  V30 4442 O 760.746 -5.42847 -3.03646 0
M  V30 4443 C 761.936 -7.41196 -3.50753 0
M  V30 4444 O 762.326 -7.27073 -4.86816 0
M  V30 4445 C 762.816 -6.5273 -2.63741 0
M  V30 4446 C 762.106 -5.1842 -2.73198 0
M  V30 4447 N 762.156 -4.38762 -1.4784 0
M  V30 4448 H 759.317 -8.36803 -2.32493 0
M  V30 4449 H 759.047 -6.70197 -1.71129 0
M  V30 4450 H 759.914 -7.03551 -4.13168 0
M  V30 4451 P 763.875 -7.20834 -5.23717 0
M  V30 4452 O 764.095 -7.79853 -6.57286 0
M  V30 4453 O 764.665 -7.79239 -4.12957 0
M  V30 4454 O 764.125 -5.63315 -5.29344 0
M  V30 4455 C 763.185 -4.80255 -6.01876 0
M  V30 4456 C 763.915 -3.64202 -6.65911 0
M  V30 4457 O 764.125 -2.60694 -5.64732 0
M  V30 4458 C 765.315 -3.93473 -7.1943 0
M  V30 4459 O 765.705 -3.02071 -8.21205 0
M  V30 4460 C 766.195 -3.73047 -5.97036 0
M  V30 4461 C 765.485 -2.58828 -5.25741 0
M  V30 4462 N 765.535 -2.68068 -3.77503 0
M  V30 4463 H 762.696 -5.40332 -6.79951 0
M  V30 4464 H 762.426 -4.41613 -5.32378 0
M  V30 4465 H 763.293 -3.26331 -7.47797 0
M  V30 4466 P 767.255 -2.75334 -8.47391 0
M  V30 4467 O 767.475 -2.44571 -9.90142 0
M  V30 4468 O 768.045 -3.87688 -7.92115 0
M  V30 4469 O 767.505 -1.4459 -7.59357 0
M  V30 4470 C 766.565 -0.347608 -7.69215 0
M  V30 4471 C 767.295 0.96767 -7.52806 0
M  V30 4472 O 767.505 1.21036 -6.1011 0
M  V30 4473 C 768.695 1.04544 -8.13308 0
M  V30 4474 O 769.085 2.38311 -8.41922 0
M  V30 4475 C 769.575 0.491279 -7.02284 0
M  V30 4476 C 768.865 0.996264 -5.77469 0
M  V30 4477 N 768.915 0.0501916 -4.62973 0
M  V30 4478 H 766.076 -0.374722 -8.67691 0
M  V30 4479 H 765.806 -0.443485 -6.90277 0
M  V30 4480 H 766.673 1.75537 -7.96793 0
M  V30 4481 P 770.635 2.75334 -8.47391 0
M  V30 4482 O 770.855 3.84128 -9.44797 0
M  V30 4483 O 771.425 1.51947 -8.68712 0
M  V30 4484 O 770.885 3.29363 -6.99321 0
M  V30 4485 C 769.945 4.24011 -6.4274 0
M  V30 4486 C 770.675 5.20775 -5.52155 0
M  V30 4487 O 770.885 4.56534 -4.22446 0
M  V30 4488 C 772.075 5.62629 -5.96531 0
M  V30 4489 O 772.465 6.87667 -5.41053 0
M  V30 4490 C 772.955 4.52537 -5.39283 0
M  V30 4491 C 772.245 4.20027 -4.08623 0
M  V30 4492 N 772.295 2.76189 -3.71603 0
M  V30 4493 H 769.456 4.797 -7.24003 0
M  V30 4494 H 769.186 3.69856 -5.84513 0
M  V30 4495 H 770.053 6.10356 -5.41441 0
M  V30 4496 P 774.015 7.20834 -5.23717 0
M  V30 4497 O 774.235 8.66104 -5.38572 0
M  V30 4498 O 774.805 6.33544 -6.1349 0
M  V30 4499 O 774.265 6.7751 -3.72168 0
M  V30 4500 C 773.325 7.20825 -2.7076 0
M  V30 4501 C 774.055 7.45864 -1.40599 0
M  V30 4502 O 774.265 6.17651 -0.734225 0
M  V30 4503 C 775.455 8.05808 -1.51899 0
M  V30 4504 O 775.845 8.74358 -0.335205 0
M  V30 4505 C 776.335 6.83093 -1.70294 0
M  V30 4506 C 775.625 5.79992 -0.836974 0
M  V30 4507 N 775.675 4.41864 -1.38293 0
M  V30 4508 H 772.836 8.13644 -3.0377 0
M  V30 4509 H 772.566 6.42788 -2.55485 0
M  V30 4510 H 773.433 8.12039 -0.792769 0
M  V30 4511 P 777.395 8.91 5.45772e-12 0
M  V30 4512 O 777.615 10.1726 0.733694 0
M  V30 4513 O 778.185 8.73148 -1.23936 0
M  V30 4514 O 777.645 7.66872 0.971405 0
M  V30 4515 C 776.705 7.42309 2.04641 0
M  V30 4516 C 777.435 6.86059 3.24661 0
M  V30 4517 O 777.645 5.42847 3.03646 0
M  V30 4518 C 778.835 7.41196 3.50753 0
M  V30 4519 O 779.225 7.27073 4.86816 0
M  V30 4520 C 779.715 6.5273 2.63741 0
M  V30 4521 C 779.005 5.1842 2.73198 0
M  V30 4522 N 779.055 4.38762 1.4784 0
M  V30 4523 H 776.216 8.36803 2.32493 0
M  V30 4524 H 775.946 6.70197 1.71129 0
M  V30 4525 H 776.813 7.03551 4.13168 0
M  V30 4526 P 780.775 7.20834 5.23717 0
M  V30 4527 O 780.995 7.79853 6.57286 0
M  V30 4528 O 781.565 7.79239 4.12957 0
M  V30 4529 O 781.025 5.63315 5.29344 0
M  V30 4530 C 780.085 4.80255 6.01876 0
M  V30 4531 C 780.815 3.64202 6.65911 0
M  V30 4532 O 781.025 2.60694 5.64732 0
M  V30 4533 C 782.215 3.93473 7.1943 0
M  V30 4534 O 782.605 3.02071 8.21205 0
M  V30 4535 C 783.095 3.73047 5.97036 0
M  V30 4536 C 782.385 2.58828 5.25741 0
M  V30 4537 N 782.435 2.68068 3.77503 0
M  V30 4538 H 779.596 5.40332 6.79951 0
M  V30 4539 H 779.326 4.41613 5.32378 0
M  V30 4540 H 780.193 3.26331 7.47797 0
M  V30 4541 P 784.155 2.75334 8.47391 0
M  V30 4542 O 784.375 2.44619 9.90336 0
M  V30 4543 O 784.945 3.87776 7.92294 0
M  V30 4544 O 784.405 1.4459 7.59357 0
M  V30 4545 C 783.465 0.347653 7.69315 0
M  V30 4546 C 784.195 -0.96767 7.52806 0
M  V30 4547 O 784.405 -1.21055 6.10208 0
M  V30 4548 C 785.595 -1.04557 8.13408 0
M  V30 4549 O 785.985 -2.38311 8.41922 0
M  V30 4550 C 786.475 -0.491279 7.02284 0
M  V30 4551 C 785.765 -0.996264 5.77469 0
M  V30 4552 N 785.815 -0.0501916 4.62973 0
M  V30 4553 C 785.735 1.31969 4.65661 0
M  V30 4554 N 785.805 1.86649 3.48119 0
M  V30 4555 C 785.955 0.792089 2.62406 0
M  V30 4556 C 786.085 0.705684 1.2207 0
M  V30 4557 N 786.095 1.76207 0.413762 0
M  V30 4558 N 786.205 -0.518981 0.685754 0
M  V30 4559 C 786.195 -1.57595 1.49174 0
M  V30 4560 N 786.075 -1.62909 2.80066 0
M  V30 4561 C 785.955 -0.388195 3.3073 0
M  V30 4562 H 782.977 0.374765 8.67791 0
M  V30 4563 H 782.705 0.443613 6.90476 0
M  V30 4564 H 783.573 -1.75559 7.96891 0
M  V30 4565 H 786.228 -1.94563 5.46818 0
M  V30 4566 H 786.508 0.608651 7.04676 0
M  V30 4567 H 787.499 -0.889796 7.09039 0
M  V30 4568 H 785.665 -0.433128 9.04664 0
M  V30 4569 H 785.624 1.89246 5.57664 0
M  V30 4570 H 786.005 2.71005 0.804694 0
M  V30 4571 H 786.194 1.63189 -0.603768 0
M  V30 4572 H 786.302 -2.53475 0.997614 0
M  V30 4573 P 787.535 -2.75334 8.47391 0
M  V30 4574 O 787.755 -3.84128 9.44797 0
M  V30 4575 O 788.325 -1.51947 8.68712 0
M  V30 4576 O 787.785 -3.29363 6.99321 0
M  V30 4577 C 786.845 -4.24011 6.4274 0
M  V30 4578 C 787.575 -5.20775 5.52155 0
M  V30 4579 O 787.785 -4.56534 4.22446 0
M  V30 4580 C 788.975 -5.62629 5.96531 0
M  V30 4581 O 789.365 -6.87667 5.41053 0
M  V30 4582 C 789.855 -4.52537 5.39283 0
M  V30 4583 C 789.145 -4.20027 4.08623 0
M  V30 4584 N 789.195 -2.76189 3.71603 0
M  V30 4585 C 789.115 -1.64862 4.52822 0
M  V30 4586 N 789.195 -0.512671 3.88633 0
M  V30 4587 C 789.335 -0.888083 2.54977 0
M  V30 4588 C 789.465 -0.094668 1.38677 0
M  V30 4589 O 789.485 1.13053 1.28163 0
M  V30 4590 N 789.585 -0.890102 0.232633 0
M  V30 4591 C 789.585 -2.26958 0.21772 0
M  V30 4592 N 789.715 -2.84626 -0.97925 0
M  V30 4593 N 789.455 -3.0178 1.31033 0
M  V30 4594 C 789.335 -2.26781 2.43843 0
M  V30 4595 H 786.356 -4.797 7.24003 0
M  V30 4596 H 786.086 -3.69856 5.84513 0
M  V30 4597 H 786.953 -6.10356 5.41441 0
M  V30 4598 H 789.608 -4.79061 3.27488 0
M  V30 4599 H 789.887 -3.64906 6.05785 0
M  V30 4600 H 790.879 -4.8868 5.2125 0
M  V30 4601 H 789.045 -5.66726 7.06352 0
M  V30 4602 H 788.996 -1.71169 5.60966 0
M  V30 4603 H 789.678 -0.419134 -0.644739 0
M  V30 4604 H 789.715 -3.87332 -1.06098 0
M  V30 4605 H 789.816 -2.26417 -1.82483 0
M  V30 4606 P 790.915 -7.20834 5.23717 0
M  V30 4607 O 791.135 -8.66274 5.38678 0
M  V30 4608 O 791.705 -6.33687 6.13629 0
M  V30 4609 O 791.165 -6.7751 3.72168 0
M  V30 4610 C 790.225 -7.20919 2.70795 0
M  V30 4611 C 790.955 -7.45864 1.40599 0
M  V30 4612 O 791.165 -6.17751 0.734343 0
M  V30 4613 C 792.355 -8.05906 1.51917 0
M  V30 4614 O 792.745 -8.74358 0.335205 0
M  V30 4615 C 793.235 -6.83093 1.70294 0
M  V30 4616 C 792.525 -5.79992 0.836974 0
M  V30 4617 N 792.575 -4.41864 1.38293 0
M  V30 4618 H 789.737 -8.13738 3.03804 0
M  V30 4619 H 789.465 -6.42974 2.55559 0
M  V30 4620 H 790.333 -8.12139 0.792866 0
M  V30 4621 H 792.988 -5.80178 -0.160643 0
M  V30 4622 H 793.268 -6.51379 2.75643 0
M  V30 4623 H 794.259 -7.01832 1.3448 0
M  V30 4624 H 792.425 -8.73771 2.38364 0
M  V30 4625 P 794.295 -8.91 -5.6149e-12 0
M  V30 4626 O 794.515 -10.1726 -0.733694 0
M  V30 4627 O 795.085 -8.73148 1.23936 0
M  V30 4628 O 794.545 -7.66872 -0.971405 0
M  V30 4629 C 793.605 -7.42309 -2.04641 0
M  V30 4630 C 794.335 -6.86059 -3.24661 0
M  V30 4631 O 794.545 -5.42847 -3.03646 0
M  V30 4632 C 795.735 -7.41196 -3.50753 0
M  V30 4633 O 796.125 -7.27073 -4.86816 0
M  V30 4634 C 796.615 -6.5273 -2.63741 0
M  V30 4635 C 795.905 -5.1842 -2.73198 0
M  V30 4636 N 795.955 -4.38762 -1.4784 0
M  V30 4637 H 793.116 -8.36803 -2.32493 0
M  V30 4638 H 792.846 -6.70197 -1.71129 0
M  V30 4639 H 793.713 -7.03551 -4.13168 0
M  V30 4640 P 797.675 -7.20834 -5.23717 0
M  V30 4641 O 797.895 -7.80006 -6.57415 0
M  V30 4642 O 798.465 -7.79416 -4.13051 0
M  V30 4643 O 797.925 -5.63315 -5.29344 0
M  V30 4644 C 796.985 -4.80318 -6.01954 0
M  V30 4645 C 797.715 -3.64202 -6.65911 0
M  V30 4646 O 797.925 -2.60736 -5.64823 0
M  V30 4647 C 799.115 -3.93521 -7.19518 0
M  V30 4648 O 799.505 -3.02071 -8.21205 0
M  V30 4649 C 799.995 -3.73047 -5.97036 0
M  V30 4650 C 799.285 -2.58828 -5.25741 0
M  V30 4651 N 799.335 -2.68068 -3.77503 0
M  V30 4652 H 796.497 -5.40394 -6.8003 0
M  V30 4653 H 796.225 -4.41741 -5.32532 0
M  V30 4654 H 797.093 -3.26371 -7.47889 0
M  V30 4655 H 799.748 -1.64007 -5.56746 0
M  V30 4656 H 800.028 -4.63439 -5.3432 0
M  V30 4657 H 801.019 -3.44776 -6.25925 0
M  V30 4658 H 799.185 -4.96707 -7.57347 0
M  V30 4659 P 801.055 -2.75334 -8.47391 0
M  V30 4660 O 801.275 -2.44571 -9.90142 0
M  V30 4661 O 801.845 -3.87688 -7.92115 0
M  V30 4662 O 801.305 -1.4459 -7.59357 0
M  V30 4663 C 800.365 -0.347608 -7.69215 0
M  V30 4664 C 801.095 0.96767 -7.52806 0
M  V30 4665 O 801.305 1.21036 -6.1011 0
M  V30 4666 C 802.495 1.04544 -8.13308 0
M  V30 4667 O 802.885 2.38311 -8.41922 0
M  V30 4668 C 803.375 0.491279 -7.02284 0
M  V30 4669 C 802.665 0.996264 -5.77469 0
M  V30 4670 N 802.715 0.0501916 -4.62973 0
M  V30 4671 H 799.876 -0.374722 -8.67691 0
M  V30 4672 H 799.606 -0.443485 -6.90277 0
M  V30 4673 H 800.473 1.75537 -7.96793 0
M  V30 4674 P 804.435 2.75334 -8.47391 0
M  V30 4675 O 804.655 3.84128 -9.44797 0
M  V30 4676 O 805.225 1.51947 -8.68712 0
M  V30 4677 O 804.685 3.29363 -6.99321 0
M  V30 4678 C 803.745 4.24011 -6.4274 0
M  V30 4679 C 804.475 5.20775 -5.52155 0
M  V30 4680 O 804.685 4.56534 -4.22446 0
M  V30 4681 C 805.875 5.62629 -5.96531 0
M  V30 4682 O 806.265 6.87667 -5.41053 0
M  V30 4683 C 806.755 4.52537 -5.39283 0
M  V30 4684 C 806.045 4.20027 -4.08623 0
M  V30 4685 N 806.095 2.76189 -3.71603 0
M  V30 4686 H 803.256 4.797 -7.24003 0
M  V30 4687 H 802.986 3.69856 -5.84513 0
M  V30 4688 H 803.853 6.10356 -5.41441 0
M  V30 4689 P 807.815 7.20834 -5.23717 0
M  V30 4690 O 808.035 8.66104 -5.38572 0
M  V30 4691 O 808.605 6.33544 -6.1349 0
M  V30 4692 O 808.065 6.7751 -3.72168 0
M  V30 4693 C 807.125 7.20825 -2.7076 0
M  V30 4694 C 807.855 7.45864 -1.40599 0
M  V30 4695 O 808.065 6.17651 -0.734225 0
M  V30 4696 C 809.255 8.05808 -1.51899 0
M  V30 4697 O 809.645 8.74358 -0.335205 0
M  V30 4698 C 810.135 6.83093 -1.70294 0
M  V30 4699 C 809.425 5.79992 -0.836974 0
M  V30 4700 N 809.475 4.41864 -1.38293 0
M  V30 4701 H 806.636 8.13644 -3.0377 0
M  V30 4702 H 806.366 6.42788 -2.55485 0
M  V30 4703 H 807.233 8.12039 -0.792769 0
M  V30 4704 P 811.195 8.91 5.77209e-12 0
M  V30 4705 O 811.415 10.1726 0.733694 0
M  V30 4706 O 811.985 8.73148 -1.23936 0
M  V30 4707 O 811.445 7.66872 0.971405 0
M  V30 4708 C 810.505 7.42309 2.04641 0
M  V30 4709 C 811.235 6.86059 3.24661 0
M  V30 4710 O 811.445 5.42847 3.03646 0
M  V30 4711 C 812.635 7.41196 3.50753 0
M  V30 4712 O 813.025 7.27073 4.86816 0
M  V30 4713 C 813.515 6.5273 2.63741 0
M  V30 4714 C 812.805 5.1842 2.73198 0
M  V30 4715 N 812.855 4.38762 1.4784 0
M  V30 4716 C 812.775 4.81605 0.168631 0
M  V30 4717 N 812.855 3.85454 -0.713363 0
M  V30 4718 C 812.995 2.6994 0.0566958 0
M  V30 4719 C 813.125 1.34815 -0.338502 0
M  V30 4720 N 813.245 0.496304 0.77465 0
M  V30 4721 C 813.245 0.908403 2.09122 0
M  V30 4722 N 813.375 -0.0517805 3.00955 0
M  V30 4723 N 813.115 2.17875 2.46519 0
M  V30 4724 C 812.995 3.01988 1.4033 0
M  V30 4725 H 810.016 8.36803 2.32493 0
M  V30 4726 H 809.746 6.70197 1.71129 0
M  V30 4727 H 810.613 7.03551 4.13168 0
M  V30 4728 P 814.575 7.20834 5.23717 0
M  V30 4729 O 814.795 7.79853 6.57286 0
M  V30 4730 O 815.365 7.79239 4.12957 0
M  V30 4731 O 814.825 5.63315 5.29344 0
M  V30 4732 C 813.885 4.80255 6.01876 0
M  V30 4733 C 814.615 3.64202 6.65911 0
M  V30 4734 O 814.825 2.60694 5.64732 0
M  V30 4735 C 816.015 3.93473 7.1943 0
M  V30 4736 O 816.405 3.02071 8.21205 0
M  V30 4737 C 816.895 3.73047 5.97036 0
M  V30 4738 C 816.185 2.58828 5.25741 0
M  V30 4739 N 816.235 2.68068 3.77503 0
M  V30 4740 H 813.396 5.40332 6.79951 0
M  V30 4741 H 813.126 4.41613 5.32378 0
M  V30 4742 H 813.993 3.26331 7.47797 0
M  V30 4743 P 817.955 2.75334 8.47391 0
M  V30 4744 O 818.175 2.44571 9.90142 0
M  V30 4745 O 818.745 3.87688 7.92115 0
M  V30 4746 O 818.205 1.4459 7.59357 0
M  V30 4747 C 817.265 0.347608 7.69215 0
M  V30 4748 C 817.995 -0.96767 7.52806 0
M  V30 4749 O 818.205 -1.21036 6.1011 0
M  V30 4750 C 819.395 -1.04544 8.13308 0
M  V30 4751 O 819.785 -2.38311 8.41922 0
M  V30 4752 C 820.275 -0.491279 7.02284 0
M  V30 4753 C 819.565 -0.996264 5.77469 0
M  V30 4754 N 819.615 -0.0501916 4.62973 0
M  V30 4755 H 816.776 0.374722 8.67691 0
M  V30 4756 H 816.506 0.443485 6.90277 0
M  V30 4757 H 817.373 -1.75537 7.96793 0
M  V30 4758 P 821.335 -2.75334 8.47391 0
M  V30 4759 O 821.555 -3.84128 9.44797 0
M  V30 4760 O 822.125 -1.51947 8.68712 0
M  V30 4761 O 821.585 -3.29363 6.99321 0
M  V30 4762 C 820.645 -4.24011 6.4274 0
M  V30 4763 C 821.375 -5.20775 5.52155 0
M  V30 4764 O 821.585 -4.56534 4.22446 0
M  V30 4765 C 822.775 -5.62629 5.96531 0
M  V30 4766 O 823.165 -6.87667 5.41053 0
M  V30 4767 C 823.655 -4.52537 5.39283 0
M  V30 4768 C 822.945 -4.20027 4.08623 0
M  V30 4769 N 822.995 -2.76189 3.71603 0
M  V30 4770 H 820.156 -4.797 7.24003 0
M  V30 4771 H 819.886 -3.69856 5.84513 0
M  V30 4772 H 820.753 -6.10356 5.41441 0
M  V30 4773 P 824.715 -7.20834 5.23717 0
M  V30 4774 O 824.935 -8.66189 5.38625 0
M  V30 4775 O 825.505 -6.33615 6.1356 0
M  V30 4776 O 824.965 -6.7751 3.72168 0
M  V30 4777 C 824.025 -7.20732 2.70725 0
M  V30 4778 C 824.755 -7.45864 1.40599 0
M  V30 4779 O 824.965 -6.17651 0.734225 0
M  V30 4780 C 826.155 -8.05808 1.51899 0
M  V30 4781 O 826.545 -8.74358 0.335205 0
M  V30 4782 C 827.035 -6.83093 1.70294 0
M  V30 4783 C 826.325 -5.79992 0.836974 0
M  V30 4784 N 826.375 -4.41769 1.38263 0
M  V30 4785 C 826.525 -3.38591 0.481702 0
M  V30 4786 O 826.615 -3.56839 -0.718452 0
M  V30 4787 N 826.565 -2.1206 1.03569 0
M  V30 4788 C 826.475 -1.80696 2.36966 0
M  V30 4789 O 826.525 -0.630473 2.74862 0
M  V30 4790 C 826.325 -2.94845 3.23898 0
M  V30 4791 C 826.215 -2.65253 4.70362 0
M  V30 4792 C 826.275 -4.19803 2.73435 0
M  V30 4793 H 823.535 -8.13644 3.0377 0
M  V30 4794 H 823.266 -6.42695 2.55448 0
M  V30 4795 H 824.133 -8.12039 0.792769 0
M  V30 4796 H 826.788 -5.79978 -0.160587 0
M  V30 4797 H 827.067 -6.51379 2.75643 0
M  V30 4798 H 828.059 -7.01734 1.34462 0
M  V30 4799 H 826.225 -8.73674 2.38337 0
M  V30 4800 H 826.154 -5.04492 3.4095 0
M  V30 4801 H 827.184 -2.83924 5.1913 0
M  V30 4802 H 825.447 -3.29824 5.15163 0
M  V30 4803 H 825.935 -1.59723 4.84449 0
M  V30 4804 H 826.671 -1.35644 0.399345 0
M  V30 4805 P 828.095 -8.91 -5.92927e-12 0
M  V30 4806 O 828.315 -10.1726 -0.733694 0
M  V30 4807 O 828.885 -8.73148 1.23936 0
M  V30 4808 O 828.345 -7.66872 -0.971405 0
M  V30 4809 C 827.405 -7.42309 -2.04641 0
M  V30 4810 C 828.135 -6.86059 -3.24661 0
M  V30 4811 O 828.345 -5.42847 -3.03646 0
M  V30 4812 C 829.535 -7.41196 -3.50753 0
M  V30 4813 O 829.925 -7.27073 -4.86816 0
M  V30 4814 C 830.415 -6.5273 -2.63741 0
M  V30 4815 C 829.705 -5.1842 -2.73198 0
M  V30 4816 N 829.755 -4.38762 -1.4784 0
M  V30 4817 H 826.916 -8.36803 -2.32493 0
M  V30 4818 H 826.646 -6.70197 -1.71129 0
M  V30 4819 H 827.513 -7.03551 -4.13168 0
M  V30 4820 P 831.475 -7.20834 -5.23717 0
M  V30 4821 O 831.695 -7.7993 -6.57351 0
M  V30 4822 O 832.265 -7.79328 -4.13004 0
M  V30 4823 O 831.725 -5.63315 -5.29344 0
M  V30 4824 C 830.785 -4.80193 -6.01798 0
M  V30 4825 C 831.515 -3.64202 -6.65911 0
M  V30 4826 O 831.725 -2.60694 -5.64732 0
M  V30 4827 C 832.915 -3.93473 -7.1943 0
M  V30 4828 O 833.305 -3.02071 -8.21205 0
M  V30 4829 C 833.795 -3.73047 -5.97036 0
M  V30 4830 C 833.085 -2.58828 -5.25741 0
M  V30 4831 N 833.135 -2.6801 -3.77422 0
M  V30 4832 C 833.285 -1.50443 -3.07133 0
M  V30 4833 O 833.375 -0.419406 -3.61576 0
M  V30 4834 N 833.325 -1.6403 -1.69677 0
M  V30 4835 C 833.235 -2.81206 -0.986255 0
M  V30 4836 O 833.285 -2.80892 0.249754 0
M  V30 4837 C 833.085 -3.99158 -1.80325 0
M  V30 4838 C 832.975 -5.29309 -1.06921 0
M  V30 4839 C 833.035 -3.89779 -3.1476 0
M  V30 4840 H 830.295 -5.40332 -6.79951 0
M  V30 4841 H 830.026 -4.41549 -5.32301 0
M  V30 4842 H 830.893 -3.26331 -7.47797 0
M  V30 4843 H 833.548 -1.6395 -5.56554 0
M  V30 4844 H 833.827 -4.63439 -5.3432 0
M  V30 4845 H 834.819 -3.44728 -6.25838 0
M  V30 4846 H 832.985 -4.96652 -7.57263 0
M  V30 4847 H 832.914 -4.80159 -3.74441 0
M  V30 4848 H 833.944 -5.81459 -1.09608 0
M  V30 4849 H 832.207 -5.9187 -1.54487 0
M  V30 4850 H 832.695 -5.10095 -0.0220288 0
M  V30 4851 H 833.431 -0.798962 -1.16664 0
M  V30 4852 P 834.855 -2.75334 -8.47391 0
M  V30 4853 O 835.075 -2.44619 -9.90336 0
M  V30 4854 O 835.645 -3.87776 -7.92294 0
M  V30 4855 O 835.105 -1.4459 -7.59357 0
M  V30 4856 C 834.165 -0.347653 -7.69315 0
M  V30 4857 C 834.895 0.96767 -7.52806 0
M  V30 4858 O 835.105 1.21055 -6.10208 0
M  V30 4859 C 836.295 1.04557 -8.13408 0
M  V30 4860 O 836.685 2.38311 -8.41922 0
M  V30 4861 C 837.175 0.491279 -7.02284 0
M  V30 4862 C 836.465 0.996264 -5.77469 0
M  V30 4863 N 836.515 0.0501916 -4.62973 0
M  V30 4864 H 833.677 -0.374765 -8.67791 0
M  V30 4865 H 833.405 -0.443613 -6.90476 0
M  V30 4866 H 834.273 1.75559 -7.96891 0
M  V30 4867 H 836.928 1.94563 -5.46818 0
M  V30 4868 H 837.208 -0.608651 -7.04676 0
M  V30 4869 H 838.199 0.889796 -7.09039 0
M  V30 4870 H 836.365 0.433128 -9.04664 0
M  V30 4871 P 838.235 2.75334 -8.47391 0
M  V30 4872 O 838.455 3.84128 -9.44797 0
M  V30 4873 O 839.025 1.51947 -8.68712 0
M  V30 4874 O 838.485 3.29363 -6.99321 0
M  V30 4875 C 837.545 4.24011 -6.4274 0
M  V30 4876 C 838.275 5.20775 -5.52155 0
M  V30 4877 O 838.485 4.56534 -4.22446 0
M  V30 4878 C 839.675 5.62629 -5.96531 0
M  V30 4879 O 840.065 6.87667 -5.41053 0
M  V30 4880 C 840.555 4.52537 -5.39283 0
M  V30 4881 C 839.845 4.20027 -4.08623 0
M  V30 4882 N 839.895 2.76189 -3.71603 0
M  V30 4883 H 837.056 4.797 -7.24003 0
M  V30 4884 H 836.786 3.69856 -5.84513 0
M  V30 4885 H 837.653 6.10356 -5.41441 0
M  V30 4886 P 841.615 7.20834 -5.23717 0
M  V30 4887 O 841.835 8.66274 -5.38678 0
M  V30 4888 O 842.405 6.33687 -6.13629 0
M  V30 4889 O 841.865 6.7751 -3.72168 0
M  V30 4890 C 840.925 7.20919 -2.70795 0
M  V30 4891 C 841.655 7.45864 -1.40599 0
M  V30 4892 O 841.865 6.17751 -0.734343 0
M  V30 4893 C 843.055 8.05906 -1.51917 0
M  V30 4894 O 843.445 8.74358 -0.335205 0
M  V30 4895 C 843.935 6.83093 -1.70294 0
M  V30 4896 C 843.225 5.79992 -0.836974 0
M  V30 4897 N 843.275 4.41864 -1.38293 0
M  V30 4898 C 843.195 4.02089 -2.69407 0
M  V30 4899 N 843.265 2.73403 -2.85089 0
M  V30 4900 C 843.415 2.25086 -1.5642 0
M  V30 4901 C 843.545 0.942887 -1.04836 0
M  V30 4902 N 843.555 -0.150999 -1.80369 0
M  V30 4903 N 843.665 0.812565 0.28167 0
M  V30 4904 C 843.655 1.90572 1.03784 0
M  V30 4905 N 843.535 3.167 0.683905 0
M  V30 4906 C 843.415 3.26538 -0.652815 0
M  V30 4907 H 840.437 8.13738 -3.03804 0
M  V30 4908 H 840.165 6.42974 -2.55559 0
M  V30 4909 H 841.033 8.12139 -0.792866 0
M  V30 4910 H 843.688 5.80178 0.160643 0
M  V30 4911 H 843.968 6.51379 -2.75643 0
M  V30 4912 H 844.959 7.01832 -1.3448 0
M  V30 4913 H 843.125 8.73771 -2.38364 0
M  V30 4914 H 843.084 4.7189 -3.52311 0
M  V30 4915 H 843.465 -0.0721434 -2.82608 0
M  V30 4916 H 843.654 -1.0785 -1.36544 0
M  V30 4917 H 843.762 1.73207 2.10241 0
M  V30 4918 P 844.995 8.91 6.08645e-12 0
M  V30 4919 O 845.215 10.1746 0.733838 0
M  V30 4920 O 845.785 8.73346 -1.23964 0
M  V30 4921 O 845.245 7.66872 0.971405 0
M  V30 4922 C 844.305 7.42405 2.04668 0
M  V30 4923 C 845.035 6.86059 3.24661 0
M  V30 4924 O 845.245 5.42934 3.03695 0
M  V30 4925 C 846.435 7.41287 3.50796 0
M  V30 4926 O 846.825 7.27073 4.86816 0
M  V30 4927 C 847.315 6.5273 2.63741 0
M  V30 4928 C 846.605 5.1842 2.73198 0
M  V30 4929 N 846.655 4.38762 1.4784 0
M  V30 4930 C 846.575 4.83651 0.183876 0
M  V30 4931 N 846.645 3.88759 -0.699393 0
M  V30 4932 C 846.795 2.7404 0.0575568 0
M  V30 4933 C 846.925 1.37902 -0.293928 0
M  V30 4934 N 846.935 0.938021 -1.54797 0
M  V30 4935 N 847.045 0.491817 0.70549 0
M  V30 4936 C 847.035 0.931735 1.95979 0
M  V30 4937 N 846.915 2.16017 2.41481 0
M  V30 4938 C 846.795 3.02547 1.39121 0
M  V30 4939 H 843.817 8.36899 2.3252 0
M  V30 4940 H 843.545 6.70391 1.71179 0
M  V30 4941 H 844.413 7.03638 4.13219 0
M  V30 4942 H 847.068 4.59931 3.54016 0
M  V30 4943 H 847.348 6.88995 1.59871 0
M  V30 4944 H 848.339 6.4684 3.0373 0
M  V30 4945 H 846.505 8.47002 3.20749 0
M  V30 4946 H 846.464 5.8885 -0.0765548 0
M  V30 4947 H 846.845 1.60276 -2.32875 0
M  V30 4948 H 847.034 -0.0699355 -1.73859 0
M  V30 4949 H 847.142 0.165507 2.71897 0
M  V30 4950 P 848.375 7.20834 5.23717 0
M  V30 4951 O 848.595 7.80006 6.57415 0
M  V30 4952 O 849.165 7.79416 4.13051 0
M  V30 4953 O 848.625 5.63315 5.29344 0
M  V30 4954 C 847.685 4.80318 6.01954 0
M  V30 4955 C 848.415 3.64202 6.65911 0
M  V30 4956 O 848.625 2.60736 5.64823 0
M  V30 4957 C 849.815 3.93521 7.19518 0
M  V30 4958 O 850.205 3.02071 8.21205 0
M  V30 4959 C 850.695 3.73047 5.97036 0
M  V30 4960 C 849.985 2.58828 5.25741 0
M  V30 4961 N 850.035 2.68068 3.77503 0
M  V30 4962 H 847.197 5.40394 6.8003 0
M  V30 4963 H 846.925 4.41741 5.32532 0
M  V30 4964 H 847.793 3.26371 7.47889 0
M  V30 4965 H 850.448 1.64007 5.56746 0
M  V30 4966 H 850.728 4.63439 5.3432 0
M  V30 4967 H 851.719 3.44776 6.25925 0
M  V30 4968 H 849.885 4.96707 7.57347 0
M  V30 4969 P 851.755 2.75334 8.47391 0
M  V30 4970 O 851.975 2.44595 9.90239 0
M  V30 4971 O 852.545 3.87732 7.92204 0
M  V30 4972 O 852.005 1.4459 7.59357 0
M  V30 4973 C 851.065 0.347563 7.69115 0
M  V30 4974 C 851.795 -0.96767 7.52806 0
M  V30 4975 O 852.005 -1.21036 6.1011 0
M  V30 4976 C 853.195 -1.04544 8.13308 0
M  V30 4977 O 853.585 -2.38311 8.41922 0
M  V30 4978 C 854.075 -0.491279 7.02284 0
M  V30 4979 C 853.365 -0.996264 5.77469 0
M  V30 4980 N 853.415 -0.0501808 4.62873 0
M  V30 4981 C 853.565 -0.588177 3.36904 0
M  V30 4982 O 853.655 -1.78598 3.17173 0
M  V30 4983 N 853.605 0.329694 2.33686 0
M  V30 4984 C 853.515 1.6953 2.45079 0
M  V30 4985 O 853.565 2.41926 1.44899 0
M  V30 4986 C 853.365 2.16933 3.80505 0
M  V30 4987 C 853.255 3.65373 3.97621 0
M  V30 4988 C 853.315 1.30326 4.83752 0
M  V30 4989 H 850.575 0.374722 8.67691 0
M  V30 4990 H 850.306 0.443421 6.90177 0
M  V30 4991 H 851.173 -1.75537 7.96793 0
M  V30 4992 H 853.828 -1.94496 5.46629 0
M  V30 4993 H 854.107 0.608651 7.04676 0
M  V30 4994 H 855.099 -0.889672 7.08939 0
M  V30 4995 H 853.265 -0.43308 9.04564 0
M  V30 4996 H 853.194 1.68366 5.8516 0
M  V30 4997 H 854.224 4.05985 4.30448 0
M  V30 4998 H 852.487 3.88028 4.72875 0
M  V30 4999 H 852.975 4.11381 3.01609 0
M  V30 5000 H 853.711 -0.0393617 1.41345 0
M  V30 5001 P 855.135 -2.75334 8.47391 0
M  V30 5002 O 855.355 -3.84128 9.44797 0
M  V30 5003 O 855.925 -1.51947 8.68712 0
M  V30 5004 O 855.385 -3.29363 6.99321 0
M  V30 5005 C 854.445 -4.24011 6.4274 0
M  V30 5006 C 855.175 -5.20775 5.52155 0
M  V30 5007 O 855.385 -4.56534 4.22446 0
M  V30 5008 C 856.575 -5.62629 5.96531 0
M  V30 5009 O 856.965 -6.87667 5.41053 0
M  V30 5010 C 857.455 -4.52537 5.39283 0
M  V30 5011 C 856.745 -4.20027 4.08623 0
M  V30 5012 N 856.795 -2.76189 3.71603 0
M  V30 5013 H 853.956 -4.797 7.24003 0
M  V30 5014 H 853.686 -3.69856 5.84513 0
M  V30 5015 H 854.553 -6.10356 5.41441 0
M  V30 5016 P 858.515 -7.20834 5.23717 0
M  V30 5017 O 858.735 -8.66104 5.38572 0
M  V30 5018 O 859.305 -6.33544 6.1349 0
M  V30 5019 O 858.765 -6.7751 3.72168 0
M  V30 5020 C 857.825 -7.20825 2.7076 0
M  V30 5021 C 858.555 -7.45864 1.40599 0
M  V30 5022 O 858.765 -6.17651 0.734225 0
M  V30 5023 C 859.955 -8.05808 1.51899 0
M  V30 5024 O 860.345 -8.74358 0.335205 0
M  V30 5025 C 860.835 -6.83093 1.70294 0
M  V30 5026 C 860.125 -5.79992 0.836974 0
M  V30 5027 N 860.175 -4.41864 1.38293 0
M  V30 5028 H 857.336 -8.13644 3.0377 0
M  V30 5029 H 857.066 -6.42788 2.55485 0
M  V30 5030 H 857.933 -8.12039 0.792769 0
M  V30 5031 P 861.895 -8.91 -6.24363e-12 0
M  V30 5032 O 862.115 -10.1726 -0.733694 0
M  V30 5033 O 862.685 -8.73148 1.23936 0
M  V30 5034 O 862.145 -7.66872 -0.971405 0
M  V30 5035 C 861.205 -7.42309 -2.04641 0
M  V30 5036 C 861.935 -6.86059 -3.24661 0
M  V30 5037 O 862.145 -5.42847 -3.03646 0
M  V30 5038 C 863.335 -7.41196 -3.50753 0
M  V30 5039 O 863.725 -7.27073 -4.86816 0
M  V30 5040 C 864.215 -6.5273 -2.63741 0
M  V30 5041 C 863.505 -5.1842 -2.73198 0
M  V30 5042 N 863.555 -4.38762 -1.4784 0
M  V30 5043 H 860.716 -8.36803 -2.32493 0
M  V30 5044 H 860.446 -6.70197 -1.71129 0
M  V30 5045 H 861.313 -7.03551 -4.13168 0
M  V30 5046 P 865.275 -7.20834 -5.23717 0
M  V30 5047 O 865.495 -7.79853 -6.57286 0
M  V30 5048 O 866.065 -7.79239 -4.12957 0
M  V30 5049 O 865.525 -5.63315 -5.29344 0
M  V30 5050 C 864.585 -4.80255 -6.01876 0
M  V30 5051 C 865.315 -3.64202 -6.65911 0
M  V30 5052 O 865.525 -2.60694 -5.64732 0
M  V30 5053 C 866.715 -3.93473 -7.1943 0
M  V30 5054 O 867.105 -3.02071 -8.21205 0
M  V30 5055 C 867.595 -3.73047 -5.97036 0
M  V30 5056 C 866.885 -2.58828 -5.25741 0
M  V30 5057 N 866.935 -2.68068 -3.77503 0
M  V30 5058 H 864.096 -5.40332 -6.79951 0
M  V30 5059 H 863.826 -4.41613 -5.32378 0
M  V30 5060 H 864.693 -3.26331 -7.47797 0
M  V30 5061 P 868.655 -2.75334 -8.47391 0
M  V30 5062 O 868.875 -2.44571 -9.90142 0
M  V30 5063 O 869.445 -3.87688 -7.92115 0
M  V30 5064 O 868.905 -1.4459 -7.59357 0
M  V30 5065 C 867.965 -0.347608 -7.69215 0
M  V30 5066 C 868.695 0.96767 -7.52806 0
M  V30 5067 O 868.905 1.21036 -6.1011 0
M  V30 5068 C 870.095 1.04544 -8.13308 0
M  V30 5069 O 870.485 2.38311 -8.41922 0
M  V30 5070 C 870.975 0.491279 -7.02284 0
M  V30 5071 C 870.265 0.996264 -5.77469 0
M  V30 5072 N 870.315 0.0501916 -4.62973 0
M  V30 5073 H 867.476 -0.374722 -8.67691 0
M  V30 5074 H 867.206 -0.443485 -6.90277 0
M  V30 5075 H 868.073 1.75537 -7.96793 0
M  V30 5076 P 872.035 2.75334 -8.47391 0
M  V30 5077 O 872.255 3.84128 -9.44797 0
M  V30 5078 O 872.825 1.51947 -8.68712 0
M  V30 5079 O 872.285 3.29363 -6.99321 0
M  V30 5080 C 871.345 4.24011 -6.4274 0
M  V30 5081 C 872.075 5.20775 -5.52155 0
M  V30 5082 O 872.285 4.56534 -4.22446 0
M  V30 5083 C 873.475 5.62629 -5.96531 0
M  V30 5084 O 873.865 6.87667 -5.41053 0
M  V30 5085 C 874.355 4.52537 -5.39283 0
M  V30 5086 C 873.645 4.20027 -4.08623 0
M  V30 5087 N 873.695 2.76189 -3.71603 0
M  V30 5088 H 870.856 4.797 -7.24003 0
M  V30 5089 H 870.586 3.69856 -5.84513 0
M  V30 5090 H 871.453 6.10356 -5.41441 0
M  V30 5091 P 875.415 7.20834 -5.23717 0
M  V30 5092 O 875.635 8.66104 -5.38572 0
M  V30 5093 O 876.205 6.33544 -6.1349 0
M  V30 5094 O 875.665 6.7751 -3.72168 0
M  V30 5095 C 874.725 7.20825 -2.7076 0
M  V30 5096 C 875.455 7.45864 -1.40599 0
M  V30 5097 O 875.665 6.17651 -0.734225 0
M  V30 5098 C 876.855 8.05808 -1.51899 0
M  V30 5099 O 877.245 8.74358 -0.335205 0
M  V30 5100 C 877.735 6.83093 -1.70294 0
M  V30 5101 C 877.025 5.79992 -0.836974 0
M  V30 5102 N 877.075 4.41864 -1.38293 0
M  V30 5103 H 874.236 8.13644 -3.0377 0
M  V30 5104 H 873.966 6.42788 -2.55485 0
M  V30 5105 H 874.833 8.12039 -0.792769 0
M  V30 5106 P 878.795 8.91 6.40081e-12 0
M  V30 5107 O 879.015 10.1726 0.733694 0
M  V30 5108 O 879.585 8.73148 -1.23936 0
M  V30 5109 O 879.045 7.66872 0.971405 0
M  V30 5110 C 878.105 7.42309 2.04641 0
M  V30 5111 C 878.835 6.86059 3.24661 0
M  V30 5112 O 879.045 5.42847 3.03646 0
M  V30 5113 C 880.235 7.41196 3.50753 0
M  V30 5114 O 880.625 7.27073 4.86816 0
M  V30 5115 C 881.115 6.5273 2.63741 0
M  V30 5116 C 880.405 5.1842 2.73198 0
M  V30 5117 N 880.455 4.38762 1.4784 0
M  V30 5118 H 877.616 8.36803 2.32493 0
M  V30 5119 H 877.346 6.70197 1.71129 0
M  V30 5120 H 878.213 7.03551 4.13168 0
M  V30 5121 P 882.175 7.20834 5.23717 0
M  V30 5122 O 882.395 7.7993 6.57351 0
M  V30 5123 O 882.965 7.79328 4.13004 0
M  V30 5124 O 882.425 5.63315 5.29344 0
M  V30 5125 C 881.485 4.80193 6.01798 0
M  V30 5126 C 882.215 3.64202 6.65911 0
M  V30 5127 O 882.425 2.60694 5.64732 0
M  V30 5128 C 883.615 3.93473 7.1943 0
M  V30 5129 O 884.005 3.02071 8.21205 0
M  V30 5130 C 884.495 3.73047 5.97036 0
M  V30 5131 C 883.785 2.58828 5.25741 0
M  V30 5132 N 883.835 2.6801 3.77422 0
M  V30 5133 C 883.985 1.50443 3.07133 0
M  V30 5134 O 884.075 0.419406 3.61576 0
M  V30 5135 N 884.025 1.6403 1.69677 0
M  V30 5136 C 883.935 2.81206 0.986255 0
M  V30 5137 C 883.785 3.99158 1.80325 0
M  V30 5138 C 883.735 3.89779 3.1476 0
M  V30 5139 H 880.995 5.40332 6.79951 0
M  V30 5140 H 880.726 4.41549 5.32301 0
M  V30 5141 H 881.593 3.26331 7.47797 0
M  V30 5142 H 884.248 1.6395 5.56554 0
M  V30 5143 H 884.527 4.63439 5.3432 0
M  V30 5144 H 885.519 3.44728 6.25838 0
M  V30 5145 H 883.685 4.96652 7.57263 0
M  V30 5146 H 883.614 4.80159 3.74441 0
M  V30 5147 P 885.555 2.75334 8.47391 0
M  V30 5148 O 885.775 2.44571 9.90142 0
M  V30 5149 O 886.345 3.87688 7.92115 0
M  V30 5150 O 885.805 1.4459 7.59357 0
M  V30 5151 C 884.865 0.347608 7.69215 0
M  V30 5152 C 885.595 -0.96767 7.52806 0
M  V30 5153 O 885.805 -1.21036 6.1011 0
M  V30 5154 C 886.995 -1.04544 8.13308 0
M  V30 5155 O 887.385 -2.38311 8.41922 0
M  V30 5156 C 887.875 -0.491279 7.02284 0
M  V30 5157 C 887.165 -0.996264 5.77469 0
M  V30 5158 N 887.215 -0.0501916 4.62973 0
M  V30 5159 H 884.376 0.374722 8.67691 0
M  V30 5160 H 884.106 0.443485 6.90277 0
M  V30 5161 H 884.973 -1.75537 7.96793 0
M  V30 5162 P 888.935 -2.75334 8.47391 0
M  V30 5163 O 889.155 -3.84204 9.44982 0
M  V30 5164 O 889.725 -1.51982 8.68909 0
M  V30 5165 O 889.185 -3.29363 6.99321 0
M  V30 5166 C 888.245 -4.24066 6.42823 0
M  V30 5167 C 888.975 -5.20775 5.52155 0
M  V30 5168 O 889.185 -4.56607 4.22514 0
M  V30 5169 C 890.375 -5.62697 5.96604 0
M  V30 5170 O 890.765 -6.87667 5.41053 0
M  V30 5171 C 891.255 -4.52537 5.39283 0
M  V30 5172 C 890.545 -4.20027 4.08623 0
M  V30 5173 N 890.595 -2.76189 3.71603 0
M  V30 5174 H 887.757 -4.79756 7.24086 0
M  V30 5175 H 887.485 -3.69963 5.84682 0
M  V30 5176 H 888.353 -6.10431 5.41508 0
M  V30 5177 H 891.008 -4.78816 3.28024 0
M  V30 5178 H 891.288 -3.64957 6.05871 0
M  V30 5179 H 892.279 -4.88748 5.21323 0
M  V30 5180 H 890.445 -5.66789 7.0643 0
M  V30 5181 P 892.315 -7.20834 5.23717 0
M  V30 5182 O 892.535 -8.66104 5.38572 0
M  V30 5183 O 893.105 -6.33544 6.1349 0
M  V30 5184 O 892.565 -6.7751 3.72168 0
M  V30 5185 C 891.625 -7.20825 2.7076 0
M  V30 5186 C 892.355 -7.45864 1.40599 0
M  V30 5187 O 892.565 -6.17651 0.734225 0
M  V30 5188 C 893.755 -8.05808 1.51899 0
M  V30 5189 O 894.145 -8.74358 0.335205 0
M  V30 5190 C 894.635 -6.83093 1.70294 0
M  V30 5191 C 893.925 -5.79992 0.836974 0
M  V30 5192 N 893.975 -4.41864 1.38293 0
M  V30 5193 H 891.136 -8.13644 3.0377 0
M  V30 5194 H 890.866 -6.42788 2.55485 0
M  V30 5195 H 891.733 -8.12039 0.792769 0
M  V30 5196 P 895.695 -8.91 -6.558e-12 0
M  V30 5197 O 895.915 -10.1726 -0.733694 0
M  V30 5198 O 896.485 -8.73148 1.23936 0
M  V30 5199 O 895.945 -7.66872 -0.971405 0
M  V30 5200 C 895.005 -7.42309 -2.04641 0
M  V30 5201 C 895.735 -6.86059 -3.24661 0
M  V30 5202 O 895.945 -5.42847 -3.03646 0
M  V30 5203 C 897.135 -7.41196 -3.50753 0
M  V30 5204 O 897.525 -7.27073 -4.86816 0
M  V30 5205 C 898.015 -6.5273 -2.63741 0
M  V30 5206 C 897.305 -5.1842 -2.73198 0
M  V30 5207 N 897.355 -4.38762 -1.4784 0
M  V30 5208 H 894.516 -8.36803 -2.32493 0
M  V30 5209 H 894.246 -6.70197 -1.71129 0
M  V30 5210 H 895.113 -7.03551 -4.13168 0
M  V30 5211 P 899.075 -7.20834 -5.23717 0
M  V30 5212 O 899.295 -7.79853 -6.57286 0
M  V30 5213 O 899.865 -7.79239 -4.12957 0
M  V30 5214 O 899.325 -5.63315 -5.29344 0
M  V30 5215 C 898.385 -4.80255 -6.01876 0
M  V30 5216 C 899.115 -3.64202 -6.65911 0
M  V30 5217 O 899.325 -2.60694 -5.64732 0
M  V30 5218 C 900.515 -3.93473 -7.1943 0
M  V30 5219 O 900.905 -3.02071 -8.21205 0
M  V30 5220 C 901.395 -3.73047 -5.97036 0
M  V30 5221 C 900.685 -2.58828 -5.25741 0
M  V30 5222 N 900.735 -2.68068 -3.77503 0
M  V30 5223 H 897.896 -5.40332 -6.79951 0
M  V30 5224 H 897.626 -4.41613 -5.32378 0
M  V30 5225 H 898.493 -3.26331 -7.47797 0
M  V30 5226 P 902.455 -2.75334 -8.47391 0
M  V30 5227 O 902.675 -2.44595 -9.90239 0
M  V30 5228 O 903.245 -3.87732 -7.92204 0
M  V30 5229 O 902.705 -1.4459 -7.59357 0
M  V30 5230 C 901.765 -0.347608 -7.69215 0
M  V30 5231 C 902.495 0.96767 -7.52806 0
M  V30 5232 O 902.705 1.21036 -6.1011 0
M  V30 5233 C 903.895 1.04544 -8.13308 0
M  V30 5234 O 904.285 2.38311 -8.41922 0
M  V30 5235 C 904.775 0.491279 -7.02284 0
M  V30 5236 C 904.065 0.996264 -5.77469 0
M  V30 5237 N 904.115 0.0501808 -4.62873 0
M  V30 5238 C 904.265 0.578037 -3.3505 0
M  V30 5239 O 904.355 1.8073 -3.21711 0
M  V30 5240 N 904.315 -0.468541 -2.263 0
M  V30 5241 C 904.215 -1.59186 -2.47176 0
M  V30 5242 N 904.265 -2.37626 -1.40392 0
M  V30 5243 C 904.065 -2.16203 -3.77467 0
M  V30 5244 C 904.015 -1.29324 -4.8195 0
M  V30 5245 H 901.275 -0.374679 -8.67591 0
M  V30 5246 H 901.006 -0.443421 -6.90177 0
M  V30 5247 H 901.873 1.75559 -7.96891 0
M  V30 5248 H 904.528 1.94529 -5.46723 0
M  V30 5249 H 904.807 -0.608651 -7.04676 0
M  V30 5250 H 905.799 0.889672 -7.08939 0
M  V30 5251 H 903.965 0.43308 -9.04564 0
M  V30 5252 H 903.893 -1.67758 -5.83046 0
M  V30 5253 H 903.995 -3.23869 -3.92281 0
M  V30 5254 H 904.383 -1.96317 -0.467202 0
M  V30 5255 H 904.186 -3.39693 -1.51142 0
M  V30 5256 P 905.835 2.75334 -8.47391 0
M  V30 5257 O 906.055 3.84128 -9.44797 0
M  V30 5258 O 906.625 1.51947 -8.68712 0
M  V30 5259 O 906.085 3.29363 -6.99321 0
M  V30 5260 C 905.145 4.24011 -6.4274 0
M  V30 5261 C 905.875 5.20775 -5.52155 0
M  V30 5262 O 906.085 4.56534 -4.22446 0
M  V30 5263 C 907.275 5.62629 -5.96531 0
M  V30 5264 O 907.665 6.87667 -5.41053 0
M  V30 5265 C 908.155 4.52537 -5.39283 0
M  V30 5266 C 907.445 4.20027 -4.08623 0
M  V30 5267 N 907.495 2.76189 -3.71603 0
M  V30 5268 H 904.656 4.797 -7.24003 0
M  V30 5269 H 904.386 3.69856 -5.84513 0
M  V30 5270 H 905.253 6.10356 -5.41441 0
M  V30 5271 P 909.215 7.20834 -5.23717 0
M  V30 5272 O 909.435 8.66104 -5.38572 0
M  V30 5273 O 910.005 6.33544 -6.1349 0
M  V30 5274 O 909.465 6.7751 -3.72168 0
M  V30 5275 C 908.525 7.20825 -2.7076 0
M  V30 5276 C 909.255 7.45864 -1.40599 0
M  V30 5277 O 909.465 6.17651 -0.734225 0
M  V30 5278 C 910.655 8.05808 -1.51899 0
M  V30 5279 O 911.045 8.74358 -0.335205 0
M  V30 5280 C 911.535 6.83093 -1.70294 0
M  V30 5281 C 910.825 5.79992 -0.836974 0
M  V30 5282 N 910.875 4.41864 -1.38293 0
M  V30 5283 H 908.036 8.13644 -3.0377 0
M  V30 5284 H 907.766 6.42788 -2.55485 0
M  V30 5285 H 908.633 8.12039 -0.792769 0
M  V30 5286 P 912.595 8.91 6.71518e-12 0
M  V30 5287 O 912.815 10.1726 0.733694 0
M  V30 5288 O 913.385 8.73148 -1.23936 0
M  V30 5289 O 912.845 7.66872 0.971405 0
M  V30 5290 C 911.905 7.42309 2.04641 0
M  V30 5291 C 912.635 6.86059 3.24661 0
M  V30 5292 O 912.845 5.42847 3.03646 0
M  V30 5293 C 914.035 7.41196 3.50753 0
M  V30 5294 O 914.425 7.27073 4.86816 0
M  V30 5295 C 914.915 6.5273 2.63741 0
M  V30 5296 C 914.205 5.1842 2.73198 0
M  V30 5297 N 914.255 4.38762 1.4784 0
M  V30 5298 H 911.416 8.36803 2.32493 0
M  V30 5299 H 911.146 6.70197 1.71129 0
M  V30 5300 H 912.013 7.03551 4.13168 0
M  V30 5301 P 915.975 7.20834 5.23717 0
M  V30 5302 O 916.195 7.79853 6.57286 0
M  V30 5303 O 916.765 7.79239 4.12957 0
M  V30 5304 O 916.225 5.63315 5.29344 0
M  V30 5305 C 915.285 4.80255 6.01876 0
M  V30 5306 C 916.015 3.64202 6.65911 0
M  V30 5307 O 916.225 2.60694 5.64732 0
M  V30 5308 C 917.415 3.93473 7.1943 0
M  V30 5309 O 917.805 3.02071 8.21205 0
M  V30 5310 C 918.295 3.73047 5.97036 0
M  V30 5311 C 917.585 2.58828 5.25741 0
M  V30 5312 N 917.635 2.68068 3.77503 0
M  V30 5313 H 914.796 5.40332 6.79951 0
M  V30 5314 H 914.526 4.41613 5.32378 0
M  V30 5315 H 915.393 3.26331 7.47797 0
M  V30 5316 P 919.355 2.75334 8.47391 0
M  V30 5317 O 919.575 2.44571 9.90142 0
M  V30 5318 O 920.145 3.87688 7.92115 0
M  V30 5319 O 919.605 1.4459 7.59357 0
M  V30 5320 C 918.665 0.347608 7.69215 0
M  V30 5321 C 919.395 -0.96767 7.52806 0
M  V30 5322 O 919.605 -1.21036 6.1011 0
M  V30 5323 C 920.795 -1.04544 8.13308 0
M  V30 5324 O 921.185 -2.38311 8.41922 0
M  V30 5325 C 921.675 -0.491279 7.02284 0
M  V30 5326 C 920.965 -0.996264 5.77469 0
M  V30 5327 N 921.015 -0.0501916 4.62973 0
M  V30 5328 C 920.935 1.32786 4.63244 0
M  V30 5329 N 921.015 1.86957 3.44545 0
M  V30 5330 C 921.155 0.780241 2.58481 0
M  V30 5331 C 921.285 0.738536 1.17757 0
M  V30 5332 O 921.305 1.66794 0.372349 0
M  V30 5333 N 921.405 -0.58337 0.711393 0
M  V30 5334 C 921.405 -1.70816 1.51017 0
M  V30 5335 N 921.535 -2.87826 0.880757 0
M  V30 5336 N 921.275 -1.67126 2.8339 0
M  V30 5337 C 921.155 -0.401421 3.30572 0
M  V30 5338 H 918.176 0.374722 8.67691 0
M  V30 5339 H 917.906 0.443485 6.90277 0
M  V30 5340 H 918.773 -1.75537 7.96793 0
M  V30 5341 H 921.428 -1.95076 5.46529 0
M  V30 5342 H 921.707 0.608565 7.04577 0
M  V30 5343 H 922.699 -0.889672 7.08939 0
M  V30 5344 H 920.865 -0.43308 9.04564 0
M  V30 5345 H 920.816 1.91249 5.54442 0
M  V30 5346 H 921.498 -0.718054 -0.275244 0
M  V30 5347 H 921.535 -3.75721 1.41832 0
M  V30 5348 H 921.636 -2.90436 -0.145468 0
M  V30 5349 P 922.735 -2.75334 8.47391 0
M  V30 5350 O 922.955 -3.84128 9.44797 0
M  V30 5351 O 923.525 -1.51947 8.68712 0
M  V30 5352 O 922.985 -3.29363 6.99321 0
M  V30 5353 C 922.045 -4.24011 6.4274 0
M  V30 5354 C 922.775 -5.20775 5.52155 0
M  V30 5355 O 922.985 -4.56534 4.22446 0
M  V30 5356 C 924.175 -5.62629 5.96531 0
M  V30 5357 O 924.565 -6.87667 5.41053 0
M  V30 5358 C 925.055 -4.52537 5.39283 0
M  V30 5359 C 924.345 -4.20027 4.08623 0
M  V30 5360 N 924.395 -2.76189 3.71603 0
M  V30 5361 H 921.556 -4.797 7.24003 0
M  V30 5362 H 921.286 -3.69856 5.84513 0
M  V30 5363 H 922.153 -6.10356 5.41441 0
M  V30 5364 P 926.115 -7.20834 5.23717 0
M  V30 5365 O 926.335 -8.66189 5.38625 0
M  V30 5366 O 926.905 -6.33615 6.1356 0
M  V30 5367 O 926.365 -6.7751 3.72168 0
M  V30 5368 C 925.425 -7.20732 2.70725 0
M  V30 5369 C 926.155 -7.45864 1.40599 0
M  V30 5370 O 926.365 -6.17651 0.734225 0
M  V30 5371 C 927.555 -8.05808 1.51899 0
M  V30 5372 O 927.945 -8.74358 0.335205 0
M  V30 5373 C 928.435 -6.83093 1.70294 0
M  V30 5374 C 927.725 -5.79992 0.836974 0
M  V30 5375 N 927.775 -4.41769 1.38263 0
M  V30 5376 C 927.925 -3.38591 0.481702 0
M  V30 5377 O 928.015 -3.56839 -0.718452 0
M  V30 5378 N 927.965 -2.1206 1.03569 0
M  V30 5379 C 927.875 -1.80696 2.36966 0
M  V30 5380 O 927.925 -0.630473 2.74862 0
M  V30 5381 C 927.725 -2.94845 3.23898 0
M  V30 5382 C 927.615 -2.65253 4.70362 0
M  V30 5383 C 927.675 -4.19803 2.73435 0
M  V30 5384 H 924.935 -8.13644 3.0377 0
M  V30 5385 H 924.666 -6.42695 2.55448 0
M  V30 5386 H 925.533 -8.12039 0.792769 0
M  V30 5387 H 928.188 -5.79978 -0.160587 0
M  V30 5388 H 928.467 -6.51379 2.75643 0
M  V30 5389 H 929.459 -7.01734 1.34462 0
M  V30 5390 H 927.625 -8.73674 2.38337 0
M  V30 5391 H 927.554 -5.04492 3.4095 0
M  V30 5392 H 928.584 -2.83924 5.1913 0
M  V30 5393 H 926.847 -3.29824 5.15163 0
M  V30 5394 H 927.335 -1.59723 4.84449 0
M  V30 5395 H 928.071 -1.35644 0.399345 0
M  V30 5396 P 929.495 -8.91 -6.87236e-12 0
M  V30 5397 O 929.715 -10.1746 -0.733838 0
M  V30 5398 O 930.285 -8.73346 1.23964 0
M  V30 5399 O 929.745 -7.66872 -0.971405 0
M  V30 5400 C 928.805 -7.42405 -2.04668 0
M  V30 5401 C 929.535 -6.86059 -3.24661 0
M  V30 5402 O 929.745 -5.42934 -3.03695 0
M  V30 5403 C 930.935 -7.41287 -3.50796 0
M  V30 5404 O 931.325 -7.27073 -4.86816 0
M  V30 5405 C 931.815 -6.5273 -2.63741 0
M  V30 5406 C 931.105 -5.1842 -2.73198 0
M  V30 5407 N 931.155 -4.38762 -1.4784 0
M  V30 5408 C 931.075 -4.83651 -0.183876 0
M  V30 5409 N 931.145 -3.88759 0.699393 0
M  V30 5410 C 931.295 -2.7404 -0.0575568 0
M  V30 5411 C 931.425 -1.37902 0.293928 0
M  V30 5412 N 931.435 -0.938021 1.54797 0
M  V30 5413 N 931.545 -0.491817 -0.70549 0
M  V30 5414 C 931.535 -0.931735 -1.95979 0
M  V30 5415 N 931.415 -2.16017 -2.41481 0
M  V30 5416 C 931.295 -3.02547 -1.39121 0
M  V30 5417 H 928.317 -8.36899 -2.3252 0
M  V30 5418 H 928.045 -6.70391 -1.71179 0
M  V30 5419 H 928.913 -7.03638 -4.13219 0
M  V30 5420 H 931.568 -4.59931 -3.54016 0
M  V30 5421 H 931.848 -6.88995 -1.59871 0
M  V30 5422 H 932.839 -6.4684 -3.0373 0
M  V30 5423 H 931.005 -8.47002 -3.20749 0
M  V30 5424 H 930.964 -5.8885 0.0765548 0
M  V30 5425 H 931.345 -1.60276 2.32875 0
M  V30 5426 H 931.534 0.0699355 1.73859 0
M  V30 5427 H 931.642 -0.165507 -2.71897 0
M  V30 5428 P 932.874 -7.20834 -5.23717 0
M  V30 5429 O 933.094 -7.80006 -6.57415 0
M  V30 5430 O 933.664 -7.79416 -4.13051 0
M  V30 5431 O 933.124 -5.63315 -5.29344 0
M  V30 5432 C 932.184 -4.80318 -6.01954 0
M  V30 5433 C 932.914 -3.64202 -6.65911 0
M  V30 5434 O 933.124 -2.60736 -5.64823 0
M  V30 5435 C 934.314 -3.93521 -7.19518 0
M  V30 5436 O 934.704 -3.02071 -8.21205 0
M  V30 5437 C 935.194 -3.73047 -5.97036 0
M  V30 5438 C 934.484 -2.58828 -5.25741 0
M  V30 5439 N 934.534 -2.68068 -3.77503 0
M  V30 5440 H 931.696 -5.40394 -6.8003 0
M  V30 5441 H 931.424 -4.41741 -5.32532 0
M  V30 5442 H 932.292 -3.26371 -7.47889 0
M  V30 5443 H 934.947 -1.64007 -5.56746 0
M  V30 5444 H 935.227 -4.63439 -5.3432 0
M  V30 5445 H 936.218 -3.44776 -6.25925 0
M  V30 5446 H 934.384 -4.96707 -7.57347 0
M  V30 5447 P 936.254 -2.75334 -8.47391 0
M  V30 5448 O 936.474 -2.44571 -9.90142 0
M  V30 5449 O 937.044 -3.87688 -7.92115 0
M  V30 5450 O 936.504 -1.4459 -7.59357 0
M  V30 5451 C 935.564 -0.347608 -7.69215 0
M  V30 5452 C 936.294 0.96767 -7.52806 0
M  V30 5453 O 936.504 1.21036 -6.1011 0
M  V30 5454 C 937.694 1.04544 -8.13308 0
M  V30 5455 O 938.084 2.38311 -8.41922 0
M  V30 5456 C 938.574 0.491279 -7.02284 0
M  V30 5457 C 937.864 0.996264 -5.77469 0
M  V30 5458 N 937.914 0.0501916 -4.62973 0
M  V30 5459 H 935.075 -0.374722 -8.67691 0
M  V30 5460 H 934.805 -0.443485 -6.90277 0
M  V30 5461 H 935.672 1.75537 -7.96793 0
M  V30 5462 P 939.634 2.75334 -8.47391 0
M  V30 5463 O 939.854 3.84128 -9.44797 0
M  V30 5464 O 940.424 1.51947 -8.68712 0
M  V30 5465 O 939.884 3.29363 -6.99321 0
M  V30 5466 C 938.944 4.24011 -6.4274 0
M  V30 5467 C 939.674 5.20775 -5.52155 0
M  V30 5468 O 939.884 4.56534 -4.22446 0
M  V30 5469 C 941.074 5.62629 -5.96531 0
M  V30 5470 O 941.464 6.87667 -5.41053 0
M  V30 5471 C 941.954 4.52537 -5.39283 0
M  V30 5472 C 941.244 4.20027 -4.08623 0
M  V30 5473 N 941.294 2.76189 -3.71603 0
M  V30 5474 H 938.455 4.797 -7.24003 0
M  V30 5475 H 938.185 3.69856 -5.84513 0
M  V30 5476 H 939.052 6.10356 -5.41441 0
M  V30 5477 P 943.014 7.20834 -5.23717 0
M  V30 5478 O 943.234 8.66104 -5.38572 0
M  V30 5479 O 943.804 6.33544 -6.1349 0
M  V30 5480 O 943.264 6.7751 -3.72168 0
M  V30 5481 C 942.324 7.20825 -2.7076 0
M  V30 5482 C 943.054 7.45864 -1.40599 0
M  V30 5483 O 943.264 6.17651 -0.734225 0
M  V30 5484 C 944.454 8.05808 -1.51899 0
M  V30 5485 O 944.844 8.74358 -0.335205 0
M  V30 5486 C 945.334 6.83093 -1.70294 0
M  V30 5487 C 944.624 5.79992 -0.836974 0
M  V30 5488 N 944.674 4.41864 -1.38293 0
M  V30 5489 H 941.835 8.13644 -3.0377 0
M  V30 5490 H 941.565 6.42788 -2.55485 0
M  V30 5491 H 942.432 8.12039 -0.792769 0
M  V30 5492 P 946.394 8.91 7.02954e-12 0
M  V30 5493 O 946.614 10.1726 0.733694 0
M  V30 5494 O 947.184 8.73148 -1.23936 0
M  V30 5495 O 946.644 7.66872 0.971405 0
M  V30 5496 C 945.704 7.42309 2.04641 0
M  V30 5497 C 946.434 6.86059 3.24661 0
M  V30 5498 O 946.644 5.42847 3.03646 0
M  V30 5499 C 947.834 7.41196 3.50753 0
M  V30 5500 O 948.224 7.27073 4.86816 0
M  V30 5501 C 948.714 6.5273 2.63741 0
M  V30 5502 C 948.004 5.1842 2.73198 0
M  V30 5503 N 948.054 4.38762 1.4784 0
M  V30 5504 H 945.215 8.36803 2.32493 0
M  V30 5505 H 944.945 6.70197 1.71129 0
M  V30 5506 H 945.812 7.03551 4.13168 0
M  V30 5507 P 949.774 7.20834 5.23717 0
M  V30 5508 O 949.994 7.7993 6.57351 0
M  V30 5509 O 950.564 7.79328 4.13004 0
M  V30 5510 O 950.024 5.63315 5.29344 0
M  V30 5511 C 949.084 4.80193 6.01798 0
M  V30 5512 C 949.814 3.64202 6.65911 0
M  V30 5513 O 950.024 2.60694 5.64732 0
M  V30 5514 C 951.214 3.93473 7.1943 0
M  V30 5515 O 951.604 3.02071 8.21205 0
M  V30 5516 C 952.094 3.73047 5.97036 0
M  V30 5517 C 951.384 2.58828 5.25741 0
M  V30 5518 N 951.434 2.6801 3.77422 0
M  V30 5519 C 951.584 1.50443 3.07133 0
M  V30 5520 O 951.674 0.419406 3.61576 0
M  V30 5521 N 951.624 1.6403 1.69677 0
M  V30 5522 C 951.534 2.81206 0.986255 0
M  V30 5523 O 951.584 2.80892 -0.249754 0
M  V30 5524 C 951.384 3.99158 1.80325 0
M  V30 5525 C 951.274 5.29309 1.06921 0
M  V30 5526 C 951.334 3.89779 3.1476 0
M  V30 5527 H 948.594 5.40332 6.79951 0
M  V30 5528 H 948.325 4.41549 5.32301 0
M  V30 5529 H 949.192 3.26331 7.47797 0
M  V30 5530 H 951.847 1.6395 5.56554 0
M  V30 5531 H 952.126 4.63439 5.3432 0
M  V30 5532 H 953.118 3.44728 6.25838 0
M  V30 5533 H 951.284 4.96652 7.57263 0
M  V30 5534 H 951.213 4.80159 3.74441 0
M  V30 5535 H 952.243 5.81459 1.09608 0
M  V30 5536 H 950.506 5.9187 1.54487 0
M  V30 5537 H 950.994 5.10095 0.0220288 0
M  V30 5538 H 951.73 0.798962 1.16664 0
M  V30 5539 P 953.154 2.75334 8.47391 0
M  V30 5540 O 953.374 2.44619 9.90336 0
M  V30 5541 O 953.944 3.87776 7.92294 0
M  V30 5542 O 953.404 1.4459 7.59357 0
M  V30 5543 C 952.464 0.347653 7.69315 0
M  V30 5544 C 953.194 -0.96767 7.52806 0
M  V30 5545 O 953.404 -1.21055 6.10208 0
M  V30 5546 C 954.594 -1.04557 8.13408 0
M  V30 5547 O 954.984 -2.38311 8.41922 0
M  V30 5548 C 955.474 -0.491279 7.02284 0
M  V30 5549 C 954.764 -0.996264 5.77469 0
M  V30 5550 N 954.814 -0.0501916 4.62973 0
M  V30 5551 C 954.734 1.31969 4.65661 0
M  V30 5552 N 954.804 1.86649 3.48119 0
M  V30 5553 C 954.954 0.792089 2.62406 0
M  V30 5554 C 955.084 0.705684 1.2207 0
M  V30 5555 N 955.094 1.76207 0.413762 0
M  V30 5556 N 955.204 -0.518981 0.685754 0
M  V30 5557 C 955.194 -1.57595 1.49174 0
M  V30 5558 N 955.074 -1.62909 2.80066 0
M  V30 5559 C 954.954 -0.388195 3.3073 0
M  V30 5560 H 951.976 0.374765 8.67791 0
M  V30 5561 H 951.704 0.443613 6.90476 0
M  V30 5562 H 952.572 -1.75559 7.96891 0
M  V30 5563 H 955.227 -1.94563 5.46818 0
M  V30 5564 H 955.507 0.608651 7.04676 0
M  V30 5565 H 956.498 -0.889796 7.09039 0
M  V30 5566 H 954.664 -0.433128 9.04664 0
M  V30 5567 H 954.623 1.89246 5.57664 0
M  V30 5568 H 955.004 2.71005 0.804694 0
M  V30 5569 H 955.193 1.63189 -0.603768 0
M  V30 5570 H 955.301 -2.53475 0.997614 0
M  V30 5571 P 956.534 -2.75334 8.47391 0
M  V30 5572 O 956.754 -3.84128 9.44797 0
M  V30 5573 O 957.324 -1.51947 8.68712 0
M  V30 5574 O 956.784 -3.29363 6.99321 0
M  V30 5575 C 955.844 -4.24011 6.4274 0
M  V30 5576 C 956.574 -5.20775 5.52155 0
M  V30 5577 O 956.784 -4.56534 4.22446 0
M  V30 5578 C 957.974 -5.62629 5.96531 0
M  V30 5579 O 958.364 -6.87667 5.41053 0
M  V30 5580 C 958.854 -4.52537 5.39283 0
M  V30 5581 C 958.144 -4.20027 4.08623 0
M  V30 5582 N 958.194 -2.76189 3.71603 0
M  V30 5583 C 958.114 -1.64862 4.52822 0
M  V30 5584 N 958.194 -0.512671 3.88633 0
M  V30 5585 C 958.334 -0.888083 2.54977 0
M  V30 5586 C 958.464 -0.094668 1.38677 0
M  V30 5587 N 958.584 -0.890102 0.232633 0
M  V30 5588 C 958.584 -2.26958 0.21772 0
M  V30 5589 N 958.714 -2.84626 -0.97925 0
M  V30 5590 N 958.454 -3.0178 1.31033 0
M  V30 5591 C 958.334 -2.26781 2.43843 0
M  V30 5592 H 955.355 -4.797 7.24003 0
M  V30 5593 H 955.085 -3.69856 5.84513 0
M  V30 5594 H 955.952 -6.10356 5.41441 0
M  V30 5595 P 959.914 -7.20834 5.23717 0
M  V30 5596 O 960.134 -8.66104 5.38572 0
M  V30 5597 O 960.704 -6.33544 6.1349 0
M  V30 5598 O 960.164 -6.7751 3.72168 0
M  V30 5599 C 959.224 -7.20825 2.7076 0
M  V30 5600 C 959.954 -7.45864 1.40599 0
M  V30 5601 O 960.164 -6.17651 0.734225 0
M  V30 5602 C 961.354 -8.05808 1.51899 0
M  V30 5603 O 961.744 -8.74358 0.335205 0
M  V30 5604 C 962.234 -6.83093 1.70294 0
M  V30 5605 C 961.524 -5.79992 0.836974 0
M  V30 5606 N 961.574 -4.41864 1.38293 0
M  V30 5607 C 961.494 -3.99538 2.69438 0
M  V30 5608 N 961.574 -2.69909 2.84277 0
M  V30 5609 C 961.714 -2.21719 1.5408 0
M  V30 5610 C 961.844 -0.891712 1.06628 0
M  V30 5611 N 961.964 -0.856846 -0.334985 0
M  V30 5612 C 961.964 -1.9641 -1.15789 0
M  V30 5613 N 962.094 -1.72708 -2.46522 0
M  V30 5614 N 961.834 -3.21165 -0.713741 0
M  V30 5615 C 961.714 -3.26797 0.639748 0
M  V30 5616 H 958.735 -8.13644 3.0377 0
M  V30 5617 H 958.465 -6.42788 2.55485 0
M  V30 5618 H 959.332 -8.12039 0.792769 0
M  V30 5619 P 963.294 -8.91 -7.18673e-12 0
M  V30 5620 O 963.514 -10.1726 -0.733694 0
M  V30 5621 O 964.084 -8.73148 1.23936 0
M  V30 5622 O 963.544 -7.66872 -0.971405 0
M  V30 5623 C 962.604 -7.42309 -2.04641 0
M  V30 5624 C 963.334 -6.86059 -3.24661 0
M  V30 5625 O 963.544 -5.42847 -3.03646 0
M  V30 5626 C 964.734 -7.41196 -3.50753 0
M  V30 5627 O 965.124 -7.27073 -4.86816 0
M  V30 5628 C 965.614 -6.5273 -2.63741 0
M  V30 5629 C 964.904 -5.1842 -2.73198 0
M  V30 5630 N 964.954 -4.38762 -1.4784 0
M  V30 5631 H 962.115 -8.36803 -2.32493 0
M  V30 5632 H 961.845 -6.70197 -1.71129 0
M  V30 5633 H 962.712 -7.03551 -4.13168 0
M  V30 5634 P 966.674 -7.20834 -5.23717 0
M  V30 5635 O 966.894 -7.79853 -6.57286 0
M  V30 5636 O 967.464 -7.79239 -4.12957 0
M  V30 5637 O 966.924 -5.63315 -5.29344 0
M  V30 5638 C 965.984 -4.80255 -6.01876 0
M  V30 5639 C 966.714 -3.64202 -6.65911 0
M  V30 5640 O 966.924 -2.60694 -5.64732 0
M  V30 5641 C 968.114 -3.93473 -7.1943 0
M  V30 5642 O 968.504 -3.02071 -8.21205 0
M  V30 5643 C 968.994 -3.73047 -5.97036 0
M  V30 5644 C 968.284 -2.58828 -5.25741 0
M  V30 5645 N 968.334 -2.68068 -3.77503 0
M  V30 5646 C 968.254 -3.79715 -2.96723 0
M  V30 5647 N 968.334 -3.5377 -1.68852 0
M  V30 5648 C 968.474 -2.15054 -1.63254 0
M  V30 5649 C 968.604 -1.28964 -0.518571 0
M  V30 5650 N 968.724 0.0538097 -0.918425 0
M  V30 5651 C 968.724 0.494275 -2.22578 0
M  V30 5652 N 968.854 1.81086 -2.40434 0
M  V30 5653 N 968.594 -0.313645 -3.27502 0
M  V30 5654 C 968.474 -1.61829 -2.91033 0
M  V30 5655 H 965.495 -5.40332 -6.79951 0
M  V30 5656 H 965.225 -4.41613 -5.32378 0
M  V30 5657 H 966.092 -3.26331 -7.47797 0
M  V30 5658 P 970.054 -2.75334 -8.47391 0
M  V30 5659 O 970.274 -2.44571 -9.90142 0
M  V30 5660 O 970.844 -3.87688 -7.92115 0
M  V30 5661 O 970.304 -1.4459 -7.59357 0
M  V30 5662 C 969.364 -0.347608 -7.69215 0
M  V30 5663 C 970.094 0.96767 -7.52806 0
M  V30 5664 O 970.304 1.21036 -6.1011 0
M  V30 5665 C 971.494 1.04544 -8.13308 0
M  V30 5666 O 971.884 2.38311 -8.41922 0
M  V30 5667 C 972.374 0.491279 -7.02284 0
M  V30 5668 C 971.664 0.996264 -5.77469 0
M  V30 5669 N 971.714 0.0501916 -4.62973 0
M  V30 5670 C 971.634 -1.32786 -4.63244 0
M  V30 5671 N 971.714 -1.86957 -3.44545 0
M  V30 5672 C 971.854 -0.780241 -2.58481 0
M  V30 5673 C 971.984 -0.738536 -1.17757 0
M  V30 5674 O 972.004 -1.66794 -0.372349 0
M  V30 5675 N 972.104 0.58337 -0.711393 0
M  V30 5676 C 972.104 1.70816 -1.51017 0
M  V30 5677 N 972.234 2.87826 -0.880757 0
M  V30 5678 N 971.974 1.67126 -2.8339 0
M  V30 5679 C 971.854 0.401421 -3.30572 0
M  V30 5680 H 968.875 -0.374722 -8.67691 0
M  V30 5681 H 968.605 -0.443485 -6.90277 0
M  V30 5682 H 969.472 1.75537 -7.96793 0
M  V30 5683 H 972.127 1.95076 -5.46529 0
M  V30 5684 H 972.406 -0.608565 -7.04577 0
M  V30 5685 H 973.398 0.889672 -7.08939 0
M  V30 5686 H 971.564 0.43308 -9.04564 0
M  V30 5687 H 971.515 -1.91249 -5.54442 0
M  V30 5688 H 972.197 0.718054 0.275244 0
M  V30 5689 H 972.234 3.75721 -1.41832 0
M  V30 5690 H 972.335 2.90436 0.145468 0
M  V30 5691 P 973.434 2.75334 -8.47391 0
M  V30 5692 O 973.654 3.84128 -9.44797 0
M  V30 5693 O 974.224 1.51947 -8.68712 0
M  V30 5694 O 973.684 3.29363 -6.99321 0
M  V30 5695 C 972.744 4.24011 -6.4274 0
M  V30 5696 C 973.474 5.20775 -5.52155 0
M  V30 5697 O 973.684 4.56534 -4.22446 0
M  V30 5698 C 974.874 5.62629 -5.96531 0
M  V30 5699 O 975.264 6.87667 -5.41053 0
M  V30 5700 C 975.754 4.52537 -5.39283 0
M  V30 5701 C 975.044 4.20027 -4.08623 0
M  V30 5702 N 975.094 2.76189 -3.71603 0
M  V30 5703 H 972.255 4.797 -7.24003 0
M  V30 5704 H 971.985 3.69856 -5.84513 0
M  V30 5705 H 972.852 6.10356 -5.41441 0
M  V30 5706 P 976.814 7.20834 -5.23717 0
M  V30 5707 O 977.034 8.66104 -5.38572 0
M  V30 5708 O 977.604 6.33544 -6.1349 0
M  V30 5709 O 977.064 6.7751 -3.72168 0
M  V30 5710 C 976.124 7.20825 -2.7076 0
M  V30 5711 C 976.854 7.45864 -1.40599 0
M  V30 5712 O 977.064 6.17651 -0.734225 0
M  V30 5713 C 978.254 8.05808 -1.51899 0
M  V30 5714 O 978.644 8.74358 -0.335205 0
M  V30 5715 C 979.134 6.83093 -1.70294 0
M  V30 5716 C 978.424 5.79992 -0.836974 0
M  V30 5717 N 978.474 4.41864 -1.38293 0
M  V30 5718 H 975.635 8.13644 -3.0377 0
M  V30 5719 H 975.365 6.42788 -2.55485 0
M  V30 5720 H 976.232 8.12039 -0.792769 0
M  V30 5721 P 980.194 8.91 7.34391e-12 0
M  V30 5722 O 980.414 10.1726 0.733694 0
M  V30 5723 O 980.984 8.73148 -1.23936 0
M  V30 5724 O 980.444 7.66872 0.971405 0
M  V30 5725 C 979.504 7.42309 2.04641 0
M  V30 5726 C 980.234 6.86059 3.24661 0
M  V30 5727 O 980.444 5.42847 3.03646 0
M  V30 5728 C 981.634 7.41196 3.50753 0
M  V30 5729 O 982.024 7.27073 4.86816 0
M  V30 5730 C 982.514 6.5273 2.63741 0
M  V30 5731 C 981.804 5.1842 2.73198 0
M  V30 5732 N 981.854 4.38762 1.4784 0
M  V30 5733 H 979.015 8.36803 2.32493 0
M  V30 5734 H 978.745 6.70197 1.71129 0
M  V30 5735 H 979.612 7.03551 4.13168 0
M  V30 5736 P 983.574 7.20834 5.23717 0
M  V30 5737 O 983.794 7.79853 6.57286 0
M  V30 5738 O 984.364 7.79239 4.12957 0
M  V30 5739 O 983.824 5.63315 5.29344 0
M  V30 5740 C 982.884 4.80255 6.01876 0
M  V30 5741 C 983.614 3.64202 6.65911 0
M  V30 5742 O 983.824 2.60694 5.64732 0
M  V30 5743 C 985.014 3.93473 7.1943 0
M  V30 5744 O 985.404 3.02071 8.21205 0
M  V30 5745 C 985.894 3.73047 5.97036 0
M  V30 5746 C 985.184 2.58828 5.25741 0
M  V30 5747 N 985.234 2.68068 3.77503 0
M  V30 5748 H 982.395 5.40332 6.79951 0
M  V30 5749 H 982.125 4.41613 5.32378 0
M  V30 5750 H 982.992 3.26331 7.47797 0
M  V30 5751 P 986.954 2.75334 8.47391 0
M  V30 5752 O 987.174 2.44571 9.90142 0
M  V30 5753 O 987.744 3.87688 7.92115 0
M  V30 5754 O 987.204 1.4459 7.59357 0
M  V30 5755 C 986.264 0.347608 7.69215 0
M  V30 5756 C 986.994 -0.96767 7.52806 0
M  V30 5757 O 987.204 -1.21036 6.1011 0
M  V30 5758 C 988.394 -1.04544 8.13308 0
M  V30 5759 O 988.784 -2.38311 8.41922 0
M  V30 5760 C 989.274 -0.491279 7.02284 0
M  V30 5761 C 988.564 -0.996264 5.77469 0
M  V30 5762 N 988.614 -0.0501916 4.62973 0
M  V30 5763 H 985.775 0.374722 8.67691 0
M  V30 5764 H 985.505 0.443485 6.90277 0
M  V30 5765 H 986.372 -1.75537 7.96793 0
M  V30 5766 P 990.334 -2.75334 8.47391 0
M  V30 5767 O 990.554 -3.84128 9.44797 0
M  V30 5768 O 991.124 -1.51947 8.68712 0
M  V30 5769 O 990.584 -3.29363 6.99321 0
M  V30 5770 C 989.644 -4.24011 6.4274 0
M  V30 5771 C 990.374 -5.20775 5.52155 0
M  V30 5772 O 990.584 -4.56534 4.22446 0
M  V30 5773 C 991.774 -5.62629 5.96531 0
M  V30 5774 O 992.164 -6.87667 5.41053 0
M  V30 5775 C 992.654 -4.52537 5.39283 0
M  V30 5776 C 991.944 -4.20027 4.08623 0
M  V30 5777 N 991.994 -2.76189 3.71603 0
M  V30 5778 C 991.914 -1.64862 4.52822 0
M  V30 5779 N 991.994 -0.512671 3.88633 0
M  V30 5780 C 992.134 -0.888083 2.54977 0
M  V30 5781 C 992.264 -0.094668 1.38677 0
M  V30 5782 N 992.384 -0.890102 0.232633 0
M  V30 5783 C 992.384 -2.26958 0.21772 0
M  V30 5784 N 992.514 -2.84626 -0.97925 0
M  V30 5785 N 992.254 -3.0178 1.31033 0
M  V30 5786 C 992.134 -2.26781 2.43843 0
M  V30 5787 H 989.155 -4.797 7.24003 0
M  V30 5788 H 988.885 -3.69856 5.84513 0
M  V30 5789 H 989.752 -6.10356 5.41441 0
M  V30 5790 P 993.714 -7.20834 5.23717 0
M  V30 5791 O 993.934 -8.66104 5.38572 0
M  V30 5792 O 994.504 -6.33544 6.1349 0
M  V30 5793 O 993.964 -6.7751 3.72168 0
M  V30 5794 C 993.024 -7.20825 2.7076 0
M  V30 5795 C 993.754 -7.45864 1.40599 0
M  V30 5796 O 993.964 -6.17651 0.734225 0
M  V30 5797 C 995.154 -8.05808 1.51899 0
M  V30 5798 O 995.544 -8.74358 0.335205 0
M  V30 5799 C 996.034 -6.83093 1.70294 0
M  V30 5800 C 995.324 -5.79992 0.836974 0
M  V30 5801 N 995.374 -4.41864 1.38293 0
M  V30 5802 H 992.535 -8.13644 3.0377 0
M  V30 5803 H 992.265 -6.42788 2.55485 0
M  V30 5804 H 993.132 -8.12039 0.792769 0
M  V30 5805 P 997.094 -8.91 -7.50109e-12 0
M  V30 5806 O 997.314 -10.1726 -0.733694 0
M  V30 5807 O 997.884 -8.73148 1.23936 0
M  V30 5808 O 997.344 -7.66872 -0.971405 0
M  V30 5809 C 996.404 -7.42309 -2.04641 0
M  V30 5810 C 997.134 -6.86059 -3.24661 0
M  V30 5811 O 997.344 -5.42847 -3.03646 0
M  V30 5812 C 998.534 -7.41196 -3.50753 0
M  V30 5813 O 998.924 -7.27073 -4.86816 0
M  V30 5814 C 999.414 -6.5273 -2.63741 0
M  V30 5815 C 998.704 -5.1842 -2.73198 0
M  V30 5816 N 998.754 -4.38762 -1.4784 0
M  V30 5817 H 995.915 -8.36803 -2.32493 0
M  V30 5818 H 995.645 -6.70197 -1.71129 0
M  V30 5819 H 996.512 -7.03551 -4.13168 0
M  V30 5820 P 1000.47 -7.20834 -5.23717 0
M  V30 5821 O 1000.69 -7.7993 -6.57351 0
M  V30 5822 O 1001.26 -7.79328 -4.13004 0
M  V30 5823 O 1000.72 -5.63315 -5.29344 0
M  V30 5824 C 999.784 -4.80193 -6.01798 0
M  V30 5825 C 1000.51 -3.64202 -6.65911 0
M  V30 5826 O 1000.72 -2.60694 -5.64732 0
M  V30 5827 C 1001.91 -3.93473 -7.1943 0
M  V30 5828 O 1002.3 -3.02071 -8.21205 0
M  V30 5829 C 1002.79 -3.73047 -5.97036 0
M  V30 5830 C 1002.08 -2.58828 -5.25741 0
M  V30 5831 N 1002.13 -2.6801 -3.77422 0
M  V30 5832 C 1002.28 -1.50443 -3.07133 0
M  V30 5833 O 1002.37 -0.419406 -3.61576 0
M  V30 5834 N 1002.32 -1.6403 -1.69677 0
M  V30 5835 C 1002.23 -2.81206 -0.986255 0
M  V30 5836 C 1002.08 -3.99158 -1.80325 0
M  V30 5837 C 1002.03 -3.89779 -3.1476 0
M  V30 5838 H 999.294 -5.40332 -6.79951 0
M  V30 5839 H 999.025 -4.41549 -5.32301 0
M  V30 5840 H 999.892 -3.26331 -7.47797 0
M  V30 5841 H 1002.55 -1.6395 -5.56554 0
M  V30 5842 H 1002.83 -4.63439 -5.3432 0
M  V30 5843 H 1003.82 -3.44728 -6.25838 0
M  V30 5844 H 1001.98 -4.96652 -7.57263 0
M  V30 5845 H 1001.91 -4.80159 -3.74441 0
M  V30 5846 P 1003.85 -2.75334 -8.47391 0
M  V30 5847 O 1004.07 -2.44571 -9.90142 0
M  V30 5848 O 1004.64 -3.87688 -7.92115 0
M  V30 5849 O 1004.1 -1.4459 -7.59357 0
M  V30 5850 C 1003.16 -0.347608 -7.69215 0
M  V30 5851 C 1003.89 0.96767 -7.52806 0
M  V30 5852 O 1004.1 1.21036 -6.1011 0
M  V30 5853 C 1005.29 1.04544 -8.13308 0
M  V30 5854 O 1005.68 2.38311 -8.41922 0
M  V30 5855 C 1006.17 0.491279 -7.02284 0
M  V30 5856 C 1005.46 0.996264 -5.77469 0
M  V30 5857 N 1005.51 0.0501916 -4.62973 0
M  V30 5858 C 1005.43 -1.32786 -4.63244 0
M  V30 5859 N 1005.51 -1.86957 -3.44545 0
M  V30 5860 C 1005.65 -0.780241 -2.58481 0
M  V30 5861 C 1005.78 -0.738536 -1.17757 0
M  V30 5862 N 1005.9 0.58337 -0.711393 0
M  V30 5863 C 1005.9 1.70816 -1.51017 0
M  V30 5864 N 1006.03 2.87826 -0.880757 0
M  V30 5865 N 1005.77 1.67126 -2.8339 0
M  V30 5866 C 1005.65 0.401421 -3.30572 0
M  V30 5867 H 1002.68 -0.374722 -8.67691 0
M  V30 5868 H 1002.41 -0.443485 -6.90277 0
M  V30 5869 H 1003.27 1.75537 -7.96793 0
M  V30 5870 P 1007.23 2.75334 -8.47391 0
M  V30 5871 O 1007.45 3.84204 -9.44982 0
M  V30 5872 O 1008.02 1.51982 -8.68909 0
M  V30 5873 O 1007.48 3.29363 -6.99321 0
M  V30 5874 C 1006.54 4.24066 -6.42823 0
M  V30 5875 C 1007.27 5.20775 -5.52155 0
M  V30 5876 O 1007.48 4.56607 -4.22514 0
M  V30 5877 C 1008.67 5.62697 -5.96604 0
M  V30 5878 O 1009.06 6.87667 -5.41053 0
M  V30 5879 C 1009.55 4.52537 -5.39283 0
M  V30 5880 C 1008.84 4.20027 -4.08623 0
M  V30 5881 N 1008.89 2.76189 -3.71603 0
M  V30 5882 C 1008.81 1.66944 -4.54297 0
M  V30 5883 N 1008.88 0.536169 -3.91344 0
M  V30 5884 C 1009.03 0.901569 -2.58849 0
M  V30 5885 C 1009.16 0.146599 -1.40236 0
M  V30 5886 N 1009.17 -1.18234 -1.37046 0
M  V30 5887 N 1009.28 0.822941 -0.249738 0
M  V30 5888 C 1009.27 2.15179 -0.280525 0
M  V30 5889 N 1009.15 2.96414 -1.30822 0
M  V30 5890 C 1009.03 2.25804 -2.44748 0
M  V30 5891 H 1006.06 4.79756 -7.24086 0
M  V30 5892 H 1005.78 3.69963 -5.84682 0
M  V30 5893 H 1006.65 6.10431 -5.41508 0
M  V30 5894 H 1009.31 4.78816 -3.28024 0
M  V30 5895 H 1009.59 3.64957 -6.05871 0
M  V30 5896 H 1010.58 4.88748 -5.21323 0
M  V30 5897 H 1008.74 5.66789 -7.0643 0
M  V30 5898 H 1008.7 1.74684 -5.62396 0
M  V30 5899 H 1009.08 -1.71949 -2.24394 0
M  V30 5900 H 1009.27 -1.67511 -0.470742 0
M  V30 5901 H 1009.38 2.63704 0.6828 0
M  V30 5902 P 1010.61 7.20834 -5.23717 0
M  V30 5903 O 1010.83 8.66104 -5.38572 0
M  V30 5904 O 1011.4 6.33544 -6.1349 0
M  V30 5905 O 1010.86 6.7751 -3.72168 0
M  V30 5906 C 1009.92 7.20825 -2.7076 0
M  V30 5907 C 1010.65 7.45864 -1.40599 0
M  V30 5908 O 1010.86 6.17651 -0.734225 0
M  V30 5909 C 1012.05 8.05808 -1.51899 0
M  V30 5910 O 1012.44 8.74358 -0.335205 0
M  V30 5911 C 1012.93 6.83093 -1.70294 0
M  V30 5912 C 1012.22 5.79992 -0.836974 0
M  V30 5913 N 1012.27 4.41864 -1.38293 0
M  V30 5914 H 1009.44 8.13644 -3.0377 0
M  V30 5915 H 1009.17 6.42788 -2.55485 0
M  V30 5916 H 1010.03 8.12039 -0.792769 0
M  V30 5917 P 1013.99 8.91 7.65827e-12 0
M  V30 5918 O 1014.21 10.1746 0.733838 0
M  V30 5919 O 1014.78 8.73346 -1.23964 0
M  V30 5920 O 1014.24 7.66872 0.971405 0
M  V30 5921 C 1013.3 7.42405 2.04668 0
M  V30 5922 C 1014.03 6.86059 3.24661 0
M  V30 5923 O 1014.24 5.42934 3.03695 0
M  V30 5924 C 1015.43 7.41287 3.50796 0
M  V30 5925 O 1015.82 7.27073 4.86816 0
M  V30 5926 C 1016.31 6.5273 2.63741 0
M  V30 5927 C 1015.6 5.1842 2.73198 0
M  V30 5928 N 1015.65 4.38762 1.4784 0
M  V30 5929 H 1012.82 8.36899 2.3252 0
M  V30 5930 H 1012.54 6.70391 1.71179 0
M  V30 5931 H 1013.41 7.03638 4.13219 0
M  V30 5932 H 1016.07 4.59931 3.54016 0
M  V30 5933 H 1016.35 6.88995 1.59871 0
M  V30 5934 H 1017.34 6.4684 3.0373 0
M  V30 5935 H 1015.5 8.47002 3.20749 0
M  V30 5936 P 1017.37 7.20834 5.23717 0
M  V30 5937 O 1017.59 7.79853 6.57286 0
M  V30 5938 O 1018.16 7.79239 4.12957 0
M  V30 5939 O 1017.62 5.63315 5.29344 0
M  V30 5940 C 1016.68 4.80255 6.01876 0
M  V30 5941 C 1017.41 3.64202 6.65911 0
M  V30 5942 O 1017.62 2.60694 5.64732 0
M  V30 5943 C 1018.81 3.93473 7.1943 0
M  V30 5944 O 1019.2 3.02071 8.21205 0
M  V30 5945 C 1019.69 3.73047 5.97036 0
M  V30 5946 C 1018.98 2.58828 5.25741 0
M  V30 5947 N 1019.03 2.68068 3.77503 0
M  V30 5948 H 1016.19 5.40332 6.79951 0
M  V30 5949 H 1015.92 4.41613 5.32378 0
M  V30 5950 H 1016.79 3.26331 7.47797 0
M  V30 5951 P 1020.75 2.75334 8.47391 0
M  V30 5952 O 1020.97 2.44571 9.90142 0
M  V30 5953 O 1021.54 3.87688 7.92115 0
M  V30 5954 O 1021 1.4459 7.59357 0
M  V30 5955 C 1020.06 0.347608 7.69215 0
M  V30 5956 C 1020.79 -0.96767 7.52806 0
M  V30 5957 O 1021 -1.21036 6.1011 0
M  V30 5958 C 1022.19 -1.04544 8.13308 0
M  V30 5959 O 1022.58 -2.38311 8.41922 0
M  V30 5960 C 1023.07 -0.491279 7.02284 0
M  V30 5961 C 1022.36 -0.996264 5.77469 0
M  V30 5962 N 1022.41 -0.0501916 4.62973 0
M  V30 5963 H 1019.57 0.374722 8.67691 0
M  V30 5964 H 1019.3 0.443485 6.90277 0
M  V30 5965 H 1020.17 -1.75537 7.96793 0
M  V30 5966 P 1024.13 -2.75334 8.47391 0
M  V30 5967 O 1024.35 -3.84128 9.44797 0
M  V30 5968 O 1024.92 -1.51947 8.68712 0
M  V30 5969 O 1024.38 -3.29363 6.99321 0
M  V30 5970 C 1023.44 -4.24011 6.4274 0
M  V30 5971 C 1024.17 -5.20775 5.52155 0
M  V30 5972 O 1024.38 -4.56534 4.22446 0
M  V30 5973 C 1025.57 -5.62629 5.96531 0
M  V30 5974 O 1025.96 -6.87667 5.41053 0
M  V30 5975 C 1026.45 -4.52537 5.39283 0
M  V30 5976 C 1025.74 -4.20027 4.08623 0
M  V30 5977 N 1025.79 -2.76189 3.71603 0
M  V30 5978 C 1025.71 -1.64862 4.52822 0
M  V30 5979 N 1025.79 -0.512671 3.88633 0
M  V30 5980 C 1025.93 -0.888083 2.54977 0
M  V30 5981 C 1026.06 -0.094668 1.38677 0
M  V30 5982 N 1026.18 -0.890102 0.232633 0
M  V30 5983 C 1026.18 -2.26958 0.21772 0
M  V30 5984 N 1026.31 -2.84626 -0.97925 0
M  V30 5985 N 1026.05 -3.0178 1.31033 0
M  V30 5986 C 1025.93 -2.26781 2.43843 0
M  V30 5987 H 1022.95 -4.797 7.24003 0
M  V30 5988 H 1022.68 -3.69856 5.84513 0
M  V30 5989 H 1023.55 -6.10356 5.41441 0
M  V30 5990 P 1027.51 -7.20834 5.23717 0
M  V30 5991 O 1027.73 -8.66104 5.38572 0
M  V30 5992 O 1028.3 -6.33544 6.1349 0
M  V30 5993 O 1027.76 -6.7751 3.72168 0
M  V30 5994 C 1026.82 -7.20825 2.7076 0
M  V30 5995 C 1027.55 -7.45864 1.40599 0
M  V30 5996 O 1027.76 -6.17651 0.734225 0
M  V30 5997 C 1028.95 -8.05808 1.51899 0
M  V30 5998 O 1029.34 -8.74358 0.335205 0
M  V30 5999 C 1029.83 -6.83093 1.70294 0
M  V30 6000 C 1029.12 -5.79992 0.836974 0
M  V30 6001 N 1029.17 -4.41864 1.38293 0
M  V30 6002 H 1026.33 -8.13644 3.0377 0
M  V30 6003 H 1026.06 -6.42788 2.55485 0
M  V30 6004 H 1026.93 -8.12039 0.792769 0
M  V30 6005 P 1030.89 -8.91 -7.81545e-12 0
M  V30 6006 O 1031.11 -10.1746 -0.733838 0
M  V30 6007 O 1031.68 -8.73346 1.23964 0
M  V30 6008 O 1031.14 -7.66872 -0.971405 0
M  V30 6009 C 1030.2 -7.42405 -2.04668 0
M  V30 6010 C 1030.93 -6.86059 -3.24661 0
M  V30 6011 O 1031.14 -5.42934 -3.03695 0
M  V30 6012 C 1032.33 -7.41287 -3.50796 0
M  V30 6013 O 1032.72 -7.27073 -4.86816 0
M  V30 6014 C 1033.21 -6.5273 -2.63741 0
M  V30 6015 C 1032.5 -5.1842 -2.73198 0
M  V30 6016 N 1032.55 -4.38762 -1.4784 0
M  V30 6017 H 1029.72 -8.36899 -2.3252 0
M  V30 6018 H 1029.44 -6.70391 -1.71179 0
M  V30 6019 H 1030.31 -7.03638 -4.13219 0
M  V30 6020 H 1032.97 -4.59931 -3.54016 0
M  V30 6021 H 1033.25 -6.88995 -1.59871 0
M  V30 6022 H 1034.24 -6.4684 -3.0373 0
M  V30 6023 H 1032.4 -8.47002 -3.20749 0
M  V30 6024 P 1034.27 -7.20834 -5.23717 0
M  V30 6025 O 1034.49 -7.79853 -6.57286 0
M  V30 6026 O 1035.06 -7.79239 -4.12957 0
M  V30 6027 O 1034.52 -5.63315 -5.29344 0
M  V30 6028 C 1033.58 -4.80255 -6.01876 0
M  V30 6029 C 1034.31 -3.64202 -6.65911 0
M  V30 6030 O 1034.52 -2.60694 -5.64732 0
M  V30 6031 C 1035.71 -3.93473 -7.1943 0
M  V30 6032 O 1036.1 -3.02071 -8.21205 0
M  V30 6033 C 1036.59 -3.73047 -5.97036 0
M  V30 6034 C 1035.88 -2.58828 -5.25741 0
M  V30 6035 N 1035.93 -2.68068 -3.77503 0
M  V30 6036 H 1033.09 -5.40332 -6.79951 0
M  V30 6037 H 1032.82 -4.41613 -5.32378 0
M  V30 6038 H 1033.69 -3.26331 -7.47797 0
M  V30 6039 P 1037.65 -2.75334 -8.47391 0
M  V30 6040 O 1037.87 -2.44595 -9.90239 0
M  V30 6041 O 1038.44 -3.87732 -7.92204 0
M  V30 6042 O 1037.9 -1.4459 -7.59357 0
M  V30 6043 C 1036.96 -0.347563 -7.69115 0
M  V30 6044 C 1037.69 0.96767 -7.52806 0
M  V30 6045 O 1037.9 1.21036 -6.1011 0
M  V30 6046 C 1039.09 1.04544 -8.13308 0
M  V30 6047 O 1039.48 2.38311 -8.41922 0
M  V30 6048 C 1039.97 0.491279 -7.02284 0
M  V30 6049 C 1039.26 0.996264 -5.77469 0
M  V30 6050 N 1039.31 0.0501808 -4.62873 0
M  V30 6051 C 1039.46 0.588177 -3.36904 0
M  V30 6052 O 1039.55 1.78598 -3.17173 0
M  V30 6053 N 1039.5 -0.329694 -2.33686 0
M  V30 6054 C 1039.41 -1.6953 -2.45079 0
M  V30 6055 O 1039.46 -2.41926 -1.44899 0
M  V30 6056 C 1039.26 -2.16933 -3.80505 0
M  V30 6057 C 1039.15 -3.65373 -3.97621 0
M  V30 6058 C 1039.21 -1.30326 -4.83752 0
M  V30 6059 H 1036.47 -0.374722 -8.67691 0
M  V30 6060 H 1036.2 -0.443421 -6.90177 0
M  V30 6061 H 1037.07 1.75537 -7.96793 0
M  V30 6062 H 1039.73 1.94496 -5.46629 0
M  V30 6063 H 1040.01 -0.608651 -7.04676 0
M  V30 6064 H 1041 0.889672 -7.08939 0
M  V30 6065 H 1039.16 0.43308 -9.04564 0
M  V30 6066 H 1039.09 -1.68366 -5.8516 0
M  V30 6067 H 1040.12 -4.05985 -4.30448 0
M  V30 6068 H 1038.39 -3.88028 -4.72875 0
M  V30 6069 H 1038.87 -4.11381 -3.01609 0
M  V30 6070 H 1039.61 0.0393617 -1.41345 0
M  V30 6071 P 1041.03 2.75334 -8.47391 0
M  V30 6072 O 1041.25 3.84128 -9.44797 0
M  V30 6073 O 1041.82 1.51947 -8.68712 0
M  V30 6074 O 1041.28 3.29363 -6.99321 0
M  V30 6075 C 1040.34 4.24011 -6.4274 0
M  V30 6076 C 1041.07 5.20775 -5.52155 0
M  V30 6077 O 1041.28 4.56534 -4.22446 0
M  V30 6078 C 1042.47 5.62629 -5.96531 0
M  V30 6079 O 1042.86 6.87667 -5.41053 0
M  V30 6080 C 1043.35 4.52537 -5.39283 0
M  V30 6081 C 1042.64 4.20027 -4.08623 0
M  V30 6082 N 1042.69 2.76189 -3.71603 0
M  V30 6083 C 1042.61 1.64862 -4.52822 0
M  V30 6084 N 1042.69 0.512671 -3.88633 0
M  V30 6085 C 1042.83 0.888083 -2.54977 0
M  V30 6086 C 1042.96 0.094668 -1.38677 0
M  V30 6087 N 1043.08 0.890102 -0.232633 0
M  V30 6088 C 1043.08 2.26958 -0.21772 0
M  V30 6089 N 1043.21 2.84626 0.97925 0
M  V30 6090 N 1042.95 3.0178 -1.31033 0
M  V30 6091 C 1042.83 2.26781 -2.43843 0
M  V30 6092 H 1039.85 4.797 -7.24003 0
M  V30 6093 H 1039.58 3.69856 -5.84513 0
M  V30 6094 H 1040.45 6.10356 -5.41441 0
M  V30 6095 P 1044.41 7.20834 -5.23717 0
M  V30 6096 O 1044.63 8.66104 -5.38572 0
M  V30 6097 O 1045.2 6.33544 -6.1349 0
M  V30 6098 O 1044.66 6.7751 -3.72168 0
M  V30 6099 C 1043.72 7.20825 -2.7076 0
M  V30 6100 C 1044.45 7.45864 -1.40599 0
M  V30 6101 O 1044.66 6.17651 -0.734225 0
M  V30 6102 C 1045.85 8.05808 -1.51899 0
M  V30 6103 O 1046.24 8.74358 -0.335205 0
M  V30 6104 C 1046.73 6.83093 -1.70294 0
M  V30 6105 C 1046.02 5.79992 -0.836974 0
M  V30 6106 N 1046.07 4.41864 -1.38293 0
M  V30 6107 H 1043.23 8.13644 -3.0377 0
M  V30 6108 H 1042.96 6.42788 -2.55485 0
M  V30 6109 H 1043.83 8.12039 -0.792769 0
M  V30 6110 P 1047.79 8.91 7.97264e-12 0
M  V30 6111 O 1048.01 10.1726 0.733694 0
M  V30 6112 O 1048.58 8.73148 -1.23936 0
M  V30 6113 O 1048.04 7.66872 0.971405 0
M  V30 6114 C 1047.1 7.42309 2.04641 0
M  V30 6115 C 1047.83 6.86059 3.24661 0
M  V30 6116 O 1048.04 5.42847 3.03646 0
M  V30 6117 C 1049.23 7.41196 3.50753 0
M  V30 6118 O 1049.62 7.27073 4.86816 0
M  V30 6119 C 1050.11 6.5273 2.63741 0
M  V30 6120 C 1049.4 5.1842 2.73198 0
M  V30 6121 N 1049.45 4.38762 1.4784 0
M  V30 6122 C 1049.37 4.81605 0.168631 0
M  V30 6123 N 1049.45 3.85454 -0.713363 0
M  V30 6124 C 1049.59 2.6994 0.0566958 0
M  V30 6125 C 1049.72 1.34815 -0.338502 0
M  V30 6126 N 1049.84 0.496304 0.77465 0
M  V30 6127 C 1049.84 0.908403 2.09122 0
M  V30 6128 N 1049.97 -0.0517805 3.00955 0
M  V30 6129 N 1049.71 2.17875 2.46519 0
M  V30 6130 C 1049.59 3.01988 1.4033 0
M  V30 6131 H 1046.61 8.36803 2.32493 0
M  V30 6132 H 1046.34 6.70197 1.71129 0
M  V30 6133 H 1047.21 7.03551 4.13168 0
M  V30 6134 P 1051.17 7.20834 5.23717 0
M  V30 6135 O 1051.39 7.80006 6.57415 0
M  V30 6136 O 1051.96 7.79416 4.13051 0
M  V30 6137 O 1051.42 5.63315 5.29344 0
M  V30 6138 C 1050.48 4.80318 6.01954 0
M  V30 6139 C 1051.21 3.64202 6.65911 0
M  V30 6140 O 1051.42 2.60736 5.64823 0
M  V30 6141 C 1052.61 3.93521 7.19518 0
M  V30 6142 O 1053 3.02071 8.21205 0
M  V30 6143 C 1053.49 3.73047 5.97036 0
M  V30 6144 C 1052.78 2.58828 5.25741 0
M  V30 6145 N 1052.83 2.68068 3.77503 0
M  V30 6146 C 1052.75 3.80474 2.99159 0
M  V30 6147 N 1052.82 3.55622 1.71925 0
M  V30 6148 C 1052.97 2.1832 1.65733 0
M  V30 6149 C 1053.1 1.28842 0.572777 0
M  V30 6150 N 1053.11 1.66875 -0.70098 0
M  V30 6151 N 1053.22 -0.016788 0.859836 0
M  V30 6152 C 1053.21 -0.398145 2.13316 0
M  V30 6153 N 1053.09 0.328224 3.22333 0
M  V30 6154 C 1052.97 1.62992 2.90383 0
M  V30 6155 H 1050 5.40394 6.8003 0
M  V30 6156 H 1049.72 4.41741 5.32532 0
M  V30 6157 H 1050.59 3.26371 7.47889 0
M  V30 6158 H 1053.25 1.64007 5.56746 0
M  V30 6159 H 1053.53 4.63439 5.3432 0
M  V30 6160 H 1054.52 3.44776 6.25925 0
M  V30 6161 H 1052.68 4.96707 7.57347 0
M  V30 6162 H 1052.64 4.8089 3.39924 0
M  V30 6163 H 1053.02 2.66547 -0.941919 0
M  V30 6164 H 1053.21 0.965341 -1.44766 0
M  V30 6165 H 1053.32 -1.46427 2.29697 0
M  V30 6166 P 1054.55 2.75334 8.47391 0
M  V30 6167 O 1054.77 2.44571 9.90142 0
M  V30 6168 O 1055.34 3.87688 7.92115 0
M  V30 6169 O 1054.8 1.4459 7.59357 0
M  V30 6170 C 1053.86 0.347608 7.69215 0
M  V30 6171 C 1054.59 -0.96767 7.52806 0
M  V30 6172 O 1054.8 -1.21036 6.1011 0
M  V30 6173 C 1055.99 -1.04544 8.13308 0
M  V30 6174 O 1056.38 -2.38311 8.41922 0
M  V30 6175 C 1056.87 -0.491279 7.02284 0
M  V30 6176 C 1056.16 -0.996264 5.77469 0
M  V30 6177 N 1056.21 -0.0501916 4.62973 0
M  V30 6178 H 1053.37 0.374722 8.67691 0
M  V30 6179 H 1053.1 0.443485 6.90277 0
M  V30 6180 H 1053.97 -1.75537 7.96793 0
M  V30 6181 P 1057.93 -2.75334 8.47391 0
M  V30 6182 O 1058.15 -3.84204 9.44982 0
M  V30 6183 O 1058.72 -1.51982 8.68909 0
M  V30 6184 O 1058.18 -3.29363 6.99321 0
M  V30 6185 C 1057.24 -4.24066 6.42823 0
M  V30 6186 C 1057.97 -5.20775 5.52155 0
M  V30 6187 O 1058.18 -4.56607 4.22514 0
M  V30 6188 C 1059.37 -5.62697 5.96604 0
M  V30 6189 O 1059.76 -6.87667 5.41053 0
M  V30 6190 C 1060.25 -4.52537 5.39283 0
M  V30 6191 C 1059.54 -4.20027 4.08623 0
M  V30 6192 N 1059.59 -2.76189 3.71603 0
M  V30 6193 C 1059.51 -1.66944 4.54297 0
M  V30 6194 N 1059.58 -0.536169 3.91344 0
M  V30 6195 C 1059.73 -0.901569 2.58849 0
M  V30 6196 C 1059.86 -0.146599 1.40236 0
M  V30 6197 N 1059.87 1.18234 1.37046 0
M  V30 6198 N 1059.98 -0.822941 0.249738 0
M  V30 6199 C 1059.97 -2.15179 0.280525 0
M  V30 6200 N 1059.85 -2.96414 1.30822 0
M  V30 6201 C 1059.73 -2.25804 2.44748 0
M  V30 6202 H 1056.76 -4.79756 7.24086 0
M  V30 6203 H 1056.48 -3.69963 5.84682 0
M  V30 6204 H 1057.35 -6.10431 5.41508 0
M  V30 6205 H 1060.01 -4.78816 3.28024 0
M  V30 6206 H 1060.29 -3.64957 6.05871 0
M  V30 6207 H 1061.28 -4.88748 5.21323 0
M  V30 6208 H 1059.44 -5.66789 7.0643 0
M  V30 6209 H 1059.4 -1.74684 5.62396 0
M  V30 6210 H 1059.78 1.71949 2.24394 0
M  V30 6211 H 1059.97 1.67511 0.470742 0
M  V30 6212 H 1060.08 -2.63704 -0.6828 0
M  V30 6213 P 1061.31 -7.20834 5.23717 0
M  V30 6214 O 1061.53 -8.66104 5.38572 0
M  V30 6215 O 1062.1 -6.33544 6.1349 0
M  V30 6216 O 1061.56 -6.7751 3.72168 0
M  V30 6217 C 1060.62 -7.20825 2.7076 0
M  V30 6218 C 1061.35 -7.45864 1.40599 0
M  V30 6219 O 1061.56 -6.17651 0.734225 0
M  V30 6220 C 1062.75 -8.05808 1.51899 0
M  V30 6221 O 1063.14 -8.74358 0.335205 0
M  V30 6222 C 1063.63 -6.83093 1.70294 0
M  V30 6223 C 1062.92 -5.79992 0.836974 0
M  V30 6224 N 1062.97 -4.41864 1.38293 0
M  V30 6225 H 1060.13 -8.13644 3.0377 0
M  V30 6226 H 1059.86 -6.42788 2.55485 0
M  V30 6227 H 1060.73 -8.12039 0.792769 0
M  V30 6228 P 1064.69 -8.91 -8.12982e-12 0
M  V30 6229 O 1064.91 -10.1736 -0.733766 0
M  V30 6230 O 1065.48 -8.73247 1.2395 0
M  V30 6231 O 1064.94 -7.66872 -0.971405 0
M  V30 6232 C 1064 -7.42212 -2.04614 0
M  V30 6233 C 1064.73 -6.86059 -3.24661 0
M  V30 6234 O 1064.94 -5.42847 -3.03646 0
M  V30 6235 C 1066.13 -7.41196 -3.50753 0
M  V30 6236 O 1066.52 -7.27073 -4.86816 0
M  V30 6237 C 1067.01 -6.5273 -2.63741 0
M  V30 6238 C 1066.3 -5.1842 -2.73198 0
M  V30 6239 N 1066.35 -4.38668 -1.47808 0
M  V30 6240 C 1066.5 -3.02239 -1.60048 0
M  V30 6241 O 1066.59 -2.46459 -2.67869 0
M  V30 6242 N 1066.54 -2.32436 -0.408571 0
M  V30 6243 C 1066.45 -2.85471 0.854993 0
M  V30 6244 C 1066.3 -4.28918 0.887335 0
M  V30 6245 C 1066.25 -5.00349 -0.255399 0
M  V30 6246 H 1063.51 -8.36803 -2.32493 0
M  V30 6247 H 1063.24 -6.701 -1.71105 0
M  V30 6248 H 1064.11 -7.03551 -4.13168 0
M  V30 6249 H 1066.77 -4.59773 -3.53894 0
M  V30 6250 H 1067.05 -6.88995 -1.59871 0
M  V30 6251 H 1068.04 -6.46749 -3.03687 0
M  V30 6252 H 1066.2 -8.46908 -3.20714 0
M  V30 6253 H 1066.13 -6.08548 -0.206986 0
M  V30 6254 P 1068.07 -7.20834 -5.23717 0
M  V30 6255 O 1068.29 -7.79853 -6.57286 0
M  V30 6256 O 1068.86 -7.79239 -4.12957 0
M  V30 6257 O 1068.32 -5.63315 -5.29344 0
M  V30 6258 C 1067.38 -4.80255 -6.01876 0
M  V30 6259 C 1068.11 -3.64202 -6.65911 0
M  V30 6260 O 1068.32 -2.60694 -5.64732 0
M  V30 6261 C 1069.51 -3.93473 -7.1943 0
M  V30 6262 O 1069.9 -3.02071 -8.21205 0
M  V30 6263 C 1070.39 -3.73047 -5.97036 0
M  V30 6264 C 1069.68 -2.58828 -5.25741 0
M  V30 6265 N 1069.73 -2.68068 -3.77503 0
M  V30 6266 H 1066.89 -5.40332 -6.79951 0
M  V30 6267 H 1066.62 -4.41613 -5.32378 0
M  V30 6268 H 1067.49 -3.26331 -7.47797 0
M  V30 6269 P 1071.45 -2.75334 -8.47391 0
M  V30 6270 O 1071.67 -2.44571 -9.90142 0
M  V30 6271 O 1072.24 -3.87688 -7.92115 0
M  V30 6272 O 1071.7 -1.4459 -7.59357 0
M  V30 6273 C 1070.76 -0.347608 -7.69215 0
M  V30 6274 C 1071.49 0.96767 -7.52806 0
M  V30 6275 O 1071.7 1.21036 -6.1011 0
M  V30 6276 C 1072.89 1.04544 -8.13308 0
M  V30 6277 O 1073.28 2.38311 -8.41922 0
M  V30 6278 C 1073.77 0.491279 -7.02284 0
M  V30 6279 C 1073.06 0.996264 -5.77469 0
M  V30 6280 N 1073.11 0.0501916 -4.62973 0
M  V30 6281 H 1070.27 -0.374722 -8.67691 0
M  V30 6282 H 1070 -0.443485 -6.90277 0
M  V30 6283 H 1070.87 1.75537 -7.96793 0
M  V30 6284 P 1074.83 2.75334 -8.47391 0
M  V30 6285 O 1075.05 3.84128 -9.44797 0
M  V30 6286 O 1075.62 1.51947 -8.68712 0
M  V30 6287 O 1075.08 3.29363 -6.99321 0
M  V30 6288 C 1074.14 4.24011 -6.4274 0
M  V30 6289 C 1074.87 5.20775 -5.52155 0
M  V30 6290 O 1075.08 4.56534 -4.22446 0
M  V30 6291 C 1076.27 5.62629 -5.96531 0
M  V30 6292 O 1076.66 6.87667 -5.41053 0
M  V30 6293 C 1077.15 4.52537 -5.39283 0
M  V30 6294 C 1076.44 4.20027 -4.08623 0
M  V30 6295 N 1076.49 2.76189 -3.71603 0
M  V30 6296 H 1073.65 4.797 -7.24003 0
M  V30 6297 H 1073.38 3.69856 -5.84513 0
M  V30 6298 H 1074.25 6.10356 -5.41441 0
M  V30 6299 P 1078.21 7.20834 -5.23717 0
M  V30 6300 O 1078.43 8.66104 -5.38572 0
M  V30 6301 O 1079 6.33544 -6.1349 0
M  V30 6302 O 1078.46 6.7751 -3.72168 0
M  V30 6303 C 1077.52 7.20825 -2.7076 0
M  V30 6304 C 1078.25 7.45864 -1.40599 0
M  V30 6305 O 1078.46 6.17651 -0.734225 0
M  V30 6306 C 1079.65 8.05808 -1.51899 0
M  V30 6307 O 1080.04 8.74358 -0.335205 0
M  V30 6308 C 1080.53 6.83093 -1.70294 0
M  V30 6309 C 1079.82 5.79992 -0.836974 0
M  V30 6310 N 1079.87 4.41864 -1.38293 0
M  V30 6311 H 1077.03 8.13644 -3.0377 0
M  V30 6312 H 1076.76 6.42788 -2.55485 0
M  V30 6313 H 1077.63 8.12039 -0.792769 0
M  V30 6314 P 1081.59 8.91 8.287e-12 0
M  V30 6315 O 1081.81 10.1726 0.733694 0
M  V30 6316 O 1082.38 8.73148 -1.23936 0
M  V30 6317 O 1081.84 7.66872 0.971405 0
M  V30 6318 C 1080.9 7.42309 2.04641 0
M  V30 6319 C 1081.63 6.86059 3.24661 0
M  V30 6320 O 1081.84 5.42847 3.03646 0
M  V30 6321 C 1083.03 7.41196 3.50753 0
M  V30 6322 O 1083.42 7.27073 4.86816 0
M  V30 6323 C 1083.91 6.5273 2.63741 0
M  V30 6324 C 1083.2 5.1842 2.73198 0
M  V30 6325 N 1083.25 4.38762 1.4784 0
M  V30 6326 H 1080.41 8.36803 2.32493 0
M  V30 6327 H 1080.14 6.70197 1.71129 0
M  V30 6328 H 1081.01 7.03551 4.13168 0
M  V30 6329 P 1084.97 7.20834 5.23717 0
M  V30 6330 O 1085.19 7.80006 6.57415 0
M  V30 6331 O 1085.76 7.79416 4.13051 0
M  V30 6332 O 1085.22 5.63315 5.29344 0
M  V30 6333 C 1084.28 4.80318 6.01954 0
M  V30 6334 C 1085.01 3.64202 6.65911 0
M  V30 6335 O 1085.22 2.60736 5.64823 0
M  V30 6336 C 1086.41 3.93521 7.19518 0
M  V30 6337 O 1086.8 3.02071 8.21205 0
M  V30 6338 C 1087.29 3.73047 5.97036 0
M  V30 6339 C 1086.58 2.58828 5.25741 0
M  V30 6340 N 1086.63 2.68068 3.77503 0
M  V30 6341 C 1086.55 3.80474 2.99159 0
M  V30 6342 N 1086.62 3.55622 1.71925 0
M  V30 6343 C 1086.77 2.1832 1.65733 0
M  V30 6344 C 1086.9 1.28842 0.572777 0
M  V30 6345 N 1086.91 1.66875 -0.70098 0
M  V30 6346 N 1087.02 -0.016788 0.859836 0
M  V30 6347 C 1087.01 -0.398145 2.13316 0
M  V30 6348 N 1086.89 0.328224 3.22333 0
M  V30 6349 C 1086.77 1.62992 2.90383 0
M  V30 6350 H 1083.8 5.40394 6.8003 0
M  V30 6351 H 1083.52 4.41741 5.32532 0
M  V30 6352 H 1084.39 3.26371 7.47889 0
M  V30 6353 H 1087.05 1.64007 5.56746 0
M  V30 6354 H 1087.33 4.63439 5.3432 0
M  V30 6355 H 1088.32 3.44776 6.25925 0
M  V30 6356 H 1086.48 4.96707 7.57347 0
M  V30 6357 H 1086.44 4.8089 3.39924 0
M  V30 6358 H 1086.82 2.66547 -0.941919 0
M  V30 6359 H 1087.01 0.965341 -1.44766 0
M  V30 6360 H 1087.12 -1.46427 2.29697 0
M  V30 6361 P 1088.35 2.75334 8.47391 0
M  V30 6362 O 1088.57 2.44571 9.90142 0
M  V30 6363 O 1089.14 3.87688 7.92115 0
M  V30 6364 O 1088.6 1.4459 7.59357 0
M  V30 6365 C 1087.66 0.347608 7.69215 0
M  V30 6366 C 1088.39 -0.96767 7.52806 0
M  V30 6367 O 1088.6 -1.21036 6.1011 0
M  V30 6368 C 1089.79 -1.04544 8.13308 0
M  V30 6369 O 1090.18 -2.38311 8.41922 0
M  V30 6370 C 1090.67 -0.491279 7.02284 0
M  V30 6371 C 1089.96 -0.996264 5.77469 0
M  V30 6372 N 1090.01 -0.0501916 4.62973 0
M  V30 6373 H 1087.17 0.374722 8.67691 0
M  V30 6374 H 1086.9 0.443485 6.90277 0
M  V30 6375 H 1087.77 -1.75537 7.96793 0
M  V30 6376 P 1091.73 -2.75334 8.47391 0
M  V30 6377 O 1091.95 -3.84128 9.44797 0
M  V30 6378 O 1092.52 -1.51947 8.68712 0
M  V30 6379 O 1091.98 -3.29363 6.99321 0
M  V30 6380 C 1091.04 -4.24011 6.4274 0
M  V30 6381 C 1091.77 -5.20775 5.52155 0
M  V30 6382 O 1091.98 -4.56534 4.22446 0
M  V30 6383 C 1093.17 -5.62629 5.96531 0
M  V30 6384 O 1093.56 -6.87667 5.41053 0
M  V30 6385 C 1094.05 -4.52537 5.39283 0
M  V30 6386 C 1093.34 -4.20027 4.08623 0
M  V30 6387 N 1093.39 -2.76189 3.71603 0
M  V30 6388 C 1093.31 -1.64862 4.52822 0
M  V30 6389 N 1093.39 -0.512671 3.88633 0
M  V30 6390 C 1093.53 -0.888083 2.54977 0
M  V30 6391 C 1093.66 -0.094668 1.38677 0
M  V30 6392 N 1093.78 -0.890102 0.232633 0
M  V30 6393 C 1093.78 -2.26958 0.21772 0
M  V30 6394 N 1093.91 -2.84626 -0.97925 0
M  V30 6395 N 1093.65 -3.0178 1.31033 0
M  V30 6396 C 1093.53 -2.26781 2.43843 0
M  V30 6397 H 1090.55 -4.797 7.24003 0
M  V30 6398 H 1090.28 -3.69856 5.84513 0
M  V30 6399 H 1091.15 -6.10356 5.41441 0
M  V30 6400 P 1095.11 -7.20834 5.23717 0
M  V30 6401 O 1095.33 -8.66274 5.38678 0
M  V30 6402 O 1095.9 -6.33687 6.13629 0
M  V30 6403 O 1095.36 -6.7751 3.72168 0
M  V30 6404 C 1094.42 -7.20919 2.70795 0
M  V30 6405 C 1095.15 -7.45864 1.40599 0
M  V30 6406 O 1095.36 -6.17751 0.734343 0
M  V30 6407 C 1096.55 -8.05906 1.51917 0
M  V30 6408 O 1096.94 -8.74358 0.335205 0
M  V30 6409 C 1097.43 -6.83093 1.70294 0
M  V30 6410 C 1096.72 -5.79992 0.836974 0
M  V30 6411 N 1096.77 -4.41864 1.38293 0
M  V30 6412 C 1096.69 -4.02089 2.69407 0
M  V30 6413 N 1096.76 -2.73403 2.85089 0
M  V30 6414 C 1096.91 -2.25086 1.5642 0
M  V30 6415 C 1097.04 -0.942887 1.04836 0
M  V30 6416 N 1097.05 0.150999 1.80369 0
M  V30 6417 N 1097.16 -0.812565 -0.28167 0
M  V30 6418 C 1097.15 -1.90572 -1.03784 0
M  V30 6419 N 1097.03 -3.167 -0.683905 0
M  V30 6420 C 1096.91 -3.26538 0.652815 0
M  V30 6421 H 1093.94 -8.13738 3.03804 0
M  V30 6422 H 1093.66 -6.42974 2.55559 0
M  V30 6423 H 1094.53 -8.12139 0.792866 0
M  V30 6424 H 1097.19 -5.80178 -0.160643 0
M  V30 6425 H 1097.47 -6.51379 2.75643 0
M  V30 6426 H 1098.46 -7.01832 1.3448 0
M  V30 6427 H 1096.62 -8.73771 2.38364 0
M  V30 6428 H 1096.58 -4.7189 3.52311 0
M  V30 6429 H 1096.96 0.0721434 2.82608 0
M  V30 6430 H 1097.15 1.0785 1.36544 0
M  V30 6431 H 1097.26 -1.73207 -2.10241 0
M  V30 6432 P 1098.49 -8.91 -8.44418e-12 0
M  V30 6433 O 1098.71 -10.1726 -0.733694 0
M  V30 6434 O 1099.28 -8.73148 1.23936 0
M  V30 6435 O 1098.74 -7.66872 -0.971405 0
M  V30 6436 C 1097.8 -7.42309 -2.04641 0
M  V30 6437 C 1098.53 -6.86059 -3.24661 0
M  V30 6438 O 1098.74 -5.42847 -3.03646 0
M  V30 6439 C 1099.93 -7.41196 -3.50753 0
M  V30 6440 O 1100.32 -7.27073 -4.86816 0
M  V30 6441 C 1100.81 -6.5273 -2.63741 0
M  V30 6442 C 1100.1 -5.1842 -2.73198 0
M  V30 6443 N 1100.15 -4.38762 -1.4784 0
M  V30 6444 C 1100.07 -4.81605 -0.168631 0
M  V30 6445 N 1100.15 -3.85454 0.713363 0
M  V30 6446 C 1100.29 -2.6994 -0.0566958 0
M  V30 6447 C 1100.42 -1.34815 0.338502 0
M  V30 6448 O 1100.44 -0.869548 1.47125 0
M  V30 6449 N 1100.54 -0.496304 -0.77465 0
M  V30 6450 C 1100.54 -0.908403 -2.09122 0
M  V30 6451 N 1100.67 0.0517805 -3.00955 0
M  V30 6452 N 1100.41 -2.17875 -2.46519 0
M  V30 6453 C 1100.29 -3.01988 -1.4033 0
M  V30 6454 H 1097.31 -8.36803 -2.32493 0
M  V30 6455 H 1097.04 -6.70197 -1.71129 0
M  V30 6456 H 1097.91 -7.03551 -4.13168 0
M  V30 6457 H 1100.57 -4.59498 -3.54415 0
M  V30 6458 H 1100.85 -6.88898 -1.59848 0
M  V30 6459 H 1101.84 -6.46749 -3.03687 0
M  V30 6460 H 1100 -8.46908 -3.20714 0
M  V30 6461 H 1099.95 -5.86405 0.105564 0
M  V30 6462 H 1100.64 0.483664 -0.597855 0
M  V30 6463 H 1100.67 -0.187865 -4.0116 0
M  V30 6464 H 1100.77 1.03585 -2.71726 0
M  V30 6465 P 1101.87 -7.20834 -5.23717 0
M  V30 6466 O 1102.09 -7.79853 -6.57286 0
M  V30 6467 O 1102.66 -7.79239 -4.12957 0
M  V30 6468 O 1102.12 -5.63315 -5.29344 0
M  V30 6469 C 1101.18 -4.80255 -6.01876 0
M  V30 6470 C 1101.91 -3.64202 -6.65911 0
M  V30 6471 O 1102.12 -2.60694 -5.64732 0
M  V30 6472 C 1103.31 -3.93473 -7.1943 0
M  V30 6473 O 1103.7 -3.02071 -8.21205 0
M  V30 6474 C 1104.19 -3.73047 -5.97036 0
M  V30 6475 C 1103.48 -2.58828 -5.25741 0
M  V30 6476 N 1103.53 -2.68068 -3.77503 0
M  V30 6477 H 1100.69 -5.40332 -6.79951 0
M  V30 6478 H 1100.42 -4.41613 -5.32378 0
M  V30 6479 H 1101.29 -3.26331 -7.47797 0
M  V30 6480 P 1105.25 -2.75334 -8.47391 0
M  V30 6481 O 1105.47 -2.44571 -9.90142 0
M  V30 6482 O 1106.04 -3.87688 -7.92115 0
M  V30 6483 O 1105.5 -1.4459 -7.59357 0
M  V30 6484 C 1104.56 -0.347608 -7.69215 0
M  V30 6485 C 1105.29 0.96767 -7.52806 0
M  V30 6486 O 1105.5 1.21036 -6.1011 0
M  V30 6487 C 1106.69 1.04544 -8.13308 0
M  V30 6488 O 1107.08 2.38311 -8.41922 0
M  V30 6489 C 1107.57 0.491279 -7.02284 0
M  V30 6490 C 1106.86 0.996264 -5.77469 0
M  V30 6491 N 1106.91 0.0501916 -4.62973 0
M  V30 6492 H 1104.07 -0.374722 -8.67691 0
M  V30 6493 H 1103.8 -0.443485 -6.90277 0
M  V30 6494 H 1104.67 1.75537 -7.96793 0
M  V30 6495 P 1108.63 2.75334 -8.47391 0
M  V30 6496 O 1108.85 3.84128 -9.44797 0
M  V30 6497 O 1109.42 1.51947 -8.68712 0
M  V30 6498 O 1108.88 3.29363 -6.99321 0
M  V30 6499 C 1107.94 4.24011 -6.4274 0
M  V30 6500 C 1108.67 5.20775 -5.52155 0
M  V30 6501 O 1108.88 4.56534 -4.22446 0
M  V30 6502 C 1110.07 5.62629 -5.96531 0
M  V30 6503 O 1110.46 6.87667 -5.41053 0
M  V30 6504 C 1110.95 4.52537 -5.39283 0
M  V30 6505 C 1110.24 4.20027 -4.08623 0
M  V30 6506 N 1110.29 2.76189 -3.71603 0
M  V30 6507 H 1107.45 4.797 -7.24003 0
M  V30 6508 H 1107.18 3.69856 -5.84513 0
M  V30 6509 H 1108.05 6.10356 -5.41441 0
M  V30 6510 P 1112.01 7.20834 -5.23717 0
M  V30 6511 O 1112.23 8.66104 -5.38572 0
M  V30 6512 O 1112.8 6.33544 -6.1349 0
M  V30 6513 O 1112.26 6.7751 -3.72168 0
M  V30 6514 C 1111.32 7.20825 -2.7076 0
M  V30 6515 C 1112.05 7.45864 -1.40599 0
M  V30 6516 O 1112.26 6.17651 -0.734225 0
M  V30 6517 C 1113.45 8.05808 -1.51899 0
M  V30 6518 O 1113.84 8.74358 -0.335205 0
M  V30 6519 C 1114.33 6.83093 -1.70294 0
M  V30 6520 C 1113.62 5.79992 -0.836974 0
M  V30 6521 N 1113.67 4.41864 -1.38293 0
M  V30 6522 H 1110.83 8.13644 -3.0377 0
M  V30 6523 H 1110.56 6.42788 -2.55485 0
M  V30 6524 H 1111.43 8.12039 -0.792769 0
M  V30 6525 P 1115.39 8.91 8.60137e-12 0
M  V30 6526 O 1115.61 10.1726 0.733694 0
M  V30 6527 O 1116.18 8.73148 -1.23936 0
M  V30 6528 O 1115.64 7.66872 0.971405 0
M  V30 6529 C 1114.7 7.42309 2.04641 0
M  V30 6530 C 1115.43 6.86059 3.24661 0
M  V30 6531 O 1115.64 5.42847 3.03646 0
M  V30 6532 C 1116.83 7.41196 3.50753 0
M  V30 6533 O 1117.22 7.27073 4.86816 0
M  V30 6534 C 1117.71 6.5273 2.63741 0
M  V30 6535 C 1117 5.1842 2.73198 0
M  V30 6536 N 1117.05 4.38762 1.4784 0
M  V30 6537 H 1114.21 8.36803 2.32493 0
M  V30 6538 H 1113.94 6.70197 1.71129 0
M  V30 6539 H 1114.81 7.03551 4.13168 0
M  V30 6540 P 1118.77 7.20834 5.23717 0
M  V30 6541 O 1118.99 7.79853 6.57286 0
M  V30 6542 O 1119.56 7.79239 4.12957 0
M  V30 6543 O 1119.02 5.63315 5.29344 0
M  V30 6544 C 1118.08 4.80255 6.01876 0
M  V30 6545 C 1118.81 3.64202 6.65911 0
M  V30 6546 O 1119.02 2.60694 5.64732 0
M  V30 6547 C 1120.21 3.93473 7.1943 0
M  V30 6548 O 1120.6 3.02071 8.21205 0
M  V30 6549 C 1121.09 3.73047 5.97036 0
M  V30 6550 C 1120.38 2.58828 5.25741 0
M  V30 6551 N 1120.43 2.68068 3.77503 0
M  V30 6552 C 1120.35 3.79715 2.96723 0
M  V30 6553 N 1120.43 3.5377 1.68852 0
M  V30 6554 C 1120.57 2.15054 1.63254 0
M  V30 6555 C 1120.7 1.28964 0.518571 0
M  V30 6556 O 1120.72 1.56826 -0.679156 0
M  V30 6557 N 1120.82 -0.0538097 0.918425 0
M  V30 6558 C 1120.82 -0.494275 2.22578 0
M  V30 6559 N 1120.95 -1.81086 2.40434 0
M  V30 6560 N 1120.69 0.313645 3.27502 0
M  V30 6561 C 1120.57 1.61829 2.91033 0
M  V30 6562 H 1117.59 5.40332 6.79951 0
M  V30 6563 H 1117.32 4.41613 5.32378 0
M  V30 6564 H 1118.19 3.26331 7.47797 0
M  V30 6565 H 1120.85 1.63422 5.56814 0
M  V30 6566 H 1121.13 4.63374 5.34244 0
M  V30 6567 H 1122.12 3.44728 6.25838 0
M  V30 6568 H 1120.28 4.96652 7.57263 0
M  V30 6569 H 1120.23 4.80617 3.3614 0
M  V30 6570 H 1120.92 -0.742702 0.199384 0
M  V30 6571 H 1120.95 -2.20598 3.35588 0
M  V30 6572 H 1121.05 -2.43518 1.58945 0
M  V30 6573 P 1122.15 2.75334 8.47391 0
M  V30 6574 O 1122.37 2.44571 9.90142 0
M  V30 6575 O 1122.94 3.87688 7.92115 0
M  V30 6576 O 1122.4 1.4459 7.59357 0
M  V30 6577 C 1121.46 0.347608 7.69215 0
M  V30 6578 C 1122.19 -0.96767 7.52806 0
M  V30 6579 O 1122.4 -1.21036 6.1011 0
M  V30 6580 C 1123.59 -1.04544 8.13308 0
M  V30 6581 O 1123.98 -2.38311 8.41922 0
M  V30 6582 C 1124.47 -0.491279 7.02284 0
M  V30 6583 C 1123.76 -0.996264 5.77469 0
M  V30 6584 N 1123.81 -0.0501916 4.62973 0
M  V30 6585 H 1120.97 0.374722 8.67691 0
M  V30 6586 H 1120.7 0.443485 6.90277 0
M  V30 6587 H 1121.57 -1.75537 7.96793 0
M  V30 6588 P 1125.53 -2.75334 8.47391 0
M  V30 6589 O 1125.75 -3.84204 9.44982 0
M  V30 6590 O 1126.32 -1.51982 8.68909 0
M  V30 6591 O 1125.78 -3.29363 6.99321 0
M  V30 6592 C 1124.84 -4.24066 6.42823 0
M  V30 6593 C 1125.57 -5.20775 5.52155 0
M  V30 6594 O 1125.78 -4.56607 4.22514 0
M  V30 6595 C 1126.97 -5.62697 5.96604 0
M  V30 6596 O 1127.36 -6.87667 5.41053 0
M  V30 6597 C 1127.85 -4.52537 5.39283 0
M  V30 6598 C 1127.14 -4.20027 4.08623 0
M  V30 6599 N 1127.19 -2.76189 3.71603 0
M  V30 6600 C 1127.11 -1.66944 4.54297 0
M  V30 6601 N 1127.18 -0.536169 3.91344 0
M  V30 6602 C 1127.33 -0.901569 2.58849 0
M  V30 6603 C 1127.46 -0.146599 1.40236 0
M  V30 6604 N 1127.47 1.18234 1.37046 0
M  V30 6605 N 1127.58 -0.822941 0.249738 0
M  V30 6606 C 1127.57 -2.15179 0.280525 0
M  V30 6607 N 1127.45 -2.96414 1.30822 0
M  V30 6608 C 1127.33 -2.25804 2.44748 0
M  V30 6609 H 1124.36 -4.79756 7.24086 0
M  V30 6610 H 1124.08 -3.69963 5.84682 0
M  V30 6611 H 1124.95 -6.10431 5.41508 0
M  V30 6612 H 1127.61 -4.78816 3.28024 0
M  V30 6613 H 1127.89 -3.64957 6.05871 0
M  V30 6614 H 1128.88 -4.88748 5.21323 0
M  V30 6615 H 1127.04 -5.66789 7.0643 0
M  V30 6616 H 1127 -1.74684 5.62396 0
M  V30 6617 H 1127.38 1.71949 2.24394 0
M  V30 6618 H 1127.57 1.67511 0.470742 0
M  V30 6619 H 1127.68 -2.63704 -0.6828 0
M  V30 6620 P 1128.91 -7.20834 5.23717 0
M  V30 6621 O 1129.13 -8.66274 5.38678 0
M  V30 6622 O 1129.7 -6.33687 6.13629 0
M  V30 6623 O 1129.16 -6.7751 3.72168 0
M  V30 6624 C 1128.22 -7.20919 2.70795 0
M  V30 6625 C 1128.95 -7.45864 1.40599 0
M  V30 6626 O 1129.16 -6.17751 0.734343 0
M  V30 6627 C 1130.35 -8.05906 1.51917 0
M  V30 6628 O 1130.74 -8.74358 0.335205 0
M  V30 6629 C 1131.23 -6.83093 1.70294 0
M  V30 6630 C 1130.52 -5.79992 0.836974 0
M  V30 6631 N 1130.57 -4.41864 1.38293 0
M  V30 6632 C 1130.49 -4.02089 2.69407 0
M  V30 6633 N 1130.56 -2.73403 2.85089 0
M  V30 6634 C 1130.71 -2.25086 1.5642 0
M  V30 6635 C 1130.84 -0.942887 1.04836 0
M  V30 6636 N 1130.85 0.150999 1.80369 0
M  V30 6637 N 1130.96 -0.812565 -0.28167 0
M  V30 6638 C 1130.95 -1.90572 -1.03784 0
M  V30 6639 N 1130.83 -3.167 -0.683905 0
M  V30 6640 C 1130.71 -3.26538 0.652815 0
M  V30 6641 H 1127.74 -8.13738 3.03804 0
M  V30 6642 H 1127.46 -6.42974 2.55559 0
M  V30 6643 H 1128.33 -8.12139 0.792866 0
M  V30 6644 H 1130.99 -5.80178 -0.160643 0
M  V30 6645 H 1131.27 -6.51379 2.75643 0
M  V30 6646 H 1132.26 -7.01832 1.3448 0
M  V30 6647 H 1130.42 -8.73771 2.38364 0
M  V30 6648 H 1130.38 -4.7189 3.52311 0
M  V30 6649 H 1130.76 0.0721434 2.82608 0
M  V30 6650 H 1130.95 1.0785 1.36544 0
M  V30 6651 H 1131.06 -1.73207 -2.10241 0
M  V30 6652 P 1132.29 -8.91 -8.75855e-12 0
M  V30 6653 O 1132.51 -10.1726 -0.733694 0
M  V30 6654 O 1133.08 -8.73148 1.23936 0
M  V30 6655 O 1132.54 -7.66872 -0.971405 0
M  V30 6656 C 1131.6 -7.42309 -2.04641 0
M  V30 6657 C 1132.33 -6.86059 -3.24661 0
M  V30 6658 O 1132.54 -5.42847 -3.03646 0
M  V30 6659 C 1133.73 -7.41196 -3.50753 0
M  V30 6660 O 1134.12 -7.27073 -4.86816 0
M  V30 6661 C 1134.61 -6.5273 -2.63741 0
M  V30 6662 C 1133.9 -5.1842 -2.73198 0
M  V30 6663 N 1133.95 -4.38762 -1.4784 0
M  V30 6664 H 1131.11 -8.36803 -2.32493 0
M  V30 6665 H 1130.84 -6.70197 -1.71129 0
M  V30 6666 H 1131.71 -7.03551 -4.13168 0
M  V30 6667 P 1135.67 -7.20834 -5.23717 0
M  V30 6668 O 1135.89 -7.7993 -6.57351 0
M  V30 6669 O 1136.46 -7.79328 -4.13004 0
M  V30 6670 O 1135.92 -5.63315 -5.29344 0
M  V30 6671 C 1134.98 -4.80193 -6.01798 0
M  V30 6672 C 1135.71 -3.64202 -6.65911 0
M  V30 6673 O 1135.92 -2.60694 -5.64732 0
M  V30 6674 C 1137.11 -3.93473 -7.1943 0
M  V30 6675 O 1137.5 -3.02071 -8.21205 0
M  V30 6676 C 1137.99 -3.73047 -5.97036 0
M  V30 6677 C 1137.28 -2.58828 -5.25741 0
M  V30 6678 N 1137.33 -2.6801 -3.77422 0
M  V30 6679 C 1137.48 -1.50443 -3.07133 0
M  V30 6680 O 1137.57 -0.419406 -3.61576 0
M  V30 6681 N 1137.52 -1.6403 -1.69677 0
M  V30 6682 C 1137.43 -2.81206 -0.986255 0
M  V30 6683 O 1137.48 -2.80892 0.249754 0
M  V30 6684 C 1137.28 -3.99158 -1.80325 0
M  V30 6685 C 1137.17 -5.29309 -1.06921 0
M  V30 6686 C 1137.23 -3.89779 -3.1476 0
M  V30 6687 H 1134.49 -5.40332 -6.79951 0
M  V30 6688 H 1134.22 -4.41549 -5.32301 0
M  V30 6689 H 1135.09 -3.26331 -7.47797 0
M  V30 6690 H 1137.75 -1.6395 -5.56554 0
M  V30 6691 H 1138.03 -4.63439 -5.3432 0
M  V30 6692 H 1139.02 -3.44728 -6.25838 0
M  V30 6693 H 1137.18 -4.96652 -7.57263 0
M  V30 6694 H 1137.11 -4.80159 -3.74441 0
M  V30 6695 H 1138.14 -5.81459 -1.09608 0
M  V30 6696 H 1136.41 -5.9187 -1.54487 0
M  V30 6697 H 1136.89 -5.10095 -0.0220288 0
M  V30 6698 H 1137.63 -0.798962 -1.16664 0
M  V30 6699 P 1139.05 -2.75334 -8.47391 0
M  V30 6700 O 1139.27 -2.44571 -9.90142 0
M  V30 6701 O 1139.84 -3.87688 -7.92115 0
M  V30 6702 O 1139.3 -1.4459 -7.59357 0
M  V30 6703 C 1138.36 -0.347608 -7.69215 0
M  V30 6704 C 1139.09 0.96767 -7.52806 0
M  V30 6705 O 1139.3 1.21036 -6.1011 0
M  V30 6706 C 1140.49 1.04544 -8.13308 0
M  V30 6707 O 1140.88 2.38311 -8.41922 0
M  V30 6708 C 1141.37 0.491279 -7.02284 0
M  V30 6709 C 1140.66 0.996264 -5.77469 0
M  V30 6710 N 1140.71 0.0501916 -4.62973 0
M  V30 6711 H 1137.87 -0.374722 -8.67691 0
M  V30 6712 H 1137.6 -0.443485 -6.90277 0
M  V30 6713 H 1138.47 1.75537 -7.96793 0
M  V30 6714 P 1142.43 2.75334 -8.47391 0
M  V30 6715 O 1142.65 3.84128 -9.44797 0
M  V30 6716 O 1143.22 1.51947 -8.68712 0
M  V30 6717 O 1142.68 3.29363 -6.99321 0
M  V30 6718 C 1141.74 4.24011 -6.4274 0
M  V30 6719 C 1142.47 5.20775 -5.52155 0
M  V30 6720 O 1142.68 4.56534 -4.22446 0
M  V30 6721 C 1143.87 5.62629 -5.96531 0
M  V30 6722 O 1144.26 6.87667 -5.41053 0
M  V30 6723 C 1144.75 4.52537 -5.39283 0
M  V30 6724 C 1144.04 4.20027 -4.08623 0
M  V30 6725 N 1144.09 2.76189 -3.71603 0
M  V30 6726 C 1144.01 1.64862 -4.52822 0
M  V30 6727 N 1144.09 0.512671 -3.88633 0
M  V30 6728 C 1144.23 0.888083 -2.54977 0
M  V30 6729 C 1144.36 0.094668 -1.38677 0
M  V30 6730 O 1144.38 -1.13053 -1.28163 0
M  V30 6731 N 1144.48 0.890102 -0.232633 0
M  V30 6732 C 1144.48 2.26958 -0.21772 0
M  V30 6733 N 1144.61 2.84626 0.97925 0
M  V30 6734 N 1144.35 3.0178 -1.31033 0
M  V30 6735 C 1144.23 2.26781 -2.43843 0
M  V30 6736 H 1141.25 4.797 -7.24003 0
M  V30 6737 H 1140.98 3.69856 -5.84513 0
M  V30 6738 H 1141.85 6.10356 -5.41441 0
M  V30 6739 H 1144.51 4.79061 -3.27488 0
M  V30 6740 H 1144.79 3.64906 -6.05785 0
M  V30 6741 H 1145.78 4.8868 -5.2125 0
M  V30 6742 H 1143.94 5.66726 -7.06352 0
M  V30 6743 H 1143.89 1.71169 -5.60966 0
M  V30 6744 H 1144.58 0.419134 0.644739 0
M  V30 6745 H 1144.61 3.87332 1.06098 0
M  V30 6746 H 1144.71 2.26417 1.82483 0
M  V30 6747 P 1145.81 7.20834 -5.23717 0
M  V30 6748 O 1146.03 8.66189 -5.38625 0
M  V30 6749 O 1146.6 6.33615 -6.1356 0
M  V30 6750 O 1146.06 6.7751 -3.72168 0
M  V30 6751 C 1145.12 7.20825 -2.7076 0
M  V30 6752 C 1145.85 7.45864 -1.40599 0
M  V30 6753 O 1146.06 6.17651 -0.734225 0
M  V30 6754 C 1147.25 8.05808 -1.51899 0
M  V30 6755 O 1147.64 8.74358 -0.335205 0
M  V30 6756 C 1148.13 6.83093 -1.70294 0
M  V30 6757 C 1147.42 5.79992 -0.836974 0
M  V30 6758 N 1147.47 4.41769 -1.38263 0
M  V30 6759 C 1147.62 3.36514 -0.485617 0
M  V30 6760 O 1147.71 3.61814 0.724703 0
M  V30 6761 N 1147.67 2.00746 -1.14492 0
M  V30 6762 C 1147.57 1.85887 -2.27776 0
M  V30 6763 N 1147.62 0.600907 -2.69379 0
M  V30 6764 C 1147.42 2.92182 -3.22265 0
M  V30 6765 C 1147.37 4.18399 -2.71925 0
M  V30 6766 H 1144.63 8.1355 -3.03735 0
M  V30 6767 H 1144.36 6.42695 -2.55448 0
M  V30 6768 H 1145.23 8.12139 -0.792866 0
M  V30 6769 H 1147.89 5.80078 0.160615 0
M  V30 6770 H 1148.17 6.51379 -2.75643 0
M  V30 6771 H 1149.16 7.01734 -1.34462 0
M  V30 6772 H 1147.32 8.73674 -2.38337 0
M  V30 6773 H 1147.25 5.02669 -3.39718 0
M  V30 6774 H 1147.35 2.73001 -4.29239 0
M  V30 6775 H 1147.74 -0.162318 -2.01146 0
M  V30 6776 H 1147.54 0.387742 -3.69773 0
M  V30 6777 P 1149.19 8.91 8.91573e-12 0
M  V30 6778 O 1149.41 10.1736 0.733766 0
M  V30 6779 O 1149.98 8.73247 -1.2395 0
M  V30 6780 O 1149.44 7.66872 0.971405 0
M  V30 6781 C 1148.5 7.42309 2.04641 0
M  V30 6782 C 1149.23 6.86059 3.24661 0
M  V30 6783 O 1149.44 5.42847 3.03646 0
M  V30 6784 C 1150.63 7.41196 3.50753 0
M  V30 6785 O 1151.02 7.27073 4.86816 0
M  V30 6786 C 1151.51 6.5273 2.63741 0
M  V30 6787 C 1150.8 5.1842 2.73198 0
M  V30 6788 N 1150.85 4.38668 1.47808 0
M  V30 6789 C 1151 3.00789 1.58511 0
M  V30 6790 O 1151.09 2.50116 2.71298 0
M  V30 6791 N 1151.05 2.29703 0.253698 0
M  V30 6792 C 1150.95 2.84269 -0.750133 0
M  V30 6793 N 1151 2.06951 -1.82612 0
M  V30 6794 C 1150.8 4.25803 -0.889776 0
M  V30 6795 C 1150.75 4.98326 0.259363 0
M  V30 6796 H 1148.01 8.36707 2.32466 0
M  V30 6797 H 1147.74 6.701 1.71105 0
M  V30 6798 H 1148.61 7.03638 4.13219 0
M  V30 6799 H 1151.27 4.59852 3.53955 0
M  V30 6800 H 1151.55 6.88995 1.59871 0
M  V30 6801 H 1152.54 6.46749 3.03687 0
M  V30 6802 H 1150.7 8.46908 3.20714 0
M  V30 6803 H 1150.63 6.06349 0.206238 0
M  V30 6804 H 1150.73 4.73163 -1.86796 0
M  V30 6805 H 1151.12 1.05099 -1.72271 0
M  V30 6806 H 1150.92 2.48716 -2.76361 0
M  V30 6807 P 1152.57 7.20834 5.23717 0
M  V30 6808 O 1152.79 7.79853 6.57286 0
M  V30 6809 O 1153.36 7.79239 4.12957 0
M  V30 6810 O 1152.82 5.63315 5.29344 0
M  V30 6811 C 1151.88 4.80255 6.01876 0
M  V30 6812 C 1152.61 3.64202 6.65911 0
M  V30 6813 O 1152.82 2.60694 5.64732 0
M  V30 6814 C 1154.01 3.93473 7.1943 0
M  V30 6815 O 1154.4 3.02071 8.21205 0
M  V30 6816 C 1154.89 3.73047 5.97036 0
M  V30 6817 C 1154.18 2.58828 5.25741 0
M  V30 6818 N 1154.23 2.68068 3.77503 0
M  V30 6819 H 1151.39 5.40332 6.79951 0
M  V30 6820 H 1151.12 4.41613 5.32378 0
M  V30 6821 H 1151.99 3.26331 7.47797 0
M  V30 6822 P 1155.95 2.75334 8.47391 0
M  V30 6823 O 1156.17 2.44571 9.90142 0
M  V30 6824 O 1156.74 3.87688 7.92115 0
M  V30 6825 O 1156.2 1.4459 7.59357 0
M  V30 6826 C 1155.26 0.347608 7.69215 0
M  V30 6827 C 1155.99 -0.96767 7.52806 0
M  V30 6828 O 1156.2 -1.21036 6.1011 0
M  V30 6829 C 1157.39 -1.04544 8.13308 0
M  V30 6830 O 1157.78 -2.38311 8.41922 0
M  V30 6831 C 1158.27 -0.491279 7.02284 0
M  V30 6832 C 1157.56 -0.996264 5.77469 0
M  V30 6833 N 1157.61 -0.0501916 4.62973 0
M  V30 6834 H 1154.77 0.374722 8.67691 0
M  V30 6835 H 1154.5 0.443485 6.90277 0
M  V30 6836 H 1155.37 -1.75537 7.96793 0
M  V30 6837 P 1159.33 -2.75334 8.47391 0
M  V30 6838 O 1159.55 -3.84128 9.44797 0
M  V30 6839 O 1160.12 -1.51947 8.68712 0
M  V30 6840 O 1159.58 -3.29363 6.99321 0
M  V30 6841 C 1158.64 -4.24011 6.4274 0
M  V30 6842 C 1159.37 -5.20775 5.52155 0
M  V30 6843 O 1159.58 -4.56534 4.22446 0
M  V30 6844 C 1160.77 -5.62629 5.96531 0
M  V30 6845 O 1161.16 -6.87667 5.41053 0
M  V30 6846 C 1161.65 -4.52537 5.39283 0
M  V30 6847 C 1160.94 -4.20027 4.08623 0
M  V30 6848 N 1160.99 -2.76189 3.71603 0
M  V30 6849 C 1160.91 -1.64862 4.52822 0
M  V30 6850 N 1160.99 -0.512671 3.88633 0
M  V30 6851 C 1161.13 -0.888083 2.54977 0
M  V30 6852 C 1161.26 -0.094668 1.38677 0
M  V30 6853 N 1161.38 -0.890102 0.232633 0
M  V30 6854 C 1161.38 -2.26958 0.21772 0
M  V30 6855 N 1161.51 -2.84626 -0.97925 0
M  V30 6856 N 1161.25 -3.0178 1.31033 0
M  V30 6857 C 1161.13 -2.26781 2.43843 0
M  V30 6858 H 1158.15 -4.797 7.24003 0
M  V30 6859 H 1157.88 -3.69856 5.84513 0
M  V30 6860 H 1158.75 -6.10356 5.41441 0
M  V30 6861 P 1162.71 -7.20834 5.23717 0
M  V30 6862 O 1162.93 -8.66104 5.38572 0
M  V30 6863 O 1163.5 -6.33544 6.1349 0
M  V30 6864 O 1162.96 -6.7751 3.72168 0
M  V30 6865 C 1162.02 -7.20825 2.7076 0
M  V30 6866 C 1162.75 -7.45864 1.40599 0
M  V30 6867 O 1162.96 -6.17651 0.734225 0
M  V30 6868 C 1164.15 -8.05808 1.51899 0
M  V30 6869 O 1164.54 -8.74358 0.335205 0
M  V30 6870 C 1165.03 -6.83093 1.70294 0
M  V30 6871 C 1164.32 -5.79992 0.836974 0
M  V30 6872 N 1164.37 -4.41864 1.38293 0
M  V30 6873 H 1161.53 -8.13644 3.0377 0
M  V30 6874 H 1161.26 -6.42788 2.55485 0
M  V30 6875 H 1162.13 -8.12039 0.792769 0
M  V30 6876 P 1166.09 -8.91 -9.07291e-12 0
M  V30 6877 O 1166.31 -10.1726 -0.733694 0
M  V30 6878 O 1166.88 -8.73148 1.23936 0
M  V30 6879 O 1166.34 -7.66872 -0.971405 0
M  V30 6880 C 1165.4 -7.42309 -2.04641 0
M  V30 6881 C 1166.13 -6.86059 -3.24661 0
M  V30 6882 O 1166.34 -5.42847 -3.03646 0
M  V30 6883 C 1167.53 -7.41196 -3.50753 0
M  V30 6884 O 1167.92 -7.27073 -4.86816 0
M  V30 6885 C 1168.41 -6.5273 -2.63741 0
M  V30 6886 C 1167.7 -5.1842 -2.73198 0
M  V30 6887 N 1167.75 -4.38762 -1.4784 0
M  V30 6888 H 1164.91 -8.36803 -2.32493 0
M  V30 6889 H 1164.64 -6.70197 -1.71129 0
M  V30 6890 H 1165.51 -7.03551 -4.13168 0
M  V30 6891 P 1169.47 -7.20834 -5.23717 0
M  V30 6892 O 1169.69 -7.80006 -6.57415 0
M  V30 6893 O 1170.26 -7.79416 -4.13051 0
M  V30 6894 O 1169.72 -5.63315 -5.29344 0
M  V30 6895 C 1168.78 -4.80318 -6.01954 0
M  V30 6896 C 1169.51 -3.64202 -6.65911 0
M  V30 6897 O 1169.72 -2.60736 -5.64823 0
M  V30 6898 C 1170.91 -3.93521 -7.19518 0
M  V30 6899 O 1171.3 -3.02071 -8.21205 0
M  V30 6900 C 1171.79 -3.73047 -5.97036 0
M  V30 6901 C 1171.08 -2.58828 -5.25741 0
M  V30 6902 N 1171.13 -2.68068 -3.77503 0
M  V30 6903 H 1168.3 -5.40394 -6.8003 0
M  V30 6904 H 1168.02 -4.41741 -5.32532 0
M  V30 6905 H 1168.89 -3.26371 -7.47889 0
M  V30 6906 H 1171.55 -1.64007 -5.56746 0
M  V30 6907 H 1171.83 -4.63439 -5.3432 0
M  V30 6908 H 1172.82 -3.44776 -6.25925 0
M  V30 6909 H 1170.98 -4.96707 -7.57347 0
M  V30 6910 P 1172.85 -2.75334 -8.47391 0
M  V30 6911 O 1173.07 -2.44571 -9.90142 0
M  V30 6912 O 1173.64 -3.87688 -7.92115 0
M  V30 6913 O 1173.1 -1.4459 -7.59357 0
M  V30 6914 C 1172.16 -0.347608 -7.69215 0
M  V30 6915 C 1172.89 0.96767 -7.52806 0
M  V30 6916 O 1173.1 1.21036 -6.1011 0
M  V30 6917 C 1174.29 1.04544 -8.13308 0
M  V30 6918 O 1174.68 2.38311 -8.41922 0
M  V30 6919 C 1175.17 0.491279 -7.02284 0
M  V30 6920 C 1174.46 0.996264 -5.77469 0
M  V30 6921 N 1174.51 0.0501916 -4.62973 0
M  V30 6922 H 1171.67 -0.374722 -8.67691 0
M  V30 6923 H 1171.4 -0.443485 -6.90277 0
M  V30 6924 H 1172.27 1.75537 -7.96793 0
M  V30 6925 P 1176.23 2.75334 -8.47391 0
M  V30 6926 O 1176.45 3.84128 -9.44797 0
M  V30 6927 O 1177.02 1.51947 -8.68712 0
M  V30 6928 O 1176.48 3.29363 -6.99321 0
M  V30 6929 C 1175.54 4.24011 -6.4274 0
M  V30 6930 C 1176.27 5.20775 -5.52155 0
M  V30 6931 O 1176.48 4.56534 -4.22446 0
M  V30 6932 C 1177.67 5.62629 -5.96531 0
M  V30 6933 O 1178.06 6.87667 -5.41053 0
M  V30 6934 C 1178.55 4.52537 -5.39283 0
M  V30 6935 C 1177.84 4.20027 -4.08623 0
M  V30 6936 N 1177.89 2.76189 -3.71603 0
M  V30 6937 H 1175.05 4.797 -7.24003 0
M  V30 6938 H 1174.78 3.69856 -5.84513 0
M  V30 6939 H 1175.65 6.10356 -5.41441 0
M  V30 6940 P 1179.61 7.20834 -5.23717 0
M  V30 6941 O 1179.83 8.66104 -5.38572 0
M  V30 6942 O 1180.4 6.33544 -6.1349 0
M  V30 6943 O 1179.86 6.7751 -3.72168 0
M  V30 6944 C 1178.92 7.20825 -2.7076 0
M  V30 6945 C 1179.65 7.45864 -1.40599 0
M  V30 6946 O 1179.86 6.17651 -0.734225 0
M  V30 6947 C 1181.05 8.05808 -1.51899 0
M  V30 6948 O 1181.44 8.74358 -0.335205 0
M  V30 6949 C 1181.93 6.83093 -1.70294 0
M  V30 6950 C 1181.22 5.79992 -0.836974 0
M  V30 6951 N 1181.27 4.41864 -1.38293 0
M  V30 6952 H 1178.43 8.13644 -3.0377 0
M  V30 6953 H 1178.16 6.42788 -2.55485 0
M  V30 6954 H 1179.03 8.12039 -0.792769 0
M  V30 6955 P 1182.99 8.91 9.23009e-12 0
M  V30 6956 O 1183.21 10.1746 0.733838 0
M  V30 6957 O 1183.78 8.73346 -1.23964 0
M  V30 6958 O 1183.24 7.66872 0.971405 0
M  V30 6959 C 1182.3 7.42405 2.04668 0
M  V30 6960 C 1183.03 6.86059 3.24661 0
M  V30 6961 O 1183.24 5.42934 3.03695 0
M  V30 6962 C 1184.43 7.41287 3.50796 0
M  V30 6963 O 1184.82 7.27073 4.86816 0
M  V30 6964 C 1185.31 6.5273 2.63741 0
M  V30 6965 C 1184.6 5.1842 2.73198 0
M  V30 6966 N 1184.65 4.38762 1.4784 0
M  V30 6967 H 1181.82 8.36899 2.3252 0
M  V30 6968 H 1181.54 6.70391 1.71179 0
M  V30 6969 H 1182.41 7.03638 4.13219 0
M  V30 6970 H 1185.07 4.59931 3.54016 0
M  V30 6971 H 1185.35 6.88995 1.59871 0
M  V30 6972 H 1186.34 6.4684 3.0373 0
M  V30 6973 H 1184.5 8.47002 3.20749 0
M  V30 6974 P 1186.37 7.20834 5.23717 0
M  V30 6975 O 1186.59 7.79853 6.57286 0
M  V30 6976 O 1187.16 7.79239 4.12957 0
M  V30 6977 O 1186.62 5.63315 5.29344 0
M  V30 6978 C 1185.68 4.80255 6.01876 0
M  V30 6979 C 1186.41 3.64202 6.65911 0
M  V30 6980 O 1186.62 2.60694 5.64732 0
M  V30 6981 C 1187.81 3.93473 7.1943 0
M  V30 6982 O 1188.2 3.02071 8.21205 0
M  V30 6983 C 1188.69 3.73047 5.97036 0
M  V30 6984 C 1187.98 2.58828 5.25741 0
M  V30 6985 N 1188.03 2.68068 3.77503 0
M  V30 6986 H 1185.19 5.40332 6.79951 0
M  V30 6987 H 1184.92 4.41613 5.32378 0
M  V30 6988 H 1185.79 3.26331 7.47797 0
M  V30 6989 P 1189.75 2.75334 8.47391 0
M  V30 6990 O 1189.97 2.44571 9.90142 0
M  V30 6991 O 1190.54 3.87688 7.92115 0
M  V30 6992 O 1190 1.4459 7.59357 0
M  V30 6993 C 1189.06 0.347608 7.69215 0
M  V30 6994 C 1189.79 -0.96767 7.52806 0
M  V30 6995 O 1190 -1.21036 6.1011 0
M  V30 6996 C 1191.19 -1.04544 8.13308 0
M  V30 6997 O 1191.58 -2.38311 8.41922 0
M  V30 6998 C 1192.07 -0.491279 7.02284 0
M  V30 6999 C 1191.36 -0.996264 5.77469 0
M  V30 7000 N 1191.41 -0.0501916 4.62973 0
M  V30 7001 H 1188.57 0.374722 8.67691 0
M  V30 7002 H 1188.3 0.443485 6.90277 0
M  V30 7003 H 1189.17 -1.75537 7.96793 0
M  V30 7004 P 1193.13 -2.75334 8.47391 0
M  V30 7005 O 1193.35 -3.84204 9.44982 0
M  V30 7006 O 1193.92 -1.51982 8.68909 0
M  V30 7007 O 1193.38 -3.29363 6.99321 0
M  V30 7008 C 1192.44 -4.24066 6.42823 0
M  V30 7009 C 1193.17 -5.20775 5.52155 0
M  V30 7010 O 1193.38 -4.56607 4.22514 0
M  V30 7011 C 1194.57 -5.62697 5.96604 0
M  V30 7012 O 1194.96 -6.87667 5.41053 0
M  V30 7013 C 1195.45 -4.52537 5.39283 0
M  V30 7014 C 1194.74 -4.20027 4.08623 0
M  V30 7015 N 1194.79 -2.76189 3.71603 0
M  V30 7016 C 1194.71 -1.66944 4.54297 0
M  V30 7017 N 1194.78 -0.536169 3.91344 0
M  V30 7018 C 1194.93 -0.901569 2.58849 0
M  V30 7019 C 1195.06 -0.146599 1.40236 0
M  V30 7020 N 1195.07 1.18234 1.37046 0
M  V30 7021 N 1195.18 -0.822941 0.249738 0
M  V30 7022 C 1195.17 -2.15179 0.280525 0
M  V30 7023 N 1195.05 -2.96414 1.30822 0
M  V30 7024 C 1194.93 -2.25804 2.44748 0
M  V30 7025 H 1191.95 -4.79756 7.24086 0
M  V30 7026 H 1191.68 -3.69963 5.84682 0
M  V30 7027 H 1192.55 -6.10431 5.41508 0
M  V30 7028 H 1195.21 -4.78816 3.28024 0
M  V30 7029 H 1195.49 -3.64957 6.05871 0
M  V30 7030 H 1196.48 -4.88748 5.21323 0
M  V30 7031 H 1194.64 -5.66789 7.0643 0
M  V30 7032 H 1194.6 -1.74684 5.62396 0
M  V30 7033 H 1194.98 1.71949 2.24394 0
M  V30 7034 H 1195.17 1.67511 0.470742 0
M  V30 7035 H 1195.28 -2.63704 -0.6828 0
M  V30 7036 P 1196.51 -7.20834 5.23717 0
M  V30 7037 O 1196.73 -8.66104 5.38572 0
M  V30 7038 O 1197.3 -6.33544 6.1349 0
M  V30 7039 O 1196.76 -6.7751 3.72168 0
M  V30 7040 C 1195.82 -7.20825 2.7076 0
M  V30 7041 C 1196.55 -7.45864 1.40599 0
M  V30 7042 O 1196.76 -6.17651 0.734225 0
M  V30 7043 C 1197.95 -8.05808 1.51899 0
M  V30 7044 O 1198.34 -8.74358 0.335205 0
M  V30 7045 C 1198.83 -6.83093 1.70294 0
M  V30 7046 C 1198.12 -5.79992 0.836974 0
M  V30 7047 N 1198.17 -4.41864 1.38293 0
M  V30 7048 H 1195.33 -8.13644 3.0377 0
M  V30 7049 H 1195.06 -6.42788 2.55485 0
M  V30 7050 H 1195.93 -8.12039 0.792769 0
M  V30 7051 P 1199.89 -8.91 -9.38728e-12 0
M  V30 7052 O 1200.11 -10.1726 -0.733694 0
M  V30 7053 O 1200.68 -8.73148 1.23936 0
M  V30 7054 O 1200.14 -7.66872 -0.971405 0
M  V30 7055 C 1199.2 -7.42309 -2.04641 0
M  V30 7056 C 1199.93 -6.86059 -3.24661 0
M  V30 7057 O 1200.14 -5.42847 -3.03646 0
M  V30 7058 C 1201.33 -7.41196 -3.50753 0
M  V30 7059 O 1201.72 -7.27073 -4.86816 0
M  V30 7060 C 1202.21 -6.5273 -2.63741 0
M  V30 7061 C 1201.5 -5.1842 -2.73198 0
M  V30 7062 N 1201.55 -4.38762 -1.4784 0
M  V30 7063 C 1201.47 -4.81605 -0.168631 0
M  V30 7064 N 1201.55 -3.85454 0.713363 0
M  V30 7065 C 1201.69 -2.6994 -0.0566958 0
M  V30 7066 C 1201.82 -1.34815 0.338502 0
M  V30 7067 O 1201.84 -0.869548 1.47125 0
M  V30 7068 N 1201.94 -0.496304 -0.77465 0
M  V30 7069 C 1201.94 -0.908403 -2.09122 0
M  V30 7070 N 1202.07 0.0517805 -3.00955 0
M  V30 7071 N 1201.81 -2.17875 -2.46519 0
M  V30 7072 C 1201.69 -3.01988 -1.4033 0
M  V30 7073 H 1198.71 -8.36803 -2.32493 0
M  V30 7074 H 1198.44 -6.70197 -1.71129 0
M  V30 7075 H 1199.31 -7.03551 -4.13168 0
M  V30 7076 H 1201.97 -4.59498 -3.54415 0
M  V30 7077 H 1202.24 -6.88898 -1.59848 0
M  V30 7078 H 1203.24 -6.46749 -3.03687 0
M  V30 7079 H 1201.4 -8.46908 -3.20714 0
M  V30 7080 H 1201.35 -5.86405 0.105564 0
M  V30 7081 H 1202.04 0.483664 -0.597855 0
M  V30 7082 H 1202.07 -0.187865 -4.0116 0
M  V30 7083 H 1202.17 1.03585 -2.71726 0
M  V30 7084 P 1203.27 -7.20834 -5.23717 0
M  V30 7085 O 1203.49 -7.7993 -6.57351 0
M  V30 7086 O 1204.06 -7.79328 -4.13004 0
M  V30 7087 O 1203.52 -5.63315 -5.29344 0
M  V30 7088 C 1202.58 -4.80255 -6.01876 0
M  V30 7089 C 1203.31 -3.64202 -6.65911 0
M  V30 7090 O 1203.52 -2.60694 -5.64732 0
M  V30 7091 C 1204.71 -3.93473 -7.1943 0
M  V30 7092 O 1205.1 -3.02071 -8.21205 0
M  V30 7093 C 1205.59 -3.73047 -5.97036 0
M  V30 7094 C 1204.88 -2.58828 -5.25741 0
M  V30 7095 N 1204.93 -2.6801 -3.77422 0
M  V30 7096 C 1205.08 -1.50173 -3.05038 0
M  V30 7097 O 1205.17 -0.428832 -3.665 0
M  V30 7098 N 1205.13 -1.70922 -1.55541 0
M  V30 7099 C 1205.03 -2.7407 -1.06402 0
M  V30 7100 N 1205.08 -2.74764 0.260931 0
M  V30 7101 C 1204.88 -3.96781 -1.78296 0
M  V30 7102 C 1204.83 -3.87909 -3.13891 0
M  V30 7103 H 1202.09 -5.4027 -6.79873 0
M  V30 7104 H 1201.82 -4.41549 -5.32301 0
M  V30 7105 H 1202.69 -3.26371 -7.47889 0
M  V30 7106 H 1205.35 -1.63978 -5.5665 0
M  V30 7107 H 1205.62 -4.63439 -5.3432 0
M  V30 7108 H 1206.62 -3.44728 -6.25838 0
M  V30 7109 H 1204.78 -4.96652 -7.57263 0
M  V30 7110 H 1204.71 -4.78425 -3.73088 0
M  V30 7111 H 1204.81 -4.92593 -1.26997 0
M  V30 7112 H 1205.2 -1.86285 0.77595 0
M  V30 7113 H 1205 -3.63657 0.773896 0
M  V30 7114 P 1206.65 -2.75334 -8.47391 0
M  V30 7115 O 1206.87 -2.44571 -9.90142 0
M  V30 7116 O 1207.44 -3.87688 -7.92115 0
M  V30 7117 O 1206.9 -1.4459 -7.59357 0
M  V30 7118 C 1205.96 -0.347608 -7.69215 0
M  V30 7119 C 1206.69 0.96767 -7.52806 0
M  V30 7120 O 1206.9 1.21036 -6.1011 0
M  V30 7121 C 1208.09 1.04544 -8.13308 0
M  V30 7122 O 1208.48 2.38311 -8.41922 0
M  V30 7123 C 1208.97 0.491279 -7.02284 0
M  V30 7124 C 1208.26 0.996264 -5.77469 0
M  V30 7125 N 1208.31 0.0501916 -4.62973 0
M  V30 7126 H 1205.47 -0.374722 -8.67691 0
M  V30 7127 H 1205.2 -0.443485 -6.90277 0
M  V30 7128 H 1206.07 1.75537 -7.96793 0
M  V30 7129 P 1210.03 2.75334 -8.47391 0
M  V30 7130 O 1210.25 3.84204 -9.44982 0
M  V30 7131 O 1210.82 1.51982 -8.68909 0
M  V30 7132 O 1210.28 3.29363 -6.99321 0
M  V30 7133 C 1209.34 4.24066 -6.42823 0
M  V30 7134 C 1210.07 5.20775 -5.52155 0
M  V30 7135 O 1210.28 4.56607 -4.22514 0
M  V30 7136 C 1211.47 5.62697 -5.96604 0
M  V30 7137 O 1211.86 6.87667 -5.41053 0
M  V30 7138 C 1212.35 4.52537 -5.39283 0
M  V30 7139 C 1211.64 4.20027 -4.08623 0
M  V30 7140 N 1211.69 2.76189 -3.71603 0
M  V30 7141 H 1208.85 4.79756 -7.24086 0
M  V30 7142 H 1208.58 3.69963 -5.84682 0
M  V30 7143 H 1209.45 6.10431 -5.41508 0
M  V30 7144 H 1212.11 4.78816 -3.28024 0
M  V30 7145 H 1212.39 3.64957 -6.05871 0
M  V30 7146 H 1213.38 4.88748 -5.21323 0
M  V30 7147 H 1211.54 5.66789 -7.0643 0
M  V30 7148 P 1213.41 7.20834 -5.23717 0
M  V30 7149 O 1213.63 8.66104 -5.38572 0
M  V30 7150 O 1214.2 6.33544 -6.1349 0
M  V30 7151 O 1213.66 6.7751 -3.72168 0
M  V30 7152 C 1212.72 7.20825 -2.7076 0
M  V30 7153 C 1213.45 7.45864 -1.40599 0
M  V30 7154 O 1213.66 6.17651 -0.734225 0
M  V30 7155 C 1214.85 8.05808 -1.51899 0
M  V30 7156 O 1215.24 8.74358 -0.335205 0
M  V30 7157 C 1215.73 6.83093 -1.70294 0
M  V30 7158 C 1215.02 5.79992 -0.836974 0
M  V30 7159 N 1215.07 4.41864 -1.38293 0
M  V30 7160 H 1212.23 8.13644 -3.0377 0
M  V30 7161 H 1211.96 6.42788 -2.55485 0
M  V30 7162 H 1212.83 8.12039 -0.792769 0
M  V30 7163 P 1216.79 8.91 9.54446e-12 0
M  V30 7164 O 1217.01 10.1726 0.733694 0
M  V30 7165 O 1217.58 8.73148 -1.23936 0
M  V30 7166 O 1217.04 7.66872 0.971405 0
M  V30 7167 C 1216.1 7.42309 2.04641 0
M  V30 7168 C 1216.83 6.86059 3.24661 0
M  V30 7169 O 1217.04 5.42847 3.03646 0
M  V30 7170 C 1218.23 7.41196 3.50753 0
M  V30 7171 O 1218.62 7.27073 4.86816 0
M  V30 7172 C 1219.11 6.5273 2.63741 0
M  V30 7173 C 1218.4 5.1842 2.73198 0
M  V30 7174 N 1218.45 4.38762 1.4784 0
M  V30 7175 H 1215.61 8.36803 2.32493 0
M  V30 7176 H 1215.34 6.70197 1.71129 0
M  V30 7177 H 1216.21 7.03551 4.13168 0
M  V30 7178 P 1220.17 7.20834 5.23717 0
M  V30 7179 O 1220.39 7.79853 6.57286 0
M  V30 7180 O 1220.96 7.79239 4.12957 0
M  V30 7181 O 1220.42 5.63315 5.29344 0
M  V30 7182 C 1219.48 4.80255 6.01876 0
M  V30 7183 C 1220.21 3.64202 6.65911 0
M  V30 7184 O 1220.42 2.60694 5.64732 0
M  V30 7185 C 1221.61 3.93473 7.1943 0
M  V30 7186 O 1222 3.02071 8.21205 0
M  V30 7187 C 1222.49 3.73047 5.97036 0
M  V30 7188 C 1221.78 2.58828 5.25741 0
M  V30 7189 N 1221.83 2.68068 3.77503 0
M  V30 7190 H 1218.99 5.40332 6.79951 0
M  V30 7191 H 1218.72 4.41613 5.32378 0
M  V30 7192 H 1219.59 3.26331 7.47797 0
M  V30 7193 P 1223.55 2.75334 8.47391 0
M  V30 7194 O 1223.77 2.44571 9.90142 0
M  V30 7195 O 1224.34 3.87688 7.92115 0
M  V30 7196 O 1223.8 1.4459 7.59357 0
M  V30 7197 C 1222.86 0.347608 7.69215 0
M  V30 7198 C 1223.59 -0.96767 7.52806 0
M  V30 7199 O 1223.8 -1.21036 6.1011 0
M  V30 7200 C 1224.99 -1.04544 8.13308 0
M  V30 7201 O 1225.38 -2.38311 8.41922 0
M  V30 7202 C 1225.87 -0.491279 7.02284 0
M  V30 7203 C 1225.16 -0.996264 5.77469 0
M  V30 7204 N 1225.21 -0.0501916 4.62973 0
M  V30 7205 H 1222.37 0.374722 8.67691 0
M  V30 7206 H 1222.1 0.443485 6.90277 0
M  V30 7207 H 1222.97 -1.75537 7.96793 0
M  V30 7208 P 1226.93 -2.75334 8.47391 0
M  V30 7209 O 1227.15 -3.84128 9.44797 0
M  V30 7210 O 1227.72 -1.51947 8.68712 0
M  V30 7211 O 1227.18 -3.29363 6.99321 0
M  V30 7212 C 1226.24 -4.24011 6.4274 0
M  V30 7213 C 1226.97 -5.20775 5.52155 0
M  V30 7214 O 1227.18 -4.56534 4.22446 0
M  V30 7215 C 1228.37 -5.62629 5.96531 0
M  V30 7216 O 1228.76 -6.87667 5.41053 0
M  V30 7217 C 1229.25 -4.52537 5.39283 0
M  V30 7218 C 1228.54 -4.20027 4.08623 0
M  V30 7219 N 1228.59 -2.76189 3.71603 0
M  V30 7220 H 1225.75 -4.797 7.24003 0
M  V30 7221 H 1225.48 -3.69856 5.84513 0
M  V30 7222 H 1226.35 -6.10356 5.41441 0
M  V30 7223 P 1230.31 -7.20834 5.23717 0
M  V30 7224 O 1230.53 -8.66104 5.38572 0
M  V30 7225 O 1231.1 -6.33544 6.1349 0
M  V30 7226 O 1230.56 -6.7751 3.72168 0
M  V30 7227 C 1229.62 -7.20825 2.7076 0
M  V30 7228 C 1230.35 -7.45864 1.40599 0
M  V30 7229 O 1230.56 -6.17651 0.734225 0
M  V30 7230 C 1231.75 -8.05808 1.51899 0
M  V30 7231 O 1232.14 -8.74358 0.335205 0
M  V30 7232 C 1232.63 -6.83093 1.70294 0
M  V30 7233 C 1231.92 -5.79992 0.836974 0
M  V30 7234 N 1231.97 -4.41864 1.38293 0
M  V30 7235 H 1229.13 -8.13644 3.0377 0
M  V30 7236 H 1228.86 -6.42788 2.55485 0
M  V30 7237 H 1229.73 -8.12039 0.792769 0
M  V30 7238 P 1233.69 -8.91 -9.70164e-12 0
M  V30 7239 O 1233.91 -10.1726 -0.733694 0
M  V30 7240 O 1234.48 -8.73148 1.23936 0
M  V30 7241 O 1233.94 -7.66872 -0.971405 0
M  V30 7242 C 1233 -7.42309 -2.04641 0
M  V30 7243 C 1233.73 -6.86059 -3.24661 0
M  V30 7244 O 1233.94 -5.42847 -3.03646 0
M  V30 7245 C 1235.13 -7.41196 -3.50753 0
M  V30 7246 O 1235.52 -7.27073 -4.86816 0
M  V30 7247 C 1236.01 -6.5273 -2.63741 0
M  V30 7248 C 1235.3 -5.1842 -2.73198 0
M  V30 7249 N 1235.35 -4.38762 -1.4784 0
M  V30 7250 H 1232.51 -8.36803 -2.32493 0
M  V30 7251 H 1232.24 -6.70197 -1.71129 0
M  V30 7252 H 1233.11 -7.03551 -4.13168 0
M  V30 7253 P 1237.07 -7.20834 -5.23717 0
M  V30 7254 O 1237.29 -7.79853 -6.57286 0
M  V30 7255 O 1237.86 -7.79239 -4.12957 0
M  V30 7256 O 1237.32 -5.63315 -5.29344 0
M  V30 7257 C 1236.38 -4.80255 -6.01876 0
M  V30 7258 C 1237.11 -3.64202 -6.65911 0
M  V30 7259 O 1237.32 -2.60694 -5.64732 0
M  V30 7260 C 1238.51 -3.93473 -7.1943 0
M  V30 7261 O 1238.9 -3.02071 -8.21205 0
M  V30 7262 C 1239.39 -3.73047 -5.97036 0
M  V30 7263 C 1238.68 -2.58828 -5.25741 0
M  V30 7264 N 1238.73 -2.68068 -3.77503 0
M  V30 7265 C 1238.65 -3.79715 -2.96723 0
M  V30 7266 N 1238.73 -3.5377 -1.68852 0
M  V30 7267 C 1238.87 -2.15054 -1.63254 0
M  V30 7268 C 1239 -1.28964 -0.518571 0
M  V30 7269 O 1239.02 -1.56826 0.679156 0
M  V30 7270 N 1239.12 0.0538097 -0.918425 0
M  V30 7271 C 1239.12 0.494275 -2.22578 0
M  V30 7272 N 1239.25 1.81086 -2.40434 0
M  V30 7273 N 1238.99 -0.313645 -3.27502 0
M  V30 7274 C 1238.87 -1.61829 -2.91033 0
M  V30 7275 H 1235.89 -5.40332 -6.79951 0
M  V30 7276 H 1235.62 -4.41613 -5.32378 0
M  V30 7277 H 1236.49 -3.26331 -7.47797 0
M  V30 7278 H 1239.15 -1.63422 -5.56814 0
M  V30 7279 H 1239.42 -4.63374 -5.34244 0
M  V30 7280 H 1240.42 -3.44728 -6.25838 0
M  V30 7281 H 1238.58 -4.96652 -7.57263 0
M  V30 7282 H 1238.53 -4.80617 -3.3614 0
M  V30 7283 H 1239.22 0.742702 -0.199384 0
M  V30 7284 H 1239.25 2.20598 -3.35588 0
M  V30 7285 H 1239.35 2.43518 -1.58945 0
M  V30 7286 P 1240.45 -2.75334 -8.47391 0
M  V30 7287 O 1240.67 -2.44571 -9.90142 0
M  V30 7288 O 1241.24 -3.87688 -7.92115 0
M  V30 7289 O 1240.7 -1.4459 -7.59357 0
M  V30 7290 C 1239.76 -0.347608 -7.69215 0
M  V30 7291 C 1240.49 0.96767 -7.52806 0
M  V30 7292 O 1240.7 1.21036 -6.1011 0
M  V30 7293 C 1241.89 1.04544 -8.13308 0
M  V30 7294 O 1242.28 2.38311 -8.41922 0
M  V30 7295 C 1242.77 0.491279 -7.02284 0
M  V30 7296 C 1242.06 0.996264 -5.77469 0
M  V30 7297 N 1242.11 0.0501916 -4.62973 0
M  V30 7298 H 1239.27 -0.374722 -8.67691 0
M  V30 7299 H 1239 -0.443485 -6.90277 0
M  V30 7300 H 1239.87 1.75537 -7.96793 0
M  V30 7301 P 1243.83 2.75334 -8.47391 0
M  V30 7302 O 1244.05 3.84128 -9.44797 0
M  V30 7303 O 1244.62 1.51947 -8.68712 0
M  V30 7304 O 1244.08 3.29363 -6.99321 0
M  V30 7305 C 1243.14 4.24011 -6.4274 0
M  V30 7306 C 1243.87 5.20775 -5.52155 0
M  V30 7307 O 1244.08 4.56534 -4.22446 0
M  V30 7308 C 1245.27 5.62629 -5.96531 0
M  V30 7309 O 1245.66 6.87667 -5.41053 0
M  V30 7310 C 1246.15 4.52537 -5.39283 0
M  V30 7311 C 1245.44 4.20027 -4.08623 0
M  V30 7312 N 1245.49 2.76189 -3.71603 0
M  V30 7313 H 1242.65 4.797 -7.24003 0
M  V30 7314 H 1242.38 3.69856 -5.84513 0
M  V30 7315 H 1243.25 6.10356 -5.41441 0
M  V30 7316 P 1247.21 7.20834 -5.23717 0
M  V30 7317 O 1247.43 8.66189 -5.38625 0
M  V30 7318 O 1248 6.33615 -6.1356 0
M  V30 7319 O 1247.46 6.7751 -3.72168 0
M  V30 7320 C 1246.52 7.20825 -2.7076 0
M  V30 7321 C 1247.25 7.45864 -1.40599 0
M  V30 7322 O 1247.46 6.17651 -0.734225 0
M  V30 7323 C 1248.65 8.05808 -1.51899 0
M  V30 7324 O 1249.04 8.74358 -0.335205 0
M  V30 7325 C 1249.53 6.83093 -1.70294 0
M  V30 7326 C 1248.82 5.79992 -0.836974 0
M  V30 7327 N 1248.87 4.41769 -1.38263 0
M  V30 7328 C 1249.02 3.36514 -0.485617 0
M  V30 7329 O 1249.11 3.61814 0.724703 0
M  V30 7330 N 1249.07 2.00746 -1.14492 0
M  V30 7331 C 1248.97 1.85887 -2.27776 0
M  V30 7332 N 1249.02 0.600907 -2.69379 0
M  V30 7333 C 1248.82 2.92182 -3.22265 0
M  V30 7334 C 1248.77 4.18399 -2.71925 0
M  V30 7335 H 1246.03 8.1355 -3.03735 0
M  V30 7336 H 1245.76 6.42695 -2.55448 0
M  V30 7337 H 1246.63 8.12139 -0.792866 0
M  V30 7338 H 1249.29 5.80078 0.160615 0
M  V30 7339 H 1249.56 6.51379 -2.75643 0
M  V30 7340 H 1250.56 7.01734 -1.34462 0
M  V30 7341 H 1248.72 8.73674 -2.38337 0
M  V30 7342 H 1248.65 5.02669 -3.39718 0
M  V30 7343 H 1248.75 2.73001 -4.29239 0
M  V30 7344 H 1249.14 -0.162318 -2.01146 0
M  V30 7345 H 1248.94 0.387742 -3.69773 0
M  V30 7346 P 1250.59 8.91 9.85882e-12 0
M  V30 7347 O 1250.81 10.1726 0.733694 0
M  V30 7348 O 1251.38 8.73148 -1.23936 0
M  V30 7349 O 1250.84 7.66872 0.971405 0
M  V30 7350 C 1249.9 7.42309 2.04641 0
M  V30 7351 C 1250.63 6.86059 3.24661 0
M  V30 7352 O 1250.84 5.42847 3.03646 0
M  V30 7353 C 1252.03 7.41196 3.50753 0
M  V30 7354 O 1252.42 7.27073 4.86816 0
M  V30 7355 C 1252.91 6.5273 2.63741 0
M  V30 7356 C 1252.2 5.1842 2.73198 0
M  V30 7357 N 1252.25 4.38762 1.4784 0
M  V30 7358 H 1249.41 8.36803 2.32493 0
M  V30 7359 H 1249.14 6.70197 1.71129 0
M  V30 7360 H 1250.01 7.03551 4.13168 0
M  V30 7361 P 1253.97 7.20834 5.23717 0
M  V30 7362 O 1254.19 7.79853 6.57286 0
M  V30 7363 O 1254.76 7.79239 4.12957 0
M  V30 7364 O 1254.22 5.63315 5.29344 0
M  V30 7365 C 1253.28 4.80255 6.01876 0
M  V30 7366 C 1254.01 3.64202 6.65911 0
M  V30 7367 O 1254.22 2.60694 5.64732 0
M  V30 7368 C 1255.41 3.93473 7.1943 0
M  V30 7369 O 1255.8 3.02071 8.21205 0
M  V30 7370 C 1256.29 3.73047 5.97036 0
M  V30 7371 C 1255.58 2.58828 5.25741 0
M  V30 7372 N 1255.63 2.68068 3.77503 0
M  V30 7373 C 1255.55 3.79715 2.96723 0
M  V30 7374 N 1255.63 3.5377 1.68852 0
M  V30 7375 C 1255.77 2.15054 1.63254 0
M  V30 7376 C 1255.9 1.28964 0.518571 0
M  V30 7377 N 1256.02 -0.0538097 0.918425 0
M  V30 7378 C 1256.02 -0.494275 2.22578 0
M  V30 7379 N 1256.15 -1.81086 2.40434 0
M  V30 7380 N 1255.89 0.313645 3.27502 0
M  V30 7381 C 1255.77 1.61829 2.91033 0
M  V30 7382 H 1252.79 5.40332 6.79951 0
M  V30 7383 H 1252.52 4.41613 5.32378 0
M  V30 7384 H 1253.39 3.26331 7.47797 0
M  V30 7385 P 1257.35 2.75334 8.47391 0
M  V30 7386 O 1257.57 2.44595 9.90239 0
M  V30 7387 O 1258.14 3.87732 7.92204 0
M  V30 7388 O 1257.6 1.4459 7.59357 0
M  V30 7389 C 1256.66 0.347563 7.69115 0
M  V30 7390 C 1257.39 -0.96767 7.52806 0
M  V30 7391 O 1257.6 -1.21036 6.1011 0
M  V30 7392 C 1258.79 -1.04544 8.13308 0
M  V30 7393 O 1259.18 -2.38311 8.41922 0
M  V30 7394 C 1259.67 -0.491279 7.02284 0
M  V30 7395 C 1258.96 -0.996264 5.77469 0
M  V30 7396 N 1259.01 -0.0501808 4.62873 0
M  V30 7397 C 1259.16 -0.588177 3.36904 0
M  V30 7398 O 1259.25 -1.78598 3.17173 0
M  V30 7399 N 1259.2 0.329694 2.33686 0
M  V30 7400 C 1259.11 1.6953 2.45079 0
M  V30 7401 C 1258.96 2.16933 3.80505 0
M  V30 7402 C 1258.91 1.30326 4.83752 0
M  V30 7403 H 1256.17 0.374722 8.67691 0
M  V30 7404 H 1255.9 0.443421 6.90177 0
M  V30 7405 H 1256.77 -1.75537 7.96793 0
M  V30 7406 H 1259.43 -1.94496 5.46629 0
M  V30 7407 H 1259.7 0.608651 7.04676 0
M  V30 7408 H 1260.7 -0.889672 7.08939 0
M  V30 7409 H 1258.86 -0.43308 9.04564 0
M  V30 7410 H 1258.79 1.68366 5.8516 0
M  V30 7411 P 1260.73 -2.75334 8.47391 0
M  V30 7412 O 1260.95 -3.84166 9.4489 0
M  V30 7413 O 1261.52 -1.51964 8.6881 0
M  V30 7414 O 1260.98 -3.29363 6.99321 0
M  V30 7415 C 1260.04 -4.23956 6.42656 0
M  V30 7416 C 1260.77 -5.20775 5.52155 0
M  V30 7417 O 1260.98 -4.56534 4.22446 0
M  V30 7418 C 1262.17 -5.62629 5.96531 0
M  V30 7419 O 1262.56 -6.87667 5.41053 0
M  V30 7420 C 1263.05 -4.52537 5.39283 0
M  V30 7421 C 1262.34 -4.20027 4.08623 0
M  V30 7422 N 1262.39 -2.7613 3.71522 0
M  V30 7423 C 1262.54 -2.45612 2.37989 0
M  V30 7424 O 1262.63 -3.30919 1.51621 0
M  V30 7425 N 1262.58 -1.10684 2.08435 0
M  V30 7426 C 1262.49 -0.0690084 2.9792 0
M  V30 7427 C 1262.34 -0.481522 4.35345 0
M  V30 7428 C 1262.29 -1.78906 4.67968 0
M  V30 7429 H 1259.55 -4.797 7.24003 0
M  V30 7430 H 1259.28 -3.69802 5.84429 0
M  V30 7431 H 1260.15 -6.10356 5.41441 0
M  V30 7432 H 1262.81 -4.78651 3.27911 0
M  V30 7433 H 1263.08 -3.64957 6.05871 0
M  V30 7434 H 1264.08 -4.8868 5.2125 0
M  V30 7435 H 1262.24 -5.66726 7.06352 0
M  V30 7436 H 1262.17 -2.07737 5.72367 0
M  V30 7437 P 1264.11 -7.20834 5.23717 0
M  V30 7438 O 1264.33 -8.66104 5.38572 0
M  V30 7439 O 1264.9 -6.33544 6.1349 0
M  V30 7440 O 1264.36 -6.7751 3.72168 0
M  V30 7441 C 1263.42 -7.20825 2.7076 0
M  V30 7442 C 1264.15 -7.45864 1.40599 0
M  V30 7443 O 1264.36 -6.17651 0.734225 0
M  V30 7444 C 1265.55 -8.05808 1.51899 0
M  V30 7445 O 1265.94 -8.74358 0.335205 0
M  V30 7446 C 1266.43 -6.83093 1.70294 0
M  V30 7447 C 1265.72 -5.79992 0.836974 0
M  V30 7448 N 1265.77 -4.41864 1.38293 0
M  V30 7449 H 1262.93 -8.13644 3.0377 0
M  V30 7450 H 1262.66 -6.42788 2.55485 0
M  V30 7451 H 1263.53 -8.12039 0.792769 0
M  V30 7452 P 1267.49 -8.91 -1.0016e-11 0
M  V30 7453 O 1267.71 -10.1726 -0.733694 0
M  V30 7454 O 1268.28 -8.73148 1.23936 0
M  V30 7455 O 1267.74 -7.66872 -0.971405 0
M  V30 7456 C 1266.8 -7.42309 -2.04641 0
M  V30 7457 C 1267.53 -6.86059 -3.24661 0
M  V30 7458 O 1267.74 -5.42847 -3.03646 0
M  V30 7459 C 1268.93 -7.41196 -3.50753 0
M  V30 7460 O 1269.32 -7.27073 -4.86816 0
M  V30 7461 C 1269.81 -6.5273 -2.63741 0
M  V30 7462 C 1269.1 -5.1842 -2.73198 0
M  V30 7463 N 1269.15 -4.38762 -1.4784 0
M  V30 7464 C 1269.07 -4.81605 -0.168631 0
M  V30 7465 N 1269.15 -3.85454 0.713363 0
M  V30 7466 C 1269.29 -2.6994 -0.0566958 0
M  V30 7467 C 1269.42 -1.34815 0.338502 0
M  V30 7468 N 1269.54 -0.496304 -0.77465 0
M  V30 7469 C 1269.54 -0.908403 -2.09122 0
M  V30 7470 N 1269.67 0.0517805 -3.00955 0
M  V30 7471 N 1269.41 -2.17875 -2.46519 0
M  V30 7472 C 1269.29 -3.01988 -1.4033 0
M  V30 7473 H 1266.31 -8.36803 -2.32493 0
M  V30 7474 H 1266.04 -6.70197 -1.71129 0
M  V30 7475 H 1266.91 -7.03551 -4.13168 0
M  V30 7476 P 1270.87 -7.20834 -5.23717 0
M  V30 7477 O 1271.09 -7.79853 -6.57286 0
M  V30 7478 O 1271.66 -7.79239 -4.12957 0
M  V30 7479 O 1271.12 -5.63315 -5.29344 0
M  V30 7480 C 1270.18 -4.80255 -6.01876 0
M  V30 7481 C 1270.91 -3.64202 -6.65911 0
M  V30 7482 O 1271.12 -2.60694 -5.64732 0
M  V30 7483 C 1272.31 -3.93473 -7.1943 0
M  V30 7484 O 1272.7 -3.02071 -8.21205 0
M  V30 7485 C 1273.19 -3.73047 -5.97036 0
M  V30 7486 C 1272.48 -2.58828 -5.25741 0
M  V30 7487 N 1272.53 -2.68068 -3.77503 0
M  V30 7488 H 1269.69 -5.40332 -6.79951 0
M  V30 7489 H 1269.42 -4.41613 -5.32378 0
M  V30 7490 H 1270.29 -3.26331 -7.47797 0
M  V30 7491 P 1274.25 -2.75334 -8.47391 0
M  V30 7492 O 1274.47 -2.44571 -9.90142 0
M  V30 7493 O 1275.04 -3.87688 -7.92115 0
M  V30 7494 O 1274.5 -1.4459 -7.59357 0
M  V30 7495 C 1273.56 -0.347608 -7.69215 0
M  V30 7496 C 1274.29 0.96767 -7.52806 0
M  V30 7497 O 1274.5 1.21036 -6.1011 0
M  V30 7498 C 1275.69 1.04544 -8.13308 0
M  V30 7499 O 1276.08 2.38311 -8.41922 0
M  V30 7500 C 1276.57 0.491279 -7.02284 0
M  V30 7501 C 1275.86 0.996264 -5.77469 0
M  V30 7502 N 1275.91 0.0501916 -4.62973 0
M  V30 7503 H 1273.07 -0.374722 -8.67691 0
M  V30 7504 H 1272.8 -0.443485 -6.90277 0
M  V30 7505 H 1273.67 1.75537 -7.96793 0
M  V30 7506 P 1277.63 2.75334 -8.47391 0
M  V30 7507 O 1277.85 3.84128 -9.44797 0
M  V30 7508 O 1278.42 1.51947 -8.68712 0
M  V30 7509 O 1277.88 3.29363 -6.99321 0
M  V30 7510 C 1276.94 4.24011 -6.4274 0
M  V30 7511 C 1277.67 5.20775 -5.52155 0
M  V30 7512 O 1277.88 4.56534 -4.22446 0
M  V30 7513 C 1279.07 5.62629 -5.96531 0
M  V30 7514 O 1279.46 6.87667 -5.41053 0
M  V30 7515 C 1279.95 4.52537 -5.39283 0
M  V30 7516 C 1279.24 4.20027 -4.08623 0
M  V30 7517 N 1279.29 2.76189 -3.71603 0
M  V30 7518 H 1276.45 4.797 -7.24003 0
M  V30 7519 H 1276.18 3.69856 -5.84513 0
M  V30 7520 H 1277.05 6.10356 -5.41441 0
M  V30 7521 P 1281.01 7.20834 -5.23717 0
M  V30 7522 O 1281.23 8.66104 -5.38572 0
M  V30 7523 O 1281.8 6.33544 -6.1349 0
M  V30 7524 O 1281.26 6.7751 -3.72168 0
M  V30 7525 C 1280.32 7.20825 -2.7076 0
M  V30 7526 C 1281.05 7.45864 -1.40599 0
M  V30 7527 O 1281.26 6.17651 -0.734225 0
M  V30 7528 C 1282.45 8.05808 -1.51899 0
M  V30 7529 O 1282.84 8.74358 -0.335205 0
M  V30 7530 C 1283.33 6.83093 -1.70294 0
M  V30 7531 C 1282.62 5.79992 -0.836974 0
M  V30 7532 N 1282.67 4.41864 -1.38293 0
M  V30 7533 H 1279.83 8.13644 -3.0377 0
M  V30 7534 H 1279.56 6.42788 -2.55485 0
M  V30 7535 H 1280.43 8.12039 -0.792769 0
M  V30 7536 P 1284.39 8.91 1.01732e-11 0
M  V30 7537 O 1284.61 10.1726 0.733694 0
M  V30 7538 O 1285.18 8.73148 -1.23936 0
M  V30 7539 O 1284.64 7.66872 0.971405 0
M  V30 7540 C 1283.7 7.42309 2.04641 0
M  V30 7541 C 1284.43 6.86059 3.24661 0
M  V30 7542 O 1284.64 5.42847 3.03646 0
M  V30 7543 C 1285.83 7.41196 3.50753 0
M  V30 7544 O 1286.22 7.27073 4.86816 0
M  V30 7545 C 1286.71 6.5273 2.63741 0
M  V30 7546 C 1286 5.1842 2.73198 0
M  V30 7547 N 1286.05 4.38762 1.4784 0
M  V30 7548 H 1283.21 8.36803 2.32493 0
M  V30 7549 H 1282.94 6.70197 1.71129 0
M  V30 7550 H 1283.81 7.03551 4.13168 0
M  V30 7551 P 1287.77 7.20834 5.23717 0
M  V30 7552 O 1287.99 7.79853 6.57286 0
M  V30 7553 O 1288.56 7.79239 4.12957 0
M  V30 7554 O 1288.02 5.63315 5.29344 0
M  V30 7555 C 1287.08 4.80255 6.01876 0
M  V30 7556 C 1287.81 3.64202 6.65911 0
M  V30 7557 O 1288.02 2.60694 5.64732 0
M  V30 7558 C 1289.21 3.93473 7.1943 0
M  V30 7559 O 1289.6 3.02071 8.21205 0
M  V30 7560 C 1290.09 3.73047 5.97036 0
M  V30 7561 C 1289.38 2.58828 5.25741 0
M  V30 7562 N 1289.43 2.68068 3.77503 0
M  V30 7563 H 1286.59 5.40332 6.79951 0
M  V30 7564 H 1286.32 4.41613 5.32378 0
M  V30 7565 H 1287.19 3.26331 7.47797 0
M  V30 7566 P 1291.15 2.75334 8.47391 0
M  V30 7567 O 1291.37 2.44571 9.90142 0
M  V30 7568 O 1291.94 3.87688 7.92115 0
M  V30 7569 O 1291.4 1.4459 7.59357 0
M  V30 7570 C 1290.46 0.347608 7.69215 0
M  V30 7571 C 1291.19 -0.96767 7.52806 0
M  V30 7572 O 1291.4 -1.21036 6.1011 0
M  V30 7573 C 1292.59 -1.04544 8.13308 0
M  V30 7574 O 1292.98 -2.38311 8.41922 0
M  V30 7575 C 1293.47 -0.491279 7.02284 0
M  V30 7576 C 1292.76 -0.996264 5.77469 0
M  V30 7577 N 1292.81 -0.0501916 4.62973 0
M  V30 7578 H 1289.97 0.374722 8.67691 0
M  V30 7579 H 1289.7 0.443485 6.90277 0
M  V30 7580 H 1290.57 -1.75537 7.96793 0
M  V30 7581 P 1294.53 -2.75334 8.47391 0
M  V30 7582 O 1294.75 -3.84166 9.4489 0
M  V30 7583 O 1295.32 -1.51964 8.6881 0
M  V30 7584 O 1294.78 -3.29363 6.99321 0
M  V30 7585 C 1293.84 -4.23956 6.42656 0
M  V30 7586 C 1294.57 -5.20775 5.52155 0
M  V30 7587 O 1294.78 -4.56534 4.22446 0
M  V30 7588 C 1295.97 -5.62629 5.96531 0
M  V30 7589 O 1296.36 -6.87667 5.41053 0
M  V30 7590 C 1296.85 -4.52537 5.39283 0
M  V30 7591 C 1296.14 -4.20027 4.08623 0
M  V30 7592 N 1296.19 -2.7613 3.71522 0
M  V30 7593 C 1296.34 -2.45612 2.37989 0
M  V30 7594 O 1296.43 -3.30919 1.51621 0
M  V30 7595 N 1296.38 -1.10684 2.08435 0
M  V30 7596 C 1296.29 -0.0690084 2.9792 0
M  V30 7597 C 1296.14 -0.481522 4.35345 0
M  V30 7598 C 1296.09 -1.78906 4.67968 0
M  V30 7599 H 1293.35 -4.797 7.24003 0
M  V30 7600 H 1293.08 -3.69802 5.84429 0
M  V30 7601 H 1293.95 -6.10356 5.41441 0
M  V30 7602 H 1296.61 -4.78651 3.27911 0
M  V30 7603 H 1296.88 -3.64957 6.05871 0
M  V30 7604 H 1297.88 -4.8868 5.2125 0
M  V30 7605 H 1296.04 -5.66726 7.06352 0
M  V30 7606 H 1295.97 -2.07737 5.72367 0
M  V30 7607 P 1297.91 -7.20834 5.23717 0
M  V30 7608 O 1298.13 -8.66104 5.38572 0
M  V30 7609 O 1298.7 -6.33544 6.1349 0
M  V30 7610 O 1298.16 -6.7751 3.72168 0
M  V30 7611 C 1297.22 -7.20825 2.7076 0
M  V30 7612 C 1297.95 -7.45864 1.40599 0
M  V30 7613 O 1298.16 -6.17651 0.734225 0
M  V30 7614 C 1299.35 -8.05808 1.51899 0
M  V30 7615 O 1299.74 -8.74358 0.335205 0
M  V30 7616 C 1300.23 -6.83093 1.70294 0
M  V30 7617 C 1299.52 -5.79992 0.836974 0
M  V30 7618 N 1299.57 -4.41864 1.38293 0
M  V30 7619 H 1296.73 -8.13644 3.0377 0
M  V30 7620 H 1296.46 -6.42788 2.55485 0
M  V30 7621 H 1297.33 -8.12039 0.792769 0
M  V30 7622 P 1301.29 -8.91 -1.03304e-11 0
M  V30 7623 O 1301.51 -10.1726 -0.733694 0
M  V30 7624 O 1302.08 -8.73148 1.23936 0
M  V30 7625 O 1301.54 -7.66872 -0.971405 0
M  V30 7626 C 1300.6 -7.42309 -2.04641 0
M  V30 7627 C 1301.33 -6.86059 -3.24661 0
M  V30 7628 O 1301.54 -5.42847 -3.03646 0
M  V30 7629 C 1302.73 -7.41196 -3.50753 0
M  V30 7630 O 1303.12 -7.27073 -4.86816 0
M  V30 7631 C 1303.61 -6.5273 -2.63741 0
M  V30 7632 C 1302.9 -5.1842 -2.73198 0
M  V30 7633 N 1302.95 -4.38762 -1.4784 0
M  V30 7634 H 1300.11 -8.36803 -2.32493 0
M  V30 7635 H 1299.84 -6.70197 -1.71129 0
M  V30 7636 H 1300.71 -7.03551 -4.13168 0
M  V30 7637 P 1304.67 -7.20834 -5.23717 0
M  V30 7638 O 1304.89 -7.79853 -6.57286 0
M  V30 7639 O 1305.46 -7.79239 -4.12957 0
M  V30 7640 O 1304.92 -5.63315 -5.29344 0
M  V30 7641 C 1303.98 -4.80255 -6.01876 0
M  V30 7642 C 1304.71 -3.64202 -6.65911 0
M  V30 7643 O 1304.92 -2.60694 -5.64732 0
M  V30 7644 C 1306.11 -3.93473 -7.1943 0
M  V30 7645 O 1306.5 -3.02071 -8.21205 0
M  V30 7646 C 1306.99 -3.73047 -5.97036 0
M  V30 7647 C 1306.28 -2.58828 -5.25741 0
M  V30 7648 N 1306.33 -2.68068 -3.77503 0
M  V30 7649 H 1303.49 -5.40332 -6.79951 0
M  V30 7650 H 1303.22 -4.41613 -5.32378 0
M  V30 7651 H 1304.09 -3.26331 -7.47797 0
M  V30 7652 P 1308.05 -2.75334 -8.47391 0
M  V30 7653 O 1308.27 -2.44571 -9.90142 0
M  V30 7654 O 1308.84 -3.87688 -7.92115 0
M  V30 7655 O 1308.3 -1.4459 -7.59357 0
M  V30 7656 C 1307.36 -0.347608 -7.69215 0
M  V30 7657 C 1308.09 0.96767 -7.52806 0
M  V30 7658 O 1308.3 1.21036 -6.1011 0
M  V30 7659 C 1309.49 1.04544 -8.13308 0
M  V30 7660 O 1309.88 2.38311 -8.41922 0
M  V30 7661 C 1310.37 0.491279 -7.02284 0
M  V30 7662 C 1309.66 0.996264 -5.77469 0
M  V30 7663 N 1309.71 0.0501916 -4.62973 0
M  V30 7664 H 1306.87 -0.374722 -8.67691 0
M  V30 7665 H 1306.6 -0.443485 -6.90277 0
M  V30 7666 H 1307.47 1.75537 -7.96793 0
M  V30 7667 P 1311.43 2.75334 -8.47391 0
M  V30 7668 O 1311.65 3.84128 -9.44797 0
M  V30 7669 O 1312.22 1.51947 -8.68712 0
M  V30 7670 O 1311.68 3.29363 -6.99321 0
M  V30 7671 C 1310.74 4.24011 -6.4274 0
M  V30 7672 C 1311.47 5.20775 -5.52155 0
M  V30 7673 O 1311.68 4.56534 -4.22446 0
M  V30 7674 C 1312.87 5.62629 -5.96531 0
M  V30 7675 O 1313.26 6.87667 -5.41053 0
M  V30 7676 C 1313.75 4.52537 -5.39283 0
M  V30 7677 C 1313.04 4.20027 -4.08623 0
M  V30 7678 N 1313.09 2.76189 -3.71603 0
M  V30 7679 H 1310.25 4.797 -7.24003 0
M  V30 7680 H 1309.98 3.69856 -5.84513 0
M  V30 7681 H 1310.85 6.10356 -5.41441 0
M  V30 7682 P 1314.81 7.20834 -5.23717 0
M  V30 7683 O 1315.03 8.66104 -5.38572 0
M  V30 7684 O 1315.6 6.33544 -6.1349 0
M  V30 7685 O 1315.06 6.7751 -3.72168 0
M  V30 7686 C 1314.12 7.20825 -2.7076 0
M  V30 7687 C 1314.85 7.45864 -1.40599 0
M  V30 7688 O 1315.06 6.17651 -0.734225 0
M  V30 7689 C 1316.25 8.05808 -1.51899 0
M  V30 7690 O 1316.64 8.74358 -0.335205 0
M  V30 7691 C 1317.13 6.83093 -1.70294 0
M  V30 7692 C 1316.42 5.79992 -0.836974 0
M  V30 7693 N 1316.47 4.41864 -1.38293 0
M  V30 7694 H 1313.63 8.13644 -3.0377 0
M  V30 7695 H 1313.36 6.42788 -2.55485 0
M  V30 7696 H 1314.23 8.12039 -0.792769 0
M  V30 7697 P 1318.19 8.91 1.04876e-11 0
M  V30 7698 O 1318.41 10.1746 0.733838 0
M  V30 7699 O 1318.98 8.73346 -1.23964 0
M  V30 7700 O 1318.44 7.66872 0.971405 0
M  V30 7701 C 1317.5 7.42405 2.04668 0
M  V30 7702 C 1318.23 6.86059 3.24661 0
M  V30 7703 O 1318.44 5.42934 3.03695 0
M  V30 7704 C 1319.63 7.41287 3.50796 0
M  V30 7705 O 1320.02 7.27073 4.86816 0
M  V30 7706 C 1320.51 6.5273 2.63741 0
M  V30 7707 C 1319.8 5.1842 2.73198 0
M  V30 7708 N 1319.85 4.38762 1.4784 0
M  V30 7709 H 1317.01 8.36899 2.3252 0
M  V30 7710 H 1316.74 6.70391 1.71179 0
M  V30 7711 H 1317.61 7.03638 4.13219 0
M  V30 7712 H 1320.27 4.59931 3.54016 0
M  V30 7713 H 1320.55 6.88995 1.59871 0
M  V30 7714 H 1321.54 6.4684 3.0373 0
M  V30 7715 H 1319.7 8.47002 3.20749 0
M  V30 7716 P 1321.57 7.20834 5.23717 0
M  V30 7717 O 1321.79 7.79853 6.57286 0
M  V30 7718 O 1322.36 7.79239 4.12957 0
M  V30 7719 O 1321.82 5.63315 5.29344 0
M  V30 7720 C 1320.88 4.80255 6.01876 0
M  V30 7721 C 1321.61 3.64202 6.65911 0
M  V30 7722 O 1321.82 2.60694 5.64732 0
M  V30 7723 C 1323.01 3.93473 7.1943 0
M  V30 7724 O 1323.4 3.02071 8.21205 0
M  V30 7725 C 1323.89 3.73047 5.97036 0
M  V30 7726 C 1323.18 2.58828 5.25741 0
M  V30 7727 N 1323.23 2.68068 3.77503 0
M  V30 7728 H 1320.39 5.40332 6.79951 0
M  V30 7729 H 1320.12 4.41613 5.32378 0
M  V30 7730 H 1320.99 3.26331 7.47797 0
M  V30 7731 P 1324.95 2.75334 8.47391 0
M  V30 7732 O 1325.17 2.44571 9.90142 0
M  V30 7733 O 1325.74 3.87688 7.92115 0
M  V30 7734 O 1325.2 1.4459 7.59357 0
M  V30 7735 C 1324.26 0.347608 7.69215 0
M  V30 7736 C 1324.99 -0.96767 7.52806 0
M  V30 7737 O 1325.2 -1.21036 6.1011 0
M  V30 7738 C 1326.39 -1.04544 8.13308 0
M  V30 7739 O 1326.78 -2.38311 8.41922 0
M  V30 7740 C 1327.27 -0.491279 7.02284 0
M  V30 7741 C 1326.56 -0.996264 5.77469 0
M  V30 7742 N 1326.61 -0.0501916 4.62973 0
M  V30 7743 H 1323.77 0.374722 8.67691 0
M  V30 7744 H 1323.5 0.443485 6.90277 0
M  V30 7745 H 1324.37 -1.75537 7.96793 0
M  V30 7746 P 1328.33 -2.75334 8.47391 0
M  V30 7747 O 1328.55 -3.84128 9.44797 0
M  V30 7748 O 1329.12 -1.51947 8.68712 0
M  V30 7749 O 1328.58 -3.29363 6.99321 0
M  V30 7750 C 1327.64 -4.24011 6.4274 0
M  V30 7751 C 1328.37 -5.20775 5.52155 0
M  V30 7752 O 1328.58 -4.56534 4.22446 0
M  V30 7753 C 1329.77 -5.62629 5.96531 0
M  V30 7754 O 1330.16 -6.87667 5.41053 0
M  V30 7755 C 1330.65 -4.52537 5.39283 0
M  V30 7756 C 1329.94 -4.20027 4.08623 0
M  V30 7757 N 1329.99 -2.76189 3.71603 0
M  V30 7758 H 1327.15 -4.797 7.24003 0
M  V30 7759 H 1326.88 -3.69856 5.84513 0
M  V30 7760 H 1327.75 -6.10356 5.41441 0
M  V30 7761 P 1331.71 -7.20834 5.23717 0
M  V30 7762 O 1331.93 -8.66104 5.38572 0
M  V30 7763 O 1332.5 -6.33544 6.1349 0
M  V30 7764 O 1331.96 -6.7751 3.72168 0
M  V30 7765 C 1331.02 -7.20825 2.7076 0
M  V30 7766 C 1331.75 -7.45864 1.40599 0
M  V30 7767 O 1331.96 -6.17651 0.734225 0
M  V30 7768 C 1333.15 -8.05808 1.51899 0
M  V30 7769 O 1333.54 -8.74358 0.335205 0
M  V30 7770 C 1334.03 -6.83093 1.70294 0
M  V30 7771 C 1333.32 -5.79992 0.836974 0
M  V30 7772 N 1333.37 -4.41864 1.38293 0
M  V30 7773 H 1330.53 -8.13644 3.0377 0
M  V30 7774 H 1330.26 -6.42788 2.55485 0
M  V30 7775 H 1331.13 -8.12039 0.792769 0
M  V30 7776 P 1335.09 -8.91 -1.06447e-11 0
M  V30 7777 O 1335.31 -10.1726 -0.733694 0
M  V30 7778 O 1335.88 -8.73148 1.23936 0
M  V30 7779 O 1335.34 -7.66872 -0.971405 0
M  V30 7780 C 1334.4 -7.42309 -2.04641 0
M  V30 7781 C 1335.13 -6.86059 -3.24661 0
M  V30 7782 O 1335.34 -5.42847 -3.03646 0
M  V30 7783 C 1336.53 -7.41196 -3.50753 0
M  V30 7784 O 1336.92 -7.27073 -4.86816 0
M  V30 7785 C 1337.41 -6.5273 -2.63741 0
M  V30 7786 C 1336.7 -5.1842 -2.73198 0
M  V30 7787 N 1336.75 -4.38762 -1.4784 0
M  V30 7788 H 1333.91 -8.36803 -2.32493 0
M  V30 7789 H 1333.64 -6.70197 -1.71129 0
M  V30 7790 H 1334.51 -7.03551 -4.13168 0
M  V30 7791 P 1338.47 -7.20834 -5.23717 0
M  V30 7792 O 1338.69 -7.79853 -6.57286 0
M  V30 7793 O 1339.26 -7.79239 -4.12957 0
M  V30 7794 O 1338.72 -5.63315 -5.29344 0
M  V30 7795 C 1337.78 -4.80255 -6.01876 0
M  V30 7796 C 1338.51 -3.64202 -6.65911 0
M  V30 7797 O 1338.72 -2.60694 -5.64732 0
M  V30 7798 C 1339.91 -3.93473 -7.1943 0
M  V30 7799 O 1340.3 -3.02071 -8.21205 0
M  V30 7800 C 1340.79 -3.73047 -5.97036 0
M  V30 7801 C 1340.08 -2.58828 -5.25741 0
M  V30 7802 N 1340.13 -2.68068 -3.77503 0
M  V30 7803 C 1340.05 -3.79715 -2.96723 0
M  V30 7804 N 1340.13 -3.5377 -1.68852 0
M  V30 7805 C 1340.27 -2.15054 -1.63254 0
M  V30 7806 C 1340.4 -1.28964 -0.518571 0
M  V30 7807 N 1340.52 0.0538097 -0.918425 0
M  V30 7808 C 1340.52 0.494275 -2.22578 0
M  V30 7809 N 1340.65 1.81086 -2.40434 0
M  V30 7810 N 1340.39 -0.313645 -3.27502 0
M  V30 7811 C 1340.27 -1.61829 -2.91033 0
M  V30 7812 H 1337.29 -5.40332 -6.79951 0
M  V30 7813 H 1337.02 -4.41613 -5.32378 0
M  V30 7814 H 1337.89 -3.26331 -7.47797 0
M  V30 7815 P 1341.85 -2.75334 -8.47391 0
M  V30 7816 O 1342.07 -2.44571 -9.90142 0
M  V30 7817 O 1342.64 -3.87688 -7.92115 0
M  V30 7818 O 1342.1 -1.4459 -7.59357 0
M  V30 7819 C 1341.16 -0.347608 -7.69215 0
M  V30 7820 C 1341.89 0.96767 -7.52806 0
M  V30 7821 O 1342.1 1.21036 -6.1011 0
M  V30 7822 C 1343.29 1.04544 -8.13308 0
M  V30 7823 O 1343.68 2.38311 -8.41922 0
M  V30 7824 C 1344.17 0.491279 -7.02284 0
M  V30 7825 C 1343.46 0.996264 -5.77469 0
M  V30 7826 N 1343.51 0.0501916 -4.62973 0
M  V30 7827 H 1340.67 -0.374722 -8.67691 0
M  V30 7828 H 1340.4 -0.443485 -6.90277 0
M  V30 7829 H 1341.27 1.75537 -7.96793 0
M  V30 7830 P 1345.23 2.75334 -8.47391 0
M  V30 7831 O 1345.45 3.84128 -9.44797 0
M  V30 7832 O 1346.02 1.51947 -8.68712 0
M  V30 7833 O 1345.48 3.29363 -6.99321 0
M  V30 7834 C 1344.54 4.24011 -6.4274 0
M  V30 7835 C 1345.27 5.20775 -5.52155 0
M  V30 7836 O 1345.48 4.56534 -4.22446 0
M  V30 7837 C 1346.67 5.62629 -5.96531 0
M  V30 7838 O 1347.06 6.87667 -5.41053 0
M  V30 7839 C 1347.55 4.52537 -5.39283 0
M  V30 7840 C 1346.84 4.20027 -4.08623 0
M  V30 7841 N 1346.89 2.76189 -3.71603 0
M  V30 7842 H 1344.05 4.797 -7.24003 0
M  V30 7843 H 1343.78 3.69856 -5.84513 0
M  V30 7844 H 1344.65 6.10356 -5.41441 0
M  V30 7845 P 1348.61 7.20834 -5.23717 0
M  V30 7846 O 1348.83 8.66104 -5.38572 0
M  V30 7847 O 1349.4 6.33544 -6.1349 0
M  V30 7848 O 1348.86 6.7751 -3.72168 0
M  V30 7849 C 1347.92 7.20825 -2.7076 0
M  V30 7850 C 1348.65 7.45864 -1.40599 0
M  V30 7851 O 1348.86 6.17651 -0.734225 0
M  V30 7852 C 1350.05 8.05808 -1.51899 0
M  V30 7853 O 1350.44 8.74358 -0.335205 0
M  V30 7854 C 1350.93 6.83093 -1.70294 0
M  V30 7855 C 1350.22 5.79992 -0.836974 0
M  V30 7856 N 1350.27 4.41864 -1.38293 0
M  V30 7857 H 1347.43 8.13644 -3.0377 0
M  V30 7858 H 1347.16 6.42788 -2.55485 0
M  V30 7859 H 1348.03 8.12039 -0.792769 0
M  V30 7860 P 1351.99 8.91 1.08019e-11 0
M  V30 7861 O 1352.21 10.1726 0.733694 0
M  V30 7862 O 1352.78 8.73148 -1.23936 0
M  V30 7863 O 1352.24 7.66872 0.971405 0
M  V30 7864 C 1351.3 7.42309 2.04641 0
M  V30 7865 C 1352.03 6.86059 3.24661 0
M  V30 7866 O 1352.24 5.42847 3.03646 0
M  V30 7867 C 1353.43 7.41196 3.50753 0
M  V30 7868 O 1353.82 7.27073 4.86816 0
M  V30 7869 C 1354.31 6.5273 2.63741 0
M  V30 7870 C 1353.6 5.1842 2.73198 0
M  V30 7871 N 1353.65 4.38762 1.4784 0
M  V30 7872 H 1350.81 8.36803 2.32493 0
M  V30 7873 H 1350.54 6.70197 1.71129 0
M  V30 7874 H 1351.41 7.03551 4.13168 0
M  V30 7875 P 1355.37 7.20834 5.23717 0
M  V30 7876 O 1355.59 7.79853 6.57286 0
M  V30 7877 O 1356.16 7.79239 4.12957 0
M  V30 7878 O 1355.62 5.63315 5.29344 0
M  V30 7879 C 1354.68 4.80255 6.01876 0
M  V30 7880 C 1355.41 3.64202 6.65911 0
M  V30 7881 O 1355.62 2.60694 5.64732 0
M  V30 7882 C 1356.81 3.93473 7.1943 0
M  V30 7883 O 1357.2 3.02071 8.21205 0
M  V30 7884 C 1357.69 3.73047 5.97036 0
M  V30 7885 C 1356.98 2.58828 5.25741 0
M  V30 7886 N 1357.03 2.68068 3.77503 0
M  V30 7887 H 1354.19 5.40332 6.79951 0
M  V30 7888 H 1353.92 4.41613 5.32378 0
M  V30 7889 H 1354.79 3.26331 7.47797 0
M  V30 7890 P 1358.75 2.75334 8.47391 0
M  V30 7891 O 1358.97 2.44571 9.90142 0
M  V30 7892 O 1359.54 3.87688 7.92115 0
M  V30 7893 O 1359 1.4459 7.59357 0
M  V30 7894 C 1358.06 0.347608 7.69215 0
M  V30 7895 C 1358.79 -0.96767 7.52806 0
M  V30 7896 O 1359 -1.21036 6.1011 0
M  V30 7897 C 1360.19 -1.04544 8.13308 0
M  V30 7898 O 1360.58 -2.38311 8.41922 0
M  V30 7899 C 1361.07 -0.491279 7.02284 0
M  V30 7900 C 1360.36 -0.996264 5.77469 0
M  V30 7901 N 1360.41 -0.0501916 4.62973 0
M  V30 7902 C 1360.33 1.32786 4.63244 0
M  V30 7903 N 1360.41 1.86957 3.44545 0
M  V30 7904 C 1360.55 0.780241 2.58481 0
M  V30 7905 C 1360.68 0.738536 1.17757 0
M  V30 7906 N 1360.8 -0.58337 0.711393 0
M  V30 7907 C 1360.8 -1.70816 1.51017 0
M  V30 7908 N 1360.93 -2.87826 0.880757 0
M  V30 7909 N 1360.67 -1.67126 2.8339 0
M  V30 7910 C 1360.55 -0.401421 3.30572 0
M  V30 7911 H 1357.57 0.374722 8.67691 0
M  V30 7912 H 1357.3 0.443485 6.90277 0
M  V30 7913 H 1358.17 -1.75537 7.96793 0
M  V30 7914 P 1362.13 -2.75334 8.47391 0
M  V30 7915 O 1362.35 -3.84128 9.44797 0
M  V30 7916 O 1362.92 -1.51947 8.68712 0
M  V30 7917 O 1362.38 -3.29363 6.99321 0
M  V30 7918 C 1361.44 -4.24011 6.4274 0
M  V30 7919 C 1362.17 -5.20775 5.52155 0
M  V30 7920 O 1362.38 -4.56534 4.22446 0
M  V30 7921 C 1363.57 -5.62629 5.96531 0
M  V30 7922 O 1363.96 -6.87667 5.41053 0
M  V30 7923 C 1364.45 -4.52537 5.39283 0
M  V30 7924 C 1363.74 -4.20027 4.08623 0
M  V30 7925 N 1363.79 -2.76189 3.71603 0
M  V30 7926 H 1360.95 -4.797 7.24003 0
M  V30 7927 H 1360.68 -3.69856 5.84513 0
M  V30 7928 H 1361.55 -6.10356 5.41441 0
M  V30 7929 P 1365.51 -7.20834 5.23717 0
M  V30 7930 O 1365.73 -8.66189 5.38625 0
M  V30 7931 O 1366.3 -6.33615 6.1356 0
M  V30 7932 O 1365.76 -6.7751 3.72168 0
M  V30 7933 C 1364.82 -7.20732 2.70725 0
M  V30 7934 C 1365.55 -7.45864 1.40599 0
M  V30 7935 O 1365.76 -6.17651 0.734225 0
M  V30 7936 C 1366.95 -8.05808 1.51899 0
M  V30 7937 O 1367.34 -8.74358 0.335205 0
M  V30 7938 C 1367.83 -6.83093 1.70294 0
M  V30 7939 C 1367.12 -5.79992 0.836974 0
M  V30 7940 N 1367.17 -4.41769 1.38263 0
M  V30 7941 C 1367.32 -3.38591 0.481702 0
M  V30 7942 O 1367.41 -3.56839 -0.718452 0
M  V30 7943 N 1367.36 -2.1206 1.03569 0
M  V30 7944 C 1367.27 -1.80696 2.36966 0
M  V30 7945 O 1367.32 -0.630473 2.74862 0
M  V30 7946 C 1367.12 -2.94845 3.23898 0
M  V30 7947 C 1367.01 -2.65253 4.70362 0
M  V30 7948 C 1367.07 -4.19803 2.73435 0
M  V30 7949 H 1364.33 -8.13644 3.0377 0
M  V30 7950 H 1364.06 -6.42695 2.55448 0
M  V30 7951 H 1364.93 -8.12039 0.792769 0
M  V30 7952 H 1367.58 -5.79978 -0.160587 0
M  V30 7953 H 1367.86 -6.51379 2.75643 0
M  V30 7954 H 1368.86 -7.01734 1.34462 0
M  V30 7955 H 1367.02 -8.73674 2.38337 0
M  V30 7956 H 1366.95 -5.04492 3.4095 0
M  V30 7957 H 1367.98 -2.83924 5.1913 0
M  V30 7958 H 1366.24 -3.29824 5.15163 0
M  V30 7959 H 1366.73 -1.59723 4.84449 0
M  V30 7960 H 1367.47 -1.35644 0.399345 0
M  V30 7961 P 1368.89 -8.91 -1.09591e-11 0
M  V30 7962 O 1369.11 -10.1736 -0.733766 0
M  V30 7963 O 1369.68 -8.73247 1.2395 0
M  V30 7964 O 1369.14 -7.66872 -0.971405 0
M  V30 7965 C 1368.2 -7.42212 -2.04614 0
M  V30 7966 C 1368.93 -6.86059 -3.24661 0
M  V30 7967 O 1369.14 -5.42847 -3.03646 0
M  V30 7968 C 1370.33 -7.41196 -3.50753 0
M  V30 7969 O 1370.72 -7.27073 -4.86816 0
M  V30 7970 C 1371.21 -6.5273 -2.63741 0
M  V30 7971 C 1370.5 -5.1842 -2.73198 0
M  V30 7972 N 1370.55 -4.38668 -1.47808 0
M  V30 7973 C 1370.7 -3.02239 -1.60048 0
M  V30 7974 O 1370.79 -2.46459 -2.67869 0
M  V30 7975 N 1370.74 -2.32436 -0.408571 0
M  V30 7976 C 1370.65 -2.85471 0.854993 0
M  V30 7977 O 1370.7 -2.12566 1.8531 0
M  V30 7978 C 1370.5 -4.28918 0.887335 0
M  V30 7979 C 1370.39 -4.91066 2.24619 0
M  V30 7980 C 1370.45 -5.00349 -0.255399 0
M  V30 7981 H 1367.71 -8.36803 -2.32493 0
M  V30 7982 H 1367.44 -6.701 -1.71105 0
M  V30 7983 H 1368.31 -7.03551 -4.13168 0
M  V30 7984 H 1370.96 -4.59773 -3.53894 0
M  V30 7985 H 1371.24 -6.88995 -1.59871 0
M  V30 7986 H 1372.24 -6.46749 -3.03687 0
M  V30 7987 H 1370.4 -8.46908 -3.20714 0
M  V30 7988 H 1370.33 -6.08548 -0.206986 0
M  V30 7989 H 1371.36 -5.34836 2.53099 0
M  V30 7990 H 1369.62 -5.69638 2.2291 0
M  V30 7991 H 1370.11 -4.13971 2.98044 0
M  V30 7992 H 1370.85 -1.33211 -0.474216 0
M  V30 7993 P 1372.27 -7.20834 -5.23717 0
M  V30 7994 O 1372.49 -7.7993 -6.57351 0
M  V30 7995 O 1373.06 -7.79328 -4.13004 0
M  V30 7996 O 1372.52 -5.63315 -5.29344 0
M  V30 7997 C 1371.58 -4.80193 -6.01798 0
M  V30 7998 C 1372.31 -3.64202 -6.65911 0
M  V30 7999 O 1372.52 -2.60694 -5.64732 0
M  V30 8000 C 1373.71 -3.93473 -7.1943 0
M  V30 8001 O 1374.1 -3.02071 -8.21205 0
M  V30 8002 C 1374.59 -3.73047 -5.97036 0
M  V30 8003 C 1373.88 -2.58828 -5.25741 0
M  V30 8004 N 1373.93 -2.6801 -3.77422 0
M  V30 8005 C 1374.08 -1.50443 -3.07133 0
M  V30 8006 O 1374.17 -0.419406 -3.61576 0
M  V30 8007 N 1374.12 -1.6403 -1.69677 0
M  V30 8008 C 1374.03 -2.81206 -0.986255 0
M  V30 8009 O 1374.08 -2.80892 0.249754 0
M  V30 8010 C 1373.88 -3.99158 -1.80325 0
M  V30 8011 C 1373.77 -5.29309 -1.06921 0
M  V30 8012 C 1373.83 -3.89779 -3.1476 0
M  V30 8013 H 1371.09 -5.40332 -6.79951 0
M  V30 8014 H 1370.82 -4.41549 -5.32301 0
M  V30 8015 H 1371.69 -3.26331 -7.47797 0
M  V30 8016 H 1374.34 -1.6395 -5.56554 0
M  V30 8017 H 1374.62 -4.63439 -5.3432 0
M  V30 8018 H 1375.62 -3.44728 -6.25838 0
M  V30 8019 H 1373.78 -4.96652 -7.57263 0
M  V30 8020 H 1373.71 -4.80159 -3.74441 0
M  V30 8021 H 1374.74 -5.81459 -1.09608 0
M  V30 8022 H 1373 -5.9187 -1.54487 0
M  V30 8023 H 1373.49 -5.10095 -0.0220288 0
M  V30 8024 H 1374.23 -0.798962 -1.16664 0
M  V30 8025 P 1375.65 -2.75334 -8.47391 0
M  V30 8026 O 1375.87 -2.44571 -9.90142 0
M  V30 8027 O 1376.44 -3.87688 -7.92115 0
M  V30 8028 O 1375.9 -1.4459 -7.59357 0
M  V30 8029 C 1374.96 -0.347608 -7.69215 0
M  V30 8030 C 1375.69 0.96767 -7.52806 0
M  V30 8031 O 1375.9 1.21036 -6.1011 0
M  V30 8032 C 1377.09 1.04544 -8.13308 0
M  V30 8033 O 1377.48 2.38311 -8.41922 0
M  V30 8034 C 1377.97 0.491279 -7.02284 0
M  V30 8035 C 1377.26 0.996264 -5.77469 0
M  V30 8036 N 1377.31 0.0501916 -4.62973 0
M  V30 8037 H 1374.47 -0.374722 -8.67691 0
M  V30 8038 H 1374.2 -0.443485 -6.90277 0
M  V30 8039 H 1375.07 1.75537 -7.96793 0
M  V30 8040 P 1379.03 2.75334 -8.47391 0
M  V30 8041 O 1379.25 3.84128 -9.44797 0
M  V30 8042 O 1379.82 1.51947 -8.68712 0
M  V30 8043 O 1379.28 3.29363 -6.99321 0
M  V30 8044 C 1378.34 4.24011 -6.4274 0
M  V30 8045 C 1379.07 5.20775 -5.52155 0
M  V30 8046 O 1379.28 4.56534 -4.22446 0
M  V30 8047 C 1380.47 5.62629 -5.96531 0
M  V30 8048 O 1380.86 6.87667 -5.41053 0
M  V30 8049 C 1381.35 4.52537 -5.39283 0
M  V30 8050 C 1380.64 4.20027 -4.08623 0
M  V30 8051 N 1380.69 2.76189 -3.71603 0
M  V30 8052 H 1377.85 4.797 -7.24003 0
M  V30 8053 H 1377.58 3.69856 -5.84513 0
M  V30 8054 H 1378.45 6.10356 -5.41441 0
M  V30 8055 P 1382.41 7.20834 -5.23717 0
M  V30 8056 O 1382.63 8.66104 -5.38572 0
M  V30 8057 O 1383.2 6.33544 -6.1349 0
M  V30 8058 O 1382.66 6.7751 -3.72168 0
M  V30 8059 C 1381.72 7.20825 -2.7076 0
M  V30 8060 C 1382.45 7.45864 -1.40599 0
M  V30 8061 O 1382.66 6.17651 -0.734225 0
M  V30 8062 C 1383.85 8.05808 -1.51899 0
M  V30 8063 O 1384.24 8.74358 -0.335205 0
M  V30 8064 C 1384.73 6.83093 -1.70294 0
M  V30 8065 C 1384.02 5.79992 -0.836974 0
M  V30 8066 N 1384.07 4.41864 -1.38293 0
M  V30 8067 H 1381.23 8.13644 -3.0377 0
M  V30 8068 H 1380.96 6.42788 -2.55485 0
M  V30 8069 H 1381.83 8.12039 -0.792769 0
M  V30 8070 P 1385.79 8.91 1.03566e-11 0
M  V30 8071 O 1386.01 10.1726 0.733694 0
M  V30 8072 O 1386.58 8.73148 -1.23936 0
M  V30 8073 O 1386.04 7.66872 0.971405 0
M  V30 8074 C 1385.1 7.42309 2.04641 0
M  V30 8075 C 1385.83 6.86059 3.24661 0
M  V30 8076 O 1386.04 5.42847 3.03646 0
M  V30 8077 C 1387.23 7.41196 3.50753 0
M  V30 8078 O 1387.62 7.27073 4.86816 0
M  V30 8079 C 1388.11 6.5273 2.63741 0
M  V30 8080 C 1387.4 5.1842 2.73198 0
M  V30 8081 N 1387.45 4.38762 1.4784 0
M  V30 8082 H 1384.61 8.36803 2.32493 0
M  V30 8083 H 1384.34 6.70197 1.71129 0
M  V30 8084 H 1385.21 7.03551 4.13168 0
M  V30 8085 P 1389.17 7.20834 5.23717 0
M  V30 8086 O 1389.39 7.80006 6.57415 0
M  V30 8087 O 1389.96 7.79416 4.13051 0
M  V30 8088 O 1389.42 5.63315 5.29344 0
M  V30 8089 C 1388.48 4.80318 6.01954 0
M  V30 8090 C 1389.21 3.64202 6.65911 0
M  V30 8091 O 1389.42 2.60736 5.64823 0
M  V30 8092 C 1390.61 3.93521 7.19518 0
M  V30 8093 O 1391 3.02071 8.21205 0
M  V30 8094 C 1391.49 3.73047 5.97036 0
M  V30 8095 C 1390.78 2.58828 5.25741 0
M  V30 8096 N 1390.83 2.68068 3.77503 0
M  V30 8097 H 1387.99 5.40394 6.8003 0
M  V30 8098 H 1387.72 4.41741 5.32532 0
M  V30 8099 H 1388.59 3.26371 7.47889 0
M  V30 8100 H 1391.24 1.64007 5.56746 0
M  V30 8101 H 1391.52 4.63439 5.3432 0
M  V30 8102 H 1392.52 3.44776 6.25925 0
M  V30 8103 H 1390.68 4.96707 7.57347 0
M  V30 8104 P 1392.55 2.75334 8.47391 0
M  V30 8105 O 1392.77 2.44571 9.90142 0
M  V30 8106 O 1393.34 3.87688 7.92115 0
M  V30 8107 O 1392.8 1.4459 7.59357 0
M  V30 8108 C 1391.86 0.347608 7.69215 0
M  V30 8109 C 1392.59 -0.96767 7.52806 0
M  V30 8110 O 1392.8 -1.21036 6.1011 0
M  V30 8111 C 1393.99 -1.04544 8.13308 0
M  V30 8112 O 1394.38 -2.38311 8.41922 0
M  V30 8113 C 1394.87 -0.491279 7.02284 0
M  V30 8114 C 1394.16 -0.996264 5.77469 0
M  V30 8115 N 1394.21 -0.0501916 4.62973 0
M  V30 8116 H 1391.37 0.374722 8.67691 0
M  V30 8117 H 1391.1 0.443485 6.90277 0
M  V30 8118 H 1391.97 -1.75537 7.96793 0
M  V30 8119 P 1395.93 -2.75334 8.47391 0
M  V30 8120 O 1396.15 -3.84128 9.44797 0
M  V30 8121 O 1396.72 -1.51947 8.68712 0
M  V30 8122 O 1396.18 -3.29363 6.99321 0
M  V30 8123 C 1395.24 -4.24011 6.4274 0
M  V30 8124 C 1395.97 -5.20775 5.52155 0
M  V30 8125 O 1396.18 -4.56534 4.22446 0
M  V30 8126 C 1397.37 -5.62629 5.96531 0
M  V30 8127 O 1397.76 -6.87667 5.41053 0
M  V30 8128 C 1398.25 -4.52537 5.39283 0
M  V30 8129 C 1397.54 -4.20027 4.08623 0
M  V30 8130 N 1397.59 -2.76189 3.71603 0
M  V30 8131 H 1394.75 -4.797 7.24003 0
M  V30 8132 H 1394.48 -3.69856 5.84513 0
M  V30 8133 H 1395.35 -6.10356 5.41441 0
M  V30 8134 P 1399.31 -7.20834 5.23717 0
M  V30 8135 O 1399.53 -8.66104 5.38572 0
M  V30 8136 O 1400.1 -6.33544 6.1349 0
M  V30 8137 O 1399.56 -6.7751 3.72168 0
M  V30 8138 C 1398.62 -7.20825 2.7076 0
M  V30 8139 C 1399.35 -7.45864 1.40599 0
M  V30 8140 O 1399.56 -6.17651 0.734225 0
M  V30 8141 C 1400.75 -8.05808 1.51899 0
M  V30 8142 O 1401.14 -8.74358 0.335205 0
M  V30 8143 C 1401.63 -6.83093 1.70294 0
M  V30 8144 C 1400.92 -5.79992 0.836974 0
M  V30 8145 N 1400.97 -4.41864 1.38293 0
M  V30 8146 H 1398.13 -8.13644 3.0377 0
M  V30 8147 H 1397.86 -6.42788 2.55485 0
M  V30 8148 H 1398.73 -8.12039 0.792769 0
M  V30 8149 P 1402.69 -8.91 -9.24756e-12 0
M  V30 8150 O 1402.91 -10.1726 -0.733694 0
M  V30 8151 O 1403.48 -8.73148 1.23936 0
M  V30 8152 O 1402.94 -7.66872 -0.971405 0
M  V30 8153 C 1402 -7.42309 -2.04641 0
M  V30 8154 C 1402.73 -6.86059 -3.24661 0
M  V30 8155 O 1402.94 -5.42847 -3.03646 0
M  V30 8156 C 1404.13 -7.41196 -3.50753 0
M  V30 8157 O 1404.52 -7.27073 -4.86816 0
M  V30 8158 C 1405.01 -6.5273 -2.63741 0
M  V30 8159 C 1404.3 -5.1842 -2.73198 0
M  V30 8160 N 1404.35 -4.38762 -1.4784 0
M  V30 8161 H 1401.51 -8.36803 -2.32493 0
M  V30 8162 H 1401.24 -6.70197 -1.71129 0
M  V30 8163 H 1402.11 -7.03551 -4.13168 0
M  V30 8164 P 1406.07 -7.20834 -5.23717 0
M  V30 8165 O 1406.29 -7.80006 -6.57415 0
M  V30 8166 O 1406.86 -7.79416 -4.13051 0
M  V30 8167 O 1406.32 -5.63315 -5.29344 0
M  V30 8168 C 1405.38 -4.80318 -6.01954 0
M  V30 8169 C 1406.11 -3.64202 -6.65911 0
M  V30 8170 O 1406.32 -2.60736 -5.64823 0
M  V30 8171 C 1407.51 -3.93521 -7.19518 0
M  V30 8172 O 1407.9 -3.02071 -8.21205 0
M  V30 8173 C 1408.39 -3.73047 -5.97036 0
M  V30 8174 C 1407.68 -2.58828 -5.25741 0
M  V30 8175 N 1407.73 -2.68068 -3.77503 0
M  V30 8176 H 1404.89 -5.40394 -6.8003 0
M  V30 8177 H 1404.62 -4.41741 -5.32532 0
M  V30 8178 H 1405.49 -3.26371 -7.47889 0
M  V30 8179 H 1408.14 -1.64007 -5.56746 0
M  V30 8180 H 1408.42 -4.63439 -5.3432 0
M  V30 8181 H 1409.42 -3.44776 -6.25925 0
M  V30 8182 H 1407.58 -4.96707 -7.57347 0
M  V30 8183 P 1409.45 -2.75334 -8.47391 0
M  V30 8184 O 1409.67 -2.44571 -9.90142 0
M  V30 8185 O 1410.24 -3.87688 -7.92115 0
M  V30 8186 O 1409.7 -1.4459 -7.59357 0
M  V30 8187 C 1408.76 -0.347608 -7.69215 0
M  V30 8188 C 1409.49 0.96767 -7.52806 0
M  V30 8189 O 1409.7 1.21036 -6.1011 0
M  V30 8190 C 1410.89 1.04544 -8.13308 0
M  V30 8191 O 1411.28 2.38311 -8.41922 0
M  V30 8192 C 1411.77 0.491279 -7.02284 0
M  V30 8193 C 1411.06 0.996264 -5.77469 0
M  V30 8194 N 1411.11 0.0501916 -4.62973 0
M  V30 8195 H 1408.27 -0.374722 -8.67691 0
M  V30 8196 H 1408 -0.443485 -6.90277 0
M  V30 8197 H 1408.87 1.75537 -7.96793 0
M  V30 8198 P 1412.83 2.75334 -8.47391 0
M  V30 8199 O 1413.05 3.84128 -9.44797 0
M  V30 8200 O 1413.62 1.51947 -8.68712 0
M  V30 8201 O 1413.08 3.29363 -6.99321 0
M  V30 8202 C 1412.14 4.24011 -6.4274 0
M  V30 8203 C 1412.87 5.20775 -5.52155 0
M  V30 8204 O 1413.08 4.56534 -4.22446 0
M  V30 8205 C 1414.27 5.62629 -5.96531 0
M  V30 8206 O 1414.66 6.87667 -5.41053 0
M  V30 8207 C 1415.15 4.52537 -5.39283 0
M  V30 8208 C 1414.44 4.20027 -4.08623 0
M  V30 8209 N 1414.49 2.76189 -3.71603 0
M  V30 8210 C 1414.41 1.64862 -4.52822 0
M  V30 8211 N 1414.49 0.512671 -3.88633 0
M  V30 8212 C 1414.63 0.888083 -2.54977 0
M  V30 8213 C 1414.76 0.094668 -1.38677 0
M  V30 8214 O 1414.78 -1.13053 -1.28163 0
M  V30 8215 N 1414.88 0.890102 -0.232633 0
M  V30 8216 C 1414.88 2.26958 -0.21772 0
M  V30 8217 N 1415.01 2.84626 0.97925 0
M  V30 8218 N 1414.75 3.0178 -1.31033 0
M  V30 8219 C 1414.63 2.26781 -2.43843 0
M  V30 8220 H 1411.65 4.797 -7.24003 0
M  V30 8221 H 1411.38 3.69856 -5.84513 0
M  V30 8222 H 1412.25 6.10356 -5.41441 0
M  V30 8223 H 1414.9 4.79061 -3.27488 0
M  V30 8224 H 1415.18 3.64906 -6.05785 0
M  V30 8225 H 1416.18 4.8868 -5.2125 0
M  V30 8226 H 1414.34 5.66726 -7.06352 0
M  V30 8227 H 1414.29 1.71169 -5.60966 0
M  V30 8228 H 1414.97 0.419134 0.644739 0
M  V30 8229 H 1415.01 3.87332 1.06098 0
M  V30 8230 H 1415.11 2.26417 1.82483 0
M  V30 8231 P 1416.21 7.20834 -5.23717 0
M  V30 8232 O 1416.43 8.66104 -5.38572 0
M  V30 8233 O 1417 6.33544 -6.1349 0
M  V30 8234 O 1416.46 6.7751 -3.72168 0
M  V30 8235 C 1415.52 7.20825 -2.7076 0
M  V30 8236 C 1416.25 7.45864 -1.40599 0
M  V30 8237 O 1416.46 6.17651 -0.734225 0
M  V30 8238 C 1417.65 8.05808 -1.51899 0
M  V30 8239 O 1418.04 8.74358 -0.335205 0
M  V30 8240 C 1418.53 6.83093 -1.70294 0
M  V30 8241 C 1417.82 5.79992 -0.836974 0
M  V30 8242 N 1417.87 4.41864 -1.38293 0
M  V30 8243 H 1415.03 8.13644 -3.0377 0
M  V30 8244 H 1414.76 6.42788 -2.55485 0
M  V30 8245 H 1415.63 8.12039 -0.792769 0
M  V30 8246 P 1419.59 8.91 8.13856e-12 0
M  V30 8247 O 1419.81 10.1736 0.733766 0
M  V30 8248 O 1420.38 8.73247 -1.2395 0
M  V30 8249 O 1419.84 7.66872 0.971405 0
M  V30 8250 C 1418.9 7.42212 2.04614 0
M  V30 8251 C 1419.63 6.86059 3.24661 0
M  V30 8252 O 1419.84 5.42847 3.03646 0
M  V30 8253 C 1421.03 7.41196 3.50753 0
M  V30 8254 O 1421.42 7.27073 4.86816 0
M  V30 8255 C 1421.91 6.5273 2.63741 0
M  V30 8256 C 1421.2 5.1842 2.73198 0
M  V30 8257 N 1421.25 4.38668 1.47808 0
M  V30 8258 C 1421.4 3.02239 1.60048 0
M  V30 8259 O 1421.49 2.46459 2.67869 0
M  V30 8260 N 1421.44 2.32436 0.408571 0
M  V30 8261 C 1421.35 2.85471 -0.854993 0
M  V30 8262 O 1421.4 2.12566 -1.8531 0
M  V30 8263 C 1421.2 4.28918 -0.887335 0
M  V30 8264 C 1421.09 4.91066 -2.24619 0
M  V30 8265 C 1421.15 5.00349 0.255399 0
M  V30 8266 H 1418.41 8.36803 2.32493 0
M  V30 8267 H 1418.14 6.701 1.71105 0
M  V30 8268 H 1419.01 7.03551 4.13168 0
M  V30 8269 H 1421.66 4.59773 3.53894 0
M  V30 8270 H 1421.94 6.88995 1.59871 0
M  V30 8271 H 1422.94 6.46749 3.03687 0
M  V30 8272 H 1421.1 8.46908 3.20714 0
M  V30 8273 H 1421.03 6.08548 0.206986 0
M  V30 8274 H 1422.06 5.34836 -2.53099 0
M  V30 8275 H 1420.32 5.69638 -2.2291 0
M  V30 8276 H 1420.81 4.13971 -2.98044 0
M  V30 8277 H 1421.55 1.33211 0.474216 0
M  V30 8278 P 1422.97 7.20834 5.23717 0
M  V30 8279 O 1423.19 7.80006 6.57415 0
M  V30 8280 O 1423.76 7.79416 4.13051 0
M  V30 8281 O 1423.22 5.63315 5.29344 0
M  V30 8282 C 1422.28 4.80318 6.01954 0
M  V30 8283 C 1423.01 3.64202 6.65911 0
M  V30 8284 O 1423.22 2.60736 5.64823 0
M  V30 8285 C 1424.41 3.93521 7.19518 0
M  V30 8286 O 1424.8 3.02071 8.21205 0
M  V30 8287 C 1425.29 3.73047 5.97036 0
M  V30 8288 C 1424.58 2.58828 5.25741 0
M  V30 8289 N 1424.63 2.68068 3.77503 0
M  V30 8290 C 1424.55 3.80474 2.99159 0
M  V30 8291 N 1424.62 3.55622 1.71925 0
M  V30 8292 C 1424.77 2.1832 1.65733 0
M  V30 8293 C 1424.9 1.28842 0.572777 0
M  V30 8294 N 1424.91 1.66875 -0.70098 0
M  V30 8295 N 1425.02 -0.016788 0.859836 0
M  V30 8296 C 1425.01 -0.398145 2.13316 0
M  V30 8297 N 1424.89 0.328224 3.22333 0
M  V30 8298 C 1424.77 1.62992 2.90383 0
M  V30 8299 H 1421.79 5.40394 6.8003 0
M  V30 8300 H 1421.52 4.41741 5.32532 0
M  V30 8301 H 1422.39 3.26371 7.47889 0
M  V30 8302 H 1425.04 1.64007 5.56746 0
M  V30 8303 H 1425.32 4.63439 5.3432 0
M  V30 8304 H 1426.32 3.44776 6.25925 0
M  V30 8305 H 1424.48 4.96707 7.57347 0
M  V30 8306 H 1424.44 4.8089 3.39924 0
M  V30 8307 H 1424.82 2.66547 -0.941919 0
M  V30 8308 H 1425.01 0.965341 -1.44766 0
M  V30 8309 H 1425.12 -1.46427 2.29697 0
M  V30 8310 P 1426.35 2.75334 8.47391 0
M  V30 8311 O 1426.57 2.44571 9.90142 0
M  V30 8312 O 1427.14 3.87688 7.92115 0
M  V30 8313 O 1426.6 1.4459 7.59357 0
M  V30 8314 C 1425.66 0.347608 7.69215 0
M  V30 8315 C 1426.39 -0.96767 7.52806 0
M  V30 8316 O 1426.6 -1.21036 6.1011 0
M  V30 8317 C 1427.79 -1.04544 8.13308 0
M  V30 8318 O 1428.18 -2.38311 8.41922 0
M  V30 8319 C 1428.67 -0.491279 7.02284 0
M  V30 8320 C 1427.96 -0.996264 5.77469 0
M  V30 8321 N 1428.01 -0.0501916 4.62973 0
M  V30 8322 H 1425.17 0.374722 8.67691 0
M  V30 8323 H 1424.9 0.443485 6.90277 0
M  V30 8324 H 1425.77 -1.75537 7.96793 0
M  V30 8325 P 1429.73 -2.75334 8.47391 0
M  V30 8326 O 1429.95 -3.84128 9.44797 0
M  V30 8327 O 1430.52 -1.51947 8.68712 0
M  V30 8328 O 1429.98 -3.29363 6.99321 0
M  V30 8329 C 1429.04 -4.24011 6.4274 0
M  V30 8330 C 1429.77 -5.20775 5.52155 0
M  V30 8331 O 1429.98 -4.56534 4.22446 0
M  V30 8332 C 1431.17 -5.62629 5.96531 0
M  V30 8333 O 1431.56 -6.87667 5.41053 0
M  V30 8334 C 1432.05 -4.52537 5.39283 0
M  V30 8335 C 1431.34 -4.20027 4.08623 0
M  V30 8336 N 1431.39 -2.76189 3.71603 0
M  V30 8337 H 1428.55 -4.797 7.24003 0
M  V30 8338 H 1428.28 -3.69856 5.84513 0
M  V30 8339 H 1429.15 -6.10356 5.41441 0
M  V30 8340 P 1433.11 -7.20834 5.23717 0
M  V30 8341 O 1433.33 -8.66104 5.38572 0
M  V30 8342 O 1433.9 -6.33544 6.1349 0
M  V30 8343 O 1433.36 -6.7751 3.72168 0
M  V30 8344 C 1432.42 -7.20825 2.7076 0
M  V30 8345 C 1433.15 -7.45864 1.40599 0
M  V30 8346 O 1433.36 -6.17651 0.734225 0
M  V30 8347 C 1434.55 -8.05808 1.51899 0
M  V30 8348 O 1434.94 -8.74358 0.335205 0
M  V30 8349 C 1435.43 -6.83093 1.70294 0
M  V30 8350 C 1434.72 -5.79992 0.836974 0
M  V30 8351 N 1434.77 -4.41864 1.38293 0
M  V30 8352 H 1431.93 -8.13644 3.0377 0
M  V30 8353 H 1431.66 -6.42788 2.55485 0
M  V30 8354 H 1432.53 -8.12039 0.792769 0
M  V30 8355 P 1436.49 -8.91 -7.02955e-12 0
M  V30 8356 O 1436.71 -10.1726 -0.733694 0
M  V30 8357 O 1437.28 -8.73148 1.23936 0
M  V30 8358 O 1436.74 -7.66872 -0.971405 0
M  V30 8359 C 1435.8 -7.42309 -2.04641 0
M  V30 8360 C 1436.53 -6.86059 -3.24661 0
M  V30 8361 O 1436.74 -5.42847 -3.03646 0
M  V30 8362 C 1437.93 -7.41196 -3.50753 0
M  V30 8363 O 1438.32 -7.27073 -4.86816 0
M  V30 8364 C 1438.81 -6.5273 -2.63741 0
M  V30 8365 C 1438.1 -5.1842 -2.73198 0
M  V30 8366 N 1438.15 -4.38762 -1.4784 0
M  V30 8367 C 1438.07 -4.81605 -0.168631 0
M  V30 8368 N 1438.15 -3.85454 0.713363 0
M  V30 8369 C 1438.29 -2.6994 -0.0566958 0
M  V30 8370 C 1438.42 -1.34815 0.338502 0
M  V30 8371 N 1438.54 -0.496304 -0.77465 0
M  V30 8372 C 1438.54 -0.908403 -2.09122 0
M  V30 8373 N 1438.67 0.0517805 -3.00955 0
M  V30 8374 N 1438.41 -2.17875 -2.46519 0
M  V30 8375 C 1438.29 -3.01988 -1.4033 0
M  V30 8376 H 1435.31 -8.36803 -2.32493 0
M  V30 8377 H 1435.04 -6.70197 -1.71129 0
M  V30 8378 H 1435.91 -7.03551 -4.13168 0
M  V30 8379 P 1439.87 -7.20834 -5.23717 0
M  V30 8380 O 1440.09 -7.7993 -6.57351 0
M  V30 8381 O 1440.66 -7.79328 -4.13004 0
M  V30 8382 O 1440.12 -5.63315 -5.29344 0
M  V30 8383 C 1439.18 -4.80193 -6.01798 0
M  V30 8384 C 1439.91 -3.64202 -6.65911 0
M  V30 8385 O 1440.12 -2.60694 -5.64732 0
M  V30 8386 C 1441.31 -3.93473 -7.1943 0
M  V30 8387 O 1441.7 -3.02071 -8.21205 0
M  V30 8388 C 1442.19 -3.73047 -5.97036 0
M  V30 8389 C 1441.48 -2.58828 -5.25741 0
M  V30 8390 N 1441.53 -2.6801 -3.77422 0
M  V30 8391 C 1441.68 -1.50443 -3.07133 0
M  V30 8392 O 1441.77 -0.419406 -3.61576 0
M  V30 8393 N 1441.72 -1.6403 -1.69677 0
M  V30 8394 C 1441.63 -2.81206 -0.986255 0
M  V30 8395 O 1441.68 -2.80892 0.249754 0
M  V30 8396 C 1441.48 -3.99158 -1.80325 0
M  V30 8397 C 1441.37 -5.29309 -1.06921 0
M  V30 8398 C 1441.43 -3.89779 -3.1476 0
M  V30 8399 H 1438.69 -5.40332 -6.79951 0
M  V30 8400 H 1438.42 -4.41549 -5.32301 0
M  V30 8401 H 1439.29 -3.26331 -7.47797 0
M  V30 8402 H 1441.94 -1.6395 -5.56554 0
M  V30 8403 H 1442.22 -4.63439 -5.3432 0
M  V30 8404 H 1443.22 -3.44728 -6.25838 0
M  V30 8405 H 1441.38 -4.96652 -7.57263 0
M  V30 8406 H 1441.31 -4.80159 -3.74441 0
M  V30 8407 H 1442.34 -5.81459 -1.09608 0
M  V30 8408 H 1440.6 -5.9187 -1.54487 0
M  V30 8409 H 1441.09 -5.10095 -0.0220288 0
M  V30 8410 H 1441.83 -0.798962 -1.16664 0
M  V30 8411 P 1443.25 -2.75334 -8.47391 0
M  V30 8412 O 1443.47 -2.44595 -9.90239 0
M  V30 8413 O 1444.04 -3.87732 -7.92204 0
M  V30 8414 O 1443.5 -1.4459 -7.59357 0
M  V30 8415 C 1442.56 -0.347563 -7.69115 0
M  V30 8416 C 1443.29 0.96767 -7.52806 0
M  V30 8417 O 1443.5 1.21036 -6.1011 0
M  V30 8418 C 1444.69 1.04544 -8.13308 0
M  V30 8419 O 1445.08 2.38311 -8.41922 0
M  V30 8420 C 1445.57 0.491279 -7.02284 0
M  V30 8421 C 1444.86 0.996264 -5.77469 0
M  V30 8422 N 1444.91 0.0501808 -4.62873 0
M  V30 8423 C 1445.06 0.588177 -3.36904 0
M  V30 8424 O 1445.15 1.78598 -3.17173 0
M  V30 8425 N 1445.1 -0.329694 -2.33686 0
M  V30 8426 C 1445.01 -1.6953 -2.45079 0
M  V30 8427 C 1444.86 -2.16933 -3.80505 0
M  V30 8428 C 1444.81 -1.30326 -4.83752 0
M  V30 8429 H 1442.07 -0.374722 -8.67691 0
M  V30 8430 H 1441.8 -0.443421 -6.90177 0
M  V30 8431 H 1442.67 1.75537 -7.96793 0
M  V30 8432 H 1445.32 1.94496 -5.46629 0
M  V30 8433 H 1445.6 -0.608651 -7.04676 0
M  V30 8434 H 1446.6 0.889672 -7.08939 0
M  V30 8435 H 1444.76 0.43308 -9.04564 0
M  V30 8436 H 1444.69 -1.68366 -5.8516 0
M  V30 8437 P 1446.63 2.75334 -8.47391 0
M  V30 8438 O 1446.85 3.84128 -9.44797 0
M  V30 8439 O 1447.42 1.51947 -8.68712 0
M  V30 8440 O 1446.88 3.29363 -6.99321 0
M  V30 8441 C 1445.94 4.24011 -6.4274 0
M  V30 8442 C 1446.67 5.20775 -5.52155 0
M  V30 8443 O 1446.88 4.56534 -4.22446 0
M  V30 8444 C 1448.07 5.62629 -5.96531 0
M  V30 8445 O 1448.46 6.87667 -5.41053 0
M  V30 8446 C 1448.95 4.52537 -5.39283 0
M  V30 8447 C 1448.24 4.20027 -4.08623 0
M  V30 8448 N 1448.29 2.76189 -3.71603 0
M  V30 8449 H 1445.45 4.797 -7.24003 0
M  V30 8450 H 1445.18 3.69856 -5.84513 0
M  V30 8451 H 1446.05 6.10356 -5.41441 0
M  V30 8452 P 1450.01 7.20834 -5.23717 0
M  V30 8453 O 1450.23 8.66274 -5.38678 0
M  V30 8454 O 1450.8 6.33687 -6.13629 0
M  V30 8455 O 1450.26 6.7751 -3.72168 0
M  V30 8456 C 1449.32 7.20919 -2.70795 0
M  V30 8457 C 1450.05 7.45864 -1.40599 0
M  V30 8458 O 1450.26 6.17751 -0.734343 0
M  V30 8459 C 1451.45 8.05906 -1.51917 0
M  V30 8460 O 1451.84 8.74358 -0.335205 0
M  V30 8461 C 1452.33 6.83093 -1.70294 0
M  V30 8462 C 1451.62 5.79992 -0.836974 0
M  V30 8463 N 1451.67 4.41864 -1.38293 0
M  V30 8464 C 1451.59 4.02089 -2.69407 0
M  V30 8465 N 1451.66 2.73403 -2.85089 0
M  V30 8466 C 1451.81 2.25086 -1.5642 0
M  V30 8467 C 1451.94 0.942887 -1.04836 0
M  V30 8468 N 1451.95 -0.150999 -1.80369 0
M  V30 8469 N 1452.06 0.812565 0.28167 0
M  V30 8470 C 1452.05 1.90572 1.03784 0
M  V30 8471 N 1451.93 3.167 0.683905 0
M  V30 8472 C 1451.81 3.26538 -0.652815 0
M  V30 8473 H 1448.83 8.13738 -3.03804 0
M  V30 8474 H 1448.56 6.42974 -2.55559 0
M  V30 8475 H 1449.43 8.12139 -0.792866 0
M  V30 8476 H 1452.08 5.80178 0.160643 0
M  V30 8477 H 1452.36 6.51379 -2.75643 0
M  V30 8478 H 1453.36 7.01832 -1.3448 0
M  V30 8479 H 1451.52 8.73771 -2.38364 0
M  V30 8480 H 1451.48 4.7189 -3.52311 0
M  V30 8481 H 1451.86 -0.0721434 -2.82608 0
M  V30 8482 H 1452.05 -1.0785 -1.36544 0
M  V30 8483 H 1452.16 1.73207 2.10241 0
M  V30 8484 P 1453.39 8.91 5.92055e-12 0
M  V30 8485 O 1453.61 10.1726 0.733694 0
M  V30 8486 O 1454.18 8.73148 -1.23936 0
M  V30 8487 O 1453.64 7.66872 0.971405 0
M  V30 8488 C 1452.7 7.42309 2.04641 0
M  V30 8489 C 1453.43 6.86059 3.24661 0
M  V30 8490 O 1453.64 5.42847 3.03646 0
M  V30 8491 C 1454.83 7.41196 3.50753 0
M  V30 8492 O 1455.22 7.27073 4.86816 0
M  V30 8493 C 1455.71 6.5273 2.63741 0
M  V30 8494 C 1455 5.1842 2.73198 0
M  V30 8495 N 1455.05 4.38762 1.4784 0
M  V30 8496 H 1452.21 8.36803 2.32493 0
M  V30 8497 H 1451.94 6.70197 1.71129 0
M  V30 8498 H 1452.81 7.03551 4.13168 0
M  V30 8499 P 1456.77 7.20834 5.23717 0
M  V30 8500 O 1456.99 7.79853 6.57286 0
M  V30 8501 O 1457.56 7.79239 4.12957 0
M  V30 8502 O 1457.02 5.63315 5.29344 0
M  V30 8503 C 1456.08 4.80255 6.01876 0
M  V30 8504 C 1456.81 3.64202 6.65911 0
M  V30 8505 O 1457.02 2.60694 5.64732 0
M  V30 8506 C 1458.21 3.93473 7.1943 0
M  V30 8507 O 1458.6 3.02071 8.21205 0
M  V30 8508 C 1459.09 3.73047 5.97036 0
M  V30 8509 C 1458.38 2.58828 5.25741 0
M  V30 8510 N 1458.43 2.68068 3.77503 0
M  V30 8511 H 1455.59 5.40332 6.79951 0
M  V30 8512 H 1455.32 4.41613 5.32378 0
M  V30 8513 H 1456.19 3.26331 7.47797 0
M  V30 8514 P 1460.15 2.75334 8.47391 0
M  V30 8515 O 1460.37 2.44595 9.90239 0
M  V30 8516 O 1460.94 3.87732 7.92204 0
M  V30 8517 O 1460.4 1.4459 7.59357 0
M  V30 8518 C 1459.46 0.347563 7.69115 0
M  V30 8519 C 1460.19 -0.96767 7.52806 0
M  V30 8520 O 1460.4 -1.21036 6.1011 0
M  V30 8521 C 1461.59 -1.04544 8.13308 0
M  V30 8522 O 1461.98 -2.38311 8.41922 0
M  V30 8523 C 1462.47 -0.491279 7.02284 0
M  V30 8524 C 1461.76 -0.996264 5.77469 0
M  V30 8525 N 1461.81 -0.0501808 4.62873 0
M  V30 8526 C 1461.96 -0.588177 3.36904 0
M  V30 8527 O 1462.05 -1.78598 3.17173 0
M  V30 8528 N 1462 0.329694 2.33686 0
M  V30 8529 C 1461.91 1.6953 2.45079 0
M  V30 8530 O 1461.96 2.41926 1.44899 0
M  V30 8531 C 1461.76 2.16933 3.80505 0
M  V30 8532 C 1461.65 3.65373 3.97621 0
M  V30 8533 C 1461.71 1.30326 4.83752 0
M  V30 8534 H 1458.97 0.374722 8.67691 0
M  V30 8535 H 1458.7 0.443421 6.90177 0
M  V30 8536 H 1459.57 -1.75537 7.96793 0
M  V30 8537 H 1462.22 -1.94496 5.46629 0
M  V30 8538 H 1462.5 0.608651 7.04676 0
M  V30 8539 H 1463.5 -0.889672 7.08939 0
M  V30 8540 H 1461.66 -0.43308 9.04564 0
M  V30 8541 H 1461.59 1.68366 5.8516 0
M  V30 8542 H 1462.62 4.05985 4.30448 0
M  V30 8543 H 1460.88 3.88028 4.72875 0
M  V30 8544 H 1461.37 4.11381 3.01609 0
M  V30 8545 H 1462.11 -0.0393617 1.41345 0
M  V30 8546 P 1463.53 -2.75334 8.47391 0
M  V30 8547 O 1463.75 -3.84128 9.44797 0
M  V30 8548 O 1464.32 -1.51947 8.68712 0
M  V30 8549 O 1463.78 -3.29363 6.99321 0
M  V30 8550 C 1462.84 -4.24011 6.4274 0
M  V30 8551 C 1463.57 -5.20775 5.52155 0
M  V30 8552 O 1463.78 -4.56534 4.22446 0
M  V30 8553 C 1464.97 -5.62629 5.96531 0
M  V30 8554 O 1465.36 -6.87667 5.41053 0
M  V30 8555 C 1465.85 -4.52537 5.39283 0
M  V30 8556 C 1465.14 -4.20027 4.08623 0
M  V30 8557 N 1465.19 -2.76189 3.71603 0
M  V30 8558 H 1462.35 -4.797 7.24003 0
M  V30 8559 H 1462.08 -3.69856 5.84513 0
M  V30 8560 H 1462.95 -6.10356 5.41441 0
M  V30 8561 P 1466.91 -7.20834 5.23717 0
M  V30 8562 O 1467.13 -8.66104 5.38572 0
M  V30 8563 O 1467.7 -6.33544 6.1349 0
M  V30 8564 O 1467.16 -6.7751 3.72168 0
M  V30 8565 C 1466.22 -7.20825 2.7076 0
M  V30 8566 C 1466.95 -7.45864 1.40599 0
M  V30 8567 O 1467.16 -6.17651 0.734225 0
M  V30 8568 C 1468.35 -8.05808 1.51899 0
M  V30 8569 O 1468.74 -8.74358 0.335205 0
M  V30 8570 C 1469.23 -6.83093 1.70294 0
M  V30 8571 C 1468.52 -5.79992 0.836974 0
M  V30 8572 N 1468.57 -4.41864 1.38293 0
M  V30 8573 H 1465.73 -8.13644 3.0377 0
M  V30 8574 H 1465.46 -6.42788 2.55485 0
M  V30 8575 H 1466.33 -8.12039 0.792769 0
M  V30 8576 P 1470.29 -8.91 -4.81154e-12 0
M  V30 8577 O 1470.51 -10.1726 -0.733694 0
M  V30 8578 O 1471.08 -8.73148 1.23936 0
M  V30 8579 O 1470.54 -7.66872 -0.971405 0
M  V30 8580 C 1469.6 -7.42309 -2.04641 0
M  V30 8581 C 1470.33 -6.86059 -3.24661 0
M  V30 8582 O 1470.54 -5.42847 -3.03646 0
M  V30 8583 C 1471.73 -7.41196 -3.50753 0
M  V30 8584 O 1472.12 -7.27073 -4.86816 0
M  V30 8585 C 1472.61 -6.5273 -2.63741 0
M  V30 8586 C 1471.9 -5.1842 -2.73198 0
M  V30 8587 N 1471.95 -4.38762 -1.4784 0
M  V30 8588 H 1469.11 -8.36803 -2.32493 0
M  V30 8589 H 1468.84 -6.70197 -1.71129 0
M  V30 8590 H 1469.71 -7.03551 -4.13168 0
M  V30 8591 P 1473.67 -7.20834 -5.23717 0
M  V30 8592 O 1473.89 -7.79853 -6.57286 0
M  V30 8593 O 1474.46 -7.79239 -4.12957 0
M  V30 8594 O 1473.92 -5.63315 -5.29344 0
M  V30 8595 C 1472.98 -4.80255 -6.01876 0
M  V30 8596 C 1473.71 -3.64202 -6.65911 0
M  V30 8597 O 1473.92 -2.60694 -5.64732 0
M  V30 8598 C 1475.11 -3.93473 -7.1943 0
M  V30 8599 O 1475.5 -3.02071 -8.21205 0
M  V30 8600 C 1475.99 -3.73047 -5.97036 0
M  V30 8601 C 1475.28 -2.58828 -5.25741 0
M  V30 8602 N 1475.33 -2.68068 -3.77503 0
M  V30 8603 H 1472.49 -5.40332 -6.79951 0
M  V30 8604 H 1472.22 -4.41613 -5.32378 0
M  V30 8605 H 1473.09 -3.26331 -7.47797 0
M  V30 8606 P 1477.05 -2.75334 -8.47391 0
M  V30 8607 O 1477.27 -2.44571 -9.90142 0
M  V30 8608 O 1477.84 -3.87688 -7.92115 0
M  V30 8609 O 1477.3 -1.4459 -7.59357 0
M  V30 8610 C 1476.36 -0.347608 -7.69215 0
M  V30 8611 C 1477.09 0.96767 -7.52806 0
M  V30 8612 O 1477.3 1.21036 -6.1011 0
M  V30 8613 C 1478.49 1.04544 -8.13308 0
M  V30 8614 O 1478.88 2.38311 -8.41922 0
M  V30 8615 C 1479.37 0.491279 -7.02284 0
M  V30 8616 C 1478.66 0.996264 -5.77469 0
M  V30 8617 N 1478.71 0.0501916 -4.62973 0
M  V30 8618 H 1475.87 -0.374722 -8.67691 0
M  V30 8619 H 1475.6 -0.443485 -6.90277 0
M  V30 8620 H 1476.47 1.75537 -7.96793 0
M  V30 8621 P 1480.43 2.75334 -8.47391 0
M  V30 8622 O 1480.65 3.84128 -9.44797 0
M  V30 8623 O 1481.22 1.51947 -8.68712 0
M  V30 8624 O 1480.68 3.29363 -6.99321 0
M  V30 8625 C 1479.74 4.24011 -6.4274 0
M  V30 8626 C 1480.47 5.20775 -5.52155 0
M  V30 8627 O 1480.68 4.56534 -4.22446 0
M  V30 8628 C 1481.87 5.62629 -5.96531 0
M  V30 8629 O 1482.26 6.87667 -5.41053 0
M  V30 8630 C 1482.75 4.52537 -5.39283 0
M  V30 8631 C 1482.04 4.20027 -4.08623 0
M  V30 8632 N 1482.09 2.76189 -3.71603 0
M  V30 8633 C 1482.01 1.64862 -4.52822 0
M  V30 8634 N 1482.09 0.512671 -3.88633 0
M  V30 8635 C 1482.23 0.888083 -2.54977 0
M  V30 8636 C 1482.36 0.094668 -1.38677 0
M  V30 8637 N 1482.48 0.890102 -0.232633 0
M  V30 8638 C 1482.48 2.26958 -0.21772 0
M  V30 8639 N 1482.61 2.84626 0.97925 0
M  V30 8640 N 1482.35 3.0178 -1.31033 0
M  V30 8641 C 1482.23 2.26781 -2.43843 0
M  V30 8642 H 1479.25 4.797 -7.24003 0
M  V30 8643 H 1478.98 3.69856 -5.84513 0
M  V30 8644 H 1479.85 6.10356 -5.41441 0
M  V30 8645 P 1483.81 7.20834 -5.23717 0
M  V30 8646 O 1484.03 8.66274 -5.38678 0
M  V30 8647 O 1484.6 6.33687 -6.13629 0
M  V30 8648 O 1484.06 6.7751 -3.72168 0
M  V30 8649 C 1483.12 7.20919 -2.70795 0
M  V30 8650 C 1483.85 7.45864 -1.40599 0
M  V30 8651 O 1484.06 6.17751 -0.734343 0
M  V30 8652 C 1485.25 8.05906 -1.51917 0
M  V30 8653 O 1485.64 8.74358 -0.335205 0
M  V30 8654 C 1486.13 6.83093 -1.70294 0
M  V30 8655 C 1485.42 5.79992 -0.836974 0
M  V30 8656 N 1485.47 4.41864 -1.38293 0
M  V30 8657 C 1485.39 4.02089 -2.69407 0
M  V30 8658 N 1485.46 2.73403 -2.85089 0
M  V30 8659 C 1485.61 2.25086 -1.5642 0
M  V30 8660 C 1485.74 0.942887 -1.04836 0
M  V30 8661 N 1485.75 -0.150999 -1.80369 0
M  V30 8662 N 1485.86 0.812565 0.28167 0
M  V30 8663 C 1485.85 1.90572 1.03784 0
M  V30 8664 N 1485.73 3.167 0.683905 0
M  V30 8665 C 1485.61 3.26538 -0.652815 0
M  V30 8666 H 1482.63 8.13738 -3.03804 0
M  V30 8667 H 1482.36 6.42974 -2.55559 0
M  V30 8668 H 1483.23 8.12139 -0.792866 0
M  V30 8669 H 1485.88 5.80178 0.160643 0
M  V30 8670 H 1486.16 6.51379 -2.75643 0
M  V30 8671 H 1487.16 7.01832 -1.3448 0
M  V30 8672 H 1485.32 8.73771 -2.38364 0
M  V30 8673 H 1485.28 4.7189 -3.52311 0
M  V30 8674 H 1485.66 -0.0721434 -2.82608 0
M  V30 8675 H 1485.85 -1.0785 -1.36544 0
M  V30 8676 H 1485.96 1.73207 2.10241 0
M  V30 8677 P 1487.19 8.91 3.70254e-12 0
M  V30 8678 O 1487.41 10.1726 0.733694 0
M  V30 8679 O 1487.98 8.73148 -1.23936 0
M  V30 8680 O 1487.44 7.66872 0.971405 0
M  V30 8681 C 1486.5 7.42309 2.04641 0
M  V30 8682 C 1487.23 6.86059 3.24661 0
M  V30 8683 O 1487.44 5.42847 3.03646 0
M  V30 8684 C 1488.63 7.41196 3.50753 0
M  V30 8685 O 1489.02 7.27073 4.86816 0
M  V30 8686 C 1489.51 6.5273 2.63741 0
M  V30 8687 C 1488.8 5.1842 2.73198 0
M  V30 8688 N 1488.85 4.38762 1.4784 0
M  V30 8689 H 1486.01 8.36803 2.32493 0
M  V30 8690 H 1485.74 6.70197 1.71129 0
M  V30 8691 H 1486.61 7.03551 4.13168 0
M  V30 8692 P 1490.57 7.20834 5.23717 0
M  V30 8693 O 1490.79 7.7993 6.57351 0
M  V30 8694 O 1491.36 7.79328 4.13004 0
M  V30 8695 O 1490.82 5.63315 5.29344 0
M  V30 8696 C 1489.88 4.80193 6.01798 0
M  V30 8697 C 1490.61 3.64202 6.65911 0
M  V30 8698 O 1490.82 2.60694 5.64732 0
M  V30 8699 C 1492.01 3.93473 7.1943 0
M  V30 8700 O 1492.4 3.02071 8.21205 0
M  V30 8701 C 1492.89 3.73047 5.97036 0
M  V30 8702 C 1492.18 2.58828 5.25741 0
M  V30 8703 N 1492.23 2.6801 3.77422 0
M  V30 8704 C 1492.38 1.50443 3.07133 0
M  V30 8705 O 1492.47 0.419406 3.61576 0
M  V30 8706 N 1492.42 1.6403 1.69677 0
M  V30 8707 C 1492.33 2.81206 0.986255 0
M  V30 8708 O 1492.38 2.80892 -0.249754 0
M  V30 8709 C 1492.18 3.99158 1.80325 0
M  V30 8710 C 1492.07 5.29309 1.06921 0
M  V30 8711 C 1492.13 3.89779 3.1476 0
M  V30 8712 H 1489.39 5.40332 6.79951 0
M  V30 8713 H 1489.12 4.41549 5.32301 0
M  V30 8714 H 1489.99 3.26331 7.47797 0
M  V30 8715 H 1492.64 1.6395 5.56554 0
M  V30 8716 H 1492.92 4.63439 5.3432 0
M  V30 8717 H 1493.92 3.44728 6.25838 0
M  V30 8718 H 1492.08 4.96652 7.57263 0
M  V30 8719 H 1492.01 4.80159 3.74441 0
M  V30 8720 H 1493.04 5.81459 1.09608 0
M  V30 8721 H 1491.3 5.9187 1.54487 0
M  V30 8722 H 1491.79 5.10095 0.0220288 0
M  V30 8723 H 1492.53 0.798962 1.16664 0
M  V30 8724 P 1493.95 2.75334 8.47391 0
M  V30 8725 O 1494.17 2.44571 9.90142 0
M  V30 8726 O 1494.74 3.87688 7.92115 0
M  V30 8727 O 1494.2 1.4459 7.59357 0
M  V30 8728 C 1493.26 0.347608 7.69215 0
M  V30 8729 C 1493.99 -0.96767 7.52806 0
M  V30 8730 O 1494.2 -1.21036 6.1011 0
M  V30 8731 C 1495.39 -1.04544 8.13308 0
M  V30 8732 O 1495.78 -2.38311 8.41922 0
M  V30 8733 C 1496.27 -0.491279 7.02284 0
M  V30 8734 C 1495.56 -0.996264 5.77469 0
M  V30 8735 N 1495.61 -0.0501916 4.62973 0
M  V30 8736 C 1495.53 1.32786 4.63244 0
M  V30 8737 N 1495.61 1.86957 3.44545 0
M  V30 8738 C 1495.75 0.780241 2.58481 0
M  V30 8739 C 1495.88 0.738536 1.17757 0
M  V30 8740 N 1496 -0.58337 0.711393 0
M  V30 8741 C 1496 -1.70816 1.51017 0
M  V30 8742 N 1496.13 -2.87826 0.880757 0
M  V30 8743 N 1495.87 -1.67126 2.8339 0
M  V30 8744 C 1495.75 -0.401421 3.30572 0
M  V30 8745 H 1492.77 0.374722 8.67691 0
M  V30 8746 H 1492.5 0.443485 6.90277 0
M  V30 8747 H 1493.37 -1.75537 7.96793 0
M  V30 8748 P 1497.33 -2.75334 8.47391 0
M  V30 8749 O 1497.55 -3.84204 9.44982 0
M  V30 8750 O 1498.12 -1.51982 8.68909 0
M  V30 8751 O 1497.58 -3.29363 6.99321 0
M  V30 8752 C 1496.64 -4.24066 6.42823 0
M  V30 8753 C 1497.37 -5.20775 5.52155 0
M  V30 8754 O 1497.58 -4.56607 4.22514 0
M  V30 8755 C 1498.77 -5.62697 5.96604 0
M  V30 8756 O 1499.16 -6.87667 5.41053 0
M  V30 8757 C 1499.65 -4.52537 5.39283 0
M  V30 8758 C 1498.94 -4.20027 4.08623 0
M  V30 8759 N 1498.99 -2.76189 3.71603 0
M  V30 8760 C 1498.91 -1.66944 4.54297 0
M  V30 8761 N 1498.98 -0.536169 3.91344 0
M  V30 8762 C 1499.13 -0.901569 2.58849 0
M  V30 8763 C 1499.26 -0.146599 1.40236 0
M  V30 8764 N 1499.27 1.18234 1.37046 0
M  V30 8765 N 1499.38 -0.822941 0.249738 0
M  V30 8766 C 1499.37 -2.15179 0.280525 0
M  V30 8767 N 1499.25 -2.96414 1.30822 0
M  V30 8768 C 1499.13 -2.25804 2.44748 0
M  V30 8769 H 1496.15 -4.79756 7.24086 0
M  V30 8770 H 1495.88 -3.69963 5.84682 0
M  V30 8771 H 1496.75 -6.10431 5.41508 0
M  V30 8772 H 1499.4 -4.78816 3.28024 0
M  V30 8773 H 1499.68 -3.64957 6.05871 0
M  V30 8774 H 1500.68 -4.88748 5.21323 0
M  V30 8775 H 1498.84 -5.66789 7.0643 0
M  V30 8776 H 1498.8 -1.74684 5.62396 0
M  V30 8777 H 1499.18 1.71949 2.24394 0
M  V30 8778 H 1499.37 1.67511 0.470742 0
M  V30 8779 H 1499.48 -2.63704 -0.6828 0
M  V30 8780 P 1500.71 -7.20834 5.23717 0
M  V30 8781 O 1500.93 -8.66104 5.38572 0
M  V30 8782 O 1501.5 -6.33544 6.1349 0
M  V30 8783 O 1500.96 -6.7751 3.72168 0
M  V30 8784 C 1500.02 -7.20825 2.7076 0
M  V30 8785 C 1500.75 -7.45864 1.40599 0
M  V30 8786 O 1500.96 -6.17651 0.734225 0
M  V30 8787 C 1502.15 -8.05808 1.51899 0
M  V30 8788 O 1502.54 -8.74358 0.335205 0
M  V30 8789 C 1503.03 -6.83093 1.70294 0
M  V30 8790 C 1502.32 -5.79992 0.836974 0
M  V30 8791 N 1502.37 -4.41864 1.38293 0
M  V30 8792 H 1499.53 -8.13644 3.0377 0
M  V30 8793 H 1499.26 -6.42788 2.55485 0
M  V30 8794 H 1500.13 -8.12039 0.792769 0
M  V30 8795 P 1504.09 -8.91 -2.59353e-12 0
M  V30 8796 O 1504.31 -10.1726 -0.733694 0
M  V30 8797 O 1504.88 -8.73148 1.23936 0
M  V30 8798 O 1504.34 -7.66872 -0.971405 0
M  V30 8799 C 1503.4 -7.42309 -2.04641 0
M  V30 8800 C 1504.13 -6.86059 -3.24661 0
M  V30 8801 O 1504.34 -5.42847 -3.03646 0
M  V30 8802 C 1505.53 -7.41196 -3.50753 0
M  V30 8803 O 1505.92 -7.27073 -4.86816 0
M  V30 8804 C 1506.41 -6.5273 -2.63741 0
M  V30 8805 C 1505.7 -5.1842 -2.73198 0
M  V30 8806 N 1505.75 -4.38762 -1.4784 0
M  V30 8807 H 1502.91 -8.36803 -2.32493 0
M  V30 8808 H 1502.64 -6.70197 -1.71129 0
M  V30 8809 H 1503.51 -7.03551 -4.13168 0
M  V30 8810 P 1507.47 -7.20834 -5.23717 0
M  V30 8811 O 1507.69 -7.79853 -6.57286 0
M  V30 8812 O 1508.26 -7.79239 -4.12957 0
M  V30 8813 O 1507.72 -5.63315 -5.29344 0
M  V30 8814 C 1506.78 -4.80255 -6.01876 0
M  V30 8815 C 1507.51 -3.64202 -6.65911 0
M  V30 8816 O 1507.72 -2.60694 -5.64732 0
M  V30 8817 C 1508.91 -3.93473 -7.1943 0
M  V30 8818 O 1509.3 -3.02071 -8.21205 0
M  V30 8819 C 1509.79 -3.73047 -5.97036 0
M  V30 8820 C 1509.08 -2.58828 -5.25741 0
M  V30 8821 N 1509.13 -2.68068 -3.77503 0
M  V30 8822 H 1506.29 -5.40332 -6.79951 0
M  V30 8823 H 1506.02 -4.41613 -5.32378 0
M  V30 8824 H 1506.89 -3.26331 -7.47797 0
M  V30 8825 P 1510.85 -2.75334 -8.47391 0
M  V30 8826 O 1511.07 -2.44571 -9.90142 0
M  V30 8827 O 1511.64 -3.87688 -7.92115 0
M  V30 8828 O 1511.1 -1.4459 -7.59357 0
M  V30 8829 C 1510.16 -0.347608 -7.69215 0
M  V30 8830 C 1510.89 0.96767 -7.52806 0
M  V30 8831 O 1511.1 1.21036 -6.1011 0
M  V30 8832 C 1512.29 1.04544 -8.13308 0
M  V30 8833 O 1512.68 2.38311 -8.41922 0
M  V30 8834 C 1513.17 0.491279 -7.02284 0
M  V30 8835 C 1512.46 0.996264 -5.77469 0
M  V30 8836 N 1512.51 0.0501916 -4.62973 0
M  V30 8837 H 1509.67 -0.374722 -8.67691 0
M  V30 8838 H 1509.4 -0.443485 -6.90277 0
M  V30 8839 H 1510.27 1.75537 -7.96793 0
M  V30 8840 P 1514.23 2.75334 -8.47391 0
M  V30 8841 O 1514.45 3.84204 -9.44982 0
M  V30 8842 O 1515.02 1.51982 -8.68909 0
M  V30 8843 O 1514.48 3.29363 -6.99321 0
M  V30 8844 C 1513.54 4.24066 -6.42823 0
M  V30 8845 C 1514.27 5.20775 -5.52155 0
M  V30 8846 O 1514.48 4.56607 -4.22514 0
M  V30 8847 C 1515.67 5.62697 -5.96604 0
M  V30 8848 O 1516.06 6.87667 -5.41053 0
M  V30 8849 C 1516.55 4.52537 -5.39283 0
M  V30 8850 C 1515.84 4.20027 -4.08623 0
M  V30 8851 N 1515.89 2.76189 -3.71603 0
M  V30 8852 C 1515.81 1.66944 -4.54297 0
M  V30 8853 N 1515.88 0.536169 -3.91344 0
M  V30 8854 C 1516.03 0.901569 -2.58849 0
M  V30 8855 C 1516.16 0.146599 -1.40236 0
M  V30 8856 N 1516.17 -1.18234 -1.37046 0
M  V30 8857 N 1516.28 0.822941 -0.249738 0
M  V30 8858 C 1516.27 2.15179 -0.280525 0
M  V30 8859 N 1516.15 2.96414 -1.30822 0
M  V30 8860 C 1516.03 2.25804 -2.44748 0
M  V30 8861 H 1513.05 4.79756 -7.24086 0
M  V30 8862 H 1512.78 3.69963 -5.84682 0
M  V30 8863 H 1513.65 6.10431 -5.41508 0
M  V30 8864 H 1516.3 4.78816 -3.28024 0
M  V30 8865 H 1516.58 3.64957 -6.05871 0
M  V30 8866 H 1517.58 4.88748 -5.21323 0
M  V30 8867 H 1515.74 5.66789 -7.0643 0
M  V30 8868 H 1515.7 1.74684 -5.62396 0
M  V30 8869 H 1516.08 -1.71949 -2.24394 0
M  V30 8870 H 1516.27 -1.67511 -0.470742 0
M  V30 8871 H 1516.38 2.63704 0.6828 0
M  V30 8872 P 1517.61 7.20834 -5.23717 0
M  V30 8873 O 1517.83 8.66274 -5.38678 0
M  V30 8874 O 1518.4 6.33687 -6.13629 0
M  V30 8875 O 1517.86 6.7751 -3.72168 0
M  V30 8876 C 1516.92 7.20919 -2.70795 0
M  V30 8877 C 1517.65 7.45864 -1.40599 0
M  V30 8878 O 1517.86 6.17751 -0.734343 0
M  V30 8879 C 1519.05 8.05906 -1.51917 0
M  V30 8880 O 1519.44 8.74358 -0.335205 0
M  V30 8881 C 1519.93 6.83093 -1.70294 0
M  V30 8882 C 1519.22 5.79992 -0.836974 0
M  V30 8883 N 1519.27 4.41864 -1.38293 0
M  V30 8884 C 1519.19 4.02089 -2.69407 0
M  V30 8885 N 1519.26 2.73403 -2.85089 0
M  V30 8886 C 1519.41 2.25086 -1.5642 0
M  V30 8887 C 1519.54 0.942887 -1.04836 0
M  V30 8888 N 1519.55 -0.150999 -1.80369 0
M  V30 8889 N 1519.66 0.812565 0.28167 0
M  V30 8890 C 1519.65 1.90572 1.03784 0
M  V30 8891 N 1519.53 3.167 0.683905 0
M  V30 8892 C 1519.41 3.26538 -0.652815 0
M  V30 8893 H 1516.43 8.13738 -3.03804 0
M  V30 8894 H 1516.16 6.42974 -2.55559 0
M  V30 8895 H 1517.03 8.12139 -0.792866 0
M  V30 8896 H 1519.68 5.80178 0.160643 0
M  V30 8897 H 1519.96 6.51379 -2.75643 0
M  V30 8898 H 1520.96 7.01832 -1.3448 0
M  V30 8899 H 1519.12 8.73771 -2.38364 0
M  V30 8900 H 1519.08 4.7189 -3.52311 0
M  V30 8901 H 1519.46 -0.0721434 -2.82608 0
M  V30 8902 H 1519.65 -1.0785 -1.36544 0
M  V30 8903 H 1519.76 1.73207 2.10241 0
M  V30 8904 P 1520.99 8.91 1.48453e-12 0
M  V30 8905 O 1521.21 10.1726 0.733694 0
M  V30 8906 O 1521.78 8.73148 -1.23936 0
M  V30 8907 O 1521.24 7.66872 0.971405 0
M  V30 8908 C 1520.3 7.42309 2.04641 0
M  V30 8909 C 1521.03 6.86059 3.24661 0
M  V30 8910 O 1521.24 5.42847 3.03646 0
M  V30 8911 C 1522.43 7.41196 3.50753 0
M  V30 8912 O 1522.82 7.27073 4.86816 0
M  V30 8913 C 1523.31 6.5273 2.63741 0
M  V30 8914 C 1522.6 5.1842 2.73198 0
M  V30 8915 N 1522.65 4.38762 1.4784 0
M  V30 8916 H 1519.81 8.36803 2.32493 0
M  V30 8917 H 1519.54 6.70197 1.71129 0
M  V30 8918 H 1520.41 7.03551 4.13168 0
M  V30 8919 P 1524.37 7.20834 5.23717 0
M  V30 8920 O 1524.59 7.79853 6.57286 0
M  V30 8921 O 1525.16 7.79239 4.12957 0
M  V30 8922 O 1524.62 5.63315 5.29344 0
M  V30 8923 C 1523.68 4.80255 6.01876 0
M  V30 8924 C 1524.41 3.64202 6.65911 0
M  V30 8925 O 1524.62 2.60694 5.64732 0
M  V30 8926 C 1525.81 3.93473 7.1943 0
M  V30 8927 O 1526.2 3.02071 8.21205 0
M  V30 8928 C 1526.69 3.73047 5.97036 0
M  V30 8929 C 1525.98 2.58828 5.25741 0
M  V30 8930 N 1526.03 2.68068 3.77503 0
M  V30 8931 H 1523.19 5.40332 6.79951 0
M  V30 8932 H 1522.92 4.41613 5.32378 0
M  V30 8933 H 1523.79 3.26331 7.47797 0
M  V30 8934 P 1527.75 2.75334 8.47391 0
M  V30 8935 O 1527.97 2.44571 9.90142 0
M  V30 8936 O 1528.54 3.87688 7.92115 0
M  V30 8937 O 1528 1.4459 7.59357 0
M  V30 8938 C 1527.06 0.347608 7.69215 0
M  V30 8939 C 1527.79 -0.96767 7.52806 0
M  V30 8940 O 1528 -1.21036 6.1011 0
M  V30 8941 C 1529.19 -1.04544 8.13308 0
M  V30 8942 O 1529.58 -2.38311 8.41922 0
M  V30 8943 C 1530.07 -0.491279 7.02284 0
M  V30 8944 C 1529.36 -0.996264 5.77469 0
M  V30 8945 N 1529.41 -0.0501916 4.62973 0
M  V30 8946 H 1526.57 0.374722 8.67691 0
M  V30 8947 H 1526.3 0.443485 6.90277 0
M  V30 8948 H 1527.17 -1.75537 7.96793 0
M  V30 8949 P 1531.13 -2.75334 8.47391 0
M  V30 8950 O 1531.35 -3.84128 9.44797 0
M  V30 8951 O 1531.92 -1.51947 8.68712 0
M  V30 8952 O 1531.38 -3.29363 6.99321 0
M  V30 8953 C 1530.44 -4.24011 6.4274 0
M  V30 8954 C 1531.17 -5.20775 5.52155 0
M  V30 8955 O 1531.38 -4.56534 4.22446 0
M  V30 8956 C 1532.57 -5.62629 5.96531 0
M  V30 8957 O 1532.96 -6.87667 5.41053 0
M  V30 8958 C 1533.45 -4.52537 5.39283 0
M  V30 8959 C 1532.74 -4.20027 4.08623 0
M  V30 8960 N 1532.79 -2.76189 3.71603 0
M  V30 8961 H 1529.95 -4.797 7.24003 0
M  V30 8962 H 1529.68 -3.69856 5.84513 0
M  V30 8963 H 1530.55 -6.10356 5.41441 0
M  V30 8964 P 1534.51 -7.20834 5.23717 0
M  V30 8965 O 1534.73 -8.66189 5.38625 0
M  V30 8966 O 1535.3 -6.33615 6.1356 0
M  V30 8967 O 1534.76 -6.7751 3.72168 0
M  V30 8968 C 1533.82 -7.20732 2.70725 0
M  V30 8969 C 1534.55 -7.45864 1.40599 0
M  V30 8970 O 1534.76 -6.17651 0.734225 0
M  V30 8971 C 1535.95 -8.05808 1.51899 0
M  V30 8972 O 1536.34 -8.74358 0.335205 0
M  V30 8973 C 1536.83 -6.83093 1.70294 0
M  V30 8974 C 1536.12 -5.79992 0.836974 0
M  V30 8975 N 1536.17 -4.41769 1.38263 0
M  V30 8976 C 1536.32 -3.38591 0.481702 0
M  V30 8977 O 1536.41 -3.56839 -0.718452 0
M  V30 8978 N 1536.36 -2.1206 1.03569 0
M  V30 8979 C 1536.27 -1.80696 2.36966 0
M  V30 8980 C 1536.12 -2.94845 3.23898 0
M  V30 8981 C 1536.07 -4.19803 2.73435 0
M  V30 8982 H 1533.33 -8.13644 3.0377 0
M  V30 8983 H 1533.06 -6.42695 2.55448 0
M  V30 8984 H 1533.93 -8.12039 0.792769 0
M  V30 8985 H 1536.58 -5.79978 -0.160587 0
M  V30 8986 H 1536.86 -6.51379 2.75643 0
M  V30 8987 H 1537.85 -7.01734 1.34462 0
M  V30 8988 H 1536.02 -8.73674 2.38337 0
M  V30 8989 H 1535.95 -5.04492 3.4095 0
M  V30 8990 P 1537.89 -8.91 -3.75525e-13 0
M  V30 8991 O 1538.11 -10.1726 -0.733694 0
M  V30 8992 O 1538.68 -8.73148 1.23936 0
M  V30 8993 O 1538.14 -7.66872 -0.971405 0
M  V30 8994 C 1537.2 -7.42309 -2.04641 0
M  V30 8995 C 1537.93 -6.86059 -3.24661 0
M  V30 8996 O 1538.14 -5.42847 -3.03646 0
M  V30 8997 C 1539.33 -7.41196 -3.50753 0
M  V30 8998 O 1539.72 -7.27073 -4.86816 0
M  V30 8999 C 1540.21 -6.5273 -2.63741 0
M  V30 9000 C 1539.5 -5.1842 -2.73198 0
M  V30 9001 N 1539.55 -4.38762 -1.4784 0
M  V30 9002 H 1536.71 -8.36803 -2.32493 0
M  V30 9003 H 1536.44 -6.70197 -1.71129 0
M  V30 9004 H 1537.31 -7.03551 -4.13168 0
M  V30 9005 P 1541.27 -7.20834 -5.23717 0
M  V30 9006 O 1541.49 -7.79853 -6.57286 0
M  V30 9007 O 1542.06 -7.79239 -4.12957 0
M  V30 9008 O 1541.52 -5.63315 -5.29344 0
M  V30 9009 C 1540.58 -4.80255 -6.01876 0
M  V30 9010 C 1541.31 -3.64202 -6.65911 0
M  V30 9011 O 1541.52 -2.60694 -5.64732 0
M  V30 9012 C 1542.71 -3.93473 -7.1943 0
M  V30 9013 O 1543.1 -3.02071 -8.21205 0
M  V30 9014 C 1543.59 -3.73047 -5.97036 0
M  V30 9015 C 1542.88 -2.58828 -5.25741 0
M  V30 9016 N 1542.93 -2.68068 -3.77503 0
M  V30 9017 C 1542.85 -3.79715 -2.96723 0
M  V30 9018 N 1542.93 -3.5377 -1.68852 0
M  V30 9019 C 1543.07 -2.15054 -1.63254 0
M  V30 9020 C 1543.2 -1.28964 -0.518571 0
M  V30 9021 N 1543.32 0.0538097 -0.918425 0
M  V30 9022 C 1543.32 0.494275 -2.22578 0
M  V30 9023 N 1543.45 1.81086 -2.40434 0
M  V30 9024 N 1543.19 -0.313645 -3.27502 0
M  V30 9025 C 1543.07 -1.61829 -2.91033 0
M  V30 9026 H 1540.09 -5.40332 -6.79951 0
M  V30 9027 H 1539.82 -4.41613 -5.32378 0
M  V30 9028 H 1540.69 -3.26331 -7.47797 0
M  V30 9029 P 1544.65 -2.75334 -8.47391 0
M  V30 9030 O 1544.87 -2.44619 -9.90336 0
M  V30 9031 O 1545.44 -3.87776 -7.92294 0
M  V30 9032 O 1544.9 -1.4459 -7.59357 0
M  V30 9033 C 1543.96 -0.347653 -7.69315 0
M  V30 9034 C 1544.69 0.96767 -7.52806 0
M  V30 9035 O 1544.9 1.21055 -6.10208 0
M  V30 9036 C 1546.09 1.04557 -8.13408 0
M  V30 9037 O 1546.48 2.38311 -8.41922 0
M  V30 9038 C 1546.97 0.491279 -7.02284 0
M  V30 9039 C 1546.26 0.996264 -5.77469 0
M  V30 9040 N 1546.31 0.0501916 -4.62973 0
M  V30 9041 C 1546.23 -1.31969 -4.65661 0
M  V30 9042 N 1546.3 -1.86649 -3.48119 0
M  V30 9043 C 1546.45 -0.792089 -2.62406 0
M  V30 9044 C 1546.58 -0.705684 -1.2207 0
M  V30 9045 N 1546.59 -1.76207 -0.413762 0
M  V30 9046 N 1546.7 0.518981 -0.685754 0
M  V30 9047 C 1546.69 1.57595 -1.49174 0
M  V30 9048 N 1546.57 1.62909 -2.80066 0
M  V30 9049 C 1546.45 0.388195 -3.3073 0
M  V30 9050 H 1543.47 -0.374765 -8.67791 0
M  V30 9051 H 1543.2 -0.443613 -6.90476 0
M  V30 9052 H 1544.07 1.75559 -7.96891 0
M  V30 9053 H 1546.72 1.94563 -5.46818 0
M  V30 9054 H 1547 -0.608651 -7.04676 0
M  V30 9055 H 1547.99 0.889796 -7.09039 0
M  V30 9056 H 1546.16 0.433128 -9.04664 0
M  V30 9057 H 1546.12 -1.89246 -5.57664 0
M  V30 9058 H 1546.5 -2.71005 -0.804694 0
M  V30 9059 H 1546.69 -1.63189 0.603768 0
M  V30 9060 H 1546.8 2.53475 -0.997614 0
M  V30 9061 P 1548.03 2.75334 -8.47391 0
M  V30 9062 O 1548.25 3.84128 -9.44797 0
M  V30 9063 O 1548.82 1.51947 -8.68712 0
M  V30 9064 O 1548.28 3.29363 -6.99321 0
M  V30 9065 C 1547.34 4.24011 -6.4274 0
M  V30 9066 C 1548.07 5.20775 -5.52155 0
M  V30 9067 O 1548.28 4.56534 -4.22446 0
M  V30 9068 C 1549.47 5.62629 -5.96531 0
M  V30 9069 O 1549.86 6.87667 -5.41053 0
M  V30 9070 C 1550.35 4.52537 -5.39283 0
M  V30 9071 C 1549.64 4.20027 -4.08623 0
M  V30 9072 N 1549.69 2.76189 -3.71603 0
M  V30 9073 H 1546.85 4.797 -7.24003 0
M  V30 9074 H 1546.58 3.69856 -5.84513 0
M  V30 9075 H 1547.45 6.10356 -5.41441 0
M  V30 9076 P 1551.41 7.20834 -5.23717 0
M  V30 9077 O 1551.63 8.66104 -5.38572 0
M  V30 9078 O 1552.2 6.33544 -6.1349 0
M  V30 9079 O 1551.66 6.7751 -3.72168 0
M  V30 9080 C 1550.72 7.20825 -2.7076 0
M  V30 9081 C 1551.45 7.45864 -1.40599 0
M  V30 9082 O 1551.66 6.17651 -0.734225 0
M  V30 9083 C 1552.85 8.05808 -1.51899 0
M  V30 9084 O 1553.24 8.74358 -0.335205 0
M  V30 9085 C 1553.73 6.83093 -1.70294 0
M  V30 9086 C 1553.02 5.79992 -0.836974 0
M  V30 9087 N 1553.07 4.41864 -1.38293 0
M  V30 9088 C 1552.99 3.99538 -2.69438 0
M  V30 9089 N 1553.07 2.69909 -2.84277 0
M  V30 9090 C 1553.21 2.21719 -1.5408 0
M  V30 9091 C 1553.34 0.891712 -1.06628 0
M  V30 9092 N 1553.46 0.856846 0.334985 0
M  V30 9093 C 1553.46 1.9641 1.15789 0
M  V30 9094 N 1553.59 1.72708 2.46522 0
M  V30 9095 N 1553.33 3.21165 0.713741 0
M  V30 9096 C 1553.21 3.26797 -0.639748 0
M  V30 9097 H 1550.23 8.13644 -3.0377 0
M  V30 9098 H 1549.96 6.42788 -2.55485 0
M  V30 9099 H 1550.83 8.12039 -0.792769 0
M  V30 9100 P 1554.79 8.91 -7.3348e-13 0
M  V30 9101 O 1555.01 10.1726 0.733694 0
M  V30 9102 O 1555.58 8.73148 -1.23936 0
M  V30 9103 O 1555.04 7.66872 0.971405 0
M  V30 9104 C 1554.1 7.42309 2.04641 0
M  V30 9105 C 1554.83 6.86059 3.24661 0
M  V30 9106 O 1555.04 5.42847 3.03646 0
M  V30 9107 C 1556.23 7.41196 3.50753 0
M  V30 9108 O 1556.62 7.27073 4.86816 0
M  V30 9109 C 1557.11 6.5273 2.63741 0
M  V30 9110 C 1556.4 5.1842 2.73198 0
M  V30 9111 N 1556.45 4.38762 1.4784 0
M  V30 9112 H 1553.61 8.36803 2.32493 0
M  V30 9113 H 1553.34 6.70197 1.71129 0
M  V30 9114 H 1554.21 7.03551 4.13168 0
M  V30 9115 P 1558.17 7.20834 5.23717 0
M  V30 9116 O 1558.39 7.79853 6.57286 0
M  V30 9117 O 1558.96 7.79239 4.12957 0
M  V30 9118 O 1558.42 5.63315 5.29344 0
M  V30 9119 C 1557.48 4.80255 6.01876 0
M  V30 9120 C 1558.21 3.64202 6.65911 0
M  V30 9121 O 1558.42 2.60694 5.64732 0
M  V30 9122 C 1559.61 3.93473 7.1943 0
M  V30 9123 O 1560 3.02071 8.21205 0
M  V30 9124 C 1560.49 3.73047 5.97036 0
M  V30 9125 C 1559.78 2.58828 5.25741 0
M  V30 9126 N 1559.83 2.68068 3.77503 0
M  V30 9127 H 1556.99 5.40332 6.79951 0
M  V30 9128 H 1556.72 4.41613 5.32378 0
M  V30 9129 H 1557.59 3.26331 7.47797 0
M  V30 9130 P 1561.55 2.75334 8.47391 0
M  V30 9131 O 1561.77 2.44619 9.90336 0
M  V30 9132 O 1562.34 3.87776 7.92294 0
M  V30 9133 O 1561.8 1.4459 7.59357 0
M  V30 9134 C 1560.86 0.347653 7.69315 0
M  V30 9135 C 1561.59 -0.96767 7.52806 0
M  V30 9136 O 1561.8 -1.21055 6.10208 0
M  V30 9137 C 1562.99 -1.04557 8.13408 0
M  V30 9138 O 1563.38 -2.38311 8.41922 0
M  V30 9139 C 1563.87 -0.491279 7.02284 0
M  V30 9140 C 1563.16 -0.996264 5.77469 0
M  V30 9141 N 1563.21 -0.0501916 4.62973 0
M  V30 9142 C 1563.13 1.31969 4.65661 0
M  V30 9143 N 1563.2 1.86649 3.48119 0
M  V30 9144 C 1563.35 0.792089 2.62406 0
M  V30 9145 C 1563.48 0.705684 1.2207 0
M  V30 9146 N 1563.49 1.76207 0.413762 0
M  V30 9147 N 1563.6 -0.518981 0.685754 0
M  V30 9148 C 1563.59 -1.57595 1.49174 0
M  V30 9149 N 1563.47 -1.62909 2.80066 0
M  V30 9150 C 1563.35 -0.388195 3.3073 0
M  V30 9151 H 1560.37 0.374765 8.67791 0
M  V30 9152 H 1560.1 0.443613 6.90476 0
M  V30 9153 H 1560.97 -1.75559 7.96891 0
M  V30 9154 H 1563.62 -1.94563 5.46818 0
M  V30 9155 H 1563.9 0.608651 7.04676 0
M  V30 9156 H 1564.89 -0.889796 7.09039 0
M  V30 9157 H 1563.06 -0.433128 9.04664 0
M  V30 9158 H 1563.02 1.89246 5.57664 0
M  V30 9159 H 1563.4 2.71005 0.804694 0
M  V30 9160 H 1563.59 1.63189 -0.603768 0
M  V30 9161 H 1563.7 -2.53475 0.997614 0
M  V30 9162 P 1564.93 -2.75334 8.47391 0
M  V30 9163 O 1565.15 -3.84128 9.44797 0
M  V30 9164 O 1565.72 -1.51947 8.68712 0
M  V30 9165 O 1565.18 -3.29363 6.99321 0
M  V30 9166 C 1564.24 -4.24011 6.4274 0
M  V30 9167 C 1564.97 -5.20775 5.52155 0
M  V30 9168 O 1565.18 -4.56534 4.22446 0
M  V30 9169 C 1566.37 -5.62629 5.96531 0
M  V30 9170 O 1566.76 -6.87667 5.41053 0
M  V30 9171 C 1567.25 -4.52537 5.39283 0
M  V30 9172 C 1566.54 -4.20027 4.08623 0
M  V30 9173 N 1566.59 -2.76189 3.71603 0
M  V30 9174 H 1563.75 -4.797 7.24003 0
M  V30 9175 H 1563.48 -3.69856 5.84513 0
M  V30 9176 H 1564.35 -6.10356 5.41441 0
M  V30 9177 P 1568.31 -7.20834 5.23717 0
M  V30 9178 O 1568.53 -8.66104 5.38572 0
M  V30 9179 O 1569.1 -6.33544 6.1349 0
M  V30 9180 O 1568.56 -6.7751 3.72168 0
M  V30 9181 C 1567.62 -7.20825 2.7076 0
M  V30 9182 C 1568.35 -7.45864 1.40599 0
M  V30 9183 O 1568.56 -6.17651 0.734225 0
M  V30 9184 C 1569.75 -8.05808 1.51899 0
M  V30 9185 O 1570.14 -8.74358 0.335205 0
M  V30 9186 C 1570.63 -6.83093 1.70294 0
M  V30 9187 C 1569.92 -5.79992 0.836974 0
M  V30 9188 N 1569.97 -4.41864 1.38293 0
M  V30 9189 H 1567.13 -8.13644 3.0377 0
M  V30 9190 H 1566.86 -6.42788 2.55485 0
M  V30 9191 H 1567.73 -8.12039 0.792769 0
M  V30 9192 P 1571.69 -8.91 1.84249e-12 0
M  V30 9193 O 1571.91 -10.1736 -0.733766 0
M  V30 9194 O 1572.48 -8.73247 1.2395 0
M  V30 9195 O 1571.94 -7.66872 -0.971405 0
M  V30 9196 C 1571 -7.42309 -2.04641 0
M  V30 9197 C 1571.73 -6.86059 -3.24661 0
M  V30 9198 O 1571.94 -5.42847 -3.03646 0
M  V30 9199 C 1573.13 -7.41196 -3.50753 0
M  V30 9200 O 1573.52 -7.27073 -4.86816 0
M  V30 9201 C 1574.01 -6.5273 -2.63741 0
M  V30 9202 C 1573.3 -5.1842 -2.73198 0
M  V30 9203 N 1573.35 -4.38668 -1.47808 0
M  V30 9204 C 1573.5 -3.00789 -1.58511 0
M  V30 9205 O 1573.59 -2.50116 -2.71298 0
M  V30 9206 N 1573.55 -2.29703 -0.253698 0
M  V30 9207 C 1573.45 -2.84269 0.750133 0
M  V30 9208 N 1573.5 -2.06951 1.82612 0
M  V30 9209 C 1573.3 -4.25803 0.889776 0
M  V30 9210 C 1573.25 -4.98326 -0.259363 0
M  V30 9211 H 1570.51 -8.36707 -2.32466 0
M  V30 9212 H 1570.24 -6.701 -1.71105 0
M  V30 9213 H 1571.11 -7.03638 -4.13219 0
M  V30 9214 H 1573.76 -4.59852 -3.53955 0
M  V30 9215 H 1574.04 -6.88995 -1.59871 0
M  V30 9216 H 1575.03 -6.46749 -3.03687 0
M  V30 9217 H 1573.2 -8.46908 -3.20714 0
M  V30 9218 H 1573.13 -6.06349 -0.206238 0
M  V30 9219 H 1573.23 -4.73163 1.86796 0
M  V30 9220 H 1573.62 -1.05099 1.72271 0
M  V30 9221 H 1573.42 -2.48716 2.76361 0
M  V30 9222 P 1575.07 -7.20834 -5.23717 0
M  V30 9223 O 1575.29 -7.79853 -6.57286 0
M  V30 9224 O 1575.86 -7.79239 -4.12957 0
M  V30 9225 O 1575.32 -5.63315 -5.29344 0
M  V30 9226 C 1574.38 -4.80255 -6.01876 0
M  V30 9227 C 1575.11 -3.64202 -6.65911 0
M  V30 9228 O 1575.32 -2.60694 -5.64732 0
M  V30 9229 C 1576.51 -3.93473 -7.1943 0
M  V30 9230 O 1576.9 -3.02071 -8.21205 0
M  V30 9231 C 1577.39 -3.73047 -5.97036 0
M  V30 9232 C 1576.68 -2.58828 -5.25741 0
M  V30 9233 N 1576.73 -2.68068 -3.77503 0
M  V30 9234 H 1573.89 -5.40332 -6.79951 0
M  V30 9235 H 1573.62 -4.41613 -5.32378 0
M  V30 9236 H 1574.49 -3.26331 -7.47797 0
M  V30 9237 P 1578.45 -2.75334 -8.47391 0
M  V30 9238 O 1578.67 -2.44619 -9.90336 0
M  V30 9239 O 1579.24 -3.87776 -7.92294 0
M  V30 9240 O 1578.7 -1.4459 -7.59357 0
M  V30 9241 C 1577.76 -0.347653 -7.69315 0
M  V30 9242 C 1578.49 0.96767 -7.52806 0
M  V30 9243 O 1578.7 1.21055 -6.10208 0
M  V30 9244 C 1579.89 1.04557 -8.13408 0
M  V30 9245 O 1580.28 2.38311 -8.41922 0
M  V30 9246 C 1580.77 0.491279 -7.02284 0
M  V30 9247 C 1580.06 0.996264 -5.77469 0
M  V30 9248 N 1580.11 0.0501916 -4.62973 0
M  V30 9249 H 1577.27 -0.374765 -8.67791 0
M  V30 9250 H 1577 -0.443613 -6.90476 0
M  V30 9251 H 1577.87 1.75559 -7.96891 0
M  V30 9252 H 1580.52 1.94563 -5.46818 0
M  V30 9253 H 1580.8 -0.608651 -7.04676 0
M  V30 9254 H 1581.79 0.889796 -7.09039 0
M  V30 9255 H 1579.96 0.433128 -9.04664 0
M  V30 9256 P 1581.83 2.75334 -8.47391 0
M  V30 9257 O 1582.05 3.84128 -9.44797 0
M  V30 9258 O 1582.62 1.51947 -8.68712 0
M  V30 9259 O 1582.08 3.29363 -6.99321 0
M  V30 9260 C 1581.14 4.24011 -6.4274 0
M  V30 9261 C 1581.87 5.20775 -5.52155 0
M  V30 9262 O 1582.08 4.56534 -4.22446 0
M  V30 9263 C 1583.27 5.62629 -5.96531 0
M  V30 9264 O 1583.66 6.87667 -5.41053 0
M  V30 9265 C 1584.15 4.52537 -5.39283 0
M  V30 9266 C 1583.44 4.20027 -4.08623 0
M  V30 9267 N 1583.49 2.76189 -3.71603 0
M  V30 9268 H 1580.65 4.797 -7.24003 0
M  V30 9269 H 1580.38 3.69856 -5.84513 0
M  V30 9270 H 1581.25 6.10356 -5.41441 0
M  V30 9271 P 1585.21 7.20834 -5.23717 0
M  V30 9272 O 1585.43 8.66104 -5.38572 0
M  V30 9273 O 1586 6.33544 -6.1349 0
M  V30 9274 O 1585.46 6.7751 -3.72168 0
M  V30 9275 C 1584.52 7.20825 -2.7076 0
M  V30 9276 C 1585.25 7.45864 -1.40599 0
M  V30 9277 O 1585.46 6.17651 -0.734225 0
M  V30 9278 C 1586.65 8.05808 -1.51899 0
M  V30 9279 O 1587.04 8.74358 -0.335205 0
M  V30 9280 C 1587.53 6.83093 -1.70294 0
M  V30 9281 C 1586.82 5.79992 -0.836974 0
M  V30 9282 N 1586.87 4.41864 -1.38293 0
M  V30 9283 C 1586.79 3.99538 -2.69438 0
M  V30 9284 N 1586.87 2.69909 -2.84277 0
M  V30 9285 C 1587.01 2.21719 -1.5408 0
M  V30 9286 C 1587.14 0.891712 -1.06628 0
M  V30 9287 N 1587.26 0.856846 0.334985 0
M  V30 9288 C 1587.26 1.9641 1.15789 0
M  V30 9289 N 1587.39 1.72708 2.46522 0
M  V30 9290 N 1587.13 3.21165 0.713741 0
M  V30 9291 C 1587.01 3.26797 -0.639748 0
M  V30 9292 H 1584.03 8.13644 -3.0377 0
M  V30 9293 H 1583.76 6.42788 -2.55485 0
M  V30 9294 H 1584.63 8.12039 -0.792769 0
M  V30 9295 P 1588.59 8.91 -2.95149e-12 0
M  V30 9296 O 1588.81 10.1746 0.733838 0
M  V30 9297 O 1589.38 8.73346 -1.23964 0
M  V30 9298 O 1588.84 7.66872 0.971405 0
M  V30 9299 C 1587.9 7.42405 2.04668 0
M  V30 9300 C 1588.63 6.86059 3.24661 0
M  V30 9301 O 1588.84 5.42934 3.03695 0
M  V30 9302 C 1590.03 7.41287 3.50796 0
M  V30 9303 O 1590.42 7.27073 4.86816 0
M  V30 9304 C 1590.91 6.5273 2.63741 0
M  V30 9305 C 1590.2 5.1842 2.73198 0
M  V30 9306 N 1590.25 4.38762 1.4784 0
M  V30 9307 C 1590.17 4.83651 0.183876 0
M  V30 9308 N 1590.24 3.88759 -0.699393 0
M  V30 9309 C 1590.39 2.7404 0.0575568 0
M  V30 9310 C 1590.52 1.37902 -0.293928 0
M  V30 9311 N 1590.53 0.938021 -1.54797 0
M  V30 9312 N 1590.64 0.491817 0.70549 0
M  V30 9313 C 1590.63 0.931735 1.95979 0
M  V30 9314 N 1590.51 2.16017 2.41481 0
M  V30 9315 C 1590.39 3.02547 1.39121 0
M  V30 9316 H 1587.41 8.36899 2.3252 0
M  V30 9317 H 1587.14 6.70391 1.71179 0
M  V30 9318 H 1588.01 7.03638 4.13219 0
M  V30 9319 H 1590.66 4.59931 3.54016 0
M  V30 9320 H 1590.94 6.88995 1.59871 0
M  V30 9321 H 1591.93 6.4684 3.0373 0
M  V30 9322 H 1590.1 8.47002 3.20749 0
M  V30 9323 H 1590.06 5.8885 -0.0765548 0
M  V30 9324 H 1590.44 1.60276 -2.32875 0
M  V30 9325 H 1590.63 -0.0699355 -1.73859 0
M  V30 9326 H 1590.74 0.165507 2.71897 0
M  V30 9327 P 1591.97 7.20834 5.23717 0
M  V30 9328 O 1592.19 7.7993 6.57351 0
M  V30 9329 O 1592.76 7.79328 4.13004 0
M  V30 9330 O 1592.22 5.63315 5.29344 0
M  V30 9331 C 1591.28 4.80193 6.01798 0
M  V30 9332 C 1592.01 3.64202 6.65911 0
M  V30 9333 O 1592.22 2.60694 5.64732 0
M  V30 9334 C 1593.41 3.93473 7.1943 0
M  V30 9335 O 1593.8 3.02071 8.21205 0
M  V30 9336 C 1594.29 3.73047 5.97036 0
M  V30 9337 C 1593.58 2.58828 5.25741 0
M  V30 9338 N 1593.63 2.6801 3.77422 0
M  V30 9339 C 1593.78 1.50443 3.07133 0
M  V30 9340 O 1593.87 0.419406 3.61576 0
M  V30 9341 N 1593.82 1.6403 1.69677 0
M  V30 9342 C 1593.73 2.81206 0.986255 0
M  V30 9343 O 1593.78 2.80892 -0.249754 0
M  V30 9344 C 1593.58 3.99158 1.80325 0
M  V30 9345 C 1593.47 5.29309 1.06921 0
M  V30 9346 C 1593.53 3.89779 3.1476 0
M  V30 9347 H 1590.79 5.40332 6.79951 0
M  V30 9348 H 1590.52 4.41549 5.32301 0
M  V30 9349 H 1591.39 3.26331 7.47797 0
M  V30 9350 H 1594.04 1.6395 5.56554 0
M  V30 9351 H 1594.32 4.63439 5.3432 0
M  V30 9352 H 1595.31 3.44728 6.25838 0
M  V30 9353 H 1593.48 4.96652 7.57263 0
M  V30 9354 H 1593.41 4.80159 3.74441 0
M  V30 9355 H 1594.44 5.81459 1.09608 0
M  V30 9356 H 1592.7 5.9187 1.54487 0
M  V30 9357 H 1593.19 5.10095 0.0220288 0
M  V30 9358 H 1593.93 0.798962 1.16664 0
M  V30 9359 P 1595.35 2.75334 8.47391 0
M  V30 9360 O 1595.57 2.44571 9.90142 0
M  V30 9361 O 1596.14 3.87688 7.92115 0
M  V30 9362 O 1595.6 1.4459 7.59357 0
M  V30 9363 C 1594.66 0.347608 7.69215 0
M  V30 9364 C 1595.39 -0.96767 7.52806 0
M  V30 9365 O 1595.6 -1.21036 6.1011 0
M  V30 9366 C 1596.79 -1.04544 8.13308 0
M  V30 9367 O 1597.18 -2.38311 8.41922 0
M  V30 9368 C 1597.67 -0.491279 7.02284 0
M  V30 9369 C 1596.96 -0.996264 5.77469 0
M  V30 9370 N 1597.01 -0.0501916 4.62973 0
M  V30 9371 H 1594.17 0.374722 8.67691 0
M  V30 9372 H 1593.9 0.443485 6.90277 0
M  V30 9373 H 1594.77 -1.75537 7.96793 0
M  V30 9374 P 1598.73 -2.75334 8.47391 0
M  V30 9375 O 1598.95 -3.84128 9.44797 0
M  V30 9376 O 1599.52 -1.51947 8.68712 0
M  V30 9377 O 1598.98 -3.29363 6.99321 0
M  V30 9378 C 1598.04 -4.24011 6.4274 0
M  V30 9379 C 1598.77 -5.20775 5.52155 0
M  V30 9380 O 1598.98 -4.56534 4.22446 0
M  V30 9381 C 1600.17 -5.62629 5.96531 0
M  V30 9382 O 1600.56 -6.87667 5.41053 0
M  V30 9383 C 1601.05 -4.52537 5.39283 0
M  V30 9384 C 1600.34 -4.20027 4.08623 0
M  V30 9385 N 1600.39 -2.76189 3.71603 0
M  V30 9386 H 1597.55 -4.797 7.24003 0
M  V30 9387 H 1597.28 -3.69856 5.84513 0
M  V30 9388 H 1598.15 -6.10356 5.41441 0
M  V30 9389 P 1602.11 -7.20834 5.23717 0
M  V30 9390 O 1602.33 -8.66189 5.38625 0
M  V30 9391 O 1602.9 -6.33615 6.1356 0
M  V30 9392 O 1602.36 -6.7751 3.72168 0
M  V30 9393 C 1601.42 -7.20732 2.70725 0
M  V30 9394 C 1602.15 -7.45864 1.40599 0
M  V30 9395 O 1602.36 -6.17651 0.734225 0
M  V30 9396 C 1603.55 -8.05808 1.51899 0
M  V30 9397 O 1603.94 -8.74358 0.335205 0
M  V30 9398 C 1604.43 -6.83093 1.70294 0
M  V30 9399 C 1603.72 -5.79992 0.836974 0
M  V30 9400 N 1603.77 -4.41769 1.38263 0
M  V30 9401 C 1603.92 -3.38591 0.481702 0
M  V30 9402 O 1604.01 -3.56839 -0.718452 0
M  V30 9403 N 1603.96 -2.1206 1.03569 0
M  V30 9404 C 1603.87 -1.80696 2.36966 0
M  V30 9405 O 1603.92 -0.630473 2.74862 0
M  V30 9406 C 1603.72 -2.94845 3.23898 0
M  V30 9407 C 1603.61 -2.65253 4.70362 0
M  V30 9408 C 1603.67 -4.19803 2.73435 0
M  V30 9409 H 1600.93 -8.13644 3.0377 0
M  V30 9410 H 1600.66 -6.42695 2.55448 0
M  V30 9411 H 1601.53 -8.12039 0.792769 0
M  V30 9412 H 1604.18 -5.79978 -0.160587 0
M  V30 9413 H 1604.46 -6.51379 2.75643 0
M  V30 9414 H 1605.45 -7.01734 1.34462 0
M  V30 9415 H 1603.62 -8.73674 2.38337 0
M  V30 9416 H 1603.55 -5.04492 3.4095 0
M  V30 9417 H 1604.58 -2.83924 5.1913 0
M  V30 9418 H 1602.84 -3.29824 5.15163 0
M  V30 9419 H 1603.33 -1.59723 4.84449 0
M  V30 9420 H 1604.07 -1.35644 0.399345 0
M  V30 9421 P 1605.49 -8.91 4.0605e-12 0
M  V30 9422 O 1605.71 -10.1726 -0.733694 0
M  V30 9423 O 1606.28 -8.73148 1.23936 0
M  V30 9424 O 1605.74 -7.66872 -0.971405 0
M  V30 9425 C 1604.8 -7.42309 -2.04641 0
M  V30 9426 C 1605.53 -6.86059 -3.24661 0
M  V30 9427 O 1605.74 -5.42847 -3.03646 0
M  V30 9428 C 1606.93 -7.41196 -3.50753 0
M  V30 9429 O 1607.32 -7.27073 -4.86816 0
M  V30 9430 C 1607.81 -6.5273 -2.63741 0
M  V30 9431 C 1607.1 -5.1842 -2.73198 0
M  V30 9432 N 1607.15 -4.38762 -1.4784 0
M  V30 9433 H 1604.31 -8.36803 -2.32493 0
M  V30 9434 H 1604.04 -6.70197 -1.71129 0
M  V30 9435 H 1604.91 -7.03551 -4.13168 0
M  V30 9436 P 1608.87 -7.20834 -5.23717 0
M  V30 9437 O 1609.09 -7.79853 -6.57286 0
M  V30 9438 O 1609.66 -7.79239 -4.12957 0
M  V30 9439 O 1609.12 -5.63315 -5.29344 0
M  V30 9440 C 1608.18 -4.80255 -6.01876 0
M  V30 9441 C 1608.91 -3.64202 -6.65911 0
M  V30 9442 O 1609.12 -2.60694 -5.64732 0
M  V30 9443 C 1610.31 -3.93473 -7.1943 0
M  V30 9444 O 1610.7 -3.02071 -8.21205 0
M  V30 9445 C 1611.19 -3.73047 -5.97036 0
M  V30 9446 C 1610.48 -2.58828 -5.25741 0
M  V30 9447 N 1610.53 -2.68068 -3.77503 0
M  V30 9448 H 1607.69 -5.40332 -6.79951 0
M  V30 9449 H 1607.42 -4.41613 -5.32378 0
M  V30 9450 H 1608.29 -3.26331 -7.47797 0
M  V30 9451 P 1612.25 -2.75334 -8.47391 0
M  V30 9452 O 1612.47 -2.44571 -9.90142 0
M  V30 9453 O 1613.04 -3.87688 -7.92115 0
M  V30 9454 O 1612.5 -1.4459 -7.59357 0
M  V30 9455 C 1611.56 -0.347608 -7.69215 0
M  V30 9456 C 1612.29 0.96767 -7.52806 0
M  V30 9457 O 1612.5 1.21036 -6.1011 0
M  V30 9458 C 1613.69 1.04544 -8.13308 0
M  V30 9459 O 1614.08 2.38311 -8.41922 0
M  V30 9460 C 1614.57 0.491279 -7.02284 0
M  V30 9461 C 1613.86 0.996264 -5.77469 0
M  V30 9462 N 1613.91 0.0501916 -4.62973 0
M  V30 9463 H 1611.07 -0.374722 -8.67691 0
M  V30 9464 H 1610.8 -0.443485 -6.90277 0
M  V30 9465 H 1611.67 1.75537 -7.96793 0
M  V30 9466 P 1615.63 2.75334 -8.47391 0
M  V30 9467 O 1615.85 3.84128 -9.44797 0
M  V30 9468 O 1616.42 1.51947 -8.68712 0
M  V30 9469 O 1615.88 3.29363 -6.99321 0
M  V30 9470 C 1614.94 4.24011 -6.4274 0
M  V30 9471 C 1615.67 5.20775 -5.52155 0
M  V30 9472 O 1615.88 4.56534 -4.22446 0
M  V30 9473 C 1617.07 5.62629 -5.96531 0
M  V30 9474 O 1617.46 6.87667 -5.41053 0
M  V30 9475 C 1617.95 4.52537 -5.39283 0
M  V30 9476 C 1617.24 4.20027 -4.08623 0
M  V30 9477 N 1617.29 2.76189 -3.71603 0
M  V30 9478 H 1614.45 4.797 -7.24003 0
M  V30 9479 H 1614.18 3.69856 -5.84513 0
M  V30 9480 H 1615.05 6.10356 -5.41441 0
M  V30 9481 P 1619.01 7.20834 -5.23717 0
M  V30 9482 O 1619.23 8.66274 -5.38678 0
M  V30 9483 O 1619.8 6.33687 -6.13629 0
M  V30 9484 O 1619.26 6.7751 -3.72168 0
M  V30 9485 C 1618.32 7.20919 -2.70795 0
M  V30 9486 C 1619.05 7.45864 -1.40599 0
M  V30 9487 O 1619.26 6.17751 -0.734343 0
M  V30 9488 C 1620.45 8.05906 -1.51917 0
M  V30 9489 O 1620.84 8.74358 -0.335205 0
M  V30 9490 C 1621.33 6.83093 -1.70294 0
M  V30 9491 C 1620.62 5.79992 -0.836974 0
M  V30 9492 N 1620.67 4.41864 -1.38293 0
M  V30 9493 H 1617.83 8.13738 -3.03804 0
M  V30 9494 H 1617.56 6.42974 -2.55559 0
M  V30 9495 H 1618.43 8.12139 -0.792866 0
M  V30 9496 H 1621.08 5.80178 0.160643 0
M  V30 9497 H 1621.36 6.51379 -2.75643 0
M  V30 9498 H 1622.35 7.01832 -1.3448 0
M  V30 9499 H 1620.52 8.73771 -2.38364 0
M  V30 9500 P 1622.39 8.91 -5.1695e-12 0
M  V30 9501 O 1622.61 10.1726 0.733694 0
M  V30 9502 O 1623.18 8.73148 -1.23936 0
M  V30 9503 O 1622.64 7.66872 0.971405 0
M  V30 9504 C 1621.7 7.42309 2.04641 0
M  V30 9505 C 1622.43 6.86059 3.24661 0
M  V30 9506 O 1622.64 5.42847 3.03646 0
M  V30 9507 C 1623.83 7.41196 3.50753 0
M  V30 9508 O 1624.22 7.27073 4.86816 0
M  V30 9509 C 1624.71 6.5273 2.63741 0
M  V30 9510 C 1624 5.1842 2.73198 0
M  V30 9511 N 1624.05 4.38762 1.4784 0
M  V30 9512 H 1621.21 8.36803 2.32493 0
M  V30 9513 H 1620.94 6.70197 1.71129 0
M  V30 9514 H 1621.81 7.03551 4.13168 0
M  V30 9515 P 1625.77 7.20834 5.23717 0
M  V30 9516 O 1625.99 7.79853 6.57286 0
M  V30 9517 O 1626.56 7.79239 4.12957 0
M  V30 9518 O 1626.02 5.63315 5.29344 0
M  V30 9519 C 1625.08 4.80255 6.01876 0
M  V30 9520 C 1625.81 3.64202 6.65911 0
M  V30 9521 O 1626.02 2.60694 5.64732 0
M  V30 9522 C 1627.21 3.93473 7.1943 0
M  V30 9523 O 1627.6 3.02071 8.21205 0
M  V30 9524 C 1628.09 3.73047 5.97036 0
M  V30 9525 C 1627.38 2.58828 5.25741 0
M  V30 9526 N 1627.43 2.68068 3.77503 0
M  V30 9527 H 1624.59 5.40332 6.79951 0
M  V30 9528 H 1624.32 4.41613 5.32378 0
M  V30 9529 H 1625.19 3.26331 7.47797 0
M  V30 9530 P 1629.15 2.75334 8.47391 0
M  V30 9531 O 1629.37 2.44571 9.90142 0
M  V30 9532 O 1629.94 3.87688 7.92115 0
M  V30 9533 O 1629.4 1.4459 7.59357 0
M  V30 9534 C 1628.46 0.347608 7.69215 0
M  V30 9535 C 1629.19 -0.96767 7.52806 0
M  V30 9536 O 1629.4 -1.21036 6.1011 0
M  V30 9537 C 1630.59 -1.04544 8.13308 0
M  V30 9538 O 1630.98 -2.38311 8.41922 0
M  V30 9539 C 1631.47 -0.491279 7.02284 0
M  V30 9540 C 1630.76 -0.996264 5.77469 0
M  V30 9541 N 1630.81 -0.0501916 4.62973 0
M  V30 9542 H 1627.97 0.374722 8.67691 0
M  V30 9543 H 1627.7 0.443485 6.90277 0
M  V30 9544 H 1628.57 -1.75537 7.96793 0
M  V30 9545 P 1632.53 -2.75334 8.47391 0
M  V30 9546 O 1632.75 -3.84128 9.44797 0
M  V30 9547 O 1633.32 -1.51947 8.68712 0
M  V30 9548 O 1632.78 -3.29363 6.99321 0
M  V30 9549 C 1631.84 -4.24011 6.4274 0
M  V30 9550 C 1632.57 -5.20775 5.52155 0
M  V30 9551 O 1632.78 -4.56534 4.22446 0
M  V30 9552 C 1633.97 -5.62629 5.96531 0
M  V30 9553 O 1634.36 -6.87667 5.41053 0
M  V30 9554 C 1634.85 -4.52537 5.39283 0
M  V30 9555 C 1634.14 -4.20027 4.08623 0
M  V30 9556 N 1634.19 -2.76189 3.71603 0
M  V30 9557 H 1631.35 -4.797 7.24003 0
M  V30 9558 H 1631.08 -3.69856 5.84513 0
M  V30 9559 H 1631.95 -6.10356 5.41441 0
M  V30 9560 P 1635.91 -7.20834 5.23717 0
M  V30 9561 O 1636.13 -8.66189 5.38625 0
M  V30 9562 O 1636.7 -6.33615 6.1356 0
M  V30 9563 O 1636.16 -6.7751 3.72168 0
M  V30 9564 C 1635.22 -7.20732 2.70725 0
M  V30 9565 C 1635.95 -7.45864 1.40599 0
M  V30 9566 O 1636.16 -6.17651 0.734225 0
M  V30 9567 C 1637.35 -8.05808 1.51899 0
M  V30 9568 O 1637.74 -8.74358 0.335205 0
M  V30 9569 C 1638.23 -6.83093 1.70294 0
M  V30 9570 C 1637.52 -5.79992 0.836974 0
M  V30 9571 N 1637.57 -4.41769 1.38263 0
M  V30 9572 C 1637.72 -3.38591 0.481702 0
M  V30 9573 O 1637.81 -3.56839 -0.718452 0
M  V30 9574 N 1637.76 -2.1206 1.03569 0
M  V30 9575 C 1637.67 -1.80696 2.36966 0
M  V30 9576 O 1637.72 -0.630473 2.74862 0
M  V30 9577 C 1637.52 -2.94845 3.23898 0
M  V30 9578 C 1637.41 -2.65253 4.70362 0
M  V30 9579 C 1637.47 -4.19803 2.73435 0
M  V30 9580 H 1634.73 -8.13644 3.0377 0
M  V30 9581 H 1634.46 -6.42695 2.55448 0
M  V30 9582 H 1635.33 -8.12039 0.792769 0
M  V30 9583 H 1637.98 -5.79978 -0.160587 0
M  V30 9584 H 1638.26 -6.51379 2.75643 0
M  V30 9585 H 1639.25 -7.01734 1.34462 0
M  V30 9586 H 1637.42 -8.73674 2.38337 0
M  V30 9587 H 1637.35 -5.04492 3.4095 0
M  V30 9588 H 1638.38 -2.83924 5.1913 0
M  V30 9589 H 1636.64 -3.29824 5.15163 0
M  V30 9590 H 1637.13 -1.59723 4.84449 0
M  V30 9591 H 1637.87 -1.35644 0.399345 0
M  V30 9592 P 1639.29 -8.91 6.2785e-12 0
M  V30 9593 O 1639.51 -10.1726 -0.733694 0
M  V30 9594 O 1640.08 -8.73148 1.23936 0
M  V30 9595 O 1639.54 -7.66872 -0.971405 0
M  V30 9596 C 1638.6 -7.42309 -2.04641 0
M  V30 9597 C 1639.33 -6.86059 -3.24661 0
M  V30 9598 O 1639.54 -5.42847 -3.03646 0
M  V30 9599 C 1640.73 -7.41196 -3.50753 0
M  V30 9600 O 1641.12 -7.27073 -4.86816 0
M  V30 9601 C 1641.61 -6.5273 -2.63741 0
M  V30 9602 C 1640.9 -5.1842 -2.73198 0
M  V30 9603 N 1640.95 -4.38762 -1.4784 0
M  V30 9604 H 1638.11 -8.36803 -2.32493 0
M  V30 9605 H 1637.84 -6.70197 -1.71129 0
M  V30 9606 H 1638.71 -7.03551 -4.13168 0
M  V30 9607 P 1642.67 -7.20834 -5.23717 0
M  V30 9608 O 1642.89 -7.79853 -6.57286 0
M  V30 9609 O 1643.46 -7.79239 -4.12957 0
M  V30 9610 O 1642.92 -5.63315 -5.29344 0
M  V30 9611 C 1641.98 -4.80255 -6.01876 0
M  V30 9612 C 1642.71 -3.64202 -6.65911 0
M  V30 9613 O 1642.92 -2.60694 -5.64732 0
M  V30 9614 C 1644.11 -3.93473 -7.1943 0
M  V30 9615 O 1644.5 -3.02071 -8.21205 0
M  V30 9616 C 1644.99 -3.73047 -5.97036 0
M  V30 9617 C 1644.28 -2.58828 -5.25741 0
M  V30 9618 N 1644.33 -2.68068 -3.77503 0
M  V30 9619 H 1641.49 -5.40332 -6.79951 0
M  V30 9620 H 1641.22 -4.41613 -5.32378 0
M  V30 9621 H 1642.09 -3.26331 -7.47797 0
M  V30 9622 P 1646.05 -2.75334 -8.47391 0
M  V30 9623 O 1646.27 -2.44571 -9.90142 0
M  V30 9624 O 1646.84 -3.87688 -7.92115 0
M  V30 9625 O 1646.3 -1.4459 -7.59357 0
M  V30 9626 C 1645.36 -0.347608 -7.69215 0
M  V30 9627 C 1646.09 0.96767 -7.52806 0
M  V30 9628 O 1646.3 1.21036 -6.1011 0
M  V30 9629 C 1647.49 1.04544 -8.13308 0
M  V30 9630 O 1647.88 2.38311 -8.41922 0
M  V30 9631 C 1648.37 0.491279 -7.02284 0
M  V30 9632 C 1647.66 0.996264 -5.77469 0
M  V30 9633 N 1647.71 0.0501916 -4.62973 0
M  V30 9634 H 1644.87 -0.374722 -8.67691 0
M  V30 9635 H 1644.6 -0.443485 -6.90277 0
M  V30 9636 H 1645.47 1.75537 -7.96793 0
M  V30 9637 P 1649.43 2.75334 -8.47391 0
M  V30 9638 O 1649.65 3.84204 -9.44982 0
M  V30 9639 O 1650.22 1.51982 -8.68909 0
M  V30 9640 O 1649.68 3.29363 -6.99321 0
M  V30 9641 C 1648.74 4.24066 -6.42823 0
M  V30 9642 C 1649.47 5.20775 -5.52155 0
M  V30 9643 O 1649.68 4.56607 -4.22514 0
M  V30 9644 C 1650.87 5.62697 -5.96604 0
M  V30 9645 O 1651.26 6.87667 -5.41053 0
M  V30 9646 C 1651.75 4.52537 -5.39283 0
M  V30 9647 C 1651.04 4.20027 -4.08623 0
M  V30 9648 N 1651.09 2.76189 -3.71603 0
M  V30 9649 C 1651.01 1.66944 -4.54297 0
M  V30 9650 N 1651.08 0.536169 -3.91344 0
M  V30 9651 C 1651.23 0.901569 -2.58849 0
M  V30 9652 C 1651.36 0.146599 -1.40236 0
M  V30 9653 N 1651.37 -1.18234 -1.37046 0
M  V30 9654 N 1651.48 0.822941 -0.249738 0
M  V30 9655 C 1651.47 2.15179 -0.280525 0
M  V30 9656 N 1651.35 2.96414 -1.30822 0
M  V30 9657 C 1651.23 2.25804 -2.44748 0
M  V30 9658 H 1648.25 4.79756 -7.24086 0
M  V30 9659 H 1647.98 3.69963 -5.84682 0
M  V30 9660 H 1648.85 6.10431 -5.41508 0
M  V30 9661 H 1651.5 4.78816 -3.28024 0
M  V30 9662 H 1651.78 3.64957 -6.05871 0
M  V30 9663 H 1652.77 4.88748 -5.21323 0
M  V30 9664 H 1650.94 5.66789 -7.0643 0
M  V30 9665 H 1650.9 1.74684 -5.62396 0
M  V30 9666 H 1651.28 -1.71949 -2.24394 0
M  V30 9667 H 1651.47 -1.67511 -0.470742 0
M  V30 9668 H 1651.58 2.63704 0.6828 0
M  V30 9669 P 1652.81 7.20834 -5.23717 0
M  V30 9670 O 1653.03 8.66104 -5.38572 0
M  V30 9671 O 1653.6 6.33544 -6.1349 0
M  V30 9672 O 1653.06 6.7751 -3.72168 0
M  V30 9673 C 1652.12 7.20825 -2.7076 0
M  V30 9674 C 1652.85 7.45864 -1.40599 0
M  V30 9675 O 1653.06 6.17651 -0.734225 0
M  V30 9676 C 1654.25 8.05808 -1.51899 0
M  V30 9677 O 1654.64 8.74358 -0.335205 0
M  V30 9678 C 1655.13 6.83093 -1.70294 0
M  V30 9679 C 1654.42 5.79992 -0.836974 0
M  V30 9680 N 1654.47 4.41864 -1.38293 0
M  V30 9681 H 1651.63 8.13644 -3.0377 0
M  V30 9682 H 1651.36 6.42788 -2.55485 0
M  V30 9683 H 1652.23 8.12039 -0.792769 0
M  V30 9684 P 1656.19 8.91 -7.38751e-12 0
M  V30 9685 O 1656.41 10.1726 0.733694 0
M  V30 9686 O 1656.98 8.73148 -1.23936 0
M  V30 9687 O 1656.44 7.66872 0.971405 0
M  V30 9688 C 1655.5 7.42309 2.04641 0
M  V30 9689 C 1656.23 6.86059 3.24661 0
M  V30 9690 O 1656.44 5.42847 3.03646 0
M  V30 9691 C 1657.63 7.41196 3.50753 0
M  V30 9692 O 1658.02 7.27073 4.86816 0
M  V30 9693 C 1658.51 6.5273 2.63741 0
M  V30 9694 C 1657.8 5.1842 2.73198 0
M  V30 9695 N 1657.85 4.38762 1.4784 0
M  V30 9696 H 1655.01 8.36803 2.32493 0
M  V30 9697 H 1654.74 6.70197 1.71129 0
M  V30 9698 H 1655.61 7.03551 4.13168 0
M  V30 9699 P 1659.57 7.20834 5.23717 0
M  V30 9700 O 1659.79 7.79853 6.57286 0
M  V30 9701 O 1660.36 7.79239 4.12957 0
M  V30 9702 O 1659.82 5.63315 5.29344 0
M  V30 9703 C 1658.88 4.80255 6.01876 0
M  V30 9704 C 1659.61 3.64202 6.65911 0
M  V30 9705 O 1659.82 2.60694 5.64732 0
M  V30 9706 C 1661.01 3.93473 7.1943 0
M  V30 9707 O 1661.4 3.02071 8.21205 0
M  V30 9708 C 1661.89 3.73047 5.97036 0
M  V30 9709 C 1661.18 2.58828 5.25741 0
M  V30 9710 N 1661.23 2.68068 3.77503 0
M  V30 9711 H 1658.39 5.40332 6.79951 0
M  V30 9712 H 1658.12 4.41613 5.32378 0
M  V30 9713 H 1658.99 3.26331 7.47797 0
M  V30 9714 P 1662.95 2.75334 8.47391 0
M  V30 9715 O 1663.17 2.44571 9.90142 0
M  V30 9716 O 1663.74 3.87688 7.92115 0
M  V30 9717 O 1663.2 1.4459 7.59357 0
M  V30 9718 C 1662.26 0.347608 7.69215 0
M  V30 9719 C 1662.99 -0.96767 7.52806 0
M  V30 9720 O 1663.2 -1.21036 6.1011 0
M  V30 9721 C 1664.39 -1.04544 8.13308 0
M  V30 9722 O 1664.78 -2.38311 8.41922 0
M  V30 9723 C 1665.27 -0.491279 7.02284 0
M  V30 9724 C 1664.56 -0.996264 5.77469 0
M  V30 9725 N 1664.61 -0.0501916 4.62973 0
M  V30 9726 H 1661.77 0.374722 8.67691 0
M  V30 9727 H 1661.5 0.443485 6.90277 0
M  V30 9728 H 1662.37 -1.75537 7.96793 0
M  V30 9729 P 1666.33 -2.75334 8.47391 0
M  V30 9730 O 1666.55 -3.84128 9.44797 0
M  V30 9731 O 1667.12 -1.51947 8.68712 0
M  V30 9732 O 1666.58 -3.29363 6.99321 0
M  V30 9733 C 1665.64 -4.24011 6.4274 0
M  V30 9734 C 1666.37 -5.20775 5.52155 0
M  V30 9735 O 1666.58 -4.56534 4.22446 0
M  V30 9736 C 1667.77 -5.62629 5.96531 0
M  V30 9737 O 1668.16 -6.87667 5.41053 0
M  V30 9738 C 1668.65 -4.52537 5.39283 0
M  V30 9739 C 1667.94 -4.20027 4.08623 0
M  V30 9740 N 1667.99 -2.76189 3.71603 0
M  V30 9741 H 1665.15 -4.797 7.24003 0
M  V30 9742 H 1664.88 -3.69856 5.84513 0
M  V30 9743 H 1665.75 -6.10356 5.41441 0
M  V30 9744 P 1669.71 -7.20834 5.23717 0
M  V30 9745 O 1669.93 -8.66274 5.38678 0
M  V30 9746 O 1670.5 -6.33687 6.13629 0
M  V30 9747 O 1669.96 -6.7751 3.72168 0
M  V30 9748 C 1669.02 -7.20919 2.70795 0
M  V30 9749 C 1669.75 -7.45864 1.40599 0
M  V30 9750 O 1669.96 -6.17751 0.734343 0
M  V30 9751 C 1671.15 -8.05906 1.51917 0
M  V30 9752 O 1671.54 -8.74358 0.335205 0
M  V30 9753 C 1672.03 -6.83093 1.70294 0
M  V30 9754 C 1671.32 -5.79992 0.836974 0
M  V30 9755 N 1671.37 -4.41864 1.38293 0
M  V30 9756 C 1671.29 -4.02089 2.69407 0
M  V30 9757 N 1671.36 -2.73403 2.85089 0
M  V30 9758 C 1671.51 -2.25086 1.5642 0
M  V30 9759 C 1671.64 -0.942887 1.04836 0
M  V30 9760 N 1671.65 0.150999 1.80369 0
M  V30 9761 N 1671.76 -0.812565 -0.28167 0
M  V30 9762 C 1671.75 -1.90572 -1.03784 0
M  V30 9763 N 1671.63 -3.167 -0.683905 0
M  V30 9764 C 1671.51 -3.26538 0.652815 0
M  V30 9765 H 1668.53 -8.13738 3.03804 0
M  V30 9766 H 1668.26 -6.42974 2.55559 0
M  V30 9767 H 1669.13 -8.12139 0.792866 0
M  V30 9768 H 1671.78 -5.80178 -0.160643 0
M  V30 9769 H 1672.06 -6.51379 2.75643 0
M  V30 9770 H 1673.05 -7.01832 1.3448 0
M  V30 9771 H 1671.22 -8.73771 2.38364 0
M  V30 9772 H 1671.18 -4.7189 3.52311 0
M  V30 9773 H 1671.56 0.0721434 2.82608 0
M  V30 9774 H 1671.75 1.0785 1.36544 0
M  V30 9775 H 1671.86 -1.73207 -2.10241 0
M  V30 9776 P 1673.09 -8.91 8.49651e-12 0
M  V30 9777 O 1673.31 -10.1726 -0.733694 0
M  V30 9778 O 1673.88 -8.73148 1.23936 0
M  V30 9779 O 1673.34 -7.66872 -0.971405 0
M  V30 9780 C 1672.4 -7.42309 -2.04641 0
M  V30 9781 C 1673.13 -6.86059 -3.24661 0
M  V30 9782 O 1673.34 -5.42847 -3.03646 0
M  V30 9783 C 1674.53 -7.41196 -3.50753 0
M  V30 9784 O 1674.92 -7.27073 -4.86816 0
M  V30 9785 C 1675.41 -6.5273 -2.63741 0
M  V30 9786 C 1674.7 -5.1842 -2.73198 0
M  V30 9787 N 1674.75 -4.38762 -1.4784 0
M  V30 9788 H 1671.91 -8.36803 -2.32493 0
M  V30 9789 H 1671.64 -6.70197 -1.71129 0
M  V30 9790 H 1672.51 -7.03551 -4.13168 0
M  V30 9791 P 1676.47 -7.20834 -5.23717 0
M  V30 9792 O 1676.69 -7.80006 -6.57415 0
M  V30 9793 O 1677.26 -7.79416 -4.13051 0
M  V30 9794 O 1676.72 -5.63315 -5.29344 0
M  V30 9795 C 1675.78 -4.80318 -6.01954 0
M  V30 9796 C 1676.51 -3.64202 -6.65911 0
M  V30 9797 O 1676.72 -2.60736 -5.64823 0
M  V30 9798 C 1677.91 -3.93521 -7.19518 0
M  V30 9799 O 1678.3 -3.02071 -8.21205 0
M  V30 9800 C 1678.79 -3.73047 -5.97036 0
M  V30 9801 C 1678.08 -2.58828 -5.25741 0
M  V30 9802 N 1678.13 -2.68068 -3.77503 0
M  V30 9803 C 1678.05 -3.80474 -2.99159 0
M  V30 9804 N 1678.12 -3.55622 -1.71925 0
M  V30 9805 C 1678.27 -2.1832 -1.65733 0
M  V30 9806 C 1678.4 -1.28842 -0.572777 0
M  V30 9807 N 1678.41 -1.66875 0.70098 0
M  V30 9808 N 1678.52 0.016788 -0.859836 0
M  V30 9809 C 1678.51 0.398145 -2.13316 0
M  V30 9810 N 1678.39 -0.328224 -3.22333 0
M  V30 9811 C 1678.27 -1.62992 -2.90383 0
M  V30 9812 H 1675.29 -5.40394 -6.8003 0
M  V30 9813 H 1675.02 -4.41741 -5.32532 0
M  V30 9814 H 1675.89 -3.26371 -7.47889 0
M  V30 9815 H 1678.54 -1.64007 -5.56746 0
M  V30 9816 H 1678.82 -4.63439 -5.3432 0
M  V30 9817 H 1679.81 -3.44776 -6.25925 0
M  V30 9818 H 1677.98 -4.96707 -7.57347 0
M  V30 9819 H 1677.94 -4.8089 -3.39924 0
M  V30 9820 H 1678.32 -2.66547 0.941919 0
M  V30 9821 H 1678.51 -0.965341 1.44766 0
M  V30 9822 H 1678.62 1.46427 -2.29697 0
M  V30 9823 P 1679.85 -2.75334 -8.47391 0
M  V30 9824 O 1680.07 -2.44571 -9.90142 0
M  V30 9825 O 1680.64 -3.87688 -7.92115 0
M  V30 9826 O 1680.1 -1.4459 -7.59357 0
M  V30 9827 C 1679.16 -0.347608 -7.69215 0
M  V30 9828 C 1679.89 0.96767 -7.52806 0
M  V30 9829 O 1680.1 1.21036 -6.1011 0
M  V30 9830 C 1681.29 1.04544 -8.13308 0
M  V30 9831 O 1681.68 2.38311 -8.41922 0
M  V30 9832 C 1682.17 0.491279 -7.02284 0
M  V30 9833 C 1681.46 0.996264 -5.77469 0
M  V30 9834 N 1681.51 0.0501916 -4.62973 0
M  V30 9835 C 1681.43 -1.32786 -4.63244 0
M  V30 9836 N 1681.51 -1.86957 -3.44545 0
M  V30 9837 C 1681.65 -0.780241 -2.58481 0
M  V30 9838 C 1681.78 -0.738536 -1.17757 0
M  V30 9839 N 1681.9 0.58337 -0.711393 0
M  V30 9840 C 1681.9 1.70816 -1.51017 0
M  V30 9841 N 1682.03 2.87826 -0.880757 0
M  V30 9842 N 1681.77 1.67126 -2.8339 0
M  V30 9843 C 1681.65 0.401421 -3.30572 0
M  V30 9844 H 1678.67 -0.374722 -8.67691 0
M  V30 9845 H 1678.4 -0.443485 -6.90277 0
M  V30 9846 H 1679.27 1.75537 -7.96793 0
M  V30 9847 P 1683.23 2.75334 -8.47391 0
M  V30 9848 O 1683.45 3.84204 -9.44982 0
M  V30 9849 O 1684.02 1.51982 -8.68909 0
M  V30 9850 O 1683.48 3.29363 -6.99321 0
M  V30 9851 C 1682.54 4.24066 -6.42823 0
M  V30 9852 C 1683.27 5.20775 -5.52155 0
M  V30 9853 O 1683.48 4.56607 -4.22514 0
M  V30 9854 C 1684.67 5.62697 -5.96604 0
M  V30 9855 O 1685.06 6.87667 -5.41053 0
M  V30 9856 C 1685.55 4.52537 -5.39283 0
M  V30 9857 C 1684.84 4.20027 -4.08623 0
M  V30 9858 N 1684.89 2.76189 -3.71603 0
M  V30 9859 C 1684.81 1.66944 -4.54297 0
M  V30 9860 N 1684.88 0.536169 -3.91344 0
M  V30 9861 C 1685.03 0.901569 -2.58849 0
M  V30 9862 C 1685.16 0.146599 -1.40236 0
M  V30 9863 N 1685.17 -1.18234 -1.37046 0
M  V30 9864 N 1685.28 0.822941 -0.249738 0
M  V30 9865 C 1685.27 2.15179 -0.280525 0
M  V30 9866 N 1685.15 2.96414 -1.30822 0
M  V30 9867 C 1685.03 2.25804 -2.44748 0
M  V30 9868 H 1682.05 4.79756 -7.24086 0
M  V30 9869 H 1681.78 3.69963 -5.84682 0
M  V30 9870 H 1682.65 6.10431 -5.41508 0
M  V30 9871 H 1685.3 4.78816 -3.28024 0
M  V30 9872 H 1685.58 3.64957 -6.05871 0
M  V30 9873 H 1686.57 4.88748 -5.21323 0
M  V30 9874 H 1684.74 5.66789 -7.0643 0
M  V30 9875 H 1684.7 1.74684 -5.62396 0
M  V30 9876 H 1685.08 -1.71949 -2.24394 0
M  V30 9877 H 1685.27 -1.67511 -0.470742 0
M  V30 9878 H 1685.38 2.63704 0.6828 0
M  V30 9879 P 1686.61 7.20834 -5.23717 0
M  V30 9880 O 1686.83 8.66104 -5.38572 0
M  V30 9881 O 1687.4 6.33544 -6.1349 0
M  V30 9882 O 1686.86 6.7751 -3.72168 0
M  V30 9883 C 1685.92 7.20825 -2.7076 0
M  V30 9884 C 1686.65 7.45864 -1.40599 0
M  V30 9885 O 1686.86 6.17651 -0.734225 0
M  V30 9886 C 1688.05 8.05808 -1.51899 0
M  V30 9887 O 1688.44 8.74358 -0.335205 0
M  V30 9888 C 1688.93 6.83093 -1.70294 0
M  V30 9889 C 1688.22 5.79992 -0.836974 0
M  V30 9890 N 1688.27 4.41864 -1.38293 0
M  V30 9891 H 1685.43 8.13644 -3.0377 0
M  V30 9892 H 1685.16 6.42788 -2.55485 0
M  V30 9893 H 1686.03 8.12039 -0.792769 0
M  V30 9894 P 1689.99 8.91 -9.60552e-12 0
M  V30 9895 O 1690.21 10.1726 0.733694 0
M  V30 9896 O 1690.78 8.73148 -1.23936 0
M  V30 9897 O 1690.24 7.66872 0.971405 0
M  V30 9898 C 1689.3 7.42309 2.04641 0
M  V30 9899 C 1690.03 6.86059 3.24661 0
M  V30 9900 O 1690.24 5.42847 3.03646 0
M  V30 9901 C 1691.43 7.41196 3.50753 0
M  V30 9902 O 1691.82 7.27073 4.86816 0
M  V30 9903 C 1692.31 6.5273 2.63741 0
M  V30 9904 C 1691.6 5.1842 2.73198 0
M  V30 9905 N 1691.65 4.38762 1.4784 0
M  V30 9906 H 1688.81 8.36803 2.32493 0
M  V30 9907 H 1688.54 6.70197 1.71129 0
M  V30 9908 H 1689.41 7.03551 4.13168 0
M  V30 9909 P 1693.37 7.20834 5.23717 0
M  V30 9910 O 1693.59 7.79853 6.57286 0
M  V30 9911 O 1694.16 7.79239 4.12957 0
M  V30 9912 O 1693.62 5.63315 5.29344 0
M  V30 9913 C 1692.68 4.80255 6.01876 0
M  V30 9914 C 1693.41 3.64202 6.65911 0
M  V30 9915 O 1693.62 2.60694 5.64732 0
M  V30 9916 C 1694.81 3.93473 7.1943 0
M  V30 9917 O 1695.2 3.02071 8.21205 0
M  V30 9918 C 1695.69 3.73047 5.97036 0
M  V30 9919 C 1694.98 2.58828 5.25741 0
M  V30 9920 N 1695.03 2.68068 3.77503 0
M  V30 9921 C 1694.95 3.79715 2.96723 0
M  V30 9922 N 1695.03 3.5377 1.68852 0
M  V30 9923 C 1695.17 2.15054 1.63254 0
M  V30 9924 C 1695.3 1.28964 0.518571 0
M  V30 9925 N 1695.42 -0.0538097 0.918425 0
M  V30 9926 C 1695.42 -0.494275 2.22578 0
M  V30 9927 N 1695.55 -1.81086 2.40434 0
M  V30 9928 N 1695.29 0.313645 3.27502 0
M  V30 9929 C 1695.17 1.61829 2.91033 0
M  V30 9930 H 1692.19 5.40332 6.79951 0
M  V30 9931 H 1691.92 4.41613 5.32378 0
M  V30 9932 H 1692.79 3.26331 7.47797 0
M  V30 9933 P 1696.75 2.75334 8.47391 0
M  V30 9934 O 1696.97 2.44571 9.90142 0
M  V30 9935 O 1697.54 3.87688 7.92115 0
M  V30 9936 O 1697 1.4459 7.59357 0
M  V30 9937 C 1696.06 0.347608 7.69215 0
M  V30 9938 C 1696.79 -0.96767 7.52806 0
M  V30 9939 O 1697 -1.21036 6.1011 0
M  V30 9940 C 1698.19 -1.04544 8.13308 0
M  V30 9941 O 1698.58 -2.38311 8.41922 0
M  V30 9942 C 1699.07 -0.491279 7.02284 0
M  V30 9943 C 1698.36 -0.996264 5.77469 0
M  V30 9944 N 1698.41 -0.0501916 4.62973 0
M  V30 9945 C 1698.33 1.32786 4.63244 0
M  V30 9946 N 1698.41 1.86957 3.44545 0
M  V30 9947 C 1698.55 0.780241 2.58481 0
M  V30 9948 C 1698.68 0.738536 1.17757 0
M  V30 9949 N 1698.8 -0.58337 0.711393 0
M  V30 9950 C 1698.8 -1.70816 1.51017 0
M  V30 9951 N 1698.93 -2.87826 0.880757 0
M  V30 9952 N 1698.67 -1.67126 2.8339 0
M  V30 9953 C 1698.55 -0.401421 3.30572 0
M  V30 9954 H 1695.57 0.374722 8.67691 0
M  V30 9955 H 1695.3 0.443485 6.90277 0
M  V30 9956 H 1696.17 -1.75537 7.96793 0
M  V30 9957 P 1700.13 -2.75334 8.47391 0
M  V30 9958 O 1700.35 -3.84204 9.44982 0
M  V30 9959 O 1700.92 -1.51982 8.68909 0
M  V30 9960 O 1700.38 -3.29363 6.99321 0
M  V30 9961 C 1699.44 -4.24066 6.42823 0
M  V30 9962 C 1700.17 -5.20775 5.52155 0
M  V30 9963 O 1700.38 -4.56607 4.22514 0
M  V30 9964 C 1701.57 -5.62697 5.96604 0
M  V30 9965 O 1701.96 -6.87667 5.41053 0
M  V30 9966 C 1702.45 -4.52537 5.39283 0
M  V30 9967 C 1701.74 -4.20027 4.08623 0
M  V30 9968 N 1701.79 -2.76189 3.71603 0
M  V30 9969 C 1701.71 -1.66944 4.54297 0
M  V30 9970 N 1701.78 -0.536169 3.91344 0
M  V30 9971 C 1701.93 -0.901569 2.58849 0
M  V30 9972 C 1702.06 -0.146599 1.40236 0
M  V30 9973 N 1702.07 1.18234 1.37046 0
M  V30 9974 N 1702.18 -0.822941 0.249738 0
M  V30 9975 C 1702.17 -2.15179 0.280525 0
M  V30 9976 N 1702.05 -2.96414 1.30822 0
M  V30 9977 C 1701.93 -2.25804 2.44748 0
M  V30 9978 H 1698.95 -4.79756 7.24086 0
M  V30 9979 H 1698.68 -3.69963 5.84682 0
M  V30 9980 H 1699.55 -6.10431 5.41508 0
M  V30 9981 H 1702.2 -4.78816 3.28024 0
M  V30 9982 H 1702.48 -3.64957 6.05871 0
M  V30 9983 H 1703.47 -4.88748 5.21323 0
M  V30 9984 H 1701.64 -5.66789 7.0643 0
M  V30 9985 H 1701.6 -1.74684 5.62396 0
M  V30 9986 H 1701.98 1.71949 2.24394 0
M  V30 9987 H 1702.17 1.67511 0.470742 0
M  V30 9988 H 1702.28 -2.63704 -0.6828 0
M  V30 9989 P 1703.51 -7.20834 5.23717 0
M  V30 9990 O 1703.73 -8.66104 5.38572 0
M  V30 9991 O 1704.3 -6.33544 6.1349 0
M  V30 9992 O 1703.76 -6.7751 3.72168 0
M  V30 9993 C 1702.82 -7.20825 2.7076 0
M  V30 9994 C 1703.55 -7.45864 1.40599 0
M  V30 9995 O 1703.76 -6.17651 0.734225 0
M  V30 9996 C 1704.95 -8.05808 1.51899 0
M  V30 9997 O 1705.34 -8.74358 0.335205 0
M  V30 9998 C 1705.83 -6.83093 1.70294 0
M  V30 9999 C 1705.12 -5.79992 0.836974 0
M  V30 10000 N 1705.17 -4.41864 1.38293 0
M  V30 10001 C 1705.09 -3.99538 2.69438 0
M  V30 10002 N 1705.17 -2.69909 2.84277 0
M  V30 10003 C 1705.31 -2.21719 1.5408 0
M  V30 10004 C 1705.44 -0.891712 1.06628 0
M  V30 10005 N 1705.56 -0.856846 -0.334985 0
M  V30 10006 C 1705.56 -1.9641 -1.15789 0
M  V30 10007 N 1705.69 -1.72708 -2.46522 0
M  V30 10008 N 1705.43 -3.21165 -0.713741 0
M  V30 10009 C 1705.31 -3.26797 0.639748 0
M  V30 10010 H 1702.33 -8.13644 3.0377 0
M  V30 10011 H 1702.06 -6.42788 2.55485 0
M  V30 10012 H 1702.93 -8.12039 0.792769 0
M  V30 10013 P 1706.89 -8.91 1.07145e-11 0
M  V30 10014 O 1707.11 -10.1746 -0.733838 0
M  V30 10015 O 1707.68 -8.73346 1.23964 0
M  V30 10016 O 1707.14 -7.66872 -0.971405 0
M  V30 10017 C 1706.2 -7.42405 -2.04668 0
M  V30 10018 C 1706.93 -6.86059 -3.24661 0
M  V30 10019 O 1707.14 -5.42934 -3.03695 0
M  V30 10020 C 1708.33 -7.41287 -3.50796 0
M  V30 10021 O 1708.72 -7.27073 -4.86816 0
M  V30 10022 C 1709.21 -6.5273 -2.63741 0
M  V30 10023 C 1708.5 -5.1842 -2.73198 0
M  V30 10024 N 1708.55 -4.38762 -1.4784 0
M  V30 10025 C 1708.47 -4.83651 -0.183876 0
M  V30 10026 N 1708.54 -3.88759 0.699393 0
M  V30 10027 C 1708.69 -2.7404 -0.0575568 0
M  V30 10028 C 1708.82 -1.37902 0.293928 0
M  V30 10029 N 1708.83 -0.938021 1.54797 0
M  V30 10030 N 1708.94 -0.491817 -0.70549 0
M  V30 10031 C 1708.93 -0.931735 -1.95979 0
M  V30 10032 N 1708.81 -2.16017 -2.41481 0
M  V30 10033 C 1708.69 -3.02547 -1.39121 0
M  V30 10034 H 1705.71 -8.36899 -2.3252 0
M  V30 10035 H 1705.44 -6.70391 -1.71179 0
M  V30 10036 H 1706.31 -7.03638 -4.13219 0
M  V30 10037 H 1708.96 -4.59931 -3.54016 0
M  V30 10038 H 1709.24 -6.88995 -1.59871 0
M  V30 10039 H 1710.23 -6.4684 -3.0373 0
M  V30 10040 H 1708.4 -8.47002 -3.20749 0
M  V30 10041 H 1708.36 -5.8885 0.0765548 0
M  V30 10042 H 1708.74 -1.60276 2.32875 0
M  V30 10043 H 1708.93 0.0699355 1.73859 0
M  V30 10044 H 1709.04 -0.165507 -2.71897 0
M  V30 10045 P 1710.27 -7.20834 -5.23717 0
M  V30 10046 O 1710.49 -7.79853 -6.57286 0
M  V30 10047 O 1711.06 -7.79239 -4.12957 0
M  V30 10048 O 1710.52 -5.63315 -5.29344 0
M  V30 10049 C 1709.58 -4.80255 -6.01876 0
M  V30 10050 C 1710.31 -3.64202 -6.65911 0
M  V30 10051 O 1710.52 -2.60694 -5.64732 0
M  V30 10052 C 1711.71 -3.93473 -7.1943 0
M  V30 10053 O 1712.1 -3.02071 -8.21205 0
M  V30 10054 C 1712.59 -3.73047 -5.97036 0
M  V30 10055 C 1711.88 -2.58828 -5.25741 0
M  V30 10056 N 1711.93 -2.68068 -3.77503 0
M  V30 10057 H 1709.09 -5.40332 -6.79951 0
M  V30 10058 H 1708.82 -4.41613 -5.32378 0
M  V30 10059 H 1709.69 -3.26331 -7.47797 0
M  V30 10060 P 1713.65 -2.75334 -8.47391 0
M  V30 10061 O 1713.87 -2.44619 -9.90336 0
M  V30 10062 O 1714.44 -3.87776 -7.92294 0
M  V30 10063 O 1713.9 -1.4459 -7.59357 0
M  V30 10064 C 1712.96 -0.347653 -7.69315 0
M  V30 10065 C 1713.69 0.96767 -7.52806 0
M  V30 10066 O 1713.9 1.21055 -6.10208 0
M  V30 10067 C 1715.09 1.04557 -8.13408 0
M  V30 10068 O 1715.48 2.38311 -8.41922 0
M  V30 10069 C 1715.97 0.491279 -7.02284 0
M  V30 10070 C 1715.26 0.996264 -5.77469 0
M  V30 10071 N 1715.31 0.0501916 -4.62973 0
M  V30 10072 H 1712.47 -0.374765 -8.67791 0
M  V30 10073 H 1712.2 -0.443613 -6.90476 0
M  V30 10074 H 1713.07 1.75559 -7.96891 0
M  V30 10075 H 1715.72 1.94563 -5.46818 0
M  V30 10076 H 1716 -0.608651 -7.04676 0
M  V30 10077 H 1716.99 0.889796 -7.09039 0
M  V30 10078 H 1715.16 0.433128 -9.04664 0
M  V30 10079 P 1717.03 2.75334 -8.47391 0
M  V30 10080 O 1717.25 3.84128 -9.44797 0
M  V30 10081 O 1717.82 1.51947 -8.68712 0
M  V30 10082 O 1717.28 3.29363 -6.99321 0
M  V30 10083 C 1716.34 4.24011 -6.4274 0
M  V30 10084 C 1717.07 5.20775 -5.52155 0
M  V30 10085 O 1717.28 4.56534 -4.22446 0
M  V30 10086 C 1718.47 5.62629 -5.96531 0
M  V30 10087 O 1718.86 6.87667 -5.41053 0
M  V30 10088 C 1719.35 4.52537 -5.39283 0
M  V30 10089 C 1718.64 4.20027 -4.08623 0
M  V30 10090 N 1718.69 2.76189 -3.71603 0
M  V30 10091 H 1715.85 4.797 -7.24003 0
M  V30 10092 H 1715.58 3.69856 -5.84513 0
M  V30 10093 H 1716.45 6.10356 -5.41441 0
M  V30 10094 P 1720.41 7.20834 -5.23717 0
M  V30 10095 O 1720.63 8.66274 -5.38678 0
M  V30 10096 O 1721.2 6.33687 -6.13629 0
M  V30 10097 O 1720.66 6.7751 -3.72168 0
M  V30 10098 C 1719.72 7.20919 -2.70795 0
M  V30 10099 C 1720.45 7.45864 -1.40599 0
M  V30 10100 O 1720.66 6.17751 -0.734343 0
M  V30 10101 C 1721.85 8.05906 -1.51917 0
M  V30 10102 O 1722.24 8.74358 -0.335205 0
M  V30 10103 C 1722.73 6.83093 -1.70294 0
M  V30 10104 C 1722.02 5.79992 -0.836974 0
M  V30 10105 N 1722.07 4.41864 -1.38293 0
M  V30 10106 C 1721.99 4.02089 -2.69407 0
M  V30 10107 N 1722.06 2.73403 -2.85089 0
M  V30 10108 C 1722.21 2.25086 -1.5642 0
M  V30 10109 C 1722.34 0.942887 -1.04836 0
M  V30 10110 N 1722.35 -0.150999 -1.80369 0
M  V30 10111 N 1722.46 0.812565 0.28167 0
M  V30 10112 C 1722.45 1.90572 1.03784 0
M  V30 10113 N 1722.33 3.167 0.683905 0
M  V30 10114 C 1722.21 3.26538 -0.652815 0
M  V30 10115 H 1719.23 8.13738 -3.03804 0
M  V30 10116 H 1718.96 6.42974 -2.55559 0
M  V30 10117 H 1719.83 8.12139 -0.792866 0
M  V30 10118 H 1722.48 5.80178 0.160643 0
M  V30 10119 H 1722.76 6.51379 -2.75643 0
M  V30 10120 H 1723.75 7.01832 -1.3448 0
M  V30 10121 H 1721.92 8.73771 -2.38364 0
M  V30 10122 H 1721.88 4.7189 -3.52311 0
M  V30 10123 H 1722.26 -0.0721434 -2.82608 0
M  V30 10124 H 1722.45 -1.0785 -1.36544 0
M  V30 10125 H 1722.56 1.73207 2.10241 0
M  V30 10126 P 1723.79 8.91 -1.18235e-11 0
M  V30 10127 O 1724.01 10.1726 0.733694 0
M  V30 10128 O 1724.58 8.73148 -1.23936 0
M  V30 10129 O 1724.04 7.66872 0.971405 0
M  V30 10130 C 1723.1 7.42309 2.04641 0
M  V30 10131 C 1723.83 6.86059 3.24661 0
M  V30 10132 O 1724.04 5.42847 3.03646 0
M  V30 10133 C 1725.23 7.41196 3.50753 0
M  V30 10134 O 1725.62 7.27073 4.86816 0
M  V30 10135 C 1726.11 6.5273 2.63741 0
M  V30 10136 C 1725.4 5.1842 2.73198 0
M  V30 10137 N 1725.45 4.38762 1.4784 0
M  V30 10138 H 1722.61 8.36803 2.32493 0
M  V30 10139 H 1722.34 6.70197 1.71129 0
M  V30 10140 H 1723.21 7.03551 4.13168 0
M  V30 10141 P 1727.17 7.20834 5.23717 0
M  V30 10142 O 1727.39 7.79853 6.57286 0
M  V30 10143 O 1727.96 7.79239 4.12957 0
M  V30 10144 O 1727.42 5.63315 5.29344 0
M  V30 10145 C 1726.48 4.80255 6.01876 0
M  V30 10146 C 1727.21 3.64202 6.65911 0
M  V30 10147 O 1727.42 2.60694 5.64732 0
M  V30 10148 C 1728.61 3.93473 7.1943 0
M  V30 10149 O 1729 3.02071 8.21205 0
M  V30 10150 C 1729.49 3.73047 5.97036 0
M  V30 10151 C 1728.78 2.58828 5.25741 0
M  V30 10152 N 1728.83 2.68068 3.77503 0
M  V30 10153 C 1728.75 3.79715 2.96723 0
M  V30 10154 N 1728.83 3.5377 1.68852 0
M  V30 10155 C 1728.97 2.15054 1.63254 0
M  V30 10156 C 1729.1 1.28964 0.518571 0
M  V30 10157 O 1729.12 1.56826 -0.679156 0
M  V30 10158 N 1729.22 -0.0538097 0.918425 0
M  V30 10159 C 1729.22 -0.494275 2.22578 0
M  V30 10160 N 1729.35 -1.81086 2.40434 0
M  V30 10161 N 1729.09 0.313645 3.27502 0
M  V30 10162 C 1728.97 1.61829 2.91033 0
M  V30 10163 H 1725.99 5.40332 6.79951 0
M  V30 10164 H 1725.72 4.41613 5.32378 0
M  V30 10165 H 1726.59 3.26331 7.47797 0
M  V30 10166 H 1729.24 1.63422 5.56814 0
M  V30 10167 H 1729.52 4.63374 5.34244 0
M  V30 10168 H 1730.51 3.44728 6.25838 0
M  V30 10169 H 1728.68 4.96652 7.57263 0
M  V30 10170 H 1728.63 4.80617 3.3614 0
M  V30 10171 H 1729.31 -0.742702 0.199384 0
M  V30 10172 H 1729.35 -2.20598 3.35588 0
M  V30 10173 H 1729.45 -2.43518 1.58945 0
M  V30 10174 P 1730.55 2.75334 8.47391 0
M  V30 10175 O 1730.77 2.44571 9.90142 0
M  V30 10176 O 1731.34 3.87688 7.92115 0
M  V30 10177 O 1730.8 1.4459 7.59357 0
M  V30 10178 C 1729.86 0.347608 7.69215 0
M  V30 10179 C 1730.59 -0.96767 7.52806 0
M  V30 10180 O 1730.8 -1.21036 6.1011 0
M  V30 10181 C 1731.99 -1.04544 8.13308 0
M  V30 10182 O 1732.38 -2.38311 8.41922 0
M  V30 10183 C 1732.87 -0.491279 7.02284 0
M  V30 10184 C 1732.16 -0.996264 5.77469 0
M  V30 10185 N 1732.21 -0.0501916 4.62973 0
M  V30 10186 H 1729.37 0.374722 8.67691 0
M  V30 10187 H 1729.1 0.443485 6.90277 0
M  V30 10188 H 1729.97 -1.75537 7.96793 0
M  V30 10189 P 1733.93 -2.75334 8.47391 0
M  V30 10190 O 1734.15 -3.84128 9.44797 0
M  V30 10191 O 1734.72 -1.51947 8.68712 0
M  V30 10192 O 1734.18 -3.29363 6.99321 0
M  V30 10193 C 1733.24 -4.24011 6.4274 0
M  V30 10194 C 1733.97 -5.20775 5.52155 0
M  V30 10195 O 1734.18 -4.56534 4.22446 0
M  V30 10196 C 1735.37 -5.62629 5.96531 0
M  V30 10197 O 1735.76 -6.87667 5.41053 0
M  V30 10198 C 1736.25 -4.52537 5.39283 0
M  V30 10199 C 1735.54 -4.20027 4.08623 0
M  V30 10200 N 1735.59 -2.76189 3.71603 0
M  V30 10201 C 1735.51 -1.64862 4.52822 0
M  V30 10202 N 1735.59 -0.512671 3.88633 0
M  V30 10203 C 1735.73 -0.888083 2.54977 0
M  V30 10204 C 1735.86 -0.094668 1.38677 0
M  V30 10205 O 1735.88 1.13053 1.28163 0
M  V30 10206 N 1735.98 -0.890102 0.232633 0
M  V30 10207 C 1735.98 -2.26958 0.21772 0
M  V30 10208 N 1736.11 -2.84626 -0.97925 0
M  V30 10209 N 1735.85 -3.0178 1.31033 0
M  V30 10210 C 1735.73 -2.26781 2.43843 0
M  V30 10211 H 1732.75 -4.797 7.24003 0
M  V30 10212 H 1732.48 -3.69856 5.84513 0
M  V30 10213 H 1733.35 -6.10356 5.41441 0
M  V30 10214 H 1736 -4.79061 3.27488 0
M  V30 10215 H 1736.28 -3.64906 6.05785 0
M  V30 10216 H 1737.27 -4.8868 5.2125 0
M  V30 10217 H 1735.44 -5.66726 7.06352 0
M  V30 10218 H 1735.39 -1.71169 5.60966 0
M  V30 10219 H 1736.07 -0.419134 -0.644739 0
M  V30 10220 H 1736.11 -3.87332 -1.06098 0
M  V30 10221 H 1736.21 -2.26417 -1.82483 0
M  V30 10222 P 1737.31 -7.20834 5.23717 0
M  V30 10223 O 1737.53 -8.66104 5.38572 0
M  V30 10224 O 1738.1 -6.33544 6.1349 0
M  V30 10225 O 1737.56 -6.7751 3.72168 0
M  V30 10226 C 1736.62 -7.20825 2.7076 0
M  V30 10227 C 1737.35 -7.45864 1.40599 0
M  V30 10228 O 1737.56 -6.17651 0.734225 0
M  V30 10229 C 1738.75 -8.05808 1.51899 0
M  V30 10230 O 1739.14 -8.74358 0.335205 0
M  V30 10231 C 1739.63 -6.83093 1.70294 0
M  V30 10232 C 1738.92 -5.79992 0.836974 0
M  V30 10233 N 1738.97 -4.41864 1.38293 0
M  V30 10234 H 1736.13 -8.13644 3.0377 0
M  V30 10235 H 1735.86 -6.42788 2.55485 0
M  V30 10236 H 1736.73 -8.12039 0.792769 0
M  V30 10237 P 1740.69 -8.91 1.29325e-11 0
M  V30 10238 O 1740.91 -10.1726 -0.733694 0
M  V30 10239 O 1741.48 -8.73148 1.23936 0
M  V30 10240 O 1740.94 -7.66872 -0.971405 0
M  V30 10241 C 1740 -7.42309 -2.04641 0
M  V30 10242 C 1740.73 -6.86059 -3.24661 0
M  V30 10243 O 1740.94 -5.42847 -3.03646 0
M  V30 10244 C 1742.13 -7.41196 -3.50753 0
M  V30 10245 O 1742.52 -7.27073 -4.86816 0
M  V30 10246 C 1743.01 -6.5273 -2.63741 0
M  V30 10247 C 1742.3 -5.1842 -2.73198 0
M  V30 10248 N 1742.35 -4.38762 -1.4784 0
M  V30 10249 H 1739.51 -8.36803 -2.32493 0
M  V30 10250 H 1739.24 -6.70197 -1.71129 0
M  V30 10251 H 1740.11 -7.03551 -4.13168 0
M  V30 10252 P 1744.07 -7.20834 -5.23717 0
M  V30 10253 O 1744.29 -7.79853 -6.57286 0
M  V30 10254 O 1744.86 -7.79239 -4.12957 0
M  V30 10255 O 1744.32 -5.63315 -5.29344 0
M  V30 10256 C 1743.38 -4.80255 -6.01876 0
M  V30 10257 C 1744.11 -3.64202 -6.65911 0
M  V30 10258 O 1744.32 -2.60694 -5.64732 0
M  V30 10259 C 1745.51 -3.93473 -7.1943 0
M  V30 10260 O 1745.9 -3.02071 -8.21205 0
M  V30 10261 C 1746.39 -3.73047 -5.97036 0
M  V30 10262 C 1745.68 -2.58828 -5.25741 0
M  V30 10263 N 1745.73 -2.68068 -3.77503 0
M  V30 10264 C 1745.65 -3.79715 -2.96723 0
M  V30 10265 N 1745.73 -3.5377 -1.68852 0
M  V30 10266 C 1745.87 -2.15054 -1.63254 0
M  V30 10267 C 1746 -1.28964 -0.518571 0
M  V30 10268 N 1746.12 0.0538097 -0.918425 0
M  V30 10269 C 1746.12 0.494275 -2.22578 0
M  V30 10270 N 1746.25 1.81086 -2.40434 0
M  V30 10271 N 1745.99 -0.313645 -3.27502 0
M  V30 10272 C 1745.87 -1.61829 -2.91033 0
M  V30 10273 H 1742.89 -5.40332 -6.79951 0
M  V30 10274 H 1742.62 -4.41613 -5.32378 0
M  V30 10275 H 1743.49 -3.26331 -7.47797 0
M  V30 10276 P 1747.45 -2.75334 -8.47391 0
M  V30 10277 O 1747.67 -2.44571 -9.90142 0
M  V30 10278 O 1748.24 -3.87688 -7.92115 0
M  V30 10279 O 1747.7 -1.4459 -7.59357 0
M  V30 10280 C 1746.76 -0.347608 -7.69215 0
M  V30 10281 C 1747.49 0.96767 -7.52806 0
M  V30 10282 O 1747.7 1.21036 -6.1011 0
M  V30 10283 C 1748.89 1.04544 -8.13308 0
M  V30 10284 O 1749.28 2.38311 -8.41922 0
M  V30 10285 C 1749.77 0.491279 -7.02284 0
M  V30 10286 C 1749.06 0.996264 -5.77469 0
M  V30 10287 N 1749.11 0.0501916 -4.62973 0
M  V30 10288 H 1746.27 -0.374722 -8.67691 0
M  V30 10289 H 1746 -0.443485 -6.90277 0
M  V30 10290 H 1746.87 1.75537 -7.96793 0
M  V30 10291 P 1750.83 2.75334 -8.47391 0
M  V30 10292 O 1751.05 3.84128 -9.44797 0
M  V30 10293 O 1751.62 1.51947 -8.68712 0
M  V30 10294 O 1751.08 3.29363 -6.99321 0
M  V30 10295 C 1750.14 4.24011 -6.4274 0
M  V30 10296 C 1750.87 5.20775 -5.52155 0
M  V30 10297 O 1751.08 4.56534 -4.22446 0
M  V30 10298 C 1752.27 5.62629 -5.96531 0
M  V30 10299 O 1752.66 6.87667 -5.41053 0
M  V30 10300 C 1753.15 4.52537 -5.39283 0
M  V30 10301 C 1752.44 4.20027 -4.08623 0
M  V30 10302 N 1752.49 2.76189 -3.71603 0
M  V30 10303 H 1749.65 4.797 -7.24003 0
M  V30 10304 H 1749.38 3.69856 -5.84513 0
M  V30 10305 H 1750.25 6.10356 -5.41441 0
M  V30 10306 P 1754.21 7.20834 -5.23717 0
M  V30 10307 O 1754.43 8.66104 -5.38572 0
M  V30 10308 O 1755 6.33544 -6.1349 0
M  V30 10309 O 1754.46 6.7751 -3.72168 0
M  V30 10310 C 1753.52 7.20825 -2.7076 0
M  V30 10311 C 1754.25 7.45864 -1.40599 0
M  V30 10312 O 1754.46 6.17651 -0.734225 0
M  V30 10313 C 1755.65 8.05808 -1.51899 0
M  V30 10314 O 1756.04 8.74358 -0.335205 0
M  V30 10315 C 1756.53 6.83093 -1.70294 0
M  V30 10316 C 1755.82 5.79992 -0.836974 0
M  V30 10317 N 1755.87 4.41864 -1.38293 0
M  V30 10318 H 1753.03 8.13644 -3.0377 0
M  V30 10319 H 1752.76 6.42788 -2.55485 0
M  V30 10320 H 1753.63 8.12039 -0.792769 0
M  V30 10321 P 1757.59 8.91 -1.40415e-11 0
M  V30 10322 O 1757.81 10.1726 0.733694 0
M  V30 10323 O 1758.38 8.73148 -1.23936 0
M  V30 10324 O 1757.84 7.66872 0.971405 0
M  V30 10325 C 1756.9 7.42309 2.04641 0
M  V30 10326 C 1757.63 6.86059 3.24661 0
M  V30 10327 O 1757.84 5.42847 3.03646 0
M  V30 10328 C 1759.03 7.41196 3.50753 0
M  V30 10329 O 1759.42 7.27073 4.86816 0
M  V30 10330 C 1759.91 6.5273 2.63741 0
M  V30 10331 C 1759.2 5.1842 2.73198 0
M  V30 10332 N 1759.25 4.38762 1.4784 0
M  V30 10333 H 1756.41 8.36803 2.32493 0
M  V30 10334 H 1756.14 6.70197 1.71129 0
M  V30 10335 H 1757.01 7.03551 4.13168 0
M  V30 10336 P 1760.97 7.20834 5.23717 0
M  V30 10337 O 1761.19 7.79853 6.57286 0
M  V30 10338 O 1761.76 7.79239 4.12957 0
M  V30 10339 O 1761.22 5.63315 5.29344 0
M  V30 10340 C 1760.28 4.80255 6.01876 0
M  V30 10341 C 1761.01 3.64202 6.65911 0
M  V30 10342 O 1761.22 2.60694 5.64732 0
M  V30 10343 C 1762.41 3.93473 7.1943 0
M  V30 10344 O 1762.8 3.02071 8.21205 0
M  V30 10345 C 1763.29 3.73047 5.97036 0
M  V30 10346 C 1762.58 2.58828 5.25741 0
M  V30 10347 N 1762.63 2.68068 3.77503 0
M  V30 10348 H 1759.79 5.40332 6.79951 0
M  V30 10349 H 1759.52 4.41613 5.32378 0
M  V30 10350 H 1760.39 3.26331 7.47797 0
M  V30 10351 P 1764.35 2.75334 8.47391 0
M  V30 10352 O 1764.57 2.44571 9.90142 0
M  V30 10353 O 1765.14 3.87688 7.92115 0
M  V30 10354 O 1764.6 1.4459 7.59357 0
M  V30 10355 C 1763.66 0.347608 7.69215 0
M  V30 10356 C 1764.39 -0.96767 7.52806 0
M  V30 10357 O 1764.6 -1.21036 6.1011 0
M  V30 10358 C 1765.79 -1.04544 8.13308 0
M  V30 10359 O 1766.18 -2.38311 8.41922 0
M  V30 10360 C 1766.67 -0.491279 7.02284 0
M  V30 10361 C 1765.96 -0.996264 5.77469 0
M  V30 10362 N 1766.01 -0.0501916 4.62973 0
M  V30 10363 H 1763.17 0.374722 8.67691 0
M  V30 10364 H 1762.9 0.443485 6.90277 0
M  V30 10365 H 1763.77 -1.75537 7.96793 0
M  V30 10366 P 1767.73 -2.75334 8.47391 0
M  V30 10367 O 1767.95 -3.84128 9.44797 0
M  V30 10368 O 1768.52 -1.51947 8.68712 0
M  V30 10369 O 1767.98 -3.29363 6.99321 0
M  V30 10370 C 1767.04 -4.24011 6.4274 0
M  V30 10371 C 1767.77 -5.20775 5.52155 0
M  V30 10372 O 1767.98 -4.56534 4.22446 0
M  V30 10373 C 1769.17 -5.62629 5.96531 0
M  V30 10374 O 1769.56 -6.87667 5.41053 0
M  V30 10375 C 1770.05 -4.52537 5.39283 0
M  V30 10376 C 1769.34 -4.20027 4.08623 0
M  V30 10377 N 1769.39 -2.76189 3.71603 0
M  V30 10378 C 1769.31 -1.64862 4.52822 0
M  V30 10379 N 1769.39 -0.512671 3.88633 0
M  V30 10380 C 1769.53 -0.888083 2.54977 0
M  V30 10381 C 1769.66 -0.094668 1.38677 0
M  V30 10382 N 1769.78 -0.890102 0.232633 0
M  V30 10383 C 1769.78 -2.26958 0.21772 0
M  V30 10384 N 1769.91 -2.84626 -0.97925 0
M  V30 10385 N 1769.65 -3.0178 1.31033 0
M  V30 10386 C 1769.53 -2.26781 2.43843 0
M  V30 10387 H 1766.55 -4.797 7.24003 0
M  V30 10388 H 1766.28 -3.69856 5.84513 0
M  V30 10389 H 1767.15 -6.10356 5.41441 0
M  V30 10390 P 1771.11 -7.20834 5.23717 0
M  V30 10391 O 1771.33 -8.66104 5.38572 0
M  V30 10392 O 1771.9 -6.33544 6.1349 0
M  V30 10393 O 1771.36 -6.7751 3.72168 0
M  V30 10394 C 1770.42 -7.20825 2.7076 0
M  V30 10395 C 1771.15 -7.45864 1.40599 0
M  V30 10396 O 1771.36 -6.17651 0.734225 0
M  V30 10397 C 1772.55 -8.05808 1.51899 0
M  V30 10398 O 1772.94 -8.74358 0.335205 0
M  V30 10399 C 1773.43 -6.83093 1.70294 0
M  V30 10400 C 1772.72 -5.79992 0.836974 0
M  V30 10401 N 1772.77 -4.41864 1.38293 0
M  V30 10402 C 1772.69 -3.99538 2.69438 0
M  V30 10403 N 1772.77 -2.69909 2.84277 0
M  V30 10404 C 1772.91 -2.21719 1.5408 0
M  V30 10405 C 1773.04 -0.891712 1.06628 0
M  V30 10406 N 1773.16 -0.856846 -0.334985 0
M  V30 10407 C 1773.16 -1.9641 -1.15789 0
M  V30 10408 N 1773.29 -1.72708 -2.46522 0
M  V30 10409 N 1773.03 -3.21165 -0.713741 0
M  V30 10410 C 1772.91 -3.26797 0.639748 0
M  V30 10411 H 1769.93 -8.13644 3.0377 0
M  V30 10412 H 1769.66 -6.42788 2.55485 0
M  V30 10413 H 1770.53 -8.12039 0.792769 0
M  V30 10414 P 1774.49 -8.91 1.51505e-11 0
M  V30 10415 O 1774.71 -10.1726 -0.733694 0
M  V30 10416 O 1775.28 -8.73148 1.23936 0
M  V30 10417 O 1774.74 -7.66872 -0.971405 0
M  V30 10418 C 1773.8 -7.42309 -2.04641 0
M  V30 10419 C 1774.53 -6.86059 -3.24661 0
M  V30 10420 O 1774.74 -5.42847 -3.03646 0
M  V30 10421 C 1775.93 -7.41196 -3.50753 0
M  V30 10422 O 1776.32 -7.27073 -4.86816 0
M  V30 10423 C 1776.81 -6.5273 -2.63741 0
M  V30 10424 C 1776.1 -5.1842 -2.73198 0
M  V30 10425 N 1776.15 -4.38762 -1.4784 0
M  V30 10426 H 1773.31 -8.36803 -2.32493 0
M  V30 10427 H 1773.04 -6.70197 -1.71129 0
M  V30 10428 H 1773.91 -7.03551 -4.13168 0
M  V30 10429 P 1777.87 -7.20834 -5.23717 0
M  V30 10430 O 1778.09 -7.79853 -6.57286 0
M  V30 10431 O 1778.66 -7.79239 -4.12957 0
M  V30 10432 O 1778.12 -5.63315 -5.29344 0
M  V30 10433 C 1777.18 -4.80255 -6.01876 0
M  V30 10434 C 1777.91 -3.64202 -6.65911 0
M  V30 10435 O 1778.12 -2.60694 -5.64732 0
M  V30 10436 C 1779.31 -3.93473 -7.1943 0
M  V30 10437 O 1779.7 -3.02071 -8.21205 0
M  V30 10438 C 1780.19 -3.73047 -5.97036 0
M  V30 10439 C 1779.48 -2.58828 -5.25741 0
M  V30 10440 N 1779.53 -2.68068 -3.77503 0
M  V30 10441 H 1776.69 -5.40332 -6.79951 0
M  V30 10442 H 1776.42 -4.41613 -5.32378 0
M  V30 10443 H 1777.29 -3.26331 -7.47797 0
M  V30 10444 P 1781.25 -2.75334 -8.47391 0
M  V30 10445 O 1781.47 -2.44571 -9.90142 0
M  V30 10446 O 1782.04 -3.87688 -7.92115 0
M  V30 10447 O 1781.5 -1.4459 -7.59357 0
M  V30 10448 C 1780.56 -0.347608 -7.69215 0
M  V30 10449 C 1781.29 0.96767 -7.52806 0
M  V30 10450 O 1781.5 1.21036 -6.1011 0
M  V30 10451 C 1782.69 1.04544 -8.13308 0
M  V30 10452 O 1783.08 2.38311 -8.41922 0
M  V30 10453 C 1783.57 0.491279 -7.02284 0
M  V30 10454 C 1782.86 0.996264 -5.77469 0
M  V30 10455 N 1782.91 0.0501916 -4.62973 0
M  V30 10456 H 1780.07 -0.374722 -8.67691 0
M  V30 10457 H 1779.8 -0.443485 -6.90277 0
M  V30 10458 H 1780.67 1.75537 -7.96793 0
M  V30 10459 P 1784.63 2.75334 -8.47391 0
M  V30 10460 O 1784.85 3.84128 -9.44797 0
M  V30 10461 O 1785.42 1.51947 -8.68712 0
M  V30 10462 O 1784.88 3.29363 -6.99321 0
M  V30 10463 C 1783.94 4.24011 -6.4274 0
M  V30 10464 C 1784.67 5.20775 -5.52155 0
M  V30 10465 O 1784.88 4.56534 -4.22446 0
M  V30 10466 C 1786.07 5.62629 -5.96531 0
M  V30 10467 O 1786.46 6.87667 -5.41053 0
M  V30 10468 C 1786.95 4.52537 -5.39283 0
M  V30 10469 C 1786.24 4.20027 -4.08623 0
M  V30 10470 N 1786.29 2.76189 -3.71603 0
M  V30 10471 H 1783.45 4.797 -7.24003 0
M  V30 10472 H 1783.18 3.69856 -5.84513 0
M  V30 10473 H 1784.05 6.10356 -5.41441 0
M  V30 10474 P 1788.01 7.20834 -5.23717 0
M  V30 10475 O 1788.23 8.66104 -5.38572 0
M  V30 10476 O 1788.8 6.33544 -6.1349 0
M  V30 10477 O 1788.26 6.7751 -3.72168 0
M  V30 10478 C 1787.32 7.20825 -2.7076 0
M  V30 10479 C 1788.05 7.45864 -1.40599 0
M  V30 10480 O 1788.26 6.17651 -0.734225 0
M  V30 10481 C 1789.45 8.05808 -1.51899 0
M  V30 10482 O 1789.84 8.74358 -0.335205 0
M  V30 10483 C 1790.33 6.83093 -1.70294 0
M  V30 10484 C 1789.62 5.79992 -0.836974 0
M  V30 10485 N 1789.67 4.41864 -1.38293 0
M  V30 10486 H 1786.83 8.13644 -3.0377 0
M  V30 10487 H 1786.56 6.42788 -2.55485 0
M  V30 10488 H 1787.43 8.12039 -0.792769 0
M  V30 10489 P 1791.39 8.91 -1.62595e-11 0
M  V30 10490 O 1791.61 10.1726 0.733694 0
M  V30 10491 O 1792.18 8.73148 -1.23936 0
M  V30 10492 O 1791.64 7.66872 0.971405 0
M  V30 10493 C 1790.7 7.42309 2.04641 0
M  V30 10494 C 1791.43 6.86059 3.24661 0
M  V30 10495 O 1791.64 5.42847 3.03646 0
M  V30 10496 C 1792.83 7.41196 3.50753 0
M  V30 10497 O 1793.22 7.27073 4.86816 0
M  V30 10498 C 1793.71 6.5273 2.63741 0
M  V30 10499 C 1793 5.1842 2.73198 0
M  V30 10500 N 1793.05 4.38762 1.4784 0
M  V30 10501 H 1790.21 8.36803 2.32493 0
M  V30 10502 H 1789.94 6.70197 1.71129 0
M  V30 10503 H 1790.81 7.03551 4.13168 0
M  V30 10504 P 1794.77 7.20834 5.23717 0
M  V30 10505 O 1794.99 7.79853 6.57286 0
M  V30 10506 O 1795.56 7.79239 4.12957 0
M  V30 10507 O 1795.02 5.63315 5.29344 0
M  V30 10508 C 1794.08 4.80255 6.01876 0
M  V30 10509 C 1794.81 3.64202 6.65911 0
M  V30 10510 O 1795.02 2.60694 5.64732 0
M  V30 10511 C 1796.21 3.93473 7.1943 0
M  V30 10512 O 1796.6 3.02071 8.21205 0
M  V30 10513 C 1797.09 3.73047 5.97036 0
M  V30 10514 C 1796.38 2.58828 5.25741 0
M  V30 10515 N 1796.43 2.68068 3.77503 0
M  V30 10516 H 1793.59 5.40332 6.79951 0
M  V30 10517 H 1793.32 4.41613 5.32378 0
M  V30 10518 H 1794.19 3.26331 7.47797 0
M  V30 10519 P 1798.15 2.75334 8.47391 0
M  V30 10520 O 1798.37 2.44571 9.90142 0
M  V30 10521 O 1798.94 3.87688 7.92115 0
M  V30 10522 O 1798.4 1.4459 7.59357 0
M  V30 10523 C 1797.46 0.347608 7.69215 0
M  V30 10524 C 1798.19 -0.96767 7.52806 0
M  V30 10525 O 1798.4 -1.21036 6.1011 0
M  V30 10526 C 1799.59 -1.04544 8.13308 0
M  V30 10527 O 1799.98 -2.38311 8.41922 0
M  V30 10528 C 1800.47 -0.491279 7.02284 0
M  V30 10529 C 1799.76 -0.996264 5.77469 0
M  V30 10530 N 1799.81 -0.0501916 4.62973 0
M  V30 10531 H 1796.97 0.374722 8.67691 0
M  V30 10532 H 1796.7 0.443485 6.90277 0
M  V30 10533 H 1797.57 -1.75537 7.96793 0
M  V30 10534 P 1801.53 -2.75334 8.47391 0
M  V30 10535 O 1801.75 -3.84128 9.44797 0
M  V30 10536 O 1802.32 -1.51947 8.68712 0
M  V30 10537 O 1801.78 -3.29363 6.99321 0
M  V30 10538 C 1800.84 -4.24011 6.4274 0
M  V30 10539 C 1801.57 -5.20775 5.52155 0
M  V30 10540 O 1801.78 -4.56534 4.22446 0
M  V30 10541 C 1802.97 -5.62629 5.96531 0
M  V30 10542 O 1803.36 -6.87667 5.41053 0
M  V30 10543 C 1803.85 -4.52537 5.39283 0
M  V30 10544 C 1803.14 -4.20027 4.08623 0
M  V30 10545 N 1803.19 -2.76189 3.71603 0
M  V30 10546 H 1800.35 -4.797 7.24003 0
M  V30 10547 H 1800.08 -3.69856 5.84513 0
M  V30 10548 H 1800.95 -6.10356 5.41441 0
M  V30 10549 P 1804.91 -7.20834 5.23717 0
M  V30 10550 O 1805.13 -8.66274 5.38678 0
M  V30 10551 O 1805.7 -6.33687 6.13629 0
M  V30 10552 O 1805.16 -6.7751 3.72168 0
M  V30 10553 C 1804.22 -7.20919 2.70795 0
M  V30 10554 C 1804.95 -7.45864 1.40599 0
M  V30 10555 O 1805.16 -6.17751 0.734343 0
M  V30 10556 C 1806.35 -8.05906 1.51917 0
M  V30 10557 O 1806.74 -8.74358 0.335205 0
M  V30 10558 C 1807.23 -6.83093 1.70294 0
M  V30 10559 C 1806.52 -5.79992 0.836974 0
M  V30 10560 N 1806.57 -4.41864 1.38293 0
M  V30 10561 C 1806.49 -4.02089 2.69407 0
M  V30 10562 N 1806.56 -2.73403 2.85089 0
M  V30 10563 C 1806.71 -2.25086 1.5642 0
M  V30 10564 C 1806.84 -0.942887 1.04836 0
M  V30 10565 N 1806.85 0.150999 1.80369 0
M  V30 10566 N 1806.96 -0.812565 -0.28167 0
M  V30 10567 C 1806.95 -1.90572 -1.03784 0
M  V30 10568 N 1806.83 -3.167 -0.683905 0
M  V30 10569 C 1806.71 -3.26538 0.652815 0
M  V30 10570 H 1803.73 -8.13738 3.03804 0
M  V30 10571 H 1803.46 -6.42974 2.55559 0
M  V30 10572 H 1804.33 -8.12139 0.792866 0
M  V30 10573 H 1806.98 -5.80178 -0.160643 0
M  V30 10574 H 1807.26 -6.51379 2.75643 0
M  V30 10575 H 1808.25 -7.01832 1.3448 0
M  V30 10576 H 1806.42 -8.73771 2.38364 0
M  V30 10577 H 1806.38 -4.7189 3.52311 0
M  V30 10578 H 1806.76 0.0721434 2.82608 0
M  V30 10579 H 1806.95 1.0785 1.36544 0
M  V30 10580 H 1807.06 -1.73207 -2.10241 0
M  V30 10581 P 1808.29 -8.91 1.73686e-11 0
M  V30 10582 O 1808.51 -10.1726 -0.733694 0
M  V30 10583 O 1809.08 -8.73148 1.23936 0
M  V30 10584 O 1808.54 -7.66872 -0.971405 0
M  V30 10585 C 1807.6 -7.42309 -2.04641 0
M  V30 10586 C 1808.33 -6.86059 -3.24661 0
M  V30 10587 O 1808.54 -5.42847 -3.03646 0
M  V30 10588 C 1809.73 -7.41196 -3.50753 0
M  V30 10589 O 1810.12 -7.27073 -4.86816 0
M  V30 10590 C 1810.61 -6.5273 -2.63741 0
M  V30 10591 C 1809.9 -5.1842 -2.73198 0
M  V30 10592 N 1809.95 -4.38762 -1.4784 0
M  V30 10593 H 1807.11 -8.36803 -2.32493 0
M  V30 10594 H 1806.84 -6.70197 -1.71129 0
M  V30 10595 H 1807.71 -7.03551 -4.13168 0
M  V30 10596 P 1811.67 -7.20834 -5.23717 0
M  V30 10597 O 1811.89 -7.79853 -6.57286 0
M  V30 10598 O 1812.46 -7.79239 -4.12957 0
M  V30 10599 O 1811.92 -5.63315 -5.29344 0
M  V30 10600 C 1810.98 -4.80255 -6.01876 0
M  V30 10601 C 1811.71 -3.64202 -6.65911 0
M  V30 10602 O 1811.92 -2.60694 -5.64732 0
M  V30 10603 C 1813.11 -3.93473 -7.1943 0
M  V30 10604 O 1813.5 -3.02071 -8.21205 0
M  V30 10605 C 1813.99 -3.73047 -5.97036 0
M  V30 10606 C 1813.28 -2.58828 -5.25741 0
M  V30 10607 N 1813.33 -2.68068 -3.77503 0
M  V30 10608 H 1810.49 -5.40332 -6.79951 0
M  V30 10609 H 1810.22 -4.41613 -5.32378 0
M  V30 10610 H 1811.09 -3.26331 -7.47797 0
M  V30 10611 P 1815.05 -2.75334 -8.47391 0
M  V30 10612 O 1815.27 -2.44571 -9.90142 0
M  V30 10613 O 1815.84 -3.87688 -7.92115 0
M  V30 10614 O 1815.3 -1.4459 -7.59357 0
M  V30 10615 C 1814.36 -0.347608 -7.69215 0
M  V30 10616 C 1815.09 0.96767 -7.52806 0
M  V30 10617 O 1815.3 1.21036 -6.1011 0
M  V30 10618 C 1816.49 1.04544 -8.13308 0
M  V30 10619 O 1816.88 2.38311 -8.41922 0
M  V30 10620 C 1817.37 0.491279 -7.02284 0
M  V30 10621 C 1816.66 0.996264 -5.77469 0
M  V30 10622 N 1816.71 0.0501916 -4.62973 0
M  V30 10623 H 1813.87 -0.374722 -8.67691 0
M  V30 10624 H 1813.6 -0.443485 -6.90277 0
M  V30 10625 H 1814.47 1.75537 -7.96793 0
M  V30 10626 P 1818.43 2.75334 -8.47391 0
M  V30 10627 O 1818.65 3.84128 -9.44797 0
M  V30 10628 O 1819.22 1.51947 -8.68712 0
M  V30 10629 O 1818.68 3.29363 -6.99321 0
M  V30 10630 C 1817.74 4.24011 -6.4274 0
M  V30 10631 C 1818.47 5.20775 -5.52155 0
M  V30 10632 O 1818.68 4.56534 -4.22446 0
M  V30 10633 C 1819.87 5.62629 -5.96531 0
M  V30 10634 O 1820.26 6.87667 -5.41053 0
M  V30 10635 C 1820.75 4.52537 -5.39283 0
M  V30 10636 C 1820.04 4.20027 -4.08623 0
M  V30 10637 N 1820.09 2.76189 -3.71603 0
M  V30 10638 H 1817.25 4.797 -7.24003 0
M  V30 10639 H 1816.98 3.69856 -5.84513 0
M  V30 10640 H 1817.85 6.10356 -5.41441 0
M  V30 10641 P 1821.81 7.20834 -5.23717 0
M  V30 10642 O 1822.03 8.66104 -5.38572 0
M  V30 10643 O 1822.6 6.33544 -6.1349 0
M  V30 10644 O 1822.06 6.7751 -3.72168 0
M  V30 10645 C 1821.12 7.20825 -2.7076 0
M  V30 10646 C 1821.85 7.45864 -1.40599 0
M  V30 10647 O 1822.06 6.17651 -0.734225 0
M  V30 10648 C 1823.25 8.05808 -1.51899 0
M  V30 10649 O 1823.64 8.74358 -0.335205 0
M  V30 10650 C 1824.13 6.83093 -1.70294 0
M  V30 10651 C 1823.42 5.79992 -0.836974 0
M  V30 10652 N 1823.47 4.41864 -1.38293 0
M  V30 10653 H 1820.63 8.13644 -3.0377 0
M  V30 10654 H 1820.36 6.42788 -2.55485 0
M  V30 10655 H 1821.23 8.12039 -0.792769 0
M  V30 10656 P 1825.19 8.91 -1.84776e-11 0
M  V30 10657 O 1825.41 10.1746 0.733838 0
M  V30 10658 O 1825.98 8.73346 -1.23964 0
M  V30 10659 O 1825.44 7.66872 0.971405 0
M  V30 10660 C 1824.5 7.42405 2.04668 0
M  V30 10661 C 1825.23 6.86059 3.24661 0
M  V30 10662 O 1825.44 5.42934 3.03695 0
M  V30 10663 C 1826.63 7.41287 3.50796 0
M  V30 10664 O 1827.02 7.27073 4.86816 0
M  V30 10665 C 1827.51 6.5273 2.63741 0
M  V30 10666 C 1826.8 5.1842 2.73198 0
M  V30 10667 N 1826.85 4.38762 1.4784 0
M  V30 10668 C 1826.77 4.83651 0.183876 0
M  V30 10669 N 1826.84 3.88759 -0.699393 0
M  V30 10670 C 1826.99 2.7404 0.0575568 0
M  V30 10671 C 1827.12 1.37902 -0.293928 0
M  V30 10672 N 1827.13 0.938021 -1.54797 0
M  V30 10673 N 1827.24 0.491817 0.70549 0
M  V30 10674 C 1827.23 0.931735 1.95979 0
M  V30 10675 N 1827.11 2.16017 2.41481 0
M  V30 10676 C 1826.99 3.02547 1.39121 0
M  V30 10677 H 1824.01 8.36899 2.3252 0
M  V30 10678 H 1823.74 6.70391 1.71179 0
M  V30 10679 H 1824.61 7.03638 4.13219 0
M  V30 10680 H 1827.26 4.59931 3.54016 0
M  V30 10681 H 1827.54 6.88995 1.59871 0
M  V30 10682 H 1828.53 6.4684 3.0373 0
M  V30 10683 H 1826.7 8.47002 3.20749 0
M  V30 10684 H 1826.66 5.8885 -0.0765548 0
M  V30 10685 H 1827.04 1.60276 -2.32875 0
M  V30 10686 H 1827.23 -0.0699355 -1.73859 0
M  V30 10687 H 1827.34 0.165507 2.71897 0
M  V30 10688 P 1828.57 7.20834 5.23717 0
M  V30 10689 O 1828.79 7.7993 6.57351 0
M  V30 10690 O 1829.36 7.79328 4.13004 0
M  V30 10691 O 1828.82 5.63315 5.29344 0
M  V30 10692 C 1827.88 4.80193 6.01798 0
M  V30 10693 C 1828.61 3.64202 6.65911 0
M  V30 10694 O 1828.82 2.60694 5.64732 0
M  V30 10695 C 1830.01 3.93473 7.1943 0
M  V30 10696 O 1830.4 3.02071 8.21205 0
M  V30 10697 C 1830.89 3.73047 5.97036 0
M  V30 10698 C 1830.18 2.58828 5.25741 0
M  V30 10699 N 1830.23 2.6801 3.77422 0
M  V30 10700 C 1830.38 1.50443 3.07133 0
M  V30 10701 O 1830.47 0.419406 3.61576 0
M  V30 10702 N 1830.42 1.6403 1.69677 0
M  V30 10703 C 1830.33 2.81206 0.986255 0
M  V30 10704 O 1830.38 2.80892 -0.249754 0
M  V30 10705 C 1830.18 3.99158 1.80325 0
M  V30 10706 C 1830.07 5.29309 1.06921 0
M  V30 10707 C 1830.13 3.89779 3.1476 0
M  V30 10708 H 1827.39 5.40332 6.79951 0
M  V30 10709 H 1827.12 4.41549 5.32301 0
M  V30 10710 H 1827.99 3.26331 7.47797 0
M  V30 10711 H 1830.64 1.6395 5.56554 0
M  V30 10712 H 1830.92 4.63439 5.3432 0
M  V30 10713 H 1831.91 3.44728 6.25838 0
M  V30 10714 H 1830.08 4.96652 7.57263 0
M  V30 10715 H 1830.01 4.80159 3.74441 0
M  V30 10716 H 1831.04 5.81459 1.09608 0
M  V30 10717 H 1829.3 5.9187 1.54487 0
M  V30 10718 H 1829.79 5.10095 0.0220288 0
M  V30 10719 H 1830.53 0.798962 1.16664 0
M  V30 10720 P 1831.95 2.75334 8.47391 0
M  V30 10721 O 1832.17 2.44571 9.90142 0
M  V30 10722 O 1832.74 3.87688 7.92115 0
M  V30 10723 O 1832.2 1.4459 7.59357 0
M  V30 10724 C 1831.26 0.347608 7.69215 0
M  V30 10725 C 1831.99 -0.96767 7.52806 0
M  V30 10726 O 1832.2 -1.21036 6.1011 0
M  V30 10727 C 1833.39 -1.04544 8.13308 0
M  V30 10728 O 1833.78 -2.38311 8.41922 0
M  V30 10729 C 1834.27 -0.491279 7.02284 0
M  V30 10730 C 1833.56 -0.996264 5.77469 0
M  V30 10731 N 1833.61 -0.0501916 4.62973 0
M  V30 10732 H 1830.77 0.374722 8.67691 0
M  V30 10733 H 1830.5 0.443485 6.90277 0
M  V30 10734 H 1831.37 -1.75537 7.96793 0
M  V30 10735 P 1835.33 -2.75334 8.47391 0
M  V30 10736 O 1835.55 -3.84128 9.44797 0
M  V30 10737 O 1836.12 -1.51947 8.68712 0
M  V30 10738 O 1835.58 -3.29363 6.99321 0
M  V30 10739 C 1834.64 -4.24011 6.4274 0
M  V30 10740 C 1835.37 -5.20775 5.52155 0
M  V30 10741 O 1835.58 -4.56534 4.22446 0
M  V30 10742 C 1836.77 -5.62629 5.96531 0
M  V30 10743 O 1837.16 -6.87667 5.41053 0
M  V30 10744 C 1837.65 -4.52537 5.39283 0
M  V30 10745 C 1836.94 -4.20027 4.08623 0
M  V30 10746 N 1836.99 -2.76189 3.71603 0
M  V30 10747 H 1834.15 -4.797 7.24003 0
M  V30 10748 H 1833.88 -3.69856 5.84513 0
M  V30 10749 H 1834.75 -6.10356 5.41441 0
M  V30 10750 P 1838.71 -7.20834 5.23717 0
M  V30 10751 O 1838.93 -8.66104 5.38572 0
M  V30 10752 O 1839.5 -6.33544 6.1349 0
M  V30 10753 O 1838.96 -6.7751 3.72168 0
M  V30 10754 C 1838.02 -7.20825 2.7076 0
M  V30 10755 C 1838.75 -7.45864 1.40599 0
M  V30 10756 O 1838.96 -6.17651 0.734225 0
M  V30 10757 C 1840.15 -8.05808 1.51899 0
M  V30 10758 O 1840.54 -8.74358 0.335205 0
M  V30 10759 C 1841.03 -6.83093 1.70294 0
M  V30 10760 C 1840.32 -5.79992 0.836974 0
M  V30 10761 N 1840.37 -4.41864 1.38293 0
M  V30 10762 H 1837.53 -8.13644 3.0377 0
M  V30 10763 H 1837.26 -6.42788 2.55485 0
M  V30 10764 H 1838.13 -8.12039 0.792769 0
M  V30 10765 P 1842.09 -8.91 1.95866e-11 0
M  V30 10766 O 1842.31 -10.1726 -0.733694 0
M  V30 10767 O 1842.88 -8.73148 1.23936 0
M  V30 10768 O 1842.34 -7.66872 -0.971405 0
M  V30 10769 C 1841.4 -7.42309 -2.04641 0
M  V30 10770 C 1842.13 -6.86059 -3.24661 0
M  V30 10771 O 1842.34 -5.42847 -3.03646 0
M  V30 10772 C 1843.53 -7.41196 -3.50753 0
M  V30 10773 O 1843.92 -7.27073 -4.86816 0
M  V30 10774 C 1844.41 -6.5273 -2.63741 0
M  V30 10775 C 1843.7 -5.1842 -2.73198 0
M  V30 10776 N 1843.75 -4.38762 -1.4784 0
M  V30 10777 H 1840.91 -8.36803 -2.32493 0
M  V30 10778 H 1840.64 -6.70197 -1.71129 0
M  V30 10779 H 1841.51 -7.03551 -4.13168 0
M  V30 10780 P 1845.47 -7.20834 -5.23717 0
M  V30 10781 O 1845.69 -7.79853 -6.57286 0
M  V30 10782 O 1846.26 -7.79239 -4.12957 0
M  V30 10783 O 1845.72 -5.63315 -5.29344 0
M  V30 10784 C 1844.78 -4.80255 -6.01876 0
M  V30 10785 C 1845.51 -3.64202 -6.65911 0
M  V30 10786 O 1845.72 -2.60694 -5.64732 0
M  V30 10787 C 1846.91 -3.93473 -7.1943 0
M  V30 10788 O 1847.3 -3.02071 -8.21205 0
M  V30 10789 C 1847.79 -3.73047 -5.97036 0
M  V30 10790 C 1847.08 -2.58828 -5.25741 0
M  V30 10791 N 1847.13 -2.68068 -3.77503 0
M  V30 10792 H 1844.29 -5.40332 -6.79951 0
M  V30 10793 H 1844.02 -4.41613 -5.32378 0
M  V30 10794 H 1844.89 -3.26331 -7.47797 0
M  V30 10795 P 1848.85 -2.75334 -8.47391 0
M  V30 10796 O 1849.07 -2.44571 -9.90142 0
M  V30 10797 O 1849.64 -3.87688 -7.92115 0
M  V30 10798 O 1849.1 -1.4459 -7.59357 0
M  V30 10799 C 1848.16 -0.347608 -7.69215 0
M  V30 10800 C 1848.89 0.96767 -7.52806 0
M  V30 10801 O 1849.1 1.21036 -6.1011 0
M  V30 10802 C 1850.29 1.04544 -8.13308 0
M  V30 10803 O 1850.68 2.38311 -8.41922 0
M  V30 10804 C 1851.17 0.491279 -7.02284 0
M  V30 10805 C 1850.46 0.996264 -5.77469 0
M  V30 10806 N 1850.51 0.0501916 -4.62973 0
M  V30 10807 H 1847.67 -0.374722 -8.67691 0
M  V30 10808 H 1847.4 -0.443485 -6.90277 0
M  V30 10809 H 1848.27 1.75537 -7.96793 0
M  V30 10810 P 1852.23 2.75334 -8.47391 0
M  V30 10811 O 1852.45 3.84128 -9.44797 0
M  V30 10812 O 1853.02 1.51947 -8.68712 0
M  V30 10813 O 1852.48 3.29363 -6.99321 0
M  V30 10814 C 1851.54 4.24011 -6.4274 0
M  V30 10815 C 1852.27 5.20775 -5.52155 0
M  V30 10816 O 1852.48 4.56534 -4.22446 0
M  V30 10817 C 1853.67 5.62629 -5.96531 0
M  V30 10818 O 1854.06 6.87667 -5.41053 0
M  V30 10819 C 1854.55 4.52537 -5.39283 0
M  V30 10820 C 1853.84 4.20027 -4.08623 0
M  V30 10821 N 1853.89 2.76189 -3.71603 0
M  V30 10822 H 1851.05 4.797 -7.24003 0
M  V30 10823 H 1850.78 3.69856 -5.84513 0
M  V30 10824 H 1851.65 6.10356 -5.41441 0
M  V30 10825 P 1855.61 7.20834 -5.23717 0
M  V30 10826 O 1855.83 8.66104 -5.38572 0
M  V30 10827 O 1856.4 6.33544 -6.1349 0
M  V30 10828 O 1855.86 6.7751 -3.72168 0
M  V30 10829 C 1854.92 7.20825 -2.7076 0
M  V30 10830 C 1855.65 7.45864 -1.40599 0
M  V30 10831 O 1855.86 6.17651 -0.734225 0
M  V30 10832 C 1857.05 8.05808 -1.51899 0
M  V30 10833 O 1857.44 8.74358 -0.335205 0
M  V30 10834 C 1857.93 6.83093 -1.70294 0
M  V30 10835 C 1857.22 5.79992 -0.836974 0
M  V30 10836 N 1857.27 4.41864 -1.38293 0
M  V30 10837 H 1854.43 8.13644 -3.0377 0
M  V30 10838 H 1854.16 6.42788 -2.55485 0
M  V30 10839 H 1855.03 8.12039 -0.792769 0
M  V30 10840 P 1858.99 8.91 -2.06956e-11 0
M  V30 10841 O 1859.21 10.1746 0.733838 0
M  V30 10842 O 1859.78 8.73346 -1.23964 0
M  V30 10843 O 1859.24 7.66872 0.971405 0
M  V30 10844 C 1858.3 7.42405 2.04668 0
M  V30 10845 C 1859.03 6.86059 3.24661 0
M  V30 10846 O 1859.24 5.42934 3.03695 0
M  V30 10847 C 1860.43 7.41287 3.50796 0
M  V30 10848 O 1860.82 7.27073 4.86816 0
M  V30 10849 C 1861.31 6.5273 2.63741 0
M  V30 10850 C 1860.6 5.1842 2.73198 0
M  V30 10851 N 1860.65 4.38762 1.4784 0
M  V30 10852 C 1860.57 4.83651 0.183876 0
M  V30 10853 N 1860.64 3.88759 -0.699393 0
M  V30 10854 C 1860.79 2.7404 0.0575568 0
M  V30 10855 C 1860.92 1.37902 -0.293928 0
M  V30 10856 N 1860.93 0.938021 -1.54797 0
M  V30 10857 N 1861.04 0.491817 0.70549 0
M  V30 10858 C 1861.03 0.931735 1.95979 0
M  V30 10859 N 1860.91 2.16017 2.41481 0
M  V30 10860 C 1860.79 3.02547 1.39121 0
M  V30 10861 H 1857.81 8.36899 2.3252 0
M  V30 10862 H 1857.54 6.70391 1.71179 0
M  V30 10863 H 1858.41 7.03638 4.13219 0
M  V30 10864 H 1861.06 4.59931 3.54016 0
M  V30 10865 H 1861.34 6.88995 1.59871 0
M  V30 10866 H 1862.33 6.4684 3.0373 0
M  V30 10867 H 1860.5 8.47002 3.20749 0
M  V30 10868 H 1860.46 5.8885 -0.0765548 0
M  V30 10869 H 1860.84 1.60276 -2.32875 0
M  V30 10870 H 1861.03 -0.0699355 -1.73859 0
M  V30 10871 H 1861.14 0.165507 2.71897 0
M  V30 10872 P 1862.37 7.20834 5.23717 0
M  V30 10873 O 1862.59 7.79853 6.57286 0
M  V30 10874 O 1863.16 7.79239 4.12957 0
M  V30 10875 O 1862.62 5.63315 5.29344 0
M  V30 10876 C 1861.68 4.80255 6.01876 0
M  V30 10877 C 1862.41 3.64202 6.65911 0
M  V30 10878 O 1862.62 2.60694 5.64732 0
M  V30 10879 C 1863.81 3.93473 7.1943 0
M  V30 10880 O 1864.2 3.02071 8.21205 0
M  V30 10881 C 1864.69 3.73047 5.97036 0
M  V30 10882 C 1863.98 2.58828 5.25741 0
M  V30 10883 N 1864.03 2.68068 3.77503 0
M  V30 10884 H 1861.19 5.40332 6.79951 0
M  V30 10885 H 1860.92 4.41613 5.32378 0
M  V30 10886 H 1861.79 3.26331 7.47797 0
M  V30 10887 P 1865.75 2.75334 8.47391 0
M  V30 10888 O 1865.97 2.44571 9.90142 0
M  V30 10889 O 1866.54 3.87688 7.92115 0
M  V30 10890 O 1866 1.4459 7.59357 0
M  V30 10891 C 1865.06 0.347608 7.69215 0
M  V30 10892 C 1865.79 -0.96767 7.52806 0
M  V30 10893 O 1866 -1.21036 6.1011 0
M  V30 10894 C 1867.19 -1.04544 8.13308 0
M  V30 10895 O 1867.58 -2.38311 8.41922 0
M  V30 10896 C 1868.07 -0.491279 7.02284 0
M  V30 10897 C 1867.36 -0.996264 5.77469 0
M  V30 10898 N 1867.41 -0.0501916 4.62973 0
M  V30 10899 C 1867.33 1.32786 4.63244 0
M  V30 10900 N 1867.41 1.86957 3.44545 0
M  V30 10901 C 1867.55 0.780241 2.58481 0
M  V30 10902 C 1867.68 0.738536 1.17757 0
M  V30 10903 O 1867.7 1.66794 0.372349 0
M  V30 10904 N 1867.8 -0.58337 0.711393 0
M  V30 10905 C 1867.8 -1.70816 1.51017 0
M  V30 10906 N 1867.93 -2.87826 0.880757 0
M  V30 10907 N 1867.67 -1.67126 2.8339 0
M  V30 10908 C 1867.55 -0.401421 3.30572 0
M  V30 10909 H 1864.57 0.374722 8.67691 0
M  V30 10910 H 1864.3 0.443485 6.90277 0
M  V30 10911 H 1865.17 -1.75537 7.96793 0
M  V30 10912 H 1867.82 -1.95076 5.46529 0
M  V30 10913 H 1868.1 0.608565 7.04577 0
M  V30 10914 H 1869.09 -0.889672 7.08939 0
M  V30 10915 H 1867.26 -0.43308 9.04564 0
M  V30 10916 H 1867.21 1.91249 5.54442 0
M  V30 10917 H 1867.89 -0.718054 -0.275244 0
M  V30 10918 H 1867.93 -3.75721 1.41832 0
M  V30 10919 H 1868.03 -2.90436 -0.145468 0
M  V30 10920 P 1869.13 -2.75334 8.47391 0
M  V30 10921 O 1869.35 -3.84166 9.4489 0
M  V30 10922 O 1869.92 -1.51964 8.6881 0
M  V30 10923 O 1869.38 -3.29363 6.99321 0
M  V30 10924 C 1868.44 -4.23956 6.42656 0
M  V30 10925 C 1869.17 -5.20775 5.52155 0
M  V30 10926 O 1869.38 -4.56534 4.22446 0
M  V30 10927 C 1870.57 -5.62629 5.96531 0
M  V30 10928 O 1870.96 -6.87667 5.41053 0
M  V30 10929 C 1871.45 -4.52537 5.39283 0
M  V30 10930 C 1870.74 -4.20027 4.08623 0
M  V30 10931 N 1870.79 -2.7613 3.71522 0
M  V30 10932 C 1870.94 -2.45612 2.37989 0
M  V30 10933 O 1871.03 -3.30919 1.51621 0
M  V30 10934 N 1870.98 -1.10684 2.08435 0
M  V30 10935 C 1870.89 -0.0690084 2.9792 0
M  V30 10936 O 1870.94 1.10553 2.59426 0
M  V30 10937 C 1870.74 -0.481522 4.35345 0
M  V30 10938 C 1870.63 0.618778 5.36443 0
M  V30 10939 C 1870.69 -1.78906 4.67968 0
M  V30 10940 H 1867.95 -4.797 7.24003 0
M  V30 10941 H 1867.68 -3.69802 5.84429 0
M  V30 10942 H 1868.55 -6.10356 5.41441 0
M  V30 10943 H 1871.2 -4.78651 3.27911 0
M  V30 10944 H 1871.48 -3.64957 6.05871 0
M  V30 10945 H 1872.47 -4.8868 5.2125 0
M  V30 10946 H 1870.64 -5.66726 7.06352 0
M  V30 10947 H 1870.57 -2.07737 5.72367 0
M  V30 10948 H 1871.6 0.754375 5.86871 0
M  V30 10949 H 1869.86 0.359721 6.10641 0
M  V30 10950 H 1870.35 1.55533 4.8581 0
M  V30 10951 H 1871.08 -0.862651 1.12037 0
M  V30 10952 P 1872.51 -7.20834 5.23717 0
M  V30 10953 O 1872.73 -8.66104 5.38572 0
M  V30 10954 O 1873.3 -6.33544 6.1349 0
M  V30 10955 O 1872.76 -6.7751 3.72168 0
M  V30 10956 C 1871.82 -7.20825 2.7076 0
M  V30 10957 C 1872.55 -7.45864 1.40599 0
M  V30 10958 O 1872.76 -6.17651 0.734225 0
M  V30 10959 C 1873.95 -8.05808 1.51899 0
M  V30 10960 O 1874.34 -8.74358 0.335205 0
M  V30 10961 C 1874.83 -6.83093 1.70294 0
M  V30 10962 C 1874.12 -5.79992 0.836974 0
M  V30 10963 N 1874.17 -4.41864 1.38293 0
M  V30 10964 H 1871.33 -8.13644 3.0377 0
M  V30 10965 H 1871.06 -6.42788 2.55485 0
M  V30 10966 H 1871.93 -8.12039 0.792769 0
M  V30 10967 P 1875.89 -8.91 2.18046e-11 0
M  V30 10968 O 1876.11 -10.1726 -0.733694 0
M  V30 10969 O 1876.68 -8.73148 1.23936 0
M  V30 10970 O 1876.14 -7.66872 -0.971405 0
M  V30 10971 C 1875.2 -7.42309 -2.04641 0
M  V30 10972 C 1875.93 -6.86059 -3.24661 0
M  V30 10973 O 1876.14 -5.42847 -3.03646 0
M  V30 10974 C 1877.33 -7.41196 -3.50753 0
M  V30 10975 O 1877.72 -7.27073 -4.86816 0
M  V30 10976 C 1878.21 -6.5273 -2.63741 0
M  V30 10977 C 1877.5 -5.1842 -2.73198 0
M  V30 10978 N 1877.55 -4.38762 -1.4784 0
M  V30 10979 H 1874.71 -8.36803 -2.32493 0
M  V30 10980 H 1874.44 -6.70197 -1.71129 0
M  V30 10981 H 1875.31 -7.03551 -4.13168 0
M  V30 10982 P 1879.27 -7.20834 -5.23717 0
M  V30 10983 O 1879.49 -7.79853 -6.57286 0
M  V30 10984 O 1880.06 -7.79239 -4.12957 0
M  V30 10985 O 1879.52 -5.63315 -5.29344 0
M  V30 10986 C 1878.58 -4.80255 -6.01876 0
M  V30 10987 C 1879.31 -3.64202 -6.65911 0
M  V30 10988 O 1879.52 -2.60694 -5.64732 0
M  V30 10989 C 1880.71 -3.93473 -7.1943 0
M  V30 10990 O 1881.1 -3.02071 -8.21205 0
M  V30 10991 C 1881.59 -3.73047 -5.97036 0
M  V30 10992 C 1880.88 -2.58828 -5.25741 0
M  V30 10993 N 1880.93 -2.68068 -3.77503 0
M  V30 10994 H 1878.09 -5.40332 -6.79951 0
M  V30 10995 H 1877.82 -4.41613 -5.32378 0
M  V30 10996 H 1878.69 -3.26331 -7.47797 0
M  V30 10997 P 1882.65 -2.75334 -8.47391 0
M  V30 10998 O 1882.87 -2.44571 -9.90142 0
M  V30 10999 O 1883.44 -3.87688 -7.92115 0
M  V30 11000 O 1882.9 -1.4459 -7.59357 0
M  V30 11001 C 1881.96 -0.347608 -7.69215 0
M  V30 11002 C 1882.69 0.96767 -7.52806 0
M  V30 11003 O 1882.9 1.21036 -6.1011 0
M  V30 11004 C 1884.09 1.04544 -8.13308 0
M  V30 11005 O 1884.48 2.38311 -8.41922 0
M  V30 11006 C 1884.97 0.491279 -7.02284 0
M  V30 11007 C 1884.26 0.996264 -5.77469 0
M  V30 11008 N 1884.31 0.0501916 -4.62973 0
M  V30 11009 H 1881.47 -0.374722 -8.67691 0
M  V30 11010 H 1881.2 -0.443485 -6.90277 0
M  V30 11011 H 1882.07 1.75537 -7.96793 0
M  V30 11012 P 1886.03 2.75334 -8.47391 0
M  V30 11013 O 1886.25 3.84166 -9.4489 0
M  V30 11014 O 1886.82 1.51964 -8.6881 0
M  V30 11015 O 1886.28 3.29363 -6.99321 0
M  V30 11016 C 1885.34 4.23956 -6.42656 0
M  V30 11017 C 1886.07 5.20775 -5.52155 0
M  V30 11018 O 1886.28 4.56534 -4.22446 0
M  V30 11019 C 1887.47 5.62629 -5.96531 0
M  V30 11020 O 1887.86 6.87667 -5.41053 0
M  V30 11021 C 1888.35 4.52537 -5.39283 0
M  V30 11022 C 1887.64 4.20027 -4.08623 0
M  V30 11023 N 1887.69 2.7613 -3.71522 0
M  V30 11024 C 1887.84 2.45612 -2.37989 0
M  V30 11025 O 1887.93 3.30919 -1.51621 0
M  V30 11026 N 1887.88 1.10684 -2.08435 0
M  V30 11027 C 1887.79 0.0690084 -2.9792 0
M  V30 11028 C 1887.64 0.481522 -4.35345 0
M  V30 11029 C 1887.59 1.78906 -4.67968 0
M  V30 11030 H 1884.85 4.797 -7.24003 0
M  V30 11031 H 1884.58 3.69802 -5.84429 0
M  V30 11032 H 1885.45 6.10356 -5.41441 0
M  V30 11033 H 1888.1 4.78651 -3.27911 0
M  V30 11034 H 1888.38 3.64957 -6.05871 0
M  V30 11035 H 1889.37 4.8868 -5.2125 0
M  V30 11036 H 1887.54 5.66726 -7.06352 0
M  V30 11037 H 1887.47 2.07737 -5.72367 0
M  V30 11038 P 1889.41 7.20834 -5.23717 0
M  V30 11039 O 1889.63 8.66104 -5.38572 0
M  V30 11040 O 1890.2 6.33544 -6.1349 0
M  V30 11041 O 1889.66 6.7751 -3.72168 0
M  V30 11042 C 1888.72 7.20825 -2.7076 0
M  V30 11043 C 1889.45 7.45864 -1.40599 0
M  V30 11044 O 1889.66 6.17651 -0.734225 0
M  V30 11045 C 1890.85 8.05808 -1.51899 0
M  V30 11046 O 1891.24 8.74358 -0.335205 0
M  V30 11047 C 1891.73 6.83093 -1.70294 0
M  V30 11048 C 1891.02 5.79992 -0.836974 0
M  V30 11049 N 1891.07 4.41864 -1.38293 0
M  V30 11050 H 1888.23 8.13644 -3.0377 0
M  V30 11051 H 1887.96 6.42788 -2.55485 0
M  V30 11052 H 1888.83 8.12039 -0.792769 0
M  V30 11053 P 1892.79 8.91 -2.29136e-11 0
M  V30 11054 O 1893.01 10.1726 0.733694 0
M  V30 11055 O 1893.58 8.73148 -1.23936 0
M  V30 11056 O 1893.04 7.66872 0.971405 0
M  V30 11057 C 1892.1 7.42309 2.04641 0
M  V30 11058 C 1892.83 6.86059 3.24661 0
M  V30 11059 O 1893.04 5.42847 3.03646 0
M  V30 11060 C 1894.23 7.41196 3.50753 0
M  V30 11061 O 1894.62 7.27073 4.86816 0
M  V30 11062 C 1895.11 6.5273 2.63741 0
M  V30 11063 C 1894.4 5.1842 2.73198 0
M  V30 11064 N 1894.45 4.38762 1.4784 0
M  V30 11065 H 1891.61 8.36803 2.32493 0
M  V30 11066 H 1891.34 6.70197 1.71129 0
M  V30 11067 H 1892.21 7.03551 4.13168 0
M  V30 11068 P 1896.17 7.20834 5.23717 0
M  V30 11069 O 1896.39 7.79853 6.57286 0
M  V30 11070 O 1896.96 7.79239 4.12957 0
M  V30 11071 O 1896.42 5.63315 5.29344 0
M  V30 11072 C 1895.48 4.80255 6.01876 0
M  V30 11073 C 1896.21 3.64202 6.65911 0
M  V30 11074 O 1896.42 2.60694 5.64732 0
M  V30 11075 C 1897.61 3.93473 7.1943 0
M  V30 11076 O 1898 3.02071 8.21205 0
M  V30 11077 C 1898.49 3.73047 5.97036 0
M  V30 11078 C 1897.78 2.58828 5.25741 0
M  V30 11079 N 1897.83 2.68068 3.77503 0
M  V30 11080 H 1894.99 5.40332 6.79951 0
M  V30 11081 H 1894.72 4.41613 5.32378 0
M  V30 11082 H 1895.59 3.26331 7.47797 0
M  V30 11083 P 1899.55 2.75334 8.47391 0
M  V30 11084 O 1899.77 2.44571 9.90142 0
M  V30 11085 O 1900.34 3.87688 7.92115 0
M  V30 11086 O 1899.8 1.4459 7.59357 0
M  V30 11087 C 1898.86 0.347608 7.69215 0
M  V30 11088 C 1899.59 -0.96767 7.52806 0
M  V30 11089 O 1899.8 -1.21036 6.1011 0
M  V30 11090 C 1900.99 -1.04544 8.13308 0
M  V30 11091 O 1901.38 -2.38311 8.41922 0
M  V30 11092 C 1901.87 -0.491279 7.02284 0
M  V30 11093 C 1901.16 -0.996264 5.77469 0
M  V30 11094 N 1901.21 -0.0501916 4.62973 0
M  V30 11095 C 1901.13 1.32786 4.63244 0
M  V30 11096 N 1901.21 1.86957 3.44545 0
M  V30 11097 C 1901.35 0.780241 2.58481 0
M  V30 11098 C 1901.48 0.738536 1.17757 0
M  V30 11099 N 1901.6 -0.58337 0.711393 0
M  V30 11100 C 1901.6 -1.70816 1.51017 0
M  V30 11101 N 1901.73 -2.87826 0.880757 0
M  V30 11102 N 1901.47 -1.67126 2.8339 0
M  V30 11103 C 1901.35 -0.401421 3.30572 0
M  V30 11104 H 1898.37 0.374722 8.67691 0
M  V30 11105 H 1898.1 0.443485 6.90277 0
M  V30 11106 H 1898.97 -1.75537 7.96793 0
M  V30 11107 P 1902.93 -2.75334 8.47391 0
M  V30 11108 O 1903.15 -3.84128 9.44797 0
M  V30 11109 O 1903.72 -1.51947 8.68712 0
M  V30 11110 O 1903.18 -3.29363 6.99321 0
M  V30 11111 C 1902.24 -4.24011 6.4274 0
M  V30 11112 C 1902.97 -5.20775 5.52155 0
M  V30 11113 O 1903.18 -4.56534 4.22446 0
M  V30 11114 C 1904.37 -5.62629 5.96531 0
M  V30 11115 O 1904.76 -6.87667 5.41053 0
M  V30 11116 C 1905.25 -4.52537 5.39283 0
M  V30 11117 C 1904.54 -4.20027 4.08623 0
M  V30 11118 N 1904.59 -2.76189 3.71603 0
M  V30 11119 H 1901.75 -4.797 7.24003 0
M  V30 11120 H 1901.48 -3.69856 5.84513 0
M  V30 11121 H 1902.35 -6.10356 5.41441 0
M  V30 11122 P 1906.31 -7.20834 5.23717 0
M  V30 11123 O 1906.53 -8.66104 5.38572 0
M  V30 11124 O 1907.1 -6.33544 6.1349 0
M  V30 11125 O 1906.56 -6.7751 3.72168 0
M  V30 11126 C 1905.62 -7.20825 2.7076 0
M  V30 11127 C 1906.35 -7.45864 1.40599 0
M  V30 11128 O 1906.56 -6.17651 0.734225 0
M  V30 11129 C 1907.75 -8.05808 1.51899 0
M  V30 11130 O 1908.14 -8.74358 0.335205 0
M  V30 11131 C 1908.63 -6.83093 1.70294 0
M  V30 11132 C 1907.92 -5.79992 0.836974 0
M  V30 11133 N 1907.97 -4.41864 1.38293 0
M  V30 11134 H 1905.13 -8.13644 3.0377 0
M  V30 11135 H 1904.86 -6.42788 2.55485 0
M  V30 11136 H 1905.73 -8.12039 0.792769 0
M  V30 11137 P 1909.69 -8.91 2.40226e-11 0
M  V30 11138 O 1909.91 -10.1726 -0.733694 0
M  V30 11139 O 1910.48 -8.73148 1.23936 0
M  V30 11140 O 1909.94 -7.66872 -0.971405 0
M  V30 11141 C 1909 -7.42309 -2.04641 0
M  V30 11142 C 1909.73 -6.86059 -3.24661 0
M  V30 11143 O 1909.94 -5.42847 -3.03646 0
M  V30 11144 C 1911.13 -7.41196 -3.50753 0
M  V30 11145 O 1911.52 -7.27073 -4.86816 0
M  V30 11146 C 1912.01 -6.5273 -2.63741 0
M  V30 11147 C 1911.3 -5.1842 -2.73198 0
M  V30 11148 N 1911.35 -4.38762 -1.4784 0
M  V30 11149 H 1908.51 -8.36803 -2.32493 0
M  V30 11150 H 1908.24 -6.70197 -1.71129 0
M  V30 11151 H 1909.11 -7.03551 -4.13168 0
M  V30 11152 P 1913.07 -7.20834 -5.23717 0
M  V30 11153 O 1913.29 -7.80006 -6.57415 0
M  V30 11154 O 1913.86 -7.79416 -4.13051 0
M  V30 11155 O 1913.32 -5.63315 -5.29344 0
M  V30 11156 C 1912.38 -4.80318 -6.01954 0
M  V30 11157 C 1913.11 -3.64202 -6.65911 0
M  V30 11158 O 1913.32 -2.60736 -5.64823 0
M  V30 11159 C 1914.51 -3.93521 -7.19518 0
M  V30 11160 O 1914.9 -3.02071 -8.21205 0
M  V30 11161 C 1915.39 -3.73047 -5.97036 0
M  V30 11162 C 1914.68 -2.58828 -5.25741 0
M  V30 11163 N 1914.73 -2.68068 -3.77503 0
M  V30 11164 C 1914.65 -3.80474 -2.99159 0
M  V30 11165 N 1914.72 -3.55622 -1.71925 0
M  V30 11166 C 1914.87 -2.1832 -1.65733 0
M  V30 11167 C 1915 -1.28842 -0.572777 0
M  V30 11168 N 1915.01 -1.66875 0.70098 0
M  V30 11169 N 1915.12 0.016788 -0.859836 0
M  V30 11170 C 1915.11 0.398145 -2.13316 0
M  V30 11171 N 1914.99 -0.328224 -3.22333 0
M  V30 11172 C 1914.87 -1.62992 -2.90383 0
M  V30 11173 H 1911.89 -5.40394 -6.8003 0
M  V30 11174 H 1911.62 -4.41741 -5.32532 0
M  V30 11175 H 1912.49 -3.26371 -7.47889 0
M  V30 11176 H 1915.14 -1.64007 -5.56746 0
M  V30 11177 H 1915.42 -4.63439 -5.3432 0
M  V30 11178 H 1916.41 -3.44776 -6.25925 0
M  V30 11179 H 1914.58 -4.96707 -7.57347 0
M  V30 11180 H 1914.54 -4.8089 -3.39924 0
M  V30 11181 H 1914.92 -2.66547 0.941919 0
M  V30 11182 H 1915.11 -0.965341 1.44766 0
M  V30 11183 H 1915.22 1.46427 -2.29697 0
M  V30 11184 P 1916.45 -2.75334 -8.47391 0
M  V30 11185 O 1916.67 -2.44619 -9.90336 0
M  V30 11186 O 1917.24 -3.87776 -7.92294 0
M  V30 11187 O 1916.7 -1.4459 -7.59357 0
M  V30 11188 C 1915.76 -0.347653 -7.69315 0
M  V30 11189 C 1916.49 0.96767 -7.52806 0
M  V30 11190 O 1916.7 1.21055 -6.10208 0
M  V30 11191 C 1917.89 1.04557 -8.13408 0
M  V30 11192 O 1918.28 2.38311 -8.41922 0
M  V30 11193 C 1918.77 0.491279 -7.02284 0
M  V30 11194 C 1918.06 0.996264 -5.77469 0
M  V30 11195 N 1918.11 0.0501916 -4.62973 0
M  V30 11196 H 1915.27 -0.374765 -8.67791 0
M  V30 11197 H 1915 -0.443613 -6.90476 0
M  V30 11198 H 1915.87 1.75559 -7.96891 0
M  V30 11199 H 1918.52 1.94563 -5.46818 0
M  V30 11200 H 1918.8 -0.608651 -7.04676 0
M  V30 11201 H 1919.79 0.889796 -7.09039 0
M  V30 11202 H 1917.96 0.433128 -9.04664 0
M  V30 11203 P 1919.83 2.75334 -8.47391 0
M  V30 11204 O 1920.05 3.84166 -9.4489 0
M  V30 11205 O 1920.62 1.51964 -8.6881 0
M  V30 11206 O 1920.08 3.29363 -6.99321 0
M  V30 11207 C 1919.14 4.24011 -6.4274 0
M  V30 11208 C 1919.87 5.20775 -5.52155 0
M  V30 11209 O 1920.08 4.56534 -4.22446 0
M  V30 11210 C 1921.27 5.62629 -5.96531 0
M  V30 11211 O 1921.66 6.87667 -5.41053 0
M  V30 11212 C 1922.15 4.52537 -5.39283 0
M  V30 11213 C 1921.44 4.20027 -4.08623 0
M  V30 11214 N 1921.49 2.7613 -3.71522 0
M  V30 11215 C 1921.64 2.43702 -2.37085 0
M  V30 11216 O 1921.73 3.3531 -1.54039 0
M  V30 11217 N 1921.69 0.951103 -2.10621 0
M  V30 11218 C 1921.59 0.165021 -2.93537 0
M  V30 11219 N 1921.64 -1.09723 -2.53253 0
M  V30 11220 C 1921.44 0.469576 -4.32458 0
M  V30 11221 C 1921.39 1.78658 -4.65921 0
M  V30 11222 H 1918.65 4.79645 -7.23919 0
M  V30 11223 H 1918.38 3.69802 -5.84429 0
M  V30 11224 H 1919.25 6.10431 -5.41508 0
M  V30 11225 H 1921.9 4.78733 -3.27967 0
M  V30 11226 H 1922.18 3.64957 -6.05871 0
M  V30 11227 H 1923.17 4.8868 -5.2125 0
M  V30 11228 H 1921.34 5.66726 -7.06352 0
M  V30 11229 H 1921.27 2.06987 -5.70299 0
M  V30 11230 H 1921.37 -0.314383 -5.07728 0
M  V30 11231 H 1921.76 -1.31363 -1.5319 0
M  V30 11232 H 1921.56 -1.85978 -3.21943 0
M  V30 11233 P 1923.21 7.20834 -5.23717 0
M  V30 11234 O 1923.43 8.66104 -5.38572 0
M  V30 11235 O 1924 6.33544 -6.1349 0
M  V30 11236 O 1923.46 6.7751 -3.72168 0
M  V30 11237 C 1922.52 7.20825 -2.7076 0
M  V30 11238 C 1923.25 7.45864 -1.40599 0
M  V30 11239 O 1923.46 6.17651 -0.734225 0
M  V30 11240 C 1924.65 8.05808 -1.51899 0
M  V30 11241 O 1925.04 8.74358 -0.335205 0
M  V30 11242 C 1925.53 6.83093 -1.70294 0
M  V30 11243 C 1924.82 5.79992 -0.836974 0
M  V30 11244 N 1924.87 4.41864 -1.38293 0
M  V30 11245 H 1922.03 8.13644 -3.0377 0
M  V30 11246 H 1921.76 6.42788 -2.55485 0
M  V30 11247 H 1922.63 8.12039 -0.792769 0
M  V30 11248 P 1926.59 8.91 -2.51316e-11 0
M  V30 11249 O 1926.81 10.1726 0.733694 0
M  V30 11250 O 1927.38 8.73148 -1.23936 0
M  V30 11251 O 1926.84 7.66872 0.971405 0
M  V30 11252 C 1925.9 7.42309 2.04641 0
M  V30 11253 C 1926.63 6.86059 3.24661 0
M  V30 11254 O 1926.84 5.42847 3.03646 0
M  V30 11255 C 1928.03 7.41196 3.50753 0
M  V30 11256 O 1928.42 7.27073 4.86816 0
M  V30 11257 C 1928.91 6.5273 2.63741 0
M  V30 11258 C 1928.2 5.1842 2.73198 0
M  V30 11259 N 1928.25 4.38762 1.4784 0
M  V30 11260 C 1928.17 4.81605 0.168631 0
M  V30 11261 N 1928.25 3.85454 -0.713363 0
M  V30 11262 C 1928.39 2.6994 0.0566958 0
M  V30 11263 C 1928.52 1.34815 -0.338502 0
M  V30 11264 N 1928.64 0.496304 0.77465 0
M  V30 11265 C 1928.64 0.908403 2.09122 0
M  V30 11266 N 1928.77 -0.0517805 3.00955 0
M  V30 11267 N 1928.51 2.17875 2.46519 0
M  V30 11268 C 1928.39 3.01988 1.4033 0
M  V30 11269 H 1925.41 8.36803 2.32493 0
M  V30 11270 H 1925.14 6.70197 1.71129 0
M  V30 11271 H 1926.01 7.03551 4.13168 0
M  V30 11272 P 1929.97 7.20834 5.23717 0
M  V30 11273 O 1930.19 7.79853 6.57286 0
M  V30 11274 O 1930.76 7.79239 4.12957 0
M  V30 11275 O 1930.22 5.63315 5.29344 0
M  V30 11276 C 1929.28 4.80255 6.01876 0
M  V30 11277 C 1930.01 3.64202 6.65911 0
M  V30 11278 O 1930.22 2.60694 5.64732 0
M  V30 11279 C 1931.41 3.93473 7.1943 0
M  V30 11280 O 1931.8 3.02071 8.21205 0
M  V30 11281 C 1932.29 3.73047 5.97036 0
M  V30 11282 C 1931.58 2.58828 5.25741 0
M  V30 11283 N 1931.63 2.68068 3.77503 0
M  V30 11284 H 1928.79 5.40332 6.79951 0
M  V30 11285 H 1928.52 4.41613 5.32378 0
M  V30 11286 H 1929.39 3.26331 7.47797 0
M  V30 11287 P 1933.35 2.75334 8.47391 0
M  V30 11288 O 1933.57 2.44571 9.90142 0
M  V30 11289 O 1934.14 3.87688 7.92115 0
M  V30 11290 O 1933.6 1.4459 7.59357 0
M  V30 11291 C 1932.66 0.347608 7.69215 0
M  V30 11292 C 1933.39 -0.96767 7.52806 0
M  V30 11293 O 1933.6 -1.21036 6.1011 0
M  V30 11294 C 1934.79 -1.04544 8.13308 0
M  V30 11295 O 1935.18 -2.38311 8.41922 0
M  V30 11296 C 1935.67 -0.491279 7.02284 0
M  V30 11297 C 1934.96 -0.996264 5.77469 0
M  V30 11298 N 1935.01 -0.0501916 4.62973 0
M  V30 11299 C 1934.93 1.32786 4.63244 0
M  V30 11300 N 1935.01 1.86957 3.44545 0
M  V30 11301 C 1935.15 0.780241 2.58481 0
M  V30 11302 C 1935.28 0.738536 1.17757 0
M  V30 11303 N 1935.4 -0.58337 0.711393 0
M  V30 11304 C 1935.4 -1.70816 1.51017 0
M  V30 11305 N 1935.53 -2.87826 0.880757 0
M  V30 11306 N 1935.27 -1.67126 2.8339 0
M  V30 11307 C 1935.15 -0.401421 3.30572 0
M  V30 11308 H 1932.17 0.374722 8.67691 0
M  V30 11309 H 1931.9 0.443485 6.90277 0
M  V30 11310 H 1932.77 -1.75537 7.96793 0
M  V30 11311 P 1936.73 -2.75334 8.47391 0
M  V30 11312 O 1936.95 -3.84128 9.44797 0
M  V30 11313 O 1937.52 -1.51947 8.68712 0
M  V30 11314 O 1936.98 -3.29363 6.99321 0
M  V30 11315 C 1936.04 -4.24011 6.4274 0
M  V30 11316 C 1936.77 -5.20775 5.52155 0
M  V30 11317 O 1936.98 -4.56534 4.22446 0
M  V30 11318 C 1938.17 -5.62629 5.96531 0
M  V30 11319 O 1938.56 -6.87667 5.41053 0
M  V30 11320 C 1939.05 -4.52537 5.39283 0
M  V30 11321 C 1938.34 -4.20027 4.08623 0
M  V30 11322 N 1938.39 -2.76189 3.71603 0
M  V30 11323 H 1935.55 -4.797 7.24003 0
M  V30 11324 H 1935.28 -3.69856 5.84513 0
M  V30 11325 H 1936.15 -6.10356 5.41441 0
M  V30 11326 P 1940.11 -7.20834 5.23717 0
M  V30 11327 O 1940.33 -8.66104 5.38572 0
M  V30 11328 O 1940.9 -6.33544 6.1349 0
M  V30 11329 O 1940.36 -6.7751 3.72168 0
M  V30 11330 C 1939.42 -7.20825 2.7076 0
M  V30 11331 C 1940.15 -7.45864 1.40599 0
M  V30 11332 O 1940.36 -6.17651 0.734225 0
M  V30 11333 C 1941.55 -8.05808 1.51899 0
M  V30 11334 O 1941.94 -8.74358 0.335205 0
M  V30 11335 C 1942.43 -6.83093 1.70294 0
M  V30 11336 C 1941.72 -5.79992 0.836974 0
M  V30 11337 N 1941.77 -4.41864 1.38293 0
M  V30 11338 H 1938.93 -8.13644 3.0377 0
M  V30 11339 H 1938.66 -6.42788 2.55485 0
M  V30 11340 H 1939.53 -8.12039 0.792769 0
M  V30 11341 P 1943.49 -8.91 2.62406e-11 0
M  V30 11342 O 1943.71 -10.1726 -0.733694 0
M  V30 11343 O 1944.28 -8.73148 1.23936 0
M  V30 11344 O 1943.74 -7.66872 -0.971405 0
M  V30 11345 C 1942.8 -7.42309 -2.04641 0
M  V30 11346 C 1943.53 -6.86059 -3.24661 0
M  V30 11347 O 1943.74 -5.42847 -3.03646 0
M  V30 11348 C 1944.93 -7.41196 -3.50753 0
M  V30 11349 O 1945.32 -7.27073 -4.86816 0
M  V30 11350 C 1945.81 -6.5273 -2.63741 0
M  V30 11351 C 1945.1 -5.1842 -2.73198 0
M  V30 11352 N 1945.15 -4.38762 -1.4784 0
M  V30 11353 H 1942.31 -8.36803 -2.32493 0
M  V30 11354 H 1942.04 -6.70197 -1.71129 0
M  V30 11355 H 1942.91 -7.03551 -4.13168 0
M  V30 11356 P 1946.87 -7.20834 -5.23717 0
M  V30 11357 O 1947.09 -7.79853 -6.57286 0
M  V30 11358 O 1947.66 -7.79239 -4.12957 0
M  V30 11359 O 1947.12 -5.63315 -5.29344 0
M  V30 11360 C 1946.18 -4.80255 -6.01876 0
M  V30 11361 C 1946.91 -3.64202 -6.65911 0
M  V30 11362 O 1947.12 -2.60694 -5.64732 0
M  V30 11363 C 1948.31 -3.93473 -7.1943 0
M  V30 11364 O 1948.7 -3.02071 -8.21205 0
M  V30 11365 C 1949.19 -3.73047 -5.97036 0
M  V30 11366 C 1948.48 -2.58828 -5.25741 0
M  V30 11367 N 1948.53 -2.68068 -3.77503 0
M  V30 11368 H 1945.69 -5.40332 -6.79951 0
M  V30 11369 H 1945.42 -4.41613 -5.32378 0
M  V30 11370 H 1946.29 -3.26331 -7.47797 0
M  V30 11371 P 1950.25 -2.75334 -8.47391 0
M  V30 11372 O 1950.47 -2.44571 -9.90142 0
M  V30 11373 O 1951.04 -3.87688 -7.92115 0
M  V30 11374 O 1950.5 -1.4459 -7.59357 0
M  V30 11375 C 1949.56 -0.347608 -7.69215 0
M  V30 11376 C 1950.29 0.96767 -7.52806 0
M  V30 11377 O 1950.5 1.21036 -6.1011 0
M  V30 11378 C 1951.69 1.04544 -8.13308 0
M  V30 11379 O 1952.08 2.38311 -8.41922 0
M  V30 11380 C 1952.57 0.491279 -7.02284 0
M  V30 11381 C 1951.86 0.996264 -5.77469 0
M  V30 11382 N 1951.91 0.0501916 -4.62973 0
M  V30 11383 H 1949.07 -0.374722 -8.67691 0
M  V30 11384 H 1948.8 -0.443485 -6.90277 0
M  V30 11385 H 1949.67 1.75537 -7.96793 0
M  V30 11386 P 1953.63 2.75334 -8.47391 0
M  V30 11387 O 1953.85 3.84128 -9.44797 0
M  V30 11388 O 1954.42 1.51947 -8.68712 0
M  V30 11389 O 1953.88 3.29363 -6.99321 0
M  V30 11390 C 1952.94 4.24011 -6.4274 0
M  V30 11391 C 1953.67 5.20775 -5.52155 0
M  V30 11392 O 1953.88 4.56534 -4.22446 0
M  V30 11393 C 1955.07 5.62629 -5.96531 0
M  V30 11394 O 1955.46 6.87667 -5.41053 0
M  V30 11395 C 1955.95 4.52537 -5.39283 0
M  V30 11396 C 1955.24 4.20027 -4.08623 0
M  V30 11397 N 1955.29 2.76189 -3.71603 0
M  V30 11398 H 1952.45 4.797 -7.24003 0
M  V30 11399 H 1952.18 3.69856 -5.84513 0
M  V30 11400 H 1953.05 6.10356 -5.41441 0
M  V30 11401 P 1957.01 7.20834 -5.23717 0
M  V30 11402 O 1957.23 8.66189 -5.38625 0
M  V30 11403 O 1957.8 6.33615 -6.1356 0
M  V30 11404 O 1957.26 6.7751 -3.72168 0
M  V30 11405 C 1956.32 7.20732 -2.70725 0
M  V30 11406 C 1957.05 7.45864 -1.40599 0
M  V30 11407 O 1957.26 6.17651 -0.734225 0
M  V30 11408 C 1958.45 8.05808 -1.51899 0
M  V30 11409 O 1958.84 8.74358 -0.335205 0
M  V30 11410 C 1959.33 6.83093 -1.70294 0
M  V30 11411 C 1958.62 5.79992 -0.836974 0
M  V30 11412 N 1958.67 4.41769 -1.38263 0
M  V30 11413 C 1958.82 3.38591 -0.481702 0
M  V30 11414 O 1958.91 3.56839 0.718452 0
M  V30 11415 N 1958.86 2.1206 -1.03569 0
M  V30 11416 C 1958.77 1.80696 -2.36966 0
M  V30 11417 C 1958.62 2.94845 -3.23898 0
M  V30 11418 C 1958.57 4.19803 -2.73435 0
M  V30 11419 H 1955.83 8.13644 -3.0377 0
M  V30 11420 H 1955.56 6.42695 -2.55448 0
M  V30 11421 H 1956.43 8.12039 -0.792769 0
M  V30 11422 H 1959.08 5.79978 0.160587 0
M  V30 11423 H 1959.36 6.51379 -2.75643 0
M  V30 11424 H 1960.35 7.01734 -1.34462 0
M  V30 11425 H 1958.52 8.73674 -2.38337 0
M  V30 11426 H 1958.45 5.04492 -3.4095 0
M  V30 11427 P 1960.39 8.91 -2.73496e-11 0
M  V30 11428 O 1960.61 10.1726 0.733694 0
M  V30 11429 O 1961.18 8.73148 -1.23936 0
M  V30 11430 O 1960.64 7.66872 0.971405 0
M  V30 11431 C 1959.7 7.42309 2.04641 0
M  V30 11432 C 1960.43 6.86059 3.24661 0
M  V30 11433 O 1960.64 5.42847 3.03646 0
M  V30 11434 C 1961.83 7.41196 3.50753 0
M  V30 11435 O 1962.22 7.27073 4.86816 0
M  V30 11436 C 1962.71 6.5273 2.63741 0
M  V30 11437 C 1962 5.1842 2.73198 0
M  V30 11438 N 1962.05 4.38762 1.4784 0
M  V30 11439 H 1959.21 8.36803 2.32493 0
M  V30 11440 H 1958.94 6.70197 1.71129 0
M  V30 11441 H 1959.81 7.03551 4.13168 0
M  V30 11442 P 1963.77 7.20834 5.23717 0
M  V30 11443 O 1963.99 7.79853 6.57286 0
M  V30 11444 O 1964.56 7.79239 4.12957 0
M  V30 11445 O 1964.02 5.63315 5.29344 0
M  V30 11446 C 1963.08 4.80255 6.01876 0
M  V30 11447 C 1963.81 3.64202 6.65911 0
M  V30 11448 O 1964.02 2.60694 5.64732 0
M  V30 11449 C 1965.21 3.93473 7.1943 0
M  V30 11450 O 1965.6 3.02071 8.21205 0
M  V30 11451 C 1966.09 3.73047 5.97036 0
M  V30 11452 C 1965.38 2.58828 5.25741 0
M  V30 11453 N 1965.43 2.68068 3.77503 0
M  V30 11454 H 1962.59 5.40332 6.79951 0
M  V30 11455 H 1962.32 4.41613 5.32378 0
M  V30 11456 H 1963.19 3.26331 7.47797 0
M  V30 11457 P 1967.15 2.75334 8.47391 0
M  V30 11458 O 1967.37 2.44595 9.90239 0
M  V30 11459 O 1967.94 3.87732 7.92204 0
M  V30 11460 O 1967.4 1.4459 7.59357 0
M  V30 11461 C 1966.46 0.347563 7.69115 0
M  V30 11462 C 1967.19 -0.96767 7.52806 0
M  V30 11463 O 1967.4 -1.21036 6.1011 0
M  V30 11464 C 1968.59 -1.04544 8.13308 0
M  V30 11465 O 1968.98 -2.38311 8.41922 0
M  V30 11466 C 1969.47 -0.491279 7.02284 0
M  V30 11467 C 1968.76 -0.996264 5.77469 0
M  V30 11468 N 1968.81 -0.0501808 4.62873 0
M  V30 11469 C 1968.96 -0.588177 3.36904 0
M  V30 11470 O 1969.05 -1.78598 3.17173 0
M  V30 11471 N 1969 0.329694 2.33686 0
M  V30 11472 C 1968.91 1.6953 2.45079 0
M  V30 11473 O 1968.96 2.41926 1.44899 0
M  V30 11474 C 1968.76 2.16933 3.80505 0
M  V30 11475 C 1968.65 3.65373 3.97621 0
M  V30 11476 C 1968.71 1.30326 4.83752 0
M  V30 11477 H 1965.97 0.374722 8.67691 0
M  V30 11478 H 1965.7 0.443421 6.90177 0
M  V30 11479 H 1966.57 -1.75537 7.96793 0
M  V30 11480 H 1969.22 -1.94496 5.46629 0
M  V30 11481 H 1969.5 0.608651 7.04676 0
M  V30 11482 H 1970.49 -0.889672 7.08939 0
M  V30 11483 H 1968.66 -0.43308 9.04564 0
M  V30 11484 H 1968.59 1.68366 5.8516 0
M  V30 11485 H 1969.62 4.05985 4.30448 0
M  V30 11486 H 1967.88 3.88028 4.72875 0
M  V30 11487 H 1968.37 4.11381 3.01609 0
M  V30 11488 H 1969.1 -0.0393617 1.41345 0
M  V30 11489 P 1970.53 -2.75334 8.47391 0
M  V30 11490 O 1970.75 -3.84128 9.44797 0
M  V30 11491 O 1971.32 -1.51947 8.68712 0
M  V30 11492 O 1970.78 -3.29363 6.99321 0
M  V30 11493 C 1969.84 -4.24011 6.4274 0
M  V30 11494 C 1970.57 -5.20775 5.52155 0
M  V30 11495 O 1970.78 -4.56534 4.22446 0
M  V30 11496 C 1971.97 -5.62629 5.96531 0
M  V30 11497 O 1972.36 -6.87667 5.41053 0
M  V30 11498 C 1972.85 -4.52537 5.39283 0
M  V30 11499 C 1972.14 -4.20027 4.08623 0
M  V30 11500 N 1972.19 -2.76189 3.71603 0
M  V30 11501 H 1969.35 -4.797 7.24003 0
M  V30 11502 H 1969.08 -3.69856 5.84513 0
M  V30 11503 H 1969.95 -6.10356 5.41441 0
M  V30 11504 P 1973.91 -7.20834 5.23717 0
M  V30 11505 O 1974.13 -8.66104 5.38572 0
M  V30 11506 O 1974.7 -6.33544 6.1349 0
M  V30 11507 O 1974.16 -6.7751 3.72168 0
M  V30 11508 C 1973.22 -7.20825 2.7076 0
M  V30 11509 C 1973.95 -7.45864 1.40599 0
M  V30 11510 O 1974.16 -6.17651 0.734225 0
M  V30 11511 C 1975.35 -8.05808 1.51899 0
M  V30 11512 O 1975.74 -8.74358 0.335205 0
M  V30 11513 C 1976.23 -6.83093 1.70294 0
M  V30 11514 C 1975.52 -5.79992 0.836974 0
M  V30 11515 N 1975.57 -4.41864 1.38293 0
M  V30 11516 C 1975.49 -3.99538 2.69438 0
M  V30 11517 N 1975.57 -2.69909 2.84277 0
M  V30 11518 C 1975.71 -2.21719 1.5408 0
M  V30 11519 C 1975.84 -0.891712 1.06628 0
M  V30 11520 N 1975.96 -0.856846 -0.334985 0
M  V30 11521 C 1975.96 -1.9641 -1.15789 0
M  V30 11522 N 1976.09 -1.72708 -2.46522 0
M  V30 11523 N 1975.83 -3.21165 -0.713741 0
M  V30 11524 C 1975.71 -3.26797 0.639748 0
M  V30 11525 H 1972.73 -8.13644 3.0377 0
M  V30 11526 H 1972.46 -6.42788 2.55485 0
M  V30 11527 H 1973.33 -8.12039 0.792769 0
M  V30 11528 P 1977.29 -8.91 2.84586e-11 0
M  V30 11529 O 1977.51 -10.1726 -0.733694 0
M  V30 11530 O 1978.08 -8.73148 1.23936 0
M  V30 11531 O 1977.54 -7.66872 -0.971405 0
M  V30 11532 C 1976.6 -7.42309 -2.04641 0
M  V30 11533 C 1977.33 -6.86059 -3.24661 0
M  V30 11534 O 1977.54 -5.42847 -3.03646 0
M  V30 11535 C 1978.73 -7.41196 -3.50753 0
M  V30 11536 O 1979.12 -7.27073 -4.86816 0
M  V30 11537 C 1979.61 -6.5273 -2.63741 0
M  V30 11538 C 1978.9 -5.1842 -2.73198 0
M  V30 11539 N 1978.95 -4.38762 -1.4784 0
M  V30 11540 H 1976.11 -8.36803 -2.32493 0
M  V30 11541 H 1975.84 -6.70197 -1.71129 0
M  V30 11542 H 1976.71 -7.03551 -4.13168 0
M  V30 11543 P 1980.67 -7.20834 -5.23717 0
M  V30 11544 O 1980.89 -7.79853 -6.57286 0
M  V30 11545 O 1981.46 -7.79239 -4.12957 0
M  V30 11546 O 1980.92 -5.63315 -5.29344 0
M  V30 11547 C 1979.98 -4.80255 -6.01876 0
M  V30 11548 C 1980.71 -3.64202 -6.65911 0
M  V30 11549 O 1980.92 -2.60694 -5.64732 0
M  V30 11550 C 1982.11 -3.93473 -7.1943 0
M  V30 11551 O 1982.5 -3.02071 -8.21205 0
M  V30 11552 C 1982.99 -3.73047 -5.97036 0
M  V30 11553 C 1982.28 -2.58828 -5.25741 0
M  V30 11554 N 1982.33 -2.68068 -3.77503 0
M  V30 11555 C 1982.25 -3.79715 -2.96723 0
M  V30 11556 N 1982.33 -3.5377 -1.68852 0
M  V30 11557 C 1982.47 -2.15054 -1.63254 0
M  V30 11558 C 1982.6 -1.28964 -0.518571 0
M  V30 11559 N 1982.72 0.0538097 -0.918425 0
M  V30 11560 C 1982.72 0.494275 -2.22578 0
M  V30 11561 N 1982.85 1.81086 -2.40434 0
M  V30 11562 N 1982.59 -0.313645 -3.27502 0
M  V30 11563 C 1982.47 -1.61829 -2.91033 0
M  V30 11564 H 1979.49 -5.40332 -6.79951 0
M  V30 11565 H 1979.22 -4.41613 -5.32378 0
M  V30 11566 H 1980.09 -3.26331 -7.47797 0
M  V30 11567 P 1984.05 -2.75334 -8.47391 0
M  V30 11568 O 1984.27 -2.44571 -9.90142 0
M  V30 11569 O 1984.84 -3.87688 -7.92115 0
M  V30 11570 O 1984.3 -1.4459 -7.59357 0
M  V30 11571 C 1983.36 -0.347608 -7.69215 0
M  V30 11572 C 1984.09 0.96767 -7.52806 0
M  V30 11573 O 1984.3 1.21036 -6.1011 0
M  V30 11574 C 1985.49 1.04544 -8.13308 0
M  V30 11575 O 1985.88 2.38311 -8.41922 0
M  V30 11576 C 1986.37 0.491279 -7.02284 0
M  V30 11577 C 1985.66 0.996264 -5.77469 0
M  V30 11578 N 1985.71 0.0501916 -4.62973 0
M  V30 11579 H 1982.87 -0.374722 -8.67691 0
M  V30 11580 H 1982.6 -0.443485 -6.90277 0
M  V30 11581 H 1983.47 1.75537 -7.96793 0
M  V30 11582 P 1987.43 2.75334 -8.47391 0
M  V30 11583 O 1987.65 3.84204 -9.44982 0
M  V30 11584 O 1988.22 1.51982 -8.68909 0
M  V30 11585 O 1987.68 3.29363 -6.99321 0
M  V30 11586 C 1986.74 4.24066 -6.42823 0
M  V30 11587 C 1987.47 5.20775 -5.52155 0
M  V30 11588 O 1987.68 4.56607 -4.22514 0
M  V30 11589 C 1988.87 5.62697 -5.96604 0
M  V30 11590 O 1989.26 6.87667 -5.41053 0
M  V30 11591 C 1989.75 4.52537 -5.39283 0
M  V30 11592 C 1989.04 4.20027 -4.08623 0
M  V30 11593 N 1989.09 2.76189 -3.71603 0
M  V30 11594 C 1989.01 1.66944 -4.54297 0
M  V30 11595 N 1989.08 0.536169 -3.91344 0
M  V30 11596 C 1989.23 0.901569 -2.58849 0
M  V30 11597 C 1989.36 0.146599 -1.40236 0
M  V30 11598 N 1989.37 -1.18234 -1.37046 0
M  V30 11599 N 1989.48 0.822941 -0.249738 0
M  V30 11600 C 1989.47 2.15179 -0.280525 0
M  V30 11601 N 1989.35 2.96414 -1.30822 0
M  V30 11602 C 1989.23 2.25804 -2.44748 0
M  V30 11603 H 1986.25 4.79756 -7.24086 0
M  V30 11604 H 1985.98 3.69963 -5.84682 0
M  V30 11605 H 1986.85 6.10431 -5.41508 0
M  V30 11606 H 1989.5 4.78816 -3.28024 0
M  V30 11607 H 1989.78 3.64957 -6.05871 0
M  V30 11608 H 1990.77 4.88748 -5.21323 0
M  V30 11609 H 1988.94 5.66789 -7.0643 0
M  V30 11610 H 1988.9 1.74684 -5.62396 0
M  V30 11611 H 1989.28 -1.71949 -2.24394 0
M  V30 11612 H 1989.47 -1.67511 -0.470742 0
M  V30 11613 H 1989.58 2.63704 0.6828 0
M  V30 11614 P 1990.81 7.20834 -5.23717 0
M  V30 11615 O 1991.03 8.66274 -5.38678 0
M  V30 11616 O 1991.6 6.33687 -6.13629 0
M  V30 11617 O 1991.06 6.7751 -3.72168 0
M  V30 11618 C 1990.12 7.20919 -2.70795 0
M  V30 11619 C 1990.85 7.45864 -1.40599 0
M  V30 11620 O 1991.06 6.17751 -0.734343 0
M  V30 11621 C 1992.25 8.05906 -1.51917 0
M  V30 11622 O 1992.64 8.74358 -0.335205 0
M  V30 11623 C 1993.13 6.83093 -1.70294 0
M  V30 11624 C 1992.42 5.79992 -0.836974 0
M  V30 11625 N 1992.47 4.41864 -1.38293 0
M  V30 11626 H 1989.63 8.13738 -3.03804 0
M  V30 11627 H 1989.36 6.42974 -2.55559 0
M  V30 11628 H 1990.23 8.12139 -0.792866 0
M  V30 11629 H 1992.88 5.80178 0.160643 0
M  V30 11630 H 1993.16 6.51379 -2.75643 0
M  V30 11631 H 1994.15 7.01832 -1.3448 0
M  V30 11632 H 1992.32 8.73771 -2.38364 0
M  V30 11633 P 1994.19 8.91 -2.95676e-11 0
M  V30 11634 O 1994.41 10.1746 0.733838 0
M  V30 11635 O 1994.98 8.73346 -1.23964 0
M  V30 11636 O 1994.44 7.66872 0.971405 0
M  V30 11637 C 1993.5 7.42405 2.04668 0
M  V30 11638 C 1994.23 6.86059 3.24661 0
M  V30 11639 O 1994.44 5.42934 3.03695 0
M  V30 11640 C 1995.63 7.41287 3.50796 0
M  V30 11641 O 1996.02 7.27073 4.86816 0
M  V30 11642 C 1996.51 6.5273 2.63741 0
M  V30 11643 C 1995.8 5.1842 2.73198 0
M  V30 11644 N 1995.85 4.38762 1.4784 0
M  V30 11645 C 1995.77 4.83651 0.183876 0
M  V30 11646 N 1995.84 3.88759 -0.699393 0
M  V30 11647 C 1995.99 2.7404 0.0575568 0
M  V30 11648 C 1996.12 1.37902 -0.293928 0
M  V30 11649 N 1996.13 0.938021 -1.54797 0
M  V30 11650 N 1996.24 0.491817 0.70549 0
M  V30 11651 C 1996.23 0.931735 1.95979 0
M  V30 11652 N 1996.11 2.16017 2.41481 0
M  V30 11653 C 1995.99 3.02547 1.39121 0
M  V30 11654 H 1993.01 8.36899 2.3252 0
M  V30 11655 H 1992.74 6.70391 1.71179 0
M  V30 11656 H 1993.61 7.03638 4.13219 0
M  V30 11657 H 1996.26 4.59931 3.54016 0
M  V30 11658 H 1996.54 6.88995 1.59871 0
M  V30 11659 H 1997.53 6.4684 3.0373 0
M  V30 11660 H 1995.7 8.47002 3.20749 0
M  V30 11661 H 1995.66 5.8885 -0.0765548 0
M  V30 11662 H 1996.04 1.60276 -2.32875 0
M  V30 11663 H 1996.23 -0.0699355 -1.73859 0
M  V30 11664 H 1996.34 0.165507 2.71897 0
M  V30 11665 P 1997.57 7.20834 5.23717 0
M  V30 11666 O 1997.79 7.79853 6.57286 0
M  V30 11667 O 1998.36 7.79239 4.12957 0
M  V30 11668 O 1997.82 5.63315 5.29344 0
M  V30 11669 C 1996.88 4.80255 6.01876 0
M  V30 11670 C 1997.61 3.64202 6.65911 0
M  V30 11671 O 1997.82 2.60694 5.64732 0
M  V30 11672 C 1999.01 3.93473 7.1943 0
M  V30 11673 O 1999.4 3.02071 8.21205 0
M  V30 11674 C 1999.89 3.73047 5.97036 0
M  V30 11675 C 1999.18 2.58828 5.25741 0
M  V30 11676 N 1999.23 2.68068 3.77503 0
M  V30 11677 H 1996.39 5.40332 6.79951 0
M  V30 11678 H 1996.12 4.41613 5.32378 0
M  V30 11679 H 1996.99 3.26331 7.47797 0
M  V30 11680 P 2000.95 2.75334 8.47391 0
M  V30 11681 O 2001.17 2.44619 9.90336 0
M  V30 11682 O 2001.74 3.87776 7.92294 0
M  V30 11683 O 2001.2 1.4459 7.59357 0
M  V30 11684 C 2000.26 0.347653 7.69315 0
M  V30 11685 C 2000.99 -0.96767 7.52806 0
M  V30 11686 O 2001.2 -1.21055 6.10208 0
M  V30 11687 C 2002.39 -1.04557 8.13408 0
M  V30 11688 O 2002.78 -2.38311 8.41922 0
M  V30 11689 C 2003.27 -0.491279 7.02284 0
M  V30 11690 C 2002.56 -0.996264 5.77469 0
M  V30 11691 N 2002.61 -0.0501916 4.62973 0
M  V30 11692 C 2002.53 1.31969 4.65661 0
M  V30 11693 N 2002.6 1.86649 3.48119 0
M  V30 11694 C 2002.75 0.792089 2.62406 0
M  V30 11695 C 2002.88 0.705684 1.2207 0
M  V30 11696 N 2002.89 1.76207 0.413762 0
M  V30 11697 N 2003 -0.518981 0.685754 0
M  V30 11698 C 2002.99 -1.57595 1.49174 0
M  V30 11699 N 2002.87 -1.62909 2.80066 0
M  V30 11700 C 2002.75 -0.388195 3.3073 0
M  V30 11701 H 1999.77 0.374765 8.67791 0
M  V30 11702 H 1999.5 0.443613 6.90476 0
M  V30 11703 H 2000.37 -1.75559 7.96891 0
M  V30 11704 H 2003.02 -1.94563 5.46818 0
M  V30 11705 H 2003.3 0.608651 7.04676 0
M  V30 11706 H 2004.29 -0.889796 7.09039 0
M  V30 11707 H 2002.46 -0.433128 9.04664 0
M  V30 11708 H 2002.42 1.89246 5.57664 0
M  V30 11709 H 2002.8 2.71005 0.804694 0
M  V30 11710 H 2002.99 1.63189 -0.603768 0
M  V30 11711 H 2003.1 -2.53475 0.997614 0
M  V30 11712 P 2004.33 -2.75334 8.47391 0
M  V30 11713 O 2004.55 -3.84204 9.44982 0
M  V30 11714 O 2005.12 -1.51982 8.68909 0
M  V30 11715 O 2004.58 -3.29363 6.99321 0
M  V30 11716 C 2003.64 -4.24066 6.42823 0
M  V30 11717 C 2004.37 -5.20775 5.52155 0
M  V30 11718 O 2004.58 -4.56607 4.22514 0
M  V30 11719 C 2005.77 -5.62697 5.96604 0
M  V30 11720 O 2006.16 -6.87667 5.41053 0
M  V30 11721 C 2006.65 -4.52537 5.39283 0
M  V30 11722 C 2005.94 -4.20027 4.08623 0
M  V30 11723 N 2005.99 -2.76189 3.71603 0
M  V30 11724 H 2003.15 -4.79756 7.24086 0
M  V30 11725 H 2002.88 -3.69963 5.84682 0
M  V30 11726 H 2003.75 -6.10431 5.41508 0
M  V30 11727 H 2006.4 -4.78816 3.28024 0
M  V30 11728 H 2006.68 -3.64957 6.05871 0
M  V30 11729 H 2007.67 -4.88748 5.21323 0
M  V30 11730 H 2005.84 -5.66789 7.0643 0
M  V30 11731 P 2007.71 -7.20834 5.23717 0
M  V30 11732 O 2007.93 -8.66274 5.38678 0
M  V30 11733 O 2008.5 -6.33687 6.13629 0
M  V30 11734 O 2007.96 -6.7751 3.72168 0
M  V30 11735 C 2007.02 -7.20919 2.70795 0
M  V30 11736 C 2007.75 -7.45864 1.40599 0
M  V30 11737 O 2007.96 -6.17751 0.734343 0
M  V30 11738 C 2009.15 -8.05906 1.51917 0
M  V30 11739 O 2009.54 -8.74358 0.335205 0
M  V30 11740 C 2010.03 -6.83093 1.70294 0
M  V30 11741 C 2009.32 -5.79992 0.836974 0
M  V30 11742 N 2009.37 -4.41864 1.38293 0
M  V30 11743 C 2009.29 -4.02089 2.69407 0
M  V30 11744 N 2009.36 -2.73403 2.85089 0
M  V30 11745 C 2009.51 -2.25086 1.5642 0
M  V30 11746 C 2009.64 -0.942887 1.04836 0
M  V30 11747 N 2009.65 0.150999 1.80369 0
M  V30 11748 N 2009.76 -0.812565 -0.28167 0
M  V30 11749 C 2009.75 -1.90572 -1.03784 0
M  V30 11750 N 2009.63 -3.167 -0.683905 0
M  V30 11751 C 2009.51 -3.26538 0.652815 0
M  V30 11752 H 2006.53 -8.13738 3.03804 0
M  V30 11753 H 2006.26 -6.42974 2.55559 0
M  V30 11754 H 2007.13 -8.12139 0.792866 0
M  V30 11755 H 2009.78 -5.80178 -0.160643 0
M  V30 11756 H 2010.06 -6.51379 2.75643 0
M  V30 11757 H 2011.05 -7.01832 1.3448 0
M  V30 11758 H 2009.22 -8.73771 2.38364 0
M  V30 11759 H 2009.18 -4.7189 3.52311 0
M  V30 11760 H 2009.56 0.0721434 2.82608 0
M  V30 11761 H 2009.75 1.0785 1.36544 0
M  V30 11762 H 2009.86 -1.73207 -2.10241 0
M  V30 11763 P 2011.09 -8.91 3.06766e-11 0
M  V30 11764 O 2011.31 -10.1726 -0.733694 0
M  V30 11765 O 2011.88 -8.73148 1.23936 0
M  V30 11766 O 2011.34 -7.66872 -0.971405 0
M  V30 11767 C 2010.4 -7.42309 -2.04641 0
M  V30 11768 C 2011.13 -6.86059 -3.24661 0
M  V30 11769 O 2011.34 -5.42847 -3.03646 0
M  V30 11770 C 2012.53 -7.41196 -3.50753 0
M  V30 11771 O 2012.92 -7.27073 -4.86816 0
M  V30 11772 C 2013.41 -6.5273 -2.63741 0
M  V30 11773 C 2012.7 -5.1842 -2.73198 0
M  V30 11774 N 2012.75 -4.38762 -1.4784 0
M  V30 11775 C 2012.67 -4.81605 -0.168631 0
M  V30 11776 N 2012.75 -3.85454 0.713363 0
M  V30 11777 C 2012.89 -2.6994 -0.0566958 0
M  V30 11778 C 2013.02 -1.34815 0.338502 0
M  V30 11779 O 2013.04 -0.869548 1.47125 0
M  V30 11780 N 2013.14 -0.496304 -0.77465 0
M  V30 11781 C 2013.14 -0.908403 -2.09122 0
M  V30 11782 N 2013.27 0.0517805 -3.00955 0
M  V30 11783 N 2013.01 -2.17875 -2.46519 0
M  V30 11784 C 2012.89 -3.01988 -1.4033 0
M  V30 11785 H 2009.91 -8.36803 -2.32493 0
M  V30 11786 H 2009.64 -6.70197 -1.71129 0
M  V30 11787 H 2010.51 -7.03551 -4.13168 0
M  V30 11788 H 2013.16 -4.59498 -3.54415 0
M  V30 11789 H 2013.44 -6.88898 -1.59848 0
M  V30 11790 H 2014.43 -6.46749 -3.03687 0
M  V30 11791 H 2012.6 -8.46908 -3.20714 0
M  V30 11792 H 2012.55 -5.86405 0.105564 0
M  V30 11793 H 2013.23 0.483664 -0.597855 0
M  V30 11794 H 2013.27 -0.187865 -4.0116 0
M  V30 11795 H 2013.37 1.03585 -2.71726 0
M  V30 11796 P 2014.47 -7.20834 -5.23717 0
M  V30 11797 O 2014.69 -7.79853 -6.57286 0
M  V30 11798 O 2015.26 -7.79239 -4.12957 0
M  V30 11799 O 2014.72 -5.63315 -5.29344 0
M  V30 11800 C 2013.78 -4.80255 -6.01876 0
M  V30 11801 C 2014.51 -3.64202 -6.65911 0
M  V30 11802 O 2014.72 -2.60694 -5.64732 0
M  V30 11803 C 2015.91 -3.93473 -7.1943 0
M  V30 11804 O 2016.3 -3.02071 -8.21205 0
M  V30 11805 C 2016.79 -3.73047 -5.97036 0
M  V30 11806 C 2016.08 -2.58828 -5.25741 0
M  V30 11807 N 2016.13 -2.68068 -3.77503 0
M  V30 11808 H 2013.29 -5.40332 -6.79951 0
M  V30 11809 H 2013.02 -4.41613 -5.32378 0
M  V30 11810 H 2013.89 -3.26331 -7.47797 0
M  V30 11811 P 2017.85 -2.75334 -8.47391 0
M  V30 11812 O 2018.07 -2.44571 -9.90142 0
M  V30 11813 O 2018.64 -3.87688 -7.92115 0
M  V30 11814 O 2018.1 -1.4459 -7.59357 0
M  V30 11815 C 2017.16 -0.347608 -7.69215 0
M  V30 11816 C 2017.89 0.96767 -7.52806 0
M  V30 11817 O 2018.1 1.21036 -6.1011 0
M  V30 11818 C 2019.29 1.04544 -8.13308 0
M  V30 11819 O 2019.68 2.38311 -8.41922 0
M  V30 11820 C 2020.17 0.491279 -7.02284 0
M  V30 11821 C 2019.46 0.996264 -5.77469 0
M  V30 11822 N 2019.51 0.0501916 -4.62973 0
M  V30 11823 H 2016.67 -0.374722 -8.67691 0
M  V30 11824 H 2016.4 -0.443485 -6.90277 0
M  V30 11825 H 2017.27 1.75537 -7.96793 0
M  V30 11826 P 2021.23 2.75334 -8.47391 0
M  V30 11827 O 2021.45 3.84128 -9.44797 0
M  V30 11828 O 2022.02 1.51947 -8.68712 0
M  V30 11829 O 2021.48 3.29363 -6.99321 0
M  V30 11830 C 2020.54 4.24011 -6.4274 0
M  V30 11831 C 2021.27 5.20775 -5.52155 0
M  V30 11832 O 2021.48 4.56534 -4.22446 0
M  V30 11833 C 2022.67 5.62629 -5.96531 0
M  V30 11834 O 2023.06 6.87667 -5.41053 0
M  V30 11835 C 2023.55 4.52537 -5.39283 0
M  V30 11836 C 2022.84 4.20027 -4.08623 0
M  V30 11837 N 2022.89 2.76189 -3.71603 0
M  V30 11838 H 2020.05 4.797 -7.24003 0
M  V30 11839 H 2019.78 3.69856 -5.84513 0
M  V30 11840 H 2020.65 6.10356 -5.41441 0
M  V30 11841 P 2024.61 7.20834 -5.23717 0
M  V30 11842 O 2024.83 8.66104 -5.38572 0
M  V30 11843 O 2025.4 6.33544 -6.1349 0
M  V30 11844 O 2024.86 6.7751 -3.72168 0
M  V30 11845 C 2023.92 7.20825 -2.7076 0
M  V30 11846 C 2024.65 7.45864 -1.40599 0
M  V30 11847 O 2024.86 6.17651 -0.734225 0
M  V30 11848 C 2026.05 8.05808 -1.51899 0
M  V30 11849 O 2026.44 8.74358 -0.335205 0
M  V30 11850 C 2026.93 6.83093 -1.70294 0
M  V30 11851 C 2026.22 5.79992 -0.836974 0
M  V30 11852 N 2026.27 4.41864 -1.38293 0
M  V30 11853 H 2023.43 8.13644 -3.0377 0
M  V30 11854 H 2023.16 6.42788 -2.55485 0
M  V30 11855 H 2024.03 8.12039 -0.792769 0
M  V30 11856 P 2027.99 8.91 -3.17856e-11 0
M  V30 11857 O 2028.21 10.1726 0.733694 0
M  V30 11858 O 2028.78 8.73148 -1.23936 0
M  V30 11859 O 2028.24 7.66872 0.971405 0
M  V30 11860 C 2027.3 7.42309 2.04641 0
M  V30 11861 C 2028.03 6.86059 3.24661 0
M  V30 11862 O 2028.24 5.42847 3.03646 0
M  V30 11863 C 2029.43 7.41196 3.50753 0
M  V30 11864 O 2029.82 7.27073 4.86816 0
M  V30 11865 C 2030.31 6.5273 2.63741 0
M  V30 11866 C 2029.6 5.1842 2.73198 0
M  V30 11867 N 2029.65 4.38762 1.4784 0
M  V30 11868 H 2026.81 8.36803 2.32493 0
M  V30 11869 H 2026.54 6.70197 1.71129 0
M  V30 11870 H 2027.41 7.03551 4.13168 0
M  V30 11871 H 2029.69 6.36132 5.14416 0
M  V30 11872 H 2033.71 -9.0732 -2.85239 0
M  V30 11873 O 2033.59 -8.67639 -2.00036 0
M  V30 11874 P 2032.15 -8.7635 -1.60911 0
M  V30 11875 O 2031.93 -10.1388 -1.11561 0
M  V30 11876 O 2031.36 -8.36503 -2.79617 0
M  V30 11877 O 2031.9 -7.71806 -0.42951 0
M  V30 11878 C 2032.84 -7.67148 0.673689 0
M  V30 11879 C 2032.11 -7.33374 1.95559 0
M  V30 11880 O 2031.9 -5.88721 2.00726 0
M  V30 11881 C 2030.71 -7.92526 2.10483 0
M  V30 11882 O 2030.32 -8.02971 3.47653 0
M  V30 11883 C 2029.83 -6.89602 1.41652 0
M  V30 11884 C 2030.54 -5.59201 1.75185 0
M  V30 11885 N 2030.49 -4.58235 0.662552 0
M  V30 11886 H 2033.33 -8.65116 0.777161 0
M  V30 11887 H 2033.6 -6.90173 0.474152 0
M  V30 11888 H 2032.73 -7.66548 2.79458 0
M  V30 11889 P 2028.77 -8.03563 3.84925 0
M  V30 11890 O 2028.55 -8.85821 5.0569 0
M  V30 11891 O 2027.98 -8.41101 2.65469 0
M  V30 11892 O 2028.52 -6.4965 4.18908 0
M  V30 11893 C 2029.46 -5.81037 5.05421 0
M  V30 11894 C 2028.73 -4.78366 5.89277 0
M  V30 11895 O 2028.52 -3.58302 5.08433 0
M  V30 11896 C 2027.33 -5.17448 6.36119 0
M  V30 11897 O 2026.94 -4.45271 7.53232 0
M  V30 11898 C 2026.45 -4.74639 5.19936 0
M  V30 11899 C 2027.16 -3.49432 4.70418 0
M  V30 11900 N 2027.11 -3.31776 3.22945 0
M  V30 11901 H 2029.95 -6.54213 5.71376 0
M  V30 11902 H 2030.22 -5.30492 4.44033 0
M  V30 11903 H 2029.35 -4.55889 6.76652 0
M  V30 11904 P 2025.39 -4.23843 7.83734 0
M  V30 11905 O 2025.17 -4.19407 9.29784 0
M  V30 11906 O 2024.6 -5.24426 7.09156 0
M  V30 11907 O 2025.14 -2.7935 7.20758 0
M  V30 11908 C 2026.08 -1.7299 7.50419 0
M  V30 11909 C 2025.35 -0.406376 7.57911 0
M  V30 11910 O 2025.14 0.0897726 6.21935 0
M  V30 11911 C 2023.95 -0.447224 8.1878 0
M  V30 11912 O 2023.56 0.825065 8.71101 0
M  V30 11913 C 2023.07 -0.783801 6.99623 0
M  V30 11914 C 2023.78 -0.0619192 5.85967 0
M  V30 11915 N 2023.73 -0.7859 4.56281 0
M  V30 11916 H 2026.57 -1.93423 8.4679 0
M  V30 11917 H 2026.84 -1.68181 6.71046 0
M  V30 11918 H 2025.97 0.289041 8.15388 0
M  V30 11919 P 2022.01 1.17771 8.83182 0
M  V30 11920 O 2021.79 2.07206 9.98732 0
M  V30 11921 O 2021.22 -0.0743816 8.81969 0
M  V30 11922 O 2021.76 1.97652 7.47304 0
M  V30 11923 C 2022.7 3.01133 7.08783 0
M  V30 11924 C 2021.97 4.12613 6.37049 0
M  V30 11925 O 2021.76 3.72827 4.97879 0
M  V30 11926 C 2020.57 4.45085 6.88694 0
M  V30 11927 O 2020.18 5.7877 6.5624 0
M  V30 11928 C 2019.69 3.47817 6.12078 0
M  V30 11929 C 2020.4 3.39414 4.77697 0
M  V30 11930 N 2020.35 2.04199 4.15538 0
M  V30 11931 H 2023.19 3.41248 7.98759 0
M  V30 11932 H 2023.46 2.57728 6.42 0
M  V30 11933 H 2022.59 5.02657 6.42673 0
M  V30 11934 H 2019.94 4.11708 4.08956 0
M  V30 11935 H 2019.66 2.49626 6.61679 0
M  V30 11936 H 2018.67 3.8662 6.00862 0
M  V30 11937 H 2020.5 4.29991 7.97006 0
M  V30 11938 P 2018.63 6.144 6.45285 0
M  V30 11939 O 2018.41 7.54673 6.86199 0
M  V30 11940 O 2017.84 5.12391 7.179 0
M  V30 11941 O 2018.38 5.99158 4.88404 0
M  V30 11942 C 2019.32 6.60234 3.96415 0
M  V30 11943 C 2018.59 7.08259 2.72856 0
M  V30 11944 O 2018.38 5.9427 1.83651 0
M  V30 11945 C 2017.19 7.64886 2.9555 0
M  V30 11946 O 2016.8 8.53963 1.90717 0
M  V30 11947 C 2016.31 6.4116 2.90739 0
M  V30 11948 C 2017.02 5.55375 1.86963 0
M  V30 11949 N 2016.97 4.09664 2.15742 0
M  V30 11950 H 2019.81 7.45574 4.45629 0
M  V30 11951 H 2020.08 5.86232 3.67314 0
M  V30 11952 H 2019.21 7.84412 2.24479 0
M  V30 11953 P 2015.25 8.7635 1.60911 0
M  V30 11954 O 2015.03 10.1388 1.11561 0
M  V30 11955 O 2014.46 8.36503 2.79617 0
M  V30 11956 O 2015 7.71906 0.429565 0
M  V30 11957 C 2015.94 7.67148 -0.673689 0
M  V30 11958 C 2015.21 7.33666 -1.94851 0
M  V30 11959 O 2015 5.88816 -2.00759 0
M  V30 11960 C 2013.81 7.92526 -2.10483 0
M  V30 11961 O 2013.42 8.03063 -3.47693 0
M  V30 11962 C 2012.93 6.89602 -1.41652 0
M  V30 11963 C 2013.64 5.59201 -1.75185 0
M  V30 11964 N 2013.59 4.58235 -0.662552 0
M  V30 11965 C 2013.44 3.24451 -1.01643 0
M  V30 11966 O 2013.35 2.94958 -2.21722 0
M  V30 11967 N 2013.39 2.30408 0.165238 0
M  V30 11968 C 2013.49 2.66048 1.25118 0
M  V30 11969 N 2013.44 1.70787 2.16813 0
M  V30 11970 C 2013.64 4.02732 1.64413 0
M  V30 11971 C 2013.69 4.9488 0.63991 0
M  V30 11972 H 2016.43 8.65017 -0.777072 0
M  V30 11973 H 2016.7 6.90173 -0.474152 0
M  V30 11974 H 2015.83 7.66642 -2.79492 0
M  V30 11975 H 2013.18 5.16254 -2.65229 0
M  V30 11976 H 2012.9 7.06532 -0.329431 0
M  V30 11977 H 2011.91 6.91023 -1.82047 0
M  V30 11978 H 2013.74 8.90873 -1.62657 0
M  V30 11979 H 2013.81 6.00104 0.892197 0
M  V30 11980 H 2013.71 4.31733 2.69229 0
M  V30 11981 H 2013.32 0.724835 1.8844 0
M  V30 11982 H 2013.52 1.94716 3.16734 0
M  V30 11983 P 2011.87 8.03563 -3.84925 0
M  V30 11984 O 2011.65 8.85821 -5.0569 0
M  V30 11985 O 2011.08 8.41101 -2.65469 0
M  V30 11986 O 2011.62 6.4965 -4.18908 0
M  V30 11987 C 2012.56 5.80886 -5.05289 0
M  V30 11988 C 2011.83 4.78366 -5.89277 0
M  V30 11989 O 2011.62 3.58302 -5.08433 0
M  V30 11990 C 2010.43 5.16748 -6.36559 0
M  V30 11991 O 2010.04 4.45271 -7.53232 0
M  V30 11992 C 2009.55 4.74572 -5.19863 0
M  V30 11993 C 2010.26 3.49373 -4.70338 0
M  V30 11994 N 2010.21 3.31704 -3.22876 0
M  V30 11995 C 2010.06 2.03326 -2.74871 0
M  V30 11996 O 2009.97 1.06486 -3.48076 0
M  V30 11997 N 2010.02 1.91838 -1.37456 0
M  V30 11998 C 2010.11 2.94295 -0.462035 0
M  V30 11999 O 2010.06 2.71763 0.752928 0
M  V30 12000 C 2010.26 4.25064 -1.05249 0
M  V30 12001 C 2010.37 5.39815 -0.095697 0
M  V30 12002 C 2010.31 4.40214 -2.39192 0
M  V30 12003 H 2013.05 6.54063 -5.71245 0
M  V30 12004 H 2013.32 5.30339 -4.43905 0
M  V30 12005 H 2012.45 4.55889 -6.76652 0
M  V30 12006 H 2009.8 2.6167 -5.17842 0
M  V30 12007 H 2009.52 5.52155 -4.41878 0
M  V30 12008 H 2008.53 4.51918 -5.53297 0
M  V30 12009 H 2010.36 6.25055 -6.55162 0
M  V30 12010 H 2010.43 5.39798 -2.81523 0
M  V30 12011 H 2009.4 5.91593 -0.0279582 0
M  V30 12012 H 2011.14 6.10038 -0.450573 0
M  V30 12013 H 2010.65 5.02007 0.89937 0
M  V30 12014 H 2009.91 0.995326 -1.00435 0
M  V30 12015 P 2008.49 4.23843 -7.83734 0
M  V30 12016 O 2008.27 4.19407 -9.29784 0
M  V30 12017 O 2007.7 5.24426 -7.09156 0
M  V30 12018 O 2008.24 2.7935 -7.20758 0
M  V30 12019 C 2009.18 1.7299 -7.50419 0
M  V30 12020 C 2008.45 0.406376 -7.57911 0
M  V30 12021 O 2008.24 -0.0897726 -6.21935 0
M  V30 12022 C 2007.05 0.447224 -8.1878 0
M  V30 12023 O 2006.66 -0.825065 -8.71101 0
M  V30 12024 C 2006.17 0.783801 -6.99623 0
M  V30 12025 C 2006.88 0.0619192 -5.85967 0
M  V30 12026 N 2006.83 0.7859 -4.56281 0
M  V30 12027 H 2009.67 1.93423 -8.4679 0
M  V30 12028 H 2009.94 1.68181 -6.71046 0
M  V30 12029 H 2009.07 -0.289041 -8.15388 0
M  V30 12030 P 2005.11 -1.17771 -8.83182 0
M  V30 12031 O 2004.89 -2.07206 -9.98732 0
M  V30 12032 O 2004.32 0.0743816 -8.81969 0
M  V30 12033 O 2004.86 -1.97652 -7.47304 0
M  V30 12034 C 2005.8 -3.01055 -7.08599 0
M  V30 12035 C 2005.07 -4.12613 -6.37049 0
M  V30 12036 O 2004.86 -3.72827 -4.97879 0
M  V30 12037 C 2003.67 -4.45719 -6.88164 0
M  V30 12038 O 2003.28 -5.7877 -6.5624 0
M  V30 12039 C 2002.79 -3.47768 -6.11991 0
M  V30 12040 C 2003.5 -3.39356 -4.77615 0
M  V30 12041 N 2003.45 -2.04571 -4.15244 0
M  V30 12042 C 2003.3 -1.98587 -2.78314 0
M  V30 12043 O 2003.21 -2.98134 -2.08835 0
M  V30 12044 N 2003.26 -0.714467 -2.24925 0
M  V30 12045 C 2003.35 0.470001 -2.94169 0
M  V30 12046 O 2003.3 1.55587 -2.35195 0
M  V30 12047 C 2003.5 0.312541 -4.36783 0
M  V30 12048 C 2003.61 1.57711 -5.16352 0
M  V30 12049 C 2003.55 -0.914512 -4.92583 0
M  V30 12050 H 2006.29 -3.41169 -7.98575 0
M  V30 12051 H 2006.56 -2.58295 -6.41556 0
M  V30 12052 H 2005.69 -5.02657 -6.42673 0
M  V30 12053 H 2003.04 -4.11637 -4.08885 0
M  V30 12054 H 2002.76 -2.49626 -6.61679 0
M  V30 12055 H 2001.77 -3.86566 -6.00778 0
M  V30 12056 H 2003.6 -4.29943 -7.96918 0
M  V30 12057 H 2003.67 -1.00937 -6.00374 0
M  V30 12058 H 2002.64 1.80153 -5.63503 0
M  V30 12059 H 2004.38 1.4566 -5.94104 0
M  V30 12060 H 2003.89 2.40664 -4.49645 0
M  V30 12061 H 2003.15 -0.647622 -1.25697 0
M  V30 12062 P 2001.73 -6.144 -6.45285 0
M  V30 12063 O 2001.51 -7.54673 -6.86199 0
M  V30 12064 O 2000.94 -5.12391 -7.179 0
M  V30 12065 O 2001.48 -5.99158 -4.88404 0
M  V30 12066 C 2002.42 -6.60234 -3.96415 0
M  V30 12067 C 2001.69 -7.08259 -2.72856 0
M  V30 12068 O 2001.48 -5.9427 -1.83651 0
M  V30 12069 C 2000.29 -7.64886 -2.9555 0
M  V30 12070 O 1999.9 -8.53963 -1.90717 0
M  V30 12071 C 1999.41 -6.4116 -2.90739 0
M  V30 12072 C 2000.12 -5.55375 -1.86963 0
M  V30 12073 N 2000.07 -4.09664 -2.15742 0
M  V30 12074 H 2002.91 -7.45574 -4.45629 0
M  V30 12075 H 2003.18 -5.86232 -3.67314 0
M  V30 12076 H 2002.31 -7.84412 -2.24479 0
M  V30 12077 P 1998.35 -8.7635 -1.60911 0
M  V30 12078 O 1998.13 -10.1388 -1.11561 0
M  V30 12079 O 1997.56 -8.36503 -2.79617 0
M  V30 12080 O 1998.1 -7.71806 -0.42951 0
M  V30 12081 C 1999.04 -7.66948 0.673514 0
M  V30 12082 C 1998.31 -7.33374 1.95559 0
M  V30 12083 O 1998.1 -5.88721 2.00726 0
M  V30 12084 C 1996.91 -7.92218 2.1125 0
M  V30 12085 O 1996.52 -8.02971 3.47653 0
M  V30 12086 C 1996.03 -6.89504 1.41631 0
M  V30 12087 C 1996.74 -5.59106 1.75155 0
M  V30 12088 N 1996.69 -4.58136 0.662409 0
M  V30 12089 C 1996.54 -3.26059 1.02863 0
M  V30 12090 O 1996.45 -2.90743 2.19009 0
M  V30 12091 N 1996.5 -2.35995 -0.0155585 0
M  V30 12092 C 1996.59 -2.65248 -1.35603 0
M  V30 12093 O 1996.54 -1.75605 -2.20651 0
M  V30 12094 C 1996.74 -4.05747 -1.64698 0
M  V30 12095 C 1996.85 -4.42345 -3.09553 0
M  V30 12096 C 1996.79 -4.96734 -0.652411 0
M  V30 12097 H 1999.53 -8.64917 0.776982 0
M  V30 12098 H 1999.8 -6.89974 0.474015 0
M  V30 12099 H 1998.93 -7.66548 2.79458 0
M  V30 12100 H 1996.28 -5.16076 2.65138 0
M  V30 12101 H 1996 -7.06433 0.329384 0
M  V30 12102 H 1995.01 -6.90829 1.81996 0
M  V30 12103 H 1996.84 -8.90774 1.62639 0
M  V30 12104 H 1996.91 -6.02181 -0.895285 0
M  V30 12105 H 1995.88 -4.80252 -3.45468 0
M  V30 12106 H 1997.62 -5.20015 -3.22119 0
M  V30 12107 H 1997.13 -3.53269 -3.67833 0
M  V30 12108 H 1996.39 -1.39558 0.227499 0
M  V30 12109 P 1994.97 -8.03563 3.84925 0
M  V30 12110 O 1994.75 -8.85821 5.0569 0
M  V30 12111 O 1994.18 -8.41101 2.65469 0
M  V30 12112 O 1994.72 -6.4965 4.18908 0
M  V30 12113 C 1995.66 -5.81037 5.05421 0
M  V30 12114 C 1994.93 -4.78366 5.89277 0
M  V30 12115 O 1994.72 -3.58302 5.08433 0
M  V30 12116 C 1993.53 -5.17448 6.36119 0
M  V30 12117 O 1993.14 -4.45271 7.53232 0
M  V30 12118 C 1992.65 -4.74639 5.19936 0
M  V30 12119 C 1993.36 -3.49432 4.70418 0
M  V30 12120 N 1993.31 -3.31776 3.22945 0
M  V30 12121 H 1996.15 -6.54213 5.71376 0
M  V30 12122 H 1996.42 -5.30492 4.44033 0
M  V30 12123 H 1995.55 -4.55889 6.76652 0
M  V30 12124 P 1991.59 -4.23843 7.83734 0
M  V30 12125 O 1991.37 -4.19407 9.29784 0
M  V30 12126 O 1990.8 -5.24426 7.09156 0
M  V30 12127 O 1991.34 -2.7935 7.20758 0
M  V30 12128 C 1992.28 -1.72945 7.50224 0
M  V30 12129 C 1991.55 -0.406376 7.57911 0
M  V30 12130 O 1991.34 0.0897726 6.21935 0
M  V30 12131 C 1990.15 -0.438983 8.18724 0
M  V30 12132 O 1989.76 0.825065 8.71101 0
M  V30 12133 C 1989.27 -0.783689 6.99524 0
M  V30 12134 C 1989.98 -0.0619086 5.85867 0
M  V30 12135 N 1989.93 -0.78573 4.56183 0
M  V30 12136 C 1989.78 -0.0292889 3.41887 0
M  V30 12137 O 1989.69 1.18445 3.4419 0
M  V30 12138 N 1989.74 -0.744061 2.23964 0
M  V30 12139 C 1989.83 -2.10932 2.10362 0
M  V30 12140 O 1989.78 -2.64117 0.98825 0
M  V30 12141 C 1989.98 -2.8202 3.34994 0
M  V30 12142 C 1990.09 -4.31095 3.25037 0
M  V30 12143 C 1990.03 -2.15547 4.52261 0
M  V30 12144 H 1992.77 -1.93379 8.46595 0
M  V30 12145 H 1993.04 -1.68132 6.70852 0
M  V30 12146 H 1992.17 0.289041 8.15388 0
M  V30 12147 H 1989.52 0.926847 5.72749 0
M  V30 12148 H 1989.24 -1.86973 6.82036 0
M  V30 12149 H 1988.25 -0.403896 7.13257 0
M  V30 12150 H 1990.08 -1.20585 8.97435 0
M  V30 12151 H 1990.15 -2.71231 5.45042 0
M  V30 12152 H 1989.12 -4.76966 3.49992 0
M  V30 12153 H 1990.86 -4.67047 3.95024 0
M  V30 12154 H 1990.37 -4.58996 2.22312 0
M  V30 12155 H 1989.63 -0.214893 1.39758 0
M  V30 12156 P 1988.21 1.17771 8.83182 0
M  V30 12157 O 1987.99 2.07206 9.98732 0
M  V30 12158 O 1987.42 -0.0743816 8.81969 0
M  V30 12159 O 1987.96 1.97652 7.47304 0
M  V30 12160 C 1988.9 3.01133 7.08783 0
M  V30 12161 C 1988.17 4.12613 6.37049 0
M  V30 12162 O 1987.96 3.72827 4.97879 0
M  V30 12163 C 1986.77 4.45085 6.88694 0
M  V30 12164 O 1986.38 5.7877 6.5624 0
M  V30 12165 C 1985.89 3.47817 6.12078 0
M  V30 12166 C 1986.6 3.39414 4.77697 0
M  V30 12167 N 1986.55 2.04615 4.15333 0
M  V30 12168 H 1989.39 3.41248 7.98759 0
M  V30 12169 H 1989.66 2.5837 6.41742 0
M  V30 12170 H 1988.79 5.02657 6.42673 0
M  V30 12171 P 1984.83 6.144 6.45285 0
M  V30 12172 O 1984.61 7.54673 6.86199 0
M  V30 12173 O 1984.04 5.12391 7.179 0
M  V30 12174 O 1984.58 5.99158 4.88404 0
M  V30 12175 C 1985.52 6.60062 3.96313 0
M  V30 12176 C 1984.79 7.08259 2.72856 0
M  V30 12177 O 1984.58 5.9427 1.83651 0
M  V30 12178 C 1983.39 7.65087 2.94749 0
M  V30 12179 O 1983 8.53963 1.90717 0
M  V30 12180 C 1982.51 6.41069 2.90698 0
M  V30 12181 C 1983.22 5.5528 1.86931 0
M  V30 12182 N 1983.17 4.09575 2.15696 0
M  V30 12183 C 1983.02 3.24249 1.08435 0
M  V30 12184 O 1982.93 3.63946 -0.0628747 0
M  V30 12185 N 1982.98 1.90009 1.39973 0
M  V30 12186 C 1983.07 1.34884 2.65614 0
M  V30 12187 C 1983.22 2.3145 3.71736 0
M  V30 12188 C 1983.27 3.63518 3.44754 0
M  V30 12189 H 1986.01 7.45402 4.45526 0
M  V30 12190 H 1986.28 5.86062 3.67208 0
M  V30 12191 H 1985.41 7.84412 2.24479 0
M  V30 12192 H 1982.76 5.73358 0.888409 0
M  V30 12193 H 1982.48 5.90877 3.88583 0
M  V30 12194 H 1981.49 6.65867 2.58821 0
M  V30 12195 H 1983.32 8.16248 3.92006 0
M  V30 12196 H 1983.39 4.34551 4.26383 0
M  V30 12197 P 1981.45 8.7635 1.60911 0
M  V30 12198 O 1981.23 10.1388 1.11561 0
M  V30 12199 O 1980.66 8.36503 2.79617 0
M  V30 12200 O 1981.2 7.71806 0.42951 0
M  V30 12201 C 1982.14 7.67148 -0.673689 0
M  V30 12202 C 1981.41 7.33374 -1.95559 0
M  V30 12203 O 1981.2 5.88721 -2.00726 0
M  V30 12204 C 1980.01 7.92526 -2.10483 0
M  V30 12205 O 1979.62 8.02971 -3.47653 0
M  V30 12206 C 1979.13 6.89602 -1.41652 0
M  V30 12207 C 1979.84 5.59201 -1.75185 0
M  V30 12208 N 1979.79 4.58235 -0.662552 0
M  V30 12209 H 1982.63 8.65116 -0.777161 0
M  V30 12210 H 1982.9 6.90173 -0.474152 0
M  V30 12211 H 1982.03 7.66548 -2.79458 0
M  V30 12212 P 1978.07 8.03563 -3.84925 0
M  V30 12213 O 1977.85 8.85821 -5.0569 0
M  V30 12214 O 1977.28 8.41101 -2.65469 0
M  V30 12215 O 1977.82 6.4965 -4.18908 0
M  V30 12216 C 1978.76 5.80886 -5.05289 0
M  V30 12217 C 1978.03 4.78366 -5.89277 0
M  V30 12218 O 1977.82 3.58302 -5.08433 0
M  V30 12219 C 1976.63 5.16748 -6.36559 0
M  V30 12220 O 1976.24 4.45271 -7.53232 0
M  V30 12221 C 1975.75 4.74572 -5.19863 0
M  V30 12222 C 1976.46 3.49373 -4.70338 0
M  V30 12223 N 1976.41 3.31704 -3.22876 0
M  V30 12224 C 1976.26 2.03326 -2.74871 0
M  V30 12225 O 1976.17 1.06486 -3.48076 0
M  V30 12226 N 1976.22 1.91838 -1.37456 0
M  V30 12227 C 1976.31 2.94295 -0.462035 0
M  V30 12228 C 1976.46 4.25064 -1.05249 0
M  V30 12229 C 1976.51 4.40214 -2.39192 0
M  V30 12230 H 1979.25 6.54063 -5.71245 0
M  V30 12231 H 1979.52 5.30339 -4.43905 0
M  V30 12232 H 1978.65 4.55889 -6.76652 0
M  V30 12233 H 1976 2.6167 -5.17842 0
M  V30 12234 H 1975.72 5.52155 -4.41878 0
M  V30 12235 H 1974.73 4.51918 -5.53297 0
M  V30 12236 H 1976.56 6.25055 -6.55162 0
M  V30 12237 H 1976.63 5.39798 -2.81523 0
M  V30 12238 P 1974.69 4.23843 -7.83734 0
M  V30 12239 O 1974.47 4.19407 -9.29784 0
M  V30 12240 O 1973.9 5.24426 -7.09156 0
M  V30 12241 O 1974.44 2.7935 -7.20758 0
M  V30 12242 C 1975.38 1.7299 -7.50419 0
M  V30 12243 C 1974.65 0.406376 -7.57911 0
M  V30 12244 O 1974.44 -0.0897726 -6.21935 0
M  V30 12245 C 1973.25 0.447224 -8.1878 0
M  V30 12246 O 1972.86 -0.825065 -8.71101 0
M  V30 12247 C 1972.37 0.783801 -6.99623 0
M  V30 12248 C 1973.08 0.0619192 -5.85967 0
M  V30 12249 N 1973.03 0.7859 -4.56281 0
M  V30 12250 H 1975.87 1.93423 -8.4679 0
M  V30 12251 H 1976.14 1.68181 -6.71046 0
M  V30 12252 H 1975.27 -0.289041 -8.15388 0
M  V30 12253 P 1971.31 -1.17771 -8.83182 0
M  V30 12254 O 1971.09 -2.07206 -9.98732 0
M  V30 12255 O 1970.52 0.0743816 -8.81969 0
M  V30 12256 O 1971.06 -1.97652 -7.47304 0
M  V30 12257 C 1972 -3.01133 -7.08783 0
M  V30 12258 C 1971.27 -4.12613 -6.37049 0
M  V30 12259 O 1971.06 -3.72827 -4.97879 0
M  V30 12260 C 1969.87 -4.45085 -6.88694 0
M  V30 12261 O 1969.48 -5.7877 -6.5624 0
M  V30 12262 C 1968.99 -3.47817 -6.12078 0
M  V30 12263 C 1969.7 -3.39414 -4.77697 0
M  V30 12264 N 1969.65 -2.04199 -4.15538 0
M  V30 12265 C 1969.73 -0.821545 -4.76977 0
M  V30 12266 N 1969.66 0.1794 -3.94592 0
M  V30 12267 C 1969.51 -0.419121 -2.70776 0
M  V30 12268 C 1969.38 0.109072 -1.40577 0
M  V30 12269 N 1969.37 1.4104 -1.1344 0
M  V30 12270 N 1969.26 -0.764381 -0.39411 0
M  V30 12271 C 1969.27 -2.06587 -0.664135 0
M  V30 12272 N 1969.39 -2.67948 -1.82153 0
M  V30 12273 C 1969.51 -1.77942 -2.8147 0
M  V30 12274 H 1972.49 -3.41248 -7.98759 0
M  V30 12275 H 1972.76 -2.57728 -6.42 0
M  V30 12276 H 1971.89 -5.02657 -6.42673 0
M  V30 12277 H 1969.24 -4.11708 -4.08956 0
M  V30 12278 H 1968.96 -2.49626 -6.61679 0
M  V30 12279 H 1967.97 -3.8662 -6.00862 0
M  V30 12280 H 1969.8 -4.29991 -7.97006 0
M  V30 12281 H 1969.84 -0.702451 -5.84696 0
M  V30 12282 H 1969.46 2.09647 -1.89651 0
M  V30 12283 H 1969.27 1.73358 -0.160575 0
M  V30 12284 H 1969.16 -2.71695 0.195838 0
M  V30 12285 P 1967.93 -6.144 -6.45285 0
M  V30 12286 O 1967.71 -7.54673 -6.86199 0
M  V30 12287 O 1967.14 -5.12391 -7.179 0
M  V30 12288 O 1967.68 -5.99158 -4.88404 0
M  V30 12289 C 1968.62 -6.60234 -3.96415 0
M  V30 12290 C 1967.89 -7.08259 -2.72856 0
M  V30 12291 O 1967.68 -5.9427 -1.83651 0
M  V30 12292 C 1966.49 -7.64886 -2.9555 0
M  V30 12293 O 1966.1 -8.53963 -1.90717 0
M  V30 12294 C 1965.61 -6.4116 -2.90739 0
M  V30 12295 C 1966.32 -5.55375 -1.86963 0
M  V30 12296 N 1966.27 -4.09448 -2.16152 0
M  V30 12297 H 1969.11 -7.45574 -4.45629 0
M  V30 12298 H 1969.38 -5.85864 -3.679 0
M  V30 12299 H 1968.51 -7.84412 -2.24479 0
M  V30 12300 H 1965.86 -5.73457 -0.888562 0
M  V30 12301 H 1965.58 -5.90877 -3.88583 0
M  V30 12302 H 1964.59 -6.6596 -2.58858 0
M  V30 12303 H 1966.42 -8.16339 -3.92049 0
M  V30 12304 P 1964.55 -8.7635 -1.60911 0
M  V30 12305 O 1964.33 -10.1388 -1.11561 0
M  V30 12306 O 1963.76 -8.36503 -2.79617 0
M  V30 12307 O 1964.3 -7.71806 -0.42951 0
M  V30 12308 C 1965.24 -7.67148 0.673689 0
M  V30 12309 C 1964.51 -7.33374 1.95559 0
M  V30 12310 O 1964.3 -5.88721 2.00726 0
M  V30 12311 C 1963.11 -7.92526 2.10483 0
M  V30 12312 O 1962.72 -8.02971 3.47653 0
M  V30 12313 C 1962.23 -6.89602 1.41652 0
M  V30 12314 C 1962.94 -5.59201 1.75185 0
M  V30 12315 N 1962.89 -4.58301 0.657969 0
M  V30 12316 H 1965.73 -8.65116 0.777161 0
M  V30 12317 H 1966 -6.9022 0.46725 0
M  V30 12318 H 1965.13 -7.66548 2.79458 0
M  V30 12319 H 1962.48 -5.16165 2.65183 0
M  V30 12320 H 1962.2 -7.06433 0.329384 0
M  V30 12321 H 1961.21 -6.90926 1.82021 0
M  V30 12322 H 1963.04 -8.90873 1.62657 0
M  V30 12323 P 1961.17 -8.03563 3.84925 0
M  V30 12324 O 1960.95 -8.85821 5.0569 0
M  V30 12325 O 1960.38 -8.41101 2.65469 0
M  V30 12326 O 1960.92 -6.4965 4.18908 0
M  V30 12327 C 1961.86 -5.81037 5.05421 0
M  V30 12328 C 1961.13 -4.78366 5.89277 0
M  V30 12329 O 1960.92 -3.58302 5.08433 0
M  V30 12330 C 1959.73 -5.17448 6.36119 0
M  V30 12331 O 1959.34 -4.45271 7.53232 0
M  V30 12332 C 1958.85 -4.74639 5.19936 0
M  V30 12333 C 1959.56 -3.49432 4.70418 0
M  V30 12334 N 1959.51 -3.31776 3.22945 0
M  V30 12335 C 1959.59 -4.27147 2.23315 0
M  V30 12336 N 1959.51 -3.78447 1.02186 0
M  V30 12337 C 1959.37 -2.41001 1.21732 0
M  V30 12338 C 1959.24 -1.36111 0.27694 0
M  V30 12339 N 1959.12 -0.113683 0.912949 0
M  V30 12340 C 1959.12 0.0846396 2.27943 0
M  V30 12341 N 1958.99 1.34737 2.6916 0
M  V30 12342 N 1959.25 -0.902521 3.16379 0
M  V30 12343 C 1959.37 -2.11937 2.56849 0
M  V30 12344 H 1962.35 -6.54213 5.71376 0
M  V30 12345 H 1962.62 -5.30492 4.44033 0
M  V30 12346 H 1961.75 -4.55889 6.76652 0
M  V30 12347 P 1957.79 -4.23843 7.83734 0
M  V30 12348 O 1957.57 -4.19407 9.29784 0
M  V30 12349 O 1957 -5.24426 7.09156 0
M  V30 12350 O 1957.54 -2.7935 7.20758 0
M  V30 12351 C 1958.48 -1.7299 7.50419 0
M  V30 12352 C 1957.75 -0.406376 7.57911 0
M  V30 12353 O 1957.54 0.0897726 6.21935 0
M  V30 12354 C 1956.35 -0.447224 8.1878 0
M  V30 12355 O 1955.96 0.825065 8.71101 0
M  V30 12356 C 1955.47 -0.783801 6.99623 0
M  V30 12357 C 1956.18 -0.0619192 5.85967 0
M  V30 12358 N 1956.13 -0.7859 4.56281 0
M  V30 12359 H 1958.97 -1.93423 8.4679 0
M  V30 12360 H 1959.24 -1.68181 6.71046 0
M  V30 12361 H 1958.37 0.289041 8.15388 0
M  V30 12362 P 1954.41 1.17771 8.83182 0
M  V30 12363 O 1954.19 2.07206 9.98732 0
M  V30 12364 O 1953.62 -0.0743816 8.81969 0
M  V30 12365 O 1954.16 1.97652 7.47304 0
M  V30 12366 C 1955.1 3.01133 7.08783 0
M  V30 12367 C 1954.37 4.12613 6.37049 0
M  V30 12368 O 1954.16 3.72827 4.97879 0
M  V30 12369 C 1952.97 4.45085 6.88694 0
M  V30 12370 O 1952.58 5.7877 6.5624 0
M  V30 12371 C 1952.09 3.47817 6.12078 0
M  V30 12372 C 1952.8 3.39414 4.77697 0
M  V30 12373 N 1952.75 2.04199 4.15538 0
M  V30 12374 H 1955.59 3.41248 7.98759 0
M  V30 12375 H 1955.86 2.57728 6.42 0
M  V30 12376 H 1954.99 5.02657 6.42673 0
M  V30 12377 H 1952.34 4.11708 4.08956 0
M  V30 12378 H 1952.06 2.49626 6.61679 0
M  V30 12379 H 1951.07 3.8662 6.00862 0
M  V30 12380 H 1952.9 4.29991 7.97006 0
M  V30 12381 P 1951.03 6.144 6.45285 0
M  V30 12382 O 1950.81 7.54673 6.86199 0
M  V30 12383 O 1950.24 5.12391 7.179 0
M  V30 12384 O 1950.78 5.99158 4.88404 0
M  V30 12385 C 1951.72 6.60234 3.96415 0
M  V30 12386 C 1950.99 7.08259 2.72856 0
M  V30 12387 O 1950.78 5.9427 1.83651 0
M  V30 12388 C 1949.59 7.64886 2.9555 0
M  V30 12389 O 1949.2 8.53963 1.90717 0
M  V30 12390 C 1948.71 6.4116 2.90739 0
M  V30 12391 C 1949.42 5.55375 1.86963 0
M  V30 12392 N 1949.37 4.09664 2.15742 0
M  V30 12393 H 1952.21 7.45574 4.45629 0
M  V30 12394 H 1952.48 5.86232 3.67314 0
M  V30 12395 H 1951.61 7.84412 2.24479 0
M  V30 12396 P 1947.65 8.7635 1.60911 0
M  V30 12397 O 1947.43 10.1388 1.11561 0
M  V30 12398 O 1946.86 8.36503 2.79617 0
M  V30 12399 O 1947.4 7.71806 0.42951 0
M  V30 12400 C 1948.34 7.67148 -0.673689 0
M  V30 12401 C 1947.61 7.33374 -1.95559 0
M  V30 12402 O 1947.4 5.88721 -2.00726 0
M  V30 12403 C 1946.21 7.92526 -2.10483 0
M  V30 12404 O 1945.82 8.02971 -3.47653 0
M  V30 12405 C 1945.33 6.89602 -1.41652 0
M  V30 12406 C 1946.04 5.59201 -1.75185 0
M  V30 12407 N 1945.99 4.58235 -0.662552 0
M  V30 12408 H 1948.83 8.65116 -0.777161 0
M  V30 12409 H 1949.1 6.90173 -0.474152 0
M  V30 12410 H 1948.23 7.66548 -2.79458 0
M  V30 12411 P 1944.27 8.03563 -3.84925 0
M  V30 12412 O 1944.05 8.85821 -5.0569 0
M  V30 12413 O 1943.48 8.41101 -2.65469 0
M  V30 12414 O 1944.02 6.4965 -4.18908 0
M  V30 12415 C 1944.96 5.81037 -5.05421 0
M  V30 12416 C 1944.23 4.78366 -5.89277 0
M  V30 12417 O 1944.02 3.58302 -5.08433 0
M  V30 12418 C 1942.83 5.17448 -6.36119 0
M  V30 12419 O 1942.44 4.45271 -7.53232 0
M  V30 12420 C 1941.95 4.74639 -5.19936 0
M  V30 12421 C 1942.66 3.49432 -4.70418 0
M  V30 12422 N 1942.61 3.31776 -3.22945 0
M  V30 12423 H 1945.45 6.54213 -5.71376 0
M  V30 12424 H 1945.72 5.30492 -4.44033 0
M  V30 12425 H 1944.85 4.55889 -6.76652 0
M  V30 12426 P 1940.89 4.23843 -7.83734 0
M  V30 12427 O 1940.67 4.19407 -9.29784 0
M  V30 12428 O 1940.1 5.24426 -7.09156 0
M  V30 12429 O 1940.64 2.7935 -7.20758 0
M  V30 12430 C 1941.58 1.7299 -7.50419 0
M  V30 12431 C 1940.85 0.406376 -7.57911 0
M  V30 12432 O 1940.64 -0.0897726 -6.21935 0
M  V30 12433 C 1939.45 0.447224 -8.1878 0
M  V30 12434 O 1939.06 -0.825065 -8.71101 0
M  V30 12435 C 1938.57 0.783801 -6.99623 0
M  V30 12436 C 1939.28 0.0619192 -5.85967 0
M  V30 12437 N 1939.23 0.7859 -4.56281 0
M  V30 12438 H 1942.07 1.93423 -8.4679 0
M  V30 12439 H 1942.34 1.68181 -6.71046 0
M  V30 12440 H 1941.47 -0.289041 -8.15388 0
M  V30 12441 P 1937.51 -1.17771 -8.83182 0
M  V30 12442 O 1937.29 -2.07206 -9.98732 0
M  V30 12443 O 1936.72 0.0743816 -8.81969 0
M  V30 12444 O 1937.26 -1.97652 -7.47304 0
M  V30 12445 C 1938.2 -3.01055 -7.08599 0
M  V30 12446 C 1937.47 -4.12613 -6.37049 0
M  V30 12447 O 1937.26 -3.72827 -4.97879 0
M  V30 12448 C 1936.07 -4.45719 -6.88164 0
M  V30 12449 O 1935.68 -5.7877 -6.5624 0
M  V30 12450 C 1935.19 -3.47768 -6.11991 0
M  V30 12451 C 1935.9 -3.39356 -4.77615 0
M  V30 12452 N 1935.85 -2.04571 -4.15244 0
M  V30 12453 C 1935.7 -1.98587 -2.78314 0
M  V30 12454 O 1935.61 -2.98134 -2.08835 0
M  V30 12455 N 1935.66 -0.714467 -2.24925 0
M  V30 12456 C 1935.75 0.470001 -2.94169 0
M  V30 12457 C 1935.9 0.312541 -4.36783 0
M  V30 12458 C 1935.95 -0.914512 -4.92583 0
M  V30 12459 H 1938.69 -3.41169 -7.98575 0
M  V30 12460 H 1938.96 -2.58295 -6.41556 0
M  V30 12461 H 1938.09 -5.02657 -6.42673 0
M  V30 12462 H 1935.44 -4.11637 -4.08885 0
M  V30 12463 H 1935.16 -2.49626 -6.61679 0
M  V30 12464 H 1934.17 -3.86566 -6.00778 0
M  V30 12465 H 1936 -4.29943 -7.96918 0
M  V30 12466 H 1936.07 -1.00937 -6.00374 0
M  V30 12467 P 1934.13 -6.144 -6.45285 0
M  V30 12468 O 1933.91 -7.54673 -6.86199 0
M  V30 12469 O 1933.34 -5.12391 -7.179 0
M  V30 12470 O 1933.88 -5.99158 -4.88404 0
M  V30 12471 C 1934.82 -6.60234 -3.96415 0
M  V30 12472 C 1934.09 -7.08259 -2.72856 0
M  V30 12473 O 1933.88 -5.9427 -1.83651 0
M  V30 12474 C 1932.69 -7.64886 -2.9555 0
M  V30 12475 O 1932.3 -8.53963 -1.90717 0
M  V30 12476 C 1931.81 -6.4116 -2.90739 0
M  V30 12477 C 1932.52 -5.55375 -1.86963 0
M  V30 12478 N 1932.47 -4.09664 -2.15742 0
M  V30 12479 H 1935.31 -7.45574 -4.45629 0
M  V30 12480 H 1935.58 -5.86232 -3.67314 0
M  V30 12481 H 1934.71 -7.84412 -2.24479 0
M  V30 12482 P 1930.75 -8.7635 -1.60911 0
M  V30 12483 O 1930.53 -10.1388 -1.11561 0
M  V30 12484 O 1929.96 -8.36503 -2.79617 0
M  V30 12485 O 1930.5 -7.71806 -0.42951 0
M  V30 12486 C 1931.44 -7.66948 0.673514 0
M  V30 12487 C 1930.71 -7.33374 1.95559 0
M  V30 12488 O 1930.5 -5.88721 2.00726 0
M  V30 12489 C 1929.31 -7.92218 2.1125 0
M  V30 12490 O 1928.92 -8.02971 3.47653 0
M  V30 12491 C 1928.43 -6.89504 1.41631 0
M  V30 12492 C 1929.14 -5.59106 1.75155 0
M  V30 12493 N 1929.09 -4.58136 0.662409 0
M  V30 12494 C 1928.94 -3.26059 1.02863 0
M  V30 12495 O 1928.85 -2.90743 2.19009 0
M  V30 12496 N 1928.9 -2.35995 -0.0155585 0
M  V30 12497 C 1928.99 -2.65248 -1.35603 0
M  V30 12498 C 1929.14 -4.05747 -1.64698 0
M  V30 12499 C 1929.19 -4.96734 -0.652411 0
M  V30 12500 H 1931.93 -8.64917 0.776982 0
M  V30 12501 H 1932.2 -6.89974 0.474015 0
M  V30 12502 H 1931.33 -7.66548 2.79458 0
M  V30 12503 H 1928.68 -5.16076 2.65138 0
M  V30 12504 H 1928.4 -7.06433 0.329384 0
M  V30 12505 H 1927.41 -6.90829 1.81996 0
M  V30 12506 H 1929.24 -8.90774 1.62639 0
M  V30 12507 H 1929.31 -6.02181 -0.895285 0
M  V30 12508 P 1927.37 -8.03563 3.84925 0
M  V30 12509 O 1927.15 -8.85821 5.0569 0
M  V30 12510 O 1926.58 -8.41101 2.65469 0
M  V30 12511 O 1927.12 -6.4965 4.18908 0
M  V30 12512 C 1928.06 -5.81037 5.05421 0
M  V30 12513 C 1927.33 -4.78366 5.89277 0
M  V30 12514 O 1927.12 -3.58302 5.08433 0
M  V30 12515 C 1925.93 -5.17448 6.36119 0
M  V30 12516 O 1925.54 -4.45271 7.53232 0
M  V30 12517 C 1925.05 -4.74639 5.19936 0
M  V30 12518 C 1925.76 -3.49432 4.70418 0
M  V30 12519 N 1925.71 -3.32099 3.22613 0
M  V30 12520 H 1928.55 -6.54213 5.71376 0
M  V30 12521 H 1928.82 -5.30936 4.43503 0
M  V30 12522 H 1927.95 -4.55889 6.76652 0
M  V30 12523 H 1925.3 -2.61715 5.17932 0
M  V30 12524 H 1925.02 -5.52155 4.41878 0
M  V30 12525 H 1924.03 -4.51981 5.53374 0
M  V30 12526 H 1925.86 -6.25124 6.55234 0
M  V30 12527 P 1923.99 -4.23843 7.83734 0
M  V30 12528 O 1923.77 -4.19407 9.29784 0
M  V30 12529 O 1923.2 -5.24426 7.09156 0
M  V30 12530 O 1923.74 -2.7935 7.20758 0
M  V30 12531 C 1924.68 -1.7299 7.50419 0
M  V30 12532 C 1923.95 -0.406376 7.57911 0
M  V30 12533 O 1923.74 0.0897726 6.21935 0
M  V30 12534 C 1922.55 -0.447224 8.1878 0
M  V30 12535 O 1922.16 0.825065 8.71101 0
M  V30 12536 C 1921.67 -0.783801 6.99623 0
M  V30 12537 C 1922.38 -0.0619192 5.85967 0
M  V30 12538 N 1922.33 -0.7859 4.56281 0
M  V30 12539 C 1922.41 -2.14308 4.31736 0
M  V30 12540 N 1922.33 -2.46106 3.05116 0
M  V30 12541 C 1922.19 -1.23422 2.4014 0
M  V30 12542 C 1922.06 -0.938381 1.02409 0
M  V30 12543 O 1922.04 -1.70876 0.0650402 0
M  V30 12544 N 1921.94 0.444647 0.805413 0
M  V30 12545 C 1921.94 1.40829 1.79435 0
M  V30 12546 N 1921.81 2.67213 1.38558 0
M  V30 12547 N 1922.07 1.12947 3.09005 0
M  V30 12548 C 1922.19 -0.204887 3.32369 0
M  V30 12549 H 1925.17 -1.93423 8.4679 0
M  V30 12550 H 1925.44 -1.68181 6.71046 0
M  V30 12551 H 1924.57 0.289041 8.15388 0
M  V30 12552 H 1921.92 0.927166 5.72947 0
M  V30 12553 H 1921.64 -1.87 6.82132 0
M  V30 12554 H 1920.65 -0.404009 7.13457 0
M  V30 12555 H 1922.48 -1.20612 8.97633 0
M  V30 12556 H 1922.53 -2.88284 5.10874 0
M  V30 12557 H 1921.85 0.755087 -0.140242 0
M  V30 12558 H 1921.81 3.43967 2.0729 0
M  V30 12559 H 1921.71 2.88096 0.380644 0
M  V30 12560 P 1920.61 1.17771 8.83182 0
M  V30 12561 O 1920.39 2.07206 9.98732 0
M  V30 12562 O 1919.82 -0.0743816 8.81969 0
M  V30 12563 O 1920.36 1.97652 7.47304 0
M  V30 12564 C 1921.3 3.01133 7.08783 0
M  V30 12565 C 1920.57 4.12613 6.37049 0
M  V30 12566 O 1920.36 3.72827 4.97879 0
M  V30 12567 C 1919.17 4.45085 6.88694 0
M  V30 12568 O 1918.78 5.7877 6.5624 0
M  V30 12569 C 1918.29 3.47817 6.12078 0
M  V30 12570 C 1919 3.39414 4.77697 0
M  V30 12571 N 1918.95 2.04615 4.15333 0
M  V30 12572 H 1921.79 3.41248 7.98759 0
M  V30 12573 H 1922.06 2.5837 6.41742 0
M  V30 12574 H 1921.19 5.02657 6.42673 0
M  V30 12575 P 1917.23 6.144 6.45285 0
M  V30 12576 O 1917.01 7.54673 6.86199 0
M  V30 12577 O 1916.44 5.12391 7.179 0
M  V30 12578 O 1916.98 5.99158 4.88404 0
M  V30 12579 C 1917.92 6.60062 3.96313 0
M  V30 12580 C 1917.19 7.08259 2.72856 0
M  V30 12581 O 1916.98 5.9427 1.83651 0
M  V30 12582 C 1915.79 7.65087 2.94749 0
M  V30 12583 O 1915.4 8.53963 1.90717 0
M  V30 12584 C 1914.91 6.41069 2.90698 0
M  V30 12585 C 1915.62 5.5528 1.86931 0
M  V30 12586 N 1915.57 4.09575 2.15696 0
M  V30 12587 C 1915.42 3.24249 1.08435 0
M  V30 12588 O 1915.33 3.63946 -0.0628747 0
M  V30 12589 N 1915.38 1.90009 1.39973 0
M  V30 12590 C 1915.47 1.34884 2.65614 0
M  V30 12591 O 1915.42 0.123716 2.81728 0
M  V30 12592 C 1915.62 2.3145 3.71736 0
M  V30 12593 C 1915.73 1.75913 5.10438 0
M  V30 12594 C 1915.67 3.63518 3.44754 0
M  V30 12595 H 1918.41 7.45402 4.45526 0
M  V30 12596 H 1918.68 5.86062 3.67208 0
M  V30 12597 H 1917.81 7.84412 2.24479 0
M  V30 12598 H 1915.16 5.73358 0.888409 0
M  V30 12599 H 1914.88 5.90877 3.88583 0
M  V30 12600 H 1913.89 6.65867 2.58821 0
M  V30 12601 H 1915.72 8.16248 3.92006 0
M  V30 12602 H 1915.79 4.34551 4.26383 0
M  V30 12603 H 1914.76 1.85471 5.61775 0
M  V30 12604 H 1916.5 2.31364 5.66257 0
M  V30 12605 H 1916.01 0.695936 5.05229 0
M  V30 12606 H 1915.27 1.26277 0.63625 0
M  V30 12607 P 1913.85 8.7635 1.60911 0
M  V30 12608 O 1913.63 10.1388 1.11561 0
M  V30 12609 O 1913.06 8.36503 2.79617 0
M  V30 12610 O 1913.6 7.71806 0.42951 0
M  V30 12611 C 1914.54 7.67148 -0.673689 0
M  V30 12612 C 1913.81 7.33374 -1.95559 0
M  V30 12613 O 1913.6 5.88721 -2.00726 0
M  V30 12614 C 1912.41 7.92526 -2.10483 0
M  V30 12615 O 1912.02 8.02971 -3.47653 0
M  V30 12616 C 1911.53 6.89602 -1.41652 0
M  V30 12617 C 1912.24 5.59201 -1.75185 0
M  V30 12618 N 1912.19 4.58235 -0.662552 0
M  V30 12619 H 1915.03 8.65116 -0.777161 0
M  V30 12620 H 1915.3 6.90173 -0.474152 0
M  V30 12621 H 1914.43 7.66548 -2.79458 0
M  V30 12622 P 1910.47 8.03563 -3.84925 0
M  V30 12623 O 1910.25 8.85821 -5.0569 0
M  V30 12624 O 1909.68 8.41101 -2.65469 0
M  V30 12625 O 1910.22 6.4965 -4.18908 0
M  V30 12626 C 1911.16 5.81037 -5.05421 0
M  V30 12627 C 1910.43 4.78366 -5.89277 0
M  V30 12628 O 1910.22 3.58302 -5.08433 0
M  V30 12629 C 1909.03 5.17448 -6.36119 0
M  V30 12630 O 1908.64 4.45271 -7.53232 0
M  V30 12631 C 1908.15 4.74639 -5.19936 0
M  V30 12632 C 1908.86 3.49432 -4.70418 0
M  V30 12633 N 1908.81 3.32099 -3.22613 0
M  V30 12634 H 1911.65 6.54213 -5.71376 0
M  V30 12635 H 1911.92 5.30936 -4.43503 0
M  V30 12636 H 1911.05 4.55889 -6.76652 0
M  V30 12637 H 1908.4 2.61715 -5.17932 0
M  V30 12638 H 1908.12 5.52155 -4.41878 0
M  V30 12639 H 1907.13 4.51981 -5.53374 0
M  V30 12640 H 1908.96 6.25124 -6.55234 0
M  V30 12641 P 1907.09 4.23843 -7.83734 0
M  V30 12642 O 1906.87 4.19407 -9.29784 0
M  V30 12643 O 1906.3 5.24426 -7.09156 0
M  V30 12644 O 1906.84 2.7935 -7.20758 0
M  V30 12645 C 1907.78 1.7299 -7.50419 0
M  V30 12646 C 1907.05 0.406376 -7.57911 0
M  V30 12647 O 1906.84 -0.0897726 -6.21935 0
M  V30 12648 C 1905.65 0.447224 -8.1878 0
M  V30 12649 O 1905.26 -0.825065 -8.71101 0
M  V30 12650 C 1904.77 0.783801 -6.99623 0
M  V30 12651 C 1905.48 0.0619192 -5.85967 0
M  V30 12652 N 1905.43 0.7859 -4.56281 0
M  V30 12653 H 1908.27 1.93423 -8.4679 0
M  V30 12654 H 1908.54 1.68181 -6.71046 0
M  V30 12655 H 1907.67 -0.289041 -8.15388 0
M  V30 12656 P 1903.71 -1.17771 -8.83182 0
M  V30 12657 O 1903.49 -2.07206 -9.98732 0
M  V30 12658 O 1902.92 0.0743816 -8.81969 0
M  V30 12659 O 1903.46 -1.97652 -7.47304 0
M  V30 12660 C 1904.4 -3.01055 -7.08599 0
M  V30 12661 C 1903.67 -4.12613 -6.37049 0
M  V30 12662 O 1903.46 -3.72827 -4.97879 0
M  V30 12663 C 1902.27 -4.45719 -6.88164 0
M  V30 12664 O 1901.88 -5.7877 -6.5624 0
M  V30 12665 C 1901.39 -3.47768 -6.11991 0
M  V30 12666 C 1902.1 -3.39356 -4.77615 0
M  V30 12667 N 1902.05 -2.04571 -4.15244 0
M  V30 12668 C 1901.9 -1.98587 -2.78314 0
M  V30 12669 O 1901.81 -2.98134 -2.08835 0
M  V30 12670 N 1901.86 -0.714467 -2.24925 0
M  V30 12671 C 1901.95 0.470001 -2.94169 0
M  V30 12672 C 1902.1 0.312541 -4.36783 0
M  V30 12673 C 1902.15 -0.914512 -4.92583 0
M  V30 12674 H 1904.89 -3.41169 -7.98575 0
M  V30 12675 H 1905.16 -2.58295 -6.41556 0
M  V30 12676 H 1904.29 -5.02657 -6.42673 0
M  V30 12677 H 1901.64 -4.11637 -4.08885 0
M  V30 12678 H 1901.36 -2.49626 -6.61679 0
M  V30 12679 H 1900.37 -3.86566 -6.00778 0
M  V30 12680 H 1902.2 -4.29943 -7.96918 0
M  V30 12681 H 1902.27 -1.00937 -6.00374 0
M  V30 12682 P 1900.33 -6.144 -6.45285 0
M  V30 12683 O 1900.11 -7.54673 -6.86199 0
M  V30 12684 O 1899.54 -5.12391 -7.179 0
M  V30 12685 O 1900.08 -5.99158 -4.88404 0
M  V30 12686 C 1901.02 -6.60234 -3.96415 0
M  V30 12687 C 1900.29 -7.08259 -2.72856 0
M  V30 12688 O 1900.08 -5.9427 -1.83651 0
M  V30 12689 C 1898.89 -7.64886 -2.9555 0
M  V30 12690 O 1898.5 -8.53963 -1.90717 0
M  V30 12691 C 1898.01 -6.4116 -2.90739 0
M  V30 12692 C 1898.72 -5.55375 -1.86963 0
M  V30 12693 N 1898.67 -4.09664 -2.15742 0
M  V30 12694 H 1901.51 -7.45574 -4.45629 0
M  V30 12695 H 1901.78 -5.86232 -3.67314 0
M  V30 12696 H 1900.91 -7.84412 -2.24479 0
M  V30 12697 P 1896.95 -8.7635 -1.60911 0
M  V30 12698 O 1896.73 -10.1388 -1.11561 0
M  V30 12699 O 1896.16 -8.36503 -2.79617 0
M  V30 12700 O 1896.7 -7.71806 -0.42951 0
M  V30 12701 C 1897.64 -7.67148 0.673689 0
M  V30 12702 C 1896.91 -7.33374 1.95559 0
M  V30 12703 O 1896.7 -5.88721 2.00726 0
M  V30 12704 C 1895.51 -7.92526 2.10483 0
M  V30 12705 O 1895.12 -8.02971 3.47653 0
M  V30 12706 C 1894.63 -6.89602 1.41652 0
M  V30 12707 C 1895.34 -5.59201 1.75185 0
M  V30 12708 N 1895.29 -4.58301 0.657969 0
M  V30 12709 H 1898.13 -8.65116 0.777161 0
M  V30 12710 H 1898.4 -6.9022 0.46725 0
M  V30 12711 H 1897.53 -7.66548 2.79458 0
M  V30 12712 H 1894.88 -5.16165 2.65183 0
M  V30 12713 H 1894.6 -7.06433 0.329384 0
M  V30 12714 H 1893.61 -6.90926 1.82021 0
M  V30 12715 H 1895.44 -8.90873 1.62657 0
M  V30 12716 P 1893.57 -8.03563 3.84925 0
M  V30 12717 O 1893.35 -8.85821 5.0569 0
M  V30 12718 O 1892.78 -8.41101 2.65469 0
M  V30 12719 O 1893.32 -6.4965 4.18908 0
M  V30 12720 C 1894.26 -5.81037 5.05421 0
M  V30 12721 C 1893.53 -4.78366 5.89277 0
M  V30 12722 O 1893.32 -3.58302 5.08433 0
M  V30 12723 C 1892.13 -5.17448 6.36119 0
M  V30 12724 O 1891.74 -4.45271 7.53232 0
M  V30 12725 C 1891.25 -4.74639 5.19936 0
M  V30 12726 C 1891.96 -3.49432 4.70418 0
M  V30 12727 N 1891.91 -3.31776 3.22945 0
M  V30 12728 H 1894.75 -6.54213 5.71376 0
M  V30 12729 H 1895.02 -5.30492 4.44033 0
M  V30 12730 H 1894.15 -4.55889 6.76652 0
M  V30 12731 P 1890.19 -4.23843 7.83734 0
M  V30 12732 O 1889.97 -4.19407 9.29784 0
M  V30 12733 O 1889.4 -5.24426 7.09156 0
M  V30 12734 O 1889.94 -2.7935 7.20758 0
M  V30 12735 C 1890.88 -1.7299 7.50419 0
M  V30 12736 C 1890.15 -0.406376 7.57911 0
M  V30 12737 O 1889.94 0.0897726 6.21935 0
M  V30 12738 C 1888.75 -0.447224 8.1878 0
M  V30 12739 O 1888.36 0.825065 8.71101 0
M  V30 12740 C 1887.87 -0.783801 6.99623 0
M  V30 12741 C 1888.58 -0.0619192 5.85967 0
M  V30 12742 N 1888.53 -0.7859 4.56281 0
M  V30 12743 C 1888.61 -2.14308 4.31736 0
M  V30 12744 N 1888.53 -2.46106 3.05116 0
M  V30 12745 C 1888.39 -1.23422 2.4014 0
M  V30 12746 C 1888.26 -0.938381 1.02409 0
M  V30 12747 N 1888.14 0.444647 0.805413 0
M  V30 12748 C 1888.14 1.40829 1.79435 0
M  V30 12749 N 1888.01 2.67213 1.38558 0
M  V30 12750 N 1888.27 1.12947 3.09005 0
M  V30 12751 C 1888.39 -0.204887 3.32369 0
M  V30 12752 H 1891.37 -1.93423 8.4679 0
M  V30 12753 H 1891.64 -1.68181 6.71046 0
M  V30 12754 H 1890.77 0.289041 8.15388 0
M  V30 12755 P 1886.81 1.17771 8.83182 0
M  V30 12756 O 1886.59 2.07206 9.98732 0
M  V30 12757 O 1886.02 -0.0743816 8.81969 0
M  V30 12758 O 1886.56 1.97652 7.47304 0
M  V30 12759 C 1887.5 3.01133 7.08783 0
M  V30 12760 C 1886.77 4.12613 6.37049 0
M  V30 12761 O 1886.56 3.72827 4.97879 0
M  V30 12762 C 1885.37 4.45085 6.88694 0
M  V30 12763 O 1884.98 5.7877 6.5624 0
M  V30 12764 C 1884.49 3.47817 6.12078 0
M  V30 12765 C 1885.2 3.39414 4.77697 0
M  V30 12766 N 1885.15 2.04615 4.15333 0
M  V30 12767 H 1887.99 3.41248 7.98759 0
M  V30 12768 H 1888.26 2.5837 6.41742 0
M  V30 12769 H 1887.39 5.02657 6.42673 0
M  V30 12770 P 1883.43 6.144 6.45285 0
M  V30 12771 O 1883.21 7.54673 6.86199 0
M  V30 12772 O 1882.64 5.12391 7.179 0
M  V30 12773 O 1883.18 5.99158 4.88404 0
M  V30 12774 C 1884.12 6.60234 3.96415 0
M  V30 12775 C 1883.39 7.08259 2.72856 0
M  V30 12776 O 1883.18 5.9427 1.83651 0
M  V30 12777 C 1881.99 7.64886 2.9555 0
M  V30 12778 O 1881.6 8.53963 1.90717 0
M  V30 12779 C 1881.11 6.4116 2.90739 0
M  V30 12780 C 1881.82 5.55375 1.86963 0
M  V30 12781 N 1881.77 4.09664 2.15742 0
M  V30 12782 H 1884.61 7.45574 4.45629 0
M  V30 12783 H 1884.88 5.86232 3.67314 0
M  V30 12784 H 1884.01 7.84412 2.24479 0
M  V30 12785 P 1880.05 8.7635 1.60911 0
M  V30 12786 O 1879.83 10.1388 1.11561 0
M  V30 12787 O 1879.26 8.36503 2.79617 0
M  V30 12788 O 1879.8 7.71806 0.42951 0
M  V30 12789 C 1880.74 7.67148 -0.673689 0
M  V30 12790 C 1880.01 7.33374 -1.95559 0
M  V30 12791 O 1879.8 5.88721 -2.00726 0
M  V30 12792 C 1878.61 7.92526 -2.10483 0
M  V30 12793 O 1878.22 8.02971 -3.47653 0
M  V30 12794 C 1877.73 6.89602 -1.41652 0
M  V30 12795 C 1878.44 5.59201 -1.75185 0
M  V30 12796 N 1878.39 4.58301 -0.657969 0
M  V30 12797 H 1881.23 8.65116 -0.777161 0
M  V30 12798 H 1881.5 6.9022 -0.46725 0
M  V30 12799 H 1880.63 7.66548 -2.79458 0
M  V30 12800 H 1877.98 5.16165 -2.65183 0
M  V30 12801 H 1877.7 7.06433 -0.329384 0
M  V30 12802 H 1876.71 6.90926 -1.82021 0
M  V30 12803 H 1878.54 8.90873 -1.62657 0
M  V30 12804 P 1876.67 8.03563 -3.84925 0
M  V30 12805 O 1876.45 8.85821 -5.0569 0
M  V30 12806 O 1875.88 8.41101 -2.65469 0
M  V30 12807 O 1876.42 6.4965 -4.18908 0
M  V30 12808 C 1877.36 5.81037 -5.05421 0
M  V30 12809 C 1876.63 4.78366 -5.89277 0
M  V30 12810 O 1876.42 3.58302 -5.08433 0
M  V30 12811 C 1875.23 5.17448 -6.36119 0
M  V30 12812 O 1874.84 4.45271 -7.53232 0
M  V30 12813 C 1874.35 4.74639 -5.19936 0
M  V30 12814 C 1875.06 3.49432 -4.70418 0
M  V30 12815 N 1875.01 3.32099 -3.22613 0
M  V30 12816 H 1877.85 6.54213 -5.71376 0
M  V30 12817 H 1878.12 5.30936 -4.43503 0
M  V30 12818 H 1877.25 4.55889 -6.76652 0
M  V30 12819 H 1874.6 2.61715 -5.17932 0
M  V30 12820 H 1874.32 5.52155 -4.41878 0
M  V30 12821 H 1873.33 4.51981 -5.53374 0
M  V30 12822 H 1875.16 6.25124 -6.55234 0
M  V30 12823 P 1873.29 4.23843 -7.83734 0
M  V30 12824 O 1873.07 4.19407 -9.29784 0
M  V30 12825 O 1872.5 5.24426 -7.09156 0
M  V30 12826 O 1873.04 2.7935 -7.20758 0
M  V30 12827 C 1873.98 1.7299 -7.50419 0
M  V30 12828 C 1873.25 0.406376 -7.57911 0
M  V30 12829 O 1873.04 -0.0897726 -6.21935 0
M  V30 12830 C 1871.85 0.447224 -8.1878 0
M  V30 12831 O 1871.46 -0.825065 -8.71101 0
M  V30 12832 C 1870.97 0.783801 -6.99623 0
M  V30 12833 C 1871.68 0.0619192 -5.85967 0
M  V30 12834 N 1871.63 0.790462 -4.56202 0
M  V30 12835 C 1871.71 2.13895 -4.34171 0
M  V30 12836 N 1871.64 2.46449 -3.08687 0
M  V30 12837 C 1871.49 1.2525 -2.43697 0
M  V30 12838 C 1871.36 0.914535 -1.07318 0
M  V30 12839 N 1871.35 1.80782 -0.0887348 0
M  V30 12840 N 1871.24 -0.386745 -0.768133 0
M  V30 12841 C 1871.25 -1.28096 -1.75159 0
M  V30 12842 N 1871.37 -1.09708 -3.04861 0
M  V30 12843 C 1871.49 0.214857 -3.32306 0
M  V30 12844 H 1874.47 1.93423 -8.4679 0
M  V30 12845 H 1874.74 1.68852 -6.70877 0
M  V30 12846 H 1873.87 -0.289041 -8.15388 0
M  V30 12847 H 1871.22 -0.927006 -5.72848 0
M  V30 12848 H 1870.94 1.86973 -6.82036 0
M  V30 12849 H 1869.95 0.403953 -7.13357 0
M  V30 12850 H 1871.78 1.20599 -8.97534 0
M  V30 12851 H 1871.82 2.86846 -5.14318 0
M  V30 12852 H 1871.44 2.81082 -0.302037 0
M  V30 12853 H 1871.25 1.49688 0.889064 0
M  V30 12854 H 1871.14 -2.31317 -1.43855 0
M  V30 12855 P 1869.91 -1.17771 -8.83182 0
M  V30 12856 O 1869.69 -2.07206 -9.98732 0
M  V30 12857 O 1869.12 0.0743816 -8.81969 0
M  V30 12858 O 1869.66 -1.97678 -7.474 0
M  V30 12859 C 1870.6 -3.01133 -7.08783 0
M  V30 12860 C 1869.87 -4.1203 -6.37546 0
M  V30 12861 O 1869.66 -3.72887 -4.9796 0
M  V30 12862 C 1868.47 -4.45085 -6.88694 0
M  V30 12863 O 1868.08 -5.78836 -6.56315 0
M  V30 12864 C 1867.59 -3.47817 -6.12078 0
M  V30 12865 C 1868.3 -3.39414 -4.77697 0
M  V30 12866 N 1868.25 -2.04615 -4.15333 0
M  V30 12867 C 1868.1 -1.96929 -2.77162 0
M  V30 12868 O 1868.01 -3.02017 -2.12006 0
M  V30 12869 N 1868.05 -0.55485 -2.24237 0
M  V30 12870 C 1868.15 0.367808 -2.9169 0
M  V30 12871 N 1868.1 1.53426 -2.29427 0
M  V30 12872 C 1868.3 0.319148 -4.33828 0
M  V30 12873 C 1868.35 -0.920672 -4.90433 0
M  V30 12874 H 1871.09 -3.41209 -7.98667 0
M  V30 12875 H 1871.36 -2.5837 -6.41742 0
M  V30 12876 H 1870.49 -5.02718 -6.42752 0
M  V30 12877 H 1867.84 -4.11779 -4.09026 0
M  V30 12878 H 1867.56 -2.49661 -6.61772 0
M  V30 12879 H 1866.57 -3.86674 -6.00946 0
M  V30 12880 H 1868.4 -4.29991 -7.97006 0
M  V30 12881 H 1868.47 -1.00589 -5.98303 0
M  V30 12882 H 1868.37 1.22639 -4.93799 0
M  V30 12883 H 1867.98 1.56819 -1.27167 0
M  V30 12884 H 1868.18 2.41062 -2.83063 0
M  V30 12885 P 1866.53 -6.144 -6.45285 0
M  V30 12886 O 1866.31 -7.54673 -6.86199 0
M  V30 12887 O 1865.74 -5.12391 -7.179 0
M  V30 12888 O 1866.28 -5.99158 -4.88404 0
M  V30 12889 C 1867.22 -6.60234 -3.96415 0
M  V30 12890 C 1866.49 -7.08259 -2.72856 0
M  V30 12891 O 1866.28 -5.9427 -1.83651 0
M  V30 12892 C 1865.09 -7.64886 -2.9555 0
M  V30 12893 O 1864.7 -8.53963 -1.90717 0
M  V30 12894 C 1864.21 -6.4116 -2.90739 0
M  V30 12895 C 1864.92 -5.55375 -1.86963 0
M  V30 12896 N 1864.87 -4.09664 -2.15742 0
M  V30 12897 H 1867.71 -7.45574 -4.45629 0
M  V30 12898 H 1867.98 -5.86232 -3.67314 0
M  V30 12899 H 1867.11 -7.84412 -2.24479 0
M  V30 12900 P 1863.15 -8.7635 -1.60911 0
M  V30 12901 O 1862.93 -10.1388 -1.11561 0
M  V30 12902 O 1862.36 -8.36503 -2.79617 0
M  V30 12903 O 1862.9 -7.71806 -0.42951 0
M  V30 12904 C 1863.84 -7.66948 0.673514 0
M  V30 12905 C 1863.11 -7.33374 1.95559 0
M  V30 12906 O 1862.9 -5.88721 2.00726 0
M  V30 12907 C 1861.71 -7.92218 2.1125 0
M  V30 12908 O 1861.32 -8.02971 3.47653 0
M  V30 12909 C 1860.83 -6.89504 1.41631 0
M  V30 12910 C 1861.54 -5.59106 1.75155 0
M  V30 12911 N 1861.49 -4.58136 0.662409 0
M  V30 12912 C 1861.34 -3.26059 1.02863 0
M  V30 12913 O 1861.25 -2.90743 2.19009 0
M  V30 12914 N 1861.3 -2.35995 -0.0155585 0
M  V30 12915 C 1861.39 -2.65248 -1.35603 0
M  V30 12916 O 1861.34 -1.75605 -2.20651 0
M  V30 12917 C 1861.54 -4.05747 -1.64698 0
M  V30 12918 C 1861.65 -4.42345 -3.09553 0
M  V30 12919 C 1861.59 -4.96734 -0.652411 0
M  V30 12920 H 1864.33 -8.64917 0.776982 0
M  V30 12921 H 1864.6 -6.89974 0.474015 0
M  V30 12922 H 1863.73 -7.66548 2.79458 0
M  V30 12923 H 1861.08 -5.16076 2.65138 0
M  V30 12924 H 1860.8 -7.06433 0.329384 0
M  V30 12925 H 1859.81 -6.90829 1.81996 0
M  V30 12926 H 1861.64 -8.90774 1.62639 0
M  V30 12927 H 1861.71 -6.02181 -0.895285 0
M  V30 12928 H 1860.68 -4.80252 -3.45468 0
M  V30 12929 H 1862.42 -5.20015 -3.22119 0
M  V30 12930 H 1861.93 -3.53269 -3.67833 0
M  V30 12931 H 1861.19 -1.39558 0.227499 0
M  V30 12932 P 1859.77 -8.03563 3.84925 0
M  V30 12933 O 1859.55 -8.85821 5.0569 0
M  V30 12934 O 1858.98 -8.41101 2.65469 0
M  V30 12935 O 1859.52 -6.4965 4.18908 0
M  V30 12936 C 1860.46 -5.81037 5.05421 0
M  V30 12937 C 1859.73 -4.78366 5.89277 0
M  V30 12938 O 1859.52 -3.58302 5.08433 0
M  V30 12939 C 1858.33 -5.17448 6.36119 0
M  V30 12940 O 1857.94 -4.45271 7.53232 0
M  V30 12941 C 1857.45 -4.74639 5.19936 0
M  V30 12942 C 1858.16 -3.49432 4.70418 0
M  V30 12943 N 1858.11 -3.31776 3.22945 0
M  V30 12944 H 1860.95 -6.54213 5.71376 0
M  V30 12945 H 1861.22 -5.30492 4.44033 0
M  V30 12946 H 1860.35 -4.55889 6.76652 0
M  V30 12947 P 1856.39 -4.23843 7.83734 0
M  V30 12948 O 1856.17 -4.19407 9.29784 0
M  V30 12949 O 1855.6 -5.24426 7.09156 0
M  V30 12950 O 1856.14 -2.7935 7.20758 0
M  V30 12951 C 1857.08 -1.7299 7.50419 0
M  V30 12952 C 1856.35 -0.406376 7.57911 0
M  V30 12953 O 1856.14 0.0897726 6.21935 0
M  V30 12954 C 1854.95 -0.447224 8.1878 0
M  V30 12955 O 1854.56 0.825065 8.71101 0
M  V30 12956 C 1854.07 -0.783801 6.99623 0
M  V30 12957 C 1854.78 -0.0619192 5.85967 0
M  V30 12958 N 1854.73 -0.7859 4.56281 0
M  V30 12959 H 1857.57 -1.93423 8.4679 0
M  V30 12960 H 1857.84 -1.68181 6.71046 0
M  V30 12961 H 1856.97 0.289041 8.15388 0
M  V30 12962 P 1853.01 1.17771 8.83182 0
M  V30 12963 O 1852.79 2.07206 9.98732 0
M  V30 12964 O 1852.22 -0.0743816 8.81969 0
M  V30 12965 O 1852.76 1.97652 7.47304 0
M  V30 12966 C 1853.7 3.01133 7.08783 0
M  V30 12967 C 1852.97 4.12613 6.37049 0
M  V30 12968 O 1852.76 3.72827 4.97879 0
M  V30 12969 C 1851.57 4.45085 6.88694 0
M  V30 12970 O 1851.18 5.7877 6.5624 0
M  V30 12971 C 1850.69 3.47817 6.12078 0
M  V30 12972 C 1851.4 3.39414 4.77697 0
M  V30 12973 N 1851.35 2.04199 4.15538 0
M  V30 12974 H 1854.19 3.41248 7.98759 0
M  V30 12975 H 1854.46 2.57728 6.42 0
M  V30 12976 H 1853.59 5.02657 6.42673 0
M  V30 12977 H 1850.94 4.11708 4.08956 0
M  V30 12978 H 1850.66 2.49626 6.61679 0
M  V30 12979 H 1849.67 3.8662 6.00862 0
M  V30 12980 H 1851.5 4.29991 7.97006 0
M  V30 12981 P 1849.63 6.144 6.45285 0
M  V30 12982 O 1849.41 7.54673 6.86199 0
M  V30 12983 O 1848.84 5.12391 7.179 0
M  V30 12984 O 1849.38 5.99158 4.88404 0
M  V30 12985 C 1850.32 6.60234 3.96415 0
M  V30 12986 C 1849.59 7.08259 2.72856 0
M  V30 12987 O 1849.38 5.9427 1.83651 0
M  V30 12988 C 1848.19 7.64886 2.9555 0
M  V30 12989 O 1847.8 8.53963 1.90717 0
M  V30 12990 C 1847.31 6.4116 2.90739 0
M  V30 12991 C 1848.02 5.55375 1.86963 0
M  V30 12992 N 1847.97 4.09664 2.15742 0
M  V30 12993 H 1850.81 7.45574 4.45629 0
M  V30 12994 H 1851.08 5.86232 3.67314 0
M  V30 12995 H 1850.21 7.84412 2.24479 0
M  V30 12996 P 1846.25 8.7635 1.60911 0
M  V30 12997 O 1846.03 10.1388 1.11561 0
M  V30 12998 O 1845.46 8.36503 2.79617 0
M  V30 12999 O 1846 7.71806 0.42951 0
M  V30 13000 C 1846.94 7.67148 -0.673689 0
M  V30 13001 C 1846.21 7.33374 -1.95559 0
M  V30 13002 O 1846 5.88721 -2.00726 0
M  V30 13003 C 1844.81 7.92526 -2.10483 0
M  V30 13004 O 1844.42 8.02971 -3.47653 0
M  V30 13005 C 1843.93 6.89602 -1.41652 0
M  V30 13006 C 1844.64 5.59201 -1.75185 0
M  V30 13007 N 1844.59 4.58235 -0.662552 0
M  V30 13008 H 1847.43 8.65116 -0.777161 0
M  V30 13009 H 1847.7 6.90173 -0.474152 0
M  V30 13010 H 1846.83 7.66548 -2.79458 0
M  V30 13011 P 1842.87 8.03563 -3.84925 0
M  V30 13012 O 1842.65 8.85821 -5.0569 0
M  V30 13013 O 1842.08 8.41101 -2.65469 0
M  V30 13014 O 1842.62 6.4965 -4.18908 0
M  V30 13015 C 1843.56 5.81037 -5.05421 0
M  V30 13016 C 1842.83 4.78366 -5.89277 0
M  V30 13017 O 1842.62 3.58302 -5.08433 0
M  V30 13018 C 1841.43 5.17448 -6.36119 0
M  V30 13019 O 1841.04 4.45271 -7.53232 0
M  V30 13020 C 1840.55 4.74639 -5.19936 0
M  V30 13021 C 1841.26 3.49432 -4.70418 0
M  V30 13022 N 1841.21 3.31776 -3.22945 0
M  V30 13023 H 1844.05 6.54213 -5.71376 0
M  V30 13024 H 1844.32 5.30492 -4.44033 0
M  V30 13025 H 1843.45 4.55889 -6.76652 0
M  V30 13026 P 1839.49 4.23843 -7.83734 0
M  V30 13027 O 1839.27 4.19407 -9.29784 0
M  V30 13028 O 1838.7 5.24426 -7.09156 0
M  V30 13029 O 1839.24 2.7935 -7.20758 0
M  V30 13030 C 1840.18 1.7299 -7.50419 0
M  V30 13031 C 1839.45 0.406376 -7.57911 0
M  V30 13032 O 1839.24 -0.0897726 -6.21935 0
M  V30 13033 C 1838.05 0.447224 -8.1878 0
M  V30 13034 O 1837.66 -0.825065 -8.71101 0
M  V30 13035 C 1837.17 0.783801 -6.99623 0
M  V30 13036 C 1837.88 0.0619192 -5.85967 0
M  V30 13037 N 1837.83 0.790462 -4.56202 0
M  V30 13038 H 1840.67 1.93423 -8.4679 0
M  V30 13039 H 1840.94 1.68852 -6.70877 0
M  V30 13040 H 1840.07 -0.289041 -8.15388 0
M  V30 13041 H 1837.42 -0.927006 -5.72848 0
M  V30 13042 H 1837.14 1.86973 -6.82036 0
M  V30 13043 H 1836.15 0.403953 -7.13357 0
M  V30 13044 H 1837.98 1.20599 -8.97534 0
M  V30 13045 P 1836.11 -1.17771 -8.83182 0
M  V30 13046 O 1835.89 -2.07206 -9.98732 0
M  V30 13047 O 1835.32 0.0743816 -8.81969 0
M  V30 13048 O 1835.86 -1.97652 -7.47304 0
M  V30 13049 C 1836.8 -3.01133 -7.08783 0
M  V30 13050 C 1836.07 -4.12613 -6.37049 0
M  V30 13051 O 1835.86 -3.72827 -4.97879 0
M  V30 13052 C 1834.67 -4.45085 -6.88694 0
M  V30 13053 O 1834.28 -5.7877 -6.5624 0
M  V30 13054 C 1833.79 -3.47817 -6.12078 0
M  V30 13055 C 1834.5 -3.39414 -4.77697 0
M  V30 13056 N 1834.45 -2.04199 -4.15538 0
M  V30 13057 H 1837.29 -3.41248 -7.98759 0
M  V30 13058 H 1837.56 -2.57728 -6.42 0
M  V30 13059 H 1836.69 -5.02657 -6.42673 0
M  V30 13060 H 1834.04 -4.11708 -4.08956 0
M  V30 13061 H 1833.76 -2.49626 -6.61679 0
M  V30 13062 H 1832.77 -3.8662 -6.00862 0
M  V30 13063 H 1834.6 -4.29991 -7.97006 0
M  V30 13064 P 1832.73 -6.144 -6.45285 0
M  V30 13065 O 1832.51 -7.54673 -6.86199 0
M  V30 13066 O 1831.94 -5.12391 -7.179 0
M  V30 13067 O 1832.48 -5.99158 -4.88404 0
M  V30 13068 C 1833.42 -6.60234 -3.96415 0
M  V30 13069 C 1832.69 -7.08259 -2.72856 0
M  V30 13070 O 1832.48 -5.9427 -1.83651 0
M  V30 13071 C 1831.29 -7.64886 -2.9555 0
M  V30 13072 O 1830.9 -8.53963 -1.90717 0
M  V30 13073 C 1830.41 -6.4116 -2.90739 0
M  V30 13074 C 1831.12 -5.55375 -1.86963 0
M  V30 13075 N 1831.07 -4.09448 -2.16152 0
M  V30 13076 C 1831.15 -3.46824 -3.37593 0
M  V30 13077 N 1831.08 -2.17422 -3.29777 0
M  V30 13078 C 1830.93 -1.93065 -1.94427 0
M  V30 13079 C 1830.8 -0.738053 -1.20141 0
M  V30 13080 N 1830.79 0.474256 -1.74676 0
M  V30 13081 N 1830.68 -0.850049 0.13045 0
M  V30 13082 C 1830.69 -2.06169 0.676992 0
M  V30 13083 N 1830.81 -3.23842 0.101312 0
M  V30 13084 C 1830.93 -3.09402 -1.23122 0
M  V30 13085 H 1833.91 -7.45574 -4.45629 0
M  V30 13086 H 1834.18 -5.85864 -3.679 0
M  V30 13087 H 1833.31 -7.84412 -2.24479 0
M  V30 13088 H 1830.66 -5.73457 -0.888562 0
M  V30 13089 H 1830.38 -5.90877 -3.88583 0
M  V30 13090 H 1829.39 -6.6596 -2.58858 0
M  V30 13091 H 1831.22 -8.16339 -3.92049 0
M  V30 13092 H 1831.26 -4.00505 -4.3174 0
M  V30 13093 H 1830.88 0.581337 -2.76658 0
M  V30 13094 H 1830.69 1.30811 -1.14888 0
M  V30 13095 H 1830.58 -2.08295 1.75542 0
M  V30 13096 P 1829.35 -8.7635 -1.60911 0
M  V30 13097 O 1829.13 -10.1388 -1.11561 0
M  V30 13098 O 1828.56 -8.36503 -2.79617 0
M  V30 13099 O 1829.1 -7.71806 -0.42951 0
M  V30 13100 C 1830.04 -7.66948 0.673514 0
M  V30 13101 C 1829.31 -7.33374 1.95559 0
M  V30 13102 O 1829.1 -5.88721 2.00726 0
M  V30 13103 C 1827.91 -7.92218 2.1125 0
M  V30 13104 O 1827.52 -8.02971 3.47653 0
M  V30 13105 C 1827.03 -6.89504 1.41631 0
M  V30 13106 C 1827.74 -5.59106 1.75155 0
M  V30 13107 N 1827.69 -4.58136 0.662409 0
M  V30 13108 C 1827.54 -3.26059 1.02863 0
M  V30 13109 O 1827.45 -2.90743 2.19009 0
M  V30 13110 N 1827.5 -2.35995 -0.0155585 0
M  V30 13111 C 1827.59 -2.65248 -1.35603 0
M  V30 13112 O 1827.54 -1.75605 -2.20651 0
M  V30 13113 C 1827.74 -4.05747 -1.64698 0
M  V30 13114 C 1827.85 -4.42345 -3.09553 0
M  V30 13115 C 1827.79 -4.96734 -0.652411 0
M  V30 13116 H 1830.53 -8.64917 0.776982 0
M  V30 13117 H 1830.8 -6.89974 0.474015 0
M  V30 13118 H 1829.93 -7.66548 2.79458 0
M  V30 13119 H 1827.28 -5.16076 2.65138 0
M  V30 13120 H 1827 -7.06433 0.329384 0
M  V30 13121 H 1826.01 -6.90829 1.81996 0
M  V30 13122 H 1827.84 -8.90774 1.62639 0
M  V30 13123 H 1827.91 -6.02181 -0.895285 0
M  V30 13124 H 1826.88 -4.80252 -3.45468 0
M  V30 13125 H 1828.62 -5.20015 -3.22119 0
M  V30 13126 H 1828.13 -3.53269 -3.67833 0
M  V30 13127 H 1827.39 -1.39558 0.227499 0
M  V30 13128 P 1825.97 -8.03563 3.84925 0
M  V30 13129 O 1825.75 -8.85821 5.0569 0
M  V30 13130 O 1825.18 -8.41101 2.65469 0
M  V30 13131 O 1825.72 -6.4965 4.18908 0
M  V30 13132 C 1826.66 -5.81037 5.05421 0
M  V30 13133 C 1825.93 -4.78366 5.89277 0
M  V30 13134 O 1825.72 -3.58302 5.08433 0
M  V30 13135 C 1824.53 -5.17448 6.36119 0
M  V30 13136 O 1824.14 -4.45271 7.53232 0
M  V30 13137 C 1823.65 -4.74639 5.19936 0
M  V30 13138 C 1824.36 -3.49432 4.70418 0
M  V30 13139 N 1824.31 -3.31776 3.22945 0
M  V30 13140 H 1827.15 -6.54213 5.71376 0
M  V30 13141 H 1827.42 -5.30492 4.44033 0
M  V30 13142 H 1826.55 -4.55889 6.76652 0
M  V30 13143 P 1822.59 -4.23843 7.83734 0
M  V30 13144 O 1822.37 -4.19407 9.29784 0
M  V30 13145 O 1821.8 -5.24426 7.09156 0
M  V30 13146 O 1822.34 -2.7935 7.20758 0
M  V30 13147 C 1823.28 -1.7299 7.50419 0
M  V30 13148 C 1822.55 -0.406376 7.57911 0
M  V30 13149 O 1822.34 0.0897726 6.21935 0
M  V30 13150 C 1821.15 -0.447224 8.1878 0
M  V30 13151 O 1820.76 0.825065 8.71101 0
M  V30 13152 C 1820.27 -0.783801 6.99623 0
M  V30 13153 C 1820.98 -0.0619192 5.85967 0
M  V30 13154 N 1820.93 -0.7859 4.56281 0
M  V30 13155 H 1823.77 -1.93423 8.4679 0
M  V30 13156 H 1824.04 -1.68181 6.71046 0
M  V30 13157 H 1823.17 0.289041 8.15388 0
M  V30 13158 P 1819.21 1.17771 8.83182 0
M  V30 13159 O 1818.99 2.07206 9.98732 0
M  V30 13160 O 1818.42 -0.0743816 8.81969 0
M  V30 13161 O 1818.96 1.97652 7.47304 0
M  V30 13162 C 1819.9 3.01133 7.08783 0
M  V30 13163 C 1819.17 4.12613 6.37049 0
M  V30 13164 O 1818.96 3.72827 4.97879 0
M  V30 13165 C 1817.77 4.45085 6.88694 0
M  V30 13166 O 1817.38 5.7877 6.5624 0
M  V30 13167 C 1816.89 3.47817 6.12078 0
M  V30 13168 C 1817.6 3.39414 4.77697 0
M  V30 13169 N 1817.55 2.04199 4.15538 0
M  V30 13170 H 1820.39 3.41248 7.98759 0
M  V30 13171 H 1820.66 2.57728 6.42 0
M  V30 13172 H 1819.79 5.02657 6.42673 0
M  V30 13173 H 1817.14 4.11708 4.08956 0
M  V30 13174 H 1816.86 2.49626 6.61679 0
M  V30 13175 H 1815.87 3.8662 6.00862 0
M  V30 13176 H 1817.7 4.29991 7.97006 0
M  V30 13177 P 1815.83 6.144 6.45285 0
M  V30 13178 O 1815.61 7.54673 6.86199 0
M  V30 13179 O 1815.04 5.12391 7.179 0
M  V30 13180 O 1815.58 5.99158 4.88404 0
M  V30 13181 C 1816.52 6.60234 3.96415 0
M  V30 13182 C 1815.79 7.08259 2.72856 0
M  V30 13183 O 1815.58 5.9427 1.83651 0
M  V30 13184 C 1814.39 7.64886 2.9555 0
M  V30 13185 O 1814 8.53963 1.90717 0
M  V30 13186 C 1813.51 6.4116 2.90739 0
M  V30 13187 C 1814.22 5.55375 1.86963 0
M  V30 13188 N 1814.17 4.09664 2.15742 0
M  V30 13189 H 1817.01 7.45574 4.45629 0
M  V30 13190 H 1817.28 5.86232 3.67314 0
M  V30 13191 H 1816.41 7.84412 2.24479 0
M  V30 13192 P 1812.45 8.7635 1.60911 0
M  V30 13193 O 1812.23 10.1388 1.11561 0
M  V30 13194 O 1811.66 8.36503 2.79617 0
M  V30 13195 O 1812.2 7.71806 0.42951 0
M  V30 13196 C 1813.14 7.67148 -0.673689 0
M  V30 13197 C 1812.41 7.33374 -1.95559 0
M  V30 13198 O 1812.2 5.88721 -2.00726 0
M  V30 13199 C 1811.01 7.92526 -2.10483 0
M  V30 13200 O 1810.62 8.02971 -3.47653 0
M  V30 13201 C 1810.13 6.89602 -1.41652 0
M  V30 13202 C 1810.84 5.59201 -1.75185 0
M  V30 13203 N 1810.79 4.58235 -0.662552 0
M  V30 13204 H 1813.63 8.65116 -0.777161 0
M  V30 13205 H 1813.9 6.90173 -0.474152 0
M  V30 13206 H 1813.03 7.66548 -2.79458 0
M  V30 13207 P 1809.07 8.03563 -3.84925 0
M  V30 13208 O 1808.85 8.85821 -5.0569 0
M  V30 13209 O 1808.28 8.41101 -2.65469 0
M  V30 13210 O 1808.82 6.4965 -4.18908 0
M  V30 13211 C 1809.76 5.80886 -5.05289 0
M  V30 13212 C 1809.03 4.78366 -5.89277 0
M  V30 13213 O 1808.82 3.58302 -5.08433 0
M  V30 13214 C 1807.63 5.16748 -6.36559 0
M  V30 13215 O 1807.24 4.45271 -7.53232 0
M  V30 13216 C 1806.75 4.74572 -5.19863 0
M  V30 13217 C 1807.46 3.49373 -4.70338 0
M  V30 13218 N 1807.41 3.31704 -3.22876 0
M  V30 13219 C 1807.26 2.03326 -2.74871 0
M  V30 13220 O 1807.17 1.06486 -3.48076 0
M  V30 13221 N 1807.22 1.91838 -1.37456 0
M  V30 13222 C 1807.31 2.94295 -0.462035 0
M  V30 13223 O 1807.26 2.71763 0.752928 0
M  V30 13224 C 1807.46 4.25064 -1.05249 0
M  V30 13225 C 1807.57 5.39815 -0.095697 0
M  V30 13226 C 1807.51 4.40214 -2.39192 0
M  V30 13227 H 1810.25 6.54063 -5.71245 0
M  V30 13228 H 1810.52 5.30339 -4.43905 0
M  V30 13229 H 1809.65 4.55889 -6.76652 0
M  V30 13230 H 1807 2.6167 -5.17842 0
M  V30 13231 H 1806.72 5.52155 -4.41878 0
M  V30 13232 H 1805.73 4.51918 -5.53297 0
M  V30 13233 H 1807.56 6.25055 -6.55162 0
M  V30 13234 H 1807.63 5.39798 -2.81523 0
M  V30 13235 H 1806.6 5.91593 -0.0279582 0
M  V30 13236 H 1808.34 6.10038 -0.450573 0
M  V30 13237 H 1807.85 5.02007 0.89937 0
M  V30 13238 H 1807.11 0.995326 -1.00435 0
M  V30 13239 P 1805.69 4.23843 -7.83734 0
M  V30 13240 O 1805.47 4.19407 -9.29784 0
M  V30 13241 O 1804.9 5.24426 -7.09156 0
M  V30 13242 O 1805.44 2.7935 -7.20758 0
M  V30 13243 C 1806.38 1.7299 -7.50419 0
M  V30 13244 C 1805.65 0.406376 -7.57911 0
M  V30 13245 O 1805.44 -0.0897726 -6.21935 0
M  V30 13246 C 1804.25 0.447224 -8.1878 0
M  V30 13247 O 1803.86 -0.825065 -8.71101 0
M  V30 13248 C 1803.37 0.783801 -6.99623 0
M  V30 13249 C 1804.08 0.0619192 -5.85967 0
M  V30 13250 N 1804.03 0.7859 -4.56281 0
M  V30 13251 H 1806.87 1.93423 -8.4679 0
M  V30 13252 H 1807.14 1.68181 -6.71046 0
M  V30 13253 H 1806.27 -0.289041 -8.15388 0
M  V30 13254 P 1802.31 -1.17771 -8.83182 0
M  V30 13255 O 1802.09 -2.07206 -9.98732 0
M  V30 13256 O 1801.52 0.0743816 -8.81969 0
M  V30 13257 O 1802.06 -1.97652 -7.47304 0
M  V30 13258 C 1803 -3.01133 -7.08783 0
M  V30 13259 C 1802.27 -4.12613 -6.37049 0
M  V30 13260 O 1802.06 -3.72827 -4.97879 0
M  V30 13261 C 1800.87 -4.45085 -6.88694 0
M  V30 13262 O 1800.48 -5.7877 -6.5624 0
M  V30 13263 C 1799.99 -3.47817 -6.12078 0
M  V30 13264 C 1800.7 -3.39414 -4.77697 0
M  V30 13265 N 1800.65 -2.04615 -4.15333 0
M  V30 13266 H 1803.49 -3.41248 -7.98759 0
M  V30 13267 H 1803.76 -2.5837 -6.41742 0
M  V30 13268 H 1802.89 -5.02657 -6.42673 0
M  V30 13269 P 1798.93 -6.144 -6.45285 0
M  V30 13270 O 1798.71 -7.54673 -6.86199 0
M  V30 13271 O 1798.14 -5.12391 -7.179 0
M  V30 13272 O 1798.68 -5.99158 -4.88404 0
M  V30 13273 C 1799.62 -6.60234 -3.96415 0
M  V30 13274 C 1798.89 -7.08259 -2.72856 0
M  V30 13275 O 1798.68 -5.9427 -1.83651 0
M  V30 13276 C 1797.49 -7.64886 -2.9555 0
M  V30 13277 O 1797.1 -8.53963 -1.90717 0
M  V30 13278 C 1796.61 -6.4116 -2.90739 0
M  V30 13279 C 1797.32 -5.55375 -1.86963 0
M  V30 13280 N 1797.27 -4.09664 -2.15742 0
M  V30 13281 H 1800.11 -7.45574 -4.45629 0
M  V30 13282 H 1800.38 -5.86232 -3.67314 0
M  V30 13283 H 1799.51 -7.84412 -2.24479 0
M  V30 13284 P 1795.55 -8.7635 -1.60911 0
M  V30 13285 O 1795.33 -10.1388 -1.11561 0
M  V30 13286 O 1794.76 -8.36503 -2.79617 0
M  V30 13287 O 1795.3 -7.71806 -0.42951 0
M  V30 13288 C 1796.24 -7.67148 0.673689 0
M  V30 13289 C 1795.51 -7.33374 1.95559 0
M  V30 13290 O 1795.3 -5.88721 2.00726 0
M  V30 13291 C 1794.11 -7.92526 2.10483 0
M  V30 13292 O 1793.72 -8.02971 3.47653 0
M  V30 13293 C 1793.23 -6.89602 1.41652 0
M  V30 13294 C 1793.94 -5.59201 1.75185 0
M  V30 13295 N 1793.89 -4.58235 0.662552 0
M  V30 13296 H 1796.73 -8.65116 0.777161 0
M  V30 13297 H 1797 -6.90173 0.474152 0
M  V30 13298 H 1796.13 -7.66548 2.79458 0
M  V30 13299 P 1792.17 -8.03563 3.84925 0
M  V30 13300 O 1791.95 -8.85821 5.0569 0
M  V30 13301 O 1791.38 -8.41101 2.65469 0
M  V30 13302 O 1791.92 -6.4965 4.18908 0
M  V30 13303 C 1792.86 -5.81037 5.05421 0
M  V30 13304 C 1792.13 -4.78366 5.89277 0
M  V30 13305 O 1791.92 -3.58302 5.08433 0
M  V30 13306 C 1790.73 -5.17448 6.36119 0
M  V30 13307 O 1790.34 -4.45271 7.53232 0
M  V30 13308 C 1789.85 -4.74639 5.19936 0
M  V30 13309 C 1790.56 -3.49432 4.70418 0
M  V30 13310 N 1790.51 -3.31776 3.22945 0
M  V30 13311 H 1793.35 -6.54213 5.71376 0
M  V30 13312 H 1793.62 -5.30492 4.44033 0
M  V30 13313 H 1792.75 -4.55889 6.76652 0
M  V30 13314 P 1788.79 -4.23843 7.83734 0
M  V30 13315 O 1788.57 -4.19407 9.29784 0
M  V30 13316 O 1788 -5.24426 7.09156 0
M  V30 13317 O 1788.54 -2.7935 7.20758 0
M  V30 13318 C 1789.48 -1.7299 7.50419 0
M  V30 13319 C 1788.75 -0.406376 7.57911 0
M  V30 13320 O 1788.54 0.0897726 6.21935 0
M  V30 13321 C 1787.35 -0.447224 8.1878 0
M  V30 13322 O 1786.96 0.825065 8.71101 0
M  V30 13323 C 1786.47 -0.783801 6.99623 0
M  V30 13324 C 1787.18 -0.0619192 5.85967 0
M  V30 13325 N 1787.13 -0.790462 4.56202 0
M  V30 13326 H 1789.97 -1.93423 8.4679 0
M  V30 13327 H 1790.24 -1.68852 6.70877 0
M  V30 13328 H 1789.37 0.289041 8.15388 0
M  V30 13329 H 1786.72 0.927006 5.72848 0
M  V30 13330 H 1786.44 -1.86973 6.82036 0
M  V30 13331 H 1785.45 -0.403953 7.13357 0
M  V30 13332 H 1787.28 -1.20599 8.97534 0
M  V30 13333 P 1785.41 1.17771 8.83182 0
M  V30 13334 O 1785.19 2.07206 9.98732 0
M  V30 13335 O 1784.62 -0.0743816 8.81969 0
M  V30 13336 O 1785.16 1.97652 7.47304 0
M  V30 13337 C 1786.1 3.01133 7.08783 0
M  V30 13338 C 1785.37 4.12613 6.37049 0
M  V30 13339 O 1785.16 3.72827 4.97879 0
M  V30 13340 C 1783.97 4.45085 6.88694 0
M  V30 13341 O 1783.58 5.7877 6.5624 0
M  V30 13342 C 1783.09 3.47817 6.12078 0
M  V30 13343 C 1783.8 3.39414 4.77697 0
M  V30 13344 N 1783.75 2.04615 4.15333 0
M  V30 13345 H 1786.59 3.41248 7.98759 0
M  V30 13346 H 1786.86 2.5837 6.41742 0
M  V30 13347 H 1785.99 5.02657 6.42673 0
M  V30 13348 P 1782.03 6.144 6.45285 0
M  V30 13349 O 1781.81 7.54673 6.86199 0
M  V30 13350 O 1781.24 5.12391 7.179 0
M  V30 13351 O 1781.78 5.99158 4.88404 0
M  V30 13352 C 1782.72 6.60234 3.96415 0
M  V30 13353 C 1781.99 7.08259 2.72856 0
M  V30 13354 O 1781.78 5.9427 1.83651 0
M  V30 13355 C 1780.59 7.64886 2.9555 0
M  V30 13356 O 1780.2 8.53963 1.90717 0
M  V30 13357 C 1779.71 6.4116 2.90739 0
M  V30 13358 C 1780.42 5.55375 1.86963 0
M  V30 13359 N 1780.37 4.09664 2.15742 0
M  V30 13360 H 1783.21 7.45574 4.45629 0
M  V30 13361 H 1783.48 5.86232 3.67314 0
M  V30 13362 H 1782.61 7.84412 2.24479 0
M  V30 13363 P 1778.65 8.7635 1.60911 0
M  V30 13364 O 1778.43 10.1388 1.11561 0
M  V30 13365 O 1777.86 8.36503 2.79617 0
M  V30 13366 O 1778.4 7.71806 0.42951 0
M  V30 13367 C 1779.34 7.67148 -0.673689 0
M  V30 13368 C 1778.61 7.33374 -1.95559 0
M  V30 13369 O 1778.4 5.88721 -2.00726 0
M  V30 13370 C 1777.21 7.92526 -2.10483 0
M  V30 13371 O 1776.82 8.02971 -3.47653 0
M  V30 13372 C 1776.33 6.89602 -1.41652 0
M  V30 13373 C 1777.04 5.59201 -1.75185 0
M  V30 13374 N 1776.99 4.58235 -0.662552 0
M  V30 13375 H 1779.83 8.65116 -0.777161 0
M  V30 13376 H 1780.1 6.90173 -0.474152 0
M  V30 13377 H 1779.23 7.66548 -2.79458 0
M  V30 13378 P 1775.27 8.03563 -3.84925 0
M  V30 13379 O 1775.05 8.85821 -5.0569 0
M  V30 13380 O 1774.48 8.41101 -2.65469 0
M  V30 13381 O 1775.02 6.4965 -4.18908 0
M  V30 13382 C 1775.96 5.80886 -5.05289 0
M  V30 13383 C 1775.23 4.78366 -5.89277 0
M  V30 13384 O 1775.02 3.58302 -5.08433 0
M  V30 13385 C 1773.83 5.16748 -6.36559 0
M  V30 13386 O 1773.44 4.45271 -7.53232 0
M  V30 13387 C 1772.95 4.74572 -5.19863 0
M  V30 13388 C 1773.66 3.49373 -4.70338 0
M  V30 13389 N 1773.61 3.31704 -3.22876 0
M  V30 13390 C 1773.46 2.03326 -2.74871 0
M  V30 13391 O 1773.37 1.06486 -3.48076 0
M  V30 13392 N 1773.42 1.91838 -1.37456 0
M  V30 13393 C 1773.51 2.94295 -0.462035 0
M  V30 13394 C 1773.66 4.25064 -1.05249 0
M  V30 13395 C 1773.71 4.40214 -2.39192 0
M  V30 13396 H 1776.45 6.54063 -5.71245 0
M  V30 13397 H 1776.72 5.30339 -4.43905 0
M  V30 13398 H 1775.85 4.55889 -6.76652 0
M  V30 13399 H 1773.2 2.6167 -5.17842 0
M  V30 13400 H 1772.92 5.52155 -4.41878 0
M  V30 13401 H 1771.93 4.51918 -5.53297 0
M  V30 13402 H 1773.76 6.25055 -6.55162 0
M  V30 13403 H 1773.83 5.39798 -2.81523 0
M  V30 13404 P 1771.89 4.23843 -7.83734 0
M  V30 13405 O 1771.67 4.19407 -9.29784 0
M  V30 13406 O 1771.1 5.24426 -7.09156 0
M  V30 13407 O 1771.64 2.7935 -7.20758 0
M  V30 13408 C 1772.58 1.72945 -7.50224 0
M  V30 13409 C 1771.85 0.406376 -7.57911 0
M  V30 13410 O 1771.64 -0.0897726 -6.21935 0
M  V30 13411 C 1770.45 0.438983 -8.18724 0
M  V30 13412 O 1770.06 -0.825065 -8.71101 0
M  V30 13413 C 1769.57 0.783689 -6.99524 0
M  V30 13414 C 1770.28 0.0619086 -5.85867 0
M  V30 13415 N 1770.23 0.78573 -4.56183 0
M  V30 13416 C 1770.08 0.0292889 -3.41887 0
M  V30 13417 O 1769.99 -1.18445 -3.4419 0
M  V30 13418 N 1770.04 0.744061 -2.23964 0
M  V30 13419 C 1770.13 2.10932 -2.10362 0
M  V30 13420 C 1770.28 2.8202 -3.34994 0
M  V30 13421 C 1770.33 2.15547 -4.52261 0
M  V30 13422 H 1773.07 1.93379 -8.46595 0
M  V30 13423 H 1773.34 1.68132 -6.70852 0
M  V30 13424 H 1772.47 -0.289041 -8.15388 0
M  V30 13425 H 1769.82 -0.926847 -5.72749 0
M  V30 13426 H 1769.54 1.86973 -6.82036 0
M  V30 13427 H 1768.55 0.403896 -7.13257 0
M  V30 13428 H 1770.38 1.20585 -8.97435 0
M  V30 13429 H 1770.45 2.71231 -5.45042 0
M  V30 13430 P 1768.51 -1.17771 -8.83182 0
M  V30 13431 O 1768.29 -2.07206 -9.98732 0
M  V30 13432 O 1767.72 0.0743816 -8.81969 0
M  V30 13433 O 1768.26 -1.97652 -7.47304 0
M  V30 13434 C 1769.2 -3.01133 -7.08783 0
M  V30 13435 C 1768.47 -4.12613 -6.37049 0
M  V30 13436 O 1768.26 -3.72827 -4.97879 0
M  V30 13437 C 1767.07 -4.45085 -6.88694 0
M  V30 13438 O 1766.68 -5.7877 -6.5624 0
M  V30 13439 C 1766.19 -3.47817 -6.12078 0
M  V30 13440 C 1766.9 -3.39414 -4.77697 0
M  V30 13441 N 1766.85 -2.04199 -4.15538 0
M  V30 13442 H 1769.69 -3.41248 -7.98759 0
M  V30 13443 H 1769.96 -2.57728 -6.42 0
M  V30 13444 H 1769.09 -5.02657 -6.42673 0
M  V30 13445 H 1766.44 -4.11708 -4.08956 0
M  V30 13446 H 1766.16 -2.49626 -6.61679 0
M  V30 13447 H 1765.17 -3.8662 -6.00862 0
M  V30 13448 H 1767 -4.29991 -7.97006 0
M  V30 13449 P 1765.13 -6.144 -6.45285 0
M  V30 13450 O 1764.91 -7.54673 -6.86199 0
M  V30 13451 O 1764.34 -5.12391 -7.179 0
M  V30 13452 O 1764.88 -5.99158 -4.88404 0
M  V30 13453 C 1765.82 -6.60234 -3.96415 0
M  V30 13454 C 1765.09 -7.08259 -2.72856 0
M  V30 13455 O 1764.88 -5.9427 -1.83651 0
M  V30 13456 C 1763.69 -7.64886 -2.9555 0
M  V30 13457 O 1763.3 -8.53963 -1.90717 0
M  V30 13458 C 1762.81 -6.4116 -2.90739 0
M  V30 13459 C 1763.52 -5.55375 -1.86963 0
M  V30 13460 N 1763.47 -4.09448 -2.16152 0
M  V30 13461 H 1766.31 -7.45574 -4.45629 0
M  V30 13462 H 1766.58 -5.85864 -3.679 0
M  V30 13463 H 1765.71 -7.84412 -2.24479 0
M  V30 13464 H 1763.06 -5.73457 -0.888562 0
M  V30 13465 H 1762.78 -5.90877 -3.88583 0
M  V30 13466 H 1761.79 -6.6596 -2.58858 0
M  V30 13467 H 1763.62 -8.16339 -3.92049 0
M  V30 13468 P 1761.75 -8.7635 -1.60911 0
M  V30 13469 O 1761.53 -10.1388 -1.11561 0
M  V30 13470 O 1760.96 -8.36503 -2.79617 0
M  V30 13471 O 1761.5 -7.71806 -0.42951 0
M  V30 13472 C 1762.44 -7.67148 0.673689 0
M  V30 13473 C 1761.71 -7.33374 1.95559 0
M  V30 13474 O 1761.5 -5.88721 2.00726 0
M  V30 13475 C 1760.31 -7.92526 2.10483 0
M  V30 13476 O 1759.92 -8.02971 3.47653 0
M  V30 13477 C 1759.43 -6.89602 1.41652 0
M  V30 13478 C 1760.14 -5.59201 1.75185 0
M  V30 13479 N 1760.09 -4.58235 0.662552 0
M  V30 13480 H 1762.93 -8.65116 0.777161 0
M  V30 13481 H 1763.2 -6.90173 0.474152 0
M  V30 13482 H 1762.33 -7.66548 2.79458 0
M  V30 13483 P 1758.37 -8.03563 3.84925 0
M  V30 13484 O 1758.15 -8.85821 5.0569 0
M  V30 13485 O 1757.58 -8.41101 2.65469 0
M  V30 13486 O 1758.12 -6.4965 4.18908 0
M  V30 13487 C 1759.06 -5.81037 5.05421 0
M  V30 13488 C 1758.33 -4.78366 5.89277 0
M  V30 13489 O 1758.12 -3.58302 5.08433 0
M  V30 13490 C 1756.93 -5.17448 6.36119 0
M  V30 13491 O 1756.54 -4.45271 7.53232 0
M  V30 13492 C 1756.05 -4.74639 5.19936 0
M  V30 13493 C 1756.76 -3.49432 4.70418 0
M  V30 13494 N 1756.71 -3.31776 3.22945 0
M  V30 13495 H 1759.55 -6.54213 5.71376 0
M  V30 13496 H 1759.82 -5.30492 4.44033 0
M  V30 13497 H 1758.95 -4.55889 6.76652 0
M  V30 13498 P 1754.99 -4.23843 7.83734 0
M  V30 13499 O 1754.77 -4.19407 9.29784 0
M  V30 13500 O 1754.2 -5.24426 7.09156 0
M  V30 13501 O 1754.74 -2.7935 7.20758 0
M  V30 13502 C 1755.68 -1.7299 7.50419 0
M  V30 13503 C 1754.95 -0.406376 7.57911 0
M  V30 13504 O 1754.74 0.0897726 6.21935 0
M  V30 13505 C 1753.55 -0.447224 8.1878 0
M  V30 13506 O 1753.16 0.825065 8.71101 0
M  V30 13507 C 1752.67 -0.783801 6.99623 0
M  V30 13508 C 1753.38 -0.0619192 5.85967 0
M  V30 13509 N 1753.33 -0.7859 4.56281 0
M  V30 13510 H 1756.17 -1.93423 8.4679 0
M  V30 13511 H 1756.44 -1.68181 6.71046 0
M  V30 13512 H 1755.57 0.289041 8.15388 0
M  V30 13513 P 1751.61 1.17771 8.83182 0
M  V30 13514 O 1751.39 2.07206 9.98732 0
M  V30 13515 O 1750.82 -0.0743816 8.81969 0
M  V30 13516 O 1751.36 1.97652 7.47304 0
M  V30 13517 C 1752.3 3.01133 7.08783 0
M  V30 13518 C 1751.57 4.12613 6.37049 0
M  V30 13519 O 1751.36 3.72827 4.97879 0
M  V30 13520 C 1750.17 4.45085 6.88694 0
M  V30 13521 O 1749.78 5.7877 6.5624 0
M  V30 13522 C 1749.29 3.47817 6.12078 0
M  V30 13523 C 1750 3.39414 4.77697 0
M  V30 13524 N 1749.95 2.04199 4.15538 0
M  V30 13525 H 1752.79 3.41248 7.98759 0
M  V30 13526 H 1753.06 2.57728 6.42 0
M  V30 13527 H 1752.19 5.02657 6.42673 0
M  V30 13528 H 1749.54 4.11708 4.08956 0
M  V30 13529 H 1749.26 2.49626 6.61679 0
M  V30 13530 H 1748.27 3.8662 6.00862 0
M  V30 13531 H 1750.1 4.29991 7.97006 0
M  V30 13532 P 1748.23 6.144 6.45285 0
M  V30 13533 O 1748.01 7.54673 6.86199 0
M  V30 13534 O 1747.44 5.12391 7.179 0
M  V30 13535 O 1747.98 5.99158 4.88404 0
M  V30 13536 C 1748.92 6.60062 3.96313 0
M  V30 13537 C 1748.19 7.08259 2.72856 0
M  V30 13538 O 1747.98 5.9427 1.83651 0
M  V30 13539 C 1746.79 7.65087 2.94749 0
M  V30 13540 O 1746.4 8.53963 1.90717 0
M  V30 13541 C 1745.91 6.41069 2.90698 0
M  V30 13542 C 1746.62 5.5528 1.86931 0
M  V30 13543 N 1746.57 4.09575 2.15696 0
M  V30 13544 C 1746.42 3.24249 1.08435 0
M  V30 13545 O 1746.33 3.63946 -0.0628747 0
M  V30 13546 N 1746.38 1.90009 1.39973 0
M  V30 13547 C 1746.47 1.34884 2.65614 0
M  V30 13548 C 1746.62 2.3145 3.71736 0
M  V30 13549 C 1746.67 3.63518 3.44754 0
M  V30 13550 H 1749.41 7.45402 4.45526 0
M  V30 13551 H 1749.68 5.86062 3.67208 0
M  V30 13552 H 1748.81 7.84412 2.24479 0
M  V30 13553 H 1746.16 5.73358 0.888409 0
M  V30 13554 H 1745.88 5.90877 3.88583 0
M  V30 13555 H 1744.89 6.65867 2.58821 0
M  V30 13556 H 1746.72 8.16248 3.92006 0
M  V30 13557 H 1746.79 4.34551 4.26383 0
M  V30 13558 P 1744.85 8.7635 1.60911 0
M  V30 13559 O 1744.63 10.1388 1.11561 0
M  V30 13560 O 1744.06 8.36503 2.79617 0
M  V30 13561 O 1744.6 7.71806 0.42951 0
M  V30 13562 C 1745.54 7.67148 -0.673689 0
M  V30 13563 C 1744.81 7.33374 -1.95559 0
M  V30 13564 O 1744.6 5.88721 -2.00726 0
M  V30 13565 C 1743.41 7.92526 -2.10483 0
M  V30 13566 O 1743.02 8.02971 -3.47653 0
M  V30 13567 C 1742.53 6.89602 -1.41652 0
M  V30 13568 C 1743.24 5.59201 -1.75185 0
M  V30 13569 N 1743.19 4.58301 -0.657969 0
M  V30 13570 H 1746.03 8.65116 -0.777161 0
M  V30 13571 H 1746.3 6.9022 -0.46725 0
M  V30 13572 H 1745.43 7.66548 -2.79458 0
M  V30 13573 H 1742.78 5.16165 -2.65183 0
M  V30 13574 H 1742.5 7.06433 -0.329384 0
M  V30 13575 H 1741.51 6.90926 -1.82021 0
M  V30 13576 H 1743.34 8.90873 -1.62657 0
M  V30 13577 P 1741.47 8.03563 -3.84925 0
M  V30 13578 O 1741.25 8.85821 -5.0569 0
M  V30 13579 O 1740.68 8.41101 -2.65469 0
M  V30 13580 O 1741.22 6.4965 -4.18908 0
M  V30 13581 C 1742.16 5.81037 -5.05421 0
M  V30 13582 C 1741.43 4.78366 -5.89277 0
M  V30 13583 O 1741.22 3.58302 -5.08433 0
M  V30 13584 C 1740.03 5.17448 -6.36119 0
M  V30 13585 O 1739.64 4.45271 -7.53232 0
M  V30 13586 C 1739.15 4.74639 -5.19936 0
M  V30 13587 C 1739.86 3.49432 -4.70418 0
M  V30 13588 N 1739.81 3.32099 -3.22613 0
M  V30 13589 H 1742.65 6.54213 -5.71376 0
M  V30 13590 H 1742.92 5.30936 -4.43503 0
M  V30 13591 H 1742.05 4.55889 -6.76652 0
M  V30 13592 H 1739.4 2.61715 -5.17932 0
M  V30 13593 H 1739.12 5.52155 -4.41878 0
M  V30 13594 H 1738.13 4.51981 -5.53374 0
M  V30 13595 H 1739.96 6.25124 -6.55234 0
M  V30 13596 P 1738.09 4.23843 -7.83734 0
M  V30 13597 O 1737.87 4.19407 -9.29784 0
M  V30 13598 O 1737.3 5.24426 -7.09156 0
M  V30 13599 O 1737.84 2.79386 -7.20852 0
M  V30 13600 C 1738.78 1.7299 -7.50419 0
M  V30 13601 C 1738.05 0.41401 -7.5797 0
M  V30 13602 O 1737.84 -0.089787 -6.22035 0
M  V30 13603 C 1736.65 0.447224 -8.1878 0
M  V30 13604 O 1736.26 -0.825159 -8.71201 0
M  V30 13605 C 1735.77 0.783801 -6.99623 0
M  V30 13606 C 1736.48 0.0619192 -5.85967 0
M  V30 13607 N 1736.43 0.7859 -4.56281 0
M  V30 13608 C 1736.28 0.0359258 -3.39981 0
M  V30 13609 O 1736.19 -1.19723 -3.49038 0
M  V30 13610 N 1736.23 0.869151 -2.14025 0
M  V30 13611 C 1736.33 2.01207 -2.14363 0
M  V30 13612 N 1736.28 2.58978 -0.954287 0
M  V30 13613 C 1736.48 2.80817 -3.32215 0
M  V30 13614 C 1736.53 2.13785 -4.50884 0
M  V30 13615 H 1739.27 1.93401 -8.46693 0
M  V30 13616 H 1739.54 1.68181 -6.71046 0
M  V30 13617 H 1738.67 -0.289076 -8.15488 0
M  V30 13618 H 1736.02 -0.927166 -5.72947 0
M  V30 13619 H 1735.74 1.87 -6.82132 0
M  V30 13620 H 1734.75 0.404009 -7.13457 0
M  V30 13621 H 1736.58 1.20599 -8.97534 0
M  V30 13622 H 1736.65 2.70295 -5.43162 0
M  V30 13623 H 1736.55 3.89465 -3.27406 0
M  V30 13624 H 1736.16 2.01616 -0.107046 0
M  V30 13625 H 1736.36 3.61403 -0.873101 0
M  V30 13626 P 1734.71 -1.17771 -8.83182 0
M  V30 13627 O 1734.49 -2.07206 -9.98732 0
M  V30 13628 O 1733.92 0.0743816 -8.81969 0
M  V30 13629 O 1734.46 -1.97652 -7.47304 0
M  V30 13630 C 1735.4 -3.01133 -7.08783 0
M  V30 13631 C 1734.67 -4.12613 -6.37049 0
M  V30 13632 O 1734.46 -3.72827 -4.97879 0
M  V30 13633 C 1733.27 -4.45085 -6.88694 0
M  V30 13634 O 1732.88 -5.7877 -6.5624 0
M  V30 13635 C 1732.39 -3.47817 -6.12078 0
M  V30 13636 C 1733.1 -3.39414 -4.77697 0
M  V30 13637 N 1733.05 -2.04199 -4.15538 0
M  V30 13638 H 1735.89 -3.41248 -7.98759 0
M  V30 13639 H 1736.16 -2.57728 -6.42 0
M  V30 13640 H 1735.29 -5.02657 -6.42673 0
M  V30 13641 H 1732.64 -4.11708 -4.08956 0
M  V30 13642 H 1732.36 -2.49626 -6.61679 0
M  V30 13643 H 1731.37 -3.8662 -6.00862 0
M  V30 13644 H 1733.2 -4.29991 -7.97006 0
M  V30 13645 P 1731.33 -6.144 -6.45285 0
M  V30 13646 O 1731.11 -7.54673 -6.86199 0
M  V30 13647 O 1730.54 -5.12391 -7.179 0
M  V30 13648 O 1731.08 -5.99236 -4.88467 0
M  V30 13649 C 1732.02 -6.60234 -3.96415 0
M  V30 13650 C 1731.29 -7.08079 -2.736 0
M  V30 13651 O 1731.08 -5.94365 -1.8368 0
M  V30 13652 C 1729.89 -7.64886 -2.9555 0
M  V30 13653 O 1729.5 -8.5406 -1.90739 0
M  V30 13654 C 1729.01 -6.4116 -2.90739 0
M  V30 13655 C 1729.72 -5.55375 -1.86963 0
M  V30 13656 N 1729.67 -4.09664 -2.15742 0
M  V30 13657 C 1729.52 -3.22231 -1.08477 0
M  V30 13658 O 1729.43 -3.68951 0.0600489 0
M  V30 13659 N 1729.47 -1.76692 -1.48799 0
M  V30 13660 C 1729.57 -1.41695 -2.57602 0
M  V30 13661 N 1729.52 -0.107296 -2.75791 0
M  V30 13662 C 1729.72 -2.29178 -3.69733 0
M  V30 13663 C 1729.77 -3.62753 -3.42653 0
M  V30 13664 H 1732.51 -7.45488 -4.45578 0
M  V30 13665 H 1732.78 -5.86232 -3.67314 0
M  V30 13666 H 1731.91 -7.84508 -2.24507 0
M  V30 13667 H 1729.26 -5.73556 -0.888715 0
M  V30 13668 H 1728.98 -5.9096 -3.88638 0
M  V30 13669 H 1727.99 -6.66053 -2.58894 0
M  V30 13670 H 1729.82 -8.16339 -3.92049 0
M  V30 13671 H 1729.89 -4.33052 -4.24913 0
M  V30 13672 H 1729.79 -1.9103 -4.71577 0
M  V30 13673 H 1729.4 0.521221 -1.95056 0
M  V30 13674 H 1729.6 0.286429 -3.70695 0
M  V30 13675 P 1727.95 -8.7635 -1.60911 0
M  V30 13676 O 1727.73 -10.1388 -1.11561 0
M  V30 13677 O 1727.16 -8.36503 -2.79617 0
M  V30 13678 O 1727.7 -7.71806 -0.42951 0
M  V30 13679 C 1728.64 -7.67148 0.673689 0
M  V30 13680 C 1727.91 -7.33374 1.95559 0
M  V30 13681 O 1727.7 -5.88721 2.00726 0
M  V30 13682 C 1726.51 -7.92526 2.10483 0
M  V30 13683 O 1726.12 -8.02971 3.47653 0
M  V30 13684 C 1725.63 -6.89602 1.41652 0
M  V30 13685 C 1726.34 -5.59201 1.75185 0
M  V30 13686 N 1726.29 -4.58235 0.662552 0
M  V30 13687 H 1729.13 -8.65116 0.777161 0
M  V30 13688 H 1729.4 -6.90173 0.474152 0
M  V30 13689 H 1728.53 -7.66548 2.79458 0
M  V30 13690 P 1724.57 -8.03563 3.84925 0
M  V30 13691 O 1724.35 -8.85821 5.0569 0
M  V30 13692 O 1723.78 -8.41101 2.65469 0
M  V30 13693 O 1724.32 -6.4965 4.18908 0
M  V30 13694 C 1725.26 -5.80886 5.05289 0
M  V30 13695 C 1724.53 -4.78366 5.89277 0
M  V30 13696 O 1724.32 -3.58302 5.08433 0
M  V30 13697 C 1723.13 -5.16748 6.36559 0
M  V30 13698 O 1722.74 -4.45271 7.53232 0
M  V30 13699 C 1722.25 -4.74572 5.19863 0
M  V30 13700 C 1722.96 -3.49373 4.70338 0
M  V30 13701 N 1722.91 -3.31704 3.22876 0
M  V30 13702 C 1722.76 -2.03326 2.74871 0
M  V30 13703 O 1722.67 -1.06486 3.48076 0
M  V30 13704 N 1722.72 -1.91838 1.37456 0
M  V30 13705 C 1722.81 -2.94295 0.462035 0
M  V30 13706 O 1722.76 -2.71763 -0.752928 0
M  V30 13707 C 1722.96 -4.25064 1.05249 0
M  V30 13708 C 1723.07 -5.39815 0.095697 0
M  V30 13709 C 1723.01 -4.40214 2.39192 0
M  V30 13710 H 1725.75 -6.54063 5.71245 0
M  V30 13711 H 1726.02 -5.30339 4.43905 0
M  V30 13712 H 1725.15 -4.55889 6.76652 0
M  V30 13713 H 1722.5 -2.6167 5.17842 0
M  V30 13714 H 1722.22 -5.52155 4.41878 0
M  V30 13715 H 1721.23 -4.51918 5.53297 0
M  V30 13716 H 1723.06 -6.25055 6.55162 0
M  V30 13717 H 1723.13 -5.39798 2.81523 0
M  V30 13718 H 1722.1 -5.91593 0.0279582 0
M  V30 13719 H 1723.84 -6.10038 0.450573 0
M  V30 13720 H 1723.35 -5.02007 -0.89937 0
M  V30 13721 H 1722.61 -0.995326 1.00435 0
M  V30 13722 P 1721.19 -4.23843 7.83734 0
M  V30 13723 O 1720.97 -4.19407 9.29784 0
M  V30 13724 O 1720.4 -5.24426 7.09156 0
M  V30 13725 O 1720.94 -2.7935 7.20758 0
M  V30 13726 C 1721.88 -1.7299 7.50419 0
M  V30 13727 C 1721.15 -0.406376 7.57911 0
M  V30 13728 O 1720.94 0.0897726 6.21935 0
M  V30 13729 C 1719.75 -0.447224 8.1878 0
M  V30 13730 O 1719.36 0.825065 8.71101 0
M  V30 13731 C 1718.87 -0.783801 6.99623 0
M  V30 13732 C 1719.58 -0.0619192 5.85967 0
M  V30 13733 N 1719.53 -0.790462 4.56202 0
M  V30 13734 H 1722.37 -1.93423 8.4679 0
M  V30 13735 H 1722.64 -1.68852 6.70877 0
M  V30 13736 H 1721.77 0.289041 8.15388 0
M  V30 13737 H 1719.12 0.927006 5.72848 0
M  V30 13738 H 1718.84 -1.86973 6.82036 0
M  V30 13739 H 1717.85 -0.403953 7.13357 0
M  V30 13740 H 1719.68 -1.20599 8.97534 0
M  V30 13741 P 1717.81 1.17771 8.83182 0
M  V30 13742 O 1717.59 2.07206 9.98732 0
M  V30 13743 O 1717.02 -0.0743816 8.81969 0
M  V30 13744 O 1717.56 1.97652 7.47304 0
M  V30 13745 C 1718.5 3.01133 7.08783 0
M  V30 13746 C 1717.77 4.12613 6.37049 0
M  V30 13747 O 1717.56 3.72827 4.97879 0
M  V30 13748 C 1716.37 4.45085 6.88694 0
M  V30 13749 O 1715.98 5.7877 6.5624 0
M  V30 13750 C 1715.49 3.47817 6.12078 0
M  V30 13751 C 1716.2 3.39414 4.77697 0
M  V30 13752 N 1716.15 2.04615 4.15333 0
M  V30 13753 H 1718.99 3.41248 7.98759 0
M  V30 13754 H 1719.26 2.5837 6.41742 0
M  V30 13755 H 1718.39 5.02657 6.42673 0
M  V30 13756 P 1714.43 6.144 6.45285 0
M  V30 13757 O 1714.21 7.54673 6.86199 0
M  V30 13758 O 1713.64 5.12391 7.179 0
M  V30 13759 O 1714.18 5.99158 4.88404 0
M  V30 13760 C 1715.12 6.60234 3.96415 0
M  V30 13761 C 1714.39 7.08259 2.72856 0
M  V30 13762 O 1714.18 5.9427 1.83651 0
M  V30 13763 C 1712.99 7.64886 2.9555 0
M  V30 13764 O 1712.6 8.53963 1.90717 0
M  V30 13765 C 1712.11 6.4116 2.90739 0
M  V30 13766 C 1712.82 5.55375 1.86963 0
M  V30 13767 N 1712.77 4.09664 2.15742 0
M  V30 13768 H 1715.61 7.45574 4.45629 0
M  V30 13769 H 1715.88 5.86232 3.67314 0
M  V30 13770 H 1715.01 7.84412 2.24479 0
M  V30 13771 P 1711.05 8.7635 1.60911 0
M  V30 13772 O 1710.83 10.1388 1.11561 0
M  V30 13773 O 1710.26 8.36503 2.79617 0
M  V30 13774 O 1710.8 7.71806 0.42951 0
M  V30 13775 C 1711.74 7.66948 -0.673514 0
M  V30 13776 C 1711.01 7.33374 -1.95559 0
M  V30 13777 O 1710.8 5.88721 -2.00726 0
M  V30 13778 C 1709.61 7.92218 -2.1125 0
M  V30 13779 O 1709.22 8.02971 -3.47653 0
M  V30 13780 C 1708.73 6.89504 -1.41631 0
M  V30 13781 C 1709.44 5.59106 -1.75155 0
M  V30 13782 N 1709.39 4.58136 -0.662409 0
M  V30 13783 C 1709.24 3.26059 -1.02863 0
M  V30 13784 O 1709.15 2.90743 -2.19009 0
M  V30 13785 N 1709.2 2.35995 0.0155585 0
M  V30 13786 C 1709.29 2.65248 1.35603 0
M  V30 13787 O 1709.24 1.75605 2.20651 0
M  V30 13788 C 1709.44 4.05747 1.64698 0
M  V30 13789 C 1709.55 4.42345 3.09553 0
M  V30 13790 C 1709.49 4.96734 0.652411 0
M  V30 13791 H 1712.23 8.64917 -0.776982 0
M  V30 13792 H 1712.5 6.89974 -0.474015 0
M  V30 13793 H 1711.63 7.66548 -2.79458 0
M  V30 13794 H 1708.98 5.16076 -2.65138 0
M  V30 13795 H 1708.7 7.06433 -0.329384 0
M  V30 13796 H 1707.71 6.90829 -1.81996 0
M  V30 13797 H 1709.54 8.90774 -1.62639 0
M  V30 13798 H 1709.61 6.02181 0.895285 0
M  V30 13799 H 1708.58 4.80252 3.45468 0
M  V30 13800 H 1710.32 5.20015 3.22119 0
M  V30 13801 H 1709.83 3.53269 3.67833 0
M  V30 13802 H 1709.09 1.39558 -0.227499 0
M  V30 13803 P 1707.67 8.03563 -3.84925 0
M  V30 13804 O 1707.45 8.85821 -5.0569 0
M  V30 13805 O 1706.88 8.41101 -2.65469 0
M  V30 13806 O 1707.42 6.4965 -4.18908 0
M  V30 13807 C 1708.36 5.80886 -5.05289 0
M  V30 13808 C 1707.63 4.78366 -5.89277 0
M  V30 13809 O 1707.42 3.58302 -5.08433 0
M  V30 13810 C 1706.23 5.16748 -6.36559 0
M  V30 13811 O 1705.84 4.45271 -7.53232 0
M  V30 13812 C 1705.35 4.74572 -5.19863 0
M  V30 13813 C 1706.06 3.49373 -4.70338 0
M  V30 13814 N 1706.01 3.31704 -3.22876 0
M  V30 13815 C 1705.86 2.03326 -2.74871 0
M  V30 13816 O 1705.77 1.06486 -3.48076 0
M  V30 13817 N 1705.82 1.91838 -1.37456 0
M  V30 13818 C 1705.91 2.94295 -0.462035 0
M  V30 13819 C 1706.06 4.25064 -1.05249 0
M  V30 13820 C 1706.11 4.40214 -2.39192 0
M  V30 13821 H 1708.85 6.54063 -5.71245 0
M  V30 13822 H 1709.12 5.30339 -4.43905 0
M  V30 13823 H 1708.25 4.55889 -6.76652 0
M  V30 13824 H 1705.6 2.6167 -5.17842 0
M  V30 13825 H 1705.32 5.52155 -4.41878 0
M  V30 13826 H 1704.33 4.51918 -5.53297 0
M  V30 13827 H 1706.16 6.25055 -6.55162 0
M  V30 13828 H 1706.23 5.39798 -2.81523 0
M  V30 13829 P 1704.29 4.23843 -7.83734 0
M  V30 13830 O 1704.07 4.19407 -9.29784 0
M  V30 13831 O 1703.5 5.24426 -7.09156 0
M  V30 13832 O 1704.04 2.7935 -7.20758 0
M  V30 13833 C 1704.98 1.72945 -7.50224 0
M  V30 13834 C 1704.25 0.406376 -7.57911 0
M  V30 13835 O 1704.04 -0.0897726 -6.21935 0
M  V30 13836 C 1702.85 0.438983 -8.18724 0
M  V30 13837 O 1702.46 -0.825065 -8.71101 0
M  V30 13838 C 1701.97 0.783689 -6.99524 0
M  V30 13839 C 1702.68 0.0619086 -5.85867 0
M  V30 13840 N 1702.63 0.78573 -4.56183 0
M  V30 13841 C 1702.48 0.0292889 -3.41887 0
M  V30 13842 O 1702.39 -1.18445 -3.4419 0
M  V30 13843 N 1702.44 0.744061 -2.23964 0
M  V30 13844 C 1702.53 2.10932 -2.10362 0
M  V30 13845 O 1702.48 2.64117 -0.98825 0
M  V30 13846 C 1702.68 2.8202 -3.34994 0
M  V30 13847 C 1702.79 4.31095 -3.25037 0
M  V30 13848 C 1702.73 2.15547 -4.52261 0
M  V30 13849 H 1705.47 1.93379 -8.46595 0
M  V30 13850 H 1705.74 1.68132 -6.70852 0
M  V30 13851 H 1704.87 -0.289041 -8.15388 0
M  V30 13852 H 1702.22 -0.926847 -5.72749 0
M  V30 13853 H 1701.94 1.86973 -6.82036 0
M  V30 13854 H 1700.95 0.403896 -7.13257 0
M  V30 13855 H 1702.78 1.20585 -8.97435 0
M  V30 13856 H 1702.85 2.71231 -5.45042 0
M  V30 13857 H 1701.82 4.76966 -3.49992 0
M  V30 13858 H 1703.56 4.67047 -3.95024 0
M  V30 13859 H 1703.07 4.58996 -2.22312 0
M  V30 13860 H 1702.33 0.214893 -1.39758 0
M  V30 13861 P 1700.91 -1.17771 -8.83182 0
M  V30 13862 O 1700.69 -2.07206 -9.98732 0
M  V30 13863 O 1700.12 0.0743816 -8.81969 0
M  V30 13864 O 1700.66 -1.97652 -7.47304 0
M  V30 13865 C 1701.6 -3.01055 -7.08599 0
M  V30 13866 C 1700.87 -4.12613 -6.37049 0
M  V30 13867 O 1700.66 -3.72827 -4.97879 0
M  V30 13868 C 1699.47 -4.45719 -6.88164 0
M  V30 13869 O 1699.08 -5.7877 -6.5624 0
M  V30 13870 C 1698.59 -3.47768 -6.11991 0
M  V30 13871 C 1699.3 -3.39356 -4.77615 0
M  V30 13872 N 1699.25 -2.04571 -4.15244 0
M  V30 13873 C 1699.1 -1.98587 -2.78314 0
M  V30 13874 O 1699.01 -2.98134 -2.08835 0
M  V30 13875 N 1699.06 -0.714467 -2.24925 0
M  V30 13876 C 1699.15 0.470001 -2.94169 0
M  V30 13877 C 1699.3 0.312541 -4.36783 0
M  V30 13878 C 1699.35 -0.914512 -4.92583 0
M  V30 13879 H 1702.09 -3.41169 -7.98575 0
M  V30 13880 H 1702.36 -2.58295 -6.41556 0
M  V30 13881 H 1701.49 -5.02657 -6.42673 0
M  V30 13882 H 1698.84 -4.11637 -4.08885 0
M  V30 13883 H 1698.56 -2.49626 -6.61679 0
M  V30 13884 H 1697.57 -3.86566 -6.00778 0
M  V30 13885 H 1699.4 -4.29943 -7.96918 0
M  V30 13886 H 1699.47 -1.00937 -6.00374 0
M  V30 13887 P 1697.53 -6.144 -6.45285 0
M  V30 13888 O 1697.31 -7.54673 -6.86199 0
M  V30 13889 O 1696.74 -5.12391 -7.179 0
M  V30 13890 O 1697.28 -5.99158 -4.88404 0
M  V30 13891 C 1698.22 -6.60062 -3.96313 0
M  V30 13892 C 1697.49 -7.08259 -2.72856 0
M  V30 13893 O 1697.28 -5.9427 -1.83651 0
M  V30 13894 C 1696.09 -7.65087 -2.94749 0
M  V30 13895 O 1695.7 -8.53963 -1.90717 0
M  V30 13896 C 1695.21 -6.41069 -2.90698 0
M  V30 13897 C 1695.92 -5.5528 -1.86931 0
M  V30 13898 N 1695.87 -4.09575 -2.15696 0
M  V30 13899 C 1695.72 -3.24249 -1.08435 0
M  V30 13900 O 1695.63 -3.63946 0.0628747 0
M  V30 13901 N 1695.68 -1.90009 -1.39973 0
M  V30 13902 C 1695.77 -1.34884 -2.65614 0
M  V30 13903 C 1695.92 -2.3145 -3.71736 0
M  V30 13904 C 1695.97 -3.63518 -3.44754 0
M  V30 13905 H 1698.71 -7.45402 -4.45526 0
M  V30 13906 H 1698.98 -5.86062 -3.67208 0
M  V30 13907 H 1698.11 -7.84412 -2.24479 0
M  V30 13908 H 1695.46 -5.73358 -0.888409 0
M  V30 13909 H 1695.18 -5.90877 -3.88583 0
M  V30 13910 H 1694.19 -6.65867 -2.58821 0
M  V30 13911 H 1696.02 -8.16248 -3.92006 0
M  V30 13912 H 1696.09 -4.34551 -4.26383 0
M  V30 13913 P 1694.15 -8.7635 -1.60911 0
M  V30 13914 O 1693.93 -10.1388 -1.11561 0
M  V30 13915 O 1693.36 -8.36503 -2.79617 0
M  V30 13916 O 1693.9 -7.71806 -0.42951 0
M  V30 13917 C 1694.84 -7.67148 0.673689 0
M  V30 13918 C 1694.11 -7.33374 1.95559 0
M  V30 13919 O 1693.9 -5.88721 2.00726 0
M  V30 13920 C 1692.71 -7.92526 2.10483 0
M  V30 13921 O 1692.32 -8.02971 3.47653 0
M  V30 13922 C 1691.83 -6.89602 1.41652 0
M  V30 13923 C 1692.54 -5.59201 1.75185 0
M  V30 13924 N 1692.49 -4.58235 0.662552 0
M  V30 13925 H 1695.33 -8.65116 0.777161 0
M  V30 13926 H 1695.6 -6.90173 0.474152 0
M  V30 13927 H 1694.73 -7.66548 2.79458 0
M  V30 13928 P 1690.77 -8.03563 3.84925 0
M  V30 13929 O 1690.55 -8.85821 5.0569 0
M  V30 13930 O 1689.98 -8.41101 2.65469 0
M  V30 13931 O 1690.52 -6.4965 4.18908 0
M  V30 13932 C 1691.46 -5.81037 5.05421 0
M  V30 13933 C 1690.73 -4.78366 5.89277 0
M  V30 13934 O 1690.52 -3.58302 5.08433 0
M  V30 13935 C 1689.33 -5.17448 6.36119 0
M  V30 13936 O 1688.94 -4.45271 7.53232 0
M  V30 13937 C 1688.45 -4.74639 5.19936 0
M  V30 13938 C 1689.16 -3.49432 4.70418 0
M  V30 13939 N 1689.11 -3.31776 3.22945 0
M  V30 13940 H 1691.95 -6.54213 5.71376 0
M  V30 13941 H 1692.22 -5.30492 4.44033 0
M  V30 13942 H 1691.35 -4.55889 6.76652 0
M  V30 13943 P 1687.39 -4.23843 7.83734 0
M  V30 13944 O 1687.17 -4.19407 9.29784 0
M  V30 13945 O 1686.6 -5.24426 7.09156 0
M  V30 13946 O 1687.14 -2.7935 7.20758 0
M  V30 13947 C 1688.08 -1.72945 7.50224 0
M  V30 13948 C 1687.35 -0.406376 7.57911 0
M  V30 13949 O 1687.14 0.0897726 6.21935 0
M  V30 13950 C 1685.95 -0.438983 8.18724 0
M  V30 13951 O 1685.56 0.825065 8.71101 0
M  V30 13952 C 1685.07 -0.783689 6.99524 0
M  V30 13953 C 1685.78 -0.0619086 5.85867 0
M  V30 13954 N 1685.73 -0.78573 4.56183 0
M  V30 13955 C 1685.58 -0.0292889 3.41887 0
M  V30 13956 O 1685.49 1.18445 3.4419 0
M  V30 13957 N 1685.54 -0.744061 2.23964 0
M  V30 13958 C 1685.63 -2.10932 2.10362 0
M  V30 13959 O 1685.58 -2.64117 0.98825 0
M  V30 13960 C 1685.78 -2.8202 3.34994 0
M  V30 13961 C 1685.89 -4.31095 3.25037 0
M  V30 13962 C 1685.83 -2.15547 4.52261 0
M  V30 13963 H 1688.57 -1.93379 8.46595 0
M  V30 13964 H 1688.84 -1.68132 6.70852 0
M  V30 13965 H 1687.97 0.289041 8.15388 0
M  V30 13966 H 1685.32 0.926847 5.72749 0
M  V30 13967 H 1685.04 -1.86973 6.82036 0
M  V30 13968 H 1684.05 -0.403896 7.13257 0
M  V30 13969 H 1685.88 -1.20585 8.97435 0
M  V30 13970 H 1685.95 -2.71231 5.45042 0
M  V30 13971 H 1684.92 -4.76966 3.49992 0
M  V30 13972 H 1686.66 -4.67047 3.95024 0
M  V30 13973 H 1686.17 -4.58996 2.22312 0
M  V30 13974 H 1685.44 -0.214893 1.39758 0
M  V30 13975 P 1684.01 1.17771 8.83182 0
M  V30 13976 O 1683.79 2.07206 9.98732 0
M  V30 13977 O 1683.22 -0.0743816 8.81969 0
M  V30 13978 O 1683.76 1.97652 7.47304 0
M  V30 13979 C 1684.7 3.01055 7.08599 0
M  V30 13980 C 1683.97 4.12613 6.37049 0
M  V30 13981 O 1683.76 3.72827 4.97879 0
M  V30 13982 C 1682.57 4.45719 6.88164 0
M  V30 13983 O 1682.18 5.7877 6.5624 0
M  V30 13984 C 1681.69 3.47768 6.11991 0
M  V30 13985 C 1682.4 3.39356 4.77615 0
M  V30 13986 N 1682.35 2.04571 4.15244 0
M  V30 13987 C 1682.2 1.98587 2.78314 0
M  V30 13988 O 1682.11 2.98134 2.08835 0
M  V30 13989 N 1682.16 0.714467 2.24925 0
M  V30 13990 C 1682.25 -0.470001 2.94169 0
M  V30 13991 C 1682.4 -0.312541 4.36783 0
M  V30 13992 C 1682.45 0.914512 4.92583 0
M  V30 13993 H 1685.19 3.41169 7.98575 0
M  V30 13994 H 1685.46 2.58295 6.41556 0
M  V30 13995 H 1684.59 5.02657 6.42673 0
M  V30 13996 H 1681.94 4.11637 4.08885 0
M  V30 13997 H 1681.66 2.49626 6.61679 0
M  V30 13998 H 1680.67 3.86566 6.00778 0
M  V30 13999 H 1682.5 4.29943 7.96918 0
M  V30 14000 H 1682.57 1.00937 6.00374 0
M  V30 14001 P 1680.63 6.144 6.45285 0
M  V30 14002 O 1680.41 7.54673 6.86199 0
M  V30 14003 O 1679.84 5.12391 7.179 0
M  V30 14004 O 1680.38 5.99158 4.88404 0
M  V30 14005 C 1681.32 6.60062 3.96313 0
M  V30 14006 C 1680.59 7.08259 2.72856 0
M  V30 14007 O 1680.38 5.9427 1.83651 0
M  V30 14008 C 1679.19 7.65087 2.94749 0
M  V30 14009 O 1678.8 8.53963 1.90717 0
M  V30 14010 C 1678.31 6.41069 2.90698 0
M  V30 14011 C 1679.02 5.5528 1.86931 0
M  V30 14012 N 1678.97 4.09575 2.15696 0
M  V30 14013 C 1678.82 3.24249 1.08435 0
M  V30 14014 O 1678.73 3.63946 -0.0628747 0
M  V30 14015 N 1678.78 1.90009 1.39973 0
M  V30 14016 C 1678.87 1.34884 2.65614 0
M  V30 14017 O 1678.82 0.123716 2.81728 0
M  V30 14018 C 1679.02 2.3145 3.71736 0
M  V30 14019 C 1679.13 1.75913 5.10438 0
M  V30 14020 C 1679.07 3.63518 3.44754 0
M  V30 14021 H 1681.81 7.45402 4.45526 0
M  V30 14022 H 1682.08 5.86062 3.67208 0
M  V30 14023 H 1681.21 7.84412 2.24479 0
M  V30 14024 H 1678.56 5.73358 0.888409 0
M  V30 14025 H 1678.28 5.90877 3.88583 0
M  V30 14026 H 1677.29 6.65867 2.58821 0
M  V30 14027 H 1679.12 8.16248 3.92006 0
M  V30 14028 H 1679.19 4.34551 4.26383 0
M  V30 14029 H 1678.16 1.85471 5.61775 0
M  V30 14030 H 1679.9 2.31364 5.66257 0
M  V30 14031 H 1679.41 0.695936 5.05229 0
M  V30 14032 H 1678.68 1.26277 0.63625 0
M  V30 14033 P 1677.25 8.7635 1.60911 0
M  V30 14034 O 1677.03 10.1388 1.11561 0
M  V30 14035 O 1676.46 8.36503 2.79617 0
M  V30 14036 O 1677 7.71806 0.42951 0
M  V30 14037 C 1677.94 7.67148 -0.673689 0
M  V30 14038 C 1677.21 7.33374 -1.95559 0
M  V30 14039 O 1677 5.88721 -2.00726 0
M  V30 14040 C 1675.81 7.92526 -2.10483 0
M  V30 14041 O 1675.42 8.02971 -3.47653 0
M  V30 14042 C 1674.93 6.89602 -1.41652 0
M  V30 14043 C 1675.64 5.59201 -1.75185 0
M  V30 14044 N 1675.59 4.58235 -0.662552 0
M  V30 14045 H 1678.43 8.65116 -0.777161 0
M  V30 14046 H 1678.7 6.90173 -0.474152 0
M  V30 14047 H 1677.83 7.66548 -2.79458 0
M  V30 14048 P 1673.87 8.03563 -3.84925 0
M  V30 14049 O 1673.65 8.85821 -5.0569 0
M  V30 14050 O 1673.08 8.41101 -2.65469 0
M  V30 14051 O 1673.62 6.4965 -4.18908 0
M  V30 14052 C 1674.56 5.80886 -5.05289 0
M  V30 14053 C 1673.83 4.78366 -5.89277 0
M  V30 14054 O 1673.62 3.58302 -5.08433 0
M  V30 14055 C 1672.43 5.16748 -6.36559 0
M  V30 14056 O 1672.04 4.45271 -7.53232 0
M  V30 14057 C 1671.55 4.74572 -5.19863 0
M  V30 14058 C 1672.26 3.49373 -4.70338 0
M  V30 14059 N 1672.21 3.31704 -3.22876 0
M  V30 14060 C 1672.06 2.03326 -2.74871 0
M  V30 14061 O 1671.97 1.06486 -3.48076 0
M  V30 14062 N 1672.02 1.91838 -1.37456 0
M  V30 14063 C 1672.11 2.94295 -0.462035 0
M  V30 14064 O 1672.06 2.71763 0.752928 0
M  V30 14065 C 1672.26 4.25064 -1.05249 0
M  V30 14066 C 1672.37 5.39815 -0.095697 0
M  V30 14067 C 1672.31 4.40214 -2.39192 0
M  V30 14068 H 1675.05 6.54063 -5.71245 0
M  V30 14069 H 1675.32 5.30339 -4.43905 0
M  V30 14070 H 1674.45 4.55889 -6.76652 0
M  V30 14071 H 1671.8 2.6167 -5.17842 0
M  V30 14072 H 1671.52 5.52155 -4.41878 0
M  V30 14073 H 1670.53 4.51918 -5.53297 0
M  V30 14074 H 1672.36 6.25055 -6.55162 0
M  V30 14075 H 1672.43 5.39798 -2.81523 0
M  V30 14076 H 1671.4 5.91593 -0.0279582 0
M  V30 14077 H 1673.14 6.10038 -0.450573 0
M  V30 14078 H 1672.65 5.02007 0.89937 0
M  V30 14079 H 1671.92 0.995326 -1.00435 0
M  V30 14080 P 1670.49 4.23843 -7.83734 0
M  V30 14081 O 1670.27 4.19407 -9.29784 0
M  V30 14082 O 1669.7 5.24426 -7.09156 0
M  V30 14083 O 1670.24 2.7935 -7.20758 0
M  V30 14084 C 1671.18 1.7299 -7.50419 0
M  V30 14085 C 1670.45 0.406376 -7.57911 0
M  V30 14086 O 1670.24 -0.0897726 -6.21935 0
M  V30 14087 C 1669.05 0.447224 -8.1878 0
M  V30 14088 O 1668.66 -0.825065 -8.71101 0
M  V30 14089 C 1668.17 0.783801 -6.99623 0
M  V30 14090 C 1668.88 0.0619192 -5.85967 0
M  V30 14091 N 1668.83 0.7859 -4.56281 0
M  V30 14092 H 1671.67 1.93423 -8.4679 0
M  V30 14093 H 1671.94 1.68181 -6.71046 0
M  V30 14094 H 1671.07 -0.289041 -8.15388 0
M  V30 14095 P 1667.11 -1.17771 -8.83182 0
M  V30 14096 O 1666.89 -2.07206 -9.98732 0
M  V30 14097 O 1666.32 0.0743816 -8.81969 0
M  V30 14098 O 1666.86 -1.97652 -7.47304 0
M  V30 14099 C 1667.8 -3.01133 -7.08783 0
M  V30 14100 C 1667.07 -4.12613 -6.37049 0
M  V30 14101 O 1666.86 -3.72827 -4.97879 0
M  V30 14102 C 1665.67 -4.45085 -6.88694 0
M  V30 14103 O 1665.28 -5.7877 -6.5624 0
M  V30 14104 C 1664.79 -3.47817 -6.12078 0
M  V30 14105 C 1665.5 -3.39414 -4.77697 0
M  V30 14106 N 1665.45 -2.04615 -4.15333 0
M  V30 14107 H 1668.29 -3.41248 -7.98759 0
M  V30 14108 H 1668.56 -2.5837 -6.41742 0
M  V30 14109 H 1667.69 -5.02657 -6.42673 0
M  V30 14110 P 1663.73 -6.144 -6.45285 0
M  V30 14111 O 1663.51 -7.54673 -6.86199 0
M  V30 14112 O 1662.94 -5.12391 -7.179 0
M  V30 14113 O 1663.48 -5.99158 -4.88404 0
M  V30 14114 C 1664.42 -6.60234 -3.96415 0
M  V30 14115 C 1663.69 -7.08259 -2.72856 0
M  V30 14116 O 1663.48 -5.9427 -1.83651 0
M  V30 14117 C 1662.29 -7.64886 -2.9555 0
M  V30 14118 O 1661.9 -8.53963 -1.90717 0
M  V30 14119 C 1661.41 -6.4116 -2.90739 0
M  V30 14120 C 1662.12 -5.55375 -1.86963 0
M  V30 14121 N 1662.07 -4.09664 -2.15742 0
M  V30 14122 H 1664.91 -7.45574 -4.45629 0
M  V30 14123 H 1665.18 -5.86232 -3.67314 0
M  V30 14124 H 1664.31 -7.84412 -2.24479 0
M  V30 14125 P 1660.35 -8.7635 -1.60911 0
M  V30 14126 O 1660.13 -10.1388 -1.11561 0
M  V30 14127 O 1659.56 -8.36503 -2.79617 0
M  V30 14128 O 1660.1 -7.71806 -0.42951 0
M  V30 14129 C 1661.04 -7.67148 0.673689 0
M  V30 14130 C 1660.31 -7.33374 1.95559 0
M  V30 14131 O 1660.1 -5.88721 2.00726 0
M  V30 14132 C 1658.91 -7.92526 2.10483 0
M  V30 14133 O 1658.52 -8.02971 3.47653 0
M  V30 14134 C 1658.03 -6.89602 1.41652 0
M  V30 14135 C 1658.74 -5.59201 1.75185 0
M  V30 14136 N 1658.69 -4.58301 0.657969 0
M  V30 14137 H 1661.53 -8.65116 0.777161 0
M  V30 14138 H 1661.8 -6.9022 0.46725 0
M  V30 14139 H 1660.93 -7.66548 2.79458 0
M  V30 14140 H 1658.28 -5.16165 2.65183 0
M  V30 14141 H 1658 -7.06433 0.329384 0
M  V30 14142 H 1657.01 -6.90926 1.82021 0
M  V30 14143 H 1658.84 -8.90873 1.62657 0
M  V30 14144 P 1656.97 -8.03563 3.84925 0
M  V30 14145 O 1656.75 -8.85821 5.0569 0
M  V30 14146 O 1656.18 -8.41101 2.65469 0
M  V30 14147 O 1656.72 -6.4965 4.18908 0
M  V30 14148 C 1657.66 -5.81037 5.05421 0
M  V30 14149 C 1656.93 -4.78366 5.89277 0
M  V30 14150 O 1656.72 -3.58302 5.08433 0
M  V30 14151 C 1655.53 -5.17448 6.36119 0
M  V30 14152 O 1655.14 -4.45271 7.53232 0
M  V30 14153 C 1654.65 -4.74639 5.19936 0
M  V30 14154 C 1655.36 -3.49432 4.70418 0
M  V30 14155 N 1655.31 -3.32099 3.22613 0
M  V30 14156 H 1658.15 -6.54213 5.71376 0
M  V30 14157 H 1658.42 -5.30936 4.43503 0
M  V30 14158 H 1657.55 -4.55889 6.76652 0
M  V30 14159 H 1654.9 -2.61715 5.17932 0
M  V30 14160 H 1654.62 -5.52155 4.41878 0
M  V30 14161 H 1653.63 -4.51981 5.53374 0
M  V30 14162 H 1655.46 -6.25124 6.55234 0
M  V30 14163 P 1653.59 -4.23843 7.83734 0
M  V30 14164 O 1653.37 -4.19407 9.29784 0
M  V30 14165 O 1652.8 -5.24426 7.09156 0
M  V30 14166 O 1653.34 -2.7935 7.20758 0
M  V30 14167 C 1654.28 -1.72945 7.50224 0
M  V30 14168 C 1653.55 -0.406376 7.57911 0
M  V30 14169 O 1653.34 0.0897726 6.21935 0
M  V30 14170 C 1652.15 -0.438983 8.18724 0
M  V30 14171 O 1651.76 0.825065 8.71101 0
M  V30 14172 C 1651.27 -0.783689 6.99524 0
M  V30 14173 C 1651.98 -0.0619086 5.85867 0
M  V30 14174 N 1651.93 -0.78573 4.56183 0
M  V30 14175 C 1651.78 -0.0292889 3.41887 0
M  V30 14176 O 1651.69 1.18445 3.4419 0
M  V30 14177 N 1651.74 -0.744061 2.23964 0
M  V30 14178 C 1651.83 -2.10932 2.10362 0
M  V30 14179 O 1651.78 -2.64117 0.98825 0
M  V30 14180 C 1651.98 -2.8202 3.34994 0
M  V30 14181 C 1652.09 -4.31095 3.25037 0
M  V30 14182 C 1652.03 -2.15547 4.52261 0
M  V30 14183 H 1654.77 -1.93379 8.46595 0
M  V30 14184 H 1655.04 -1.68132 6.70852 0
M  V30 14185 H 1654.17 0.289041 8.15388 0
M  V30 14186 H 1651.52 0.926847 5.72749 0
M  V30 14187 H 1651.24 -1.86973 6.82036 0
M  V30 14188 H 1650.25 -0.403896 7.13257 0
M  V30 14189 H 1652.08 -1.20585 8.97435 0
M  V30 14190 H 1652.15 -2.71231 5.45042 0
M  V30 14191 H 1651.12 -4.76966 3.49992 0
M  V30 14192 H 1652.86 -4.67047 3.95024 0
M  V30 14193 H 1652.37 -4.58996 2.22312 0
M  V30 14194 H 1651.64 -0.214893 1.39758 0
M  V30 14195 P 1650.21 1.17771 8.83182 0
M  V30 14196 O 1649.99 2.07206 9.98732 0
M  V30 14197 O 1649.42 -0.0743816 8.81969 0
M  V30 14198 O 1649.96 1.97652 7.47304 0
M  V30 14199 C 1650.9 3.01133 7.08783 0
M  V30 14200 C 1650.17 4.12613 6.37049 0
M  V30 14201 O 1649.96 3.72827 4.97879 0
M  V30 14202 C 1648.77 4.45085 6.88694 0
M  V30 14203 O 1648.38 5.7877 6.5624 0
M  V30 14204 C 1647.89 3.47817 6.12078 0
M  V30 14205 C 1648.6 3.39414 4.77697 0
M  V30 14206 N 1648.55 2.04615 4.15333 0
M  V30 14207 H 1651.39 3.41248 7.98759 0
M  V30 14208 H 1651.66 2.5837 6.41742 0
M  V30 14209 H 1650.79 5.02657 6.42673 0
M  V30 14210 P 1646.83 6.144 6.45285 0
M  V30 14211 O 1646.61 7.54673 6.86199 0
M  V30 14212 O 1646.04 5.12391 7.179 0
M  V30 14213 O 1646.58 5.99158 4.88404 0
M  V30 14214 C 1647.52 6.60234 3.96415 0
M  V30 14215 C 1646.79 7.08259 2.72856 0
M  V30 14216 O 1646.58 5.9427 1.83651 0
M  V30 14217 C 1645.39 7.64886 2.9555 0
M  V30 14218 O 1645 8.53963 1.90717 0
M  V30 14219 C 1644.51 6.4116 2.90739 0
M  V30 14220 C 1645.22 5.55375 1.86963 0
M  V30 14221 N 1645.17 4.09664 2.15742 0
M  V30 14222 H 1648.01 7.45574 4.45629 0
M  V30 14223 H 1648.28 5.86232 3.67314 0
M  V30 14224 H 1647.41 7.84412 2.24479 0
M  V30 14225 P 1643.45 8.7635 1.60911 0
M  V30 14226 O 1643.23 10.1388 1.11561 0
M  V30 14227 O 1642.66 8.36503 2.79617 0
M  V30 14228 O 1643.2 7.71806 0.42951 0
M  V30 14229 C 1644.14 7.67148 -0.673689 0
M  V30 14230 C 1643.41 7.33374 -1.95559 0
M  V30 14231 O 1643.2 5.88721 -2.00726 0
M  V30 14232 C 1642.01 7.92526 -2.10483 0
M  V30 14233 O 1641.62 8.02971 -3.47653 0
M  V30 14234 C 1641.13 6.89602 -1.41652 0
M  V30 14235 C 1641.84 5.59201 -1.75185 0
M  V30 14236 N 1641.79 4.58301 -0.657969 0
M  V30 14237 H 1644.63 8.65116 -0.777161 0
M  V30 14238 H 1644.9 6.9022 -0.46725 0
M  V30 14239 H 1644.03 7.66548 -2.79458 0
M  V30 14240 H 1641.38 5.16165 -2.65183 0
M  V30 14241 H 1641.1 7.06433 -0.329384 0
M  V30 14242 H 1640.11 6.90926 -1.82021 0
M  V30 14243 H 1641.94 8.90873 -1.62657 0
M  V30 14244 P 1640.07 8.03563 -3.84925 0
M  V30 14245 O 1639.85 8.85821 -5.0569 0
M  V30 14246 O 1639.28 8.41101 -2.65469 0
M  V30 14247 O 1639.82 6.4965 -4.18908 0
M  V30 14248 C 1640.76 5.81037 -5.05421 0
M  V30 14249 C 1640.03 4.78366 -5.89277 0
M  V30 14250 O 1639.82 3.58302 -5.08433 0
M  V30 14251 C 1638.63 5.17448 -6.36119 0
M  V30 14252 O 1638.24 4.45271 -7.53232 0
M  V30 14253 C 1637.75 4.74639 -5.19936 0
M  V30 14254 C 1638.46 3.49432 -4.70418 0
M  V30 14255 N 1638.41 3.32099 -3.22613 0
M  V30 14256 C 1638.49 4.28245 -2.25527 0
M  V30 14257 N 1638.42 3.80823 -1.04874 0
M  V30 14258 C 1638.27 2.44571 -1.23535 0
M  V30 14259 C 1638.14 1.37068 -0.330675 0
M  V30 14260 N 1638.13 1.51472 0.990824 0
M  V30 14261 N 1638.02 0.138614 -0.848756 0
M  V30 14262 C 1638.03 -0.00675923 -2.16999 0
M  V30 14263 N 1638.15 0.904372 -3.11122 0
M  V30 14264 C 1638.27 2.12707 -2.56212 0
M  V30 14265 H 1641.25 6.54213 -5.71376 0
M  V30 14266 H 1641.52 5.30936 -4.43503 0
M  V30 14267 H 1640.65 4.55889 -6.76652 0
M  V30 14268 H 1638 2.61715 -5.17932 0
M  V30 14269 H 1637.72 5.52155 -4.41878 0
M  V30 14270 H 1636.73 4.51981 -5.53374 0
M  V30 14271 H 1638.56 6.25124 -6.55234 0
M  V30 14272 H 1638.6 5.34372 -2.47488 0
M  V30 14273 H 1638.22 2.45153 1.4078 0
M  V30 14274 H 1638.03 0.688422 1.59911 0
M  V30 14275 H 1637.92 -1.02584 -2.52346 0
M  V30 14276 P 1636.69 4.23843 -7.83734 0
M  V30 14277 O 1636.47 4.19407 -9.29784 0
M  V30 14278 O 1635.9 5.24426 -7.09156 0
M  V30 14279 O 1636.44 2.7935 -7.20758 0
M  V30 14280 C 1637.38 1.7299 -7.50419 0
M  V30 14281 C 1636.65 0.406376 -7.57911 0
M  V30 14282 O 1636.44 -0.0897726 -6.21935 0
M  V30 14283 C 1635.25 0.447224 -8.1878 0
M  V30 14284 O 1634.86 -0.825065 -8.71101 0
M  V30 14285 C 1634.37 0.783801 -6.99623 0
M  V30 14286 C 1635.08 0.0619192 -5.85967 0
M  V30 14287 N 1635.03 0.7859 -4.56281 0
M  V30 14288 H 1637.87 1.93423 -8.4679 0
M  V30 14289 H 1638.14 1.68181 -6.71046 0
M  V30 14290 H 1637.27 -0.289041 -8.15388 0
M  V30 14291 P 1633.31 -1.17771 -8.83182 0
M  V30 14292 O 1633.09 -2.07206 -9.98732 0
M  V30 14293 O 1632.52 0.0743816 -8.81969 0
M  V30 14294 O 1633.06 -1.97652 -7.47304 0
M  V30 14295 C 1634 -3.01133 -7.08783 0
M  V30 14296 C 1633.27 -4.12613 -6.37049 0
M  V30 14297 O 1633.06 -3.72827 -4.97879 0
M  V30 14298 C 1631.87 -4.45085 -6.88694 0
M  V30 14299 O 1631.48 -5.7877 -6.5624 0
M  V30 14300 C 1630.99 -3.47817 -6.12078 0
M  V30 14301 C 1631.7 -3.39414 -4.77697 0
M  V30 14302 N 1631.65 -2.04615 -4.15333 0
M  V30 14303 H 1634.49 -3.41248 -7.98759 0
M  V30 14304 H 1634.76 -2.5837 -6.41742 0
M  V30 14305 H 1633.89 -5.02657 -6.42673 0
M  V30 14306 P 1629.93 -6.144 -6.45285 0
M  V30 14307 O 1629.71 -7.54673 -6.86199 0
M  V30 14308 O 1629.14 -5.12391 -7.179 0
M  V30 14309 O 1629.68 -5.99158 -4.88404 0
M  V30 14310 C 1630.62 -6.60234 -3.96415 0
M  V30 14311 C 1629.89 -7.08259 -2.72856 0
M  V30 14312 O 1629.68 -5.9427 -1.83651 0
M  V30 14313 C 1628.49 -7.64886 -2.9555 0
M  V30 14314 O 1628.1 -8.53963 -1.90717 0
M  V30 14315 C 1627.61 -6.4116 -2.90739 0
M  V30 14316 C 1628.32 -5.55375 -1.86963 0
M  V30 14317 N 1628.27 -4.09664 -2.15742 0
M  V30 14318 H 1631.11 -7.45574 -4.45629 0
M  V30 14319 H 1631.38 -5.86232 -3.67314 0
M  V30 14320 H 1630.51 -7.84412 -2.24479 0
M  V30 14321 P 1626.55 -8.7635 -1.60911 0
M  V30 14322 O 1626.33 -10.1388 -1.11561 0
M  V30 14323 O 1625.76 -8.36503 -2.79617 0
M  V30 14324 O 1626.3 -7.71806 -0.42951 0
M  V30 14325 C 1627.24 -7.67148 0.673689 0
M  V30 14326 C 1626.51 -7.33374 1.95559 0
M  V30 14327 O 1626.3 -5.88721 2.00726 0
M  V30 14328 C 1625.11 -7.92526 2.10483 0
M  V30 14329 O 1624.72 -8.02971 3.47653 0
M  V30 14330 C 1624.23 -6.89602 1.41652 0
M  V30 14331 C 1624.94 -5.59201 1.75185 0
M  V30 14332 N 1624.89 -4.58235 0.662552 0
M  V30 14333 H 1627.73 -8.65116 0.777161 0
M  V30 14334 H 1628 -6.90173 0.474152 0
M  V30 14335 H 1627.13 -7.66548 2.79458 0
M  V30 14336 P 1623.17 -8.03563 3.84925 0
M  V30 14337 O 1622.95 -8.85821 5.0569 0
M  V30 14338 O 1622.38 -8.41101 2.65469 0
M  V30 14339 O 1622.92 -6.4965 4.18908 0
M  V30 14340 C 1623.86 -5.81037 5.05421 0
M  V30 14341 C 1623.13 -4.78366 5.89277 0
M  V30 14342 O 1622.92 -3.58302 5.08433 0
M  V30 14343 C 1621.73 -5.17448 6.36119 0
M  V30 14344 O 1621.34 -4.45271 7.53232 0
M  V30 14345 C 1620.85 -4.74639 5.19936 0
M  V30 14346 C 1621.56 -3.49432 4.70418 0
M  V30 14347 N 1621.51 -3.31776 3.22945 0
M  V30 14348 H 1624.35 -6.54213 5.71376 0
M  V30 14349 H 1624.62 -5.30492 4.44033 0
M  V30 14350 H 1623.75 -4.55889 6.76652 0
M  V30 14351 P 1619.79 -4.23843 7.83734 0
M  V30 14352 O 1619.57 -4.19407 9.29784 0
M  V30 14353 O 1619 -5.24426 7.09156 0
M  V30 14354 O 1619.54 -2.7935 7.20758 0
M  V30 14355 C 1620.48 -1.7299 7.50419 0
M  V30 14356 C 1619.75 -0.406376 7.57911 0
M  V30 14357 O 1619.54 0.0897726 6.21935 0
M  V30 14358 C 1618.35 -0.447224 8.1878 0
M  V30 14359 O 1617.96 0.825065 8.71101 0
M  V30 14360 C 1617.47 -0.783801 6.99623 0
M  V30 14361 C 1618.18 -0.0619192 5.85967 0
M  V30 14362 N 1618.13 -0.790462 4.56202 0
M  V30 14363 H 1620.97 -1.93423 8.4679 0
M  V30 14364 H 1621.24 -1.68852 6.70877 0
M  V30 14365 H 1620.37 0.289041 8.15388 0
M  V30 14366 H 1617.72 0.927006 5.72848 0
M  V30 14367 H 1617.44 -1.86973 6.82036 0
M  V30 14368 H 1616.45 -0.403953 7.13357 0
M  V30 14369 H 1618.28 -1.20599 8.97534 0
M  V30 14370 P 1616.41 1.17771 8.83182 0
M  V30 14371 O 1616.19 2.07206 9.98732 0
M  V30 14372 O 1615.62 -0.0743816 8.81969 0
M  V30 14373 O 1616.16 1.97652 7.47304 0
M  V30 14374 C 1617.1 3.01133 7.08783 0
M  V30 14375 C 1616.37 4.12613 6.37049 0
M  V30 14376 O 1616.16 3.72827 4.97879 0
M  V30 14377 C 1614.97 4.45085 6.88694 0
M  V30 14378 O 1614.58 5.7877 6.5624 0
M  V30 14379 C 1614.09 3.47817 6.12078 0
M  V30 14380 C 1614.8 3.39414 4.77697 0
M  V30 14381 N 1614.75 2.04199 4.15538 0
M  V30 14382 H 1617.59 3.41248 7.98759 0
M  V30 14383 H 1617.86 2.57728 6.42 0
M  V30 14384 H 1616.99 5.02657 6.42673 0
M  V30 14385 H 1614.34 4.11708 4.08956 0
M  V30 14386 H 1614.06 2.49626 6.61679 0
M  V30 14387 H 1613.07 3.8662 6.00862 0
M  V30 14388 H 1614.9 4.29991 7.97006 0
M  V30 14389 P 1613.03 6.144 6.45285 0
M  V30 14390 O 1612.81 7.54673 6.86199 0
M  V30 14391 O 1612.24 5.12391 7.179 0
M  V30 14392 O 1612.78 5.99158 4.88404 0
M  V30 14393 C 1613.72 6.60234 3.96415 0
M  V30 14394 C 1612.99 7.08259 2.72856 0
M  V30 14395 O 1612.78 5.9427 1.83651 0
M  V30 14396 C 1611.59 7.64886 2.9555 0
M  V30 14397 O 1611.2 8.53963 1.90717 0
M  V30 14398 C 1610.71 6.4116 2.90739 0
M  V30 14399 C 1611.42 5.55375 1.86963 0
M  V30 14400 N 1611.37 4.09664 2.15742 0
M  V30 14401 H 1614.21 7.45574 4.45629 0
M  V30 14402 H 1614.48 5.86232 3.67314 0
M  V30 14403 H 1613.61 7.84412 2.24479 0
M  V30 14404 P 1609.65 8.7635 1.60911 0
M  V30 14405 O 1609.43 10.1388 1.11561 0
M  V30 14406 O 1608.86 8.36503 2.79617 0
M  V30 14407 O 1609.4 7.71806 0.42951 0
M  V30 14408 C 1610.34 7.67148 -0.673689 0
M  V30 14409 C 1609.61 7.33374 -1.95559 0
M  V30 14410 O 1609.4 5.88721 -2.00726 0
M  V30 14411 C 1608.21 7.92526 -2.10483 0
M  V30 14412 O 1607.82 8.02971 -3.47653 0
M  V30 14413 C 1607.33 6.89602 -1.41652 0
M  V30 14414 C 1608.04 5.59201 -1.75185 0
M  V30 14415 N 1607.99 4.58235 -0.662552 0
M  V30 14416 H 1610.83 8.65116 -0.777161 0
M  V30 14417 H 1611.1 6.90173 -0.474152 0
M  V30 14418 H 1610.23 7.66548 -2.79458 0
M  V30 14419 P 1606.27 8.03563 -3.84925 0
M  V30 14420 O 1606.05 8.85821 -5.0569 0
M  V30 14421 O 1605.48 8.41101 -2.65469 0
M  V30 14422 O 1606.02 6.4965 -4.18908 0
M  V30 14423 C 1606.96 5.81037 -5.05421 0
M  V30 14424 C 1606.23 4.78366 -5.89277 0
M  V30 14425 O 1606.02 3.58302 -5.08433 0
M  V30 14426 C 1604.83 5.17448 -6.36119 0
M  V30 14427 O 1604.44 4.45271 -7.53232 0
M  V30 14428 C 1603.95 4.74639 -5.19936 0
M  V30 14429 C 1604.66 3.49432 -4.70418 0
M  V30 14430 N 1604.61 3.32099 -3.22613 0
M  V30 14431 C 1604.69 4.28245 -2.25527 0
M  V30 14432 N 1604.62 3.80823 -1.04874 0
M  V30 14433 C 1604.47 2.44571 -1.23535 0
M  V30 14434 C 1604.34 1.37068 -0.330675 0
M  V30 14435 N 1604.33 1.51472 0.990824 0
M  V30 14436 N 1604.22 0.138614 -0.848756 0
M  V30 14437 C 1604.23 -0.00675923 -2.16999 0
M  V30 14438 N 1604.35 0.904372 -3.11122 0
M  V30 14439 C 1604.47 2.12707 -2.56212 0
M  V30 14440 H 1607.45 6.54213 -5.71376 0
M  V30 14441 H 1607.72 5.30936 -4.43503 0
M  V30 14442 H 1606.85 4.55889 -6.76652 0
M  V30 14443 H 1604.2 2.61715 -5.17932 0
M  V30 14444 H 1603.92 5.52155 -4.41878 0
M  V30 14445 H 1602.93 4.51981 -5.53374 0
M  V30 14446 H 1604.76 6.25124 -6.55234 0
M  V30 14447 H 1604.8 5.34372 -2.47488 0
M  V30 14448 H 1604.42 2.45153 1.4078 0
M  V30 14449 H 1604.23 0.688422 1.59911 0
M  V30 14450 H 1604.12 -1.02584 -2.52346 0
M  V30 14451 P 1602.89 4.23843 -7.83734 0
M  V30 14452 O 1602.67 4.19407 -9.29784 0
M  V30 14453 O 1602.1 5.24426 -7.09156 0
M  V30 14454 O 1602.64 2.7935 -7.20758 0
M  V30 14455 C 1603.58 1.7299 -7.50419 0
M  V30 14456 C 1602.85 0.406376 -7.57911 0
M  V30 14457 O 1602.64 -0.0897726 -6.21935 0
M  V30 14458 C 1601.45 0.447224 -8.1878 0
M  V30 14459 O 1601.06 -0.825065 -8.71101 0
M  V30 14460 C 1600.57 0.783801 -6.99623 0
M  V30 14461 C 1601.28 0.0619192 -5.85967 0
M  V30 14462 N 1601.23 0.790462 -4.56202 0
M  V30 14463 H 1604.07 1.93423 -8.4679 0
M  V30 14464 H 1604.34 1.68852 -6.70877 0
M  V30 14465 H 1603.47 -0.289041 -8.15388 0
M  V30 14466 H 1600.82 -0.927006 -5.72848 0
M  V30 14467 H 1600.54 1.86973 -6.82036 0
M  V30 14468 H 1599.55 0.403953 -7.13357 0
M  V30 14469 H 1601.38 1.20599 -8.97534 0
M  V30 14470 P 1599.51 -1.17771 -8.83182 0
M  V30 14471 O 1599.29 -2.07206 -9.98732 0
M  V30 14472 O 1598.72 0.0743816 -8.81969 0
M  V30 14473 O 1599.26 -1.97652 -7.47304 0
M  V30 14474 C 1600.2 -3.01133 -7.08783 0
M  V30 14475 C 1599.47 -4.12613 -6.37049 0
M  V30 14476 O 1599.26 -3.72827 -4.97879 0
M  V30 14477 C 1598.07 -4.45085 -6.88694 0
M  V30 14478 O 1597.68 -5.7877 -6.5624 0
M  V30 14479 C 1597.19 -3.47817 -6.12078 0
M  V30 14480 C 1597.9 -3.39414 -4.77697 0
M  V30 14481 N 1597.85 -2.04615 -4.15333 0
M  V30 14482 H 1600.69 -3.41248 -7.98759 0
M  V30 14483 H 1600.96 -2.5837 -6.41742 0
M  V30 14484 H 1600.09 -5.02657 -6.42673 0
M  V30 14485 P 1596.13 -6.144 -6.45285 0
M  V30 14486 O 1595.91 -7.54673 -6.86199 0
M  V30 14487 O 1595.34 -5.12391 -7.179 0
M  V30 14488 O 1595.88 -5.99158 -4.88404 0
M  V30 14489 C 1596.82 -6.60234 -3.96415 0
M  V30 14490 C 1596.09 -7.08259 -2.72856 0
M  V30 14491 O 1595.88 -5.9427 -1.83651 0
M  V30 14492 C 1594.69 -7.64886 -2.9555 0
M  V30 14493 O 1594.3 -8.53963 -1.90717 0
M  V30 14494 C 1593.81 -6.4116 -2.90739 0
M  V30 14495 C 1594.52 -5.55375 -1.86963 0
M  V30 14496 N 1594.47 -4.09448 -2.16152 0
M  V30 14497 C 1594.55 -3.46824 -3.37593 0
M  V30 14498 N 1594.48 -2.17422 -3.29777 0
M  V30 14499 C 1594.33 -1.93065 -1.94427 0
M  V30 14500 C 1594.2 -0.738053 -1.20141 0
M  V30 14501 N 1594.19 0.474256 -1.74676 0
M  V30 14502 N 1594.08 -0.850049 0.13045 0
M  V30 14503 C 1594.09 -2.06169 0.676992 0
M  V30 14504 N 1594.21 -3.23842 0.101312 0
M  V30 14505 C 1594.33 -3.09402 -1.23122 0
M  V30 14506 H 1597.31 -7.45574 -4.45629 0
M  V30 14507 H 1597.58 -5.85864 -3.679 0
M  V30 14508 H 1596.71 -7.84412 -2.24479 0
M  V30 14509 H 1594.06 -5.73457 -0.888562 0
M  V30 14510 H 1593.78 -5.90877 -3.88583 0
M  V30 14511 H 1592.79 -6.6596 -2.58858 0
M  V30 14512 H 1594.62 -8.16339 -3.92049 0
M  V30 14513 H 1594.66 -4.00505 -4.3174 0
M  V30 14514 H 1594.28 0.581337 -2.76658 0
M  V30 14515 H 1594.09 1.30811 -1.14888 0
M  V30 14516 H 1593.98 -2.08295 1.75542 0
M  V30 14517 P 1592.75 -8.7635 -1.60911 0
M  V30 14518 O 1592.53 -10.1388 -1.11561 0
M  V30 14519 O 1591.96 -8.36503 -2.79617 0
M  V30 14520 O 1592.5 -7.71806 -0.42951 0
M  V30 14521 C 1593.44 -7.66948 0.673514 0
M  V30 14522 C 1592.71 -7.33374 1.95559 0
M  V30 14523 O 1592.5 -5.88721 2.00726 0
M  V30 14524 C 1591.31 -7.92218 2.1125 0
M  V30 14525 O 1590.92 -8.02971 3.47653 0
M  V30 14526 C 1590.43 -6.89504 1.41631 0
M  V30 14527 C 1591.14 -5.59106 1.75155 0
M  V30 14528 N 1591.09 -4.58136 0.662409 0
M  V30 14529 C 1590.94 -3.26059 1.02863 0
M  V30 14530 O 1590.85 -2.90743 2.19009 0
M  V30 14531 N 1590.9 -2.35995 -0.0155585 0
M  V30 14532 C 1590.99 -2.65248 -1.35603 0
M  V30 14533 O 1590.94 -1.75605 -2.20651 0
M  V30 14534 C 1591.14 -4.05747 -1.64698 0
M  V30 14535 C 1591.25 -4.42345 -3.09553 0
M  V30 14536 C 1591.19 -4.96734 -0.652411 0
M  V30 14537 H 1593.93 -8.64917 0.776982 0
M  V30 14538 H 1594.2 -6.89974 0.474015 0
M  V30 14539 H 1593.33 -7.66548 2.79458 0
M  V30 14540 H 1590.68 -5.16076 2.65138 0
M  V30 14541 H 1590.4 -7.06433 0.329384 0
M  V30 14542 H 1589.41 -6.90829 1.81996 0
M  V30 14543 H 1591.24 -8.90774 1.62639 0
M  V30 14544 H 1591.31 -6.02181 -0.895285 0
M  V30 14545 H 1590.28 -4.80252 -3.45468 0
M  V30 14546 H 1592.02 -5.20015 -3.22119 0
M  V30 14547 H 1591.53 -3.53269 -3.67833 0
M  V30 14548 H 1590.8 -1.39558 0.227499 0
M  V30 14549 P 1589.37 -8.03563 3.84925 0
M  V30 14550 O 1589.15 -8.85821 5.0569 0
M  V30 14551 O 1588.58 -8.41101 2.65469 0
M  V30 14552 O 1589.12 -6.4965 4.18908 0
M  V30 14553 C 1590.06 -5.80886 5.05289 0
M  V30 14554 C 1589.33 -4.78366 5.89277 0
M  V30 14555 O 1589.12 -3.58302 5.08433 0
M  V30 14556 C 1587.93 -5.16748 6.36559 0
M  V30 14557 O 1587.54 -4.45271 7.53232 0
M  V30 14558 C 1587.05 -4.74572 5.19863 0
M  V30 14559 C 1587.76 -3.49373 4.70338 0
M  V30 14560 N 1587.71 -3.31704 3.22876 0
M  V30 14561 C 1587.56 -2.03326 2.74871 0
M  V30 14562 O 1587.47 -1.06486 3.48076 0
M  V30 14563 N 1587.52 -1.91838 1.37456 0
M  V30 14564 C 1587.61 -2.94295 0.462035 0
M  V30 14565 C 1587.76 -4.25064 1.05249 0
M  V30 14566 C 1587.81 -4.40214 2.39192 0
M  V30 14567 H 1590.55 -6.54063 5.71245 0
M  V30 14568 H 1590.82 -5.30339 4.43905 0
M  V30 14569 H 1589.95 -4.55889 6.76652 0
M  V30 14570 H 1587.3 -2.6167 5.17842 0
M  V30 14571 H 1587.02 -5.52155 4.41878 0
M  V30 14572 H 1586.03 -4.51918 5.53297 0
M  V30 14573 H 1587.86 -6.25055 6.55162 0
M  V30 14574 H 1587.93 -5.39798 2.81523 0
M  V30 14575 P 1585.99 -4.23843 7.83734 0
M  V30 14576 O 1585.77 -4.19407 9.29784 0
M  V30 14577 O 1585.2 -5.24426 7.09156 0
M  V30 14578 O 1585.74 -2.7935 7.20758 0
M  V30 14579 C 1586.68 -1.7299 7.50419 0
M  V30 14580 C 1585.95 -0.406376 7.57911 0
M  V30 14581 O 1585.74 0.0897726 6.21935 0
M  V30 14582 C 1584.55 -0.447224 8.1878 0
M  V30 14583 O 1584.16 0.825065 8.71101 0
M  V30 14584 C 1583.67 -0.783801 6.99623 0
M  V30 14585 C 1584.38 -0.0619192 5.85967 0
M  V30 14586 N 1584.33 -0.7859 4.56281 0
M  V30 14587 H 1587.17 -1.93423 8.4679 0
M  V30 14588 H 1587.44 -1.68181 6.71046 0
M  V30 14589 H 1586.57 0.289041 8.15388 0
M  V30 14590 P 1582.61 1.17771 8.83182 0
M  V30 14591 O 1582.39 2.07206 9.98732 0
M  V30 14592 O 1581.82 -0.0743816 8.81969 0
M  V30 14593 O 1582.36 1.97652 7.47304 0
M  V30 14594 C 1583.3 3.01133 7.08783 0
M  V30 14595 C 1582.57 4.12613 6.37049 0
M  V30 14596 O 1582.36 3.72827 4.97879 0
M  V30 14597 C 1581.17 4.45085 6.88694 0
M  V30 14598 O 1580.78 5.7877 6.5624 0
M  V30 14599 C 1580.29 3.47817 6.12078 0
M  V30 14600 C 1581 3.39414 4.77697 0
M  V30 14601 N 1580.95 2.04615 4.15333 0
M  V30 14602 H 1583.79 3.41248 7.98759 0
M  V30 14603 H 1584.06 2.5837 6.41742 0
M  V30 14604 H 1583.19 5.02657 6.42673 0
M  V30 14605 P 1579.23 6.144 6.45285 0
M  V30 14606 O 1579.01 7.54673 6.86199 0
M  V30 14607 O 1578.44 5.12391 7.179 0
M  V30 14608 O 1578.98 5.99158 4.88404 0
M  V30 14609 C 1579.92 6.60234 3.96415 0
M  V30 14610 C 1579.19 7.08259 2.72856 0
M  V30 14611 O 1578.98 5.9427 1.83651 0
M  V30 14612 C 1577.79 7.64886 2.9555 0
M  V30 14613 O 1577.4 8.53963 1.90717 0
M  V30 14614 C 1576.91 6.4116 2.90739 0
M  V30 14615 C 1577.62 5.55375 1.86963 0
M  V30 14616 N 1577.57 4.09664 2.15742 0
M  V30 14617 H 1580.41 7.45574 4.45629 0
M  V30 14618 H 1580.68 5.86232 3.67314 0
M  V30 14619 H 1579.81 7.84412 2.24479 0
M  V30 14620 P 1575.85 8.7635 1.60911 0
M  V30 14621 O 1575.63 10.1388 1.11561 0
M  V30 14622 O 1575.06 8.36503 2.79617 0
M  V30 14623 O 1575.6 7.71806 0.42951 0
M  V30 14624 C 1576.54 7.67148 -0.673689 0
M  V30 14625 C 1575.81 7.33374 -1.95559 0
M  V30 14626 O 1575.6 5.88721 -2.00726 0
M  V30 14627 C 1574.41 7.92526 -2.10483 0
M  V30 14628 O 1574.02 8.02971 -3.47653 0
M  V30 14629 C 1573.53 6.89602 -1.41652 0
M  V30 14630 C 1574.24 5.59201 -1.75185 0
M  V30 14631 N 1574.19 4.58235 -0.662552 0
M  V30 14632 C 1574.27 4.7683 0.704049 0
M  V30 14633 N 1574.19 3.66233 1.39775 0
M  V30 14634 C 1574.05 2.66526 0.431739 0
M  V30 14635 C 1573.92 1.26394 0.575992 0
M  V30 14636 O 1573.9 0.589894 1.60503 0
M  V30 14637 N 1573.8 0.62859 -0.67177 0
M  V30 14638 C 1573.8 1.27134 -1.89385 0
M  V30 14639 N 1573.67 0.492035 -2.96951 0
M  V30 14640 N 1573.93 2.58978 -2.02907 0
M  V30 14641 C 1574.05 3.22433 -0.832218 0
M  V30 14642 H 1577.03 8.65116 -0.777161 0
M  V30 14643 H 1577.3 6.90173 -0.474152 0
M  V30 14644 H 1576.43 7.66548 -2.79458 0
M  V30 14645 H 1573.78 5.16254 -2.65229 0
M  V30 14646 H 1573.5 7.06532 -0.329431 0
M  V30 14647 H 1572.51 6.91023 -1.82047 0
M  V30 14648 H 1574.34 8.90971 -1.62675 0
M  V30 14649 H 1574.39 5.74954 1.16305 0
M  V30 14650 H 1573.71 -0.366713 -0.674793 0
M  V30 14651 H 1573.67 0.908532 -3.91188 0
M  V30 14652 H 1573.57 -0.528253 -2.85758 0
M  V30 14653 P 1572.47 8.03563 -3.84925 0
M  V30 14654 O 1572.25 8.85821 -5.0569 0
M  V30 14655 O 1571.68 8.41101 -2.65469 0
M  V30 14656 O 1572.22 6.4965 -4.18908 0
M  V30 14657 C 1573.16 5.81037 -5.05421 0
M  V30 14658 C 1572.43 4.78366 -5.89277 0
M  V30 14659 O 1572.22 3.58302 -5.08433 0
M  V30 14660 C 1571.03 5.17448 -6.36119 0
M  V30 14661 O 1570.64 4.45271 -7.53232 0
M  V30 14662 C 1570.15 4.74639 -5.19936 0
M  V30 14663 C 1570.86 3.49432 -4.70418 0
M  V30 14664 N 1570.81 3.31776 -3.22945 0
M  V30 14665 H 1573.65 6.54213 -5.71376 0
M  V30 14666 H 1573.92 5.30492 -4.44033 0
M  V30 14667 H 1573.05 4.55889 -6.76652 0
M  V30 14668 P 1569.09 4.23843 -7.83734 0
M  V30 14669 O 1568.87 4.19407 -9.29784 0
M  V30 14670 O 1568.3 5.24426 -7.09156 0
M  V30 14671 O 1568.84 2.7935 -7.20758 0
M  V30 14672 C 1569.78 1.7299 -7.50419 0
M  V30 14673 C 1569.05 0.406376 -7.57911 0
M  V30 14674 O 1568.84 -0.0897726 -6.21935 0
M  V30 14675 C 1567.65 0.447224 -8.1878 0
M  V30 14676 O 1567.26 -0.825065 -8.71101 0
M  V30 14677 C 1566.77 0.783801 -6.99623 0
M  V30 14678 C 1567.48 0.0619192 -5.85967 0
M  V30 14679 N 1567.43 0.7859 -4.56281 0
M  V30 14680 H 1570.27 1.93423 -8.4679 0
M  V30 14681 H 1570.54 1.68181 -6.71046 0
M  V30 14682 H 1569.67 -0.289041 -8.15388 0
M  V30 14683 P 1565.71 -1.17771 -8.83182 0
M  V30 14684 O 1565.49 -2.07206 -9.98732 0
M  V30 14685 O 1564.92 0.0743816 -8.81969 0
M  V30 14686 O 1565.46 -1.97652 -7.47304 0
M  V30 14687 C 1566.4 -3.01055 -7.08599 0
M  V30 14688 C 1565.67 -4.12613 -6.37049 0
M  V30 14689 O 1565.46 -3.72827 -4.97879 0
M  V30 14690 C 1564.27 -4.45719 -6.88164 0
M  V30 14691 O 1563.88 -5.7877 -6.5624 0
M  V30 14692 C 1563.39 -3.47768 -6.11991 0
M  V30 14693 C 1564.1 -3.39356 -4.77615 0
M  V30 14694 N 1564.05 -2.04571 -4.15244 0
M  V30 14695 C 1563.9 -1.98587 -2.78314 0
M  V30 14696 O 1563.81 -2.98134 -2.08835 0
M  V30 14697 N 1563.86 -0.714467 -2.24925 0
M  V30 14698 C 1563.95 0.470001 -2.94169 0
M  V30 14699 O 1563.9 1.55587 -2.35195 0
M  V30 14700 C 1564.1 0.312541 -4.36783 0
M  V30 14701 C 1564.21 1.57711 -5.16352 0
M  V30 14702 C 1564.15 -0.914512 -4.92583 0
M  V30 14703 H 1566.89 -3.41169 -7.98575 0
M  V30 14704 H 1567.16 -2.58295 -6.41556 0
M  V30 14705 H 1566.29 -5.02657 -6.42673 0
M  V30 14706 H 1563.64 -4.11637 -4.08885 0
M  V30 14707 H 1563.36 -2.49626 -6.61679 0
M  V30 14708 H 1562.37 -3.86566 -6.00778 0
M  V30 14709 H 1564.2 -4.29943 -7.96918 0
M  V30 14710 H 1564.27 -1.00937 -6.00374 0
M  V30 14711 H 1563.24 1.80153 -5.63503 0
M  V30 14712 H 1564.98 1.4566 -5.94104 0
M  V30 14713 H 1564.49 2.40664 -4.49645 0
M  V30 14714 H 1563.76 -0.647622 -1.25697 0
M  V30 14715 P 1562.33 -6.144 -6.45285 0
M  V30 14716 O 1562.11 -7.54673 -6.86199 0
M  V30 14717 O 1561.54 -5.12391 -7.179 0
M  V30 14718 O 1562.08 -5.99158 -4.88404 0
M  V30 14719 C 1563.02 -6.60234 -3.96415 0
M  V30 14720 C 1562.29 -7.08259 -2.72856 0
M  V30 14721 O 1562.08 -5.9427 -1.83651 0
M  V30 14722 C 1560.89 -7.64886 -2.9555 0
M  V30 14723 O 1560.5 -8.53963 -1.90717 0
M  V30 14724 C 1560.01 -6.4116 -2.90739 0
M  V30 14725 C 1560.72 -5.55375 -1.86963 0
M  V30 14726 N 1560.67 -4.09664 -2.15742 0
M  V30 14727 H 1563.51 -7.45574 -4.45629 0
M  V30 14728 H 1563.78 -5.86232 -3.67314 0
M  V30 14729 H 1562.91 -7.84412 -2.24479 0
M  V30 14730 P 1558.95 -8.7635 -1.60911 0
M  V30 14731 O 1558.73 -10.1388 -1.11561 0
M  V30 14732 O 1558.16 -8.36503 -2.79617 0
M  V30 14733 O 1558.7 -7.71806 -0.42951 0
M  V30 14734 C 1559.64 -7.67148 0.673689 0
M  V30 14735 C 1558.91 -7.33374 1.95559 0
M  V30 14736 O 1558.7 -5.88721 2.00726 0
M  V30 14737 C 1557.51 -7.92526 2.10483 0
M  V30 14738 O 1557.12 -8.02971 3.47653 0
M  V30 14739 C 1556.63 -6.89602 1.41652 0
M  V30 14740 C 1557.34 -5.59201 1.75185 0
M  V30 14741 N 1557.29 -4.58235 0.662552 0
M  V30 14742 H 1560.13 -8.65116 0.777161 0
M  V30 14743 H 1560.4 -6.90173 0.474152 0
M  V30 14744 H 1559.53 -7.66548 2.79458 0
M  V30 14745 P 1555.57 -8.03563 3.84925 0
M  V30 14746 O 1555.35 -8.85821 5.0569 0
M  V30 14747 O 1554.78 -8.41101 2.65469 0
M  V30 14748 O 1555.32 -6.4965 4.18908 0
M  V30 14749 C 1556.26 -5.80886 5.05289 0
M  V30 14750 C 1555.53 -4.78366 5.89277 0
M  V30 14751 O 1555.32 -3.58302 5.08433 0
M  V30 14752 C 1554.13 -5.16748 6.36559 0
M  V30 14753 O 1553.74 -4.45271 7.53232 0
M  V30 14754 C 1553.25 -4.74572 5.19863 0
M  V30 14755 C 1553.96 -3.49373 4.70338 0
M  V30 14756 N 1553.91 -3.31704 3.22876 0
M  V30 14757 C 1553.76 -2.03326 2.74871 0
M  V30 14758 O 1553.67 -1.06486 3.48076 0
M  V30 14759 N 1553.72 -1.91838 1.37456 0
M  V30 14760 C 1553.81 -2.94295 0.462035 0
M  V30 14761 C 1553.96 -4.25064 1.05249 0
M  V30 14762 C 1554.01 -4.40214 2.39192 0
M  V30 14763 H 1556.75 -6.54063 5.71245 0
M  V30 14764 H 1557.02 -5.30339 4.43905 0
M  V30 14765 H 1556.15 -4.55889 6.76652 0
M  V30 14766 H 1553.5 -2.6167 5.17842 0
M  V30 14767 H 1553.22 -5.52155 4.41878 0
M  V30 14768 H 1552.23 -4.51918 5.53297 0
M  V30 14769 H 1554.06 -6.25055 6.55162 0
M  V30 14770 H 1554.13 -5.39798 2.81523 0
M  V30 14771 P 1552.19 -4.23843 7.83734 0
M  V30 14772 O 1551.97 -4.19407 9.29784 0
M  V30 14773 O 1551.4 -5.24426 7.09156 0
M  V30 14774 O 1551.94 -2.7935 7.20758 0
M  V30 14775 C 1552.88 -1.7299 7.50419 0
M  V30 14776 C 1552.15 -0.406376 7.57911 0
M  V30 14777 O 1551.94 0.0897726 6.21935 0
M  V30 14778 C 1550.75 -0.447224 8.1878 0
M  V30 14779 O 1550.36 0.825065 8.71101 0
M  V30 14780 C 1549.87 -0.783801 6.99623 0
M  V30 14781 C 1550.58 -0.0619192 5.85967 0
M  V30 14782 N 1550.53 -0.7859 4.56281 0
M  V30 14783 H 1553.37 -1.93423 8.4679 0
M  V30 14784 H 1553.64 -1.68181 6.71046 0
M  V30 14785 H 1552.77 0.289041 8.15388 0
M  V30 14786 P 1548.81 1.17771 8.83182 0
M  V30 14787 O 1548.59 2.07206 9.98732 0
M  V30 14788 O 1548.02 -0.0743816 8.81969 0
M  V30 14789 O 1548.56 1.97652 7.47304 0
M  V30 14790 C 1549.5 3.01055 7.08599 0
M  V30 14791 C 1548.77 4.12613 6.37049 0
M  V30 14792 O 1548.56 3.72827 4.97879 0
M  V30 14793 C 1547.37 4.45719 6.88164 0
M  V30 14794 O 1546.98 5.7877 6.5624 0
M  V30 14795 C 1546.49 3.47768 6.11991 0
M  V30 14796 C 1547.2 3.39356 4.77615 0
M  V30 14797 N 1547.15 2.04571 4.15244 0
M  V30 14798 C 1547 1.98587 2.78314 0
M  V30 14799 O 1546.91 2.98134 2.08835 0
M  V30 14800 N 1546.96 0.714467 2.24925 0
M  V30 14801 C 1547.05 -0.470001 2.94169 0
M  V30 14802 O 1547 -1.55587 2.35195 0
M  V30 14803 C 1547.2 -0.312541 4.36783 0
M  V30 14804 C 1547.31 -1.57711 5.16352 0
M  V30 14805 C 1547.25 0.914512 4.92583 0
M  V30 14806 H 1549.99 3.41169 7.98575 0
M  V30 14807 H 1550.26 2.58295 6.41556 0
M  V30 14808 H 1549.39 5.02657 6.42673 0
M  V30 14809 H 1546.74 4.11637 4.08885 0
M  V30 14810 H 1546.46 2.49626 6.61679 0
M  V30 14811 H 1545.47 3.86566 6.00778 0
M  V30 14812 H 1547.3 4.29943 7.96918 0
M  V30 14813 H 1547.37 1.00937 6.00374 0
M  V30 14814 H 1546.34 -1.80153 5.63503 0
M  V30 14815 H 1548.08 -1.4566 5.94104 0
M  V30 14816 H 1547.59 -2.40664 4.49645 0
M  V30 14817 H 1546.86 0.647622 1.25697 0
M  V30 14818 P 1545.43 6.144 6.45285 0
M  V30 14819 O 1545.21 7.54673 6.86199 0
M  V30 14820 O 1544.64 5.12391 7.179 0
M  V30 14821 O 1545.18 5.99158 4.88404 0
M  V30 14822 C 1546.12 6.60062 3.96313 0
M  V30 14823 C 1545.39 7.08259 2.72856 0
M  V30 14824 O 1545.18 5.9427 1.83651 0
M  V30 14825 C 1543.99 7.65087 2.94749 0
M  V30 14826 O 1543.6 8.53963 1.90717 0
M  V30 14827 C 1543.11 6.41069 2.90698 0
M  V30 14828 C 1543.82 5.5528 1.86931 0
M  V30 14829 N 1543.77 4.09575 2.15696 0
M  V30 14830 C 1543.62 3.24249 1.08435 0
M  V30 14831 O 1543.53 3.63946 -0.0628747 0
M  V30 14832 N 1543.58 1.90009 1.39973 0
M  V30 14833 C 1543.67 1.34884 2.65614 0
M  V30 14834 C 1543.82 2.3145 3.71736 0
M  V30 14835 C 1543.87 3.63518 3.44754 0
M  V30 14836 H 1546.61 7.45402 4.45526 0
M  V30 14837 H 1546.88 5.86062 3.67208 0
M  V30 14838 H 1546.01 7.84412 2.24479 0
M  V30 14839 H 1543.36 5.73358 0.888409 0
M  V30 14840 H 1543.08 5.90877 3.88583 0
M  V30 14841 H 1542.09 6.65867 2.58821 0
M  V30 14842 H 1543.92 8.16248 3.92006 0
M  V30 14843 H 1543.99 4.34551 4.26383 0
M  V30 14844 P 1542.05 8.7635 1.60911 0
M  V30 14845 O 1541.83 10.1388 1.11561 0
M  V30 14846 O 1541.26 8.36503 2.79617 0
M  V30 14847 O 1541.8 7.71806 0.42951 0
M  V30 14848 C 1542.74 7.67148 -0.673689 0
M  V30 14849 C 1542.01 7.33374 -1.95559 0
M  V30 14850 O 1541.8 5.88721 -2.00726 0
M  V30 14851 C 1540.61 7.92526 -2.10483 0
M  V30 14852 O 1540.22 8.02971 -3.47653 0
M  V30 14853 C 1539.73 6.89602 -1.41652 0
M  V30 14854 C 1540.44 5.59201 -1.75185 0
M  V30 14855 N 1540.39 4.58235 -0.662552 0
M  V30 14856 H 1543.23 8.65116 -0.777161 0
M  V30 14857 H 1543.5 6.90173 -0.474152 0
M  V30 14858 H 1542.63 7.66548 -2.79458 0
M  V30 14859 P 1538.67 8.03563 -3.84925 0
M  V30 14860 O 1538.45 8.85821 -5.0569 0
M  V30 14861 O 1537.88 8.41101 -2.65469 0
M  V30 14862 O 1538.42 6.4965 -4.18908 0
M  V30 14863 C 1539.36 5.81037 -5.05421 0
M  V30 14864 C 1538.63 4.78366 -5.89277 0
M  V30 14865 O 1538.42 3.58302 -5.08433 0
M  V30 14866 C 1537.23 5.17448 -6.36119 0
M  V30 14867 O 1536.84 4.45271 -7.53232 0
M  V30 14868 C 1536.35 4.74639 -5.19936 0
M  V30 14869 C 1537.06 3.49432 -4.70418 0
M  V30 14870 N 1537.01 3.31776 -3.22945 0
M  V30 14871 C 1537.09 4.27147 -2.23315 0
M  V30 14872 N 1537.01 3.78447 -1.02186 0
M  V30 14873 C 1536.87 2.41001 -1.21732 0
M  V30 14874 C 1536.74 1.36111 -0.27694 0
M  V30 14875 N 1536.62 0.113683 -0.912949 0
M  V30 14876 C 1536.62 -0.0846396 -2.27943 0
M  V30 14877 N 1536.49 -1.34737 -2.6916 0
M  V30 14878 N 1536.75 0.902521 -3.16379 0
M  V30 14879 C 1536.87 2.11937 -2.56849 0
M  V30 14880 H 1539.85 6.54213 -5.71376 0
M  V30 14881 H 1540.12 5.30492 -4.44033 0
M  V30 14882 H 1539.25 4.55889 -6.76652 0
M  V30 14883 P 1535.29 4.23843 -7.83734 0
M  V30 14884 O 1535.07 4.19407 -9.29784 0
M  V30 14885 O 1534.5 5.24426 -7.09156 0
M  V30 14886 O 1535.04 2.7935 -7.20758 0
M  V30 14887 C 1535.98 1.7299 -7.50419 0
M  V30 14888 C 1535.25 0.406376 -7.57911 0
M  V30 14889 O 1535.04 -0.0897726 -6.21935 0
M  V30 14890 C 1533.85 0.447224 -8.1878 0
M  V30 14891 O 1533.46 -0.825065 -8.71101 0
M  V30 14892 C 1532.97 0.783801 -6.99623 0
M  V30 14893 C 1533.68 0.0619192 -5.85967 0
M  V30 14894 N 1533.63 0.790462 -4.56202 0
M  V30 14895 H 1536.47 1.93423 -8.4679 0
M  V30 14896 H 1536.74 1.68852 -6.70877 0
M  V30 14897 H 1535.87 -0.289041 -8.15388 0
M  V30 14898 H 1533.22 -0.927006 -5.72848 0
M  V30 14899 H 1532.94 1.86973 -6.82036 0
M  V30 14900 H 1531.95 0.403953 -7.13357 0
M  V30 14901 H 1533.78 1.20599 -8.97534 0
M  V30 14902 P 1531.91 -1.17771 -8.83182 0
M  V30 14903 O 1531.69 -2.07206 -9.98732 0
M  V30 14904 O 1531.12 0.0743816 -8.81969 0
M  V30 14905 O 1531.66 -1.97652 -7.47304 0
M  V30 14906 C 1532.6 -3.01133 -7.08783 0
M  V30 14907 C 1531.87 -4.12613 -6.37049 0
M  V30 14908 O 1531.66 -3.72827 -4.97879 0
M  V30 14909 C 1530.47 -4.45085 -6.88694 0
M  V30 14910 O 1530.08 -5.7877 -6.5624 0
M  V30 14911 C 1529.59 -3.47817 -6.12078 0
M  V30 14912 C 1530.3 -3.39414 -4.77697 0
M  V30 14913 N 1530.25 -2.04615 -4.15333 0
M  V30 14914 H 1533.09 -3.41248 -7.98759 0
M  V30 14915 H 1533.36 -2.5837 -6.41742 0
M  V30 14916 H 1532.49 -5.02657 -6.42673 0
M  V30 14917 P 1528.53 -6.144 -6.45285 0
M  V30 14918 O 1528.31 -7.54673 -6.86199 0
M  V30 14919 O 1527.74 -5.12391 -7.179 0
M  V30 14920 O 1528.28 -5.99158 -4.88404 0
M  V30 14921 C 1529.22 -6.60234 -3.96415 0
M  V30 14922 C 1528.49 -7.08259 -2.72856 0
M  V30 14923 O 1528.28 -5.9427 -1.83651 0
M  V30 14924 C 1527.09 -7.64886 -2.9555 0
M  V30 14925 O 1526.7 -8.53963 -1.90717 0
M  V30 14926 C 1526.21 -6.4116 -2.90739 0
M  V30 14927 C 1526.92 -5.55375 -1.86963 0
M  V30 14928 N 1526.87 -4.09664 -2.15742 0
M  V30 14929 H 1529.71 -7.45574 -4.45629 0
M  V30 14930 H 1529.98 -5.86232 -3.67314 0
M  V30 14931 H 1529.11 -7.84412 -2.24479 0
M  V30 14932 P 1525.15 -8.7635 -1.60911 0
M  V30 14933 O 1524.93 -10.1388 -1.11561 0
M  V30 14934 O 1524.36 -8.36503 -2.79617 0
M  V30 14935 O 1524.9 -7.71806 -0.42951 0
M  V30 14936 C 1525.84 -7.67148 0.673689 0
M  V30 14937 C 1525.11 -7.33374 1.95559 0
M  V30 14938 O 1524.9 -5.88721 2.00726 0
M  V30 14939 C 1523.71 -7.92526 2.10483 0
M  V30 14940 O 1523.32 -8.02971 3.47653 0
M  V30 14941 C 1522.83 -6.89602 1.41652 0
M  V30 14942 C 1523.54 -5.59201 1.75185 0
M  V30 14943 N 1523.49 -4.58301 0.657969 0
M  V30 14944 H 1526.33 -8.65116 0.777161 0
M  V30 14945 H 1526.6 -6.9022 0.46725 0
M  V30 14946 H 1525.73 -7.66548 2.79458 0
M  V30 14947 H 1523.08 -5.16165 2.65183 0
M  V30 14948 H 1522.8 -7.06433 0.329384 0
M  V30 14949 H 1521.81 -6.90926 1.82021 0
M  V30 14950 H 1523.64 -8.90873 1.62657 0
M  V30 14951 P 1521.77 -8.03563 3.84925 0
M  V30 14952 O 1521.55 -8.85821 5.0569 0
M  V30 14953 O 1520.98 -8.41101 2.65469 0
M  V30 14954 O 1521.52 -6.4965 4.18908 0
M  V30 14955 C 1522.46 -5.80886 5.05289 0
M  V30 14956 C 1521.73 -4.78366 5.89277 0
M  V30 14957 O 1521.52 -3.58302 5.08433 0
M  V30 14958 C 1520.33 -5.16748 6.36559 0
M  V30 14959 O 1519.94 -4.45271 7.53232 0
M  V30 14960 C 1519.45 -4.74572 5.19863 0
M  V30 14961 C 1520.16 -3.49373 4.70338 0
M  V30 14962 N 1520.11 -3.31704 3.22876 0
M  V30 14963 C 1519.96 -2.03326 2.74871 0
M  V30 14964 O 1519.87 -1.06486 3.48076 0
M  V30 14965 N 1519.92 -1.91838 1.37456 0
M  V30 14966 C 1520.01 -2.94295 0.462035 0
M  V30 14967 O 1519.96 -2.71763 -0.752928 0
M  V30 14968 C 1520.16 -4.25064 1.05249 0
M  V30 14969 C 1520.27 -5.39815 0.095697 0
M  V30 14970 C 1520.21 -4.40214 2.39192 0
M  V30 14971 H 1522.95 -6.54063 5.71245 0
M  V30 14972 H 1523.22 -5.30339 4.43905 0
M  V30 14973 H 1522.35 -4.55889 6.76652 0
M  V30 14974 H 1519.7 -2.6167 5.17842 0
M  V30 14975 H 1519.42 -5.52155 4.41878 0
M  V30 14976 H 1518.43 -4.51918 5.53297 0
M  V30 14977 H 1520.26 -6.25055 6.55162 0
M  V30 14978 H 1520.33 -5.39798 2.81523 0
M  V30 14979 H 1519.3 -5.91593 0.0279582 0
M  V30 14980 H 1521.04 -6.10038 0.450573 0
M  V30 14981 H 1520.55 -5.02007 -0.89937 0
M  V30 14982 H 1519.82 -0.995326 1.00435 0
M  V30 14983 P 1518.39 -4.23843 7.83734 0
M  V30 14984 O 1518.17 -4.19407 9.29784 0
M  V30 14985 O 1517.6 -5.24426 7.09156 0
M  V30 14986 O 1518.14 -2.7935 7.20758 0
M  V30 14987 C 1519.08 -1.72945 7.50224 0
M  V30 14988 C 1518.35 -0.406376 7.57911 0
M  V30 14989 O 1518.14 0.0897726 6.21935 0
M  V30 14990 C 1516.95 -0.438983 8.18724 0
M  V30 14991 O 1516.56 0.825065 8.71101 0
M  V30 14992 C 1516.07 -0.783689 6.99524 0
M  V30 14993 C 1516.78 -0.0619086 5.85867 0
M  V30 14994 N 1516.73 -0.78573 4.56183 0
M  V30 14995 C 1516.58 -0.0292889 3.41887 0
M  V30 14996 O 1516.49 1.18445 3.4419 0
M  V30 14997 N 1516.54 -0.744061 2.23964 0
M  V30 14998 C 1516.63 -2.10932 2.10362 0
M  V30 14999 O 1516.58 -2.64117 0.98825 0
M  V30 15000 C 1516.78 -2.8202 3.34994 0
M  V30 15001 C 1516.89 -4.31095 3.25037 0
M  V30 15002 C 1516.83 -2.15547 4.52261 0
M  V30 15003 H 1519.57 -1.93379 8.46595 0
M  V30 15004 H 1519.84 -1.68132 6.70852 0
M  V30 15005 H 1518.97 0.289041 8.15388 0
M  V30 15006 H 1516.32 0.926847 5.72749 0
M  V30 15007 H 1516.04 -1.86973 6.82036 0
M  V30 15008 H 1515.05 -0.403896 7.13257 0
M  V30 15009 H 1516.88 -1.20585 8.97435 0
M  V30 15010 H 1516.95 -2.71231 5.45042 0
M  V30 15011 H 1515.92 -4.76966 3.49992 0
M  V30 15012 H 1517.66 -4.67047 3.95024 0
M  V30 15013 H 1517.17 -4.58996 2.22312 0
M  V30 15014 H 1516.44 -0.214893 1.39758 0
M  V30 15015 P 1515.01 1.17771 8.83182 0
M  V30 15016 O 1514.79 2.07206 9.98732 0
M  V30 15017 O 1514.22 -0.0743816 8.81969 0
M  V30 15018 O 1514.76 1.97652 7.47304 0
M  V30 15019 C 1515.7 3.01133 7.08783 0
M  V30 15020 C 1514.97 4.12613 6.37049 0
M  V30 15021 O 1514.76 3.72827 4.97879 0
M  V30 15022 C 1513.57 4.45085 6.88694 0
M  V30 15023 O 1513.18 5.7877 6.5624 0
M  V30 15024 C 1512.69 3.47817 6.12078 0
M  V30 15025 C 1513.4 3.39414 4.77697 0
M  V30 15026 N 1513.35 2.04615 4.15333 0
M  V30 15027 H 1516.19 3.41248 7.98759 0
M  V30 15028 H 1516.46 2.5837 6.41742 0
M  V30 15029 H 1515.59 5.02657 6.42673 0
M  V30 15030 P 1511.63 6.144 6.45285 0
M  V30 15031 O 1511.41 7.54673 6.86199 0
M  V30 15032 O 1510.84 5.12391 7.179 0
M  V30 15033 O 1511.38 5.99158 4.88404 0
M  V30 15034 C 1512.32 6.60234 3.96415 0
M  V30 15035 C 1511.59 7.08259 2.72856 0
M  V30 15036 O 1511.38 5.9427 1.83651 0
M  V30 15037 C 1510.19 7.64886 2.9555 0
M  V30 15038 O 1509.8 8.53963 1.90717 0
M  V30 15039 C 1509.31 6.4116 2.90739 0
M  V30 15040 C 1510.02 5.55375 1.86963 0
M  V30 15041 N 1509.97 4.09448 2.16152 0
M  V30 15042 H 1512.81 7.45574 4.45629 0
M  V30 15043 H 1513.08 5.85864 3.679 0
M  V30 15044 H 1512.21 7.84412 2.24479 0
M  V30 15045 H 1509.56 5.73457 0.888562 0
M  V30 15046 H 1509.28 5.90877 3.88583 0
M  V30 15047 H 1508.29 6.6596 2.58858 0
M  V30 15048 H 1510.12 8.16339 3.92049 0
M  V30 15049 P 1508.25 8.7635 1.60911 0
M  V30 15050 O 1508.03 10.1388 1.11561 0
M  V30 15051 O 1507.46 8.36503 2.79617 0
M  V30 15052 O 1508 7.71806 0.42951 0
M  V30 15053 C 1508.94 7.67148 -0.673689 0
M  V30 15054 C 1508.21 7.33374 -1.95559 0
M  V30 15055 O 1508 5.88721 -2.00726 0
M  V30 15056 C 1506.81 7.92526 -2.10483 0
M  V30 15057 O 1506.42 8.02971 -3.47653 0
M  V30 15058 C 1505.93 6.89602 -1.41652 0
M  V30 15059 C 1506.64 5.59201 -1.75185 0
M  V30 15060 N 1506.59 4.58301 -0.657969 0
M  V30 15061 H 1509.43 8.65116 -0.777161 0
M  V30 15062 H 1509.7 6.9022 -0.46725 0
M  V30 15063 H 1508.83 7.66548 -2.79458 0
M  V30 15064 H 1506.18 5.16165 -2.65183 0
M  V30 15065 H 1505.9 7.06433 -0.329384 0
M  V30 15066 H 1504.91 6.90926 -1.82021 0
M  V30 15067 H 1506.74 8.90873 -1.62657 0
M  V30 15068 P 1504.87 8.03563 -3.84925 0
M  V30 15069 O 1504.65 8.85821 -5.0569 0
M  V30 15070 O 1504.08 8.41101 -2.65469 0
M  V30 15071 O 1504.62 6.4965 -4.18908 0
M  V30 15072 C 1505.56 5.81037 -5.05421 0
M  V30 15073 C 1504.83 4.78366 -5.89277 0
M  V30 15074 O 1504.62 3.58302 -5.08433 0
M  V30 15075 C 1503.43 5.17448 -6.36119 0
M  V30 15076 O 1503.04 4.45271 -7.53232 0
M  V30 15077 C 1502.55 4.74639 -5.19936 0
M  V30 15078 C 1503.26 3.49432 -4.70418 0
M  V30 15079 N 1503.21 3.31776 -3.22945 0
M  V30 15080 H 1506.05 6.54213 -5.71376 0
M  V30 15081 H 1506.32 5.30492 -4.44033 0
M  V30 15082 H 1505.45 4.55889 -6.76652 0
M  V30 15083 P 1501.49 4.23843 -7.83734 0
M  V30 15084 O 1501.27 4.19407 -9.29784 0
M  V30 15085 O 1500.7 5.24426 -7.09156 0
M  V30 15086 O 1501.24 2.7935 -7.20758 0
M  V30 15087 C 1502.18 1.72945 -7.50224 0
M  V30 15088 C 1501.45 0.406376 -7.57911 0
M  V30 15089 O 1501.24 -0.0897726 -6.21935 0
M  V30 15090 C 1500.05 0.438983 -8.18724 0
M  V30 15091 O 1499.66 -0.825065 -8.71101 0
M  V30 15092 C 1499.17 0.783689 -6.99524 0
M  V30 15093 C 1499.88 0.0619086 -5.85867 0
M  V30 15094 N 1499.83 0.78573 -4.56183 0
M  V30 15095 C 1499.68 0.0292889 -3.41887 0
M  V30 15096 O 1499.59 -1.18445 -3.4419 0
M  V30 15097 N 1499.64 0.744061 -2.23964 0
M  V30 15098 C 1499.73 2.10932 -2.10362 0
M  V30 15099 O 1499.68 2.64117 -0.98825 0
M  V30 15100 C 1499.88 2.8202 -3.34994 0
M  V30 15101 C 1499.99 4.31095 -3.25037 0
M  V30 15102 C 1499.93 2.15547 -4.52261 0
M  V30 15103 H 1502.67 1.93379 -8.46595 0
M  V30 15104 H 1502.94 1.68132 -6.70852 0
M  V30 15105 H 1502.07 -0.289041 -8.15388 0
M  V30 15106 H 1499.42 -0.926847 -5.72749 0
M  V30 15107 H 1499.14 1.86973 -6.82036 0
M  V30 15108 H 1498.15 0.403896 -7.13257 0
M  V30 15109 H 1499.98 1.20585 -8.97435 0
M  V30 15110 H 1500.05 2.71231 -5.45042 0
M  V30 15111 H 1499.02 4.76966 -3.49992 0
M  V30 15112 H 1500.76 4.67047 -3.95024 0
M  V30 15113 H 1500.27 4.58996 -2.22312 0
M  V30 15114 H 1499.54 0.214893 -1.39758 0
M  V30 15115 P 1498.11 -1.17771 -8.83182 0
M  V30 15116 O 1497.89 -2.07206 -9.98732 0
M  V30 15117 O 1497.32 0.0743816 -8.81969 0
M  V30 15118 O 1497.86 -1.97652 -7.47304 0
M  V30 15119 C 1498.8 -3.01055 -7.08599 0
M  V30 15120 C 1498.07 -4.12613 -6.37049 0
M  V30 15121 O 1497.86 -3.72827 -4.97879 0
M  V30 15122 C 1496.67 -4.45719 -6.88164 0
M  V30 15123 O 1496.28 -5.7877 -6.5624 0
M  V30 15124 C 1495.79 -3.47768 -6.11991 0
M  V30 15125 C 1496.5 -3.39356 -4.77615 0
M  V30 15126 N 1496.45 -2.04571 -4.15244 0
M  V30 15127 C 1496.3 -1.98587 -2.78314 0
M  V30 15128 O 1496.21 -2.98134 -2.08835 0
M  V30 15129 N 1496.26 -0.714467 -2.24925 0
M  V30 15130 C 1496.35 0.470001 -2.94169 0
M  V30 15131 C 1496.5 0.312541 -4.36783 0
M  V30 15132 C 1496.55 -0.914512 -4.92583 0
M  V30 15133 H 1499.29 -3.41169 -7.98575 0
M  V30 15134 H 1499.56 -2.58295 -6.41556 0
M  V30 15135 H 1498.69 -5.02657 -6.42673 0
M  V30 15136 H 1496.04 -4.11637 -4.08885 0
M  V30 15137 H 1495.76 -2.49626 -6.61679 0
M  V30 15138 H 1494.77 -3.86566 -6.00778 0
M  V30 15139 H 1496.6 -4.29943 -7.96918 0
M  V30 15140 H 1496.67 -1.00937 -6.00374 0
M  V30 15141 P 1494.73 -6.144 -6.45285 0
M  V30 15142 O 1494.51 -7.54673 -6.86199 0
M  V30 15143 O 1493.94 -5.12391 -7.179 0
M  V30 15144 O 1494.48 -5.99158 -4.88404 0
M  V30 15145 C 1495.42 -6.60234 -3.96415 0
M  V30 15146 C 1494.69 -7.08259 -2.72856 0
M  V30 15147 O 1494.48 -5.9427 -1.83651 0
M  V30 15148 C 1493.29 -7.64886 -2.9555 0
M  V30 15149 O 1492.9 -8.53963 -1.90717 0
M  V30 15150 C 1492.41 -6.4116 -2.90739 0
M  V30 15151 C 1493.12 -5.55375 -1.86963 0
M  V30 15152 N 1493.07 -4.09448 -2.16152 0
M  V30 15153 C 1493.15 -3.46824 -3.37593 0
M  V30 15154 N 1493.08 -2.17422 -3.29777 0
M  V30 15155 C 1492.93 -1.93065 -1.94427 0
M  V30 15156 C 1492.8 -0.738053 -1.20141 0
M  V30 15157 N 1492.79 0.474256 -1.74676 0
M  V30 15158 N 1492.68 -0.850049 0.13045 0
M  V30 15159 C 1492.69 -2.06169 0.676992 0
M  V30 15160 N 1492.81 -3.23842 0.101312 0
M  V30 15161 C 1492.93 -3.09402 -1.23122 0
M  V30 15162 H 1495.91 -7.45574 -4.45629 0
M  V30 15163 H 1496.18 -5.85864 -3.679 0
M  V30 15164 H 1495.31 -7.84412 -2.24479 0
M  V30 15165 H 1492.66 -5.73457 -0.888562 0
M  V30 15166 H 1492.38 -5.90877 -3.88583 0
M  V30 15167 H 1491.39 -6.6596 -2.58858 0
M  V30 15168 H 1493.22 -8.16339 -3.92049 0
M  V30 15169 H 1493.26 -4.00505 -4.3174 0
M  V30 15170 H 1492.88 0.581337 -2.76658 0
M  V30 15171 H 1492.69 1.30811 -1.14888 0
M  V30 15172 H 1492.59 -2.08295 1.75542 0
M  V30 15173 P 1491.35 -8.7635 -1.60911 0
M  V30 15174 O 1491.13 -10.1388 -1.11561 0
M  V30 15175 O 1490.56 -8.36503 -2.79617 0
M  V30 15176 O 1491.1 -7.71806 -0.42951 0
M  V30 15177 C 1492.04 -7.67148 0.673689 0
M  V30 15178 C 1491.31 -7.33374 1.95559 0
M  V30 15179 O 1491.1 -5.88721 2.00726 0
M  V30 15180 C 1489.91 -7.92526 2.10483 0
M  V30 15181 O 1489.52 -8.02971 3.47653 0
M  V30 15182 C 1489.03 -6.89602 1.41652 0
M  V30 15183 C 1489.74 -5.59201 1.75185 0
M  V30 15184 N 1489.69 -4.58235 0.662552 0
M  V30 15185 H 1492.53 -8.65116 0.777161 0
M  V30 15186 H 1492.8 -6.90173 0.474152 0
M  V30 15187 H 1491.93 -7.66548 2.79458 0
M  V30 15188 P 1487.97 -8.03563 3.84925 0
M  V30 15189 O 1487.75 -8.85821 5.0569 0
M  V30 15190 O 1487.18 -8.41101 2.65469 0
M  V30 15191 O 1487.72 -6.4965 4.18908 0
M  V30 15192 C 1488.66 -5.80886 5.05289 0
M  V30 15193 C 1487.93 -4.78366 5.89277 0
M  V30 15194 O 1487.72 -3.58302 5.08433 0
M  V30 15195 C 1486.53 -5.16748 6.36559 0
M  V30 15196 O 1486.14 -4.45271 7.53232 0
M  V30 15197 C 1485.65 -4.74572 5.19863 0
M  V30 15198 C 1486.36 -3.49373 4.70338 0
M  V30 15199 N 1486.31 -3.31704 3.22876 0
M  V30 15200 C 1486.16 -2.03326 2.74871 0
M  V30 15201 O 1486.07 -1.06486 3.48076 0
M  V30 15202 N 1486.12 -1.91838 1.37456 0
M  V30 15203 C 1486.21 -2.94295 0.462035 0
M  V30 15204 O 1486.16 -2.71763 -0.752928 0
M  V30 15205 C 1486.36 -4.25064 1.05249 0
M  V30 15206 C 1486.47 -5.39815 0.095697 0
M  V30 15207 C 1486.41 -4.40214 2.39192 0
M  V30 15208 H 1489.15 -6.54063 5.71245 0
M  V30 15209 H 1489.42 -5.30339 4.43905 0
M  V30 15210 H 1488.55 -4.55889 6.76652 0
M  V30 15211 H 1485.9 -2.6167 5.17842 0
M  V30 15212 H 1485.62 -5.52155 4.41878 0
M  V30 15213 H 1484.63 -4.51918 5.53297 0
M  V30 15214 H 1486.46 -6.25055 6.55162 0
M  V30 15215 H 1486.53 -5.39798 2.81523 0
M  V30 15216 H 1485.5 -5.91593 0.0279582 0
M  V30 15217 H 1487.24 -6.10038 0.450573 0
M  V30 15218 H 1486.75 -5.02007 -0.89937 0
M  V30 15219 H 1486.02 -0.995326 1.00435 0
M  V30 15220 P 1484.59 -4.23843 7.83734 0
M  V30 15221 O 1484.37 -4.19407 9.29784 0
M  V30 15222 O 1483.8 -5.24426 7.09156 0
M  V30 15223 O 1484.34 -2.7935 7.20758 0
M  V30 15224 C 1485.28 -1.72945 7.50224 0
M  V30 15225 C 1484.55 -0.406376 7.57911 0
M  V30 15226 O 1484.34 0.0897726 6.21935 0
M  V30 15227 C 1483.15 -0.438983 8.18724 0
M  V30 15228 O 1482.76 0.825065 8.71101 0
M  V30 15229 C 1482.27 -0.783689 6.99524 0
M  V30 15230 C 1482.98 -0.0619086 5.85867 0
M  V30 15231 N 1482.93 -0.78573 4.56183 0
M  V30 15232 C 1482.78 -0.0292889 3.41887 0
M  V30 15233 O 1482.69 1.18445 3.4419 0
M  V30 15234 N 1482.74 -0.744061 2.23964 0
M  V30 15235 C 1482.83 -2.10932 2.10362 0
M  V30 15236 C 1482.98 -2.8202 3.34994 0
M  V30 15237 C 1483.03 -2.15547 4.52261 0
M  V30 15238 H 1485.77 -1.93379 8.46595 0
M  V30 15239 H 1486.04 -1.68132 6.70852 0
M  V30 15240 H 1485.17 0.289041 8.15388 0
M  V30 15241 H 1482.52 0.926847 5.72749 0
M  V30 15242 H 1482.24 -1.86973 6.82036 0
M  V30 15243 H 1481.25 -0.403896 7.13257 0
M  V30 15244 H 1483.08 -1.20585 8.97435 0
M  V30 15245 H 1483.15 -2.71231 5.45042 0
M  V30 15246 P 1481.21 1.17771 8.83182 0
M  V30 15247 O 1480.99 2.07206 9.98732 0
M  V30 15248 O 1480.42 -0.0743816 8.81969 0
M  V30 15249 O 1480.96 1.97652 7.47304 0
M  V30 15250 C 1481.9 3.01133 7.08783 0
M  V30 15251 C 1481.17 4.12613 6.37049 0
M  V30 15252 O 1480.96 3.72827 4.97879 0
M  V30 15253 C 1479.77 4.45085 6.88694 0
M  V30 15254 O 1479.38 5.7877 6.5624 0
M  V30 15255 C 1478.89 3.47817 6.12078 0
M  V30 15256 C 1479.6 3.39414 4.77697 0
M  V30 15257 N 1479.55 2.04615 4.15333 0
M  V30 15258 H 1482.39 3.41248 7.98759 0
M  V30 15259 H 1482.66 2.5837 6.41742 0
M  V30 15260 H 1481.79 5.02657 6.42673 0
M  V30 15261 P 1477.83 6.144 6.45285 0
M  V30 15262 O 1477.61 7.54673 6.86199 0
M  V30 15263 O 1477.04 5.12391 7.179 0
M  V30 15264 O 1477.58 5.99158 4.88404 0
M  V30 15265 C 1478.52 6.60234 3.96415 0
M  V30 15266 C 1477.79 7.08259 2.72856 0
M  V30 15267 O 1477.58 5.9427 1.83651 0
M  V30 15268 C 1476.39 7.64886 2.9555 0
M  V30 15269 O 1476 8.53963 1.90717 0
M  V30 15270 C 1475.51 6.4116 2.90739 0
M  V30 15271 C 1476.22 5.55375 1.86963 0
M  V30 15272 N 1476.17 4.09664 2.15742 0
M  V30 15273 H 1479.01 7.45574 4.45629 0
M  V30 15274 H 1479.28 5.86232 3.67314 0
M  V30 15275 H 1478.41 7.84412 2.24479 0
M  V30 15276 P 1474.45 8.7635 1.60911 0
M  V30 15277 O 1474.23 10.1388 1.11561 0
M  V30 15278 O 1473.66 8.36503 2.79617 0
M  V30 15279 O 1474.2 7.71806 0.42951 0
M  V30 15280 C 1475.14 7.67148 -0.673689 0
M  V30 15281 C 1474.41 7.33374 -1.95559 0
M  V30 15282 O 1474.2 5.88721 -2.00726 0
M  V30 15283 C 1473.01 7.92526 -2.10483 0
M  V30 15284 O 1472.62 8.02971 -3.47653 0
M  V30 15285 C 1472.13 6.89602 -1.41652 0
M  V30 15286 C 1472.84 5.59201 -1.75185 0
M  V30 15287 N 1472.79 4.58235 -0.662552 0
M  V30 15288 H 1475.63 8.65116 -0.777161 0
M  V30 15289 H 1475.9 6.90173 -0.474152 0
M  V30 15290 H 1475.03 7.66548 -2.79458 0
M  V30 15291 P 1471.07 8.03563 -3.84925 0
M  V30 15292 O 1470.85 8.85821 -5.0569 0
M  V30 15293 O 1470.28 8.41101 -2.65469 0
M  V30 15294 O 1470.82 6.4965 -4.18908 0
M  V30 15295 C 1471.76 5.81037 -5.05421 0
M  V30 15296 C 1471.03 4.78366 -5.89277 0
M  V30 15297 O 1470.82 3.58302 -5.08433 0
M  V30 15298 C 1469.63 5.17448 -6.36119 0
M  V30 15299 O 1469.24 4.45271 -7.53232 0
M  V30 15300 C 1468.75 4.74639 -5.19936 0
M  V30 15301 C 1469.46 3.49432 -4.70418 0
M  V30 15302 N 1469.41 3.31776 -3.22945 0
M  V30 15303 H 1472.25 6.54213 -5.71376 0
M  V30 15304 H 1472.52 5.30492 -4.44033 0
M  V30 15305 H 1471.65 4.55889 -6.76652 0
M  V30 15306 P 1467.69 4.23843 -7.83734 0
M  V30 15307 O 1467.47 4.19407 -9.29784 0
M  V30 15308 O 1466.9 5.24426 -7.09156 0
M  V30 15309 O 1467.44 2.7935 -7.20758 0
M  V30 15310 C 1468.38 1.7299 -7.50419 0
M  V30 15311 C 1467.65 0.406376 -7.57911 0
M  V30 15312 O 1467.44 -0.0897726 -6.21935 0
M  V30 15313 C 1466.25 0.447224 -8.1878 0
M  V30 15314 O 1465.86 -0.825065 -8.71101 0
M  V30 15315 C 1465.37 0.783801 -6.99623 0
M  V30 15316 C 1466.08 0.0619192 -5.85967 0
M  V30 15317 N 1466.03 0.7859 -4.56281 0
M  V30 15318 H 1468.87 1.93423 -8.4679 0
M  V30 15319 H 1469.14 1.68181 -6.71046 0
M  V30 15320 H 1468.27 -0.289041 -8.15388 0
M  V30 15321 P 1464.31 -1.17771 -8.83182 0
M  V30 15322 O 1464.09 -2.07206 -9.98732 0
M  V30 15323 O 1463.52 0.0743816 -8.81969 0
M  V30 15324 O 1464.06 -1.97652 -7.47304 0
M  V30 15325 C 1465 -3.01133 -7.08783 0
M  V30 15326 C 1464.27 -4.12613 -6.37049 0
M  V30 15327 O 1464.06 -3.72827 -4.97879 0
M  V30 15328 C 1462.87 -4.45085 -6.88694 0
M  V30 15329 O 1462.48 -5.7877 -6.5624 0
M  V30 15330 C 1461.99 -3.47817 -6.12078 0
M  V30 15331 C 1462.7 -3.39414 -4.77697 0
M  V30 15332 N 1462.65 -2.04199 -4.15538 0
M  V30 15333 C 1462.73 -0.821545 -4.76977 0
M  V30 15334 N 1462.66 0.1794 -3.94592 0
M  V30 15335 C 1462.51 -0.419121 -2.70776 0
M  V30 15336 C 1462.38 0.109072 -1.40577 0
M  V30 15337 N 1462.37 1.4104 -1.1344 0
M  V30 15338 N 1462.26 -0.764381 -0.39411 0
M  V30 15339 C 1462.27 -2.06587 -0.664135 0
M  V30 15340 N 1462.39 -2.67948 -1.82153 0
M  V30 15341 C 1462.51 -1.77942 -2.8147 0
M  V30 15342 H 1465.49 -3.41248 -7.98759 0
M  V30 15343 H 1465.76 -2.57728 -6.42 0
M  V30 15344 H 1464.89 -5.02657 -6.42673 0
M  V30 15345 H 1462.24 -4.11708 -4.08956 0
M  V30 15346 H 1461.96 -2.49626 -6.61679 0
M  V30 15347 H 1460.97 -3.8662 -6.00862 0
M  V30 15348 H 1462.8 -4.29991 -7.97006 0
M  V30 15349 H 1462.84 -0.702451 -5.84696 0
M  V30 15350 H 1462.46 2.09647 -1.89651 0
M  V30 15351 H 1462.27 1.73358 -0.160575 0
M  V30 15352 H 1462.17 -2.71695 0.195838 0
M  V30 15353 P 1460.93 -6.144 -6.45285 0
M  V30 15354 O 1460.71 -7.54673 -6.86199 0
M  V30 15355 O 1460.14 -5.12391 -7.179 0
M  V30 15356 O 1460.68 -5.99158 -4.88404 0
M  V30 15357 C 1461.62 -6.60234 -3.96415 0
M  V30 15358 C 1460.89 -7.08259 -2.72856 0
M  V30 15359 O 1460.68 -5.9427 -1.83651 0
M  V30 15360 C 1459.49 -7.64886 -2.9555 0
M  V30 15361 O 1459.1 -8.53963 -1.90717 0
M  V30 15362 C 1458.61 -6.4116 -2.90739 0
M  V30 15363 C 1459.32 -5.55375 -1.86963 0
M  V30 15364 N 1459.27 -4.09664 -2.15742 0
M  V30 15365 H 1462.11 -7.45574 -4.45629 0
M  V30 15366 H 1462.38 -5.86232 -3.67314 0
M  V30 15367 H 1461.51 -7.84412 -2.24479 0
M  V30 15368 P 1457.55 -8.7635 -1.60911 0
M  V30 15369 O 1457.33 -10.1388 -1.11561 0
M  V30 15370 O 1456.76 -8.36503 -2.79617 0
M  V30 15371 O 1457.3 -7.71806 -0.42951 0
M  V30 15372 C 1458.24 -7.67148 0.673689 0
M  V30 15373 C 1457.51 -7.33374 1.95559 0
M  V30 15374 O 1457.3 -5.88721 2.00726 0
M  V30 15375 C 1456.11 -7.92526 2.10483 0
M  V30 15376 O 1455.72 -8.02971 3.47653 0
M  V30 15377 C 1455.23 -6.89602 1.41652 0
M  V30 15378 C 1455.94 -5.59201 1.75185 0
M  V30 15379 N 1455.89 -4.58301 0.657969 0
M  V30 15380 H 1458.73 -8.65116 0.777161 0
M  V30 15381 H 1459 -6.9022 0.46725 0
M  V30 15382 H 1458.13 -7.66548 2.79458 0
M  V30 15383 H 1455.48 -5.16165 2.65183 0
M  V30 15384 H 1455.2 -7.06433 0.329384 0
M  V30 15385 H 1454.21 -6.90926 1.82021 0
M  V30 15386 H 1456.04 -8.90873 1.62657 0
M  V30 15387 P 1454.17 -8.03563 3.84925 0
M  V30 15388 O 1453.95 -8.85821 5.0569 0
M  V30 15389 O 1453.38 -8.41101 2.65469 0
M  V30 15390 O 1453.92 -6.4965 4.18908 0
M  V30 15391 C 1454.86 -5.80886 5.05289 0
M  V30 15392 C 1454.13 -4.78366 5.89277 0
M  V30 15393 O 1453.92 -3.58302 5.08433 0
M  V30 15394 C 1452.73 -5.16748 6.36559 0
M  V30 15395 O 1452.34 -4.45271 7.53232 0
M  V30 15396 C 1451.85 -4.74572 5.19863 0
M  V30 15397 C 1452.56 -3.49373 4.70338 0
M  V30 15398 N 1452.51 -3.31704 3.22876 0
M  V30 15399 C 1452.36 -2.03326 2.74871 0
M  V30 15400 O 1452.27 -1.06486 3.48076 0
M  V30 15401 N 1452.32 -1.91838 1.37456 0
M  V30 15402 C 1452.41 -2.94295 0.462035 0
M  V30 15403 O 1452.36 -2.71763 -0.752928 0
M  V30 15404 C 1452.56 -4.25064 1.05249 0
M  V30 15405 C 1452.67 -5.39815 0.095697 0
M  V30 15406 C 1452.61 -4.40214 2.39192 0
M  V30 15407 H 1455.35 -6.54063 5.71245 0
M  V30 15408 H 1455.62 -5.30339 4.43905 0
M  V30 15409 H 1454.75 -4.55889 6.76652 0
M  V30 15410 H 1452.1 -2.6167 5.17842 0
M  V30 15411 H 1451.82 -5.52155 4.41878 0
M  V30 15412 H 1450.83 -4.51918 5.53297 0
M  V30 15413 H 1452.66 -6.25055 6.55162 0
M  V30 15414 H 1452.73 -5.39798 2.81523 0
M  V30 15415 H 1451.7 -5.91593 0.0279582 0
M  V30 15416 H 1453.44 -6.10038 0.450573 0
M  V30 15417 H 1452.95 -5.02007 -0.89937 0
M  V30 15418 H 1452.22 -0.995326 1.00435 0
M  V30 15419 P 1450.79 -4.23843 7.83734 0
M  V30 15420 O 1450.57 -4.19407 9.29784 0
M  V30 15421 O 1450 -5.24426 7.09156 0
M  V30 15422 O 1450.54 -2.7935 7.20758 0
M  V30 15423 C 1451.48 -1.7299 7.50419 0
M  V30 15424 C 1450.75 -0.406376 7.57911 0
M  V30 15425 O 1450.54 0.0897726 6.21935 0
M  V30 15426 C 1449.35 -0.447224 8.1878 0
M  V30 15427 O 1448.96 0.825065 8.71101 0
M  V30 15428 C 1448.47 -0.783801 6.99623 0
M  V30 15429 C 1449.18 -0.0619192 5.85967 0
M  V30 15430 N 1449.13 -0.7859 4.56281 0
M  V30 15431 H 1451.97 -1.93423 8.4679 0
M  V30 15432 H 1452.24 -1.68181 6.71046 0
M  V30 15433 H 1451.37 0.289041 8.15388 0
M  V30 15434 P 1447.41 1.17771 8.83182 0
M  V30 15435 O 1447.19 2.07206 9.98732 0
M  V30 15436 O 1446.62 -0.0743816 8.81969 0
M  V30 15437 O 1447.16 1.97652 7.47304 0
M  V30 15438 C 1448.1 3.01133 7.08783 0
M  V30 15439 C 1447.37 4.12613 6.37049 0
M  V30 15440 O 1447.16 3.72827 4.97879 0
M  V30 15441 C 1445.97 4.45085 6.88694 0
M  V30 15442 O 1445.58 5.7877 6.5624 0
M  V30 15443 C 1445.09 3.47817 6.12078 0
M  V30 15444 C 1445.8 3.39414 4.77697 0
M  V30 15445 N 1445.75 2.04615 4.15333 0
M  V30 15446 C 1445.83 0.803897 4.75249 0
M  V30 15447 N 1445.75 -0.197615 3.91502 0
M  V30 15448 C 1445.61 0.413002 2.66823 0
M  V30 15449 C 1445.48 -0.157221 1.38007 0
M  V30 15450 N 1445.36 0.833136 0.390236 0
M  V30 15451 C 1445.36 2.19402 0.623885 0
M  V30 15452 N 1445.23 2.97622 -0.449677 0
M  V30 15453 N 1445.49 2.73005 1.83601 0
M  V30 15454 C 1445.61 1.78786 2.80935 0
M  V30 15455 H 1448.59 3.41248 7.98759 0
M  V30 15456 H 1448.86 2.5837 6.41742 0
M  V30 15457 H 1447.99 5.02657 6.42673 0
M  V30 15458 P 1444.03 6.144 6.45285 0
M  V30 15459 O 1443.81 7.54673 6.86199 0
M  V30 15460 O 1443.24 5.12391 7.179 0
M  V30 15461 O 1443.78 5.99158 4.88404 0
M  V30 15462 C 1444.72 6.60234 3.96415 0
M  V30 15463 C 1443.99 7.08259 2.72856 0
M  V30 15464 O 1443.78 5.9427 1.83651 0
M  V30 15465 C 1442.59 7.64886 2.9555 0
M  V30 15466 O 1442.2 8.53963 1.90717 0
M  V30 15467 C 1441.71 6.4116 2.90739 0
M  V30 15468 C 1442.42 5.55375 1.86963 0
M  V30 15469 N 1442.37 4.09448 2.16152 0
M  V30 15470 C 1442.45 3.46824 3.37593 0
M  V30 15471 N 1442.38 2.17422 3.29777 0
M  V30 15472 C 1442.23 1.93065 1.94427 0
M  V30 15473 C 1442.1 0.738053 1.20141 0
M  V30 15474 N 1442.09 -0.474256 1.74676 0
M  V30 15475 N 1441.98 0.850049 -0.13045 0
M  V30 15476 C 1441.99 2.06169 -0.676992 0
M  V30 15477 N 1442.11 3.23842 -0.101312 0
M  V30 15478 C 1442.23 3.09402 1.23122 0
M  V30 15479 H 1445.21 7.45574 4.45629 0
M  V30 15480 H 1445.48 5.85864 3.679 0
M  V30 15481 H 1444.61 7.84412 2.24479 0
M  V30 15482 H 1441.96 5.73457 0.888562 0
M  V30 15483 H 1441.68 5.90877 3.88583 0
M  V30 15484 H 1440.69 6.6596 2.58858 0
M  V30 15485 H 1442.52 8.16339 3.92049 0
M  V30 15486 H 1442.56 4.00505 4.3174 0
M  V30 15487 H 1442.18 -0.581337 2.76658 0
M  V30 15488 H 1441.99 -1.30811 1.14888 0
M  V30 15489 H 1441.89 2.08295 -1.75542 0
M  V30 15490 P 1440.65 8.7635 1.60911 0
M  V30 15491 O 1440.43 10.1388 1.11561 0
M  V30 15492 O 1439.86 8.36503 2.79617 0
M  V30 15493 O 1440.4 7.71806 0.42951 0
M  V30 15494 C 1441.34 7.66948 -0.673514 0
M  V30 15495 C 1440.61 7.33374 -1.95559 0
M  V30 15496 O 1440.4 5.88721 -2.00726 0
M  V30 15497 C 1439.21 7.92218 -2.1125 0
M  V30 15498 O 1438.82 8.02971 -3.47653 0
M  V30 15499 C 1438.33 6.89504 -1.41631 0
M  V30 15500 C 1439.04 5.59106 -1.75155 0
M  V30 15501 N 1438.99 4.58136 -0.662409 0
M  V30 15502 C 1438.84 3.26059 -1.02863 0
M  V30 15503 O 1438.75 2.90743 -2.19009 0
M  V30 15504 N 1438.8 2.35995 0.0155585 0
M  V30 15505 C 1438.89 2.65248 1.35603 0
M  V30 15506 C 1439.04 4.05747 1.64698 0
M  V30 15507 C 1439.09 4.96734 0.652411 0
M  V30 15508 H 1441.83 8.64917 -0.776982 0
M  V30 15509 H 1442.1 6.89974 -0.474015 0
M  V30 15510 H 1441.23 7.66548 -2.79458 0
M  V30 15511 H 1438.58 5.16076 -2.65138 0
M  V30 15512 H 1438.3 7.06433 -0.329384 0
M  V30 15513 H 1437.31 6.90829 -1.81996 0
M  V30 15514 H 1439.14 8.90774 -1.62639 0
M  V30 15515 H 1439.21 6.02181 0.895285 0
M  V30 15516 P 1437.27 8.03563 -3.84925 0
M  V30 15517 O 1437.05 8.85821 -5.0569 0
M  V30 15518 O 1436.48 8.41101 -2.65469 0
M  V30 15519 O 1437.02 6.4965 -4.18908 0
M  V30 15520 C 1437.96 5.81037 -5.05421 0
M  V30 15521 C 1437.23 4.78366 -5.89277 0
M  V30 15522 O 1437.02 3.58302 -5.08433 0
M  V30 15523 C 1435.83 5.17448 -6.36119 0
M  V30 15524 O 1435.44 4.45271 -7.53232 0
M  V30 15525 C 1434.95 4.74639 -5.19936 0
M  V30 15526 C 1435.66 3.49432 -4.70418 0
M  V30 15527 N 1435.61 3.31776 -3.22945 0
M  V30 15528 H 1438.45 6.54213 -5.71376 0
M  V30 15529 H 1438.72 5.30492 -4.44033 0
M  V30 15530 H 1437.85 4.55889 -6.76652 0
M  V30 15531 P 1433.89 4.23843 -7.83734 0
M  V30 15532 O 1433.67 4.19407 -9.29784 0
M  V30 15533 O 1433.1 5.24426 -7.09156 0
M  V30 15534 O 1433.64 2.7935 -7.20758 0
M  V30 15535 C 1434.58 1.7299 -7.50419 0
M  V30 15536 C 1433.85 0.406376 -7.57911 0
M  V30 15537 O 1433.64 -0.0897726 -6.21935 0
M  V30 15538 C 1432.45 0.447224 -8.1878 0
M  V30 15539 O 1432.06 -0.825065 -8.71101 0
M  V30 15540 C 1431.57 0.783801 -6.99623 0
M  V30 15541 C 1432.28 0.0619192 -5.85967 0
M  V30 15542 N 1432.23 0.7859 -4.56281 0
M  V30 15543 H 1435.07 1.93423 -8.4679 0
M  V30 15544 H 1435.34 1.68181 -6.71046 0
M  V30 15545 H 1434.47 -0.289041 -8.15388 0
M  V30 15546 P 1430.51 -1.17771 -8.83182 0
M  V30 15547 O 1430.29 -2.07206 -9.98732 0
M  V30 15548 O 1429.72 0.0743816 -8.81969 0
M  V30 15549 O 1430.26 -1.97652 -7.47304 0
M  V30 15550 C 1431.2 -3.01133 -7.08783 0
M  V30 15551 C 1430.47 -4.12613 -6.37049 0
M  V30 15552 O 1430.26 -3.72827 -4.97879 0
M  V30 15553 C 1429.07 -4.45085 -6.88694 0
M  V30 15554 O 1428.68 -5.7877 -6.5624 0
M  V30 15555 C 1428.19 -3.47817 -6.12078 0
M  V30 15556 C 1428.9 -3.39414 -4.77697 0
M  V30 15557 N 1428.85 -2.04199 -4.15538 0
M  V30 15558 H 1431.69 -3.41248 -7.98759 0
M  V30 15559 H 1431.96 -2.57728 -6.42 0
M  V30 15560 H 1431.09 -5.02657 -6.42673 0
M  V30 15561 H 1428.44 -4.11708 -4.08956 0
M  V30 15562 H 1428.16 -2.49626 -6.61679 0
M  V30 15563 H 1427.17 -3.8662 -6.00862 0
M  V30 15564 H 1429 -4.29991 -7.97006 0
M  V30 15565 P 1427.13 -6.144 -6.45285 0
M  V30 15566 O 1426.91 -7.54673 -6.86199 0
M  V30 15567 O 1426.34 -5.12391 -7.179 0
M  V30 15568 O 1426.88 -5.99158 -4.88404 0
M  V30 15569 C 1427.82 -6.60062 -3.96313 0
M  V30 15570 C 1427.09 -7.08259 -2.72856 0
M  V30 15571 O 1426.88 -5.9427 -1.83651 0
M  V30 15572 C 1425.69 -7.65087 -2.94749 0
M  V30 15573 O 1425.3 -8.53963 -1.90717 0
M  V30 15574 C 1424.81 -6.41069 -2.90698 0
M  V30 15575 C 1425.52 -5.5528 -1.86931 0
M  V30 15576 N 1425.47 -4.09575 -2.15696 0
M  V30 15577 C 1425.32 -3.24249 -1.08435 0
M  V30 15578 O 1425.23 -3.63946 0.0628747 0
M  V30 15579 N 1425.28 -1.90009 -1.39973 0
M  V30 15580 C 1425.37 -1.34884 -2.65614 0
M  V30 15581 O 1425.32 -0.123716 -2.81728 0
M  V30 15582 C 1425.52 -2.3145 -3.71736 0
M  V30 15583 C 1425.63 -1.75913 -5.10438 0
M  V30 15584 C 1425.57 -3.63518 -3.44754 0
M  V30 15585 H 1428.31 -7.45402 -4.45526 0
M  V30 15586 H 1428.58 -5.86062 -3.67208 0
M  V30 15587 H 1427.71 -7.84412 -2.24479 0
M  V30 15588 H 1425.06 -5.73358 -0.888409 0
M  V30 15589 H 1424.78 -5.90877 -3.88583 0
M  V30 15590 H 1423.79 -6.65867 -2.58821 0
M  V30 15591 H 1425.62 -8.16248 -3.92006 0
M  V30 15592 H 1425.69 -4.34551 -4.26383 0
M  V30 15593 H 1424.66 -1.85471 -5.61775 0
M  V30 15594 H 1426.4 -2.31364 -5.66257 0
M  V30 15595 H 1425.91 -0.695936 -5.05229 0
M  V30 15596 H 1425.18 -1.26277 -0.63625 0
M  V30 15597 P 1423.75 -8.7635 -1.60911 0
M  V30 15598 O 1423.53 -10.1388 -1.11561 0
M  V30 15599 O 1422.96 -8.36503 -2.79617 0
M  V30 15600 O 1423.5 -7.71806 -0.42951 0
M  V30 15601 C 1424.44 -7.67148 0.673689 0
M  V30 15602 C 1423.71 -7.33374 1.95559 0
M  V30 15603 O 1423.5 -5.88721 2.00726 0
M  V30 15604 C 1422.31 -7.92526 2.10483 0
M  V30 15605 O 1421.92 -8.02971 3.47653 0
M  V30 15606 C 1421.43 -6.89602 1.41652 0
M  V30 15607 C 1422.14 -5.59201 1.75185 0
M  V30 15608 N 1422.09 -4.58301 0.657969 0
M  V30 15609 C 1422.17 -4.79019 -0.692603 0
M  V30 15610 N 1422.1 -3.69736 -1.38998 0
M  V30 15611 C 1421.95 -2.70474 -0.438135 0
M  V30 15612 C 1421.82 -1.30327 -0.538142 0
M  V30 15613 N 1421.81 -0.64304 -1.69192 0
M  V30 15614 N 1421.7 -0.611027 0.605183 0
M  V30 15615 C 1421.71 -1.27002 1.75953 0
M  V30 15616 N 1421.83 -2.56038 1.98546 0
M  V30 15617 C 1421.95 -3.22681 0.822541 0
M  V30 15618 H 1424.93 -8.65116 0.777161 0
M  V30 15619 H 1425.2 -6.9022 0.46725 0
M  V30 15620 H 1424.33 -7.66548 2.79458 0
M  V30 15621 H 1421.68 -5.16165 2.65183 0
M  V30 15622 H 1421.4 -7.06433 0.329384 0
M  V30 15623 H 1420.41 -6.90926 1.82021 0
M  V30 15624 H 1422.24 -8.90873 1.62657 0
M  V30 15625 H 1422.28 -5.77785 -1.13874 0
M  V30 15626 H 1421.9 -1.15585 -2.57991 0
M  V30 15627 H 1421.71 0.382989 -1.69835 0
M  V30 15628 H 1421.61 -0.653331 2.64449 0
M  V30 15629 P 1420.37 -8.03563 3.84925 0
M  V30 15630 O 1420.15 -8.85821 5.0569 0
M  V30 15631 O 1419.58 -8.41101 2.65469 0
M  V30 15632 O 1420.12 -6.4965 4.18908 0
M  V30 15633 C 1421.06 -5.81037 5.05421 0
M  V30 15634 C 1420.33 -4.78366 5.89277 0
M  V30 15635 O 1420.12 -3.58302 5.08433 0
M  V30 15636 C 1418.93 -5.17448 6.36119 0
M  V30 15637 O 1418.54 -4.45271 7.53232 0
M  V30 15638 C 1418.05 -4.74639 5.19936 0
M  V30 15639 C 1418.76 -3.49432 4.70418 0
M  V30 15640 N 1418.71 -3.31776 3.22945 0
M  V30 15641 H 1421.55 -6.54213 5.71376 0
M  V30 15642 H 1421.82 -5.30492 4.44033 0
M  V30 15643 H 1420.95 -4.55889 6.76652 0
M  V30 15644 P 1416.99 -4.23843 7.83734 0
M  V30 15645 O 1416.77 -4.19407 9.29784 0
M  V30 15646 O 1416.2 -5.24426 7.09156 0
M  V30 15647 O 1416.74 -2.79386 7.20852 0
M  V30 15648 C 1417.68 -1.7299 7.50419 0
M  V30 15649 C 1416.95 -0.41401 7.5797 0
M  V30 15650 O 1416.74 0.089787 6.22035 0
M  V30 15651 C 1415.55 -0.447224 8.1878 0
M  V30 15652 O 1415.16 0.825159 8.71201 0
M  V30 15653 C 1414.67 -0.783801 6.99623 0
M  V30 15654 C 1415.38 -0.0619192 5.85967 0
M  V30 15655 N 1415.33 -0.7859 4.56281 0
M  V30 15656 C 1415.18 -0.0359258 3.39981 0
M  V30 15657 O 1415.09 1.19723 3.49038 0
M  V30 15658 N 1415.13 -0.869151 2.14025 0
M  V30 15659 C 1415.23 -2.01207 2.14363 0
M  V30 15660 N 1415.18 -2.58978 0.954287 0
M  V30 15661 C 1415.38 -2.80817 3.32215 0
M  V30 15662 C 1415.43 -2.13785 4.50884 0
M  V30 15663 H 1418.17 -1.93401 8.46693 0
M  V30 15664 H 1418.44 -1.68181 6.71046 0
M  V30 15665 H 1417.57 0.289076 8.15488 0
M  V30 15666 H 1414.92 0.927166 5.72947 0
M  V30 15667 H 1414.64 -1.87 6.82132 0
M  V30 15668 H 1413.65 -0.404009 7.13457 0
M  V30 15669 H 1415.48 -1.20599 8.97534 0
M  V30 15670 H 1415.55 -2.70295 5.43162 0
M  V30 15671 H 1415.45 -3.89465 3.27406 0
M  V30 15672 H 1415.06 -2.01616 0.107046 0
M  V30 15673 H 1415.26 -3.61403 0.873101 0
M  V30 15674 P 1413.61 1.17771 8.83182 0
M  V30 15675 O 1413.39 2.07206 9.98732 0
M  V30 15676 O 1412.82 -0.0743816 8.81969 0
M  V30 15677 O 1413.36 1.97652 7.47304 0
M  V30 15678 C 1414.3 3.01133 7.08783 0
M  V30 15679 C 1413.57 4.12613 6.37049 0
M  V30 15680 O 1413.36 3.72827 4.97879 0
M  V30 15681 C 1412.17 4.45085 6.88694 0
M  V30 15682 O 1411.78 5.7877 6.5624 0
M  V30 15683 C 1411.29 3.47817 6.12078 0
M  V30 15684 C 1412 3.39414 4.77697 0
M  V30 15685 N 1411.95 2.04199 4.15538 0
M  V30 15686 H 1414.79 3.41248 7.98759 0
M  V30 15687 H 1415.06 2.57728 6.42 0
M  V30 15688 H 1414.19 5.02657 6.42673 0
M  V30 15689 H 1411.54 4.11708 4.08956 0
M  V30 15690 H 1411.26 2.49626 6.61679 0
M  V30 15691 H 1410.27 3.8662 6.00862 0
M  V30 15692 H 1412.1 4.29991 7.97006 0
M  V30 15693 P 1410.23 6.144 6.45285 0
M  V30 15694 O 1410.01 7.54673 6.86199 0
M  V30 15695 O 1409.44 5.12391 7.179 0
M  V30 15696 O 1409.98 5.99158 4.88404 0
M  V30 15697 C 1410.92 6.60234 3.96415 0
M  V30 15698 C 1410.19 7.08259 2.72856 0
M  V30 15699 O 1409.98 5.9427 1.83651 0
M  V30 15700 C 1408.79 7.64886 2.9555 0
M  V30 15701 O 1408.4 8.53963 1.90717 0
M  V30 15702 C 1407.91 6.4116 2.90739 0
M  V30 15703 C 1408.62 5.55375 1.86963 0
M  V30 15704 N 1408.57 4.09664 2.15742 0
M  V30 15705 H 1411.41 7.45574 4.45629 0
M  V30 15706 H 1411.68 5.86232 3.67314 0
M  V30 15707 H 1410.81 7.84412 2.24479 0
M  V30 15708 P 1406.85 8.7635 1.60911 0
M  V30 15709 O 1406.63 10.1388 1.11561 0
M  V30 15710 O 1406.06 8.36503 2.79617 0
M  V30 15711 O 1406.6 7.71806 0.42951 0
M  V30 15712 C 1407.54 7.67148 -0.673689 0
M  V30 15713 C 1406.81 7.33374 -1.95559 0
M  V30 15714 O 1406.6 5.88721 -2.00726 0
M  V30 15715 C 1405.41 7.92526 -2.10483 0
M  V30 15716 O 1405.02 8.02971 -3.47653 0
M  V30 15717 C 1404.53 6.89602 -1.41652 0
M  V30 15718 C 1405.24 5.59201 -1.75185 0
M  V30 15719 N 1405.19 4.58235 -0.662552 0
M  V30 15720 H 1408.03 8.65116 -0.777161 0
M  V30 15721 H 1408.3 6.90173 -0.474152 0
M  V30 15722 H 1407.43 7.66548 -2.79458 0
M  V30 15723 P 1403.47 8.03563 -3.84925 0
M  V30 15724 O 1403.25 8.85821 -5.0569 0
M  V30 15725 O 1402.68 8.41101 -2.65469 0
M  V30 15726 O 1403.22 6.4965 -4.18908 0
M  V30 15727 C 1404.16 5.81037 -5.05421 0
M  V30 15728 C 1403.43 4.78366 -5.89277 0
M  V30 15729 O 1403.22 3.58302 -5.08433 0
M  V30 15730 C 1402.03 5.17448 -6.36119 0
M  V30 15731 O 1401.64 4.45271 -7.53232 0
M  V30 15732 C 1401.15 4.74639 -5.19936 0
M  V30 15733 C 1401.86 3.49432 -4.70418 0
M  V30 15734 N 1401.81 3.31776 -3.22945 0
M  V30 15735 H 1404.65 6.54213 -5.71376 0
M  V30 15736 H 1404.92 5.30492 -4.44033 0
M  V30 15737 H 1404.05 4.55889 -6.76652 0
M  V30 15738 P 1400.09 4.23843 -7.83734 0
M  V30 15739 O 1399.87 4.19407 -9.29784 0
M  V30 15740 O 1399.3 5.24426 -7.09156 0
M  V30 15741 O 1399.84 2.7935 -7.20758 0
M  V30 15742 C 1400.78 1.7299 -7.50419 0
M  V30 15743 C 1400.05 0.406376 -7.57911 0
M  V30 15744 O 1399.84 -0.0897726 -6.21935 0
M  V30 15745 C 1398.65 0.447224 -8.1878 0
M  V30 15746 O 1398.26 -0.825065 -8.71101 0
M  V30 15747 C 1397.77 0.783801 -6.99623 0
M  V30 15748 C 1398.48 0.0619192 -5.85967 0
M  V30 15749 N 1398.43 0.7859 -4.56281 0
M  V30 15750 H 1401.27 1.93423 -8.4679 0
M  V30 15751 H 1401.54 1.68181 -6.71046 0
M  V30 15752 H 1400.67 -0.289041 -8.15388 0
M  V30 15753 P 1396.71 -1.17771 -8.83182 0
M  V30 15754 O 1396.49 -2.07206 -9.98732 0
M  V30 15755 O 1395.92 0.0743816 -8.81969 0
M  V30 15756 O 1396.46 -1.97652 -7.47304 0
M  V30 15757 C 1397.4 -3.01133 -7.08783 0
M  V30 15758 C 1396.67 -4.12613 -6.37049 0
M  V30 15759 O 1396.46 -3.72827 -4.97879 0
M  V30 15760 C 1395.27 -4.45085 -6.88694 0
M  V30 15761 O 1394.88 -5.7877 -6.5624 0
M  V30 15762 C 1394.39 -3.47817 -6.12078 0
M  V30 15763 C 1395.1 -3.39414 -4.77697 0
M  V30 15764 N 1395.05 -2.04615 -4.15333 0
M  V30 15765 H 1397.89 -3.41248 -7.98759 0
M  V30 15766 H 1398.16 -2.5837 -6.41742 0
M  V30 15767 H 1397.29 -5.02657 -6.42673 0
M  V30 15768 P 1393.33 -6.144 -6.45285 0
M  V30 15769 O 1393.11 -7.54673 -6.86199 0
M  V30 15770 O 1392.54 -5.12391 -7.179 0
M  V30 15771 O 1393.08 -5.99158 -4.88404 0
M  V30 15772 C 1394.02 -6.60234 -3.96415 0
M  V30 15773 C 1393.29 -7.08259 -2.72856 0
M  V30 15774 O 1393.08 -5.9427 -1.83651 0
M  V30 15775 C 1391.89 -7.64886 -2.9555 0
M  V30 15776 O 1391.5 -8.53963 -1.90717 0
M  V30 15777 C 1391.01 -6.4116 -2.90739 0
M  V30 15778 C 1391.72 -5.55375 -1.86963 0
M  V30 15779 N 1391.67 -4.09664 -2.15742 0
M  V30 15780 H 1394.51 -7.45574 -4.45629 0
M  V30 15781 H 1394.78 -5.86232 -3.67314 0
M  V30 15782 H 1393.91 -7.84412 -2.24479 0
M  V30 15783 P 1389.95 -8.7635 -1.60911 0
M  V30 15784 O 1389.73 -10.1388 -1.11561 0
M  V30 15785 O 1389.16 -8.36503 -2.79617 0
M  V30 15786 O 1389.7 -7.71806 -0.42951 0
M  V30 15787 C 1390.64 -7.67148 0.673689 0
M  V30 15788 C 1389.91 -7.33374 1.95559 0
M  V30 15789 O 1389.7 -5.88721 2.00726 0
M  V30 15790 C 1388.51 -7.92526 2.10483 0
M  V30 15791 O 1388.12 -8.02971 3.47653 0
M  V30 15792 C 1387.63 -6.89602 1.41652 0
M  V30 15793 C 1388.34 -5.59201 1.75185 0
M  V30 15794 N 1388.29 -4.58301 0.657969 0
M  V30 15795 H 1391.13 -8.65116 0.777161 0
M  V30 15796 H 1391.4 -6.9022 0.46725 0
M  V30 15797 H 1390.53 -7.66548 2.79458 0
M  V30 15798 H 1387.88 -5.16165 2.65183 0
M  V30 15799 H 1387.6 -7.06433 0.329384 0
M  V30 15800 H 1386.61 -6.90926 1.82021 0
M  V30 15801 H 1388.44 -8.90873 1.62657 0
M  V30 15802 P 1386.57 -8.03563 3.84925 0
M  V30 15803 O 1386.35 -8.85821 5.0569 0
M  V30 15804 O 1385.78 -8.41101 2.65469 0
M  V30 15805 O 1386.32 -6.4965 4.18908 0
M  V30 15806 C 1387.26 -5.81037 5.05421 0
M  V30 15807 C 1386.53 -4.78366 5.89277 0
M  V30 15808 O 1386.32 -3.58302 5.08433 0
M  V30 15809 C 1385.13 -5.17448 6.36119 0
M  V30 15810 O 1384.74 -4.45271 7.53232 0
M  V30 15811 C 1384.25 -4.74639 5.19936 0
M  V30 15812 C 1384.96 -3.49432 4.70418 0
M  V30 15813 N 1384.91 -3.31776 3.22945 0
M  V30 15814 H 1387.75 -6.54213 5.71376 0
M  V30 15815 H 1388.02 -5.30492 4.44033 0
M  V30 15816 H 1387.15 -4.55889 6.76652 0
M  V30 15817 P 1383.19 -4.23843 7.83734 0
M  V30 15818 O 1382.97 -4.19407 9.29784 0
M  V30 15819 O 1382.4 -5.24426 7.09156 0
M  V30 15820 O 1382.94 -2.7935 7.20758 0
M  V30 15821 C 1383.88 -1.7299 7.50419 0
M  V30 15822 C 1383.15 -0.406376 7.57911 0
M  V30 15823 O 1382.94 0.0897726 6.21935 0
M  V30 15824 C 1381.75 -0.447224 8.1878 0
M  V30 15825 O 1381.36 0.825065 8.71101 0
M  V30 15826 C 1380.87 -0.783801 6.99623 0
M  V30 15827 C 1381.58 -0.0619192 5.85967 0
M  V30 15828 N 1381.53 -0.7859 4.56281 0
M  V30 15829 H 1384.37 -1.93423 8.4679 0
M  V30 15830 H 1384.64 -1.68181 6.71046 0
M  V30 15831 H 1383.77 0.289041 8.15388 0
M  V30 15832 P 1379.81 1.17771 8.83182 0
M  V30 15833 O 1379.59 2.07206 9.98732 0
M  V30 15834 O 1379.02 -0.0743816 8.81969 0
M  V30 15835 O 1379.56 1.97652 7.47304 0
M  V30 15836 C 1380.5 3.01133 7.08783 0
M  V30 15837 C 1379.77 4.12613 6.37049 0
M  V30 15838 O 1379.56 3.72827 4.97879 0
M  V30 15839 C 1378.37 4.45085 6.88694 0
M  V30 15840 O 1377.98 5.7877 6.5624 0
M  V30 15841 C 1377.49 3.47817 6.12078 0
M  V30 15842 C 1378.2 3.39414 4.77697 0
M  V30 15843 N 1378.15 2.04199 4.15538 0
M  V30 15844 H 1380.99 3.41248 7.98759 0
M  V30 15845 H 1381.26 2.57728 6.42 0
M  V30 15846 H 1380.39 5.02657 6.42673 0
M  V30 15847 H 1377.74 4.11708 4.08956 0
M  V30 15848 H 1377.46 2.49626 6.61679 0
M  V30 15849 H 1376.47 3.8662 6.00862 0
M  V30 15850 H 1378.3 4.29991 7.97006 0
M  V30 15851 P 1376.43 6.144 6.45285 0
M  V30 15852 O 1376.21 7.54673 6.86199 0
M  V30 15853 O 1375.64 5.12391 7.179 0
M  V30 15854 O 1376.18 5.99158 4.88404 0
M  V30 15855 C 1377.12 6.60234 3.96415 0
M  V30 15856 C 1376.39 7.08259 2.72856 0
M  V30 15857 O 1376.18 5.9427 1.83651 0
M  V30 15858 C 1374.99 7.64886 2.9555 0
M  V30 15859 O 1374.6 8.53963 1.90717 0
M  V30 15860 C 1374.11 6.4116 2.90739 0
M  V30 15861 C 1374.82 5.55375 1.86963 0
M  V30 15862 N 1374.77 4.09448 2.16152 0
M  V30 15863 C 1374.85 3.46824 3.37593 0
M  V30 15864 N 1374.78 2.17422 3.29777 0
M  V30 15865 C 1374.63 1.93065 1.94427 0
M  V30 15866 C 1374.5 0.738053 1.20141 0
M  V30 15867 N 1374.49 -0.474256 1.74676 0
M  V30 15868 N 1374.38 0.850049 -0.13045 0
M  V30 15869 C 1374.39 2.06169 -0.676992 0
M  V30 15870 N 1374.51 3.23842 -0.101312 0
M  V30 15871 C 1374.63 3.09402 1.23122 0
M  V30 15872 H 1377.61 7.45574 4.45629 0
M  V30 15873 H 1377.88 5.85864 3.679 0
M  V30 15874 H 1377.01 7.84412 2.24479 0
M  V30 15875 H 1374.36 5.73457 0.888562 0
M  V30 15876 H 1374.08 5.90877 3.88583 0
M  V30 15877 H 1373.09 6.6596 2.58858 0
M  V30 15878 H 1374.92 8.16339 3.92049 0
M  V30 15879 H 1374.96 4.00505 4.3174 0
M  V30 15880 H 1374.58 -0.581337 2.76658 0
M  V30 15881 H 1374.39 -1.30811 1.14888 0
M  V30 15882 H 1374.29 2.08295 -1.75542 0
M  V30 15883 P 1373.05 8.7635 1.60911 0
M  V30 15884 O 1372.83 10.1388 1.11561 0
M  V30 15885 O 1372.26 8.36503 2.79617 0
M  V30 15886 O 1372.8 7.71806 0.42951 0
M  V30 15887 C 1373.74 7.67148 -0.673689 0
M  V30 15888 C 1373.01 7.33374 -1.95559 0
M  V30 15889 O 1372.8 5.88721 -2.00726 0
M  V30 15890 C 1371.61 7.92526 -2.10483 0
M  V30 15891 O 1371.22 8.02971 -3.47653 0
M  V30 15892 C 1370.73 6.89602 -1.41652 0
M  V30 15893 C 1371.44 5.59201 -1.75185 0
M  V30 15894 N 1371.39 4.58301 -0.657969 0
M  V30 15895 C 1371.47 4.79019 0.692603 0
M  V30 15896 N 1371.4 3.69736 1.38998 0
M  V30 15897 C 1371.25 2.70474 0.438135 0
M  V30 15898 C 1371.12 1.30327 0.538142 0
M  V30 15899 N 1371.11 0.64304 1.69192 0
M  V30 15900 N 1371 0.611027 -0.605183 0
M  V30 15901 C 1371.01 1.27002 -1.75953 0
M  V30 15902 N 1371.13 2.56038 -1.98546 0
M  V30 15903 C 1371.25 3.22681 -0.822541 0
M  V30 15904 H 1374.23 8.65116 -0.777161 0
M  V30 15905 H 1374.5 6.9022 -0.46725 0
M  V30 15906 H 1373.63 7.66548 -2.79458 0
M  V30 15907 H 1370.98 5.16165 -2.65183 0
M  V30 15908 H 1370.7 7.06433 -0.329384 0
M  V30 15909 H 1369.71 6.90926 -1.82021 0
M  V30 15910 H 1371.54 8.90873 -1.62657 0
M  V30 15911 H 1371.58 5.77785 1.13874 0
M  V30 15912 H 1371.2 1.15585 2.57991 0
M  V30 15913 H 1371.01 -0.382989 1.69835 0
M  V30 15914 H 1370.91 0.653331 -2.64449 0
M  V30 15915 P 1369.67 8.03563 -3.84925 0
M  V30 15916 O 1369.45 8.85821 -5.0569 0
M  V30 15917 O 1368.88 8.41101 -2.65469 0
M  V30 15918 O 1369.42 6.4965 -4.18908 0
M  V30 15919 C 1370.36 5.81037 -5.05421 0
M  V30 15920 C 1369.63 4.78366 -5.89277 0
M  V30 15921 O 1369.42 3.58302 -5.08433 0
M  V30 15922 C 1368.23 5.17448 -6.36119 0
M  V30 15923 O 1367.84 4.45271 -7.53232 0
M  V30 15924 C 1367.35 4.74639 -5.19936 0
M  V30 15925 C 1368.06 3.49432 -4.70418 0
M  V30 15926 N 1368.01 3.32099 -3.22613 0
M  V30 15927 C 1368.09 4.28245 -2.25527 0
M  V30 15928 N 1368.02 3.80823 -1.04874 0
M  V30 15929 C 1367.87 2.44571 -1.23535 0
M  V30 15930 C 1367.74 1.37068 -0.330675 0
M  V30 15931 N 1367.73 1.51472 0.990824 0
M  V30 15932 N 1367.62 0.138614 -0.848756 0
M  V30 15933 C 1367.63 -0.00675923 -2.16999 0
M  V30 15934 N 1367.75 0.904372 -3.11122 0
M  V30 15935 C 1367.87 2.12707 -2.56212 0
M  V30 15936 H 1370.85 6.54213 -5.71376 0
M  V30 15937 H 1371.12 5.30936 -4.43503 0
M  V30 15938 H 1370.25 4.55889 -6.76652 0
M  V30 15939 H 1367.6 2.61715 -5.17932 0
M  V30 15940 H 1367.32 5.52155 -4.41878 0
M  V30 15941 H 1366.33 4.51981 -5.53374 0
M  V30 15942 H 1368.16 6.25124 -6.55234 0
M  V30 15943 H 1368.2 5.34372 -2.47488 0
M  V30 15944 H 1367.82 2.45153 1.4078 0
M  V30 15945 H 1367.63 0.688422 1.59911 0
M  V30 15946 H 1367.53 -1.02584 -2.52346 0
M  V30 15947 P 1366.29 4.23843 -7.83734 0
M  V30 15948 O 1366.07 4.19407 -9.29784 0
M  V30 15949 O 1365.5 5.24426 -7.09156 0
M  V30 15950 O 1366.04 2.7935 -7.20758 0
M  V30 15951 C 1366.98 1.7299 -7.50419 0
M  V30 15952 C 1366.25 0.406376 -7.57911 0
M  V30 15953 O 1366.04 -0.0897726 -6.21935 0
M  V30 15954 C 1364.85 0.447224 -8.1878 0
M  V30 15955 O 1364.46 -0.825065 -8.71101 0
M  V30 15956 C 1363.97 0.783801 -6.99623 0
M  V30 15957 C 1364.68 0.0619192 -5.85967 0
M  V30 15958 N 1364.63 0.7859 -4.56281 0
M  V30 15959 H 1367.47 1.93423 -8.4679 0
M  V30 15960 H 1367.74 1.68181 -6.71046 0
M  V30 15961 H 1366.87 -0.289041 -8.15388 0
M  V30 15962 P 1362.91 -1.17771 -8.83182 0
M  V30 15963 O 1362.69 -2.07206 -9.98732 0
M  V30 15964 O 1362.12 0.0743816 -8.81969 0
M  V30 15965 O 1362.66 -1.97652 -7.47304 0
M  V30 15966 C 1363.6 -3.01055 -7.08599 0
M  V30 15967 C 1362.87 -4.12613 -6.37049 0
M  V30 15968 O 1362.66 -3.72827 -4.97879 0
M  V30 15969 C 1361.47 -4.45719 -6.88164 0
M  V30 15970 O 1361.08 -5.7877 -6.5624 0
M  V30 15971 C 1360.59 -3.47768 -6.11991 0
M  V30 15972 C 1361.3 -3.39356 -4.77615 0
M  V30 15973 N 1361.25 -2.04571 -4.15244 0
M  V30 15974 C 1361.1 -1.98587 -2.78314 0
M  V30 15975 O 1361.01 -2.98134 -2.08835 0
M  V30 15976 N 1361.06 -0.714467 -2.24925 0
M  V30 15977 C 1361.15 0.470001 -2.94169 0
M  V30 15978 C 1361.3 0.312541 -4.36783 0
M  V30 15979 C 1361.35 -0.914512 -4.92583 0
M  V30 15980 H 1364.09 -3.41169 -7.98575 0
M  V30 15981 H 1364.36 -2.58295 -6.41556 0
M  V30 15982 H 1363.49 -5.02657 -6.42673 0
M  V30 15983 H 1360.84 -4.11637 -4.08885 0
M  V30 15984 H 1360.56 -2.49626 -6.61679 0
M  V30 15985 H 1359.57 -3.86566 -6.00778 0
M  V30 15986 H 1361.4 -4.29943 -7.96918 0
M  V30 15987 H 1361.47 -1.00937 -6.00374 0
M  V30 15988 P 1359.53 -6.144 -6.45285 0
M  V30 15989 O 1359.31 -7.54673 -6.86199 0
M  V30 15990 O 1358.74 -5.12391 -7.179 0
M  V30 15991 O 1359.28 -5.99158 -4.88404 0
M  V30 15992 C 1360.22 -6.60234 -3.96415 0
M  V30 15993 C 1359.49 -7.08259 -2.72856 0
M  V30 15994 O 1359.28 -5.9427 -1.83651 0
M  V30 15995 C 1358.09 -7.64886 -2.9555 0
M  V30 15996 O 1357.7 -8.53963 -1.90717 0
M  V30 15997 C 1357.21 -6.4116 -2.90739 0
M  V30 15998 C 1357.92 -5.55375 -1.86963 0
M  V30 15999 N 1357.87 -4.09448 -2.16152 0
M  V30 16000 H 1360.71 -7.45574 -4.45629 0
M  V30 16001 H 1360.98 -5.85864 -3.679 0
M  V30 16002 H 1360.11 -7.84412 -2.24479 0
M  V30 16003 H 1357.46 -5.73457 -0.888562 0
M  V30 16004 H 1357.18 -5.90877 -3.88583 0
M  V30 16005 H 1356.19 -6.6596 -2.58858 0
M  V30 16006 H 1358.02 -8.16339 -3.92049 0
M  V30 16007 P 1356.15 -8.7635 -1.60911 0
M  V30 16008 O 1355.93 -10.1388 -1.11561 0
M  V30 16009 O 1355.36 -8.36503 -2.79617 0
M  V30 16010 O 1355.9 -7.71806 -0.42951 0
M  V30 16011 C 1356.84 -7.67148 0.673689 0
M  V30 16012 C 1356.11 -7.33374 1.95559 0
M  V30 16013 O 1355.9 -5.88721 2.00726 0
M  V30 16014 C 1354.71 -7.92526 2.10483 0
M  V30 16015 O 1354.32 -8.02971 3.47653 0
M  V30 16016 C 1353.83 -6.89602 1.41652 0
M  V30 16017 C 1354.54 -5.59201 1.75185 0
M  V30 16018 N 1354.49 -4.58235 0.662552 0
M  V30 16019 H 1357.33 -8.65116 0.777161 0
M  V30 16020 H 1357.6 -6.90173 0.474152 0
M  V30 16021 H 1356.73 -7.66548 2.79458 0
M  V30 16022 P 1352.77 -8.03563 3.84925 0
M  V30 16023 O 1352.55 -8.85821 5.0569 0
M  V30 16024 O 1351.98 -8.41101 2.65469 0
M  V30 16025 O 1352.52 -6.4965 4.18908 0
M  V30 16026 C 1353.46 -5.81037 5.05421 0
M  V30 16027 C 1352.73 -4.78366 5.89277 0
M  V30 16028 O 1352.52 -3.58302 5.08433 0
M  V30 16029 C 1351.33 -5.17448 6.36119 0
M  V30 16030 O 1350.94 -4.45271 7.53232 0
M  V30 16031 C 1350.45 -4.74639 5.19936 0
M  V30 16032 C 1351.16 -3.49432 4.70418 0
M  V30 16033 N 1351.11 -3.31776 3.22945 0
M  V30 16034 H 1353.95 -6.54213 5.71376 0
M  V30 16035 H 1354.22 -5.30492 4.44033 0
M  V30 16036 H 1353.36 -4.55889 6.76652 0
M  V30 16037 P 1349.39 -4.23843 7.83734 0
M  V30 16038 O 1349.17 -4.19407 9.29784 0
M  V30 16039 O 1348.6 -5.24426 7.09156 0
M  V30 16040 O 1349.14 -2.7935 7.20758 0
M  V30 16041 C 1350.08 -1.7299 7.50419 0
M  V30 16042 C 1349.35 -0.406376 7.57911 0
M  V30 16043 O 1349.14 0.0897726 6.21935 0
M  V30 16044 C 1347.95 -0.447224 8.1878 0
M  V30 16045 O 1347.56 0.825065 8.71101 0
M  V30 16046 C 1347.07 -0.783801 6.99623 0
M  V30 16047 C 1347.78 -0.0619192 5.85967 0
M  V30 16048 N 1347.73 -0.790462 4.56202 0
M  V30 16049 H 1350.57 -1.93423 8.4679 0
M  V30 16050 H 1350.84 -1.68852 6.70877 0
M  V30 16051 H 1349.98 0.289041 8.15388 0
M  V30 16052 H 1347.32 0.927006 5.72848 0
M  V30 16053 H 1347.04 -1.86973 6.82036 0
M  V30 16054 H 1346.05 -0.403953 7.13357 0
M  V30 16055 H 1347.88 -1.20599 8.97534 0
M  V30 16056 P 1346.01 1.17771 8.83182 0
M  V30 16057 O 1345.79 2.07206 9.98732 0
M  V30 16058 O 1345.22 -0.0743816 8.81969 0
M  V30 16059 O 1345.76 1.97652 7.47304 0
M  V30 16060 C 1346.7 3.01133 7.08783 0
M  V30 16061 C 1345.97 4.12613 6.37049 0
M  V30 16062 O 1345.76 3.72827 4.97879 0
M  V30 16063 C 1344.57 4.45085 6.88694 0
M  V30 16064 O 1344.18 5.7877 6.5624 0
M  V30 16065 C 1343.69 3.47817 6.12078 0
M  V30 16066 C 1344.4 3.39414 4.77697 0
M  V30 16067 N 1344.35 2.04199 4.15538 0
M  V30 16068 H 1347.19 3.41248 7.98759 0
M  V30 16069 H 1347.46 2.57728 6.42 0
M  V30 16070 H 1346.6 5.02657 6.42673 0
M  V30 16071 H 1343.94 4.11708 4.08956 0
M  V30 16072 H 1343.66 2.49626 6.61679 0
M  V30 16073 H 1342.67 3.8662 6.00862 0
M  V30 16074 H 1344.5 4.29991 7.97006 0
M  V30 16075 P 1342.63 6.144 6.45285 0
M  V30 16076 O 1342.41 7.54673 6.86199 0
M  V30 16077 O 1341.84 5.12391 7.179 0
M  V30 16078 O 1342.38 5.99158 4.88404 0
M  V30 16079 C 1343.32 6.60062 3.96313 0
M  V30 16080 C 1342.59 7.08259 2.72856 0
M  V30 16081 O 1342.38 5.9427 1.83651 0
M  V30 16082 C 1341.19 7.65087 2.94749 0
M  V30 16083 O 1340.8 8.53963 1.90717 0
M  V30 16084 C 1340.31 6.41069 2.90698 0
M  V30 16085 C 1341.02 5.5528 1.86931 0
M  V30 16086 N 1340.97 4.09575 2.15696 0
M  V30 16087 C 1340.82 3.24249 1.08435 0
M  V30 16088 O 1340.73 3.63946 -0.0628747 0
M  V30 16089 N 1340.78 1.90009 1.39973 0
M  V30 16090 C 1340.87 1.34884 2.65614 0
M  V30 16091 C 1341.02 2.3145 3.71736 0
M  V30 16092 C 1341.07 3.63518 3.44754 0
M  V30 16093 H 1343.81 7.45402 4.45526 0
M  V30 16094 H 1344.08 5.86062 3.67208 0
M  V30 16095 H 1343.22 7.84412 2.24479 0
M  V30 16096 H 1340.56 5.73358 0.888409 0
M  V30 16097 H 1340.28 5.90877 3.88583 0
M  V30 16098 H 1339.29 6.65867 2.58821 0
M  V30 16099 H 1341.12 8.16248 3.92006 0
M  V30 16100 H 1341.19 4.34551 4.26383 0
M  V30 16101 P 1339.25 8.7635 1.60911 0
M  V30 16102 O 1339.03 10.1388 1.11561 0
M  V30 16103 O 1338.46 8.36503 2.79617 0
M  V30 16104 O 1339 7.71806 0.42951 0
M  V30 16105 C 1339.94 7.67148 -0.673689 0
M  V30 16106 C 1339.21 7.33374 -1.95559 0
M  V30 16107 O 1339 5.88721 -2.00726 0
M  V30 16108 C 1337.81 7.92526 -2.10483 0
M  V30 16109 O 1337.42 8.02971 -3.47653 0
M  V30 16110 C 1336.93 6.89602 -1.41652 0
M  V30 16111 C 1337.64 5.59201 -1.75185 0
M  V30 16112 N 1337.59 4.58235 -0.662552 0
M  V30 16113 H 1340.43 8.65116 -0.777161 0
M  V30 16114 H 1340.7 6.90173 -0.474152 0
M  V30 16115 H 1339.84 7.66548 -2.79458 0
M  V30 16116 P 1335.87 8.03563 -3.84925 0
M  V30 16117 O 1335.65 8.85821 -5.0569 0
M  V30 16118 O 1335.08 8.41101 -2.65469 0
M  V30 16119 O 1335.62 6.4965 -4.18908 0
M  V30 16120 C 1336.56 5.81037 -5.05421 0
M  V30 16121 C 1335.83 4.78366 -5.89277 0
M  V30 16122 O 1335.62 3.58302 -5.08433 0
M  V30 16123 C 1334.43 5.17448 -6.36119 0
M  V30 16124 O 1334.04 4.45271 -7.53232 0
M  V30 16125 C 1333.55 4.74639 -5.19936 0
M  V30 16126 C 1334.26 3.49432 -4.70418 0
M  V30 16127 N 1334.21 3.32099 -3.22613 0
M  V30 16128 H 1337.05 6.54213 -5.71376 0
M  V30 16129 H 1337.32 5.30936 -4.43503 0
M  V30 16130 H 1336.46 4.55889 -6.76652 0
M  V30 16131 H 1333.8 2.61715 -5.17932 0
M  V30 16132 H 1333.52 5.52155 -4.41878 0
M  V30 16133 H 1332.53 4.51981 -5.53374 0
M  V30 16134 H 1334.36 6.25124 -6.55234 0
M  V30 16135 P 1332.49 4.23843 -7.83734 0
M  V30 16136 O 1332.27 4.19407 -9.29784 0
M  V30 16137 O 1331.7 5.24426 -7.09156 0
M  V30 16138 O 1332.24 2.7935 -7.20758 0
M  V30 16139 C 1333.18 1.7299 -7.50419 0
M  V30 16140 C 1332.45 0.406376 -7.57911 0
M  V30 16141 O 1332.24 -0.0897726 -6.21935 0
M  V30 16142 C 1331.05 0.447224 -8.1878 0
M  V30 16143 O 1330.66 -0.825065 -8.71101 0
M  V30 16144 C 1330.17 0.783801 -6.99623 0
M  V30 16145 C 1330.88 0.0619192 -5.85967 0
M  V30 16146 N 1330.83 0.790462 -4.56202 0
M  V30 16147 H 1333.67 1.93423 -8.4679 0
M  V30 16148 H 1333.94 1.68852 -6.70877 0
M  V30 16149 H 1333.08 -0.289041 -8.15388 0
M  V30 16150 H 1330.42 -0.927006 -5.72848 0
M  V30 16151 H 1330.14 1.86973 -6.82036 0
M  V30 16152 H 1329.15 0.403953 -7.13357 0
M  V30 16153 H 1330.98 1.20599 -8.97534 0
M  V30 16154 P 1329.11 -1.17771 -8.83182 0
M  V30 16155 O 1328.89 -2.07206 -9.98732 0
M  V30 16156 O 1328.32 0.0743816 -8.81969 0
M  V30 16157 O 1328.86 -1.97652 -7.47304 0
M  V30 16158 C 1329.8 -3.01133 -7.08783 0
M  V30 16159 C 1329.07 -4.12613 -6.37049 0
M  V30 16160 O 1328.86 -3.72827 -4.97879 0
M  V30 16161 C 1327.67 -4.45085 -6.88694 0
M  V30 16162 O 1327.28 -5.7877 -6.5624 0
M  V30 16163 C 1326.79 -3.47817 -6.12078 0
M  V30 16164 C 1327.5 -3.39414 -4.77697 0
M  V30 16165 N 1327.45 -2.04615 -4.15333 0
M  V30 16166 H 1330.29 -3.41248 -7.98759 0
M  V30 16167 H 1330.56 -2.5837 -6.41742 0
M  V30 16168 H 1329.7 -5.02657 -6.42673 0
M  V30 16169 P 1325.73 -6.144 -6.45285 0
M  V30 16170 O 1325.51 -7.54673 -6.86199 0
M  V30 16171 O 1324.94 -5.12391 -7.179 0
M  V30 16172 O 1325.48 -5.99158 -4.88404 0
M  V30 16173 C 1326.42 -6.60234 -3.96415 0
M  V30 16174 C 1325.69 -7.08259 -2.72856 0
M  V30 16175 O 1325.48 -5.9427 -1.83651 0
M  V30 16176 C 1324.29 -7.64886 -2.9555 0
M  V30 16177 O 1323.9 -8.53963 -1.90717 0
M  V30 16178 C 1323.41 -6.4116 -2.90739 0
M  V30 16179 C 1324.12 -5.55375 -1.86963 0
M  V30 16180 N 1324.07 -4.09664 -2.15742 0
M  V30 16181 H 1326.91 -7.45574 -4.45629 0
M  V30 16182 H 1327.18 -5.86232 -3.67314 0
M  V30 16183 H 1326.32 -7.84412 -2.24479 0
M  V30 16184 P 1322.35 -8.7635 -1.60911 0
M  V30 16185 O 1322.13 -10.1388 -1.11561 0
M  V30 16186 O 1321.56 -8.36503 -2.79617 0
M  V30 16187 O 1322.1 -7.71806 -0.42951 0
M  V30 16188 C 1323.04 -7.67148 0.673689 0
M  V30 16189 C 1322.31 -7.33374 1.95559 0
M  V30 16190 O 1322.1 -5.88721 2.00726 0
M  V30 16191 C 1320.91 -7.92526 2.10483 0
M  V30 16192 O 1320.52 -8.02971 3.47653 0
M  V30 16193 C 1320.03 -6.89602 1.41652 0
M  V30 16194 C 1320.74 -5.59201 1.75185 0
M  V30 16195 N 1320.69 -4.58235 0.662552 0
M  V30 16196 H 1323.53 -8.65116 0.777161 0
M  V30 16197 H 1323.8 -6.90173 0.474152 0
M  V30 16198 H 1322.94 -7.66548 2.79458 0
M  V30 16199 P 1318.97 -8.03563 3.84925 0
M  V30 16200 O 1318.75 -8.85821 5.0569 0
M  V30 16201 O 1318.18 -8.41101 2.65469 0
M  V30 16202 O 1318.72 -6.4965 4.18908 0
M  V30 16203 C 1319.66 -5.81037 5.05421 0
M  V30 16204 C 1318.93 -4.78366 5.89277 0
M  V30 16205 O 1318.72 -3.58302 5.08433 0
M  V30 16206 C 1317.53 -5.17448 6.36119 0
M  V30 16207 O 1317.14 -4.45271 7.53232 0
M  V30 16208 C 1316.65 -4.74639 5.19936 0
M  V30 16209 C 1317.36 -3.49432 4.70418 0
M  V30 16210 N 1317.31 -3.31776 3.22945 0
M  V30 16211 H 1320.15 -6.54213 5.71376 0
M  V30 16212 H 1320.42 -5.30492 4.44033 0
M  V30 16213 H 1319.56 -4.55889 6.76652 0
M  V30 16214 P 1315.59 -4.23843 7.83734 0
M  V30 16215 O 1315.37 -4.19407 9.29784 0
M  V30 16216 O 1314.8 -5.24426 7.09156 0
M  V30 16217 O 1315.34 -2.7935 7.20758 0
M  V30 16218 C 1316.28 -1.7299 7.50419 0
M  V30 16219 C 1315.55 -0.406376 7.57911 0
M  V30 16220 O 1315.34 0.0897726 6.21935 0
M  V30 16221 C 1314.15 -0.447224 8.1878 0
M  V30 16222 O 1313.76 0.825065 8.71101 0
M  V30 16223 C 1313.27 -0.783801 6.99623 0
M  V30 16224 C 1313.98 -0.0619192 5.85967 0
M  V30 16225 N 1313.93 -0.7859 4.56281 0
M  V30 16226 H 1316.77 -1.93423 8.4679 0
M  V30 16227 H 1317.04 -1.68181 6.71046 0
M  V30 16228 H 1316.18 0.289041 8.15388 0
M  V30 16229 P 1312.21 1.17771 8.83182 0
M  V30 16230 O 1311.99 2.07206 9.98732 0
M  V30 16231 O 1311.42 -0.0743816 8.81969 0
M  V30 16232 O 1311.96 1.97652 7.47304 0
M  V30 16233 C 1312.9 3.01133 7.08783 0
M  V30 16234 C 1312.17 4.12613 6.37049 0
M  V30 16235 O 1311.96 3.72827 4.97879 0
M  V30 16236 C 1310.77 4.45085 6.88694 0
M  V30 16237 O 1310.38 5.7877 6.5624 0
M  V30 16238 C 1309.89 3.47817 6.12078 0
M  V30 16239 C 1310.6 3.39414 4.77697 0
M  V30 16240 N 1310.55 2.04615 4.15333 0
M  V30 16241 H 1313.39 3.41248 7.98759 0
M  V30 16242 H 1313.66 2.5837 6.41742 0
M  V30 16243 H 1312.8 5.02657 6.42673 0
M  V30 16244 P 1308.83 6.144 6.45285 0
M  V30 16245 O 1308.61 7.54673 6.86199 0
M  V30 16246 O 1308.04 5.12391 7.179 0
M  V30 16247 O 1308.58 5.99158 4.88404 0
M  V30 16248 C 1309.52 6.60234 3.96415 0
M  V30 16249 C 1308.79 7.08259 2.72856 0
M  V30 16250 O 1308.58 5.9427 1.83651 0
M  V30 16251 C 1307.39 7.64886 2.9555 0
M  V30 16252 O 1307 8.53963 1.90717 0
M  V30 16253 C 1306.51 6.4116 2.90739 0
M  V30 16254 C 1307.22 5.55375 1.86963 0
M  V30 16255 N 1307.17 4.09664 2.15742 0
M  V30 16256 H 1310.01 7.45574 4.45629 0
M  V30 16257 H 1310.28 5.86232 3.67314 0
M  V30 16258 H 1309.42 7.84412 2.24479 0
M  V30 16259 P 1305.45 8.7635 1.60911 0
M  V30 16260 O 1305.23 10.1388 1.11561 0
M  V30 16261 O 1304.66 8.36503 2.79617 0
M  V30 16262 O 1305.2 7.71806 0.42951 0
M  V30 16263 C 1306.14 7.67148 -0.673689 0
M  V30 16264 C 1305.41 7.33374 -1.95559 0
M  V30 16265 O 1305.2 5.88721 -2.00726 0
M  V30 16266 C 1304.01 7.92526 -2.10483 0
M  V30 16267 O 1303.62 8.02971 -3.47653 0
M  V30 16268 C 1303.13 6.89602 -1.41652 0
M  V30 16269 C 1303.84 5.59201 -1.75185 0
M  V30 16270 N 1303.79 4.58235 -0.662552 0
M  V30 16271 H 1306.63 8.65116 -0.777161 0
M  V30 16272 H 1306.9 6.90173 -0.474152 0
M  V30 16273 H 1306.04 7.66548 -2.79458 0
M  V30 16274 P 1302.07 8.03563 -3.84925 0
M  V30 16275 O 1301.85 8.85821 -5.0569 0
M  V30 16276 O 1301.28 8.41101 -2.65469 0
M  V30 16277 O 1301.82 6.4965 -4.18908 0
M  V30 16278 C 1302.76 5.81037 -5.05421 0
M  V30 16279 C 1302.03 4.78366 -5.89277 0
M  V30 16280 O 1301.82 3.58302 -5.08433 0
M  V30 16281 C 1300.63 5.17448 -6.36119 0
M  V30 16282 O 1300.24 4.45271 -7.53232 0
M  V30 16283 C 1299.75 4.74639 -5.19936 0
M  V30 16284 C 1300.46 3.49432 -4.70418 0
M  V30 16285 N 1300.41 3.32099 -3.22613 0
M  V30 16286 H 1303.25 6.54213 -5.71376 0
M  V30 16287 H 1303.52 5.30936 -4.43503 0
M  V30 16288 H 1302.66 4.55889 -6.76652 0
M  V30 16289 H 1300 2.61715 -5.17932 0
M  V30 16290 H 1299.72 5.52155 -4.41878 0
M  V30 16291 H 1298.73 4.51981 -5.53374 0
M  V30 16292 H 1300.56 6.25124 -6.55234 0
M  V30 16293 P 1298.69 4.23843 -7.83734 0
M  V30 16294 O 1298.47 4.19407 -9.29784 0
M  V30 16295 O 1297.9 5.24426 -7.09156 0
M  V30 16296 O 1298.44 2.7935 -7.20758 0
M  V30 16297 C 1299.38 1.7299 -7.50419 0
M  V30 16298 C 1298.65 0.406376 -7.57911 0
M  V30 16299 O 1298.44 -0.0897726 -6.21935 0
M  V30 16300 C 1297.25 0.447224 -8.1878 0
M  V30 16301 O 1296.86 -0.825065 -8.71101 0
M  V30 16302 C 1296.37 0.783801 -6.99623 0
M  V30 16303 C 1297.08 0.0619192 -5.85967 0
M  V30 16304 N 1297.03 0.7859 -4.56281 0
M  V30 16305 C 1297.11 2.14308 -4.31736 0
M  V30 16306 N 1297.03 2.46106 -3.05116 0
M  V30 16307 C 1296.89 1.23422 -2.4014 0
M  V30 16308 C 1296.76 0.938381 -1.02409 0
M  V30 16309 N 1296.64 -0.444647 -0.805413 0
M  V30 16310 C 1296.64 -1.40829 -1.79435 0
M  V30 16311 N 1296.51 -2.67213 -1.38558 0
M  V30 16312 N 1296.77 -1.12947 -3.09005 0
M  V30 16313 C 1296.89 0.204887 -3.32369 0
M  V30 16314 H 1299.87 1.93423 -8.4679 0
M  V30 16315 H 1300.14 1.68181 -6.71046 0
M  V30 16316 H 1299.28 -0.289041 -8.15388 0
M  V30 16317 P 1295.31 -1.17771 -8.83182 0
M  V30 16318 O 1295.09 -2.07206 -9.98732 0
M  V30 16319 O 1294.52 0.0743816 -8.81969 0
M  V30 16320 O 1295.06 -1.97652 -7.47304 0
M  V30 16321 C 1296 -3.01133 -7.08783 0
M  V30 16322 C 1295.27 -4.12613 -6.37049 0
M  V30 16323 O 1295.06 -3.72827 -4.97879 0
M  V30 16324 C 1293.87 -4.45085 -6.88694 0
M  V30 16325 O 1293.48 -5.7877 -6.5624 0
M  V30 16326 C 1292.99 -3.47817 -6.12078 0
M  V30 16327 C 1293.7 -3.39414 -4.77697 0
M  V30 16328 N 1293.65 -2.04615 -4.15333 0
M  V30 16329 H 1296.49 -3.41248 -7.98759 0
M  V30 16330 H 1296.76 -2.5837 -6.41742 0
M  V30 16331 H 1295.9 -5.02657 -6.42673 0
M  V30 16332 P 1291.93 -6.144 -6.45285 0
M  V30 16333 O 1291.71 -7.54673 -6.86199 0
M  V30 16334 O 1291.14 -5.12391 -7.179 0
M  V30 16335 O 1291.68 -5.99158 -4.88404 0
M  V30 16336 C 1292.62 -6.60234 -3.96415 0
M  V30 16337 C 1291.89 -7.08259 -2.72856 0
M  V30 16338 O 1291.68 -5.9427 -1.83651 0
M  V30 16339 C 1290.49 -7.64886 -2.9555 0
M  V30 16340 O 1290.1 -8.53963 -1.90717 0
M  V30 16341 C 1289.61 -6.4116 -2.90739 0
M  V30 16342 C 1290.32 -5.55375 -1.86963 0
M  V30 16343 N 1290.27 -4.09664 -2.15742 0
M  V30 16344 H 1293.11 -7.45574 -4.45629 0
M  V30 16345 H 1293.38 -5.86232 -3.67314 0
M  V30 16346 H 1292.52 -7.84412 -2.24479 0
M  V30 16347 P 1288.55 -8.7635 -1.60911 0
M  V30 16348 O 1288.33 -10.1388 -1.11561 0
M  V30 16349 O 1287.76 -8.36503 -2.79617 0
M  V30 16350 O 1288.3 -7.71806 -0.42951 0
M  V30 16351 C 1289.24 -7.67148 0.673689 0
M  V30 16352 C 1288.51 -7.33374 1.95559 0
M  V30 16353 O 1288.3 -5.88721 2.00726 0
M  V30 16354 C 1287.11 -7.92526 2.10483 0
M  V30 16355 O 1286.72 -8.02971 3.47653 0
M  V30 16356 C 1286.23 -6.89602 1.41652 0
M  V30 16357 C 1286.94 -5.59201 1.75185 0
M  V30 16358 N 1286.89 -4.58301 0.657969 0
M  V30 16359 H 1289.73 -8.65116 0.777161 0
M  V30 16360 H 1290 -6.9022 0.46725 0
M  V30 16361 H 1289.14 -7.66548 2.79458 0
M  V30 16362 H 1286.48 -5.16165 2.65183 0
M  V30 16363 H 1286.2 -7.06433 0.329384 0
M  V30 16364 H 1285.21 -6.90926 1.82021 0
M  V30 16365 H 1287.04 -8.90873 1.62657 0
M  V30 16366 P 1285.17 -8.03563 3.84925 0
M  V30 16367 O 1284.95 -8.85821 5.0569 0
M  V30 16368 O 1284.38 -8.41101 2.65469 0
M  V30 16369 O 1284.92 -6.4965 4.18908 0
M  V30 16370 C 1285.86 -5.81037 5.05421 0
M  V30 16371 C 1285.13 -4.78366 5.89277 0
M  V30 16372 O 1284.92 -3.58302 5.08433 0
M  V30 16373 C 1283.73 -5.17448 6.36119 0
M  V30 16374 O 1283.34 -4.45271 7.53232 0
M  V30 16375 C 1282.85 -4.74639 5.19936 0
M  V30 16376 C 1283.56 -3.49432 4.70418 0
M  V30 16377 N 1283.51 -3.31776 3.22945 0
M  V30 16378 H 1286.35 -6.54213 5.71376 0
M  V30 16379 H 1286.62 -5.30492 4.44033 0
M  V30 16380 H 1285.76 -4.55889 6.76652 0
M  V30 16381 P 1281.79 -4.23843 7.83734 0
M  V30 16382 O 1281.57 -4.19407 9.29784 0
M  V30 16383 O 1281 -5.24426 7.09156 0
M  V30 16384 O 1281.54 -2.7935 7.20758 0
M  V30 16385 C 1282.48 -1.7299 7.50419 0
M  V30 16386 C 1281.75 -0.406376 7.57911 0
M  V30 16387 O 1281.54 0.0897726 6.21935 0
M  V30 16388 C 1280.35 -0.447224 8.1878 0
M  V30 16389 O 1279.96 0.825065 8.71101 0
M  V30 16390 C 1279.47 -0.783801 6.99623 0
M  V30 16391 C 1280.18 -0.0619192 5.85967 0
M  V30 16392 N 1280.13 -0.7859 4.56281 0
M  V30 16393 H 1282.97 -1.93423 8.4679 0
M  V30 16394 H 1283.24 -1.68181 6.71046 0
M  V30 16395 H 1282.38 0.289041 8.15388 0
M  V30 16396 P 1278.41 1.17771 8.83182 0
M  V30 16397 O 1278.19 2.07206 9.98732 0
M  V30 16398 O 1277.62 -0.0743816 8.81969 0
M  V30 16399 O 1278.16 1.97652 7.47304 0
M  V30 16400 C 1279.1 3.01133 7.08783 0
M  V30 16401 C 1278.37 4.12613 6.37049 0
M  V30 16402 O 1278.16 3.72827 4.97879 0
M  V30 16403 C 1276.97 4.45085 6.88694 0
M  V30 16404 O 1276.58 5.7877 6.5624 0
M  V30 16405 C 1276.09 3.47817 6.12078 0
M  V30 16406 C 1276.8 3.39414 4.77697 0
M  V30 16407 N 1276.75 2.04615 4.15333 0
M  V30 16408 H 1279.59 3.41248 7.98759 0
M  V30 16409 H 1279.86 2.5837 6.41742 0
M  V30 16410 H 1279 5.02657 6.42673 0
M  V30 16411 P 1275.03 6.144 6.45285 0
M  V30 16412 O 1274.81 7.54673 6.86199 0
M  V30 16413 O 1274.24 5.12391 7.179 0
M  V30 16414 O 1274.78 5.99158 4.88404 0
M  V30 16415 C 1275.72 6.60234 3.96415 0
M  V30 16416 C 1274.99 7.08259 2.72856 0
M  V30 16417 O 1274.78 5.9427 1.83651 0
M  V30 16418 C 1273.59 7.64886 2.9555 0
M  V30 16419 O 1273.2 8.53963 1.90717 0
M  V30 16420 C 1272.71 6.4116 2.90739 0
M  V30 16421 C 1273.42 5.55375 1.86963 0
M  V30 16422 N 1273.37 4.09664 2.15742 0
M  V30 16423 H 1276.21 7.45574 4.45629 0
M  V30 16424 H 1276.48 5.86232 3.67314 0
M  V30 16425 H 1275.62 7.84412 2.24479 0
M  V30 16426 P 1271.65 8.7635 1.60911 0
M  V30 16427 O 1271.43 10.1388 1.11561 0
M  V30 16428 O 1270.86 8.36503 2.79617 0
M  V30 16429 O 1271.4 7.71806 0.42951 0
M  V30 16430 C 1272.34 7.66948 -0.673514 0
M  V30 16431 C 1271.61 7.33374 -1.95559 0
M  V30 16432 O 1271.4 5.88721 -2.00726 0
M  V30 16433 C 1270.21 7.92218 -2.1125 0
M  V30 16434 O 1269.82 8.02971 -3.47653 0
M  V30 16435 C 1269.33 6.89504 -1.41631 0
M  V30 16436 C 1270.04 5.59106 -1.75155 0
M  V30 16437 N 1269.99 4.58136 -0.662409 0
M  V30 16438 C 1269.84 3.26059 -1.02863 0
M  V30 16439 O 1269.75 2.90743 -2.19009 0
M  V30 16440 N 1269.8 2.35995 0.0155585 0
M  V30 16441 C 1269.89 2.65248 1.35603 0
M  V30 16442 C 1270.04 4.05747 1.64698 0
M  V30 16443 C 1270.09 4.96734 0.652411 0
M  V30 16444 H 1272.83 8.64917 -0.776982 0
M  V30 16445 H 1273.1 6.89974 -0.474015 0
M  V30 16446 H 1272.24 7.66548 -2.79458 0
M  V30 16447 H 1269.58 5.16076 -2.65138 0
M  V30 16448 H 1269.3 7.06433 -0.329384 0
M  V30 16449 H 1268.31 6.90829 -1.81996 0
M  V30 16450 H 1270.14 8.90774 -1.62639 0
M  V30 16451 H 1270.21 6.02181 0.895285 0
M  V30 16452 P 1268.27 8.03563 -3.84925 0
M  V30 16453 O 1268.05 8.85821 -5.0569 0
M  V30 16454 O 1267.48 8.41101 -2.65469 0
M  V30 16455 O 1268.02 6.4965 -4.18908 0
M  V30 16456 C 1268.96 5.81037 -5.05421 0
M  V30 16457 C 1268.23 4.78366 -5.89277 0
M  V30 16458 O 1268.02 3.58302 -5.08433 0
M  V30 16459 C 1266.83 5.17448 -6.36119 0
M  V30 16460 O 1266.44 4.45271 -7.53232 0
M  V30 16461 C 1265.95 4.74639 -5.19936 0
M  V30 16462 C 1266.66 3.49432 -4.70418 0
M  V30 16463 N 1266.61 3.31776 -3.22945 0
M  V30 16464 H 1269.45 6.54213 -5.71376 0
M  V30 16465 H 1269.72 5.30492 -4.44033 0
M  V30 16466 H 1268.86 4.55889 -6.76652 0
M  V30 16467 P 1264.89 4.23843 -7.83734 0
M  V30 16468 O 1264.67 4.19407 -9.29784 0
M  V30 16469 O 1264.1 5.24426 -7.09156 0
M  V30 16470 O 1264.64 2.7935 -7.20758 0
M  V30 16471 C 1265.58 1.7299 -7.50419 0
M  V30 16472 C 1264.85 0.406376 -7.57911 0
M  V30 16473 O 1264.64 -0.0897726 -6.21935 0
M  V30 16474 C 1263.45 0.447224 -8.1878 0
M  V30 16475 O 1263.06 -0.825065 -8.71101 0
M  V30 16476 C 1262.57 0.783801 -6.99623 0
M  V30 16477 C 1263.28 0.0619192 -5.85967 0
M  V30 16478 N 1263.23 0.7859 -4.56281 0
M  V30 16479 C 1263.31 2.14308 -4.31736 0
M  V30 16480 N 1263.23 2.46106 -3.05116 0
M  V30 16481 C 1263.09 1.23422 -2.4014 0
M  V30 16482 C 1262.96 0.938381 -1.02409 0
M  V30 16483 N 1262.84 -0.444647 -0.805413 0
M  V30 16484 C 1262.84 -1.40829 -1.79435 0
M  V30 16485 N 1262.71 -2.67213 -1.38558 0
M  V30 16486 N 1262.97 -1.12947 -3.09005 0
M  V30 16487 C 1263.09 0.204887 -3.32369 0
M  V30 16488 H 1266.07 1.93423 -8.4679 0
M  V30 16489 H 1266.34 1.68181 -6.71046 0
M  V30 16490 H 1265.48 -0.289041 -8.15388 0
M  V30 16491 P 1261.51 -1.17771 -8.83182 0
M  V30 16492 O 1261.29 -2.07206 -9.98732 0
M  V30 16493 O 1260.72 0.0743816 -8.81969 0
M  V30 16494 O 1261.26 -1.97652 -7.47304 0
M  V30 16495 C 1262.2 -3.01133 -7.08783 0
M  V30 16496 C 1261.47 -4.12613 -6.37049 0
M  V30 16497 O 1261.26 -3.72827 -4.97879 0
M  V30 16498 C 1260.07 -4.45085 -6.88694 0
M  V30 16499 O 1259.68 -5.7877 -6.5624 0
M  V30 16500 C 1259.19 -3.47817 -6.12078 0
M  V30 16501 C 1259.9 -3.39414 -4.77697 0
M  V30 16502 N 1259.85 -2.04615 -4.15333 0
M  V30 16503 C 1259.93 -0.803897 -4.75249 0
M  V30 16504 N 1259.85 0.197615 -3.91502 0
M  V30 16505 C 1259.71 -0.413002 -2.66823 0
M  V30 16506 C 1259.58 0.157221 -1.38007 0
M  V30 16507 N 1259.46 -0.833136 -0.390236 0
M  V30 16508 C 1259.46 -2.19402 -0.623885 0
M  V30 16509 N 1259.33 -2.97622 0.449677 0
M  V30 16510 N 1259.59 -2.73005 -1.83601 0
M  V30 16511 C 1259.71 -1.78786 -2.80935 0
M  V30 16512 H 1262.69 -3.41248 -7.98759 0
M  V30 16513 H 1262.96 -2.5837 -6.41742 0
M  V30 16514 H 1262.1 -5.02657 -6.42673 0
M  V30 16515 P 1258.13 -6.144 -6.45285 0
M  V30 16516 O 1257.91 -7.54673 -6.86199 0
M  V30 16517 O 1257.34 -5.12391 -7.179 0
M  V30 16518 O 1257.88 -5.99158 -4.88404 0
M  V30 16519 C 1258.82 -6.60062 -3.96313 0
M  V30 16520 C 1258.09 -7.08259 -2.72856 0
M  V30 16521 O 1257.88 -5.9427 -1.83651 0
M  V30 16522 C 1256.69 -7.65087 -2.94749 0
M  V30 16523 O 1256.3 -8.53963 -1.90717 0
M  V30 16524 C 1255.81 -6.41069 -2.90698 0
M  V30 16525 C 1256.52 -5.5528 -1.86931 0
M  V30 16526 N 1256.47 -4.09575 -2.15696 0
M  V30 16527 C 1256.32 -3.24249 -1.08435 0
M  V30 16528 O 1256.23 -3.63946 0.0628747 0
M  V30 16529 N 1256.28 -1.90009 -1.39973 0
M  V30 16530 C 1256.37 -1.34884 -2.65614 0
M  V30 16531 C 1256.52 -2.3145 -3.71736 0
M  V30 16532 C 1256.57 -3.63518 -3.44754 0
M  V30 16533 H 1259.31 -7.45402 -4.45526 0
M  V30 16534 H 1259.58 -5.86062 -3.67208 0
M  V30 16535 H 1258.72 -7.84412 -2.24479 0
M  V30 16536 H 1256.06 -5.73358 -0.888409 0
M  V30 16537 H 1255.78 -5.90877 -3.88583 0
M  V30 16538 H 1254.79 -6.65867 -2.58821 0
M  V30 16539 H 1256.62 -8.16248 -3.92006 0
M  V30 16540 H 1256.69 -4.34551 -4.26383 0
M  V30 16541 P 1254.75 -8.7635 -1.60911 0
M  V30 16542 O 1254.53 -10.1388 -1.11561 0
M  V30 16543 O 1253.96 -8.36503 -2.79617 0
M  V30 16544 O 1254.5 -7.71806 -0.42951 0
M  V30 16545 C 1255.44 -7.67148 0.673689 0
M  V30 16546 C 1254.71 -7.33374 1.95559 0
M  V30 16547 O 1254.5 -5.88721 2.00726 0
M  V30 16548 C 1253.31 -7.92526 2.10483 0
M  V30 16549 O 1252.92 -8.02971 3.47653 0
M  V30 16550 C 1252.43 -6.89602 1.41652 0
M  V30 16551 C 1253.14 -5.59201 1.75185 0
M  V30 16552 N 1253.09 -4.58235 0.662552 0
M  V30 16553 H 1255.93 -8.65116 0.777161 0
M  V30 16554 H 1256.2 -6.90173 0.474152 0
M  V30 16555 H 1255.34 -7.66548 2.79458 0
M  V30 16556 P 1251.37 -8.03563 3.84925 0
M  V30 16557 O 1251.15 -8.85821 5.0569 0
M  V30 16558 O 1250.58 -8.41101 2.65469 0
M  V30 16559 O 1251.12 -6.4965 4.18908 0
M  V30 16560 C 1252.06 -5.81037 5.05421 0
M  V30 16561 C 1251.33 -4.78366 5.89277 0
M  V30 16562 O 1251.12 -3.58302 5.08433 0
M  V30 16563 C 1249.93 -5.17448 6.36119 0
M  V30 16564 O 1249.54 -4.45271 7.53232 0
M  V30 16565 C 1249.05 -4.74639 5.19936 0
M  V30 16566 C 1249.76 -3.49432 4.70418 0
M  V30 16567 N 1249.71 -3.31776 3.22945 0
M  V30 16568 C 1249.79 -4.27147 2.23315 0
M  V30 16569 N 1249.71 -3.78447 1.02186 0
M  V30 16570 C 1249.57 -2.41001 1.21732 0
M  V30 16571 C 1249.44 -1.36111 0.27694 0
M  V30 16572 O 1249.42 -1.42065 -0.951767 0
M  V30 16573 N 1249.32 -0.113683 0.912949 0
M  V30 16574 C 1249.32 0.0846396 2.27943 0
M  V30 16575 N 1249.19 1.34737 2.6916 0
M  V30 16576 N 1249.45 -0.902521 3.16379 0
M  V30 16577 C 1249.57 -2.11937 2.56849 0
M  V30 16578 H 1252.55 -6.54213 5.71376 0
M  V30 16579 H 1252.82 -5.30492 4.44033 0
M  V30 16580 H 1251.96 -4.55889 6.76652 0
M  V30 16581 H 1249.3 -2.6176 5.18021 0
M  V30 16582 H 1249.02 -5.52233 4.41941 0
M  V30 16583 H 1248.03 -4.52045 5.53452 0
M  V30 16584 H 1249.86 -6.25193 6.55307 0
M  V30 16585 H 1249.91 -5.3351 2.43857 0
M  V30 16586 H 1249.23 0.69331 0.330371 0
M  V30 16587 H 1249.19 1.56433 3.6988 0
M  V30 16588 H 1249.09 2.10701 2.00133 0
M  V30 16589 P 1247.99 -4.23843 7.83734 0
M  V30 16590 O 1247.77 -4.19407 9.29784 0
M  V30 16591 O 1247.2 -5.24426 7.09156 0
M  V30 16592 O 1247.74 -2.7935 7.20758 0
M  V30 16593 C 1248.68 -1.7299 7.50419 0
M  V30 16594 C 1247.95 -0.406376 7.57911 0
M  V30 16595 O 1247.74 0.0897726 6.21935 0
M  V30 16596 C 1246.55 -0.447224 8.1878 0
M  V30 16597 O 1246.16 0.825065 8.71101 0
M  V30 16598 C 1245.67 -0.783801 6.99623 0
M  V30 16599 C 1246.38 -0.0619192 5.85967 0
M  V30 16600 N 1246.33 -0.790462 4.56202 0
M  V30 16601 H 1249.17 -1.93423 8.4679 0
M  V30 16602 H 1249.44 -1.68852 6.70877 0
M  V30 16603 H 1248.58 0.289041 8.15388 0
M  V30 16604 H 1245.92 0.927006 5.72848 0
M  V30 16605 H 1245.64 -1.86973 6.82036 0
M  V30 16606 H 1244.65 -0.403953 7.13357 0
M  V30 16607 H 1246.48 -1.20599 8.97534 0
M  V30 16608 P 1244.61 1.17771 8.83182 0
M  V30 16609 O 1244.39 2.07206 9.98732 0
M  V30 16610 O 1243.82 -0.0743816 8.81969 0
M  V30 16611 O 1244.36 1.97652 7.47304 0
M  V30 16612 C 1245.3 3.01133 7.08783 0
M  V30 16613 C 1244.57 4.12613 6.37049 0
M  V30 16614 O 1244.36 3.72827 4.97879 0
M  V30 16615 C 1243.17 4.45085 6.88694 0
M  V30 16616 O 1242.78 5.7877 6.5624 0
M  V30 16617 C 1242.29 3.47817 6.12078 0
M  V30 16618 C 1243 3.39414 4.77697 0
M  V30 16619 N 1242.95 2.04199 4.15538 0
M  V30 16620 H 1245.79 3.41248 7.98759 0
M  V30 16621 H 1246.06 2.57728 6.42 0
M  V30 16622 H 1245.2 5.02657 6.42673 0
M  V30 16623 H 1242.54 4.11708 4.08956 0
M  V30 16624 H 1242.26 2.49626 6.61679 0
M  V30 16625 H 1241.27 3.8662 6.00862 0
M  V30 16626 H 1243.1 4.29991 7.97006 0
M  V30 16627 P 1241.23 6.144 6.45285 0
M  V30 16628 O 1241.01 7.54673 6.86199 0
M  V30 16629 O 1240.44 5.12391 7.179 0
M  V30 16630 O 1240.98 5.99236 4.88467 0
M  V30 16631 C 1241.92 6.60234 3.96415 0
M  V30 16632 C 1241.19 7.08079 2.736 0
M  V30 16633 O 1240.98 5.94365 1.8368 0
M  V30 16634 C 1239.79 7.64886 2.9555 0
M  V30 16635 O 1239.4 8.5406 1.90739 0
M  V30 16636 C 1238.91 6.4116 2.90739 0
M  V30 16637 C 1239.62 5.55375 1.86963 0
M  V30 16638 N 1239.57 4.09664 2.15742 0
M  V30 16639 C 1239.42 3.22231 1.08477 0
M  V30 16640 O 1239.33 3.68951 -0.0600489 0
M  V30 16641 N 1239.37 1.76692 1.48799 0
M  V30 16642 C 1239.47 1.41695 2.57602 0
M  V30 16643 N 1239.42 0.107296 2.75791 0
M  V30 16644 C 1239.62 2.29178 3.69733 0
M  V30 16645 C 1239.67 3.62753 3.42653 0
M  V30 16646 H 1242.41 7.45488 4.45578 0
M  V30 16647 H 1242.68 5.86232 3.67314 0
M  V30 16648 H 1241.82 7.84508 2.24507 0
M  V30 16649 H 1239.16 5.73556 0.888715 0
M  V30 16650 H 1238.88 5.9096 3.88638 0
M  V30 16651 H 1237.89 6.66053 2.58894 0
M  V30 16652 H 1239.72 8.16339 3.92049 0
M  V30 16653 H 1239.8 4.33052 4.24913 0
M  V30 16654 H 1239.69 1.9103 4.71577 0
M  V30 16655 H 1239.31 -0.521221 1.95056 0
M  V30 16656 H 1239.5 -0.286429 3.70695 0
M  V30 16657 P 1237.85 8.7635 1.60911 0
M  V30 16658 O 1237.63 10.1388 1.11561 0
M  V30 16659 O 1237.06 8.36503 2.79617 0
M  V30 16660 O 1237.6 7.71806 0.42951 0
M  V30 16661 C 1238.54 7.67148 -0.673689 0
M  V30 16662 C 1237.81 7.33374 -1.95559 0
M  V30 16663 O 1237.6 5.88721 -2.00726 0
M  V30 16664 C 1236.41 7.92526 -2.10483 0
M  V30 16665 O 1236.02 8.02971 -3.47653 0
M  V30 16666 C 1235.53 6.89602 -1.41652 0
M  V30 16667 C 1236.24 5.59201 -1.75185 0
M  V30 16668 N 1236.19 4.58235 -0.662552 0
M  V30 16669 H 1239.03 8.65116 -0.777161 0
M  V30 16670 H 1239.3 6.90173 -0.474152 0
M  V30 16671 H 1238.44 7.66548 -2.79458 0
M  V30 16672 P 1234.47 8.03563 -3.84925 0
M  V30 16673 O 1234.25 8.85821 -5.0569 0
M  V30 16674 O 1233.68 8.41101 -2.65469 0
M  V30 16675 O 1234.22 6.4965 -4.18908 0
M  V30 16676 C 1235.16 5.81037 -5.05421 0
M  V30 16677 C 1234.43 4.78366 -5.89277 0
M  V30 16678 O 1234.22 3.58302 -5.08433 0
M  V30 16679 C 1233.03 5.17448 -6.36119 0
M  V30 16680 O 1232.64 4.45271 -7.53232 0
M  V30 16681 C 1232.15 4.74639 -5.19936 0
M  V30 16682 C 1232.86 3.49432 -4.70418 0
M  V30 16683 N 1232.81 3.31776 -3.22945 0
M  V30 16684 H 1235.65 6.54213 -5.71376 0
M  V30 16685 H 1235.92 5.30492 -4.44033 0
M  V30 16686 H 1235.06 4.55889 -6.76652 0
M  V30 16687 P 1231.09 4.23843 -7.83734 0
M  V30 16688 O 1230.87 4.19407 -9.29784 0
M  V30 16689 O 1230.3 5.24426 -7.09156 0
M  V30 16690 O 1230.84 2.7935 -7.20758 0
M  V30 16691 C 1231.78 1.7299 -7.50419 0
M  V30 16692 C 1231.05 0.406376 -7.57911 0
M  V30 16693 O 1230.84 -0.0897726 -6.21935 0
M  V30 16694 C 1229.65 0.447224 -8.1878 0
M  V30 16695 O 1229.26 -0.825065 -8.71101 0
M  V30 16696 C 1228.77 0.783801 -6.99623 0
M  V30 16697 C 1229.48 0.0619192 -5.85967 0
M  V30 16698 N 1229.43 0.790462 -4.56202 0
M  V30 16699 H 1232.27 1.93423 -8.4679 0
M  V30 16700 H 1232.54 1.68852 -6.70877 0
M  V30 16701 H 1231.68 -0.289041 -8.15388 0
M  V30 16702 H 1229.02 -0.927006 -5.72848 0
M  V30 16703 H 1228.74 1.86973 -6.82036 0
M  V30 16704 H 1227.75 0.403953 -7.13357 0
M  V30 16705 H 1229.58 1.20599 -8.97534 0
M  V30 16706 P 1227.71 -1.17771 -8.83182 0
M  V30 16707 O 1227.49 -2.07206 -9.98732 0
M  V30 16708 O 1226.92 0.0743816 -8.81969 0
M  V30 16709 O 1227.46 -1.97652 -7.47304 0
M  V30 16710 C 1228.4 -3.01133 -7.08783 0
M  V30 16711 C 1227.67 -4.12613 -6.37049 0
M  V30 16712 O 1227.46 -3.72827 -4.97879 0
M  V30 16713 C 1226.27 -4.45085 -6.88694 0
M  V30 16714 O 1225.88 -5.7877 -6.5624 0
M  V30 16715 C 1225.39 -3.47817 -6.12078 0
M  V30 16716 C 1226.1 -3.39414 -4.77697 0
M  V30 16717 N 1226.05 -2.04615 -4.15333 0
M  V30 16718 H 1228.89 -3.41248 -7.98759 0
M  V30 16719 H 1229.16 -2.5837 -6.41742 0
M  V30 16720 H 1228.3 -5.02657 -6.42673 0
M  V30 16721 P 1224.33 -6.144 -6.45285 0
M  V30 16722 O 1224.11 -7.54673 -6.86199 0
M  V30 16723 O 1223.54 -5.12391 -7.179 0
M  V30 16724 O 1224.08 -5.99158 -4.88404 0
M  V30 16725 C 1225.02 -6.60234 -3.96415 0
M  V30 16726 C 1224.29 -7.08259 -2.72856 0
M  V30 16727 O 1224.08 -5.9427 -1.83651 0
M  V30 16728 C 1222.89 -7.64886 -2.9555 0
M  V30 16729 O 1222.5 -8.53963 -1.90717 0
M  V30 16730 C 1222.01 -6.4116 -2.90739 0
M  V30 16731 C 1222.72 -5.55375 -1.86963 0
M  V30 16732 N 1222.67 -4.09664 -2.15742 0
M  V30 16733 H 1225.51 -7.45574 -4.45629 0
M  V30 16734 H 1225.78 -5.86232 -3.67314 0
M  V30 16735 H 1224.92 -7.84412 -2.24479 0
M  V30 16736 P 1220.95 -8.7635 -1.60911 0
M  V30 16737 O 1220.73 -10.1388 -1.11561 0
M  V30 16738 O 1220.16 -8.36503 -2.79617 0
M  V30 16739 O 1220.7 -7.71806 -0.42951 0
M  V30 16740 C 1221.64 -7.67148 0.673689 0
M  V30 16741 C 1220.91 -7.33374 1.95559 0
M  V30 16742 O 1220.7 -5.88721 2.00726 0
M  V30 16743 C 1219.51 -7.92526 2.10483 0
M  V30 16744 O 1219.12 -8.02971 3.47653 0
M  V30 16745 C 1218.63 -6.89602 1.41652 0
M  V30 16746 C 1219.34 -5.59201 1.75185 0
M  V30 16747 N 1219.29 -4.58235 0.662552 0
M  V30 16748 H 1222.13 -8.65116 0.777161 0
M  V30 16749 H 1222.4 -6.90173 0.474152 0
M  V30 16750 H 1221.54 -7.66548 2.79458 0
M  V30 16751 P 1217.57 -8.03563 3.84925 0
M  V30 16752 O 1217.35 -8.85821 5.0569 0
M  V30 16753 O 1216.78 -8.41101 2.65469 0
M  V30 16754 O 1217.32 -6.4965 4.18908 0
M  V30 16755 C 1218.26 -5.81037 5.05421 0
M  V30 16756 C 1217.53 -4.78366 5.89277 0
M  V30 16757 O 1217.32 -3.58302 5.08433 0
M  V30 16758 C 1216.13 -5.17448 6.36119 0
M  V30 16759 O 1215.74 -4.45271 7.53232 0
M  V30 16760 C 1215.25 -4.74639 5.19936 0
M  V30 16761 C 1215.96 -3.49432 4.70418 0
M  V30 16762 N 1215.91 -3.31776 3.22945 0
M  V30 16763 H 1218.75 -6.54213 5.71376 0
M  V30 16764 H 1219.02 -5.30492 4.44033 0
M  V30 16765 H 1218.16 -4.55889 6.76652 0
M  V30 16766 P 1214.19 -4.23843 7.83734 0
M  V30 16767 O 1213.97 -4.19407 9.29784 0
M  V30 16768 O 1213.4 -5.24426 7.09156 0
M  V30 16769 O 1213.94 -2.7935 7.20758 0
M  V30 16770 C 1214.88 -1.7299 7.50419 0
M  V30 16771 C 1214.15 -0.406376 7.57911 0
M  V30 16772 O 1213.94 0.0897726 6.21935 0
M  V30 16773 C 1212.75 -0.447224 8.1878 0
M  V30 16774 O 1212.36 0.825065 8.71101 0
M  V30 16775 C 1211.87 -0.783801 6.99623 0
M  V30 16776 C 1212.58 -0.0619192 5.85967 0
M  V30 16777 N 1212.53 -0.7859 4.56281 0
M  V30 16778 H 1215.37 -1.93423 8.4679 0
M  V30 16779 H 1215.64 -1.68181 6.71046 0
M  V30 16780 H 1214.78 0.289041 8.15388 0
M  V30 16781 P 1210.81 1.17771 8.83182 0
M  V30 16782 O 1210.59 2.07206 9.98732 0
M  V30 16783 O 1210.02 -0.0743816 8.81969 0
M  V30 16784 O 1210.56 1.97652 7.47304 0
M  V30 16785 C 1211.5 3.01133 7.08783 0
M  V30 16786 C 1210.77 4.12613 6.37049 0
M  V30 16787 O 1210.56 3.72827 4.97879 0
M  V30 16788 C 1209.37 4.45085 6.88694 0
M  V30 16789 O 1208.98 5.7877 6.5624 0
M  V30 16790 C 1208.49 3.47817 6.12078 0
M  V30 16791 C 1209.2 3.39414 4.77697 0
M  V30 16792 N 1209.15 2.04615 4.15333 0
M  V30 16793 H 1211.99 3.41248 7.98759 0
M  V30 16794 H 1212.26 2.5837 6.41742 0
M  V30 16795 H 1211.4 5.02657 6.42673 0
M  V30 16796 P 1207.43 6.144 6.45285 0
M  V30 16797 O 1207.21 7.54673 6.86199 0
M  V30 16798 O 1206.64 5.12391 7.179 0
M  V30 16799 O 1207.18 5.99158 4.88404 0
M  V30 16800 C 1208.12 6.60234 3.96415 0
M  V30 16801 C 1207.39 7.08259 2.72856 0
M  V30 16802 O 1207.18 5.9427 1.83651 0
M  V30 16803 C 1205.99 7.64886 2.9555 0
M  V30 16804 O 1205.6 8.53963 1.90717 0
M  V30 16805 C 1205.11 6.4116 2.90739 0
M  V30 16806 C 1205.82 5.55375 1.86963 0
M  V30 16807 N 1205.77 4.09664 2.15742 0
M  V30 16808 C 1205.85 3.44381 3.37233 0
M  V30 16809 N 1205.77 2.14131 3.28347 0
M  V30 16810 C 1205.63 1.90247 1.91588 0
M  V30 16811 C 1205.5 0.683992 1.20892 0
M  V30 16812 O 1205.48 -0.46618 1.64523 0
M  V30 16813 N 1205.38 0.903396 -0.173998 0
M  V30 16814 C 1205.38 2.14171 -0.784879 0
M  V30 16815 N 1205.25 2.1435 -2.11317 0
M  V30 16816 N 1205.51 3.28784 -0.119316 0
M  V30 16817 C 1205.63 3.0977 1.22194 0
M  V30 16818 H 1208.61 7.45574 4.45629 0
M  V30 16819 H 1208.88 5.86232 3.67314 0
M  V30 16820 H 1208.02 7.84412 2.24479 0
M  V30 16821 H 1205.36 5.73556 0.888715 0
M  V30 16822 H 1205.08 5.9096 3.88638 0
M  V30 16823 H 1204.09 6.66053 2.58894 0
M  V30 16824 H 1205.92 8.16429 3.92093 0
M  V30 16825 H 1205.97 3.96785 4.32043 0
M  V30 16826 H 1205.29 0.0999567 -0.761467 0
M  V30 16827 H 1205.25 3.03436 -2.63076 0
M  V30 16828 H 1205.15 1.25228 -2.62233 0
M  V30 16829 P 1204.05 8.7635 1.60911 0
M  V30 16830 O 1203.83 10.1388 1.11561 0
M  V30 16831 O 1203.26 8.36503 2.79617 0
M  V30 16832 O 1203.8 7.71906 0.429565 0
M  V30 16833 C 1204.74 7.67148 -0.673689 0
M  V30 16834 C 1204.01 7.33666 -1.94851 0
M  V30 16835 O 1203.8 5.88816 -2.00759 0
M  V30 16836 C 1202.61 7.92526 -2.10483 0
M  V30 16837 O 1202.22 8.03063 -3.47693 0
M  V30 16838 C 1201.73 6.89602 -1.41652 0
M  V30 16839 C 1202.44 5.59201 -1.75185 0
M  V30 16840 N 1202.39 4.58235 -0.662552 0
M  V30 16841 C 1202.24 3.24451 -1.01643 0
M  V30 16842 O 1202.15 2.94958 -2.21722 0
M  V30 16843 N 1202.19 2.30408 0.165238 0
M  V30 16844 C 1202.29 2.66048 1.25118 0
M  V30 16845 N 1202.24 1.70787 2.16813 0
M  V30 16846 C 1202.44 4.02732 1.64413 0
M  V30 16847 C 1202.49 4.9488 0.63991 0
M  V30 16848 H 1205.23 8.65017 -0.777072 0
M  V30 16849 H 1205.5 6.90173 -0.474152 0
M  V30 16850 H 1204.64 7.66642 -2.79492 0
M  V30 16851 H 1201.98 5.16254 -2.65229 0
M  V30 16852 H 1201.7 7.06532 -0.329431 0
M  V30 16853 H 1200.71 6.91023 -1.82047 0
M  V30 16854 H 1202.54 8.90873 -1.62657 0
M  V30 16855 H 1202.62 6.00104 0.892197 0
M  V30 16856 H 1202.51 4.31733 2.69229 0
M  V30 16857 H 1202.13 0.724835 1.8844 0
M  V30 16858 H 1202.32 1.94716 3.16734 0
M  V30 16859 P 1200.67 8.03563 -3.84925 0
M  V30 16860 O 1200.45 8.85821 -5.0569 0
M  V30 16861 O 1199.88 8.41101 -2.65469 0
M  V30 16862 O 1200.42 6.4965 -4.18908 0
M  V30 16863 C 1201.36 5.81037 -5.05421 0
M  V30 16864 C 1200.63 4.78366 -5.89277 0
M  V30 16865 O 1200.42 3.58302 -5.08433 0
M  V30 16866 C 1199.23 5.17448 -6.36119 0
M  V30 16867 O 1198.84 4.45271 -7.53232 0
M  V30 16868 C 1198.35 4.74639 -5.19936 0
M  V30 16869 C 1199.06 3.49432 -4.70418 0
M  V30 16870 N 1199.01 3.32099 -3.22613 0
M  V30 16871 H 1201.85 6.54213 -5.71376 0
M  V30 16872 H 1202.12 5.30936 -4.43503 0
M  V30 16873 H 1201.26 4.55889 -6.76652 0
M  V30 16874 H 1198.6 2.61715 -5.17932 0
M  V30 16875 H 1198.32 5.52155 -4.41878 0
M  V30 16876 H 1197.33 4.51981 -5.53374 0
M  V30 16877 H 1199.16 6.25124 -6.55234 0
M  V30 16878 P 1197.29 4.23843 -7.83734 0
M  V30 16879 O 1197.07 4.19407 -9.29784 0
M  V30 16880 O 1196.5 5.24426 -7.09156 0
M  V30 16881 O 1197.04 2.7935 -7.20758 0
M  V30 16882 C 1197.98 1.72945 -7.50224 0
M  V30 16883 C 1197.25 0.406376 -7.57911 0
M  V30 16884 O 1197.04 -0.0897726 -6.21935 0
M  V30 16885 C 1195.85 0.438983 -8.18724 0
M  V30 16886 O 1195.46 -0.825065 -8.71101 0
M  V30 16887 C 1194.97 0.783689 -6.99524 0
M  V30 16888 C 1195.68 0.0619086 -5.85867 0
M  V30 16889 N 1195.63 0.78573 -4.56183 0
M  V30 16890 C 1195.48 0.0292889 -3.41887 0
M  V30 16891 O 1195.39 -1.18445 -3.4419 0
M  V30 16892 N 1195.44 0.744061 -2.23964 0
M  V30 16893 C 1195.53 2.10932 -2.10362 0
M  V30 16894 O 1195.48 2.64117 -0.98825 0
M  V30 16895 C 1195.68 2.8202 -3.34994 0
M  V30 16896 C 1195.79 4.31095 -3.25037 0
M  V30 16897 C 1195.73 2.15547 -4.52261 0
M  V30 16898 H 1198.47 1.93379 -8.46595 0
M  V30 16899 H 1198.74 1.68132 -6.70852 0
M  V30 16900 H 1197.88 -0.289041 -8.15388 0
M  V30 16901 H 1195.22 -0.926847 -5.72749 0
M  V30 16902 H 1194.94 1.86973 -6.82036 0
M  V30 16903 H 1193.95 0.403896 -7.13257 0
M  V30 16904 H 1195.78 1.20585 -8.97435 0
M  V30 16905 H 1195.85 2.71231 -5.45042 0
M  V30 16906 H 1194.82 4.76966 -3.49992 0
M  V30 16907 H 1196.56 4.67047 -3.95024 0
M  V30 16908 H 1196.07 4.58996 -2.22312 0
M  V30 16909 H 1195.34 0.214893 -1.39758 0
M  V30 16910 P 1193.91 -1.17771 -8.83182 0
M  V30 16911 O 1193.69 -2.07206 -9.98732 0
M  V30 16912 O 1193.12 0.0743816 -8.81969 0
M  V30 16913 O 1193.66 -1.97652 -7.47304 0
M  V30 16914 C 1194.6 -3.01133 -7.08783 0
M  V30 16915 C 1193.87 -4.12613 -6.37049 0
M  V30 16916 O 1193.66 -3.72827 -4.97879 0
M  V30 16917 C 1192.47 -4.45085 -6.88694 0
M  V30 16918 O 1192.08 -5.7877 -6.5624 0
M  V30 16919 C 1191.59 -3.47817 -6.12078 0
M  V30 16920 C 1192.3 -3.39414 -4.77697 0
M  V30 16921 N 1192.25 -2.04615 -4.15333 0
M  V30 16922 H 1195.09 -3.41248 -7.98759 0
M  V30 16923 H 1195.36 -2.5837 -6.41742 0
M  V30 16924 H 1194.5 -5.02657 -6.42673 0
M  V30 16925 P 1190.53 -6.144 -6.45285 0
M  V30 16926 O 1190.31 -7.54673 -6.86199 0
M  V30 16927 O 1189.74 -5.12391 -7.179 0
M  V30 16928 O 1190.28 -5.99158 -4.88404 0
M  V30 16929 C 1191.22 -6.60234 -3.96415 0
M  V30 16930 C 1190.49 -7.08259 -2.72856 0
M  V30 16931 O 1190.28 -5.9427 -1.83651 0
M  V30 16932 C 1189.09 -7.64886 -2.9555 0
M  V30 16933 O 1188.7 -8.53963 -1.90717 0
M  V30 16934 C 1188.21 -6.4116 -2.90739 0
M  V30 16935 C 1188.92 -5.55375 -1.86963 0
M  V30 16936 N 1188.87 -4.09664 -2.15742 0
M  V30 16937 H 1191.71 -7.45574 -4.45629 0
M  V30 16938 H 1191.98 -5.86232 -3.67314 0
M  V30 16939 H 1191.12 -7.84412 -2.24479 0
M  V30 16940 P 1187.15 -8.7635 -1.60911 0
M  V30 16941 O 1186.93 -10.1388 -1.11561 0
M  V30 16942 O 1186.36 -8.36503 -2.79617 0
M  V30 16943 O 1186.9 -7.71806 -0.42951 0
M  V30 16944 C 1187.84 -7.67148 0.673689 0
M  V30 16945 C 1187.11 -7.33374 1.95559 0
M  V30 16946 O 1186.9 -5.88721 2.00726 0
M  V30 16947 C 1185.71 -7.92526 2.10483 0
M  V30 16948 O 1185.32 -8.02971 3.47653 0
M  V30 16949 C 1184.83 -6.89602 1.41652 0
M  V30 16950 C 1185.54 -5.59201 1.75185 0
M  V30 16951 N 1185.49 -4.58235 0.662552 0
M  V30 16952 H 1188.33 -8.65116 0.777161 0
M  V30 16953 H 1188.6 -6.90173 0.474152 0
M  V30 16954 H 1187.74 -7.66548 2.79458 0
M  V30 16955 P 1183.77 -8.03563 3.84925 0
M  V30 16956 O 1183.55 -8.85821 5.0569 0
M  V30 16957 O 1182.98 -8.41101 2.65469 0
M  V30 16958 O 1183.52 -6.4965 4.18908 0
M  V30 16959 C 1184.46 -5.81037 5.05421 0
M  V30 16960 C 1183.73 -4.78366 5.89277 0
M  V30 16961 O 1183.52 -3.58302 5.08433 0
M  V30 16962 C 1182.33 -5.17448 6.36119 0
M  V30 16963 O 1181.94 -4.45271 7.53232 0
M  V30 16964 C 1181.45 -4.74639 5.19936 0
M  V30 16965 C 1182.16 -3.49432 4.70418 0
M  V30 16966 N 1182.11 -3.31776 3.22945 0
M  V30 16967 H 1184.95 -6.54213 5.71376 0
M  V30 16968 H 1185.22 -5.30492 4.44033 0
M  V30 16969 H 1184.36 -4.55889 6.76652 0
M  V30 16970 P 1180.39 -4.23843 7.83734 0
M  V30 16971 O 1180.17 -4.19407 9.29784 0
M  V30 16972 O 1179.6 -5.24426 7.09156 0
M  V30 16973 O 1180.14 -2.7935 7.20758 0
M  V30 16974 C 1181.08 -1.7299 7.50419 0
M  V30 16975 C 1180.35 -0.406376 7.57911 0
M  V30 16976 O 1180.14 0.0897726 6.21935 0
M  V30 16977 C 1178.95 -0.447224 8.1878 0
M  V30 16978 O 1178.56 0.825065 8.71101 0
M  V30 16979 C 1178.07 -0.783801 6.99623 0
M  V30 16980 C 1178.78 -0.0619192 5.85967 0
M  V30 16981 N 1178.73 -0.7859 4.56281 0
M  V30 16982 H 1181.57 -1.93423 8.4679 0
M  V30 16983 H 1181.84 -1.68181 6.71046 0
M  V30 16984 H 1180.98 0.289041 8.15388 0
M  V30 16985 P 1177.01 1.17771 8.83182 0
M  V30 16986 O 1176.79 2.07206 9.98732 0
M  V30 16987 O 1176.22 -0.0743816 8.81969 0
M  V30 16988 O 1176.76 1.97652 7.47304 0
M  V30 16989 C 1177.7 3.01133 7.08783 0
M  V30 16990 C 1176.97 4.12613 6.37049 0
M  V30 16991 O 1176.76 3.72827 4.97879 0
M  V30 16992 C 1175.57 4.45085 6.88694 0
M  V30 16993 O 1175.18 5.7877 6.5624 0
M  V30 16994 C 1174.69 3.47817 6.12078 0
M  V30 16995 C 1175.4 3.39414 4.77697 0
M  V30 16996 N 1175.35 2.04615 4.15333 0
M  V30 16997 H 1178.19 3.41248 7.98759 0
M  V30 16998 H 1178.46 2.5837 6.41742 0
M  V30 16999 H 1177.6 5.02657 6.42673 0
M  V30 17000 P 1173.63 6.144 6.45285 0
M  V30 17001 O 1173.41 7.54673 6.86199 0
M  V30 17002 O 1172.84 5.12391 7.179 0
M  V30 17003 O 1173.38 5.99158 4.88404 0
M  V30 17004 C 1174.32 6.60234 3.96415 0
M  V30 17005 C 1173.59 7.08259 2.72856 0
M  V30 17006 O 1173.38 5.9427 1.83651 0
M  V30 17007 C 1172.19 7.64886 2.9555 0
M  V30 17008 O 1171.8 8.53963 1.90717 0
M  V30 17009 C 1171.31 6.4116 2.90739 0
M  V30 17010 C 1172.02 5.55375 1.86963 0
M  V30 17011 N 1171.97 4.09664 2.15742 0
M  V30 17012 H 1174.81 7.45574 4.45629 0
M  V30 17013 H 1175.08 5.86232 3.67314 0
M  V30 17014 H 1174.22 7.84412 2.24479 0
M  V30 17015 P 1170.25 8.7635 1.60911 0
M  V30 17016 O 1170.03 10.1388 1.11561 0
M  V30 17017 O 1169.46 8.36503 2.79617 0
M  V30 17018 O 1170 7.71806 0.42951 0
M  V30 17019 C 1170.94 7.67148 -0.673689 0
M  V30 17020 C 1170.21 7.33374 -1.95559 0
M  V30 17021 O 1170 5.88721 -2.00726 0
M  V30 17022 C 1168.81 7.92526 -2.10483 0
M  V30 17023 O 1168.42 8.02971 -3.47653 0
M  V30 17024 C 1167.93 6.89602 -1.41652 0
M  V30 17025 C 1168.64 5.59201 -1.75185 0
M  V30 17026 N 1168.59 4.58235 -0.662552 0
M  V30 17027 H 1171.43 8.65116 -0.777161 0
M  V30 17028 H 1171.7 6.90173 -0.474152 0
M  V30 17029 H 1170.84 7.66548 -2.79458 0
M  V30 17030 P 1166.87 8.03563 -3.84925 0
M  V30 17031 O 1166.65 8.85821 -5.0569 0
M  V30 17032 O 1166.08 8.41101 -2.65469 0
M  V30 17033 O 1166.62 6.4965 -4.18908 0
M  V30 17034 C 1167.56 5.81037 -5.05421 0
M  V30 17035 C 1166.83 4.78366 -5.89277 0
M  V30 17036 O 1166.62 3.58302 -5.08433 0
M  V30 17037 C 1165.43 5.17448 -6.36119 0
M  V30 17038 O 1165.04 4.45271 -7.53232 0
M  V30 17039 C 1164.55 4.74639 -5.19936 0
M  V30 17040 C 1165.26 3.49432 -4.70418 0
M  V30 17041 N 1165.21 3.31776 -3.22945 0
M  V30 17042 H 1168.05 6.54213 -5.71376 0
M  V30 17043 H 1168.32 5.30492 -4.44033 0
M  V30 17044 H 1167.46 4.55889 -6.76652 0
M  V30 17045 P 1163.49 4.23843 -7.83734 0
M  V30 17046 O 1163.27 4.19407 -9.29784 0
M  V30 17047 O 1162.7 5.24426 -7.09156 0
M  V30 17048 O 1163.24 2.7935 -7.20758 0
M  V30 17049 C 1164.18 1.72945 -7.50224 0
M  V30 17050 C 1163.45 0.406376 -7.57911 0
M  V30 17051 O 1163.24 -0.0897726 -6.21935 0
M  V30 17052 C 1162.05 0.438983 -8.18724 0
M  V30 17053 O 1161.66 -0.825065 -8.71101 0
M  V30 17054 C 1161.17 0.783689 -6.99524 0
M  V30 17055 C 1161.88 0.0619086 -5.85867 0
M  V30 17056 N 1161.83 0.78573 -4.56183 0
M  V30 17057 C 1161.68 0.0292889 -3.41887 0
M  V30 17058 O 1161.59 -1.18445 -3.4419 0
M  V30 17059 N 1161.64 0.744061 -2.23964 0
M  V30 17060 C 1161.73 2.10932 -2.10362 0
M  V30 17061 C 1161.88 2.8202 -3.34994 0
M  V30 17062 C 1161.93 2.15547 -4.52261 0
M  V30 17063 H 1164.67 1.93379 -8.46595 0
M  V30 17064 H 1164.94 1.68132 -6.70852 0
M  V30 17065 H 1164.08 -0.289041 -8.15388 0
M  V30 17066 H 1161.42 -0.926847 -5.72749 0
M  V30 17067 H 1161.14 1.86973 -6.82036 0
M  V30 17068 H 1160.15 0.403896 -7.13257 0
M  V30 17069 H 1161.98 1.20585 -8.97435 0
M  V30 17070 H 1162.06 2.71231 -5.45042 0
M  V30 17071 P 1160.11 -1.17771 -8.83182 0
M  V30 17072 O 1159.89 -2.07206 -9.98732 0
M  V30 17073 O 1159.32 0.0743816 -8.81969 0
M  V30 17074 O 1159.86 -1.97652 -7.47304 0
M  V30 17075 C 1160.8 -3.01133 -7.08783 0
M  V30 17076 C 1160.07 -4.12613 -6.37049 0
M  V30 17077 O 1159.86 -3.72827 -4.97879 0
M  V30 17078 C 1158.67 -4.45085 -6.88694 0
M  V30 17079 O 1158.28 -5.7877 -6.5624 0
M  V30 17080 C 1157.79 -3.47817 -6.12078 0
M  V30 17081 C 1158.5 -3.39414 -4.77697 0
M  V30 17082 N 1158.45 -2.04615 -4.15333 0
M  V30 17083 H 1161.29 -3.41248 -7.98759 0
M  V30 17084 H 1161.56 -2.5837 -6.41742 0
M  V30 17085 H 1160.7 -5.02657 -6.42673 0
M  V30 17086 P 1156.73 -6.144 -6.45285 0
M  V30 17087 O 1156.51 -7.54673 -6.86199 0
M  V30 17088 O 1155.94 -5.12391 -7.179 0
M  V30 17089 O 1156.48 -5.99158 -4.88404 0
M  V30 17090 C 1157.42 -6.60234 -3.96415 0
M  V30 17091 C 1156.69 -7.08259 -2.72856 0
M  V30 17092 O 1156.48 -5.9427 -1.83651 0
M  V30 17093 C 1155.29 -7.64886 -2.9555 0
M  V30 17094 O 1154.9 -8.53963 -1.90717 0
M  V30 17095 C 1154.41 -6.4116 -2.90739 0
M  V30 17096 C 1155.12 -5.55375 -1.86963 0
M  V30 17097 N 1155.07 -4.09448 -2.16152 0
M  V30 17098 H 1157.91 -7.45574 -4.45629 0
M  V30 17099 H 1158.18 -5.85864 -3.679 0
M  V30 17100 H 1157.32 -7.84412 -2.24479 0
M  V30 17101 H 1154.66 -5.73457 -0.888562 0
M  V30 17102 H 1154.38 -5.90877 -3.88583 0
M  V30 17103 H 1153.39 -6.6596 -2.58858 0
M  V30 17104 H 1155.22 -8.16339 -3.92049 0
M  V30 17105 P 1153.35 -8.7635 -1.60911 0
M  V30 17106 O 1153.13 -10.1388 -1.11561 0
M  V30 17107 O 1152.56 -8.36503 -2.79617 0
M  V30 17108 O 1153.1 -7.71806 -0.42951 0
M  V30 17109 C 1154.04 -7.67148 0.673689 0
M  V30 17110 C 1153.31 -7.33374 1.95559 0
M  V30 17111 O 1153.1 -5.88721 2.00726 0
M  V30 17112 C 1151.91 -7.92526 2.10483 0
M  V30 17113 O 1151.52 -8.02971 3.47653 0
M  V30 17114 C 1151.03 -6.89602 1.41652 0
M  V30 17115 C 1151.74 -5.59201 1.75185 0
M  V30 17116 N 1151.69 -4.58235 0.662552 0
M  V30 17117 C 1151.77 -4.7683 -0.704049 0
M  V30 17118 N 1151.69 -3.66233 -1.39775 0
M  V30 17119 C 1151.55 -2.66526 -0.431739 0
M  V30 17120 C 1151.42 -1.26394 -0.575992 0
M  V30 17121 O 1151.4 -0.589894 -1.60503 0
M  V30 17122 N 1151.3 -0.62859 0.67177 0
M  V30 17123 C 1151.3 -1.27134 1.89385 0
M  V30 17124 N 1151.17 -0.492035 2.96951 0
M  V30 17125 N 1151.43 -2.58978 2.02907 0
M  V30 17126 C 1151.55 -3.22433 0.832218 0
M  V30 17127 H 1154.53 -8.65116 0.777161 0
M  V30 17128 H 1154.8 -6.90173 0.474152 0
M  V30 17129 H 1153.94 -7.66548 2.79458 0
M  V30 17130 H 1151.28 -5.16254 2.65229 0
M  V30 17131 H 1151 -7.06532 0.329431 0
M  V30 17132 H 1150.01 -6.91023 1.82047 0
M  V30 17133 H 1151.84 -8.90971 1.62675 0
M  V30 17134 H 1151.89 -5.74954 -1.16305 0
M  V30 17135 H 1151.21 0.366713 0.674793 0
M  V30 17136 H 1151.17 -0.908532 3.91188 0
M  V30 17137 H 1151.07 0.528253 2.85758 0
M  V30 17138 P 1149.97 -8.03563 3.84925 0
M  V30 17139 O 1149.75 -8.85821 5.0569 0
M  V30 17140 O 1149.18 -8.41101 2.65469 0
M  V30 17141 O 1149.72 -6.4965 4.18908 0
M  V30 17142 C 1150.66 -5.81037 5.05421 0
M  V30 17143 C 1149.93 -4.78366 5.89277 0
M  V30 17144 O 1149.72 -3.58302 5.08433 0
M  V30 17145 C 1148.53 -5.17448 6.36119 0
M  V30 17146 O 1148.14 -4.45271 7.53232 0
M  V30 17147 C 1147.65 -4.74639 5.19936 0
M  V30 17148 C 1148.36 -3.49432 4.70418 0
M  V30 17149 N 1148.31 -3.31776 3.22945 0
M  V30 17150 C 1148.39 -4.27147 2.23315 0
M  V30 17151 N 1148.31 -3.78447 1.02186 0
M  V30 17152 C 1148.17 -2.41001 1.21732 0
M  V30 17153 C 1148.04 -1.36111 0.27694 0
M  V30 17154 O 1148.02 -1.42065 -0.951767 0
M  V30 17155 N 1147.92 -0.113683 0.912949 0
M  V30 17156 C 1147.92 0.0846396 2.27943 0
M  V30 17157 N 1147.79 1.34737 2.6916 0
M  V30 17158 N 1148.05 -0.902521 3.16379 0
M  V30 17159 C 1148.17 -2.11937 2.56849 0
M  V30 17160 H 1151.15 -6.54213 5.71376 0
M  V30 17161 H 1151.42 -5.30492 4.44033 0
M  V30 17162 H 1150.56 -4.55889 6.76652 0
M  V30 17163 H 1147.9 -2.6176 5.18021 0
M  V30 17164 H 1147.62 -5.52233 4.41941 0
M  V30 17165 H 1146.63 -4.52045 5.53452 0
M  V30 17166 H 1148.46 -6.25193 6.55307 0
M  V30 17167 H 1148.51 -5.3351 2.43857 0
M  V30 17168 H 1147.83 0.69331 0.330371 0
M  V30 17169 H 1147.79 1.56433 3.6988 0
M  V30 17170 H 1147.69 2.10701 2.00133 0
M  V30 17171 P 1146.59 -4.23843 7.83734 0
M  V30 17172 O 1146.37 -4.19407 9.29784 0
M  V30 17173 O 1145.8 -5.24426 7.09156 0
M  V30 17174 O 1146.34 -2.79386 7.20852 0
M  V30 17175 C 1147.28 -1.7299 7.50419 0
M  V30 17176 C 1146.55 -0.41401 7.5797 0
M  V30 17177 O 1146.34 0.089787 6.22035 0
M  V30 17178 C 1145.15 -0.447224 8.1878 0
M  V30 17179 O 1144.76 0.825159 8.71201 0
M  V30 17180 C 1144.27 -0.783801 6.99623 0
M  V30 17181 C 1144.98 -0.0619192 5.85967 0
M  V30 17182 N 1144.93 -0.7859 4.56281 0
M  V30 17183 C 1144.78 -0.0359258 3.39981 0
M  V30 17184 O 1144.69 1.19723 3.49038 0
M  V30 17185 N 1144.73 -0.869151 2.14025 0
M  V30 17186 C 1144.83 -2.01207 2.14363 0
M  V30 17187 N 1144.78 -2.58978 0.954287 0
M  V30 17188 C 1144.98 -2.80817 3.32215 0
M  V30 17189 C 1145.03 -2.13785 4.50884 0
M  V30 17190 H 1147.77 -1.93401 8.46693 0
M  V30 17191 H 1148.04 -1.68181 6.71046 0
M  V30 17192 H 1147.18 0.289076 8.15488 0
M  V30 17193 H 1144.52 0.927166 5.72947 0
M  V30 17194 H 1144.24 -1.87 6.82132 0
M  V30 17195 H 1143.25 -0.404009 7.13457 0
M  V30 17196 H 1145.08 -1.20599 8.97534 0
M  V30 17197 H 1145.16 -2.70295 5.43162 0
M  V30 17198 H 1145.05 -3.89465 3.27406 0
M  V30 17199 H 1144.67 -2.01616 0.107046 0
M  V30 17200 H 1144.86 -3.61403 0.873101 0
M  V30 17201 P 1143.21 1.17771 8.83182 0
M  V30 17202 O 1142.99 2.07206 9.98732 0
M  V30 17203 O 1142.42 -0.0743816 8.81969 0
M  V30 17204 O 1142.96 1.97652 7.47304 0
M  V30 17205 C 1143.9 3.01133 7.08783 0
M  V30 17206 C 1143.17 4.12613 6.37049 0
M  V30 17207 O 1142.96 3.72827 4.97879 0
M  V30 17208 C 1141.77 4.45085 6.88694 0
M  V30 17209 O 1141.38 5.7877 6.5624 0
M  V30 17210 C 1140.89 3.47817 6.12078 0
M  V30 17211 C 1141.6 3.39414 4.77697 0
M  V30 17212 N 1141.55 2.04615 4.15333 0
M  V30 17213 H 1144.39 3.41248 7.98759 0
M  V30 17214 H 1144.66 2.5837 6.41742 0
M  V30 17215 H 1143.8 5.02657 6.42673 0
M  V30 17216 P 1139.83 6.144 6.45285 0
M  V30 17217 O 1139.61 7.54673 6.86199 0
M  V30 17218 O 1139.04 5.12391 7.179 0
M  V30 17219 O 1139.58 5.99158 4.88404 0
M  V30 17220 C 1140.52 6.60234 3.96415 0
M  V30 17221 C 1139.79 7.08259 2.72856 0
M  V30 17222 O 1139.58 5.9427 1.83651 0
M  V30 17223 C 1138.39 7.64886 2.9555 0
M  V30 17224 O 1138 8.53963 1.90717 0
M  V30 17225 C 1137.51 6.4116 2.90739 0
M  V30 17226 C 1138.22 5.55375 1.86963 0
M  V30 17227 N 1138.17 4.09448 2.16152 0
M  V30 17228 C 1138.25 3.46824 3.37593 0
M  V30 17229 N 1138.18 2.17422 3.29777 0
M  V30 17230 C 1138.03 1.93065 1.94427 0
M  V30 17231 C 1137.9 0.738053 1.20141 0
M  V30 17232 N 1137.89 -0.474256 1.74676 0
M  V30 17233 N 1137.78 0.850049 -0.13045 0
M  V30 17234 C 1137.79 2.06169 -0.676992 0
M  V30 17235 N 1137.91 3.23842 -0.101312 0
M  V30 17236 C 1138.03 3.09402 1.23122 0
M  V30 17237 H 1141.01 7.45574 4.45629 0
M  V30 17238 H 1141.28 5.85864 3.679 0
M  V30 17239 H 1140.42 7.84412 2.24479 0
M  V30 17240 H 1137.76 5.73457 0.888562 0
M  V30 17241 H 1137.48 5.90877 3.88583 0
M  V30 17242 H 1136.49 6.6596 2.58858 0
M  V30 17243 H 1138.32 8.16339 3.92049 0
M  V30 17244 H 1138.37 4.00505 4.3174 0
M  V30 17245 H 1137.98 -0.581337 2.76658 0
M  V30 17246 H 1137.8 -1.30811 1.14888 0
M  V30 17247 H 1137.69 2.08295 -1.75542 0
M  V30 17248 P 1136.45 8.7635 1.60911 0
M  V30 17249 O 1136.23 10.1388 1.11561 0
M  V30 17250 O 1135.66 8.36503 2.79617 0
M  V30 17251 O 1136.2 7.71806 0.42951 0
M  V30 17252 C 1137.14 7.67148 -0.673689 0
M  V30 17253 C 1136.41 7.33374 -1.95559 0
M  V30 17254 O 1136.2 5.88721 -2.00726 0
M  V30 17255 C 1135.01 7.92526 -2.10483 0
M  V30 17256 O 1134.62 8.02971 -3.47653 0
M  V30 17257 C 1134.13 6.89602 -1.41652 0
M  V30 17258 C 1134.84 5.59201 -1.75185 0
M  V30 17259 N 1134.79 4.58301 -0.657969 0
M  V30 17260 H 1137.63 8.65116 -0.777161 0
M  V30 17261 H 1137.9 6.9022 -0.46725 0
M  V30 17262 H 1137.04 7.66548 -2.79458 0
M  V30 17263 H 1134.38 5.16165 -2.65183 0
M  V30 17264 H 1134.1 7.06433 -0.329384 0
M  V30 17265 H 1133.11 6.90926 -1.82021 0
M  V30 17266 H 1134.94 8.90873 -1.62657 0
M  V30 17267 P 1133.07 8.03563 -3.84925 0
M  V30 17268 O 1132.85 8.85821 -5.0569 0
M  V30 17269 O 1132.28 8.41101 -2.65469 0
M  V30 17270 O 1132.82 6.4965 -4.18908 0
M  V30 17271 C 1133.76 5.80886 -5.05289 0
M  V30 17272 C 1133.03 4.78366 -5.89277 0
M  V30 17273 O 1132.82 3.58302 -5.08433 0
M  V30 17274 C 1131.63 5.16748 -6.36559 0
M  V30 17275 O 1131.24 4.45271 -7.53232 0
M  V30 17276 C 1130.75 4.74572 -5.19863 0
M  V30 17277 C 1131.46 3.49373 -4.70338 0
M  V30 17278 N 1131.41 3.31704 -3.22876 0
M  V30 17279 C 1131.26 2.03326 -2.74871 0
M  V30 17280 O 1131.17 1.06486 -3.48076 0
M  V30 17281 N 1131.22 1.91838 -1.37456 0
M  V30 17282 C 1131.31 2.94295 -0.462035 0
M  V30 17283 O 1131.26 2.71763 0.752928 0
M  V30 17284 C 1131.46 4.25064 -1.05249 0
M  V30 17285 C 1131.57 5.39815 -0.095697 0
M  V30 17286 C 1131.51 4.40214 -2.39192 0
M  V30 17287 H 1134.25 6.54063 -5.71245 0
M  V30 17288 H 1134.52 5.30339 -4.43905 0
M  V30 17289 H 1133.66 4.55889 -6.76652 0
M  V30 17290 H 1131 2.6167 -5.17842 0
M  V30 17291 H 1130.72 5.52155 -4.41878 0
M  V30 17292 H 1129.73 4.51918 -5.53297 0
M  V30 17293 H 1131.56 6.25055 -6.55162 0
M  V30 17294 H 1131.64 5.39798 -2.81523 0
M  V30 17295 H 1130.61 5.91593 -0.0279582 0
M  V30 17296 H 1132.34 6.10038 -0.450573 0
M  V30 17297 H 1131.85 5.02007 0.89937 0
M  V30 17298 H 1131.12 0.995326 -1.00435 0
M  V30 17299 P 1129.69 4.23843 -7.83734 0
M  V30 17300 O 1129.47 4.19407 -9.29784 0
M  V30 17301 O 1128.9 5.24426 -7.09156 0
M  V30 17302 O 1129.44 2.7935 -7.20758 0
M  V30 17303 C 1130.38 1.72945 -7.50224 0
M  V30 17304 C 1129.65 0.406376 -7.57911 0
M  V30 17305 O 1129.44 -0.0897726 -6.21935 0
M  V30 17306 C 1128.25 0.438983 -8.18724 0
M  V30 17307 O 1127.86 -0.825065 -8.71101 0
M  V30 17308 C 1127.37 0.783689 -6.99524 0
M  V30 17309 C 1128.08 0.0619086 -5.85867 0
M  V30 17310 N 1128.03 0.78573 -4.56183 0
M  V30 17311 C 1127.88 0.0292889 -3.41887 0
M  V30 17312 O 1127.79 -1.18445 -3.4419 0
M  V30 17313 N 1127.84 0.744061 -2.23964 0
M  V30 17314 C 1127.93 2.10932 -2.10362 0
M  V30 17315 O 1127.88 2.64117 -0.98825 0
M  V30 17316 C 1128.08 2.8202 -3.34994 0
M  V30 17317 C 1128.19 4.31095 -3.25037 0
M  V30 17318 C 1128.13 2.15547 -4.52261 0
M  V30 17319 H 1130.87 1.93379 -8.46595 0
M  V30 17320 H 1131.14 1.68132 -6.70852 0
M  V30 17321 H 1130.28 -0.289041 -8.15388 0
M  V30 17322 H 1127.62 -0.926847 -5.72749 0
M  V30 17323 H 1127.34 1.86973 -6.82036 0
M  V30 17324 H 1126.35 0.403896 -7.13257 0
M  V30 17325 H 1128.18 1.20585 -8.97435 0
M  V30 17326 H 1128.26 2.71231 -5.45042 0
M  V30 17327 H 1127.23 4.76966 -3.49992 0
M  V30 17328 H 1128.96 4.67047 -3.95024 0
M  V30 17329 H 1128.47 4.58996 -2.22312 0
M  V30 17330 H 1127.74 0.214893 -1.39758 0
M  V30 17331 P 1126.31 -1.17771 -8.83182 0
M  V30 17332 O 1126.09 -2.07206 -9.98732 0
M  V30 17333 O 1125.52 0.0743816 -8.81969 0
M  V30 17334 O 1126.06 -1.97652 -7.47304 0
M  V30 17335 C 1127 -3.01133 -7.08783 0
M  V30 17336 C 1126.27 -4.12613 -6.37049 0
M  V30 17337 O 1126.06 -3.72827 -4.97879 0
M  V30 17338 C 1124.87 -4.45085 -6.88694 0
M  V30 17339 O 1124.48 -5.7877 -6.5624 0
M  V30 17340 C 1123.99 -3.47817 -6.12078 0
M  V30 17341 C 1124.7 -3.39414 -4.77697 0
M  V30 17342 N 1124.65 -2.04615 -4.15333 0
M  V30 17343 H 1127.49 -3.41248 -7.98759 0
M  V30 17344 H 1127.76 -2.5837 -6.41742 0
M  V30 17345 H 1126.9 -5.02657 -6.42673 0
M  V30 17346 P 1122.93 -6.144 -6.45285 0
M  V30 17347 O 1122.71 -7.54673 -6.86199 0
M  V30 17348 O 1122.14 -5.12391 -7.179 0
M  V30 17349 O 1122.68 -5.99236 -4.88467 0
M  V30 17350 C 1123.62 -6.60234 -3.96415 0
M  V30 17351 C 1122.89 -7.08079 -2.736 0
M  V30 17352 O 1122.68 -5.94365 -1.8368 0
M  V30 17353 C 1121.49 -7.64886 -2.9555 0
M  V30 17354 O 1121.1 -8.5406 -1.90739 0
M  V30 17355 C 1120.61 -6.4116 -2.90739 0
M  V30 17356 C 1121.32 -5.55375 -1.86963 0
M  V30 17357 N 1121.27 -4.09664 -2.15742 0
M  V30 17358 C 1121.12 -3.22231 -1.08477 0
M  V30 17359 O 1121.03 -3.68951 0.0600489 0
M  V30 17360 N 1121.07 -1.76692 -1.48799 0
M  V30 17361 C 1121.17 -1.41695 -2.57602 0
M  V30 17362 N 1121.12 -0.107296 -2.75791 0
M  V30 17363 C 1121.32 -2.29178 -3.69733 0
M  V30 17364 C 1121.37 -3.62753 -3.42653 0
M  V30 17365 H 1124.11 -7.45488 -4.45578 0
M  V30 17366 H 1124.38 -5.86232 -3.67314 0
M  V30 17367 H 1123.52 -7.84508 -2.24507 0
M  V30 17368 H 1120.86 -5.73556 -0.888715 0
M  V30 17369 H 1120.58 -5.9096 -3.88638 0
M  V30 17370 H 1119.59 -6.66053 -2.58894 0
M  V30 17371 H 1121.42 -8.16339 -3.92049 0
M  V30 17372 H 1121.5 -4.33052 -4.24913 0
M  V30 17373 H 1121.39 -1.9103 -4.71577 0
M  V30 17374 H 1121.01 0.521221 -1.95056 0
M  V30 17375 H 1121.2 0.286429 -3.70695 0
M  V30 17376 P 1119.55 -8.7635 -1.60911 0
M  V30 17377 O 1119.33 -10.1388 -1.11561 0
M  V30 17378 O 1118.76 -8.36503 -2.79617 0
M  V30 17379 O 1119.3 -7.71806 -0.42951 0
M  V30 17380 C 1120.24 -7.67148 0.673689 0
M  V30 17381 C 1119.51 -7.33374 1.95559 0
M  V30 17382 O 1119.3 -5.88721 2.00726 0
M  V30 17383 C 1118.11 -7.92526 2.10483 0
M  V30 17384 O 1117.72 -8.02971 3.47653 0
M  V30 17385 C 1117.23 -6.89602 1.41652 0
M  V30 17386 C 1117.94 -5.59201 1.75185 0
M  V30 17387 N 1117.89 -4.58301 0.657969 0
M  V30 17388 H 1120.73 -8.65116 0.777161 0
M  V30 17389 H 1121 -6.9022 0.46725 0
M  V30 17390 H 1120.14 -7.66548 2.79458 0
M  V30 17391 H 1117.48 -5.16165 2.65183 0
M  V30 17392 H 1117.2 -7.06433 0.329384 0
M  V30 17393 H 1116.21 -6.90926 1.82021 0
M  V30 17394 H 1118.04 -8.90873 1.62657 0
M  V30 17395 P 1116.17 -8.03563 3.84925 0
M  V30 17396 O 1115.95 -8.85821 5.0569 0
M  V30 17397 O 1115.38 -8.41101 2.65469 0
M  V30 17398 O 1115.92 -6.4965 4.18908 0
M  V30 17399 C 1116.86 -5.81037 5.05421 0
M  V30 17400 C 1116.13 -4.78366 5.89277 0
M  V30 17401 O 1115.92 -3.58302 5.08433 0
M  V30 17402 C 1114.73 -5.17448 6.36119 0
M  V30 17403 O 1114.34 -4.45271 7.53232 0
M  V30 17404 C 1113.85 -4.74639 5.19936 0
M  V30 17405 C 1114.56 -3.49432 4.70418 0
M  V30 17406 N 1114.51 -3.31776 3.22945 0
M  V30 17407 H 1117.35 -6.54213 5.71376 0
M  V30 17408 H 1117.62 -5.30492 4.44033 0
M  V30 17409 H 1116.76 -4.55889 6.76652 0
M  V30 17410 P 1112.79 -4.23843 7.83734 0
M  V30 17411 O 1112.57 -4.19407 9.29784 0
M  V30 17412 O 1112 -5.24426 7.09156 0
M  V30 17413 O 1112.54 -2.7935 7.20758 0
M  V30 17414 C 1113.48 -1.7299 7.50419 0
M  V30 17415 C 1112.75 -0.406376 7.57911 0
M  V30 17416 O 1112.54 0.0897726 6.21935 0
M  V30 17417 C 1111.35 -0.447224 8.1878 0
M  V30 17418 O 1110.96 0.825065 8.71101 0
M  V30 17419 C 1110.47 -0.783801 6.99623 0
M  V30 17420 C 1111.18 -0.0619192 5.85967 0
M  V30 17421 N 1111.13 -0.790462 4.56202 0
M  V30 17422 H 1113.97 -1.93423 8.4679 0
M  V30 17423 H 1114.24 -1.68852 6.70877 0
M  V30 17424 H 1113.38 0.289041 8.15388 0
M  V30 17425 H 1110.72 0.927006 5.72848 0
M  V30 17426 H 1110.44 -1.86973 6.82036 0
M  V30 17427 H 1109.45 -0.403953 7.13357 0
M  V30 17428 H 1111.28 -1.20599 8.97534 0
M  V30 17429 P 1109.41 1.17771 8.83182 0
M  V30 17430 O 1109.19 2.07206 9.98732 0
M  V30 17431 O 1108.62 -0.0743816 8.81969 0
M  V30 17432 O 1109.16 1.97652 7.47304 0
M  V30 17433 C 1110.1 3.01133 7.08783 0
M  V30 17434 C 1109.37 4.12613 6.37049 0
M  V30 17435 O 1109.16 3.72827 4.97879 0
M  V30 17436 C 1107.97 4.45085 6.88694 0
M  V30 17437 O 1107.58 5.7877 6.5624 0
M  V30 17438 C 1107.09 3.47817 6.12078 0
M  V30 17439 C 1107.8 3.39414 4.77697 0
M  V30 17440 N 1107.75 2.04615 4.15333 0
M  V30 17441 H 1110.59 3.41248 7.98759 0
M  V30 17442 H 1110.86 2.5837 6.41742 0
M  V30 17443 H 1110 5.02657 6.42673 0
M  V30 17444 P 1106.03 6.144 6.45285 0
M  V30 17445 O 1105.81 7.54673 6.86199 0
M  V30 17446 O 1105.24 5.12391 7.179 0
M  V30 17447 O 1105.78 5.99158 4.88404 0
M  V30 17448 C 1106.72 6.60234 3.96415 0
M  V30 17449 C 1105.99 7.08259 2.72856 0
M  V30 17450 O 1105.78 5.9427 1.83651 0
M  V30 17451 C 1104.59 7.64886 2.9555 0
M  V30 17452 O 1104.2 8.53963 1.90717 0
M  V30 17453 C 1103.71 6.4116 2.90739 0
M  V30 17454 C 1104.42 5.55375 1.86963 0
M  V30 17455 N 1104.37 4.09664 2.15742 0
M  V30 17456 H 1107.21 7.45574 4.45629 0
M  V30 17457 H 1107.48 5.86232 3.67314 0
M  V30 17458 H 1106.62 7.84412 2.24479 0
M  V30 17459 P 1102.65 8.7635 1.60911 0
M  V30 17460 O 1102.43 10.1388 1.11561 0
M  V30 17461 O 1101.86 8.36503 2.79617 0
M  V30 17462 O 1102.4 7.71906 0.429565 0
M  V30 17463 C 1103.34 7.67148 -0.673689 0
M  V30 17464 C 1102.61 7.33666 -1.94851 0
M  V30 17465 O 1102.4 5.88816 -2.00759 0
M  V30 17466 C 1101.21 7.92526 -2.10483 0
M  V30 17467 O 1100.82 8.03063 -3.47693 0
M  V30 17468 C 1100.33 6.89602 -1.41652 0
M  V30 17469 C 1101.04 5.59201 -1.75185 0
M  V30 17470 N 1100.99 4.58235 -0.662552 0
M  V30 17471 C 1100.84 3.24451 -1.01643 0
M  V30 17472 O 1100.75 2.94958 -2.21722 0
M  V30 17473 N 1100.79 2.30408 0.165238 0
M  V30 17474 C 1100.89 2.66048 1.25118 0
M  V30 17475 N 1100.84 1.70787 2.16813 0
M  V30 17476 C 1101.04 4.02732 1.64413 0
M  V30 17477 C 1101.09 4.9488 0.63991 0
M  V30 17478 H 1103.83 8.65017 -0.777072 0
M  V30 17479 H 1104.1 6.90173 -0.474152 0
M  V30 17480 H 1103.24 7.66642 -2.79492 0
M  V30 17481 H 1100.58 5.16254 -2.65229 0
M  V30 17482 H 1100.3 7.06532 -0.329431 0
M  V30 17483 H 1099.31 6.91023 -1.82047 0
M  V30 17484 H 1101.14 8.90873 -1.62657 0
M  V30 17485 H 1101.22 6.00104 0.892197 0
M  V30 17486 H 1101.11 4.31733 2.69229 0
M  V30 17487 H 1100.73 0.724835 1.8844 0
M  V30 17488 H 1100.92 1.94716 3.16734 0
M  V30 17489 P 1099.27 8.03563 -3.84925 0
M  V30 17490 O 1099.05 8.85821 -5.0569 0
M  V30 17491 O 1098.48 8.41101 -2.65469 0
M  V30 17492 O 1099.02 6.4965 -4.18908 0
M  V30 17493 C 1099.96 5.80886 -5.05289 0
M  V30 17494 C 1099.23 4.78366 -5.89277 0
M  V30 17495 O 1099.02 3.58302 -5.08433 0
M  V30 17496 C 1097.83 5.16748 -6.36559 0
M  V30 17497 O 1097.44 4.45271 -7.53232 0
M  V30 17498 C 1096.95 4.74572 -5.19863 0
M  V30 17499 C 1097.66 3.49373 -4.70338 0
M  V30 17500 N 1097.61 3.31704 -3.22876 0
M  V30 17501 C 1097.46 2.03326 -2.74871 0
M  V30 17502 O 1097.37 1.06486 -3.48076 0
M  V30 17503 N 1097.42 1.91838 -1.37456 0
M  V30 17504 C 1097.51 2.94295 -0.462035 0
M  V30 17505 O 1097.46 2.71763 0.752928 0
M  V30 17506 C 1097.66 4.25064 -1.05249 0
M  V30 17507 C 1097.77 5.39815 -0.095697 0
M  V30 17508 C 1097.71 4.40214 -2.39192 0
M  V30 17509 H 1100.45 6.54063 -5.71245 0
M  V30 17510 H 1100.72 5.30339 -4.43905 0
M  V30 17511 H 1099.86 4.55889 -6.76652 0
M  V30 17512 H 1097.2 2.6167 -5.17842 0
M  V30 17513 H 1096.92 5.52155 -4.41878 0
M  V30 17514 H 1095.93 4.51918 -5.53297 0
M  V30 17515 H 1097.76 6.25055 -6.55162 0
M  V30 17516 H 1097.84 5.39798 -2.81523 0
M  V30 17517 H 1096.81 5.91593 -0.0279582 0
M  V30 17518 H 1098.54 6.10038 -0.450573 0
M  V30 17519 H 1098.05 5.02007 0.89937 0
M  V30 17520 H 1097.32 0.995326 -1.00435 0
M  V30 17521 P 1095.89 4.23843 -7.83734 0
M  V30 17522 O 1095.67 4.19407 -9.29784 0
M  V30 17523 O 1095.1 5.24426 -7.09156 0
M  V30 17524 O 1095.64 2.7935 -7.20758 0
M  V30 17525 C 1096.58 1.72945 -7.50224 0
M  V30 17526 C 1095.85 0.406376 -7.57911 0
M  V30 17527 O 1095.64 -0.0897726 -6.21935 0
M  V30 17528 C 1094.45 0.438983 -8.18724 0
M  V30 17529 O 1094.06 -0.825065 -8.71101 0
M  V30 17530 C 1093.57 0.783689 -6.99524 0
M  V30 17531 C 1094.28 0.0619086 -5.85867 0
M  V30 17532 N 1094.23 0.78573 -4.56183 0
M  V30 17533 C 1094.08 0.0292889 -3.41887 0
M  V30 17534 O 1093.99 -1.18445 -3.4419 0
M  V30 17535 N 1094.04 0.744061 -2.23964 0
M  V30 17536 C 1094.13 2.10932 -2.10362 0
M  V30 17537 C 1094.28 2.8202 -3.34994 0
M  V30 17538 C 1094.33 2.15547 -4.52261 0
M  V30 17539 H 1097.07 1.93379 -8.46595 0
M  V30 17540 H 1097.34 1.68132 -6.70852 0
M  V30 17541 H 1096.48 -0.289041 -8.15388 0
M  V30 17542 H 1093.82 -0.926847 -5.72749 0
M  V30 17543 H 1093.54 1.86973 -6.82036 0
M  V30 17544 H 1092.55 0.403896 -7.13257 0
M  V30 17545 H 1094.38 1.20585 -8.97435 0
M  V30 17546 H 1094.46 2.71231 -5.45042 0
M  V30 17547 P 1092.51 -1.17771 -8.83182 0
M  V30 17548 O 1092.29 -2.07206 -9.98732 0
M  V30 17549 O 1091.72 0.0743816 -8.81969 0
M  V30 17550 O 1092.26 -1.97652 -7.47304 0
M  V30 17551 C 1093.2 -3.01133 -7.08783 0
M  V30 17552 C 1092.47 -4.12613 -6.37049 0
M  V30 17553 O 1092.26 -3.72827 -4.97879 0
M  V30 17554 C 1091.07 -4.45085 -6.88694 0
M  V30 17555 O 1090.68 -5.7877 -6.5624 0
M  V30 17556 C 1090.19 -3.47817 -6.12078 0
M  V30 17557 C 1090.9 -3.39414 -4.77697 0
M  V30 17558 N 1090.85 -2.04615 -4.15333 0
M  V30 17559 H 1093.69 -3.41248 -7.98759 0
M  V30 17560 H 1093.96 -2.5837 -6.41742 0
M  V30 17561 H 1093.1 -5.02657 -6.42673 0
M  V30 17562 P 1089.13 -6.144 -6.45285 0
M  V30 17563 O 1088.91 -7.54673 -6.86199 0
M  V30 17564 O 1088.34 -5.12391 -7.179 0
M  V30 17565 O 1088.88 -5.99158 -4.88404 0
M  V30 17566 C 1089.82 -6.60062 -3.96313 0
M  V30 17567 C 1089.09 -7.08259 -2.72856 0
M  V30 17568 O 1088.88 -5.9427 -1.83651 0
M  V30 17569 C 1087.69 -7.65087 -2.94749 0
M  V30 17570 O 1087.3 -8.53963 -1.90717 0
M  V30 17571 C 1086.81 -6.41069 -2.90698 0
M  V30 17572 C 1087.52 -5.5528 -1.86931 0
M  V30 17573 N 1087.47 -4.09575 -2.15696 0
M  V30 17574 C 1087.32 -3.24249 -1.08435 0
M  V30 17575 O 1087.23 -3.63946 0.0628747 0
M  V30 17576 N 1087.28 -1.90009 -1.39973 0
M  V30 17577 C 1087.37 -1.34884 -2.65614 0
M  V30 17578 O 1087.32 -0.123716 -2.81728 0
M  V30 17579 C 1087.52 -2.3145 -3.71736 0
M  V30 17580 C 1087.63 -1.75913 -5.10438 0
M  V30 17581 C 1087.57 -3.63518 -3.44754 0
M  V30 17582 H 1090.31 -7.45402 -4.45526 0
M  V30 17583 H 1090.58 -5.86062 -3.67208 0
M  V30 17584 H 1089.72 -7.84412 -2.24479 0
M  V30 17585 H 1087.06 -5.73358 -0.888409 0
M  V30 17586 H 1086.78 -5.90877 -3.88583 0
M  V30 17587 H 1085.79 -6.65867 -2.58821 0
M  V30 17588 H 1087.62 -8.16248 -3.92006 0
M  V30 17589 H 1087.7 -4.34551 -4.26383 0
M  V30 17590 H 1086.67 -1.85471 -5.61775 0
M  V30 17591 H 1088.4 -2.31364 -5.66257 0
M  V30 17592 H 1087.91 -0.695936 -5.05229 0
M  V30 17593 H 1087.18 -1.26277 -0.63625 0
M  V30 17594 P 1085.75 -8.7635 -1.60911 0
M  V30 17595 O 1085.53 -10.1388 -1.11561 0
M  V30 17596 O 1084.96 -8.36503 -2.79617 0
M  V30 17597 O 1085.5 -7.71806 -0.42951 0
M  V30 17598 C 1086.44 -7.67148 0.673689 0
M  V30 17599 C 1085.71 -7.33374 1.95559 0
M  V30 17600 O 1085.5 -5.88721 2.00726 0
M  V30 17601 C 1084.31 -7.92526 2.10483 0
M  V30 17602 O 1083.92 -8.02971 3.47653 0
M  V30 17603 C 1083.43 -6.89602 1.41652 0
M  V30 17604 C 1084.14 -5.59201 1.75185 0
M  V30 17605 N 1084.09 -4.58235 0.662552 0
M  V30 17606 H 1086.93 -8.65116 0.777161 0
M  V30 17607 H 1087.2 -6.90173 0.474152 0
M  V30 17608 H 1086.34 -7.66548 2.79458 0
M  V30 17609 P 1082.37 -8.03563 3.84925 0
M  V30 17610 O 1082.15 -8.85821 5.0569 0
M  V30 17611 O 1081.58 -8.41101 2.65469 0
M  V30 17612 O 1082.12 -6.4965 4.18908 0
M  V30 17613 C 1083.06 -5.81037 5.05421 0
M  V30 17614 C 1082.33 -4.78366 5.89277 0
M  V30 17615 O 1082.12 -3.58302 5.08433 0
M  V30 17616 C 1080.93 -5.17448 6.36119 0
M  V30 17617 O 1080.54 -4.45271 7.53232 0
M  V30 17618 C 1080.05 -4.74639 5.19936 0
M  V30 17619 C 1080.76 -3.49432 4.70418 0
M  V30 17620 N 1080.71 -3.32099 3.22613 0
M  V30 17621 H 1083.55 -6.54213 5.71376 0
M  V30 17622 H 1083.82 -5.30936 4.43503 0
M  V30 17623 H 1082.96 -4.55889 6.76652 0
M  V30 17624 H 1080.3 -2.61715 5.17932 0
M  V30 17625 H 1080.02 -5.52155 4.41878 0
M  V30 17626 H 1079.03 -4.51981 5.53374 0
M  V30 17627 H 1080.86 -6.25124 6.55234 0
M  V30 17628 P 1078.99 -4.23843 7.83734 0
M  V30 17629 O 1078.77 -4.19407 9.29784 0
M  V30 17630 O 1078.2 -5.24426 7.09156 0
M  V30 17631 O 1078.74 -2.7935 7.20758 0
M  V30 17632 C 1079.68 -1.7299 7.50419 0
M  V30 17633 C 1078.95 -0.406376 7.57911 0
M  V30 17634 O 1078.74 0.0897726 6.21935 0
M  V30 17635 C 1077.55 -0.447224 8.1878 0
M  V30 17636 O 1077.16 0.825065 8.71101 0
M  V30 17637 C 1076.67 -0.783801 6.99623 0
M  V30 17638 C 1077.38 -0.0619192 5.85967 0
M  V30 17639 N 1077.33 -0.790462 4.56202 0
M  V30 17640 H 1080.17 -1.93423 8.4679 0
M  V30 17641 H 1080.44 -1.68852 6.70877 0
M  V30 17642 H 1079.58 0.289041 8.15388 0
M  V30 17643 H 1076.92 0.927006 5.72848 0
M  V30 17644 H 1076.64 -1.86973 6.82036 0
M  V30 17645 H 1075.65 -0.403953 7.13357 0
M  V30 17646 H 1077.48 -1.20599 8.97534 0
M  V30 17647 P 1075.61 1.17771 8.83182 0
M  V30 17648 O 1075.39 2.07206 9.98732 0
M  V30 17649 O 1074.82 -0.0743816 8.81969 0
M  V30 17650 O 1075.36 1.97652 7.47304 0
M  V30 17651 C 1076.3 3.01133 7.08783 0
M  V30 17652 C 1075.57 4.12613 6.37049 0
M  V30 17653 O 1075.36 3.72827 4.97879 0
M  V30 17654 C 1074.17 4.45085 6.88694 0
M  V30 17655 O 1073.78 5.7877 6.5624 0
M  V30 17656 C 1073.29 3.47817 6.12078 0
M  V30 17657 C 1074 3.39414 4.77697 0
M  V30 17658 N 1073.95 2.04615 4.15333 0
M  V30 17659 H 1076.79 3.41248 7.98759 0
M  V30 17660 H 1077.06 2.5837 6.41742 0
M  V30 17661 H 1076.2 5.02657 6.42673 0
M  V30 17662 P 1072.23 6.144 6.45285 0
M  V30 17663 O 1072.01 7.54673 6.86199 0
M  V30 17664 O 1071.44 5.12391 7.179 0
M  V30 17665 O 1071.98 5.99158 4.88404 0
M  V30 17666 C 1072.92 6.60234 3.96415 0
M  V30 17667 C 1072.19 7.08259 2.72856 0
M  V30 17668 O 1071.98 5.9427 1.83651 0
M  V30 17669 C 1070.79 7.64886 2.9555 0
M  V30 17670 O 1070.4 8.53963 1.90717 0
M  V30 17671 C 1069.91 6.4116 2.90739 0
M  V30 17672 C 1070.62 5.55375 1.86963 0
M  V30 17673 N 1070.57 4.09664 2.15742 0
M  V30 17674 H 1073.41 7.45574 4.45629 0
M  V30 17675 H 1073.68 5.86232 3.67314 0
M  V30 17676 H 1072.82 7.84412 2.24479 0
M  V30 17677 P 1068.85 8.7635 1.60911 0
M  V30 17678 O 1068.63 10.1388 1.11561 0
M  V30 17679 O 1068.06 8.36503 2.79617 0
M  V30 17680 O 1068.6 7.71806 0.42951 0
M  V30 17681 C 1069.54 7.67148 -0.673689 0
M  V30 17682 C 1068.81 7.33374 -1.95559 0
M  V30 17683 O 1068.6 5.88721 -2.00726 0
M  V30 17684 C 1067.41 7.92526 -2.10483 0
M  V30 17685 O 1067.02 8.02971 -3.47653 0
M  V30 17686 C 1066.53 6.89602 -1.41652 0
M  V30 17687 C 1067.24 5.59201 -1.75185 0
M  V30 17688 N 1067.19 4.58235 -0.662552 0
M  V30 17689 C 1067.27 4.7683 0.704049 0
M  V30 17690 N 1067.19 3.66233 1.39775 0
M  V30 17691 C 1067.05 2.66526 0.431739 0
M  V30 17692 C 1066.92 1.26394 0.575992 0
M  V30 17693 N 1066.8 0.62859 -0.67177 0
M  V30 17694 C 1066.8 1.27134 -1.89385 0
M  V30 17695 N 1066.67 0.492035 -2.96951 0
M  V30 17696 N 1066.93 2.58978 -2.02907 0
M  V30 17697 C 1067.05 3.22433 -0.832218 0
M  V30 17698 H 1070.03 8.65116 -0.777161 0
M  V30 17699 H 1070.3 6.90173 -0.474152 0
M  V30 17700 H 1069.44 7.66548 -2.79458 0
M  V30 17701 P 1065.47 8.03563 -3.84925 0
M  V30 17702 O 1065.25 8.85821 -5.0569 0
M  V30 17703 O 1064.68 8.41101 -2.65469 0
M  V30 17704 O 1065.22 6.4965 -4.18908 0
M  V30 17705 C 1066.16 5.81037 -5.05421 0
M  V30 17706 C 1065.43 4.78366 -5.89277 0
M  V30 17707 O 1065.22 3.58302 -5.08433 0
M  V30 17708 C 1064.03 5.17448 -6.36119 0
M  V30 17709 O 1063.64 4.45271 -7.53232 0
M  V30 17710 C 1063.15 4.74639 -5.19936 0
M  V30 17711 C 1063.86 3.49432 -4.70418 0
M  V30 17712 N 1063.81 3.31776 -3.22945 0
M  V30 17713 H 1066.65 6.54213 -5.71376 0
M  V30 17714 H 1066.92 5.30492 -4.44033 0
M  V30 17715 H 1066.06 4.55889 -6.76652 0
M  V30 17716 P 1062.09 4.23843 -7.83734 0
M  V30 17717 O 1061.87 4.19407 -9.29784 0
M  V30 17718 O 1061.3 5.24426 -7.09156 0
M  V30 17719 O 1061.84 2.7935 -7.20758 0
M  V30 17720 C 1062.78 1.72945 -7.50224 0
M  V30 17721 C 1062.05 0.406376 -7.57911 0
M  V30 17722 O 1061.84 -0.0897726 -6.21935 0
M  V30 17723 C 1060.65 0.438983 -8.18724 0
M  V30 17724 O 1060.26 -0.825065 -8.71101 0
M  V30 17725 C 1059.77 0.783689 -6.99524 0
M  V30 17726 C 1060.48 0.0619086 -5.85867 0
M  V30 17727 N 1060.43 0.78573 -4.56183 0
M  V30 17728 C 1060.28 0.0292889 -3.41887 0
M  V30 17729 O 1060.19 -1.18445 -3.4419 0
M  V30 17730 N 1060.24 0.744061 -2.23964 0
M  V30 17731 C 1060.33 2.10932 -2.10362 0
M  V30 17732 O 1060.28 2.64117 -0.98825 0
M  V30 17733 C 1060.48 2.8202 -3.34994 0
M  V30 17734 C 1060.59 4.31095 -3.25037 0
M  V30 17735 C 1060.53 2.15547 -4.52261 0
M  V30 17736 H 1063.27 1.93379 -8.46595 0
M  V30 17737 H 1063.54 1.68132 -6.70852 0
M  V30 17738 H 1062.68 -0.289041 -8.15388 0
M  V30 17739 H 1060.02 -0.926847 -5.72749 0
M  V30 17740 H 1059.74 1.86973 -6.82036 0
M  V30 17741 H 1058.75 0.403896 -7.13257 0
M  V30 17742 H 1060.58 1.20585 -8.97435 0
M  V30 17743 H 1060.66 2.71231 -5.45042 0
M  V30 17744 H 1059.63 4.76966 -3.49992 0
M  V30 17745 H 1061.36 4.67047 -3.95024 0
M  V30 17746 H 1060.87 4.58996 -2.22312 0
M  V30 17747 H 1060.14 0.214893 -1.39758 0
M  V30 17748 P 1058.71 -1.17771 -8.83182 0
M  V30 17749 O 1058.49 -2.07206 -9.98732 0
M  V30 17750 O 1057.92 0.0743816 -8.81969 0
M  V30 17751 O 1058.46 -1.97652 -7.47304 0
M  V30 17752 C 1059.4 -3.01133 -7.08783 0
M  V30 17753 C 1058.67 -4.12613 -6.37049 0
M  V30 17754 O 1058.46 -3.72827 -4.97879 0
M  V30 17755 C 1057.27 -4.45085 -6.88694 0
M  V30 17756 O 1056.88 -5.7877 -6.5624 0
M  V30 17757 C 1056.39 -3.47817 -6.12078 0
M  V30 17758 C 1057.1 -3.39414 -4.77697 0
M  V30 17759 N 1057.05 -2.04615 -4.15333 0
M  V30 17760 H 1059.89 -3.41248 -7.98759 0
M  V30 17761 H 1060.16 -2.5837 -6.41742 0
M  V30 17762 H 1059.3 -5.02657 -6.42673 0
M  V30 17763 P 1055.33 -6.144 -6.45285 0
M  V30 17764 O 1055.11 -7.54673 -6.86199 0
M  V30 17765 O 1054.54 -5.12391 -7.179 0
M  V30 17766 O 1055.08 -5.99158 -4.88404 0
M  V30 17767 C 1056.02 -6.60062 -3.96313 0
M  V30 17768 C 1055.29 -7.08259 -2.72856 0
M  V30 17769 O 1055.08 -5.9427 -1.83651 0
M  V30 17770 C 1053.89 -7.65087 -2.94749 0
M  V30 17771 O 1053.5 -8.53963 -1.90717 0
M  V30 17772 C 1053.01 -6.41069 -2.90698 0
M  V30 17773 C 1053.72 -5.5528 -1.86931 0
M  V30 17774 N 1053.67 -4.09575 -2.15696 0
M  V30 17775 C 1053.52 -3.24249 -1.08435 0
M  V30 17776 O 1053.43 -3.63946 0.0628747 0
M  V30 17777 N 1053.48 -1.90009 -1.39973 0
M  V30 17778 C 1053.57 -1.34884 -2.65614 0
M  V30 17779 O 1053.52 -0.123716 -2.81728 0
M  V30 17780 C 1053.72 -2.3145 -3.71736 0
M  V30 17781 C 1053.83 -1.75913 -5.10438 0
M  V30 17782 C 1053.77 -3.63518 -3.44754 0
M  V30 17783 H 1056.51 -7.45402 -4.45526 0
M  V30 17784 H 1056.78 -5.86062 -3.67208 0
M  V30 17785 H 1055.92 -7.84412 -2.24479 0
M  V30 17786 H 1053.26 -5.73358 -0.888409 0
M  V30 17787 H 1052.98 -5.90877 -3.88583 0
M  V30 17788 H 1051.99 -6.65867 -2.58821 0
M  V30 17789 H 1053.82 -8.16248 -3.92006 0
M  V30 17790 H 1053.9 -4.34551 -4.26383 0
M  V30 17791 H 1052.87 -1.85471 -5.61775 0
M  V30 17792 H 1054.6 -2.31364 -5.66257 0
M  V30 17793 H 1054.11 -0.695936 -5.05229 0
M  V30 17794 H 1053.38 -1.26277 -0.63625 0
M  V30 17795 P 1051.95 -8.7635 -1.60911 0
M  V30 17796 O 1051.73 -10.1388 -1.11561 0
M  V30 17797 O 1051.16 -8.36503 -2.79617 0
M  V30 17798 O 1051.7 -7.71806 -0.42951 0
M  V30 17799 C 1052.64 -7.66948 0.673514 0
M  V30 17800 C 1051.91 -7.33374 1.95559 0
M  V30 17801 O 1051.7 -5.88721 2.00726 0
M  V30 17802 C 1050.51 -7.92218 2.1125 0
M  V30 17803 O 1050.12 -8.02971 3.47653 0
M  V30 17804 C 1049.63 -6.89504 1.41631 0
M  V30 17805 C 1050.34 -5.59106 1.75155 0
M  V30 17806 N 1050.29 -4.58136 0.662409 0
M  V30 17807 C 1050.14 -3.26059 1.02863 0
M  V30 17808 O 1050.05 -2.90743 2.19009 0
M  V30 17809 N 1050.1 -2.35995 -0.0155585 0
M  V30 17810 C 1050.19 -2.65248 -1.35603 0
M  V30 17811 C 1050.34 -4.05747 -1.64698 0
M  V30 17812 C 1050.39 -4.96734 -0.652411 0
M  V30 17813 H 1053.13 -8.64917 0.776982 0
M  V30 17814 H 1053.4 -6.89974 0.474015 0
M  V30 17815 H 1052.54 -7.66548 2.79458 0
M  V30 17816 H 1049.88 -5.16076 2.65138 0
M  V30 17817 H 1049.6 -7.06433 0.329384 0
M  V30 17818 H 1048.61 -6.90829 1.81996 0
M  V30 17819 H 1050.44 -8.90774 1.62639 0
M  V30 17820 H 1050.52 -6.02181 -0.895285 0
M  V30 17821 P 1048.57 -8.03563 3.84925 0
M  V30 17822 O 1048.35 -8.85821 5.0569 0
M  V30 17823 O 1047.78 -8.41101 2.65469 0
M  V30 17824 O 1048.32 -6.4965 4.18908 0
M  V30 17825 C 1049.26 -5.81037 5.05421 0
M  V30 17826 C 1048.53 -4.78366 5.89277 0
M  V30 17827 O 1048.32 -3.58302 5.08433 0
M  V30 17828 C 1047.13 -5.17448 6.36119 0
M  V30 17829 O 1046.74 -4.45271 7.53232 0
M  V30 17830 C 1046.25 -4.74639 5.19936 0
M  V30 17831 C 1046.96 -3.49432 4.70418 0
M  V30 17832 N 1046.91 -3.31776 3.22945 0
M  V30 17833 H 1049.75 -6.54213 5.71376 0
M  V30 17834 H 1050.02 -5.30492 4.44033 0
M  V30 17835 H 1049.16 -4.55889 6.76652 0
M  V30 17836 P 1045.19 -4.23843 7.83734 0
M  V30 17837 O 1044.97 -4.19407 9.29784 0
M  V30 17838 O 1044.4 -5.24426 7.09156 0
M  V30 17839 O 1044.94 -2.7935 7.20758 0
M  V30 17840 C 1045.88 -1.72945 7.50224 0
M  V30 17841 C 1045.15 -0.406376 7.57911 0
M  V30 17842 O 1044.94 0.0897726 6.21935 0
M  V30 17843 C 1043.75 -0.438983 8.18724 0
M  V30 17844 O 1043.36 0.825065 8.71101 0
M  V30 17845 C 1042.87 -0.783689 6.99524 0
M  V30 17846 C 1043.58 -0.0619086 5.85867 0
M  V30 17847 N 1043.53 -0.78573 4.56183 0
M  V30 17848 C 1043.38 -0.0292889 3.41887 0
M  V30 17849 O 1043.29 1.18445 3.4419 0
M  V30 17850 N 1043.34 -0.744061 2.23964 0
M  V30 17851 C 1043.43 -2.10932 2.10362 0
M  V30 17852 C 1043.58 -2.8202 3.34994 0
M  V30 17853 C 1043.63 -2.15547 4.52261 0
M  V30 17854 H 1046.37 -1.93379 8.46595 0
M  V30 17855 H 1046.64 -1.68132 6.70852 0
M  V30 17856 H 1045.78 0.289041 8.15388 0
M  V30 17857 H 1043.12 0.926847 5.72749 0
M  V30 17858 H 1042.84 -1.86973 6.82036 0
M  V30 17859 H 1041.85 -0.403896 7.13257 0
M  V30 17860 H 1043.68 -1.20585 8.97435 0
M  V30 17861 H 1043.76 -2.71231 5.45042 0
M  V30 17862 P 1041.81 1.17771 8.83182 0
M  V30 17863 O 1041.59 2.07206 9.98732 0
M  V30 17864 O 1041.02 -0.0743816 8.81969 0
M  V30 17865 O 1041.56 1.97652 7.47304 0
M  V30 17866 C 1042.5 3.01133 7.08783 0
M  V30 17867 C 1041.77 4.12613 6.37049 0
M  V30 17868 O 1041.56 3.72827 4.97879 0
M  V30 17869 C 1040.37 4.45085 6.88694 0
M  V30 17870 O 1039.98 5.7877 6.5624 0
M  V30 17871 C 1039.49 3.47817 6.12078 0
M  V30 17872 C 1040.2 3.39414 4.77697 0
M  V30 17873 N 1040.15 2.04199 4.15538 0
M  V30 17874 C 1040.23 0.821545 4.76977 0
M  V30 17875 N 1040.16 -0.1794 3.94592 0
M  V30 17876 C 1040.01 0.419121 2.70776 0
M  V30 17877 C 1039.88 -0.109072 1.40577 0
M  V30 17878 N 1039.87 -1.4104 1.1344 0
M  V30 17879 N 1039.76 0.764381 0.39411 0
M  V30 17880 C 1039.77 2.06587 0.664135 0
M  V30 17881 N 1039.89 2.67948 1.82153 0
M  V30 17882 C 1040.01 1.77942 2.8147 0
M  V30 17883 H 1042.99 3.41248 7.98759 0
M  V30 17884 H 1043.26 2.57728 6.42 0
M  V30 17885 H 1042.4 5.02657 6.42673 0
M  V30 17886 H 1039.74 4.11708 4.08956 0
M  V30 17887 H 1039.46 2.49626 6.61679 0
M  V30 17888 H 1038.47 3.8662 6.00862 0
M  V30 17889 H 1040.3 4.29991 7.97006 0
M  V30 17890 H 1040.35 0.702451 5.84696 0
M  V30 17891 H 1039.96 -2.09647 1.89651 0
M  V30 17892 H 1039.78 -1.73358 0.160575 0
M  V30 17893 H 1039.67 2.71695 -0.195838 0
M  V30 17894 P 1038.43 6.144 6.45285 0
M  V30 17895 O 1038.21 7.54673 6.86199 0
M  V30 17896 O 1037.64 5.12391 7.179 0
M  V30 17897 O 1038.18 5.99158 4.88404 0
M  V30 17898 C 1039.12 6.60234 3.96415 0
M  V30 17899 C 1038.39 7.08259 2.72856 0
M  V30 17900 O 1038.18 5.9427 1.83651 0
M  V30 17901 C 1036.99 7.64886 2.9555 0
M  V30 17902 O 1036.6 8.53963 1.90717 0
M  V30 17903 C 1036.11 6.4116 2.90739 0
M  V30 17904 C 1036.82 5.55375 1.86963 0
M  V30 17905 N 1036.77 4.09448 2.16152 0
M  V30 17906 H 1039.61 7.45574 4.45629 0
M  V30 17907 H 1039.88 5.85864 3.679 0
M  V30 17908 H 1039.02 7.84412 2.24479 0
M  V30 17909 H 1036.36 5.73457 0.888562 0
M  V30 17910 H 1036.08 5.90877 3.88583 0
M  V30 17911 H 1035.09 6.6596 2.58858 0
M  V30 17912 H 1036.92 8.16339 3.92049 0
M  V30 17913 P 1035.05 8.7635 1.60911 0
M  V30 17914 O 1034.83 10.1388 1.11561 0
M  V30 17915 O 1034.26 8.36503 2.79617 0
M  V30 17916 O 1034.8 7.71806 0.42951 0
M  V30 17917 C 1035.74 7.67148 -0.673689 0
M  V30 17918 C 1035.01 7.33374 -1.95559 0
M  V30 17919 O 1034.8 5.88721 -2.00726 0
M  V30 17920 C 1033.61 7.92526 -2.10483 0
M  V30 17921 O 1033.22 8.02971 -3.47653 0
M  V30 17922 C 1032.73 6.89602 -1.41652 0
M  V30 17923 C 1033.44 5.59201 -1.75185 0
M  V30 17924 N 1033.39 4.58235 -0.662552 0
M  V30 17925 H 1036.23 8.65116 -0.777161 0
M  V30 17926 H 1036.5 6.90173 -0.474152 0
M  V30 17927 H 1035.64 7.66548 -2.79458 0
M  V30 17928 P 1031.67 8.03563 -3.84925 0
M  V30 17929 O 1031.45 8.85821 -5.0569 0
M  V30 17930 O 1030.88 8.41101 -2.65469 0
M  V30 17931 O 1031.42 6.4965 -4.18908 0
M  V30 17932 C 1032.36 5.81037 -5.05421 0
M  V30 17933 C 1031.63 4.78366 -5.89277 0
M  V30 17934 O 1031.42 3.58302 -5.08433 0
M  V30 17935 C 1030.23 5.17448 -6.36119 0
M  V30 17936 O 1029.84 4.45271 -7.53232 0
M  V30 17937 C 1029.35 4.74639 -5.19936 0
M  V30 17938 C 1030.06 3.49432 -4.70418 0
M  V30 17939 N 1030.01 3.31776 -3.22945 0
M  V30 17940 H 1032.85 6.54213 -5.71376 0
M  V30 17941 H 1033.12 5.30492 -4.44033 0
M  V30 17942 H 1032.26 4.55889 -6.76652 0
M  V30 17943 P 1028.29 4.23843 -7.83734 0
M  V30 17944 O 1028.07 4.19407 -9.29784 0
M  V30 17945 O 1027.5 5.24426 -7.09156 0
M  V30 17946 O 1028.04 2.7935 -7.20758 0
M  V30 17947 C 1028.98 1.72945 -7.50224 0
M  V30 17948 C 1028.25 0.406376 -7.57911 0
M  V30 17949 O 1028.04 -0.0897726 -6.21935 0
M  V30 17950 C 1026.85 0.438983 -8.18724 0
M  V30 17951 O 1026.46 -0.825065 -8.71101 0
M  V30 17952 C 1025.97 0.783689 -6.99524 0
M  V30 17953 C 1026.68 0.0619086 -5.85867 0
M  V30 17954 N 1026.63 0.78573 -4.56183 0
M  V30 17955 C 1026.48 0.0292889 -3.41887 0
M  V30 17956 O 1026.39 -1.18445 -3.4419 0
M  V30 17957 N 1026.44 0.744061 -2.23964 0
M  V30 17958 C 1026.53 2.10932 -2.10362 0
M  V30 17959 C 1026.68 2.8202 -3.34994 0
M  V30 17960 C 1026.73 2.15547 -4.52261 0
M  V30 17961 H 1029.47 1.93379 -8.46595 0
M  V30 17962 H 1029.74 1.68132 -6.70852 0
M  V30 17963 H 1028.88 -0.289041 -8.15388 0
M  V30 17964 H 1026.22 -0.926847 -5.72749 0
M  V30 17965 H 1025.94 1.86973 -6.82036 0
M  V30 17966 H 1024.95 0.403896 -7.13257 0
M  V30 17967 H 1026.78 1.20585 -8.97435 0
M  V30 17968 H 1026.86 2.71231 -5.45042 0
M  V30 17969 P 1024.91 -1.17771 -8.83182 0
M  V30 17970 O 1024.69 -2.07206 -9.98732 0
M  V30 17971 O 1024.12 0.0743816 -8.81969 0
M  V30 17972 O 1024.66 -1.97652 -7.47304 0
M  V30 17973 C 1025.6 -3.01133 -7.08783 0
M  V30 17974 C 1024.87 -4.12613 -6.37049 0
M  V30 17975 O 1024.66 -3.72827 -4.97879 0
M  V30 17976 C 1023.47 -4.45085 -6.88694 0
M  V30 17977 O 1023.08 -5.7877 -6.5624 0
M  V30 17978 C 1022.59 -3.47817 -6.12078 0
M  V30 17979 C 1023.3 -3.39414 -4.77697 0
M  V30 17980 N 1023.25 -2.04199 -4.15538 0
M  V30 17981 H 1026.09 -3.41248 -7.98759 0
M  V30 17982 H 1026.36 -2.57728 -6.42 0
M  V30 17983 H 1025.5 -5.02657 -6.42673 0
M  V30 17984 H 1022.84 -4.11708 -4.08956 0
M  V30 17985 H 1022.56 -2.49626 -6.61679 0
M  V30 17986 H 1021.57 -3.8662 -6.00862 0
M  V30 17987 H 1023.4 -4.29991 -7.97006 0
M  V30 17988 P 1021.53 -6.144 -6.45285 0
M  V30 17989 O 1021.31 -7.54673 -6.86199 0
M  V30 17990 O 1020.74 -5.12391 -7.179 0
M  V30 17991 O 1021.28 -5.99158 -4.88404 0
M  V30 17992 C 1022.22 -6.60234 -3.96415 0
M  V30 17993 C 1021.49 -7.08259 -2.72856 0
M  V30 17994 O 1021.28 -5.9427 -1.83651 0
M  V30 17995 C 1020.09 -7.64886 -2.9555 0
M  V30 17996 O 1019.7 -8.53963 -1.90717 0
M  V30 17997 C 1019.21 -6.4116 -2.90739 0
M  V30 17998 C 1019.92 -5.55375 -1.86963 0
M  V30 17999 N 1019.87 -4.09448 -2.16152 0
M  V30 18000 H 1022.71 -7.45574 -4.45629 0
M  V30 18001 H 1022.98 -5.85864 -3.679 0
M  V30 18002 H 1022.12 -7.84412 -2.24479 0
M  V30 18003 H 1019.46 -5.73457 -0.888562 0
M  V30 18004 H 1019.18 -5.90877 -3.88583 0
M  V30 18005 H 1018.19 -6.6596 -2.58858 0
M  V30 18006 H 1020.02 -8.16339 -3.92049 0
M  V30 18007 P 1018.15 -8.7635 -1.60911 0
M  V30 18008 O 1017.93 -10.1388 -1.11561 0
M  V30 18009 O 1017.36 -8.36503 -2.79617 0
M  V30 18010 O 1017.9 -7.71806 -0.42951 0
M  V30 18011 C 1018.84 -7.67148 0.673689 0
M  V30 18012 C 1018.11 -7.33374 1.95559 0
M  V30 18013 O 1017.9 -5.88721 2.00726 0
M  V30 18014 C 1016.71 -7.92526 2.10483 0
M  V30 18015 O 1016.32 -8.02971 3.47653 0
M  V30 18016 C 1015.83 -6.89602 1.41652 0
M  V30 18017 C 1016.54 -5.59201 1.75185 0
M  V30 18018 N 1016.49 -4.58235 0.662552 0
M  V30 18019 H 1019.33 -8.65116 0.777161 0
M  V30 18020 H 1019.61 -6.90173 0.474152 0
M  V30 18021 H 1018.74 -7.66548 2.79458 0
M  V30 18022 P 1014.77 -8.03563 3.84925 0
M  V30 18023 O 1014.55 -8.85821 5.0569 0
M  V30 18024 O 1013.98 -8.41101 2.65469 0
M  V30 18025 O 1014.52 -6.4965 4.18908 0
M  V30 18026 C 1015.46 -5.81037 5.05421 0
M  V30 18027 C 1014.73 -4.78366 5.89277 0
M  V30 18028 O 1014.52 -3.58302 5.08433 0
M  V30 18029 C 1013.33 -5.17448 6.36119 0
M  V30 18030 O 1012.94 -4.45271 7.53232 0
M  V30 18031 C 1012.45 -4.74639 5.19936 0
M  V30 18032 C 1013.16 -3.49432 4.70418 0
M  V30 18033 N 1013.11 -3.32099 3.22613 0
M  V30 18034 H 1015.95 -6.54213 5.71376 0
M  V30 18035 H 1016.23 -5.30936 4.43503 0
M  V30 18036 H 1015.36 -4.55889 6.76652 0
M  V30 18037 H 1012.7 -2.61715 5.17932 0
M  V30 18038 H 1012.42 -5.52155 4.41878 0
M  V30 18039 H 1011.43 -4.51981 5.53374 0
M  V30 18040 H 1013.27 -6.25124 6.55234 0
M  V30 18041 P 1011.39 -4.23843 7.83734 0
M  V30 18042 O 1011.17 -4.19407 9.29784 0
M  V30 18043 O 1010.6 -5.24426 7.09156 0
M  V30 18044 O 1011.14 -2.7935 7.20758 0
M  V30 18045 C 1012.08 -1.72945 7.50224 0
M  V30 18046 C 1011.35 -0.406376 7.57911 0
M  V30 18047 O 1011.14 0.0897726 6.21935 0
M  V30 18048 C 1009.95 -0.438983 8.18724 0
M  V30 18049 O 1009.56 0.825065 8.71101 0
M  V30 18050 C 1009.07 -0.783689 6.99524 0
M  V30 18051 C 1009.78 -0.0619086 5.85867 0
M  V30 18052 N 1009.73 -0.78573 4.56183 0
M  V30 18053 C 1009.58 -0.0292889 3.41887 0
M  V30 18054 O 1009.49 1.18445 3.4419 0
M  V30 18055 N 1009.54 -0.744061 2.23964 0
M  V30 18056 C 1009.63 -2.10932 2.10362 0
M  V30 18057 O 1009.58 -2.64117 0.98825 0
M  V30 18058 C 1009.78 -2.8202 3.34994 0
M  V30 18059 C 1009.89 -4.31095 3.25037 0
M  V30 18060 C 1009.83 -2.15547 4.52261 0
M  V30 18061 H 1012.58 -1.93379 8.46595 0
M  V30 18062 H 1012.84 -1.68132 6.70852 0
M  V30 18063 H 1011.98 0.289041 8.15388 0
M  V30 18064 H 1009.32 0.926847 5.72749 0
M  V30 18065 H 1009.04 -1.86973 6.82036 0
M  V30 18066 H 1008.05 -0.403896 7.13257 0
M  V30 18067 H 1009.89 -1.20585 8.97435 0
M  V30 18068 H 1009.96 -2.71231 5.45042 0
M  V30 18069 H 1008.93 -4.76966 3.49992 0
M  V30 18070 H 1010.66 -4.67047 3.95024 0
M  V30 18071 H 1010.18 -4.58996 2.22312 0
M  V30 18072 H 1009.44 -0.214893 1.39758 0
M  V30 18073 P 1008.01 1.17771 8.83182 0
M  V30 18074 O 1007.79 2.07206 9.98732 0
M  V30 18075 O 1007.22 -0.0743816 8.81969 0
M  V30 18076 O 1007.76 1.97652 7.47304 0
M  V30 18077 C 1008.7 3.01055 7.08599 0
M  V30 18078 C 1007.97 4.12613 6.37049 0
M  V30 18079 O 1007.76 3.72827 4.97879 0
M  V30 18080 C 1006.57 4.45719 6.88164 0
M  V30 18081 O 1006.18 5.7877 6.5624 0
M  V30 18082 C 1005.69 3.47768 6.11991 0
M  V30 18083 C 1006.4 3.39356 4.77615 0
M  V30 18084 N 1006.35 2.04571 4.15244 0
M  V30 18085 C 1006.2 1.98587 2.78314 0
M  V30 18086 O 1006.11 2.98134 2.08835 0
M  V30 18087 N 1006.16 0.714467 2.24925 0
M  V30 18088 C 1006.25 -0.470001 2.94169 0
M  V30 18089 C 1006.4 -0.312541 4.36783 0
M  V30 18090 C 1006.45 0.914512 4.92583 0
M  V30 18091 H 1009.2 3.41169 7.98575 0
M  V30 18092 H 1009.46 2.58295 6.41556 0
M  V30 18093 H 1008.6 5.02657 6.42673 0
M  V30 18094 H 1005.94 4.11637 4.08885 0
M  V30 18095 H 1005.66 2.49626 6.61679 0
M  V30 18096 H 1004.67 3.86566 6.00778 0
M  V30 18097 H 1006.51 4.29943 7.96918 0
M  V30 18098 H 1006.58 1.00937 6.00374 0
M  V30 18099 P 1004.63 6.144 6.45285 0
M  V30 18100 O 1004.41 7.54673 6.86199 0
M  V30 18101 O 1003.84 5.12391 7.179 0
M  V30 18102 O 1004.38 5.99158 4.88404 0
M  V30 18103 C 1005.32 6.60234 3.96415 0
M  V30 18104 C 1004.59 7.08259 2.72856 0
M  V30 18105 O 1004.38 5.9427 1.83651 0
M  V30 18106 C 1003.19 7.64886 2.9555 0
M  V30 18107 O 1002.8 8.53963 1.90717 0
M  V30 18108 C 1002.31 6.4116 2.90739 0
M  V30 18109 C 1003.02 5.55375 1.86963 0
M  V30 18110 N 1002.97 4.09664 2.15742 0
M  V30 18111 C 1003.05 3.44381 3.37233 0
M  V30 18112 N 1002.97 2.14131 3.28347 0
M  V30 18113 C 1002.83 1.90247 1.91588 0
M  V30 18114 C 1002.7 0.683992 1.20892 0
M  V30 18115 N 1002.58 0.903396 -0.173998 0
M  V30 18116 C 1002.58 2.14171 -0.784879 0
M  V30 18117 N 1002.45 2.1435 -2.11317 0
M  V30 18118 N 1002.71 3.28784 -0.119316 0
M  V30 18119 C 1002.83 3.0977 1.22194 0
M  V30 18120 H 1005.81 7.45574 4.45629 0
M  V30 18121 H 1006.09 5.86232 3.67314 0
M  V30 18122 H 1005.22 7.84412 2.24479 0
M  V30 18123 P 1001.25 8.7635 1.60911 0
M  V30 18124 O 1001.03 10.1388 1.11561 0
M  V30 18125 O 1000.46 8.36503 2.79617 0
M  V30 18126 O 1001 7.71806 0.42951 0
M  V30 18127 C 1001.94 7.67148 -0.673689 0
M  V30 18128 C 1001.21 7.33374 -1.95559 0
M  V30 18129 O 1001 5.88721 -2.00726 0
M  V30 18130 C 999.814 7.92526 -2.10483 0
M  V30 18131 O 999.424 8.02971 -3.47653 0
M  V30 18132 C 998.934 6.89602 -1.41652 0
M  V30 18133 C 999.644 5.59201 -1.75185 0
M  V30 18134 N 999.594 4.58235 -0.662552 0
M  V30 18135 H 1002.43 8.65116 -0.777161 0
M  V30 18136 H 1002.71 6.90173 -0.474152 0
M  V30 18137 H 1001.84 7.66548 -2.79458 0
M  V30 18138 P 997.874 8.03563 -3.84925 0
M  V30 18139 O 997.654 8.85821 -5.0569 0
M  V30 18140 O 997.084 8.41101 -2.65469 0
M  V30 18141 O 997.624 6.4965 -4.18908 0
M  V30 18142 C 998.564 5.81037 -5.05421 0
M  V30 18143 C 997.834 4.78366 -5.89277 0
M  V30 18144 O 997.624 3.58302 -5.08433 0
M  V30 18145 C 996.434 5.17448 -6.36119 0
M  V30 18146 O 996.044 4.45271 -7.53232 0
M  V30 18147 C 995.554 4.74639 -5.19936 0
M  V30 18148 C 996.264 3.49432 -4.70418 0
M  V30 18149 N 996.214 3.32099 -3.22613 0
M  V30 18150 H 999.053 6.54213 -5.71376 0
M  V30 18151 H 999.325 5.30936 -4.43503 0
M  V30 18152 H 998.457 4.55889 -6.76652 0
M  V30 18153 H 995.802 2.61715 -5.17932 0
M  V30 18154 H 995.522 5.52155 -4.41878 0
M  V30 18155 H 994.531 4.51981 -5.53374 0
M  V30 18156 H 996.365 6.25124 -6.55234 0
M  V30 18157 P 994.494 4.23843 -7.83734 0
M  V30 18158 O 994.274 4.19407 -9.29784 0
M  V30 18159 O 993.704 5.24426 -7.09156 0
M  V30 18160 O 994.244 2.7935 -7.20758 0
M  V30 18161 C 995.184 1.72945 -7.50224 0
M  V30 18162 C 994.454 0.406376 -7.57911 0
M  V30 18163 O 994.244 -0.0897726 -6.21935 0
M  V30 18164 C 993.054 0.438983 -8.18724 0
M  V30 18165 O 992.664 -0.825065 -8.71101 0
M  V30 18166 C 992.174 0.783689 -6.99524 0
M  V30 18167 C 992.884 0.0619086 -5.85867 0
M  V30 18168 N 992.834 0.78573 -4.56183 0
M  V30 18169 C 992.684 0.0292889 -3.41887 0
M  V30 18170 O 992.594 -1.18445 -3.4419 0
M  V30 18171 N 992.644 0.744061 -2.23964 0
M  V30 18172 C 992.734 2.10932 -2.10362 0
M  V30 18173 C 992.884 2.8202 -3.34994 0
M  V30 18174 C 992.934 2.15547 -4.52261 0
M  V30 18175 H 995.675 1.93379 -8.46595 0
M  V30 18176 H 995.944 1.68132 -6.70852 0
M  V30 18177 H 995.077 -0.289041 -8.15388 0
M  V30 18178 H 992.422 -0.926847 -5.72749 0
M  V30 18179 H 992.143 1.86973 -6.82036 0
M  V30 18180 H 991.151 0.403896 -7.13257 0
M  V30 18181 H 992.985 1.20585 -8.97435 0
M  V30 18182 H 993.056 2.71231 -5.45042 0
M  V30 18183 P 991.114 -1.17771 -8.83182 0
M  V30 18184 O 990.894 -2.07206 -9.98732 0
M  V30 18185 O 990.324 0.0743816 -8.81969 0
M  V30 18186 O 990.864 -1.97652 -7.47304 0
M  V30 18187 C 991.804 -3.01133 -7.08783 0
M  V30 18188 C 991.074 -4.12613 -6.37049 0
M  V30 18189 O 990.864 -3.72827 -4.97879 0
M  V30 18190 C 989.674 -4.45085 -6.88694 0
M  V30 18191 O 989.284 -5.7877 -6.5624 0
M  V30 18192 C 988.794 -3.47817 -6.12078 0
M  V30 18193 C 989.504 -3.39414 -4.77697 0
M  V30 18194 N 989.454 -2.04615 -4.15333 0
M  V30 18195 H 992.293 -3.41248 -7.98759 0
M  V30 18196 H 992.565 -2.5837 -6.41742 0
M  V30 18197 H 991.697 -5.02657 -6.42673 0
M  V30 18198 P 987.734 -6.144 -6.45285 0
M  V30 18199 O 987.514 -7.54673 -6.86199 0
M  V30 18200 O 986.944 -5.12391 -7.179 0
M  V30 18201 O 987.484 -5.99158 -4.88404 0
M  V30 18202 C 988.424 -6.60234 -3.96415 0
M  V30 18203 C 987.694 -7.08259 -2.72856 0
M  V30 18204 O 987.484 -5.9427 -1.83651 0
M  V30 18205 C 986.294 -7.64886 -2.9555 0
M  V30 18206 O 985.904 -8.53963 -1.90717 0
M  V30 18207 C 985.414 -6.4116 -2.90739 0
M  V30 18208 C 986.124 -5.55375 -1.86963 0
M  V30 18209 N 986.074 -4.09664 -2.15742 0
M  V30 18210 H 988.913 -7.45574 -4.45629 0
M  V30 18211 H 989.185 -5.86232 -3.67314 0
M  V30 18212 H 988.317 -7.84412 -2.24479 0
M  V30 18213 P 984.354 -8.7635 -1.60911 0
M  V30 18214 O 984.134 -10.1388 -1.11561 0
M  V30 18215 O 983.564 -8.36503 -2.79617 0
M  V30 18216 O 984.104 -7.71806 -0.42951 0
M  V30 18217 C 985.044 -7.67148 0.673689 0
M  V30 18218 C 984.314 -7.33374 1.95559 0
M  V30 18219 O 984.104 -5.88721 2.00726 0
M  V30 18220 C 982.914 -7.92526 2.10483 0
M  V30 18221 O 982.524 -8.02971 3.47653 0
M  V30 18222 C 982.034 -6.89602 1.41652 0
M  V30 18223 C 982.744 -5.59201 1.75185 0
M  V30 18224 N 982.694 -4.58301 0.657969 0
M  V30 18225 H 985.533 -8.65116 0.777161 0
M  V30 18226 H 985.805 -6.9022 0.46725 0
M  V30 18227 H 984.937 -7.66548 2.79458 0
M  V30 18228 H 982.282 -5.16165 2.65183 0
M  V30 18229 H 982.002 -7.06433 0.329384 0
M  V30 18230 H 981.011 -6.90926 1.82021 0
M  V30 18231 H 982.845 -8.90873 1.62657 0
M  V30 18232 P 980.974 -8.03563 3.84925 0
M  V30 18233 O 980.754 -8.85821 5.0569 0
M  V30 18234 O 980.184 -8.41101 2.65469 0
M  V30 18235 O 980.724 -6.4965 4.18908 0
M  V30 18236 C 981.664 -5.81037 5.05421 0
M  V30 18237 C 980.934 -4.78366 5.89277 0
M  V30 18238 O 980.724 -3.58302 5.08433 0
M  V30 18239 C 979.534 -5.17448 6.36119 0
M  V30 18240 O 979.144 -4.45271 7.53232 0
M  V30 18241 C 978.654 -4.74639 5.19936 0
M  V30 18242 C 979.364 -3.49432 4.70418 0
M  V30 18243 N 979.314 -3.31776 3.22945 0
M  V30 18244 H 982.153 -6.54213 5.71376 0
M  V30 18245 H 982.425 -5.30492 4.44033 0
M  V30 18246 H 981.557 -4.55889 6.76652 0
M  V30 18247 P 977.594 -4.23843 7.83734 0
M  V30 18248 O 977.374 -4.19407 9.29784 0
M  V30 18249 O 976.804 -5.24426 7.09156 0
M  V30 18250 O 977.344 -2.7935 7.20758 0
M  V30 18251 C 978.284 -1.7299 7.50419 0
M  V30 18252 C 977.554 -0.406376 7.57911 0
M  V30 18253 O 977.344 0.0897726 6.21935 0
M  V30 18254 C 976.154 -0.447224 8.1878 0
M  V30 18255 O 975.764 0.825065 8.71101 0
M  V30 18256 C 975.274 -0.783801 6.99623 0
M  V30 18257 C 975.984 -0.0619192 5.85967 0
M  V30 18258 N 975.934 -0.7859 4.56281 0
M  V30 18259 H 978.773 -1.93423 8.4679 0
M  V30 18260 H 979.045 -1.68181 6.71046 0
M  V30 18261 H 978.177 0.289041 8.15388 0
M  V30 18262 P 974.214 1.17771 8.83182 0
M  V30 18263 O 973.994 2.07206 9.98732 0
M  V30 18264 O 973.424 -0.0743816 8.81969 0
M  V30 18265 O 973.964 1.97678 7.474 0
M  V30 18266 C 974.904 3.01133 7.08783 0
M  V30 18267 C 974.174 4.1203 6.37546 0
M  V30 18268 O 973.964 3.72887 4.9796 0
M  V30 18269 C 972.774 4.45085 6.88694 0
M  V30 18270 O 972.384 5.78836 6.56315 0
M  V30 18271 C 971.894 3.47817 6.12078 0
M  V30 18272 C 972.604 3.39414 4.77697 0
M  V30 18273 N 972.554 2.04615 4.15333 0
M  V30 18274 C 972.404 1.96929 2.77162 0
M  V30 18275 O 972.314 3.02017 2.12006 0
M  V30 18276 N 972.354 0.55485 2.24237 0
M  V30 18277 C 972.454 -0.367808 2.9169 0
M  V30 18278 N 972.404 -1.53426 2.29427 0
M  V30 18279 C 972.604 -0.319148 4.33828 0
M  V30 18280 C 972.654 0.920672 4.90433 0
M  V30 18281 H 975.394 3.41209 7.98667 0
M  V30 18282 H 975.664 2.5837 6.41742 0
M  V30 18283 H 974.797 5.02718 6.42752 0
M  V30 18284 H 972.142 4.11779 4.09026 0
M  V30 18285 H 971.862 2.49661 6.61772 0
M  V30 18286 H 970.871 3.86674 6.00946 0
M  V30 18287 H 972.705 4.29991 7.97006 0
M  V30 18288 H 972.777 1.00589 5.98303 0
M  V30 18289 H 972.675 -1.22639 4.93799 0
M  V30 18290 H 972.287 -1.56819 1.27167 0
M  V30 18291 H 972.483 -2.41062 2.83063 0
M  V30 18292 P 970.834 6.144 6.45285 0
M  V30 18293 O 970.614 7.54673 6.86199 0
M  V30 18294 O 970.044 5.12391 7.179 0
M  V30 18295 O 970.584 5.99158 4.88404 0
M  V30 18296 C 971.524 6.60062 3.96313 0
M  V30 18297 C 970.794 7.08259 2.72856 0
M  V30 18298 O 970.584 5.9427 1.83651 0
M  V30 18299 C 969.394 7.65087 2.94749 0
M  V30 18300 O 969.004 8.53963 1.90717 0
M  V30 18301 C 968.514 6.41069 2.90698 0
M  V30 18302 C 969.224 5.5528 1.86931 0
M  V30 18303 N 969.174 4.09575 2.15696 0
M  V30 18304 C 969.024 3.24249 1.08435 0
M  V30 18305 O 968.934 3.63946 -0.0628747 0
M  V30 18306 N 968.984 1.90009 1.39973 0
M  V30 18307 C 969.074 1.34884 2.65614 0
M  V30 18308 C 969.224 2.3145 3.71736 0
M  V30 18309 C 969.274 3.63518 3.44754 0
M  V30 18310 H 972.015 7.45402 4.45526 0
M  V30 18311 H 972.284 5.86062 3.67208 0
M  V30 18312 H 971.417 7.84412 2.24479 0
M  V30 18313 H 968.762 5.73358 0.888409 0
M  V30 18314 H 968.483 5.90877 3.88583 0
M  V30 18315 H 967.491 6.65867 2.58821 0
M  V30 18316 H 969.325 8.16248 3.92006 0
M  V30 18317 H 969.396 4.34551 4.26383 0
M  V30 18318 P 967.454 8.7635 1.60911 0
M  V30 18319 O 967.234 10.1388 1.11561 0
M  V30 18320 O 966.664 8.36503 2.79617 0
M  V30 18321 O 967.204 7.71806 0.42951 0
M  V30 18322 C 968.144 7.67148 -0.673689 0
M  V30 18323 C 967.414 7.33374 -1.95559 0
M  V30 18324 O 967.204 5.88721 -2.00726 0
M  V30 18325 C 966.014 7.92526 -2.10483 0
M  V30 18326 O 965.624 8.02971 -3.47653 0
M  V30 18327 C 965.134 6.89602 -1.41652 0
M  V30 18328 C 965.844 5.59201 -1.75185 0
M  V30 18329 N 965.794 4.58235 -0.662552 0
M  V30 18330 H 968.633 8.65116 -0.777161 0
M  V30 18331 H 968.905 6.90173 -0.474152 0
M  V30 18332 H 968.037 7.66548 -2.79458 0
M  V30 18333 P 964.074 8.03563 -3.84925 0
M  V30 18334 O 963.854 8.85821 -5.0569 0
M  V30 18335 O 963.284 8.41101 -2.65469 0
M  V30 18336 O 963.824 6.4965 -4.18908 0
M  V30 18337 C 964.764 5.80886 -5.05289 0
M  V30 18338 C 964.034 4.78366 -5.89277 0
M  V30 18339 O 963.824 3.58302 -5.08433 0
M  V30 18340 C 962.634 5.16748 -6.36559 0
M  V30 18341 O 962.244 4.45271 -7.53232 0
M  V30 18342 C 961.754 4.74572 -5.19863 0
M  V30 18343 C 962.464 3.49373 -4.70338 0
M  V30 18344 N 962.414 3.31704 -3.22876 0
M  V30 18345 C 962.264 2.03326 -2.74871 0
M  V30 18346 O 962.174 1.06486 -3.48076 0
M  V30 18347 N 962.224 1.91838 -1.37456 0
M  V30 18348 C 962.314 2.94295 -0.462035 0
M  V30 18349 C 962.464 4.25064 -1.05249 0
M  V30 18350 C 962.514 4.40214 -2.39192 0
M  V30 18351 H 965.255 6.54063 -5.71245 0
M  V30 18352 H 965.524 5.30339 -4.43905 0
M  V30 18353 H 964.657 4.55889 -6.76652 0
M  V30 18354 H 962.002 2.6167 -5.17842 0
M  V30 18355 H 961.723 5.52155 -4.41878 0
M  V30 18356 H 960.731 4.51918 -5.53297 0
M  V30 18357 H 962.565 6.25055 -6.55162 0
M  V30 18358 H 962.636 5.39798 -2.81523 0
M  V30 18359 P 960.694 4.23843 -7.83734 0
M  V30 18360 O 960.474 4.19407 -9.29784 0
M  V30 18361 O 959.904 5.24426 -7.09156 0
M  V30 18362 O 960.444 2.7935 -7.20758 0
M  V30 18363 C 961.384 1.72945 -7.50224 0
M  V30 18364 C 960.654 0.406376 -7.57911 0
M  V30 18365 O 960.444 -0.0897726 -6.21935 0
M  V30 18366 C 959.254 0.438983 -8.18724 0
M  V30 18367 O 958.864 -0.825065 -8.71101 0
M  V30 18368 C 958.374 0.783689 -6.99524 0
M  V30 18369 C 959.084 0.0619086 -5.85867 0
M  V30 18370 N 959.034 0.78573 -4.56183 0
M  V30 18371 C 958.884 0.0292889 -3.41887 0
M  V30 18372 O 958.794 -1.18445 -3.4419 0
M  V30 18373 N 958.844 0.744061 -2.23964 0
M  V30 18374 C 958.934 2.10932 -2.10362 0
M  V30 18375 C 959.084 2.8202 -3.34994 0
M  V30 18376 C 959.134 2.15547 -4.52261 0
M  V30 18377 H 961.875 1.93379 -8.46595 0
M  V30 18378 H 962.144 1.68132 -6.70852 0
M  V30 18379 H 961.277 -0.289041 -8.15388 0
M  V30 18380 H 958.622 -0.926847 -5.72749 0
M  V30 18381 H 958.343 1.86973 -6.82036 0
M  V30 18382 H 957.351 0.403896 -7.13257 0
M  V30 18383 H 959.185 1.20585 -8.97435 0
M  V30 18384 H 959.256 2.71231 -5.45042 0
M  V30 18385 P 957.314 -1.17771 -8.83182 0
M  V30 18386 O 957.094 -2.07206 -9.98732 0
M  V30 18387 O 956.524 0.0743816 -8.81969 0
M  V30 18388 O 957.064 -1.97652 -7.47304 0
M  V30 18389 C 958.004 -3.01055 -7.08599 0
M  V30 18390 C 957.274 -4.12613 -6.37049 0
M  V30 18391 O 957.064 -3.72827 -4.97879 0
M  V30 18392 C 955.874 -4.45719 -6.88164 0
M  V30 18393 O 955.484 -5.7877 -6.5624 0
M  V30 18394 C 954.994 -3.47768 -6.11991 0
M  V30 18395 C 955.704 -3.39356 -4.77615 0
M  V30 18396 N 955.654 -2.04571 -4.15244 0
M  V30 18397 C 955.504 -1.98587 -2.78314 0
M  V30 18398 O 955.414 -2.98134 -2.08835 0
M  V30 18399 N 955.464 -0.714467 -2.24925 0
M  V30 18400 C 955.554 0.470001 -2.94169 0
M  V30 18401 O 955.504 1.55587 -2.35195 0
M  V30 18402 C 955.704 0.312541 -4.36783 0
M  V30 18403 C 955.814 1.57711 -5.16352 0
M  V30 18404 C 955.754 -0.914512 -4.92583 0
M  V30 18405 H 958.495 -3.41169 -7.98575 0
M  V30 18406 H 958.764 -2.58295 -6.41556 0
M  V30 18407 H 957.897 -5.02657 -6.42673 0
M  V30 18408 H 955.242 -4.11637 -4.08885 0
M  V30 18409 H 954.963 -2.49626 -6.61679 0
M  V30 18410 H 953.971 -3.86566 -6.00778 0
M  V30 18411 H 955.805 -4.29943 -7.96918 0
M  V30 18412 H 955.876 -1.00937 -6.00374 0
M  V30 18413 H 954.846 1.80153 -5.63503 0
M  V30 18414 H 956.583 1.4566 -5.94104 0
M  V30 18415 H 956.095 2.40664 -4.49645 0
M  V30 18416 H 955.359 -0.647622 -1.25697 0
M  V30 18417 P 953.934 -6.144 -6.45285 0
M  V30 18418 O 953.714 -7.54673 -6.86199 0
M  V30 18419 O 953.144 -5.12391 -7.179 0
M  V30 18420 O 953.684 -5.99158 -4.88404 0
M  V30 18421 C 954.624 -6.60234 -3.96415 0
M  V30 18422 C 953.894 -7.08259 -2.72856 0
M  V30 18423 O 953.684 -5.9427 -1.83651 0
M  V30 18424 C 952.494 -7.64886 -2.9555 0
M  V30 18425 O 952.104 -8.53963 -1.90717 0
M  V30 18426 C 951.614 -6.4116 -2.90739 0
M  V30 18427 C 952.324 -5.55375 -1.86963 0
M  V30 18428 N 952.274 -4.09448 -2.16152 0
M  V30 18429 C 952.354 -3.46824 -3.37593 0
M  V30 18430 N 952.284 -2.17422 -3.29777 0
M  V30 18431 C 952.134 -1.93065 -1.94427 0
M  V30 18432 C 952.004 -0.738053 -1.20141 0
M  V30 18433 N 951.994 0.474256 -1.74676 0
M  V30 18434 N 951.884 -0.850049 0.13045 0
M  V30 18435 C 951.894 -2.06169 0.676992 0
M  V30 18436 N 952.014 -3.23842 0.101312 0
M  V30 18437 C 952.134 -3.09402 -1.23122 0
M  V30 18438 H 955.113 -7.45574 -4.45629 0
M  V30 18439 H 955.385 -5.85864 -3.679 0
M  V30 18440 H 954.517 -7.84412 -2.24479 0
M  V30 18441 H 951.862 -5.73457 -0.888562 0
M  V30 18442 H 951.582 -5.90877 -3.88583 0
M  V30 18443 H 950.591 -6.6596 -2.58858 0
M  V30 18444 H 952.425 -8.16339 -3.92049 0
M  V30 18445 H 952.466 -4.00505 -4.3174 0
M  V30 18446 H 952.085 0.581337 -2.76658 0
M  V30 18447 H 951.896 1.30811 -1.14888 0
M  V30 18448 H 951.788 -2.08295 1.75542 0
M  V30 18449 P 950.554 -8.7635 -1.60911 0
M  V30 18450 O 950.334 -10.1388 -1.11561 0
M  V30 18451 O 949.764 -8.36503 -2.79617 0
M  V30 18452 O 950.304 -7.71806 -0.42951 0
M  V30 18453 C 951.244 -7.67148 0.673689 0
M  V30 18454 C 950.514 -7.33374 1.95559 0
M  V30 18455 O 950.304 -5.88721 2.00726 0
M  V30 18456 C 949.114 -7.92526 2.10483 0
M  V30 18457 O 948.724 -8.02971 3.47653 0
M  V30 18458 C 948.234 -6.89602 1.41652 0
M  V30 18459 C 948.944 -5.59201 1.75185 0
M  V30 18460 N 948.894 -4.58235 0.662552 0
M  V30 18461 H 951.733 -8.65116 0.777161 0
M  V30 18462 H 952.005 -6.90173 0.474152 0
M  V30 18463 H 951.137 -7.66548 2.79458 0
M  V30 18464 P 947.174 -8.03563 3.84925 0
M  V30 18465 O 946.954 -8.85821 5.0569 0
M  V30 18466 O 946.384 -8.41101 2.65469 0
M  V30 18467 O 946.924 -6.4965 4.18908 0
M  V30 18468 C 947.864 -5.81037 5.05421 0
M  V30 18469 C 947.134 -4.78366 5.89277 0
M  V30 18470 O 946.924 -3.58302 5.08433 0
M  V30 18471 C 945.734 -5.17448 6.36119 0
M  V30 18472 O 945.344 -4.45271 7.53232 0
M  V30 18473 C 944.854 -4.74639 5.19936 0
M  V30 18474 C 945.564 -3.49432 4.70418 0
M  V30 18475 N 945.514 -3.31776 3.22945 0
M  V30 18476 H 948.353 -6.54213 5.71376 0
M  V30 18477 H 948.625 -5.30492 4.44033 0
M  V30 18478 H 947.757 -4.55889 6.76652 0
M  V30 18479 P 943.794 -4.23843 7.83734 0
M  V30 18480 O 943.574 -4.19407 9.29784 0
M  V30 18481 O 943.004 -5.24426 7.09156 0
M  V30 18482 O 943.544 -2.7935 7.20758 0
M  V30 18483 C 944.484 -1.7299 7.50419 0
M  V30 18484 C 943.754 -0.406376 7.57911 0
M  V30 18485 O 943.544 0.0897726 6.21935 0
M  V30 18486 C 942.354 -0.447224 8.1878 0
M  V30 18487 O 941.964 0.825065 8.71101 0
M  V30 18488 C 941.474 -0.783801 6.99623 0
M  V30 18489 C 942.184 -0.0619192 5.85967 0
M  V30 18490 N 942.134 -0.790462 4.56202 0
M  V30 18491 H 944.973 -1.93423 8.4679 0
M  V30 18492 H 945.245 -1.68852 6.70877 0
M  V30 18493 H 944.377 0.289041 8.15388 0
M  V30 18494 H 941.722 0.927006 5.72848 0
M  V30 18495 H 941.442 -1.86973 6.82036 0
M  V30 18496 H 940.451 -0.403953 7.13357 0
M  V30 18497 H 942.285 -1.20599 8.97534 0
M  V30 18498 P 940.414 1.17771 8.83182 0
M  V30 18499 O 940.194 2.07206 9.98732 0
M  V30 18500 O 939.624 -0.0743816 8.81969 0
M  V30 18501 O 940.164 1.97652 7.47304 0
M  V30 18502 C 941.104 3.01133 7.08783 0
M  V30 18503 C 940.374 4.12613 6.37049 0
M  V30 18504 O 940.164 3.72827 4.97879 0
M  V30 18505 C 938.974 4.45085 6.88694 0
M  V30 18506 O 938.584 5.7877 6.5624 0
M  V30 18507 C 938.094 3.47817 6.12078 0
M  V30 18508 C 938.804 3.39414 4.77697 0
M  V30 18509 N 938.754 2.04615 4.15333 0
M  V30 18510 H 941.593 3.41248 7.98759 0
M  V30 18511 H 941.865 2.5837 6.41742 0
M  V30 18512 H 940.997 5.02657 6.42673 0
M  V30 18513 P 937.034 6.144 6.45285 0
M  V30 18514 O 936.814 7.54673 6.86199 0
M  V30 18515 O 936.244 5.12391 7.179 0
M  V30 18516 O 936.784 5.99158 4.88404 0
M  V30 18517 C 937.724 6.60234 3.96415 0
M  V30 18518 C 936.994 7.08259 2.72856 0
M  V30 18519 O 936.784 5.9427 1.83651 0
M  V30 18520 C 935.594 7.64886 2.9555 0
M  V30 18521 O 935.204 8.53963 1.90717 0
M  V30 18522 C 934.714 6.4116 2.90739 0
M  V30 18523 C 935.424 5.55375 1.86963 0
M  V30 18524 N 935.374 4.09664 2.15742 0
M  V30 18525 H 938.213 7.45574 4.45629 0
M  V30 18526 H 938.485 5.86232 3.67314 0
M  V30 18527 H 937.617 7.84412 2.24479 0
M  V30 18528 P 933.655 8.7635 1.60911 0
M  V30 18529 O 933.435 10.1388 1.11561 0
M  V30 18530 O 932.865 8.36503 2.79617 0
M  V30 18531 O 933.405 7.71806 0.42951 0
M  V30 18532 C 934.345 7.66948 -0.673514 0
M  V30 18533 C 933.615 7.33374 -1.95559 0
M  V30 18534 O 933.405 5.88721 -2.00726 0
M  V30 18535 C 932.215 7.92218 -2.1125 0
M  V30 18536 O 931.825 8.02971 -3.47653 0
M  V30 18537 C 931.335 6.89504 -1.41631 0
M  V30 18538 C 932.045 5.59106 -1.75155 0
M  V30 18539 N 931.995 4.58136 -0.662409 0
M  V30 18540 C 931.845 3.26059 -1.02863 0
M  V30 18541 O 931.755 2.90743 -2.19009 0
M  V30 18542 N 931.805 2.35995 0.0155585 0
M  V30 18543 C 931.895 2.65248 1.35603 0
M  V30 18544 O 931.845 1.75605 2.20651 0
M  V30 18545 C 932.045 4.05747 1.64698 0
M  V30 18546 C 932.155 4.42345 3.09553 0
M  V30 18547 C 932.095 4.96734 0.652411 0
M  V30 18548 H 934.836 8.64917 -0.776982 0
M  V30 18549 H 935.105 6.89974 -0.474015 0
M  V30 18550 H 934.238 7.66548 -2.79458 0
M  V30 18551 H 931.583 5.16076 -2.65138 0
M  V30 18552 H 931.304 7.06433 -0.329384 0
M  V30 18553 H 930.312 6.90829 -1.81996 0
M  V30 18554 H 932.146 8.90774 -1.62639 0
M  V30 18555 H 932.217 6.02181 0.895285 0
M  V30 18556 H 931.187 4.80252 3.45468 0
M  V30 18557 H 932.924 5.20015 3.22119 0
M  V30 18558 H 932.436 3.53269 3.67833 0
M  V30 18559 H 931.7 1.39558 -0.227499 0
M  V30 18560 P 930.275 8.03563 -3.84925 0
M  V30 18561 O 930.055 8.85821 -5.0569 0
M  V30 18562 O 929.485 8.41101 -2.65469 0
M  V30 18563 O 930.025 6.4965 -4.18908 0
M  V30 18564 C 930.965 5.81037 -5.05421 0
M  V30 18565 C 930.235 4.78366 -5.89277 0
M  V30 18566 O 930.025 3.58302 -5.08433 0
M  V30 18567 C 928.835 5.17448 -6.36119 0
M  V30 18568 O 928.445 4.45271 -7.53232 0
M  V30 18569 C 927.955 4.74639 -5.19936 0
M  V30 18570 C 928.665 3.49432 -4.70418 0
M  V30 18571 N 928.615 3.32099 -3.22613 0
M  V30 18572 C 928.695 4.28245 -2.25527 0
M  V30 18573 N 928.625 3.80823 -1.04874 0
M  V30 18574 C 928.475 2.44571 -1.23535 0
M  V30 18575 C 928.345 1.37068 -0.330675 0
M  V30 18576 N 928.335 1.51472 0.990824 0
M  V30 18577 N 928.225 0.138614 -0.848756 0
M  V30 18578 C 928.235 -0.00675923 -2.16999 0
M  V30 18579 N 928.355 0.904372 -3.11122 0
M  V30 18580 C 928.475 2.12707 -2.56212 0
M  V30 18581 H 931.454 6.54213 -5.71376 0
M  V30 18582 H 931.726 5.30936 -4.43503 0
M  V30 18583 H 930.858 4.55889 -6.76652 0
M  V30 18584 H 928.203 2.61715 -5.17932 0
M  V30 18585 H 927.923 5.52155 -4.41878 0
M  V30 18586 H 926.932 4.51981 -5.53374 0
M  V30 18587 H 928.766 6.25124 -6.55234 0
M  V30 18588 H 928.807 5.34372 -2.47488 0
M  V30 18589 H 928.426 2.45153 1.4078 0
M  V30 18590 H 928.237 0.688422 1.59911 0
M  V30 18591 H 928.129 -1.02584 -2.52346 0
M  V30 18592 P 926.895 4.23843 -7.83734 0
M  V30 18593 O 926.675 4.19407 -9.29784 0
M  V30 18594 O 926.105 5.24426 -7.09156 0
M  V30 18595 O 926.645 2.7935 -7.20758 0
M  V30 18596 C 927.585 1.7299 -7.50419 0
M  V30 18597 C 926.855 0.406376 -7.57911 0
M  V30 18598 O 926.645 -0.0897726 -6.21935 0
M  V30 18599 C 925.455 0.447224 -8.1878 0
M  V30 18600 O 925.065 -0.825065 -8.71101 0
M  V30 18601 C 924.575 0.783801 -6.99623 0
M  V30 18602 C 925.285 0.0619192 -5.85967 0
M  V30 18603 N 925.235 0.7859 -4.56281 0
M  V30 18604 H 928.074 1.93423 -8.4679 0
M  V30 18605 H 928.346 1.68181 -6.71046 0
M  V30 18606 H 927.478 -0.289041 -8.15388 0
M  V30 18607 P 923.515 -1.17771 -8.83182 0
M  V30 18608 O 923.295 -2.07206 -9.98732 0
M  V30 18609 O 922.725 0.0743816 -8.81969 0
M  V30 18610 O 923.265 -1.97678 -7.474 0
M  V30 18611 C 924.205 -3.01133 -7.08783 0
M  V30 18612 C 923.475 -4.1203 -6.37546 0
M  V30 18613 O 923.265 -3.72887 -4.9796 0
M  V30 18614 C 922.075 -4.45085 -6.88694 0
M  V30 18615 O 921.685 -5.78836 -6.56315 0
M  V30 18616 C 921.195 -3.47817 -6.12078 0
M  V30 18617 C 921.905 -3.39414 -4.77697 0
M  V30 18618 N 921.855 -2.04615 -4.15333 0
M  V30 18619 C 921.705 -1.96929 -2.77162 0
M  V30 18620 O 921.615 -3.02017 -2.12006 0
M  V30 18621 N 921.655 -0.55485 -2.24237 0
M  V30 18622 C 921.755 0.367808 -2.9169 0
M  V30 18623 N 921.705 1.53426 -2.29427 0
M  V30 18624 C 921.905 0.319148 -4.33828 0
M  V30 18625 C 921.955 -0.920672 -4.90433 0
M  V30 18626 H 924.695 -3.41209 -7.98667 0
M  V30 18627 H 924.965 -2.5837 -6.41742 0
M  V30 18628 H 924.098 -5.02718 -6.42752 0
M  V30 18629 H 921.443 -4.11779 -4.09026 0
M  V30 18630 H 921.163 -2.49661 -6.61772 0
M  V30 18631 H 920.172 -3.86674 -6.00946 0
M  V30 18632 H 922.006 -4.29991 -7.97006 0
M  V30 18633 H 922.078 -1.00589 -5.98303 0
M  V30 18634 H 921.976 1.22639 -4.93799 0
M  V30 18635 H 921.588 1.56819 -1.27167 0
M  V30 18636 H 921.784 2.41062 -2.83063 0
M  V30 18637 P 920.135 -6.144 -6.45285 0
M  V30 18638 O 919.915 -7.54673 -6.86199 0
M  V30 18639 O 919.345 -5.12391 -7.179 0
M  V30 18640 O 919.885 -5.99158 -4.88404 0
M  V30 18641 C 920.825 -6.60234 -3.96415 0
M  V30 18642 C 920.095 -7.08259 -2.72856 0
M  V30 18643 O 919.885 -5.9427 -1.83651 0
M  V30 18644 C 918.695 -7.64886 -2.9555 0
M  V30 18645 O 918.305 -8.53963 -1.90717 0
M  V30 18646 C 917.815 -6.4116 -2.90739 0
M  V30 18647 C 918.525 -5.55375 -1.86963 0
M  V30 18648 N 918.475 -4.09448 -2.16152 0
M  V30 18649 H 921.314 -7.45574 -4.45629 0
M  V30 18650 H 921.586 -5.85864 -3.679 0
M  V30 18651 H 920.718 -7.84412 -2.24479 0
M  V30 18652 H 918.063 -5.73457 -0.888562 0
M  V30 18653 H 917.783 -5.90877 -3.88583 0
M  V30 18654 H 916.792 -6.6596 -2.58858 0
M  V30 18655 H 918.626 -8.16339 -3.92049 0
M  V30 18656 P 916.755 -8.7635 -1.60911 0
M  V30 18657 O 916.535 -10.1388 -1.11561 0
M  V30 18658 O 915.965 -8.36503 -2.79617 0
M  V30 18659 O 916.505 -7.71806 -0.42951 0
M  V30 18660 C 917.445 -7.67148 0.673689 0
M  V30 18661 C 916.715 -7.33374 1.95559 0
M  V30 18662 O 916.505 -5.88721 2.00726 0
M  V30 18663 C 915.315 -7.92526 2.10483 0
M  V30 18664 O 914.925 -8.02971 3.47653 0
M  V30 18665 C 914.435 -6.89602 1.41652 0
M  V30 18666 C 915.145 -5.59201 1.75185 0
M  V30 18667 N 915.095 -4.58235 0.662552 0
M  V30 18668 H 917.934 -8.65116 0.777161 0
M  V30 18669 H 918.206 -6.90173 0.474152 0
M  V30 18670 H 917.338 -7.66548 2.79458 0
M  V30 18671 P 913.375 -8.03563 3.84925 0
M  V30 18672 O 913.155 -8.85821 5.0569 0
M  V30 18673 O 912.585 -8.41101 2.65469 0
M  V30 18674 O 913.125 -6.4965 4.18908 0
M  V30 18675 C 914.065 -5.81037 5.05421 0
M  V30 18676 C 913.335 -4.78366 5.89277 0
M  V30 18677 O 913.125 -3.58302 5.08433 0
M  V30 18678 C 911.935 -5.17448 6.36119 0
M  V30 18679 O 911.545 -4.45271 7.53232 0
M  V30 18680 C 911.055 -4.74639 5.19936 0
M  V30 18681 C 911.765 -3.49432 4.70418 0
M  V30 18682 N 911.715 -3.32099 3.22613 0
M  V30 18683 H 914.554 -6.54213 5.71376 0
M  V30 18684 H 914.826 -5.30936 4.43503 0
M  V30 18685 H 913.958 -4.55889 6.76652 0
M  V30 18686 H 911.303 -2.61715 5.17932 0
M  V30 18687 H 911.023 -5.52155 4.41878 0
M  V30 18688 H 910.032 -4.51981 5.53374 0
M  V30 18689 H 911.866 -6.25124 6.55234 0
M  V30 18690 P 909.995 -4.23843 7.83734 0
M  V30 18691 O 909.775 -4.19407 9.29784 0
M  V30 18692 O 909.205 -5.24426 7.09156 0
M  V30 18693 O 909.745 -2.7935 7.20758 0
M  V30 18694 C 910.685 -1.7299 7.50419 0
M  V30 18695 C 909.955 -0.406376 7.57911 0
M  V30 18696 O 909.745 0.0897726 6.21935 0
M  V30 18697 C 908.555 -0.447224 8.1878 0
M  V30 18698 O 908.165 0.825065 8.71101 0
M  V30 18699 C 907.675 -0.783801 6.99623 0
M  V30 18700 C 908.385 -0.0619192 5.85967 0
M  V30 18701 N 908.335 -0.790462 4.56202 0
M  V30 18702 H 911.174 -1.93423 8.4679 0
M  V30 18703 H 911.446 -1.68852 6.70877 0
M  V30 18704 H 910.578 0.289041 8.15388 0
M  V30 18705 H 907.923 0.927006 5.72848 0
M  V30 18706 H 907.643 -1.86973 6.82036 0
M  V30 18707 H 906.652 -0.403953 7.13357 0
M  V30 18708 H 908.486 -1.20599 8.97534 0
M  V30 18709 P 906.615 1.17771 8.83182 0
M  V30 18710 O 906.395 2.07206 9.98732 0
M  V30 18711 O 905.825 -0.0743816 8.81969 0
M  V30 18712 O 906.365 1.97652 7.47304 0
M  V30 18713 C 907.305 3.01133 7.08783 0
M  V30 18714 C 906.575 4.12613 6.37049 0
M  V30 18715 O 906.365 3.72827 4.97879 0
M  V30 18716 C 905.175 4.45085 6.88694 0
M  V30 18717 O 904.785 5.7877 6.5624 0
M  V30 18718 C 904.295 3.47817 6.12078 0
M  V30 18719 C 905.005 3.39414 4.77697 0
M  V30 18720 N 904.955 2.04615 4.15333 0
M  V30 18721 C 905.035 0.803897 4.75249 0
M  V30 18722 N 904.955 -0.197615 3.91502 0
M  V30 18723 C 904.815 0.413002 2.66823 0
M  V30 18724 C 904.685 -0.157221 1.38007 0
M  V30 18725 O 904.665 -1.34419 1.057 0
M  V30 18726 N 904.565 0.833136 0.390236 0
M  V30 18727 C 904.565 2.19402 0.623885 0
M  V30 18728 N 904.435 2.97622 -0.449677 0
M  V30 18729 N 904.695 2.73005 1.83601 0
M  V30 18730 C 904.815 1.78786 2.80935 0
M  V30 18731 H 907.794 3.41248 7.98759 0
M  V30 18732 H 908.066 2.5837 6.41742 0
M  V30 18733 H 907.198 5.02657 6.42673 0
M  V30 18734 H 904.543 4.11779 4.09026 0
M  V30 18735 H 904.263 2.49661 6.61772 0
M  V30 18736 H 903.272 3.86674 6.00946 0
M  V30 18737 H 905.106 4.30038 7.97094 0
M  V30 18738 H 905.155 0.670579 5.82754 0
M  V30 18739 H 904.473 0.528446 -0.557287 0
M  V30 18740 H 904.436 4.00117 -0.344773 0
M  V30 18741 H 904.335 2.55448 -1.38544 0
M  V30 18742 P 903.235 6.144 6.45285 0
M  V30 18743 O 903.015 7.54673 6.86199 0
M  V30 18744 O 902.445 5.12391 7.179 0
M  V30 18745 O 902.985 5.99158 4.88404 0
M  V30 18746 C 903.925 6.60234 3.96415 0
M  V30 18747 C 903.195 7.08259 2.72856 0
M  V30 18748 O 902.985 5.9427 1.83651 0
M  V30 18749 C 901.795 7.64886 2.9555 0
M  V30 18750 O 901.405 8.53963 1.90717 0
M  V30 18751 C 900.915 6.4116 2.90739 0
M  V30 18752 C 901.625 5.55375 1.86963 0
M  V30 18753 N 901.575 4.09664 2.15742 0
M  V30 18754 H 904.414 7.45574 4.45629 0
M  V30 18755 H 904.686 5.86232 3.67314 0
M  V30 18756 H 903.818 7.84412 2.24479 0
M  V30 18757 P 899.855 8.7635 1.60911 0
M  V30 18758 O 899.635 10.1388 1.11561 0
M  V30 18759 O 899.065 8.36503 2.79617 0
M  V30 18760 O 899.605 7.71806 0.42951 0
M  V30 18761 C 900.545 7.67148 -0.673689 0
M  V30 18762 C 899.815 7.33374 -1.95559 0
M  V30 18763 O 899.605 5.88721 -2.00726 0
M  V30 18764 C 898.415 7.92526 -2.10483 0
M  V30 18765 O 898.025 8.02971 -3.47653 0
M  V30 18766 C 897.535 6.89602 -1.41652 0
M  V30 18767 C 898.245 5.59201 -1.75185 0
M  V30 18768 N 898.195 4.58235 -0.662552 0
M  V30 18769 H 901.034 8.65116 -0.777161 0
M  V30 18770 H 901.306 6.90173 -0.474152 0
M  V30 18771 H 900.438 7.66548 -2.79458 0
M  V30 18772 P 896.475 8.03563 -3.84925 0
M  V30 18773 O 896.255 8.85821 -5.0569 0
M  V30 18774 O 895.685 8.41101 -2.65469 0
M  V30 18775 O 896.225 6.4965 -4.18908 0
M  V30 18776 C 897.165 5.81037 -5.05421 0
M  V30 18777 C 896.435 4.78366 -5.89277 0
M  V30 18778 O 896.225 3.58302 -5.08433 0
M  V30 18779 C 895.035 5.17448 -6.36119 0
M  V30 18780 O 894.645 4.45271 -7.53232 0
M  V30 18781 C 894.155 4.74639 -5.19936 0
M  V30 18782 C 894.865 3.49432 -4.70418 0
M  V30 18783 N 894.815 3.31776 -3.22945 0
M  V30 18784 H 897.654 6.54213 -5.71376 0
M  V30 18785 H 897.926 5.30492 -4.44033 0
M  V30 18786 H 897.058 4.55889 -6.76652 0
M  V30 18787 P 893.095 4.23843 -7.83734 0
M  V30 18788 O 892.875 4.19407 -9.29784 0
M  V30 18789 O 892.305 5.24426 -7.09156 0
M  V30 18790 O 892.845 2.7935 -7.20758 0
M  V30 18791 C 893.785 1.7299 -7.50419 0
M  V30 18792 C 893.055 0.406376 -7.57911 0
M  V30 18793 O 892.845 -0.0897726 -6.21935 0
M  V30 18794 C 891.655 0.447224 -8.1878 0
M  V30 18795 O 891.265 -0.825065 -8.71101 0
M  V30 18796 C 890.775 0.783801 -6.99623 0
M  V30 18797 C 891.485 0.0619192 -5.85967 0
M  V30 18798 N 891.435 0.7859 -4.56281 0
M  V30 18799 H 894.274 1.93423 -8.4679 0
M  V30 18800 H 894.546 1.68181 -6.71046 0
M  V30 18801 H 893.678 -0.289041 -8.15388 0
M  V30 18802 P 889.715 -1.17771 -8.83182 0
M  V30 18803 O 889.495 -2.07206 -9.98732 0
M  V30 18804 O 888.925 0.0743816 -8.81969 0
M  V30 18805 O 889.465 -1.97652 -7.47304 0
M  V30 18806 C 890.405 -3.01133 -7.08783 0
M  V30 18807 C 889.675 -4.12613 -6.37049 0
M  V30 18808 O 889.465 -3.72827 -4.97879 0
M  V30 18809 C 888.275 -4.45085 -6.88694 0
M  V30 18810 O 887.885 -5.7877 -6.5624 0
M  V30 18811 C 887.395 -3.47817 -6.12078 0
M  V30 18812 C 888.105 -3.39414 -4.77697 0
M  V30 18813 N 888.055 -2.04615 -4.15333 0
M  V30 18814 H 890.894 -3.41248 -7.98759 0
M  V30 18815 H 891.166 -2.5837 -6.41742 0
M  V30 18816 H 890.298 -5.02657 -6.42673 0
M  V30 18817 P 886.335 -6.144 -6.45285 0
M  V30 18818 O 886.115 -7.54673 -6.86199 0
M  V30 18819 O 885.545 -5.12391 -7.179 0
M  V30 18820 O 886.085 -5.99158 -4.88404 0
M  V30 18821 C 887.025 -6.60234 -3.96415 0
M  V30 18822 C 886.295 -7.08259 -2.72856 0
M  V30 18823 O 886.085 -5.9427 -1.83651 0
M  V30 18824 C 884.895 -7.64886 -2.9555 0
M  V30 18825 O 884.505 -8.53963 -1.90717 0
M  V30 18826 C 884.015 -6.4116 -2.90739 0
M  V30 18827 C 884.725 -5.55375 -1.86963 0
M  V30 18828 N 884.675 -4.09664 -2.15742 0
M  V30 18829 C 884.755 -3.44381 -3.37233 0
M  V30 18830 N 884.675 -2.14131 -3.28347 0
M  V30 18831 C 884.535 -1.90247 -1.91588 0
M  V30 18832 C 884.405 -0.683992 -1.20892 0
M  V30 18833 N 884.285 -0.903396 0.173998 0
M  V30 18834 C 884.285 -2.14171 0.784879 0
M  V30 18835 N 884.155 -2.1435 2.11317 0
M  V30 18836 N 884.415 -3.28784 0.119316 0
M  V30 18837 C 884.535 -3.0977 -1.22194 0
M  V30 18838 H 887.514 -7.45574 -4.45629 0
M  V30 18839 H 887.786 -5.86232 -3.67314 0
M  V30 18840 H 886.918 -7.84412 -2.24479 0
M  V30 18841 P 882.955 -8.7635 -1.60911 0
M  V30 18842 O 882.735 -10.1388 -1.11561 0
M  V30 18843 O 882.165 -8.36503 -2.79617 0
M  V30 18844 O 882.705 -7.71806 -0.42951 0
M  V30 18845 C 883.645 -7.67148 0.673689 0
M  V30 18846 C 882.915 -7.33374 1.95559 0
M  V30 18847 O 882.705 -5.88721 2.00726 0
M  V30 18848 C 881.515 -7.92526 2.10483 0
M  V30 18849 O 881.125 -8.02971 3.47653 0
M  V30 18850 C 880.635 -6.89602 1.41652 0
M  V30 18851 C 881.345 -5.59201 1.75185 0
M  V30 18852 N 881.295 -4.58301 0.657969 0
M  V30 18853 H 884.134 -8.65116 0.777161 0
M  V30 18854 H 884.406 -6.9022 0.46725 0
M  V30 18855 H 883.538 -7.66548 2.79458 0
M  V30 18856 H 880.883 -5.16165 2.65183 0
M  V30 18857 H 880.603 -7.06433 0.329384 0
M  V30 18858 H 879.612 -6.90926 1.82021 0
M  V30 18859 H 881.446 -8.90873 1.62657 0
M  V30 18860 P 879.575 -8.03563 3.84925 0
M  V30 18861 O 879.355 -8.85821 5.0569 0
M  V30 18862 O 878.785 -8.41101 2.65469 0
M  V30 18863 O 879.325 -6.4965 4.18908 0
M  V30 18864 C 880.265 -5.81037 5.05421 0
M  V30 18865 C 879.535 -4.78366 5.89277 0
M  V30 18866 O 879.325 -3.58302 5.08433 0
M  V30 18867 C 878.135 -5.17448 6.36119 0
M  V30 18868 O 877.745 -4.45271 7.53232 0
M  V30 18869 C 877.255 -4.74639 5.19936 0
M  V30 18870 C 877.965 -3.49432 4.70418 0
M  V30 18871 N 877.915 -3.31776 3.22945 0
M  V30 18872 H 880.754 -6.54213 5.71376 0
M  V30 18873 H 881.026 -5.30492 4.44033 0
M  V30 18874 H 880.158 -4.55889 6.76652 0
M  V30 18875 P 876.195 -4.23843 7.83734 0
M  V30 18876 O 875.975 -4.19407 9.29784 0
M  V30 18877 O 875.405 -5.24426 7.09156 0
M  V30 18878 O 875.945 -2.7935 7.20758 0
M  V30 18879 C 876.885 -1.7299 7.50419 0
M  V30 18880 C 876.155 -0.406376 7.57911 0
M  V30 18881 O 875.945 0.0897726 6.21935 0
M  V30 18882 C 874.755 -0.447224 8.1878 0
M  V30 18883 O 874.365 0.825065 8.71101 0
M  V30 18884 C 873.875 -0.783801 6.99623 0
M  V30 18885 C 874.585 -0.0619192 5.85967 0
M  V30 18886 N 874.535 -0.790462 4.56202 0
M  V30 18887 H 877.374 -1.93423 8.4679 0
M  V30 18888 H 877.646 -1.68852 6.70877 0
M  V30 18889 H 876.778 0.289041 8.15388 0
M  V30 18890 H 874.123 0.927006 5.72848 0
M  V30 18891 H 873.843 -1.86973 6.82036 0
M  V30 18892 H 872.852 -0.403953 7.13357 0
M  V30 18893 H 874.686 -1.20599 8.97534 0
M  V30 18894 P 872.815 1.17771 8.83182 0
M  V30 18895 O 872.595 2.07206 9.98732 0
M  V30 18896 O 872.025 -0.0743816 8.81969 0
M  V30 18897 O 872.565 1.97652 7.47304 0
M  V30 18898 C 873.505 3.01133 7.08783 0
M  V30 18899 C 872.775 4.12613 6.37049 0
M  V30 18900 O 872.565 3.72827 4.97879 0
M  V30 18901 C 871.375 4.45085 6.88694 0
M  V30 18902 O 870.985 5.7877 6.5624 0
M  V30 18903 C 870.495 3.47817 6.12078 0
M  V30 18904 C 871.205 3.39414 4.77697 0
M  V30 18905 N 871.155 2.04615 4.15333 0
M  V30 18906 H 873.994 3.41248 7.98759 0
M  V30 18907 H 874.266 2.5837 6.41742 0
M  V30 18908 H 873.398 5.02657 6.42673 0
M  V30 18909 P 869.435 6.144 6.45285 0
M  V30 18910 O 869.215 7.54673 6.86199 0
M  V30 18911 O 868.645 5.12391 7.179 0
M  V30 18912 O 869.185 5.99158 4.88404 0
M  V30 18913 C 870.125 6.60234 3.96415 0
M  V30 18914 C 869.395 7.08259 2.72856 0
M  V30 18915 O 869.185 5.9427 1.83651 0
M  V30 18916 C 867.995 7.64886 2.9555 0
M  V30 18917 O 867.605 8.53963 1.90717 0
M  V30 18918 C 867.115 6.4116 2.90739 0
M  V30 18919 C 867.825 5.55375 1.86963 0
M  V30 18920 N 867.775 4.09664 2.15742 0
M  V30 18921 H 870.614 7.45574 4.45629 0
M  V30 18922 H 870.886 5.86232 3.67314 0
M  V30 18923 H 870.018 7.84412 2.24479 0
M  V30 18924 P 866.055 8.7635 1.60911 0
M  V30 18925 O 865.835 10.1388 1.11561 0
M  V30 18926 O 865.265 8.36503 2.79617 0
M  V30 18927 O 865.805 7.71806 0.42951 0
M  V30 18928 C 866.745 7.67148 -0.673689 0
M  V30 18929 C 866.015 7.33374 -1.95559 0
M  V30 18930 O 865.805 5.88721 -2.00726 0
M  V30 18931 C 864.615 7.92526 -2.10483 0
M  V30 18932 O 864.225 8.02971 -3.47653 0
M  V30 18933 C 863.735 6.89602 -1.41652 0
M  V30 18934 C 864.445 5.59201 -1.75185 0
M  V30 18935 N 864.395 4.58235 -0.662552 0
M  V30 18936 H 867.234 8.65116 -0.777161 0
M  V30 18937 H 867.506 6.90173 -0.474152 0
M  V30 18938 H 866.638 7.66548 -2.79458 0
M  V30 18939 P 862.675 8.03563 -3.84925 0
M  V30 18940 O 862.455 8.85821 -5.0569 0
M  V30 18941 O 861.885 8.41101 -2.65469 0
M  V30 18942 O 862.425 6.4965 -4.18908 0
M  V30 18943 C 863.365 5.81037 -5.05421 0
M  V30 18944 C 862.635 4.78366 -5.89277 0
M  V30 18945 O 862.425 3.58302 -5.08433 0
M  V30 18946 C 861.235 5.17448 -6.36119 0
M  V30 18947 O 860.845 4.45271 -7.53232 0
M  V30 18948 C 860.355 4.74639 -5.19936 0
M  V30 18949 C 861.065 3.49432 -4.70418 0
M  V30 18950 N 861.015 3.32099 -3.22613 0
M  V30 18951 H 863.854 6.54213 -5.71376 0
M  V30 18952 H 864.126 5.30936 -4.43503 0
M  V30 18953 H 863.258 4.55889 -6.76652 0
M  V30 18954 H 860.603 2.61715 -5.17932 0
M  V30 18955 H 860.323 5.52155 -4.41878 0
M  V30 18956 H 859.332 4.51981 -5.53374 0
M  V30 18957 H 861.166 6.25124 -6.55234 0
M  V30 18958 P 859.295 4.23843 -7.83734 0
M  V30 18959 O 859.075 4.19407 -9.29784 0
M  V30 18960 O 858.505 5.24426 -7.09156 0
M  V30 18961 O 859.045 2.7935 -7.20758 0
M  V30 18962 C 859.985 1.7299 -7.50419 0
M  V30 18963 C 859.255 0.406376 -7.57911 0
M  V30 18964 O 859.045 -0.0897726 -6.21935 0
M  V30 18965 C 857.855 0.447224 -8.1878 0
M  V30 18966 O 857.465 -0.825065 -8.71101 0
M  V30 18967 C 856.975 0.783801 -6.99623 0
M  V30 18968 C 857.685 0.0619192 -5.85967 0
M  V30 18969 N 857.635 0.7859 -4.56281 0
M  V30 18970 H 860.474 1.93423 -8.4679 0
M  V30 18971 H 860.746 1.68181 -6.71046 0
M  V30 18972 H 859.878 -0.289041 -8.15388 0
M  V30 18973 P 855.915 -1.17771 -8.83182 0
M  V30 18974 O 855.695 -2.07206 -9.98732 0
M  V30 18975 O 855.125 0.0743816 -8.81969 0
M  V30 18976 O 855.665 -1.97652 -7.47304 0
M  V30 18977 C 856.605 -3.01133 -7.08783 0
M  V30 18978 C 855.875 -4.12613 -6.37049 0
M  V30 18979 O 855.665 -3.72827 -4.97879 0
M  V30 18980 C 854.475 -4.45085 -6.88694 0
M  V30 18981 O 854.085 -5.7877 -6.5624 0
M  V30 18982 C 853.595 -3.47817 -6.12078 0
M  V30 18983 C 854.305 -3.39414 -4.77697 0
M  V30 18984 N 854.255 -2.04199 -4.15538 0
M  V30 18985 C 854.335 -0.821545 -4.76977 0
M  V30 18986 N 854.265 0.1794 -3.94592 0
M  V30 18987 C 854.115 -0.419121 -2.70776 0
M  V30 18988 C 853.985 0.109072 -1.40577 0
M  V30 18989 N 853.975 1.4104 -1.1344 0
M  V30 18990 N 853.865 -0.764381 -0.39411 0
M  V30 18991 C 853.875 -2.06587 -0.664135 0
M  V30 18992 N 853.995 -2.67948 -1.82153 0
M  V30 18993 C 854.115 -1.77942 -2.8147 0
M  V30 18994 H 857.094 -3.41248 -7.98759 0
M  V30 18995 H 857.366 -2.57728 -6.42 0
M  V30 18996 H 856.498 -5.02657 -6.42673 0
M  V30 18997 H 853.843 -4.11708 -4.08956 0
M  V30 18998 H 853.563 -2.49626 -6.61679 0
M  V30 18999 H 852.572 -3.8662 -6.00862 0
M  V30 19000 H 854.406 -4.29991 -7.97006 0
M  V30 19001 H 854.447 -0.702451 -5.84696 0
M  V30 19002 H 854.066 2.09647 -1.89651 0
M  V30 19003 H 853.877 1.73358 -0.160575 0
M  V30 19004 H 853.769 -2.71695 0.195838 0
M  V30 19005 P 852.535 -6.144 -6.45285 0
M  V30 19006 O 852.315 -7.54673 -6.86199 0
M  V30 19007 O 851.745 -5.12391 -7.179 0
M  V30 19008 O 852.285 -5.99158 -4.88404 0
M  V30 19009 C 853.225 -6.60234 -3.96415 0
M  V30 19010 C 852.495 -7.08259 -2.72856 0
M  V30 19011 O 852.285 -5.9427 -1.83651 0
M  V30 19012 C 851.095 -7.64886 -2.9555 0
M  V30 19013 O 850.705 -8.53963 -1.90717 0
M  V30 19014 C 850.215 -6.4116 -2.90739 0
M  V30 19015 C 850.925 -5.55375 -1.86963 0
M  V30 19016 N 850.875 -4.09664 -2.15742 0
M  V30 19017 H 853.714 -7.45574 -4.45629 0
M  V30 19018 H 853.986 -5.86232 -3.67314 0
M  V30 19019 H 853.118 -7.84412 -2.24479 0
M  V30 19020 P 849.155 -8.7635 -1.60911 0
M  V30 19021 O 848.935 -10.1388 -1.11561 0
M  V30 19022 O 848.365 -8.36503 -2.79617 0
M  V30 19023 O 848.905 -7.71806 -0.42951 0
M  V30 19024 C 849.845 -7.66948 0.673514 0
M  V30 19025 C 849.115 -7.33374 1.95559 0
M  V30 19026 O 848.905 -5.88721 2.00726 0
M  V30 19027 C 847.715 -7.92218 2.1125 0
M  V30 19028 O 847.325 -8.02971 3.47653 0
M  V30 19029 C 846.835 -6.89504 1.41631 0
M  V30 19030 C 847.545 -5.59106 1.75155 0
M  V30 19031 N 847.495 -4.58136 0.662409 0
M  V30 19032 C 847.345 -3.26059 1.02863 0
M  V30 19033 O 847.255 -2.90743 2.19009 0
M  V30 19034 N 847.305 -2.35995 -0.0155585 0
M  V30 19035 C 847.395 -2.65248 -1.35603 0
M  V30 19036 O 847.345 -1.75605 -2.20651 0
M  V30 19037 C 847.545 -4.05747 -1.64698 0
M  V30 19038 C 847.655 -4.42345 -3.09553 0
M  V30 19039 C 847.595 -4.96734 -0.652411 0
M  V30 19040 H 850.336 -8.64917 0.776982 0
M  V30 19041 H 850.605 -6.89974 0.474015 0
M  V30 19042 H 849.738 -7.66548 2.79458 0
M  V30 19043 H 847.083 -5.16076 2.65138 0
M  V30 19044 H 846.804 -7.06433 0.329384 0
M  V30 19045 H 845.812 -6.90829 1.81996 0
M  V30 19046 H 847.646 -8.90774 1.62639 0
M  V30 19047 H 847.717 -6.02181 -0.895285 0
M  V30 19048 H 846.687 -4.80252 -3.45468 0
M  V30 19049 H 848.424 -5.20015 -3.22119 0
M  V30 19050 H 847.936 -3.53269 -3.67833 0
M  V30 19051 H 847.2 -1.39558 0.227499 0
M  V30 19052 P 845.775 -8.03563 3.84925 0
M  V30 19053 O 845.555 -8.85821 5.0569 0
M  V30 19054 O 844.985 -8.41101 2.65469 0
M  V30 19055 O 845.525 -6.4965 4.18908 0
M  V30 19056 C 846.465 -5.80886 5.05289 0
M  V30 19057 C 845.735 -4.78366 5.89277 0
M  V30 19058 O 845.525 -3.58302 5.08433 0
M  V30 19059 C 844.335 -5.16748 6.36559 0
M  V30 19060 O 843.945 -4.45271 7.53232 0
M  V30 19061 C 843.455 -4.74572 5.19863 0
M  V30 19062 C 844.165 -3.49373 4.70338 0
M  V30 19063 N 844.115 -3.31704 3.22876 0
M  V30 19064 C 843.965 -2.03326 2.74871 0
M  V30 19065 O 843.875 -1.06486 3.48076 0
M  V30 19066 N 843.925 -1.91838 1.37456 0
M  V30 19067 C 844.015 -2.94295 0.462035 0
M  V30 19068 O 843.965 -2.71763 -0.752928 0
M  V30 19069 C 844.165 -4.25064 1.05249 0
M  V30 19070 C 844.275 -5.39815 0.095697 0
M  V30 19071 C 844.215 -4.40214 2.39192 0
M  V30 19072 H 846.956 -6.54063 5.71245 0
M  V30 19073 H 847.225 -5.30339 4.43905 0
M  V30 19074 H 846.358 -4.55889 6.76652 0
M  V30 19075 H 843.703 -2.6167 5.17842 0
M  V30 19076 H 843.424 -5.52155 4.41878 0
M  V30 19077 H 842.432 -4.51918 5.53297 0
M  V30 19078 H 844.266 -6.25055 6.55162 0
M  V30 19079 H 844.337 -5.39798 2.81523 0
M  V30 19080 H 843.307 -5.91593 0.0279582 0
M  V30 19081 H 845.044 -6.10038 0.450573 0
M  V30 19082 H 844.556 -5.02007 -0.89937 0
M  V30 19083 H 843.82 -0.995326 1.00435 0
M  V30 19084 P 842.395 -4.23843 7.83734 0
M  V30 19085 O 842.175 -4.19407 9.29784 0
M  V30 19086 O 841.605 -5.24426 7.09156 0
M  V30 19087 O 842.145 -2.7935 7.20758 0
M  V30 19088 C 843.085 -1.7299 7.50419 0
M  V30 19089 C 842.355 -0.406376 7.57911 0
M  V30 19090 O 842.145 0.0897726 6.21935 0
M  V30 19091 C 840.955 -0.447224 8.1878 0
M  V30 19092 O 840.565 0.825065 8.71101 0
M  V30 19093 C 840.075 -0.783801 6.99623 0
M  V30 19094 C 840.785 -0.0619192 5.85967 0
M  V30 19095 N 840.735 -0.7859 4.56281 0
M  V30 19096 H 843.574 -1.93423 8.4679 0
M  V30 19097 H 843.846 -1.68181 6.71046 0
M  V30 19098 H 842.978 0.289041 8.15388 0
M  V30 19099 P 839.015 1.17771 8.83182 0
M  V30 19100 O 838.795 2.07206 9.98732 0
M  V30 19101 O 838.225 -0.0743816 8.81969 0
M  V30 19102 O 838.765 1.97652 7.47304 0
M  V30 19103 C 839.705 3.01133 7.08783 0
M  V30 19104 C 838.975 4.12613 6.37049 0
M  V30 19105 O 838.765 3.72827 4.97879 0
M  V30 19106 C 837.575 4.45085 6.88694 0
M  V30 19107 O 837.185 5.7877 6.5624 0
M  V30 19108 C 836.695 3.47817 6.12078 0
M  V30 19109 C 837.405 3.39414 4.77697 0
M  V30 19110 N 837.355 2.04615 4.15333 0
M  V30 19111 H 840.194 3.41248 7.98759 0
M  V30 19112 H 840.466 2.5837 6.41742 0
M  V30 19113 H 839.598 5.02657 6.42673 0
M  V30 19114 P 835.635 6.144 6.45285 0
M  V30 19115 O 835.415 7.54673 6.86199 0
M  V30 19116 O 834.845 5.12391 7.179 0
M  V30 19117 O 835.385 5.99158 4.88404 0
M  V30 19118 C 836.325 6.60234 3.96415 0
M  V30 19119 C 835.595 7.08259 2.72856 0
M  V30 19120 O 835.385 5.9427 1.83651 0
M  V30 19121 C 834.195 7.64886 2.9555 0
M  V30 19122 O 833.805 8.53963 1.90717 0
M  V30 19123 C 833.315 6.4116 2.90739 0
M  V30 19124 C 834.025 5.55375 1.86963 0
M  V30 19125 N 833.975 4.09448 2.16152 0
M  V30 19126 C 834.055 3.46824 3.37593 0
M  V30 19127 N 833.985 2.17422 3.29777 0
M  V30 19128 C 833.835 1.93065 1.94427 0
M  V30 19129 C 833.705 0.738053 1.20141 0
M  V30 19130 N 833.695 -0.474256 1.74676 0
M  V30 19131 N 833.585 0.850049 -0.13045 0
M  V30 19132 C 833.595 2.06169 -0.676992 0
M  V30 19133 N 833.715 3.23842 -0.101312 0
M  V30 19134 C 833.835 3.09402 1.23122 0
M  V30 19135 H 836.814 7.45574 4.45629 0
M  V30 19136 H 837.086 5.85864 3.679 0
M  V30 19137 H 836.218 7.84412 2.24479 0
M  V30 19138 H 833.563 5.73457 0.888562 0
M  V30 19139 H 833.283 5.90877 3.88583 0
M  V30 19140 H 832.292 6.6596 2.58858 0
M  V30 19141 H 834.126 8.16339 3.92049 0
M  V30 19142 H 834.167 4.00505 4.3174 0
M  V30 19143 H 833.786 -0.581337 2.76658 0
M  V30 19144 H 833.597 -1.30811 1.14888 0
M  V30 19145 H 833.489 2.08295 -1.75542 0
M  V30 19146 P 832.255 8.7635 1.60911 0
M  V30 19147 O 832.035 10.1388 1.11561 0
M  V30 19148 O 831.465 8.36503 2.79617 0
M  V30 19149 O 832.005 7.71806 0.42951 0
M  V30 19150 C 832.945 7.67148 -0.673689 0
M  V30 19151 C 832.215 7.33374 -1.95559 0
M  V30 19152 O 832.005 5.88721 -2.00726 0
M  V30 19153 C 830.815 7.92526 -2.10483 0
M  V30 19154 O 830.425 8.02971 -3.47653 0
M  V30 19155 C 829.935 6.89602 -1.41652 0
M  V30 19156 C 830.645 5.59201 -1.75185 0
M  V30 19157 N 830.595 4.58235 -0.662552 0
M  V30 19158 H 833.434 8.65116 -0.777161 0
M  V30 19159 H 833.706 6.90173 -0.474152 0
M  V30 19160 H 832.838 7.66548 -2.79458 0
M  V30 19161 P 828.875 8.03563 -3.84925 0
M  V30 19162 O 828.655 8.85821 -5.0569 0
M  V30 19163 O 828.085 8.41101 -2.65469 0
M  V30 19164 O 828.625 6.4965 -4.18908 0
M  V30 19165 C 829.565 5.81037 -5.05421 0
M  V30 19166 C 828.835 4.78366 -5.89277 0
M  V30 19167 O 828.625 3.58302 -5.08433 0
M  V30 19168 C 827.435 5.17448 -6.36119 0
M  V30 19169 O 827.045 4.45271 -7.53232 0
M  V30 19170 C 826.555 4.74639 -5.19936 0
M  V30 19171 C 827.265 3.49432 -4.70418 0
M  V30 19172 N 827.215 3.32099 -3.22613 0
M  V30 19173 C 827.295 4.28245 -2.25527 0
M  V30 19174 N 827.225 3.80823 -1.04874 0
M  V30 19175 C 827.075 2.44571 -1.23535 0
M  V30 19176 C 826.945 1.37068 -0.330675 0
M  V30 19177 N 826.935 1.51472 0.990824 0
M  V30 19178 N 826.825 0.138614 -0.848756 0
M  V30 19179 C 826.835 -0.00675923 -2.16999 0
M  V30 19180 N 826.955 0.904372 -3.11122 0
M  V30 19181 C 827.075 2.12707 -2.56212 0
M  V30 19182 H 830.054 6.54213 -5.71376 0
M  V30 19183 H 830.326 5.30936 -4.43503 0
M  V30 19184 H 829.458 4.55889 -6.76652 0
M  V30 19185 H 826.803 2.61715 -5.17932 0
M  V30 19186 H 826.523 5.52155 -4.41878 0
M  V30 19187 H 825.532 4.51981 -5.53374 0
M  V30 19188 H 827.366 6.25124 -6.55234 0
M  V30 19189 H 827.407 5.34372 -2.47488 0
M  V30 19190 H 827.026 2.45153 1.4078 0
M  V30 19191 H 826.837 0.688422 1.59911 0
M  V30 19192 H 826.729 -1.02584 -2.52346 0
M  V30 19193 P 825.495 4.23843 -7.83734 0
M  V30 19194 O 825.275 4.19407 -9.29784 0
M  V30 19195 O 824.705 5.24426 -7.09156 0
M  V30 19196 O 825.245 2.7935 -7.20758 0
M  V30 19197 C 826.185 1.7299 -7.50419 0
M  V30 19198 C 825.455 0.406376 -7.57911 0
M  V30 19199 O 825.245 -0.0897726 -6.21935 0
M  V30 19200 C 824.055 0.447224 -8.1878 0
M  V30 19201 O 823.665 -0.825065 -8.71101 0
M  V30 19202 C 823.175 0.783801 -6.99623 0
M  V30 19203 C 823.885 0.0619192 -5.85967 0
M  V30 19204 N 823.835 0.7859 -4.56281 0
M  V30 19205 H 826.674 1.93423 -8.4679 0
M  V30 19206 H 826.946 1.68181 -6.71046 0
M  V30 19207 H 826.078 -0.289041 -8.15388 0
M  V30 19208 P 822.115 -1.17771 -8.83182 0
M  V30 19209 O 821.895 -2.07206 -9.98732 0
M  V30 19210 O 821.325 0.0743816 -8.81969 0
M  V30 19211 O 821.865 -1.97652 -7.47304 0
M  V30 19212 C 822.805 -3.01133 -7.08783 0
M  V30 19213 C 822.075 -4.12613 -6.37049 0
M  V30 19214 O 821.865 -3.72827 -4.97879 0
M  V30 19215 C 820.675 -4.45085 -6.88694 0
M  V30 19216 O 820.285 -5.7877 -6.5624 0
M  V30 19217 C 819.795 -3.47817 -6.12078 0
M  V30 19218 C 820.505 -3.39414 -4.77697 0
M  V30 19219 N 820.455 -2.04199 -4.15538 0
M  V30 19220 H 823.294 -3.41248 -7.98759 0
M  V30 19221 H 823.566 -2.57728 -6.42 0
M  V30 19222 H 822.698 -5.02657 -6.42673 0
M  V30 19223 H 820.043 -4.11708 -4.08956 0
M  V30 19224 H 819.763 -2.49626 -6.61679 0
M  V30 19225 H 818.772 -3.8662 -6.00862 0
M  V30 19226 H 820.606 -4.29991 -7.97006 0
M  V30 19227 P 818.735 -6.144 -6.45285 0
M  V30 19228 O 818.515 -7.54673 -6.86199 0
M  V30 19229 O 817.945 -5.12391 -7.179 0
M  V30 19230 O 818.485 -5.99158 -4.88404 0
M  V30 19231 C 819.425 -6.60234 -3.96415 0
M  V30 19232 C 818.695 -7.08259 -2.72856 0
M  V30 19233 O 818.485 -5.9427 -1.83651 0
M  V30 19234 C 817.295 -7.64886 -2.9555 0
M  V30 19235 O 816.905 -8.53963 -1.90717 0
M  V30 19236 C 816.415 -6.4116 -2.90739 0
M  V30 19237 C 817.125 -5.55375 -1.86963 0
M  V30 19238 N 817.075 -4.09448 -2.16152 0
M  V30 19239 H 819.914 -7.45574 -4.45629 0
M  V30 19240 H 820.186 -5.85864 -3.679 0
M  V30 19241 H 819.318 -7.84412 -2.24479 0
M  V30 19242 H 816.663 -5.73457 -0.888562 0
M  V30 19243 H 816.383 -5.90877 -3.88583 0
M  V30 19244 H 815.392 -6.6596 -2.58858 0
M  V30 19245 H 817.226 -8.16339 -3.92049 0
M  V30 19246 P 815.355 -8.7635 -1.60911 0
M  V30 19247 O 815.135 -10.1388 -1.11561 0
M  V30 19248 O 814.565 -8.36503 -2.79617 0
M  V30 19249 O 815.105 -7.71806 -0.42951 0
M  V30 19250 C 816.045 -7.66948 0.673514 0
M  V30 19251 C 815.315 -7.33374 1.95559 0
M  V30 19252 O 815.105 -5.88721 2.00726 0
M  V30 19253 C 813.915 -7.92218 2.1125 0
M  V30 19254 O 813.525 -8.02971 3.47653 0
M  V30 19255 C 813.035 -6.89504 1.41631 0
M  V30 19256 C 813.745 -5.59106 1.75155 0
M  V30 19257 N 813.695 -4.58136 0.662409 0
M  V30 19258 C 813.545 -3.26059 1.02863 0
M  V30 19259 O 813.455 -2.90743 2.19009 0
M  V30 19260 N 813.505 -2.35995 -0.0155585 0
M  V30 19261 C 813.595 -2.65248 -1.35603 0
M  V30 19262 C 813.745 -4.05747 -1.64698 0
M  V30 19263 C 813.795 -4.96734 -0.652411 0
M  V30 19264 H 816.536 -8.64917 0.776982 0
M  V30 19265 H 816.805 -6.89974 0.474015 0
M  V30 19266 H 815.938 -7.66548 2.79458 0
M  V30 19267 H 813.283 -5.16076 2.65138 0
M  V30 19268 H 813.004 -7.06433 0.329384 0
M  V30 19269 H 812.012 -6.90829 1.81996 0
M  V30 19270 H 813.846 -8.90774 1.62639 0
M  V30 19271 H 813.917 -6.02181 -0.895285 0
M  V30 19272 P 811.975 -8.03563 3.84925 0
M  V30 19273 O 811.755 -8.85821 5.0569 0
M  V30 19274 O 811.185 -8.41101 2.65469 0
M  V30 19275 O 811.725 -6.4965 4.18908 0
M  V30 19276 C 812.665 -5.81037 5.05421 0
M  V30 19277 C 811.935 -4.78366 5.89277 0
M  V30 19278 O 811.725 -3.58302 5.08433 0
M  V30 19279 C 810.535 -5.17448 6.36119 0
M  V30 19280 O 810.145 -4.45271 7.53232 0
M  V30 19281 C 809.655 -4.74639 5.19936 0
M  V30 19282 C 810.365 -3.49432 4.70418 0
M  V30 19283 N 810.315 -3.31776 3.22945 0
M  V30 19284 H 813.154 -6.54213 5.71376 0
M  V30 19285 H 813.426 -5.30492 4.44033 0
M  V30 19286 H 812.558 -4.55889 6.76652 0
M  V30 19287 P 808.595 -4.23843 7.83734 0
M  V30 19288 O 808.375 -4.19407 9.29784 0
M  V30 19289 O 807.805 -5.24426 7.09156 0
M  V30 19290 O 808.345 -2.7935 7.20758 0
M  V30 19291 C 809.285 -1.7299 7.50419 0
M  V30 19292 C 808.555 -0.406376 7.57911 0
M  V30 19293 O 808.345 0.0897726 6.21935 0
M  V30 19294 C 807.155 -0.447224 8.1878 0
M  V30 19295 O 806.765 0.825065 8.71101 0
M  V30 19296 C 806.275 -0.783801 6.99623 0
M  V30 19297 C 806.985 -0.0619192 5.85967 0
M  V30 19298 N 806.935 -0.7859 4.56281 0
M  V30 19299 H 809.774 -1.93423 8.4679 0
M  V30 19300 H 810.046 -1.68181 6.71046 0
M  V30 19301 H 809.178 0.289041 8.15388 0
M  V30 19302 P 805.215 1.17771 8.83182 0
M  V30 19303 O 804.995 2.07206 9.98732 0
M  V30 19304 O 804.425 -0.0743816 8.81969 0
M  V30 19305 O 804.965 1.97652 7.47304 0
M  V30 19306 C 805.905 3.01133 7.08783 0
M  V30 19307 C 805.175 4.12613 6.37049 0
M  V30 19308 O 804.965 3.72827 4.97879 0
M  V30 19309 C 803.775 4.45085 6.88694 0
M  V30 19310 O 803.385 5.7877 6.5624 0
M  V30 19311 C 802.895 3.47817 6.12078 0
M  V30 19312 C 803.605 3.39414 4.77697 0
M  V30 19313 N 803.555 2.04199 4.15538 0
M  V30 19314 H 806.394 3.41248 7.98759 0
M  V30 19315 H 806.666 2.57728 6.42 0
M  V30 19316 H 805.798 5.02657 6.42673 0
M  V30 19317 H 803.143 4.11708 4.08956 0
M  V30 19318 H 802.863 2.49626 6.61679 0
M  V30 19319 H 801.872 3.8662 6.00862 0
M  V30 19320 H 803.706 4.29991 7.97006 0
M  V30 19321 P 801.835 6.144 6.45285 0
M  V30 19322 O 801.615 7.54673 6.86199 0
M  V30 19323 O 801.045 5.12391 7.179 0
M  V30 19324 O 801.585 5.99158 4.88404 0
M  V30 19325 C 802.525 6.60234 3.96415 0
M  V30 19326 C 801.795 7.08259 2.72856 0
M  V30 19327 O 801.585 5.9427 1.83651 0
M  V30 19328 C 800.395 7.64886 2.9555 0
M  V30 19329 O 800.005 8.53963 1.90717 0
M  V30 19330 C 799.515 6.4116 2.90739 0
M  V30 19331 C 800.225 5.55375 1.86963 0
M  V30 19332 N 800.175 4.09664 2.15742 0
M  V30 19333 H 803.014 7.45574 4.45629 0
M  V30 19334 H 803.286 5.86232 3.67314 0
M  V30 19335 H 802.418 7.84412 2.24479 0
M  V30 19336 P 798.455 8.7635 1.60911 0
M  V30 19337 O 798.235 10.1388 1.11561 0
M  V30 19338 O 797.665 8.36503 2.79617 0
M  V30 19339 O 798.205 7.71806 0.42951 0
M  V30 19340 C 799.145 7.67148 -0.673689 0
M  V30 19341 C 798.415 7.33374 -1.95559 0
M  V30 19342 O 798.205 5.88721 -2.00726 0
M  V30 19343 C 797.015 7.92526 -2.10483 0
M  V30 19344 O 796.625 8.02971 -3.47653 0
M  V30 19345 C 796.135 6.89602 -1.41652 0
M  V30 19346 C 796.845 5.59201 -1.75185 0
M  V30 19347 N 796.795 4.58235 -0.662552 0
M  V30 19348 H 799.634 8.65116 -0.777161 0
M  V30 19349 H 799.906 6.90173 -0.474152 0
M  V30 19350 H 799.038 7.66548 -2.79458 0
M  V30 19351 P 795.075 8.03563 -3.84925 0
M  V30 19352 O 794.855 8.85821 -5.0569 0
M  V30 19353 O 794.285 8.41101 -2.65469 0
M  V30 19354 O 794.825 6.4965 -4.18908 0
M  V30 19355 C 795.765 5.81037 -5.05421 0
M  V30 19356 C 795.035 4.78366 -5.89277 0
M  V30 19357 O 794.825 3.58302 -5.08433 0
M  V30 19358 C 793.635 5.17448 -6.36119 0
M  V30 19359 O 793.245 4.45271 -7.53232 0
M  V30 19360 C 792.755 4.74639 -5.19936 0
M  V30 19361 C 793.465 3.49432 -4.70418 0
M  V30 19362 N 793.415 3.31776 -3.22945 0
M  V30 19363 H 796.254 6.54213 -5.71376 0
M  V30 19364 H 796.526 5.30492 -4.44033 0
M  V30 19365 H 795.658 4.55889 -6.76652 0
M  V30 19366 P 791.695 4.23843 -7.83734 0
M  V30 19367 O 791.475 4.19407 -9.29784 0
M  V30 19368 O 790.905 5.24426 -7.09156 0
M  V30 19369 O 791.445 2.79386 -7.20852 0
M  V30 19370 C 792.385 1.7299 -7.50419 0
M  V30 19371 C 791.655 0.41401 -7.5797 0
M  V30 19372 O 791.445 -0.089787 -6.22035 0
M  V30 19373 C 790.255 0.447224 -8.1878 0
M  V30 19374 O 789.865 -0.825159 -8.71201 0
M  V30 19375 C 789.375 0.783801 -6.99623 0
M  V30 19376 C 790.085 0.0619192 -5.85967 0
M  V30 19377 N 790.035 0.7859 -4.56281 0
M  V30 19378 C 789.885 0.0359258 -3.39981 0
M  V30 19379 O 789.795 -1.19723 -3.49038 0
M  V30 19380 N 789.835 0.869151 -2.14025 0
M  V30 19381 C 789.935 2.01207 -2.14363 0
M  V30 19382 N 789.885 2.58978 -0.954287 0
M  V30 19383 C 790.085 2.80817 -3.32215 0
M  V30 19384 C 790.135 2.13785 -4.50884 0
M  V30 19385 H 792.875 1.93401 -8.46693 0
M  V30 19386 H 793.145 1.68181 -6.71046 0
M  V30 19387 H 792.278 -0.289076 -8.15488 0
M  V30 19388 H 789.623 -0.927166 -5.72947 0
M  V30 19389 H 789.343 1.87 -6.82132 0
M  V30 19390 H 788.352 0.404009 -7.13457 0
M  V30 19391 H 790.186 1.20599 -8.97534 0
M  V30 19392 H 790.258 2.70295 -5.43162 0
M  V30 19393 H 790.156 3.89465 -3.27406 0
M  V30 19394 H 789.768 2.01616 -0.107046 0
M  V30 19395 H 789.964 3.61403 -0.873101 0
M  V30 19396 P 788.315 -1.17771 -8.83182 0
M  V30 19397 O 788.095 -2.07206 -9.98732 0
M  V30 19398 O 787.525 0.0743816 -8.81969 0
M  V30 19399 O 788.065 -1.97652 -7.47304 0
M  V30 19400 C 789.005 -3.01055 -7.08599 0
M  V30 19401 C 788.275 -4.12613 -6.37049 0
M  V30 19402 O 788.065 -3.72827 -4.97879 0
M  V30 19403 C 786.875 -4.45719 -6.88164 0
M  V30 19404 O 786.485 -5.7877 -6.5624 0
M  V30 19405 C 785.995 -3.47768 -6.11991 0
M  V30 19406 C 786.705 -3.39356 -4.77615 0
M  V30 19407 N 786.655 -2.04571 -4.15244 0
M  V30 19408 C 786.505 -1.98587 -2.78314 0
M  V30 19409 O 786.415 -2.98134 -2.08835 0
M  V30 19410 N 786.465 -0.714467 -2.24925 0
M  V30 19411 C 786.555 0.470001 -2.94169 0
M  V30 19412 O 786.505 1.55587 -2.35195 0
M  V30 19413 C 786.705 0.312541 -4.36783 0
M  V30 19414 C 786.815 1.57711 -5.16352 0
M  V30 19415 C 786.755 -0.914512 -4.92583 0
M  V30 19416 H 789.496 -3.41169 -7.98575 0
M  V30 19417 H 789.765 -2.58295 -6.41556 0
M  V30 19418 H 788.898 -5.02657 -6.42673 0
M  V30 19419 H 786.243 -4.11637 -4.08885 0
M  V30 19420 H 785.964 -2.49626 -6.61679 0
M  V30 19421 H 784.972 -3.86566 -6.00778 0
M  V30 19422 H 786.806 -4.29943 -7.96918 0
M  V30 19423 H 786.877 -1.00937 -6.00374 0
M  V30 19424 H 785.847 1.80153 -5.63503 0
M  V30 19425 H 787.584 1.4566 -5.94104 0
M  V30 19426 H 787.096 2.40664 -4.49645 0
M  V30 19427 H 786.36 -0.647622 -1.25697 0
M  V30 19428 P 784.935 -6.144 -6.45285 0
M  V30 19429 O 784.715 -7.54673 -6.86199 0
M  V30 19430 O 784.145 -5.12391 -7.179 0
M  V30 19431 O 784.685 -5.99158 -4.88404 0
M  V30 19432 C 785.625 -6.60234 -3.96415 0
M  V30 19433 C 784.895 -7.08259 -2.72856 0
M  V30 19434 O 784.685 -5.9427 -1.83651 0
M  V30 19435 C 783.495 -7.64886 -2.9555 0
M  V30 19436 O 783.105 -8.53963 -1.90717 0
M  V30 19437 C 782.615 -6.4116 -2.90739 0
M  V30 19438 C 783.325 -5.55375 -1.86963 0
M  V30 19439 N 783.275 -4.09664 -2.15742 0
M  V30 19440 H 786.114 -7.45574 -4.45629 0
M  V30 19441 H 786.386 -5.86232 -3.67314 0
M  V30 19442 H 785.518 -7.84412 -2.24479 0
M  V30 19443 P 781.555 -8.7635 -1.60911 0
M  V30 19444 O 781.335 -10.1388 -1.11561 0
M  V30 19445 O 780.765 -8.36503 -2.79617 0
M  V30 19446 O 781.305 -7.71806 -0.42951 0
M  V30 19447 C 782.245 -7.67148 0.673689 0
M  V30 19448 C 781.515 -7.33374 1.95559 0
M  V30 19449 O 781.305 -5.88721 2.00726 0
M  V30 19450 C 780.115 -7.92526 2.10483 0
M  V30 19451 O 779.725 -8.02971 3.47653 0
M  V30 19452 C 779.235 -6.89602 1.41652 0
M  V30 19453 C 779.945 -5.59201 1.75185 0
M  V30 19454 N 779.895 -4.58235 0.662552 0
M  V30 19455 H 782.734 -8.65116 0.777161 0
M  V30 19456 H 783.006 -6.90173 0.474152 0
M  V30 19457 H 782.138 -7.66548 2.79458 0
M  V30 19458 P 778.175 -8.03563 3.84925 0
M  V30 19459 O 777.955 -8.85821 5.0569 0
M  V30 19460 O 777.385 -8.41101 2.65469 0
M  V30 19461 O 777.925 -6.4965 4.18908 0
M  V30 19462 C 778.865 -5.81037 5.05421 0
M  V30 19463 C 778.135 -4.78366 5.89277 0
M  V30 19464 O 777.925 -3.58302 5.08433 0
M  V30 19465 C 776.735 -5.17448 6.36119 0
M  V30 19466 O 776.345 -4.45271 7.53232 0
M  V30 19467 C 775.855 -4.74639 5.19936 0
M  V30 19468 C 776.565 -3.49432 4.70418 0
M  V30 19469 N 776.515 -3.31776 3.22945 0
M  V30 19470 H 779.354 -6.54213 5.71376 0
M  V30 19471 H 779.626 -5.30492 4.44033 0
M  V30 19472 H 778.758 -4.55889 6.76652 0
M  V30 19473 P 774.795 -4.23843 7.83734 0
M  V30 19474 O 774.575 -4.19407 9.29784 0
M  V30 19475 O 774.005 -5.24426 7.09156 0
M  V30 19476 O 774.545 -2.7935 7.20758 0
M  V30 19477 C 775.485 -1.7299 7.50419 0
M  V30 19478 C 774.755 -0.406376 7.57911 0
M  V30 19479 O 774.545 0.0897726 6.21935 0
M  V30 19480 C 773.355 -0.447224 8.1878 0
M  V30 19481 O 772.965 0.825065 8.71101 0
M  V30 19482 C 772.475 -0.783801 6.99623 0
M  V30 19483 C 773.185 -0.0619192 5.85967 0
M  V30 19484 N 773.135 -0.7859 4.56281 0
M  V30 19485 H 775.974 -1.93423 8.4679 0
M  V30 19486 H 776.246 -1.68181 6.71046 0
M  V30 19487 H 775.378 0.289041 8.15388 0
M  V30 19488 P 771.415 1.17771 8.83182 0
M  V30 19489 O 771.195 2.07206 9.98732 0
M  V30 19490 O 770.625 -0.0743816 8.81969 0
M  V30 19491 O 771.165 1.97652 7.47304 0
M  V30 19492 C 772.105 3.01133 7.08783 0
M  V30 19493 C 771.375 4.12613 6.37049 0
M  V30 19494 O 771.165 3.72827 4.97879 0
M  V30 19495 C 769.975 4.45085 6.88694 0
M  V30 19496 O 769.585 5.7877 6.5624 0
M  V30 19497 C 769.095 3.47817 6.12078 0
M  V30 19498 C 769.805 3.39414 4.77697 0
M  V30 19499 N 769.755 2.04615 4.15333 0
M  V30 19500 H 772.594 3.41248 7.98759 0
M  V30 19501 H 772.866 2.5837 6.41742 0
M  V30 19502 H 771.998 5.02657 6.42673 0
M  V30 19503 P 768.035 6.144 6.45285 0
M  V30 19504 O 767.815 7.54673 6.86199 0
M  V30 19505 O 767.245 5.12391 7.179 0
M  V30 19506 O 767.785 5.99158 4.88404 0
M  V30 19507 C 768.725 6.60234 3.96415 0
M  V30 19508 C 767.995 7.08259 2.72856 0
M  V30 19509 O 767.785 5.9427 1.83651 0
M  V30 19510 C 766.595 7.64886 2.9555 0
M  V30 19511 O 766.205 8.53963 1.90717 0
M  V30 19512 C 765.715 6.4116 2.90739 0
M  V30 19513 C 766.425 5.55375 1.86963 0
M  V30 19514 N 766.375 4.09448 2.16152 0
M  V30 19515 H 769.214 7.45574 4.45629 0
M  V30 19516 H 769.486 5.85864 3.679 0
M  V30 19517 H 768.618 7.84412 2.24479 0
M  V30 19518 H 765.963 5.73457 0.888562 0
M  V30 19519 H 765.683 5.90877 3.88583 0
M  V30 19520 H 764.692 6.6596 2.58858 0
M  V30 19521 H 766.526 8.16339 3.92049 0
M  V30 19522 P 764.656 8.7635 1.60911 0
M  V30 19523 O 764.436 10.1388 1.11561 0
M  V30 19524 O 763.866 8.36503 2.79617 0
M  V30 19525 O 764.406 7.71806 0.42951 0
M  V30 19526 C 765.346 7.67148 -0.673689 0
M  V30 19527 C 764.616 7.33374 -1.95559 0
M  V30 19528 O 764.406 5.88721 -2.00726 0
M  V30 19529 C 763.216 7.92526 -2.10483 0
M  V30 19530 O 762.826 8.02971 -3.47653 0
M  V30 19531 C 762.336 6.89602 -1.41652 0
M  V30 19532 C 763.046 5.59201 -1.75185 0
M  V30 19533 N 762.996 4.58301 -0.657969 0
M  V30 19534 H 765.835 8.65116 -0.777161 0
M  V30 19535 H 766.107 6.9022 -0.46725 0
M  V30 19536 H 765.239 7.66548 -2.79458 0
M  V30 19537 H 762.584 5.16165 -2.65183 0
M  V30 19538 H 762.304 7.06433 -0.329384 0
M  V30 19539 H 761.313 6.90926 -1.82021 0
M  V30 19540 H 763.147 8.90873 -1.62657 0
M  V30 19541 P 761.276 8.03563 -3.84925 0
M  V30 19542 O 761.056 8.85821 -5.0569 0
M  V30 19543 O 760.486 8.41101 -2.65469 0
M  V30 19544 O 761.026 6.4965 -4.18908 0
M  V30 19545 C 761.966 5.81037 -5.05421 0
M  V30 19546 C 761.236 4.78366 -5.89277 0
M  V30 19547 O 761.026 3.58302 -5.08433 0
M  V30 19548 C 759.836 5.17448 -6.36119 0
M  V30 19549 O 759.446 4.45271 -7.53232 0
M  V30 19550 C 758.956 4.74639 -5.19936 0
M  V30 19551 C 759.666 3.49432 -4.70418 0
M  V30 19552 N 759.616 3.32099 -3.22613 0
M  V30 19553 H 762.455 6.54213 -5.71376 0
M  V30 19554 H 762.727 5.30936 -4.43503 0
M  V30 19555 H 761.859 4.55889 -6.76652 0
M  V30 19556 H 759.204 2.61715 -5.17932 0
M  V30 19557 H 758.924 5.52155 -4.41878 0
M  V30 19558 H 757.933 4.51981 -5.53374 0
M  V30 19559 H 759.767 6.25124 -6.55234 0
M  V30 19560 P 757.896 4.23843 -7.83734 0
M  V30 19561 O 757.676 4.19407 -9.29784 0
M  V30 19562 O 757.106 5.24426 -7.09156 0
M  V30 19563 O 757.646 2.7935 -7.20758 0
M  V30 19564 C 758.586 1.72945 -7.50224 0
M  V30 19565 C 757.856 0.406376 -7.57911 0
M  V30 19566 O 757.646 -0.0897726 -6.21935 0
M  V30 19567 C 756.456 0.438983 -8.18724 0
M  V30 19568 O 756.066 -0.825065 -8.71101 0
M  V30 19569 C 755.576 0.783689 -6.99524 0
M  V30 19570 C 756.286 0.0619086 -5.85867 0
M  V30 19571 N 756.236 0.78573 -4.56183 0
M  V30 19572 C 756.086 0.0292889 -3.41887 0
M  V30 19573 O 755.996 -1.18445 -3.4419 0
M  V30 19574 N 756.046 0.744061 -2.23964 0
M  V30 19575 C 756.136 2.10932 -2.10362 0
M  V30 19576 C 756.286 2.8202 -3.34994 0
M  V30 19577 C 756.336 2.15547 -4.52261 0
M  V30 19578 H 759.077 1.93379 -8.46595 0
M  V30 19579 H 759.346 1.68132 -6.70852 0
M  V30 19580 H 758.479 -0.289041 -8.15388 0
M  V30 19581 H 755.824 -0.926847 -5.72749 0
M  V30 19582 H 755.545 1.86973 -6.82036 0
M  V30 19583 H 754.553 0.403896 -7.13257 0
M  V30 19584 H 756.387 1.20585 -8.97435 0
M  V30 19585 H 756.458 2.71231 -5.45042 0
M  V30 19586 P 754.516 -1.17771 -8.83182 0
M  V30 19587 O 754.296 -2.07206 -9.98732 0
M  V30 19588 O 753.726 0.0743816 -8.81969 0
M  V30 19589 O 754.266 -1.97652 -7.47304 0
M  V30 19590 C 755.206 -3.01133 -7.08783 0
M  V30 19591 C 754.476 -4.12613 -6.37049 0
M  V30 19592 O 754.266 -3.72827 -4.97879 0
M  V30 19593 C 753.076 -4.45085 -6.88694 0
M  V30 19594 O 752.686 -5.7877 -6.5624 0
M  V30 19595 C 752.196 -3.47817 -6.12078 0
M  V30 19596 C 752.906 -3.39414 -4.77697 0
M  V30 19597 N 752.856 -2.04199 -4.15538 0
M  V30 19598 H 755.695 -3.41248 -7.98759 0
M  V30 19599 H 755.967 -2.57728 -6.42 0
M  V30 19600 H 755.099 -5.02657 -6.42673 0
M  V30 19601 H 752.444 -4.11708 -4.08956 0
M  V30 19602 H 752.164 -2.49626 -6.61679 0
M  V30 19603 H 751.173 -3.8662 -6.00862 0
M  V30 19604 H 753.007 -4.29991 -7.97006 0
M  V30 19605 P 751.136 -6.144 -6.45285 0
M  V30 19606 O 750.916 -7.54673 -6.86199 0
M  V30 19607 O 750.346 -5.12391 -7.179 0
M  V30 19608 O 750.886 -5.99158 -4.88404 0
M  V30 19609 C 751.826 -6.60234 -3.96415 0
M  V30 19610 C 751.096 -7.08259 -2.72856 0
M  V30 19611 O 750.886 -5.9427 -1.83651 0
M  V30 19612 C 749.696 -7.64886 -2.9555 0
M  V30 19613 O 749.306 -8.53963 -1.90717 0
M  V30 19614 C 748.816 -6.4116 -2.90739 0
M  V30 19615 C 749.526 -5.55375 -1.86963 0
M  V30 19616 N 749.476 -4.09664 -2.15742 0
M  V30 19617 C 749.556 -3.44381 -3.37233 0
M  V30 19618 N 749.476 -2.14131 -3.28347 0
M  V30 19619 C 749.336 -1.90247 -1.91588 0
M  V30 19620 C 749.206 -0.683992 -1.20892 0
M  V30 19621 O 749.186 0.46618 -1.64523 0
M  V30 19622 N 749.086 -0.903396 0.173998 0
M  V30 19623 C 749.086 -2.14171 0.784879 0
M  V30 19624 N 748.956 -2.1435 2.11317 0
M  V30 19625 N 749.216 -3.28784 0.119316 0
M  V30 19626 C 749.336 -3.0977 -1.22194 0
M  V30 19627 H 752.315 -7.45574 -4.45629 0
M  V30 19628 H 752.587 -5.86232 -3.67314 0
M  V30 19629 H 751.719 -7.84412 -2.24479 0
M  V30 19630 H 749.064 -5.73556 -0.888715 0
M  V30 19631 H 748.784 -5.9096 -3.88638 0
M  V30 19632 H 747.793 -6.66053 -2.58894 0
M  V30 19633 H 749.627 -8.16429 -3.92093 0
M  V30 19634 H 749.676 -3.96785 -4.32043 0
M  V30 19635 H 748.994 -0.0999567 0.761467 0
M  V30 19636 H 748.957 -3.03436 2.63076 0
M  V30 19637 H 748.856 -1.25228 2.62233 0
M  V30 19638 P 747.756 -8.7635 -1.60911 0
M  V30 19639 O 747.536 -10.1388 -1.11561 0
M  V30 19640 O 746.966 -8.36503 -2.79617 0
M  V30 19641 O 747.506 -7.71806 -0.42951 0
M  V30 19642 C 748.446 -7.67148 0.673689 0
M  V30 19643 C 747.716 -7.33374 1.95559 0
M  V30 19644 O 747.506 -5.88721 2.00726 0
M  V30 19645 C 746.316 -7.92526 2.10483 0
M  V30 19646 O 745.926 -8.02971 3.47653 0
M  V30 19647 C 745.436 -6.89602 1.41652 0
M  V30 19648 C 746.146 -5.59201 1.75185 0
M  V30 19649 N 746.096 -4.58235 0.662552 0
M  V30 19650 H 748.935 -8.65116 0.777161 0
M  V30 19651 H 749.207 -6.90173 0.474152 0
M  V30 19652 H 748.339 -7.66548 2.79458 0
M  V30 19653 P 744.376 -8.03563 3.84925 0
M  V30 19654 O 744.156 -8.85821 5.0569 0
M  V30 19655 O 743.586 -8.41101 2.65469 0
M  V30 19656 O 744.126 -6.4965 4.18908 0
M  V30 19657 C 745.066 -5.81037 5.05421 0
M  V30 19658 C 744.336 -4.78366 5.89277 0
M  V30 19659 O 744.126 -3.58302 5.08433 0
M  V30 19660 C 742.936 -5.17448 6.36119 0
M  V30 19661 O 742.546 -4.45271 7.53232 0
M  V30 19662 C 742.056 -4.74639 5.19936 0
M  V30 19663 C 742.766 -3.49432 4.70418 0
M  V30 19664 N 742.716 -3.31776 3.22945 0
M  V30 19665 H 745.555 -6.54213 5.71376 0
M  V30 19666 H 745.827 -5.30492 4.44033 0
M  V30 19667 H 744.959 -4.55889 6.76652 0
M  V30 19668 P 740.996 -4.23843 7.83734 0
M  V30 19669 O 740.776 -4.19407 9.29784 0
M  V30 19670 O 740.206 -5.24426 7.09156 0
M  V30 19671 O 740.746 -2.7935 7.20758 0
M  V30 19672 C 741.686 -1.7299 7.50419 0
M  V30 19673 C 740.956 -0.406376 7.57911 0
M  V30 19674 O 740.746 0.0897726 6.21935 0
M  V30 19675 C 739.556 -0.447224 8.1878 0
M  V30 19676 O 739.166 0.825065 8.71101 0
M  V30 19677 C 738.676 -0.783801 6.99623 0
M  V30 19678 C 739.386 -0.0619192 5.85967 0
M  V30 19679 N 739.336 -0.7859 4.56281 0
M  V30 19680 H 742.175 -1.93423 8.4679 0
M  V30 19681 H 742.447 -1.68181 6.71046 0
M  V30 19682 H 741.579 0.289041 8.15388 0
M  V30 19683 P 737.616 1.17771 8.83182 0
M  V30 19684 O 737.396 2.07206 9.98732 0
M  V30 19685 O 736.826 -0.0743816 8.81969 0
M  V30 19686 O 737.366 1.97652 7.47304 0
M  V30 19687 C 738.306 3.01133 7.08783 0
M  V30 19688 C 737.576 4.12613 6.37049 0
M  V30 19689 O 737.366 3.72827 4.97879 0
M  V30 19690 C 736.176 4.45085 6.88694 0
M  V30 19691 O 735.786 5.7877 6.5624 0
M  V30 19692 C 735.296 3.47817 6.12078 0
M  V30 19693 C 736.006 3.39414 4.77697 0
M  V30 19694 N 735.956 2.04615 4.15333 0
M  V30 19695 H 738.795 3.41248 7.98759 0
M  V30 19696 H 739.067 2.5837 6.41742 0
M  V30 19697 H 738.199 5.02657 6.42673 0
M  V30 19698 P 734.236 6.144 6.45285 0
M  V30 19699 O 734.016 7.54673 6.86199 0
M  V30 19700 O 733.446 5.12391 7.179 0
M  V30 19701 O 733.986 5.99158 4.88404 0
M  V30 19702 C 734.926 6.60234 3.96415 0
M  V30 19703 C 734.196 7.08259 2.72856 0
M  V30 19704 O 733.986 5.9427 1.83651 0
M  V30 19705 C 732.796 7.64886 2.9555 0
M  V30 19706 O 732.406 8.53963 1.90717 0
M  V30 19707 C 731.916 6.4116 2.90739 0
M  V30 19708 C 732.626 5.55375 1.86963 0
M  V30 19709 N 732.576 4.09448 2.16152 0
M  V30 19710 H 735.415 7.45574 4.45629 0
M  V30 19711 H 735.687 5.85864 3.679 0
M  V30 19712 H 734.819 7.84412 2.24479 0
M  V30 19713 H 732.164 5.73457 0.888562 0
M  V30 19714 H 731.884 5.90877 3.88583 0
M  V30 19715 H 730.893 6.6596 2.58858 0
M  V30 19716 H 732.727 8.16339 3.92049 0
M  V30 19717 P 730.856 8.7635 1.60911 0
M  V30 19718 O 730.636 10.1388 1.11561 0
M  V30 19719 O 730.066 8.36503 2.79617 0
M  V30 19720 O 730.606 7.71806 0.42951 0
M  V30 19721 C 731.546 7.67148 -0.673689 0
M  V30 19722 C 730.816 7.33374 -1.95559 0
M  V30 19723 O 730.606 5.88721 -2.00726 0
M  V30 19724 C 729.416 7.92526 -2.10483 0
M  V30 19725 O 729.026 8.02971 -3.47653 0
M  V30 19726 C 728.536 6.89602 -1.41652 0
M  V30 19727 C 729.246 5.59201 -1.75185 0
M  V30 19728 N 729.196 4.58235 -0.662552 0
M  V30 19729 H 732.035 8.65116 -0.777161 0
M  V30 19730 H 732.307 6.90173 -0.474152 0
M  V30 19731 H 731.439 7.66548 -2.79458 0
M  V30 19732 P 727.476 8.03563 -3.84925 0
M  V30 19733 O 727.256 8.85821 -5.0569 0
M  V30 19734 O 726.686 8.41101 -2.65469 0
M  V30 19735 O 727.226 6.4965 -4.18908 0
M  V30 19736 C 728.166 5.81037 -5.05421 0
M  V30 19737 C 727.436 4.78366 -5.89277 0
M  V30 19738 O 727.226 3.58302 -5.08433 0
M  V30 19739 C 726.036 5.17448 -6.36119 0
M  V30 19740 O 725.646 4.45271 -7.53232 0
M  V30 19741 C 725.156 4.74639 -5.19936 0
M  V30 19742 C 725.866 3.49432 -4.70418 0
M  V30 19743 N 725.816 3.31776 -3.22945 0
M  V30 19744 H 728.655 6.54213 -5.71376 0
M  V30 19745 H 728.927 5.30492 -4.44033 0
M  V30 19746 H 728.059 4.55889 -6.76652 0
M  V30 19747 P 724.096 4.23843 -7.83734 0
M  V30 19748 O 723.876 4.19407 -9.29784 0
M  V30 19749 O 723.306 5.24426 -7.09156 0
M  V30 19750 O 723.846 2.7935 -7.20758 0
M  V30 19751 C 724.786 1.7299 -7.50419 0
M  V30 19752 C 724.056 0.406376 -7.57911 0
M  V30 19753 O 723.846 -0.0897726 -6.21935 0
M  V30 19754 C 722.656 0.447224 -8.1878 0
M  V30 19755 O 722.266 -0.825065 -8.71101 0
M  V30 19756 C 721.776 0.783801 -6.99623 0
M  V30 19757 C 722.486 0.0619192 -5.85967 0
M  V30 19758 N 722.436 0.790462 -4.56202 0
M  V30 19759 C 722.516 2.13895 -4.34171 0
M  V30 19760 N 722.446 2.46449 -3.08687 0
M  V30 19761 C 722.296 1.2525 -2.43697 0
M  V30 19762 C 722.166 0.914535 -1.07318 0
M  V30 19763 N 722.156 1.80782 -0.0887348 0
M  V30 19764 N 722.046 -0.386745 -0.768133 0
M  V30 19765 C 722.056 -1.28096 -1.75159 0
M  V30 19766 N 722.176 -1.09708 -3.04861 0
M  V30 19767 C 722.296 0.214857 -3.32306 0
M  V30 19768 H 725.275 1.93423 -8.4679 0
M  V30 19769 H 725.547 1.68852 -6.70877 0
M  V30 19770 H 724.679 -0.289041 -8.15388 0
M  V30 19771 H 722.024 -0.927006 -5.72848 0
M  V30 19772 H 721.744 1.86973 -6.82036 0
M  V30 19773 H 720.753 0.403953 -7.13357 0
M  V30 19774 H 722.587 1.20599 -8.97534 0
M  V30 19775 H 722.628 2.86846 -5.14318 0
M  V30 19776 H 722.247 2.81082 -0.302037 0
M  V30 19777 H 722.058 1.49688 0.889064 0
M  V30 19778 H 721.95 -2.31317 -1.43855 0
M  V30 19779 P 720.716 -1.17771 -8.83182 0
M  V30 19780 O 720.496 -2.07206 -9.98732 0
M  V30 19781 O 719.926 0.0743816 -8.81969 0
M  V30 19782 O 720.466 -1.97652 -7.47304 0
M  V30 19783 C 721.406 -3.01133 -7.08783 0
M  V30 19784 C 720.676 -4.12613 -6.37049 0
M  V30 19785 O 720.466 -3.72827 -4.97879 0
M  V30 19786 C 719.276 -4.45085 -6.88694 0
M  V30 19787 O 718.886 -5.7877 -6.5624 0
M  V30 19788 C 718.396 -3.47817 -6.12078 0
M  V30 19789 C 719.106 -3.39414 -4.77697 0
M  V30 19790 N 719.056 -2.04615 -4.15333 0
M  V30 19791 H 721.895 -3.41248 -7.98759 0
M  V30 19792 H 722.167 -2.5837 -6.41742 0
M  V30 19793 H 721.299 -5.02657 -6.42673 0
M  V30 19794 P 717.336 -6.144 -6.45285 0
M  V30 19795 O 717.116 -7.54673 -6.86199 0
M  V30 19796 O 716.546 -5.12391 -7.179 0
M  V30 19797 O 717.086 -5.99158 -4.88404 0
M  V30 19798 C 718.026 -6.60062 -3.96313 0
M  V30 19799 C 717.296 -7.08259 -2.72856 0
M  V30 19800 O 717.086 -5.9427 -1.83651 0
M  V30 19801 C 715.896 -7.65087 -2.94749 0
M  V30 19802 O 715.506 -8.53963 -1.90717 0
M  V30 19803 C 715.016 -6.41069 -2.90698 0
M  V30 19804 C 715.726 -5.5528 -1.86931 0
M  V30 19805 N 715.676 -4.09575 -2.15696 0
M  V30 19806 C 715.526 -3.24249 -1.08435 0
M  V30 19807 O 715.436 -3.63946 0.0628747 0
M  V30 19808 N 715.486 -1.90009 -1.39973 0
M  V30 19809 C 715.576 -1.34884 -2.65614 0
M  V30 19810 C 715.726 -2.3145 -3.71736 0
M  V30 19811 C 715.776 -3.63518 -3.44754 0
M  V30 19812 H 718.517 -7.45402 -4.45526 0
M  V30 19813 H 718.786 -5.86062 -3.67208 0
M  V30 19814 H 717.919 -7.84412 -2.24479 0
M  V30 19815 H 715.264 -5.73358 -0.888409 0
M  V30 19816 H 714.985 -5.90877 -3.88583 0
M  V30 19817 H 713.993 -6.65867 -2.58821 0
M  V30 19818 H 715.827 -8.16248 -3.92006 0
M  V30 19819 H 715.898 -4.34551 -4.26383 0
M  V30 19820 P 713.956 -8.7635 -1.60911 0
M  V30 19821 O 713.736 -10.1388 -1.11561 0
M  V30 19822 O 713.166 -8.36503 -2.79617 0
M  V30 19823 O 713.706 -7.71806 -0.42951 0
M  V30 19824 C 714.646 -7.66948 0.673514 0
M  V30 19825 C 713.916 -7.33374 1.95559 0
M  V30 19826 O 713.706 -5.88721 2.00726 0
M  V30 19827 C 712.516 -7.92218 2.1125 0
M  V30 19828 O 712.126 -8.02971 3.47653 0
M  V30 19829 C 711.636 -6.89504 1.41631 0
M  V30 19830 C 712.346 -5.59106 1.75155 0
M  V30 19831 N 712.296 -4.58136 0.662409 0
M  V30 19832 C 712.146 -3.26059 1.02863 0
M  V30 19833 O 712.056 -2.90743 2.19009 0
M  V30 19834 N 712.106 -2.35995 -0.0155585 0
M  V30 19835 C 712.196 -2.65248 -1.35603 0
M  V30 19836 C 712.346 -4.05747 -1.64698 0
M  V30 19837 C 712.396 -4.96734 -0.652411 0
M  V30 19838 H 715.137 -8.64917 0.776982 0
M  V30 19839 H 715.406 -6.89974 0.474015 0
M  V30 19840 H 714.539 -7.66548 2.79458 0
M  V30 19841 H 711.884 -5.16076 2.65138 0
M  V30 19842 H 711.605 -7.06433 0.329384 0
M  V30 19843 H 710.613 -6.90829 1.81996 0
M  V30 19844 H 712.447 -8.90774 1.62639 0
M  V30 19845 H 712.518 -6.02181 -0.895285 0
M  V30 19846 P 710.576 -8.03563 3.84925 0
M  V30 19847 O 710.356 -8.85821 5.0569 0
M  V30 19848 O 709.786 -8.41101 2.65469 0
M  V30 19849 O 710.326 -6.4965 4.18908 0
M  V30 19850 C 711.266 -5.81037 5.05421 0
M  V30 19851 C 710.536 -4.78366 5.89277 0
M  V30 19852 O 710.326 -3.58302 5.08433 0
M  V30 19853 C 709.136 -5.17448 6.36119 0
M  V30 19854 O 708.746 -4.45271 7.53232 0
M  V30 19855 C 708.256 -4.74639 5.19936 0
M  V30 19856 C 708.966 -3.49432 4.70418 0
M  V30 19857 N 708.916 -3.32099 3.22613 0
M  V30 19858 H 711.755 -6.54213 5.71376 0
M  V30 19859 H 712.027 -5.30936 4.43503 0
M  V30 19860 H 711.159 -4.55889 6.76652 0
M  V30 19861 H 708.504 -2.61715 5.17932 0
M  V30 19862 H 708.224 -5.52155 4.41878 0
M  V30 19863 H 707.233 -4.51981 5.53374 0
M  V30 19864 H 709.067 -6.25124 6.55234 0
M  V30 19865 P 707.196 -4.23843 7.83734 0
M  V30 19866 O 706.976 -4.19407 9.29784 0
M  V30 19867 O 706.406 -5.24426 7.09156 0
M  V30 19868 O 706.946 -2.7935 7.20758 0
M  V30 19869 C 707.886 -1.7299 7.50419 0
M  V30 19870 C 707.156 -0.406376 7.57911 0
M  V30 19871 O 706.946 0.0897726 6.21935 0
M  V30 19872 C 705.756 -0.447224 8.1878 0
M  V30 19873 O 705.366 0.825065 8.71101 0
M  V30 19874 C 704.876 -0.783801 6.99623 0
M  V30 19875 C 705.586 -0.0619192 5.85967 0
M  V30 19876 N 705.536 -0.7859 4.56281 0
M  V30 19877 H 708.375 -1.93423 8.4679 0
M  V30 19878 H 708.647 -1.68181 6.71046 0
M  V30 19879 H 707.779 0.289041 8.15388 0
M  V30 19880 P 703.816 1.17771 8.83182 0
M  V30 19881 O 703.596 2.07206 9.98732 0
M  V30 19882 O 703.026 -0.0743816 8.81969 0
M  V30 19883 O 703.566 1.97652 7.47304 0
M  V30 19884 C 704.506 3.01133 7.08783 0
M  V30 19885 C 703.776 4.12613 6.37049 0
M  V30 19886 O 703.566 3.72827 4.97879 0
M  V30 19887 C 702.376 4.45085 6.88694 0
M  V30 19888 O 701.986 5.7877 6.5624 0
M  V30 19889 C 701.496 3.47817 6.12078 0
M  V30 19890 C 702.206 3.39414 4.77697 0
M  V30 19891 N 702.156 2.04615 4.15333 0
M  V30 19892 H 704.995 3.41248 7.98759 0
M  V30 19893 H 705.267 2.5837 6.41742 0
M  V30 19894 H 704.399 5.02657 6.42673 0
M  V30 19895 P 700.436 6.144 6.45285 0
M  V30 19896 O 700.216 7.54673 6.86199 0
M  V30 19897 O 699.646 5.12391 7.179 0
M  V30 19898 O 700.186 5.99236 4.88467 0
M  V30 19899 C 701.126 6.60234 3.96415 0
M  V30 19900 C 700.396 7.08079 2.736 0
M  V30 19901 O 700.186 5.94365 1.8368 0
M  V30 19902 C 698.996 7.64886 2.9555 0
M  V30 19903 O 698.606 8.5406 1.90739 0
M  V30 19904 C 698.116 6.4116 2.90739 0
M  V30 19905 C 698.826 5.55375 1.86963 0
M  V30 19906 N 698.776 4.09664 2.15742 0
M  V30 19907 C 698.626 3.22231 1.08477 0
M  V30 19908 O 698.536 3.68951 -0.0600489 0
M  V30 19909 N 698.576 1.76692 1.48799 0
M  V30 19910 C 698.676 1.41695 2.57602 0
M  V30 19911 N 698.626 0.107296 2.75791 0
M  V30 19912 C 698.826 2.29178 3.69733 0
M  V30 19913 C 698.876 3.62753 3.42653 0
M  V30 19914 H 701.616 7.45488 4.45578 0
M  V30 19915 H 701.886 5.86232 3.67314 0
M  V30 19916 H 701.019 7.84508 2.24507 0
M  V30 19917 H 698.364 5.73556 0.888715 0
M  V30 19918 H 698.084 5.9096 3.88638 0
M  V30 19919 H 697.093 6.66053 2.58894 0
M  V30 19920 H 698.927 8.16339 3.92049 0
M  V30 19921 H 698.999 4.33052 4.24913 0
M  V30 19922 H 698.897 1.9103 4.71577 0
M  V30 19923 H 698.509 -0.521221 1.95056 0
M  V30 19924 H 698.705 -0.286429 3.70695 0
M  V30 19925 P 697.056 8.7635 1.60911 0
M  V30 19926 O 696.836 10.1388 1.11561 0
M  V30 19927 O 696.266 8.36503 2.79617 0
M  V30 19928 O 696.806 7.71806 0.42951 0
M  V30 19929 C 697.746 7.67148 -0.673689 0
M  V30 19930 C 697.016 7.33374 -1.95559 0
M  V30 19931 O 696.806 5.88721 -2.00726 0
M  V30 19932 C 695.616 7.92526 -2.10483 0
M  V30 19933 O 695.226 8.02971 -3.47653 0
M  V30 19934 C 694.736 6.89602 -1.41652 0
M  V30 19935 C 695.446 5.59201 -1.75185 0
M  V30 19936 N 695.396 4.58235 -0.662552 0
M  V30 19937 H 698.235 8.65116 -0.777161 0
M  V30 19938 H 698.507 6.90173 -0.474152 0
M  V30 19939 H 697.639 7.66548 -2.79458 0
M  V30 19940 P 693.676 8.03563 -3.84925 0
M  V30 19941 O 693.456 8.85821 -5.0569 0
M  V30 19942 O 692.886 8.41101 -2.65469 0
M  V30 19943 O 693.426 6.4965 -4.18908 0
M  V30 19944 C 694.366 5.81037 -5.05421 0
M  V30 19945 C 693.636 4.78366 -5.89277 0
M  V30 19946 O 693.426 3.58302 -5.08433 0
M  V30 19947 C 692.236 5.17448 -6.36119 0
M  V30 19948 O 691.846 4.45271 -7.53232 0
M  V30 19949 C 691.356 4.74639 -5.19936 0
M  V30 19950 C 692.066 3.49432 -4.70418 0
M  V30 19951 N 692.016 3.32099 -3.22613 0
M  V30 19952 H 694.855 6.54213 -5.71376 0
M  V30 19953 H 695.127 5.30936 -4.43503 0
M  V30 19954 H 694.259 4.55889 -6.76652 0
M  V30 19955 H 691.604 2.61715 -5.17932 0
M  V30 19956 H 691.324 5.52155 -4.41878 0
M  V30 19957 H 690.333 4.51981 -5.53374 0
M  V30 19958 H 692.167 6.25124 -6.55234 0
M  V30 19959 P 690.296 4.23843 -7.83734 0
M  V30 19960 O 690.076 4.19407 -9.29784 0
M  V30 19961 O 689.506 5.24426 -7.09156 0
M  V30 19962 O 690.046 2.7935 -7.20758 0
M  V30 19963 C 690.986 1.7299 -7.50419 0
M  V30 19964 C 690.256 0.406376 -7.57911 0
M  V30 19965 O 690.046 -0.0897726 -6.21935 0
M  V30 19966 C 688.856 0.447224 -8.1878 0
M  V30 19967 O 688.466 -0.825065 -8.71101 0
M  V30 19968 C 687.976 0.783801 -6.99623 0
M  V30 19969 C 688.686 0.0619192 -5.85967 0
M  V30 19970 N 688.636 0.7859 -4.56281 0
M  V30 19971 H 691.475 1.93423 -8.4679 0
M  V30 19972 H 691.747 1.68181 -6.71046 0
M  V30 19973 H 690.879 -0.289041 -8.15388 0
M  V30 19974 P 686.916 -1.17771 -8.83182 0
M  V30 19975 O 686.696 -2.07206 -9.98732 0
M  V30 19976 O 686.126 0.0743816 -8.81969 0
M  V30 19977 O 686.666 -1.97652 -7.47304 0
M  V30 19978 C 687.606 -3.01133 -7.08783 0
M  V30 19979 C 686.876 -4.12613 -6.37049 0
M  V30 19980 O 686.666 -3.72827 -4.97879 0
M  V30 19981 C 685.476 -4.45085 -6.88694 0
M  V30 19982 O 685.086 -5.7877 -6.5624 0
M  V30 19983 C 684.596 -3.47817 -6.12078 0
M  V30 19984 C 685.306 -3.39414 -4.77697 0
M  V30 19985 N 685.256 -2.04615 -4.15333 0
M  V30 19986 H 688.095 -3.41248 -7.98759 0
M  V30 19987 H 688.367 -2.5837 -6.41742 0
M  V30 19988 H 687.499 -5.02657 -6.42673 0
M  V30 19989 P 683.536 -6.144 -6.45285 0
M  V30 19990 O 683.316 -7.54673 -6.86199 0
M  V30 19991 O 682.746 -5.12391 -7.179 0
M  V30 19992 O 683.286 -5.99158 -4.88404 0
M  V30 19993 C 684.226 -6.60234 -3.96415 0
M  V30 19994 C 683.496 -7.08259 -2.72856 0
M  V30 19995 O 683.286 -5.9427 -1.83651 0
M  V30 19996 C 682.096 -7.64886 -2.9555 0
M  V30 19997 O 681.706 -8.53963 -1.90717 0
M  V30 19998 C 681.216 -6.4116 -2.90739 0
M  V30 19999 C 681.926 -5.55375 -1.86963 0
M  V30 20000 N 681.876 -4.09448 -2.16152 0
M  V30 20001 H 684.715 -7.45574 -4.45629 0
M  V30 20002 H 684.987 -5.85864 -3.679 0
M  V30 20003 H 684.119 -7.84412 -2.24479 0
M  V30 20004 H 681.464 -5.73457 -0.888562 0
M  V30 20005 H 681.184 -5.90877 -3.88583 0
M  V30 20006 H 680.193 -6.6596 -2.58858 0
M  V30 20007 H 682.027 -8.16339 -3.92049 0
M  V30 20008 P 680.156 -8.7635 -1.60911 0
M  V30 20009 O 679.936 -10.1388 -1.11561 0
M  V30 20010 O 679.366 -8.36503 -2.79617 0
M  V30 20011 O 679.906 -7.71906 -0.429565 0
M  V30 20012 C 680.846 -7.67148 0.673689 0
M  V30 20013 C 680.116 -7.33666 1.94851 0
M  V30 20014 O 679.906 -5.88816 2.00759 0
M  V30 20015 C 678.716 -7.92526 2.10483 0
M  V30 20016 O 678.326 -8.03063 3.47693 0
M  V30 20017 C 677.836 -6.89602 1.41652 0
M  V30 20018 C 678.546 -5.59201 1.75185 0
M  V30 20019 N 678.496 -4.58235 0.662552 0
M  V30 20020 C 678.346 -3.24451 1.01643 0
M  V30 20021 O 678.256 -2.94958 2.21722 0
M  V30 20022 N 678.296 -2.30408 -0.165238 0
M  V30 20023 C 678.396 -2.66048 -1.25118 0
M  V30 20024 N 678.346 -1.70787 -2.16813 0
M  V30 20025 C 678.546 -4.02732 -1.64413 0
M  V30 20026 C 678.596 -4.9488 -0.63991 0
M  V30 20027 H 681.336 -8.65017 0.777072 0
M  V30 20028 H 681.606 -6.90173 0.474152 0
M  V30 20029 H 680.739 -7.66642 2.79492 0
M  V30 20030 H 678.084 -5.16254 2.65229 0
M  V30 20031 H 677.804 -7.06532 0.329431 0
M  V30 20032 H 676.813 -6.91023 1.82047 0
M  V30 20033 H 678.647 -8.90873 1.62657 0
M  V30 20034 H 678.719 -6.00104 -0.892197 0
M  V30 20035 H 678.617 -4.31733 -2.69229 0
M  V30 20036 H 678.229 -0.724835 -1.8844 0
M  V30 20037 H 678.425 -1.94716 -3.16734 0
M  V30 20038 P 676.776 -8.03563 3.84925 0
M  V30 20039 O 676.556 -8.85821 5.0569 0
M  V30 20040 O 675.986 -8.41101 2.65469 0
M  V30 20041 O 676.526 -6.4965 4.18908 0
M  V30 20042 C 677.466 -5.80886 5.05289 0
M  V30 20043 C 676.736 -4.78366 5.89277 0
M  V30 20044 O 676.526 -3.58302 5.08433 0
M  V30 20045 C 675.336 -5.16748 6.36559 0
M  V30 20046 O 674.946 -4.45271 7.53232 0
M  V30 20047 C 674.456 -4.74572 5.19863 0
M  V30 20048 C 675.166 -3.49373 4.70338 0
M  V30 20049 N 675.116 -3.31704 3.22876 0
M  V30 20050 C 674.966 -2.03326 2.74871 0
M  V30 20051 O 674.876 -1.06486 3.48076 0
M  V30 20052 N 674.926 -1.91838 1.37456 0
M  V30 20053 C 675.016 -2.94295 0.462035 0
M  V30 20054 C 675.166 -4.25064 1.05249 0
M  V30 20055 C 675.216 -4.40214 2.39192 0
M  V30 20056 H 677.957 -6.54063 5.71245 0
M  V30 20057 H 678.226 -5.30339 4.43905 0
M  V30 20058 H 677.359 -4.55889 6.76652 0
M  V30 20059 H 674.704 -2.6167 5.17842 0
M  V30 20060 H 674.425 -5.52155 4.41878 0
M  V30 20061 H 673.433 -4.51918 5.53297 0
M  V30 20062 H 675.267 -6.25055 6.55162 0
M  V30 20063 H 675.338 -5.39798 2.81523 0
M  V30 20064 P 673.396 -4.23843 7.83734 0
M  V30 20065 O 673.176 -4.19407 9.29784 0
M  V30 20066 O 672.606 -5.24426 7.09156 0
M  V30 20067 O 673.146 -2.79386 7.20852 0
M  V30 20068 C 674.086 -1.7299 7.50419 0
M  V30 20069 C 673.356 -0.41401 7.5797 0
M  V30 20070 O 673.146 0.089787 6.22035 0
M  V30 20071 C 671.956 -0.447224 8.1878 0
M  V30 20072 O 671.566 0.825159 8.71201 0
M  V30 20073 C 671.076 -0.783801 6.99623 0
M  V30 20074 C 671.786 -0.0619192 5.85967 0
M  V30 20075 N 671.736 -0.7859 4.56281 0
M  V30 20076 C 671.586 -0.0359258 3.39981 0
M  V30 20077 O 671.496 1.19723 3.49038 0
M  V30 20078 N 671.536 -0.869151 2.14025 0
M  V30 20079 C 671.636 -2.01207 2.14363 0
M  V30 20080 N 671.586 -2.58978 0.954287 0
M  V30 20081 C 671.786 -2.80817 3.32215 0
M  V30 20082 C 671.836 -2.13785 4.50884 0
M  V30 20083 H 674.576 -1.93401 8.46693 0
M  V30 20084 H 674.846 -1.68181 6.71046 0
M  V30 20085 H 673.979 0.289076 8.15488 0
M  V30 20086 H 671.324 0.927166 5.72947 0
M  V30 20087 H 671.044 -1.87 6.82132 0
M  V30 20088 H 670.053 -0.404009 7.13457 0
M  V30 20089 H 671.887 -1.20599 8.97534 0
M  V30 20090 H 671.959 -2.70295 5.43162 0
M  V30 20091 H 671.857 -3.89465 3.27406 0
M  V30 20092 H 671.469 -2.01616 0.107046 0
M  V30 20093 H 671.665 -3.61403 0.873101 0
M  V30 20094 P 670.016 1.17771 8.83182 0
M  V30 20095 O 669.796 2.07206 9.98732 0
M  V30 20096 O 669.226 -0.0743816 8.81969 0
M  V30 20097 O 669.766 1.97652 7.47304 0
M  V30 20098 C 670.706 3.01055 7.08599 0
M  V30 20099 C 669.976 4.12613 6.37049 0
M  V30 20100 O 669.766 3.72827 4.97879 0
M  V30 20101 C 668.576 4.45719 6.88164 0
M  V30 20102 O 668.186 5.7877 6.5624 0
M  V30 20103 C 667.696 3.47768 6.11991 0
M  V30 20104 C 668.406 3.39356 4.77615 0
M  V30 20105 N 668.356 2.04571 4.15244 0
M  V30 20106 C 668.206 1.98587 2.78314 0
M  V30 20107 O 668.116 2.98134 2.08835 0
M  V30 20108 N 668.166 0.714467 2.24925 0
M  V30 20109 C 668.256 -0.470001 2.94169 0
M  V30 20110 C 668.406 -0.312541 4.36783 0
M  V30 20111 C 668.456 0.914512 4.92583 0
M  V30 20112 H 671.197 3.41169 7.98575 0
M  V30 20113 H 671.466 2.58295 6.41556 0
M  V30 20114 H 670.599 5.02657 6.42673 0
M  V30 20115 H 667.944 4.11637 4.08885 0
M  V30 20116 H 667.665 2.49626 6.61679 0
M  V30 20117 H 666.673 3.86566 6.00778 0
M  V30 20118 H 668.507 4.29943 7.96918 0
M  V30 20119 H 668.578 1.00937 6.00374 0
M  V30 20120 P 666.636 6.144 6.45285 0
M  V30 20121 O 666.416 7.54673 6.86199 0
M  V30 20122 O 665.846 5.12391 7.179 0
M  V30 20123 O 666.386 5.99158 4.88404 0
M  V30 20124 C 667.326 6.60234 3.96415 0
M  V30 20125 C 666.596 7.08259 2.72856 0
M  V30 20126 O 666.386 5.9427 1.83651 0
M  V30 20127 C 665.196 7.64886 2.9555 0
M  V30 20128 O 664.806 8.53963 1.90717 0
M  V30 20129 C 664.316 6.4116 2.90739 0
M  V30 20130 C 665.026 5.55375 1.86963 0
M  V30 20131 N 664.976 4.09664 2.15742 0
M  V30 20132 H 667.815 7.45574 4.45629 0
M  V30 20133 H 668.087 5.86232 3.67314 0
M  V30 20134 H 667.219 7.84412 2.24479 0
M  V30 20135 P 663.256 8.7635 1.60911 0
M  V30 20136 O 663.036 10.1388 1.11561 0
M  V30 20137 O 662.466 8.36503 2.79617 0
M  V30 20138 O 663.006 7.71806 0.42951 0
M  V30 20139 C 663.946 7.67148 -0.673689 0
M  V30 20140 C 663.216 7.33374 -1.95559 0
M  V30 20141 O 663.006 5.88721 -2.00726 0
M  V30 20142 C 661.816 7.92526 -2.10483 0
M  V30 20143 O 661.426 8.02971 -3.47653 0
M  V30 20144 C 660.936 6.89602 -1.41652 0
M  V30 20145 C 661.646 5.59201 -1.75185 0
M  V30 20146 N 661.596 4.58235 -0.662552 0
M  V30 20147 H 664.435 8.65116 -0.777161 0
M  V30 20148 H 664.707 6.90173 -0.474152 0
M  V30 20149 H 663.839 7.66548 -2.79458 0
M  V30 20150 P 659.876 8.03563 -3.84925 0
M  V30 20151 O 659.656 8.85821 -5.0569 0
M  V30 20152 O 659.086 8.41101 -2.65469 0
M  V30 20153 O 659.626 6.49734 -4.18962 0
M  V30 20154 C 660.566 5.81037 -5.05421 0
M  V30 20155 C 659.836 4.79018 -5.88876 0
M  V30 20156 O 659.626 3.58359 -5.08515 0
M  V30 20157 C 658.436 5.17448 -6.36119 0
M  V30 20158 O 658.046 4.45322 -7.53318 0
M  V30 20159 C 657.556 4.74639 -5.19936 0
M  V30 20160 C 658.266 3.49432 -4.70418 0
M  V30 20161 N 658.216 3.31776 -3.22945 0
M  V30 20162 C 658.066 2.02742 -2.72939 0
M  V30 20163 O 657.976 1.08301 -3.52749 0
M  V30 20164 N 658.016 1.96117 -1.22063 0
M  V30 20165 C 658.116 2.8878 -0.551566 0
M  V30 20166 N 658.066 2.65609 0.750198 0
M  V30 20167 C 658.266 4.22457 -1.03707 0
M  V30 20168 C 658.316 4.37979 -2.39113 0
M  V30 20169 H 661.056 6.54138 -5.7131 0
M  V30 20170 H 661.326 5.30492 -4.44033 0
M  V30 20171 H 660.459 4.55945 -6.76735 0
M  V30 20172 H 657.804 2.6176 -5.18021 0
M  V30 20173 H 657.524 5.52233 -4.41941 0
M  V30 20174 H 656.533 4.52045 -5.53452 0
M  V30 20175 H 658.367 6.25124 -6.55234 0
M  V30 20176 H 658.439 5.37936 -2.80552 0
M  V30 20177 H 658.337 5.07528 -0.359553 0
M  V30 20178 H 657.949 1.69403 1.09847 0
M  V30 20179 H 658.145 3.43701 1.41792 0
M  V30 20180 P 656.496 4.23843 -7.83734 0
M  V30 20181 O 656.276 4.19407 -9.29784 0
M  V30 20182 O 655.706 5.24426 -7.09156 0
M  V30 20183 O 656.246 2.7935 -7.20758 0
M  V30 20184 C 657.186 1.7299 -7.50419 0
M  V30 20185 C 656.456 0.406376 -7.57911 0
M  V30 20186 O 656.246 -0.0897726 -6.21935 0
M  V30 20187 C 655.056 0.447224 -8.1878 0
M  V30 20188 O 654.666 -0.825065 -8.71101 0
M  V30 20189 C 654.176 0.783801 -6.99623 0
M  V30 20190 C 654.886 0.0619192 -5.85967 0
M  V30 20191 N 654.836 0.7859 -4.56281 0
M  V30 20192 H 657.675 1.93423 -8.4679 0
M  V30 20193 H 657.947 1.68181 -6.71046 0
M  V30 20194 H 657.079 -0.289041 -8.15388 0
M  V30 20195 P 653.116 -1.17771 -8.83182 0
M  V30 20196 O 652.896 -2.07206 -9.98732 0
M  V30 20197 O 652.326 0.0743816 -8.81969 0
M  V30 20198 O 652.866 -1.97652 -7.47304 0
M  V30 20199 C 653.806 -3.01133 -7.08783 0
M  V30 20200 C 653.076 -4.12613 -6.37049 0
M  V30 20201 O 652.866 -3.72827 -4.97879 0
M  V30 20202 C 651.676 -4.45085 -6.88694 0
M  V30 20203 O 651.286 -5.7877 -6.5624 0
M  V30 20204 C 650.796 -3.47817 -6.12078 0
M  V30 20205 C 651.506 -3.39414 -4.77697 0
M  V30 20206 N 651.456 -2.04615 -4.15333 0
M  V30 20207 H 654.295 -3.41248 -7.98759 0
M  V30 20208 H 654.567 -2.5837 -6.41742 0
M  V30 20209 H 653.699 -5.02657 -6.42673 0
M  V30 20210 P 649.736 -6.144 -6.45285 0
M  V30 20211 O 649.516 -7.54673 -6.86199 0
M  V30 20212 O 648.946 -5.12391 -7.179 0
M  V30 20213 O 649.486 -5.99158 -4.88404 0
M  V30 20214 C 650.426 -6.60234 -3.96415 0
M  V30 20215 C 649.696 -7.08259 -2.72856 0
M  V30 20216 O 649.486 -5.9427 -1.83651 0
M  V30 20217 C 648.296 -7.64886 -2.9555 0
M  V30 20218 O 647.906 -8.53963 -1.90717 0
M  V30 20219 C 647.416 -6.4116 -2.90739 0
M  V30 20220 C 648.126 -5.55375 -1.86963 0
M  V30 20221 N 648.076 -4.09664 -2.15742 0
M  V30 20222 H 650.915 -7.45574 -4.45629 0
M  V30 20223 H 651.187 -5.86232 -3.67314 0
M  V30 20224 H 650.319 -7.84412 -2.24479 0
M  V30 20225 P 646.356 -8.7635 -1.60911 0
M  V30 20226 O 646.136 -10.1388 -1.11561 0
M  V30 20227 O 645.566 -8.36503 -2.79617 0
M  V30 20228 O 646.106 -7.71806 -0.42951 0
M  V30 20229 C 647.046 -7.67148 0.673689 0
M  V30 20230 C 646.316 -7.33374 1.95559 0
M  V30 20231 O 646.106 -5.88721 2.00726 0
M  V30 20232 C 644.916 -7.92526 2.10483 0
M  V30 20233 O 644.526 -8.02971 3.47653 0
M  V30 20234 C 644.036 -6.89602 1.41652 0
M  V30 20235 C 644.746 -5.59201 1.75185 0
M  V30 20236 N 644.696 -4.58235 0.662552 0
M  V30 20237 H 647.535 -8.65116 0.777161 0
M  V30 20238 H 647.807 -6.90173 0.474152 0
M  V30 20239 H 646.939 -7.66548 2.79458 0
M  V30 20240 P 642.976 -8.03563 3.84925 0
M  V30 20241 O 642.756 -8.85821 5.0569 0
M  V30 20242 O 642.186 -8.41101 2.65469 0
M  V30 20243 O 642.726 -6.4965 4.18908 0
M  V30 20244 C 643.666 -5.81037 5.05421 0
M  V30 20245 C 642.936 -4.78366 5.89277 0
M  V30 20246 O 642.726 -3.58302 5.08433 0
M  V30 20247 C 641.536 -5.17448 6.36119 0
M  V30 20248 O 641.146 -4.45271 7.53232 0
M  V30 20249 C 640.656 -4.74639 5.19936 0
M  V30 20250 C 641.366 -3.49432 4.70418 0
M  V30 20251 N 641.316 -3.32099 3.22613 0
M  V30 20252 H 644.155 -6.54213 5.71376 0
M  V30 20253 H 644.427 -5.30936 4.43503 0
M  V30 20254 H 643.559 -4.55889 6.76652 0
M  V30 20255 H 640.904 -2.61715 5.17932 0
M  V30 20256 H 640.624 -5.52155 4.41878 0
M  V30 20257 H 639.633 -4.51981 5.53374 0
M  V30 20258 H 641.467 -6.25124 6.55234 0
M  V30 20259 P 639.596 -4.23843 7.83734 0
M  V30 20260 O 639.376 -4.19407 9.29784 0
M  V30 20261 O 638.806 -5.24426 7.09156 0
M  V30 20262 O 639.346 -2.7935 7.20758 0
M  V30 20263 C 640.286 -1.7299 7.50419 0
M  V30 20264 C 639.556 -0.406376 7.57911 0
M  V30 20265 O 639.346 0.0897726 6.21935 0
M  V30 20266 C 638.156 -0.447224 8.1878 0
M  V30 20267 O 637.766 0.825065 8.71101 0
M  V30 20268 C 637.276 -0.783801 6.99623 0
M  V30 20269 C 637.986 -0.0619192 5.85967 0
M  V30 20270 N 637.936 -0.7859 4.56281 0
M  V30 20271 H 640.775 -1.93423 8.4679 0
M  V30 20272 H 641.047 -1.68181 6.71046 0
M  V30 20273 H 640.179 0.289041 8.15388 0
M  V30 20274 P 636.216 1.17771 8.83182 0
M  V30 20275 O 635.996 2.07206 9.98732 0
M  V30 20276 O 635.426 -0.0743816 8.81969 0
M  V30 20277 O 635.966 1.97652 7.47304 0
M  V30 20278 C 636.906 3.01133 7.08783 0
M  V30 20279 C 636.176 4.12613 6.37049 0
M  V30 20280 O 635.966 3.72827 4.97879 0
M  V30 20281 C 634.776 4.45085 6.88694 0
M  V30 20282 O 634.386 5.7877 6.5624 0
M  V30 20283 C 633.896 3.47817 6.12078 0
M  V30 20284 C 634.606 3.39414 4.77697 0
M  V30 20285 N 634.556 2.04615 4.15333 0
M  V30 20286 H 637.395 3.41248 7.98759 0
M  V30 20287 H 637.667 2.5837 6.41742 0
M  V30 20288 H 636.799 5.02657 6.42673 0
M  V30 20289 P 632.836 6.144 6.45285 0
M  V30 20290 O 632.616 7.54673 6.86199 0
M  V30 20291 O 632.046 5.12391 7.179 0
M  V30 20292 O 632.586 5.99236 4.88467 0
M  V30 20293 C 633.526 6.60234 3.96415 0
M  V30 20294 C 632.796 7.08079 2.736 0
M  V30 20295 O 632.586 5.94365 1.8368 0
M  V30 20296 C 631.396 7.64886 2.9555 0
M  V30 20297 O 631.006 8.5406 1.90739 0
M  V30 20298 C 630.516 6.4116 2.90739 0
M  V30 20299 C 631.226 5.55375 1.86963 0
M  V30 20300 N 631.176 4.09664 2.15742 0
M  V30 20301 C 631.026 3.22231 1.08477 0
M  V30 20302 O 630.936 3.68951 -0.0600489 0
M  V30 20303 N 630.976 1.76692 1.48799 0
M  V30 20304 C 631.076 1.41695 2.57602 0
M  V30 20305 N 631.026 0.107296 2.75791 0
M  V30 20306 C 631.226 2.29178 3.69733 0
M  V30 20307 C 631.276 3.62753 3.42653 0
M  V30 20308 H 634.016 7.45488 4.45578 0
M  V30 20309 H 634.286 5.86232 3.67314 0
M  V30 20310 H 633.419 7.84508 2.24507 0
M  V30 20311 H 630.764 5.73556 0.888715 0
M  V30 20312 H 630.484 5.9096 3.88638 0
M  V30 20313 H 629.493 6.66053 2.58894 0
M  V30 20314 H 631.327 8.16339 3.92049 0
M  V30 20315 H 631.399 4.33052 4.24913 0
M  V30 20316 H 631.297 1.9103 4.71577 0
M  V30 20317 H 630.909 -0.521221 1.95056 0
M  V30 20318 H 631.105 -0.286429 3.70695 0
M  V30 20319 P 629.456 8.7635 1.60911 0
M  V30 20320 O 629.236 10.1388 1.11561 0
M  V30 20321 O 628.666 8.36503 2.79617 0
M  V30 20322 O 629.206 7.71806 0.42951 0
M  V30 20323 C 630.146 7.67148 -0.673689 0
M  V30 20324 C 629.416 7.33374 -1.95559 0
M  V30 20325 O 629.206 5.88721 -2.00726 0
M  V30 20326 C 628.016 7.92526 -2.10483 0
M  V30 20327 O 627.626 8.02971 -3.47653 0
M  V30 20328 C 627.136 6.89602 -1.41652 0
M  V30 20329 C 627.846 5.59201 -1.75185 0
M  V30 20330 N 627.796 4.58235 -0.662552 0
M  V30 20331 H 630.635 8.65116 -0.777161 0
M  V30 20332 H 630.907 6.90173 -0.474152 0
M  V30 20333 H 630.039 7.66548 -2.79458 0
M  V30 20334 P 626.076 8.03563 -3.84925 0
M  V30 20335 O 625.856 8.85821 -5.0569 0
M  V30 20336 O 625.286 8.41101 -2.65469 0
M  V30 20337 O 625.826 6.4965 -4.18908 0
M  V30 20338 C 626.766 5.81037 -5.05421 0
M  V30 20339 C 626.036 4.78366 -5.89277 0
M  V30 20340 O 625.826 3.58302 -5.08433 0
M  V30 20341 C 624.636 5.17448 -6.36119 0
M  V30 20342 O 624.246 4.45271 -7.53232 0
M  V30 20343 C 623.756 4.74639 -5.19936 0
M  V30 20344 C 624.466 3.49432 -4.70418 0
M  V30 20345 N 624.416 3.32099 -3.22613 0
M  V30 20346 H 627.255 6.54213 -5.71376 0
M  V30 20347 H 627.527 5.30936 -4.43503 0
M  V30 20348 H 626.659 4.55889 -6.76652 0
M  V30 20349 H 624.004 2.61715 -5.17932 0
M  V30 20350 H 623.724 5.52155 -4.41878 0
M  V30 20351 H 622.733 4.51981 -5.53374 0
M  V30 20352 H 624.567 6.25124 -6.55234 0
M  V30 20353 P 622.696 4.23843 -7.83734 0
M  V30 20354 O 622.476 4.19407 -9.29784 0
M  V30 20355 O 621.906 5.24426 -7.09156 0
M  V30 20356 O 622.446 2.7935 -7.20758 0
M  V30 20357 C 623.386 1.7299 -7.50419 0
M  V30 20358 C 622.656 0.406376 -7.57911 0
M  V30 20359 O 622.446 -0.0897726 -6.21935 0
M  V30 20360 C 621.256 0.447224 -8.1878 0
M  V30 20361 O 620.866 -0.825065 -8.71101 0
M  V30 20362 C 620.376 0.783801 -6.99623 0
M  V30 20363 C 621.086 0.0619192 -5.85967 0
M  V30 20364 N 621.036 0.7859 -4.56281 0
M  V30 20365 H 623.875 1.93423 -8.4679 0
M  V30 20366 H 624.147 1.68181 -6.71046 0
M  V30 20367 H 623.279 -0.289041 -8.15388 0
M  V30 20368 P 619.316 -1.17771 -8.83182 0
M  V30 20369 O 619.096 -2.07206 -9.98732 0
M  V30 20370 O 618.526 0.0743816 -8.81969 0
M  V30 20371 O 619.066 -1.97652 -7.47304 0
M  V30 20372 C 620.006 -3.01133 -7.08783 0
M  V30 20373 C 619.276 -4.12613 -6.37049 0
M  V30 20374 O 619.066 -3.72827 -4.97879 0
M  V30 20375 C 617.876 -4.45085 -6.88694 0
M  V30 20376 O 617.486 -5.7877 -6.5624 0
M  V30 20377 C 616.996 -3.47817 -6.12078 0
M  V30 20378 C 617.706 -3.39414 -4.77697 0
M  V30 20379 N 617.656 -2.04615 -4.15333 0
M  V30 20380 H 620.495 -3.41248 -7.98759 0
M  V30 20381 H 620.767 -2.5837 -6.41742 0
M  V30 20382 H 619.899 -5.02657 -6.42673 0
M  V30 20383 P 615.936 -6.144 -6.45285 0
M  V30 20384 O 615.716 -7.54673 -6.86199 0
M  V30 20385 O 615.146 -5.12391 -7.179 0
M  V30 20386 O 615.686 -5.99158 -4.88404 0
M  V30 20387 C 616.626 -6.60234 -3.96415 0
M  V30 20388 C 615.896 -7.08259 -2.72856 0
M  V30 20389 O 615.686 -5.9427 -1.83651 0
M  V30 20390 C 614.496 -7.64886 -2.9555 0
M  V30 20391 O 614.106 -8.53963 -1.90717 0
M  V30 20392 C 613.616 -6.4116 -2.90739 0
M  V30 20393 C 614.326 -5.55375 -1.86963 0
M  V30 20394 N 614.276 -4.09664 -2.15742 0
M  V30 20395 H 617.115 -7.45574 -4.45629 0
M  V30 20396 H 617.387 -5.86232 -3.67314 0
M  V30 20397 H 616.519 -7.84412 -2.24479 0
M  V30 20398 P 612.556 -8.7635 -1.60911 0
M  V30 20399 O 612.336 -10.1388 -1.11561 0
M  V30 20400 O 611.766 -8.36503 -2.79617 0
M  V30 20401 O 612.306 -7.71906 -0.429565 0
M  V30 20402 C 613.246 -7.67148 0.673689 0
M  V30 20403 C 612.516 -7.33666 1.94851 0
M  V30 20404 O 612.306 -5.88816 2.00759 0
M  V30 20405 C 611.116 -7.92526 2.10483 0
M  V30 20406 O 610.726 -8.03063 3.47693 0
M  V30 20407 C 610.236 -6.89602 1.41652 0
M  V30 20408 C 610.946 -5.59201 1.75185 0
M  V30 20409 N 610.896 -4.58235 0.662552 0
M  V30 20410 C 610.746 -3.24451 1.01643 0
M  V30 20411 O 610.656 -2.94958 2.21722 0
M  V30 20412 N 610.696 -2.30408 -0.165238 0
M  V30 20413 C 610.796 -2.66048 -1.25118 0
M  V30 20414 N 610.746 -1.70787 -2.16813 0
M  V30 20415 C 610.946 -4.02732 -1.64413 0
M  V30 20416 C 610.996 -4.9488 -0.63991 0
M  V30 20417 H 613.736 -8.65017 0.777072 0
M  V30 20418 H 614.006 -6.90173 0.474152 0
M  V30 20419 H 613.139 -7.66642 2.79492 0
M  V30 20420 H 610.484 -5.16254 2.65229 0
M  V30 20421 H 610.204 -7.06532 0.329431 0
M  V30 20422 H 609.213 -6.91023 1.82047 0
M  V30 20423 H 611.047 -8.90873 1.62657 0
M  V30 20424 H 611.119 -6.00104 -0.892197 0
M  V30 20425 H 611.017 -4.31733 -2.69229 0
M  V30 20426 H 610.629 -0.724835 -1.8844 0
M  V30 20427 H 610.825 -1.94716 -3.16734 0
M  V30 20428 P 609.176 -8.03563 3.84925 0
M  V30 20429 O 608.956 -8.85821 5.0569 0
M  V30 20430 O 608.386 -8.41101 2.65469 0
M  V30 20431 O 608.926 -6.4965 4.18908 0
M  V30 20432 C 609.866 -5.81037 5.05421 0
M  V30 20433 C 609.136 -4.78366 5.89277 0
M  V30 20434 O 608.926 -3.58302 5.08433 0
M  V30 20435 C 607.736 -5.17448 6.36119 0
M  V30 20436 O 607.346 -4.45271 7.53232 0
M  V30 20437 C 606.856 -4.74639 5.19936 0
M  V30 20438 C 607.566 -3.49432 4.70418 0
M  V30 20439 N 607.516 -3.32099 3.22613 0
M  V30 20440 H 610.355 -6.54213 5.71376 0
M  V30 20441 H 610.627 -5.30936 4.43503 0
M  V30 20442 H 609.759 -4.55889 6.76652 0
M  V30 20443 H 607.104 -2.61715 5.17932 0
M  V30 20444 H 606.824 -5.52155 4.41878 0
M  V30 20445 H 605.833 -4.51981 5.53374 0
M  V30 20446 H 607.667 -6.25124 6.55234 0
M  V30 20447 P 605.796 -4.23843 7.83734 0
M  V30 20448 O 605.576 -4.19407 9.29784 0
M  V30 20449 O 605.006 -5.24426 7.09156 0
M  V30 20450 O 605.546 -2.7935 7.20758 0
M  V30 20451 C 606.486 -1.7299 7.50419 0
M  V30 20452 C 605.756 -0.406376 7.57911 0
M  V30 20453 O 605.546 0.0897726 6.21935 0
M  V30 20454 C 604.356 -0.447224 8.1878 0
M  V30 20455 O 603.966 0.825065 8.71101 0
M  V30 20456 C 603.476 -0.783801 6.99623 0
M  V30 20457 C 604.186 -0.0619192 5.85967 0
M  V30 20458 N 604.136 -0.7859 4.56281 0
M  V30 20459 H 606.975 -1.93423 8.4679 0
M  V30 20460 H 607.247 -1.68181 6.71046 0
M  V30 20461 H 606.379 0.289041 8.15388 0
M  V30 20462 P 602.416 1.17771 8.83182 0
M  V30 20463 O 602.196 2.07206 9.98732 0
M  V30 20464 O 601.626 -0.0743816 8.81969 0
M  V30 20465 O 602.166 1.97652 7.47304 0
M  V30 20466 C 603.106 3.01133 7.08783 0
M  V30 20467 C 602.376 4.12613 6.37049 0
M  V30 20468 O 602.166 3.72827 4.97879 0
M  V30 20469 C 600.976 4.45085 6.88694 0
M  V30 20470 O 600.586 5.7877 6.5624 0
M  V30 20471 C 600.096 3.47817 6.12078 0
M  V30 20472 C 600.806 3.39414 4.77697 0
M  V30 20473 N 600.756 2.04615 4.15333 0
M  V30 20474 H 603.595 3.41248 7.98759 0
M  V30 20475 H 603.867 2.5837 6.41742 0
M  V30 20476 H 602.999 5.02657 6.42673 0
M  V30 20477 P 599.036 6.144 6.45285 0
M  V30 20478 O 598.816 7.54673 6.86199 0
M  V30 20479 O 598.246 5.12391 7.179 0
M  V30 20480 O 598.786 5.99158 4.88404 0
M  V30 20481 C 599.726 6.60234 3.96415 0
M  V30 20482 C 598.996 7.08259 2.72856 0
M  V30 20483 O 598.786 5.9427 1.83651 0
M  V30 20484 C 597.596 7.64886 2.9555 0
M  V30 20485 O 597.206 8.53963 1.90717 0
M  V30 20486 C 596.716 6.4116 2.90739 0
M  V30 20487 C 597.426 5.55375 1.86963 0
M  V30 20488 N 597.376 4.09664 2.15742 0
M  V30 20489 C 597.456 3.44381 3.37233 0
M  V30 20490 N 597.376 2.14131 3.28347 0
M  V30 20491 C 597.236 1.90247 1.91588 0
M  V30 20492 C 597.106 0.683992 1.20892 0
M  V30 20493 O 597.086 -0.46618 1.64523 0
M  V30 20494 N 596.986 0.903396 -0.173998 0
M  V30 20495 C 596.986 2.14171 -0.784879 0
M  V30 20496 N 596.856 2.1435 -2.11317 0
M  V30 20497 N 597.116 3.28784 -0.119316 0
M  V30 20498 C 597.236 3.0977 1.22194 0
M  V30 20499 H 600.215 7.45574 4.45629 0
M  V30 20500 H 600.487 5.86232 3.67314 0
M  V30 20501 H 599.619 7.84412 2.24479 0
M  V30 20502 H 596.964 5.73556 0.888715 0
M  V30 20503 H 596.684 5.9096 3.88638 0
M  V30 20504 H 595.693 6.66053 2.58894 0
M  V30 20505 H 597.527 8.16429 3.92093 0
M  V30 20506 H 597.576 3.96785 4.32043 0
M  V30 20507 H 596.894 0.0999567 -0.761467 0
M  V30 20508 H 596.857 3.03436 -2.63076 0
M  V30 20509 H 596.756 1.25228 -2.62233 0
M  V30 20510 P 595.656 8.7635 1.60911 0
M  V30 20511 O 595.437 10.1388 1.11561 0
M  V30 20512 O 594.866 8.36503 2.79617 0
M  V30 20513 O 595.406 7.71806 0.42951 0
M  V30 20514 C 596.346 7.67148 -0.673689 0
M  V30 20515 C 595.616 7.33374 -1.95559 0
M  V30 20516 O 595.406 5.88721 -2.00726 0
M  V30 20517 C 594.216 7.92526 -2.10483 0
M  V30 20518 O 593.827 8.02971 -3.47653 0
M  V30 20519 C 593.337 6.89602 -1.41652 0
M  V30 20520 C 594.046 5.59201 -1.75185 0
M  V30 20521 N 593.996 4.58235 -0.662552 0
M  V30 20522 C 594.077 4.7683 0.704049 0
M  V30 20523 N 593.996 3.66233 1.39775 0
M  V30 20524 C 593.856 2.66526 0.431739 0
M  V30 20525 C 593.726 1.26394 0.575992 0
M  V30 20526 N 593.606 0.62859 -0.67177 0
M  V30 20527 C 593.606 1.27134 -1.89385 0
M  V30 20528 N 593.476 0.492035 -2.96951 0
M  V30 20529 N 593.736 2.58978 -2.02907 0
M  V30 20530 C 593.856 3.22433 -0.832218 0
M  V30 20531 H 596.836 8.65116 -0.777161 0
M  V30 20532 H 597.107 6.90173 -0.474152 0
M  V30 20533 H 596.24 7.66548 -2.79458 0
M  V30 20534 P 592.277 8.03563 -3.84925 0
M  V30 20535 O 592.057 8.85821 -5.0569 0
M  V30 20536 O 591.487 8.41101 -2.65469 0
M  V30 20537 O 592.027 6.49734 -4.18962 0
M  V30 20538 C 592.967 5.81037 -5.05421 0
M  V30 20539 C 592.237 4.79018 -5.88876 0
M  V30 20540 O 592.027 3.58359 -5.08515 0
M  V30 20541 C 590.837 5.17448 -6.36119 0
M  V30 20542 O 590.447 4.45322 -7.53318 0
M  V30 20543 C 589.957 4.74639 -5.19936 0
M  V30 20544 C 590.667 3.49432 -4.70418 0
M  V30 20545 N 590.617 3.31776 -3.22945 0
M  V30 20546 C 590.467 2.02742 -2.72939 0
M  V30 20547 O 590.377 1.08301 -3.52749 0
M  V30 20548 N 590.417 1.96117 -1.22063 0
M  V30 20549 C 590.517 2.8878 -0.551566 0
M  V30 20550 N 590.467 2.65609 0.750198 0
M  V30 20551 C 590.667 4.22457 -1.03707 0
M  V30 20552 C 590.717 4.37979 -2.39113 0
M  V30 20553 H 593.457 6.54138 -5.7131 0
M  V30 20554 H 593.727 5.30492 -4.44033 0
M  V30 20555 H 592.86 4.55945 -6.76735 0
M  V30 20556 H 590.205 2.6176 -5.18021 0
M  V30 20557 H 589.925 5.52233 -4.41941 0
M  V30 20558 H 588.934 4.52045 -5.53452 0
M  V30 20559 H 590.768 6.25124 -6.55234 0
M  V30 20560 H 590.84 5.37936 -2.80552 0
M  V30 20561 H 590.738 5.07528 -0.359553 0
M  V30 20562 H 590.35 1.69403 1.09847 0
M  V30 20563 H 590.546 3.43701 1.41792 0
M  V30 20564 P 588.897 4.23843 -7.83734 0
M  V30 20565 O 588.677 4.19407 -9.29784 0
M  V30 20566 O 588.107 5.24426 -7.09156 0
M  V30 20567 O 588.647 2.7935 -7.20758 0
M  V30 20568 C 589.587 1.7299 -7.50419 0
M  V30 20569 C 588.857 0.406376 -7.57911 0
M  V30 20570 O 588.647 -0.0897726 -6.21935 0
M  V30 20571 C 587.457 0.447224 -8.1878 0
M  V30 20572 O 587.067 -0.825065 -8.71101 0
M  V30 20573 C 586.577 0.783801 -6.99623 0
M  V30 20574 C 587.287 0.0619192 -5.85967 0
M  V30 20575 N 587.237 0.7859 -4.56281 0
M  V30 20576 H 590.076 1.93423 -8.4679 0
M  V30 20577 H 590.348 1.68181 -6.71046 0
M  V30 20578 H 589.48 -0.289041 -8.15388 0
M  V30 20579 P 585.517 -1.17771 -8.83182 0
M  V30 20580 O 585.297 -2.07206 -9.98732 0
M  V30 20581 O 584.727 0.0743816 -8.81969 0
M  V30 20582 O 585.267 -1.97652 -7.47304 0
M  V30 20583 C 586.207 -3.01133 -7.08783 0
M  V30 20584 C 585.477 -4.12613 -6.37049 0
M  V30 20585 O 585.267 -3.72827 -4.97879 0
M  V30 20586 C 584.077 -4.45085 -6.88694 0
M  V30 20587 O 583.687 -5.7877 -6.5624 0
M  V30 20588 C 583.197 -3.47817 -6.12078 0
M  V30 20589 C 583.907 -3.39414 -4.77697 0
M  V30 20590 N 583.857 -2.04615 -4.15333 0
M  V30 20591 H 586.696 -3.41248 -7.98759 0
M  V30 20592 H 586.968 -2.5837 -6.41742 0
M  V30 20593 H 586.1 -5.02657 -6.42673 0
M  V30 20594 P 582.137 -6.144 -6.45285 0
M  V30 20595 O 581.917 -7.54673 -6.86199 0
M  V30 20596 O 581.347 -5.12391 -7.179 0
M  V30 20597 O 581.887 -5.99158 -4.88404 0
M  V30 20598 C 582.827 -6.60234 -3.96415 0
M  V30 20599 C 582.097 -7.08259 -2.72856 0
M  V30 20600 O 581.887 -5.9427 -1.83651 0
M  V30 20601 C 580.697 -7.64886 -2.9555 0
M  V30 20602 O 580.307 -8.53963 -1.90717 0
M  V30 20603 C 579.817 -6.4116 -2.90739 0
M  V30 20604 C 580.527 -5.55375 -1.86963 0
M  V30 20605 N 580.477 -4.09664 -2.15742 0
M  V30 20606 H 583.316 -7.45574 -4.45629 0
M  V30 20607 H 583.588 -5.86232 -3.67314 0
M  V30 20608 H 582.72 -7.84412 -2.24479 0
M  V30 20609 P 578.757 -8.7635 -1.60911 0
M  V30 20610 O 578.537 -10.1388 -1.11561 0
M  V30 20611 O 577.967 -8.36503 -2.79617 0
M  V30 20612 O 578.507 -7.71806 -0.42951 0
M  V30 20613 C 579.447 -7.67148 0.673689 0
M  V30 20614 C 578.717 -7.33374 1.95559 0
M  V30 20615 O 578.507 -5.88721 2.00726 0
M  V30 20616 C 577.317 -7.92526 2.10483 0
M  V30 20617 O 576.927 -8.02971 3.47653 0
M  V30 20618 C 576.437 -6.89602 1.41652 0
M  V30 20619 C 577.147 -5.59201 1.75185 0
M  V30 20620 N 577.097 -4.58235 0.662552 0
M  V30 20621 H 579.936 -8.65116 0.777161 0
M  V30 20622 H 580.208 -6.90173 0.474152 0
M  V30 20623 H 579.34 -7.66548 2.79458 0
M  V30 20624 P 575.377 -8.03563 3.84925 0
M  V30 20625 O 575.157 -8.85821 5.0569 0
M  V30 20626 O 574.587 -8.41101 2.65469 0
M  V30 20627 O 575.127 -6.4965 4.18908 0
M  V30 20628 C 576.067 -5.81037 5.05421 0
M  V30 20629 C 575.337 -4.78366 5.89277 0
M  V30 20630 O 575.127 -3.58302 5.08433 0
M  V30 20631 C 573.937 -5.17448 6.36119 0
M  V30 20632 O 573.547 -4.45271 7.53232 0
M  V30 20633 C 573.057 -4.74639 5.19936 0
M  V30 20634 C 573.767 -3.49432 4.70418 0
M  V30 20635 N 573.717 -3.31776 3.22945 0
M  V30 20636 H 576.556 -6.54213 5.71376 0
M  V30 20637 H 576.828 -5.30492 4.44033 0
M  V30 20638 H 575.96 -4.55889 6.76652 0
M  V30 20639 P 571.997 -4.23843 7.83734 0
M  V30 20640 O 571.777 -4.19407 9.29784 0
M  V30 20641 O 571.207 -5.24426 7.09156 0
M  V30 20642 O 571.747 -2.7935 7.20758 0
M  V30 20643 C 572.687 -1.7299 7.50419 0
M  V30 20644 C 571.957 -0.406376 7.57911 0
M  V30 20645 O 571.747 0.0897726 6.21935 0
M  V30 20646 C 570.557 -0.447224 8.1878 0
M  V30 20647 O 570.167 0.825065 8.71101 0
M  V30 20648 C 569.677 -0.783801 6.99623 0
M  V30 20649 C 570.387 -0.0619192 5.85967 0
M  V30 20650 N 570.337 -0.790462 4.56202 0
M  V30 20651 H 573.176 -1.93423 8.4679 0
M  V30 20652 H 573.448 -1.68852 6.70877 0
M  V30 20653 H 572.58 0.289041 8.15388 0
M  V30 20654 H 569.925 0.927006 5.72848 0
M  V30 20655 H 569.645 -1.86973 6.82036 0
M  V30 20656 H 568.654 -0.403953 7.13357 0
M  V30 20657 H 570.488 -1.20599 8.97534 0
M  V30 20658 P 568.617 1.17771 8.83182 0
M  V30 20659 O 568.397 2.07206 9.98732 0
M  V30 20660 O 567.827 -0.0743816 8.81969 0
M  V30 20661 O 568.367 1.97652 7.47304 0
M  V30 20662 C 569.307 3.01133 7.08783 0
M  V30 20663 C 568.577 4.12613 6.37049 0
M  V30 20664 O 568.367 3.72827 4.97879 0
M  V30 20665 C 567.177 4.45085 6.88694 0
M  V30 20666 O 566.787 5.7877 6.5624 0
M  V30 20667 C 566.297 3.47817 6.12078 0
M  V30 20668 C 567.007 3.39414 4.77697 0
M  V30 20669 N 566.957 2.04615 4.15333 0
M  V30 20670 H 569.796 3.41248 7.98759 0
M  V30 20671 H 570.068 2.5837 6.41742 0
M  V30 20672 H 569.2 5.02657 6.42673 0
M  V30 20673 P 565.237 6.144 6.45285 0
M  V30 20674 O 565.017 7.54673 6.86199 0
M  V30 20675 O 564.447 5.12391 7.179 0
M  V30 20676 O 564.987 5.99158 4.88404 0
M  V30 20677 C 565.927 6.60062 3.96313 0
M  V30 20678 C 565.197 7.08259 2.72856 0
M  V30 20679 O 564.987 5.9427 1.83651 0
M  V30 20680 C 563.797 7.65087 2.94749 0
M  V30 20681 O 563.407 8.53963 1.90717 0
M  V30 20682 C 562.917 6.41069 2.90698 0
M  V30 20683 C 563.627 5.5528 1.86931 0
M  V30 20684 N 563.577 4.09575 2.15696 0
M  V30 20685 C 563.427 3.24249 1.08435 0
M  V30 20686 O 563.337 3.63946 -0.0628747 0
M  V30 20687 N 563.387 1.90009 1.39973 0
M  V30 20688 C 563.477 1.34884 2.65614 0
M  V30 20689 O 563.427 0.123716 2.81728 0
M  V30 20690 C 563.627 2.3145 3.71736 0
M  V30 20691 C 563.737 1.75913 5.10438 0
M  V30 20692 C 563.677 3.63518 3.44754 0
M  V30 20693 H 566.418 7.45402 4.45526 0
M  V30 20694 H 566.687 5.86062 3.67208 0
M  V30 20695 H 565.82 7.84412 2.24479 0
M  V30 20696 H 563.165 5.73358 0.888409 0
M  V30 20697 H 562.886 5.90877 3.88583 0
M  V30 20698 H 561.894 6.65867 2.58821 0
M  V30 20699 H 563.728 8.16248 3.92006 0
M  V30 20700 H 563.799 4.34551 4.26383 0
M  V30 20701 H 562.769 1.85471 5.61775 0
M  V30 20702 H 564.506 2.31364 5.66257 0
M  V30 20703 H 564.018 0.695936 5.05229 0
M  V30 20704 H 563.282 1.26277 0.63625 0
M  V30 20705 P 561.857 8.7635 1.60911 0
M  V30 20706 O 561.637 10.1388 1.11561 0
M  V30 20707 O 561.067 8.36503 2.79617 0
M  V30 20708 O 561.607 7.71806 0.42951 0
M  V30 20709 C 562.547 7.67148 -0.673689 0
M  V30 20710 C 561.817 7.33374 -1.95559 0
M  V30 20711 O 561.607 5.88721 -2.00726 0
M  V30 20712 C 560.417 7.92526 -2.10483 0
M  V30 20713 O 560.027 8.02971 -3.47653 0
M  V30 20714 C 559.537 6.89602 -1.41652 0
M  V30 20715 C 560.247 5.59201 -1.75185 0
M  V30 20716 N 560.197 4.58235 -0.662552 0
M  V30 20717 H 563.036 8.65116 -0.777161 0
M  V30 20718 H 563.308 6.90173 -0.474152 0
M  V30 20719 H 562.44 7.66548 -2.79458 0
M  V30 20720 P 558.477 8.03563 -3.84925 0
M  V30 20721 O 558.257 8.85821 -5.0569 0
M  V30 20722 O 557.687 8.41101 -2.65469 0
M  V30 20723 O 558.227 6.4965 -4.18908 0
M  V30 20724 C 559.167 5.81037 -5.05421 0
M  V30 20725 C 558.437 4.78366 -5.89277 0
M  V30 20726 O 558.227 3.58302 -5.08433 0
M  V30 20727 C 557.037 5.17448 -6.36119 0
M  V30 20728 O 556.647 4.45271 -7.53232 0
M  V30 20729 C 556.157 4.74639 -5.19936 0
M  V30 20730 C 556.867 3.49432 -4.70418 0
M  V30 20731 N 556.817 3.31776 -3.22945 0
M  V30 20732 H 559.656 6.54213 -5.71376 0
M  V30 20733 H 559.928 5.30492 -4.44033 0
M  V30 20734 H 559.06 4.55889 -6.76652 0
M  V30 20735 P 555.097 4.23843 -7.83734 0
M  V30 20736 O 554.877 4.19407 -9.29784 0
M  V30 20737 O 554.307 5.24426 -7.09156 0
M  V30 20738 O 554.847 2.7935 -7.20758 0
M  V30 20739 C 555.787 1.7299 -7.50419 0
M  V30 20740 C 555.057 0.406376 -7.57911 0
M  V30 20741 O 554.847 -0.0897726 -6.21935 0
M  V30 20742 C 553.657 0.447224 -8.1878 0
M  V30 20743 O 553.267 -0.825065 -8.71101 0
M  V30 20744 C 552.777 0.783801 -6.99623 0
M  V30 20745 C 553.487 0.0619192 -5.85967 0
M  V30 20746 N 553.437 0.790462 -4.56202 0
M  V30 20747 H 556.276 1.93423 -8.4679 0
M  V30 20748 H 556.548 1.68852 -6.70877 0
M  V30 20749 H 555.68 -0.289041 -8.15388 0
M  V30 20750 H 553.025 -0.927006 -5.72848 0
M  V30 20751 H 552.745 1.86973 -6.82036 0
M  V30 20752 H 551.754 0.403953 -7.13357 0
M  V30 20753 H 553.588 1.20599 -8.97534 0
M  V30 20754 P 551.717 -1.17771 -8.83182 0
M  V30 20755 O 551.497 -2.07206 -9.98732 0
M  V30 20756 O 550.927 0.0743816 -8.81969 0
M  V30 20757 O 551.467 -1.97652 -7.47304 0
M  V30 20758 C 552.407 -3.01133 -7.08783 0
M  V30 20759 C 551.677 -4.12613 -6.37049 0
M  V30 20760 O 551.467 -3.72827 -4.97879 0
M  V30 20761 C 550.277 -4.45085 -6.88694 0
M  V30 20762 O 549.887 -5.7877 -6.5624 0
M  V30 20763 C 549.397 -3.47817 -6.12078 0
M  V30 20764 C 550.107 -3.39414 -4.77697 0
M  V30 20765 N 550.057 -2.04615 -4.15333 0
M  V30 20766 H 552.896 -3.41248 -7.98759 0
M  V30 20767 H 553.168 -2.5837 -6.41742 0
M  V30 20768 H 552.3 -5.02657 -6.42673 0
M  V30 20769 P 548.337 -6.144 -6.45285 0
M  V30 20770 O 548.117 -7.54673 -6.86199 0
M  V30 20771 O 547.547 -5.12391 -7.179 0
M  V30 20772 O 548.087 -5.99158 -4.88404 0
M  V30 20773 C 549.027 -6.60234 -3.96415 0
M  V30 20774 C 548.297 -7.08259 -2.72856 0
M  V30 20775 O 548.087 -5.9427 -1.83651 0
M  V30 20776 C 546.897 -7.64886 -2.9555 0
M  V30 20777 O 546.507 -8.53963 -1.90717 0
M  V30 20778 C 546.017 -6.4116 -2.90739 0
M  V30 20779 C 546.727 -5.55375 -1.86963 0
M  V30 20780 N 546.677 -4.09448 -2.16152 0
M  V30 20781 H 549.516 -7.45574 -4.45629 0
M  V30 20782 H 549.788 -5.85864 -3.679 0
M  V30 20783 H 548.92 -7.84412 -2.24479 0
M  V30 20784 H 546.265 -5.73457 -0.888562 0
M  V30 20785 H 545.985 -5.90877 -3.88583 0
M  V30 20786 H 544.994 -6.6596 -2.58858 0
M  V30 20787 H 546.828 -8.16339 -3.92049 0
M  V30 20788 P 544.957 -8.7635 -1.60911 0
M  V30 20789 O 544.737 -10.1388 -1.11561 0
M  V30 20790 O 544.167 -8.36503 -2.79617 0
M  V30 20791 O 544.707 -7.71806 -0.42951 0
M  V30 20792 C 545.647 -7.67148 0.673689 0
M  V30 20793 C 544.917 -7.33374 1.95559 0
M  V30 20794 O 544.707 -5.88721 2.00726 0
M  V30 20795 C 543.517 -7.92526 2.10483 0
M  V30 20796 O 543.127 -8.02971 3.47653 0
M  V30 20797 C 542.637 -6.89602 1.41652 0
M  V30 20798 C 543.347 -5.59201 1.75185 0
M  V30 20799 N 543.297 -4.58235 0.662552 0
M  V30 20800 H 546.136 -8.65116 0.777161 0
M  V30 20801 H 546.408 -6.90173 0.474152 0
M  V30 20802 H 545.54 -7.66548 2.79458 0
M  V30 20803 P 541.577 -8.03563 3.84925 0
M  V30 20804 O 541.357 -8.85821 5.0569 0
M  V30 20805 O 540.787 -8.41101 2.65469 0
M  V30 20806 O 541.327 -6.4965 4.18908 0
M  V30 20807 C 542.267 -5.81037 5.05421 0
M  V30 20808 C 541.537 -4.78366 5.89277 0
M  V30 20809 O 541.327 -3.58302 5.08433 0
M  V30 20810 C 540.137 -5.17448 6.36119 0
M  V30 20811 O 539.747 -4.45271 7.53232 0
M  V30 20812 C 539.257 -4.74639 5.19936 0
M  V30 20813 C 539.967 -3.49432 4.70418 0
M  V30 20814 N 539.917 -3.32099 3.22613 0
M  V30 20815 H 542.756 -6.54213 5.71376 0
M  V30 20816 H 543.028 -5.30936 4.43503 0
M  V30 20817 H 542.16 -4.55889 6.76652 0
M  V30 20818 H 539.505 -2.61715 5.17932 0
M  V30 20819 H 539.225 -5.52155 4.41878 0
M  V30 20820 H 538.234 -4.51981 5.53374 0
M  V30 20821 H 540.068 -6.25124 6.55234 0
M  V30 20822 P 538.197 -4.23843 7.83734 0
M  V30 20823 O 537.977 -4.19407 9.29784 0
M  V30 20824 O 537.407 -5.24426 7.09156 0
M  V30 20825 O 537.947 -2.7935 7.20758 0
M  V30 20826 C 538.887 -1.7299 7.50419 0
M  V30 20827 C 538.157 -0.406376 7.57911 0
M  V30 20828 O 537.947 0.0897726 6.21935 0
M  V30 20829 C 536.757 -0.447224 8.1878 0
M  V30 20830 O 536.367 0.825065 8.71101 0
M  V30 20831 C 535.877 -0.783801 6.99623 0
M  V30 20832 C 536.587 -0.0619192 5.85967 0
M  V30 20833 N 536.537 -0.7859 4.56281 0
M  V30 20834 H 539.376 -1.93423 8.4679 0
M  V30 20835 H 539.648 -1.68181 6.71046 0
M  V30 20836 H 538.78 0.289041 8.15388 0
M  V30 20837 P 534.817 1.17771 8.83182 0
M  V30 20838 O 534.597 2.07206 9.98732 0
M  V30 20839 O 534.027 -0.0743816 8.81969 0
M  V30 20840 O 534.567 1.97652 7.47304 0
M  V30 20841 C 535.507 3.01133 7.08783 0
M  V30 20842 C 534.777 4.12613 6.37049 0
M  V30 20843 O 534.567 3.72827 4.97879 0
M  V30 20844 C 533.377 4.45085 6.88694 0
M  V30 20845 O 532.987 5.7877 6.5624 0
M  V30 20846 C 532.497 3.47817 6.12078 0
M  V30 20847 C 533.207 3.39414 4.77697 0
M  V30 20848 N 533.157 2.04615 4.15333 0
M  V30 20849 H 535.996 3.41248 7.98759 0
M  V30 20850 H 536.268 2.5837 6.41742 0
M  V30 20851 H 535.4 5.02657 6.42673 0
M  V30 20852 P 531.437 6.144 6.45285 0
M  V30 20853 O 531.217 7.54673 6.86199 0
M  V30 20854 O 530.647 5.12391 7.179 0
M  V30 20855 O 531.187 5.99158 4.88404 0
M  V30 20856 C 532.127 6.60062 3.96313 0
M  V30 20857 C 531.397 7.08259 2.72856 0
M  V30 20858 O 531.187 5.9427 1.83651 0
M  V30 20859 C 529.997 7.65087 2.94749 0
M  V30 20860 O 529.607 8.53963 1.90717 0
M  V30 20861 C 529.117 6.41069 2.90698 0
M  V30 20862 C 529.827 5.5528 1.86931 0
M  V30 20863 N 529.777 4.09575 2.15696 0
M  V30 20864 C 529.627 3.24249 1.08435 0
M  V30 20865 O 529.537 3.63946 -0.0628747 0
M  V30 20866 N 529.587 1.90009 1.39973 0
M  V30 20867 C 529.677 1.34884 2.65614 0
M  V30 20868 C 529.827 2.3145 3.71736 0
M  V30 20869 C 529.877 3.63518 3.44754 0
M  V30 20870 H 532.618 7.45402 4.45526 0
M  V30 20871 H 532.887 5.86062 3.67208 0
M  V30 20872 H 532.02 7.84412 2.24479 0
M  V30 20873 H 529.365 5.73358 0.888409 0
M  V30 20874 H 529.086 5.90877 3.88583 0
M  V30 20875 H 528.094 6.65867 2.58821 0
M  V30 20876 H 529.928 8.16248 3.92006 0
M  V30 20877 H 529.999 4.34551 4.26383 0
M  V30 20878 P 528.057 8.7635 1.60911 0
M  V30 20879 O 527.837 10.1388 1.11561 0
M  V30 20880 O 527.267 8.36503 2.79617 0
M  V30 20881 O 527.807 7.71806 0.42951 0
M  V30 20882 C 528.747 7.67148 -0.673689 0
M  V30 20883 C 528.017 7.33374 -1.95559 0
M  V30 20884 O 527.807 5.88721 -2.00726 0
M  V30 20885 C 526.617 7.92526 -2.10483 0
M  V30 20886 O 526.227 8.02971 -3.47653 0
M  V30 20887 C 525.737 6.89602 -1.41652 0
M  V30 20888 C 526.447 5.59201 -1.75185 0
M  V30 20889 N 526.397 4.58301 -0.657969 0
M  V30 20890 H 529.236 8.65116 -0.777161 0
M  V30 20891 H 529.508 6.9022 -0.46725 0
M  V30 20892 H 528.64 7.66548 -2.79458 0
M  V30 20893 H 525.985 5.16165 -2.65183 0
M  V30 20894 H 525.705 7.06433 -0.329384 0
M  V30 20895 H 524.714 6.90926 -1.82021 0
M  V30 20896 H 526.548 8.90873 -1.62657 0
M  V30 20897 P 524.677 8.03563 -3.84925 0
M  V30 20898 O 524.457 8.85821 -5.0569 0
M  V30 20899 O 523.887 8.41101 -2.65469 0
M  V30 20900 O 524.427 6.4965 -4.18908 0
M  V30 20901 C 525.367 5.81037 -5.05421 0
M  V30 20902 C 524.637 4.78366 -5.89277 0
M  V30 20903 O 524.427 3.58302 -5.08433 0
M  V30 20904 C 523.237 5.17448 -6.36119 0
M  V30 20905 O 522.847 4.45271 -7.53232 0
M  V30 20906 C 522.357 4.74639 -5.19936 0
M  V30 20907 C 523.067 3.49432 -4.70418 0
M  V30 20908 N 523.017 3.31776 -3.22945 0
M  V30 20909 H 525.856 6.54213 -5.71376 0
M  V30 20910 H 526.128 5.30492 -4.44033 0
M  V30 20911 H 525.26 4.55889 -6.76652 0
M  V30 20912 P 521.297 4.23843 -7.83734 0
M  V30 20913 O 521.077 4.19407 -9.29784 0
M  V30 20914 O 520.507 5.24426 -7.09156 0
M  V30 20915 O 521.047 2.7935 -7.20758 0
M  V30 20916 C 521.987 1.7299 -7.50419 0
M  V30 20917 C 521.257 0.406376 -7.57911 0
M  V30 20918 O 521.047 -0.0897726 -6.21935 0
M  V30 20919 C 519.857 0.447224 -8.1878 0
M  V30 20920 O 519.467 -0.825065 -8.71101 0
M  V30 20921 C 518.977 0.783801 -6.99623 0
M  V30 20922 C 519.687 0.0619192 -5.85967 0
M  V30 20923 N 519.637 0.7859 -4.56281 0
M  V30 20924 H 522.476 1.93423 -8.4679 0
M  V30 20925 H 522.748 1.68181 -6.71046 0
M  V30 20926 H 521.88 -0.289041 -8.15388 0
M  V30 20927 P 517.917 -1.17771 -8.83182 0
M  V30 20928 O 517.697 -2.07206 -9.98732 0
M  V30 20929 O 517.127 0.0743816 -8.81969 0
M  V30 20930 O 517.667 -1.97652 -7.47304 0
M  V30 20931 C 518.607 -3.01133 -7.08783 0
M  V30 20932 C 517.877 -4.12613 -6.37049 0
M  V30 20933 O 517.667 -3.72827 -4.97879 0
M  V30 20934 C 516.477 -4.45085 -6.88694 0
M  V30 20935 O 516.087 -5.7877 -6.5624 0
M  V30 20936 C 515.597 -3.47817 -6.12078 0
M  V30 20937 C 516.307 -3.39414 -4.77697 0
M  V30 20938 N 516.257 -2.04199 -4.15538 0
M  V30 20939 H 519.096 -3.41248 -7.98759 0
M  V30 20940 H 519.368 -2.57728 -6.42 0
M  V30 20941 H 518.5 -5.02657 -6.42673 0
M  V30 20942 H 515.845 -4.11708 -4.08956 0
M  V30 20943 H 515.565 -2.49626 -6.61679 0
M  V30 20944 H 514.574 -3.8662 -6.00862 0
M  V30 20945 H 516.408 -4.29991 -7.97006 0
M  V30 20946 P 514.537 -6.144 -6.45285 0
M  V30 20947 O 514.317 -7.54673 -6.86199 0
M  V30 20948 O 513.747 -5.12391 -7.179 0
M  V30 20949 O 514.287 -5.99158 -4.88404 0
M  V30 20950 C 515.227 -6.60062 -3.96313 0
M  V30 20951 C 514.497 -7.08259 -2.72856 0
M  V30 20952 O 514.287 -5.9427 -1.83651 0
M  V30 20953 C 513.097 -7.65087 -2.94749 0
M  V30 20954 O 512.707 -8.53963 -1.90717 0
M  V30 20955 C 512.217 -6.41069 -2.90698 0
M  V30 20956 C 512.927 -5.5528 -1.86931 0
M  V30 20957 N 512.877 -4.09575 -2.15696 0
M  V30 20958 C 512.727 -3.24249 -1.08435 0
M  V30 20959 O 512.637 -3.63946 0.0628747 0
M  V30 20960 N 512.687 -1.90009 -1.39973 0
M  V30 20961 C 512.777 -1.34884 -2.65614 0
M  V30 20962 C 512.927 -2.3145 -3.71736 0
M  V30 20963 C 512.977 -3.63518 -3.44754 0
M  V30 20964 H 515.718 -7.45402 -4.45526 0
M  V30 20965 H 515.987 -5.86062 -3.67208 0
M  V30 20966 H 515.12 -7.84412 -2.24479 0
M  V30 20967 H 512.465 -5.73358 -0.888409 0
M  V30 20968 H 512.186 -5.90877 -3.88583 0
M  V30 20969 H 511.194 -6.65867 -2.58821 0
M  V30 20970 H 513.028 -8.16248 -3.92006 0
M  V30 20971 H 513.099 -4.34551 -4.26383 0
M  V30 20972 P 511.157 -8.7635 -1.60911 0
M  V30 20973 O 510.937 -10.1388 -1.11561 0
M  V30 20974 O 510.367 -8.36503 -2.79617 0
M  V30 20975 O 510.907 -7.71806 -0.42951 0
M  V30 20976 C 511.847 -7.66948 0.673514 0
M  V30 20977 C 511.117 -7.33374 1.95559 0
M  V30 20978 O 510.907 -5.88721 2.00726 0
M  V30 20979 C 509.717 -7.92218 2.1125 0
M  V30 20980 O 509.327 -8.02971 3.47653 0
M  V30 20981 C 508.837 -6.89504 1.41631 0
M  V30 20982 C 509.547 -5.59106 1.75155 0
M  V30 20983 N 509.497 -4.58136 0.662409 0
M  V30 20984 C 509.347 -3.26059 1.02863 0
M  V30 20985 O 509.257 -2.90743 2.19009 0
M  V30 20986 N 509.307 -2.35995 -0.0155585 0
M  V30 20987 C 509.397 -2.65248 -1.35603 0
M  V30 20988 O 509.347 -1.75605 -2.20651 0
M  V30 20989 C 509.547 -4.05747 -1.64698 0
M  V30 20990 C 509.657 -4.42345 -3.09553 0
M  V30 20991 C 509.597 -4.96734 -0.652411 0
M  V30 20992 H 512.338 -8.64917 0.776982 0
M  V30 20993 H 512.607 -6.89974 0.474015 0
M  V30 20994 H 511.74 -7.66548 2.79458 0
M  V30 20995 H 509.085 -5.16076 2.65138 0
M  V30 20996 H 508.806 -7.06433 0.329384 0
M  V30 20997 H 507.814 -6.90829 1.81996 0
M  V30 20998 H 509.648 -8.90774 1.62639 0
M  V30 20999 H 509.719 -6.02181 -0.895285 0
M  V30 21000 H 508.689 -4.80252 -3.45468 0
M  V30 21001 H 510.426 -5.20015 -3.22119 0
M  V30 21002 H 509.938 -3.53269 -3.67833 0
M  V30 21003 H 509.202 -1.39558 0.227499 0
M  V30 21004 P 507.777 -8.03563 3.84925 0
M  V30 21005 O 507.557 -8.85821 5.0569 0
M  V30 21006 O 506.987 -8.41101 2.65469 0
M  V30 21007 O 507.527 -6.4965 4.18908 0
M  V30 21008 C 508.467 -5.80886 5.05289 0
M  V30 21009 C 507.737 -4.78366 5.89277 0
M  V30 21010 O 507.527 -3.58302 5.08433 0
M  V30 21011 C 506.337 -5.16748 6.36559 0
M  V30 21012 O 505.947 -4.45271 7.53232 0
M  V30 21013 C 505.457 -4.74572 5.19863 0
M  V30 21014 C 506.167 -3.49373 4.70338 0
M  V30 21015 N 506.117 -3.31704 3.22876 0
M  V30 21016 C 505.967 -2.03326 2.74871 0
M  V30 21017 O 505.877 -1.06486 3.48076 0
M  V30 21018 N 505.927 -1.91838 1.37456 0
M  V30 21019 C 506.017 -2.94295 0.462035 0
M  V30 21020 O 505.967 -2.71763 -0.752928 0
M  V30 21021 C 506.167 -4.25064 1.05249 0
M  V30 21022 C 506.277 -5.39815 0.095697 0
M  V30 21023 C 506.217 -4.40214 2.39192 0
M  V30 21024 H 508.958 -6.54063 5.71245 0
M  V30 21025 H 509.227 -5.30339 4.43905 0
M  V30 21026 H 508.36 -4.55889 6.76652 0
M  V30 21027 H 505.705 -2.6167 5.17842 0
M  V30 21028 H 505.426 -5.52155 4.41878 0
M  V30 21029 H 504.434 -4.51918 5.53297 0
M  V30 21030 H 506.268 -6.25055 6.55162 0
M  V30 21031 H 506.339 -5.39798 2.81523 0
M  V30 21032 H 505.309 -5.91593 0.0279582 0
M  V30 21033 H 507.046 -6.10038 0.450573 0
M  V30 21034 H 506.558 -5.02007 -0.89937 0
M  V30 21035 H 505.822 -0.995326 1.00435 0
M  V30 21036 P 504.397 -4.23843 7.83734 0
M  V30 21037 O 504.177 -4.19407 9.29784 0
M  V30 21038 O 503.607 -5.24426 7.09156 0
M  V30 21039 O 504.147 -2.7935 7.20758 0
M  V30 21040 C 505.087 -1.72945 7.50224 0
M  V30 21041 C 504.357 -0.406376 7.57911 0
M  V30 21042 O 504.147 0.0897726 6.21935 0
M  V30 21043 C 502.957 -0.438983 8.18724 0
M  V30 21044 O 502.567 0.825065 8.71101 0
M  V30 21045 C 502.077 -0.783689 6.99524 0
M  V30 21046 C 502.787 -0.0619086 5.85867 0
M  V30 21047 N 502.737 -0.78573 4.56183 0
M  V30 21048 C 502.587 -0.0292889 3.41887 0
M  V30 21049 O 502.497 1.18445 3.4419 0
M  V30 21050 N 502.547 -0.744061 2.23964 0
M  V30 21051 C 502.637 -2.10932 2.10362 0
M  V30 21052 O 502.587 -2.64117 0.98825 0
M  V30 21053 C 502.787 -2.8202 3.34994 0
M  V30 21054 C 502.897 -4.31095 3.25037 0
M  V30 21055 C 502.837 -2.15547 4.52261 0
M  V30 21056 H 505.578 -1.93379 8.46595 0
M  V30 21057 H 505.847 -1.68132 6.70852 0
M  V30 21058 H 504.98 0.289041 8.15388 0
M  V30 21059 H 502.325 0.926847 5.72749 0
M  V30 21060 H 502.046 -1.86973 6.82036 0
M  V30 21061 H 501.054 -0.403896 7.13257 0
M  V30 21062 H 502.888 -1.20585 8.97435 0
M  V30 21063 H 502.959 -2.71231 5.45042 0
M  V30 21064 H 501.929 -4.76966 3.49992 0
M  V30 21065 H 503.666 -4.67047 3.95024 0
M  V30 21066 H 503.178 -4.58996 2.22312 0
M  V30 21067 H 502.442 -0.214893 1.39758 0
M  V30 21068 P 501.017 1.17771 8.83182 0
M  V30 21069 O 500.797 2.07206 9.98732 0
M  V30 21070 O 500.227 -0.0743816 8.81969 0
M  V30 21071 O 500.767 1.97652 7.47304 0
M  V30 21072 C 501.707 3.01133 7.08783 0
M  V30 21073 C 500.977 4.12613 6.37049 0
M  V30 21074 O 500.767 3.72827 4.97879 0
M  V30 21075 C 499.577 4.45085 6.88694 0
M  V30 21076 O 499.187 5.7877 6.5624 0
M  V30 21077 C 498.697 3.47817 6.12078 0
M  V30 21078 C 499.407 3.39414 4.77697 0
M  V30 21079 N 499.357 2.04199 4.15538 0
M  V30 21080 H 502.196 3.41248 7.98759 0
M  V30 21081 H 502.468 2.57728 6.42 0
M  V30 21082 H 501.6 5.02657 6.42673 0
M  V30 21083 H 498.945 4.11708 4.08956 0
M  V30 21084 H 498.665 2.49626 6.61679 0
M  V30 21085 H 497.674 3.8662 6.00862 0
M  V30 21086 H 499.508 4.29991 7.97006 0
M  V30 21087 P 497.637 6.144 6.45285 0
M  V30 21088 O 497.417 7.54673 6.86199 0
M  V30 21089 O 496.847 5.12391 7.179 0
M  V30 21090 O 497.387 5.99158 4.88404 0
M  V30 21091 C 498.327 6.60234 3.96415 0
M  V30 21092 C 497.597 7.08259 2.72856 0
M  V30 21093 O 497.387 5.9427 1.83651 0
M  V30 21094 C 496.197 7.64886 2.9555 0
M  V30 21095 O 495.807 8.53963 1.90717 0
M  V30 21096 C 495.317 6.4116 2.90739 0
M  V30 21097 C 496.027 5.55375 1.86963 0
M  V30 21098 N 495.977 4.09448 2.16152 0
M  V30 21099 H 498.816 7.45574 4.45629 0
M  V30 21100 H 499.088 5.85864 3.679 0
M  V30 21101 H 498.22 7.84412 2.24479 0
M  V30 21102 H 495.565 5.73457 0.888562 0
M  V30 21103 H 495.285 5.90877 3.88583 0
M  V30 21104 H 494.294 6.6596 2.58858 0
M  V30 21105 H 496.128 8.16339 3.92049 0
M  V30 21106 P 494.257 8.7635 1.60911 0
M  V30 21107 O 494.037 10.1388 1.11561 0
M  V30 21108 O 493.467 8.36503 2.79617 0
M  V30 21109 O 494.007 7.71806 0.42951 0
M  V30 21110 C 494.947 7.67148 -0.673689 0
M  V30 21111 C 494.217 7.33374 -1.95559 0
M  V30 21112 O 494.007 5.88721 -2.00726 0
M  V30 21113 C 492.817 7.92526 -2.10483 0
M  V30 21114 O 492.427 8.02971 -3.47653 0
M  V30 21115 C 491.937 6.89602 -1.41652 0
M  V30 21116 C 492.647 5.59201 -1.75185 0
M  V30 21117 N 492.597 4.58235 -0.662552 0
M  V30 21118 H 495.436 8.65116 -0.777161 0
M  V30 21119 H 495.708 6.90173 -0.474152 0
M  V30 21120 H 494.84 7.66548 -2.79458 0
M  V30 21121 P 490.877 8.03563 -3.84925 0
M  V30 21122 O 490.657 8.85821 -5.0569 0
M  V30 21123 O 490.087 8.41101 -2.65469 0
M  V30 21124 O 490.627 6.4965 -4.18908 0
M  V30 21125 C 491.567 5.81037 -5.05421 0
M  V30 21126 C 490.837 4.78366 -5.89277 0
M  V30 21127 O 490.627 3.58302 -5.08433 0
M  V30 21128 C 489.437 5.17448 -6.36119 0
M  V30 21129 O 489.047 4.45271 -7.53232 0
M  V30 21130 C 488.557 4.74639 -5.19936 0
M  V30 21131 C 489.267 3.49432 -4.70418 0
M  V30 21132 N 489.217 3.31776 -3.22945 0
M  V30 21133 H 492.056 6.54213 -5.71376 0
M  V30 21134 H 492.328 5.30492 -4.44033 0
M  V30 21135 H 491.46 4.55889 -6.76652 0
M  V30 21136 P 487.497 4.23843 -7.83734 0
M  V30 21137 O 487.277 4.19407 -9.29784 0
M  V30 21138 O 486.707 5.24426 -7.09156 0
M  V30 21139 O 487.247 2.7935 -7.20758 0
M  V30 21140 C 488.187 1.7299 -7.50419 0
M  V30 21141 C 487.457 0.406376 -7.57911 0
M  V30 21142 O 487.247 -0.0897726 -6.21935 0
M  V30 21143 C 486.057 0.447224 -8.1878 0
M  V30 21144 O 485.667 -0.825065 -8.71101 0
M  V30 21145 C 485.177 0.783801 -6.99623 0
M  V30 21146 C 485.887 0.0619192 -5.85967 0
M  V30 21147 N 485.837 0.7859 -4.56281 0
M  V30 21148 C 485.917 2.14308 -4.31736 0
M  V30 21149 N 485.837 2.46106 -3.05116 0
M  V30 21150 C 485.697 1.23422 -2.4014 0
M  V30 21151 C 485.567 0.938381 -1.02409 0
M  V30 21152 N 485.447 -0.444647 -0.805413 0
M  V30 21153 C 485.447 -1.40829 -1.79435 0
M  V30 21154 N 485.317 -2.67213 -1.38558 0
M  V30 21155 N 485.577 -1.12947 -3.09005 0
M  V30 21156 C 485.697 0.204887 -3.32369 0
M  V30 21157 H 488.676 1.93423 -8.4679 0
M  V30 21158 H 488.948 1.68181 -6.71046 0
M  V30 21159 H 488.08 -0.289041 -8.15388 0
M  V30 21160 P 484.117 -1.17771 -8.83182 0
M  V30 21161 O 483.897 -2.07206 -9.98732 0
M  V30 21162 O 483.327 0.0743816 -8.81969 0
M  V30 21163 O 483.867 -1.97652 -7.47304 0
M  V30 21164 C 484.807 -3.01055 -7.08599 0
M  V30 21165 C 484.077 -4.12613 -6.37049 0
M  V30 21166 O 483.867 -3.72827 -4.97879 0
M  V30 21167 C 482.677 -4.45719 -6.88164 0
M  V30 21168 O 482.287 -5.7877 -6.5624 0
M  V30 21169 C 481.797 -3.47768 -6.11991 0
M  V30 21170 C 482.507 -3.39356 -4.77615 0
M  V30 21171 N 482.457 -2.04571 -4.15244 0
M  V30 21172 C 482.307 -1.98587 -2.78314 0
M  V30 21173 O 482.217 -2.98134 -2.08835 0
M  V30 21174 N 482.267 -0.714467 -2.24925 0
M  V30 21175 C 482.357 0.470001 -2.94169 0
M  V30 21176 C 482.507 0.312541 -4.36783 0
M  V30 21177 C 482.557 -0.914512 -4.92583 0
M  V30 21178 H 485.298 -3.41169 -7.98575 0
M  V30 21179 H 485.567 -2.58295 -6.41556 0
M  V30 21180 H 484.7 -5.02657 -6.42673 0
M  V30 21181 H 482.045 -4.11637 -4.08885 0
M  V30 21182 H 481.766 -2.49626 -6.61679 0
M  V30 21183 H 480.774 -3.86566 -6.00778 0
M  V30 21184 H 482.608 -4.29943 -7.96918 0
M  V30 21185 H 482.679 -1.00937 -6.00374 0
M  V30 21186 P 480.737 -6.144 -6.45285 0
M  V30 21187 O 480.517 -7.54673 -6.86199 0
M  V30 21188 O 479.947 -5.12391 -7.179 0
M  V30 21189 O 480.487 -5.99158 -4.88404 0
M  V30 21190 C 481.427 -6.60234 -3.96415 0
M  V30 21191 C 480.697 -7.08259 -2.72856 0
M  V30 21192 O 480.487 -5.9427 -1.83651 0
M  V30 21193 C 479.297 -7.64886 -2.9555 0
M  V30 21194 O 478.907 -8.53963 -1.90717 0
M  V30 21195 C 478.417 -6.4116 -2.90739 0
M  V30 21196 C 479.127 -5.55375 -1.86963 0
M  V30 21197 N 479.077 -4.09664 -2.15742 0
M  V30 21198 H 481.916 -7.45574 -4.45629 0
M  V30 21199 H 482.188 -5.86232 -3.67314 0
M  V30 21200 H 481.32 -7.84412 -2.24479 0
M  V30 21201 P 477.357 -8.7635 -1.60911 0
M  V30 21202 O 477.137 -10.1388 -1.11561 0
M  V30 21203 O 476.567 -8.36503 -2.79617 0
M  V30 21204 O 477.107 -7.71806 -0.42951 0
M  V30 21205 C 478.047 -7.67148 0.673689 0
M  V30 21206 C 477.317 -7.33374 1.95559 0
M  V30 21207 O 477.107 -5.88721 2.00726 0
M  V30 21208 C 475.917 -7.92526 2.10483 0
M  V30 21209 O 475.527 -8.02971 3.47653 0
M  V30 21210 C 475.037 -6.89602 1.41652 0
M  V30 21211 C 475.747 -5.59201 1.75185 0
M  V30 21212 N 475.697 -4.58235 0.662552 0
M  V30 21213 H 478.536 -8.65116 0.777161 0
M  V30 21214 H 478.808 -6.90173 0.474152 0
M  V30 21215 H 477.94 -7.66548 2.79458 0
M  V30 21216 P 473.977 -8.03563 3.84925 0
M  V30 21217 O 473.757 -8.85821 5.0569 0
M  V30 21218 O 473.187 -8.41101 2.65469 0
M  V30 21219 O 473.727 -6.4965 4.18908 0
M  V30 21220 C 474.667 -5.81037 5.05421 0
M  V30 21221 C 473.937 -4.78366 5.89277 0
M  V30 21222 O 473.727 -3.58302 5.08433 0
M  V30 21223 C 472.537 -5.17448 6.36119 0
M  V30 21224 O 472.147 -4.45271 7.53232 0
M  V30 21225 C 471.657 -4.74639 5.19936 0
M  V30 21226 C 472.367 -3.49432 4.70418 0
M  V30 21227 N 472.317 -3.31776 3.22945 0
M  V30 21228 H 475.156 -6.54213 5.71376 0
M  V30 21229 H 475.428 -5.30492 4.44033 0
M  V30 21230 H 474.56 -4.55889 6.76652 0
M  V30 21231 P 470.597 -4.23843 7.83734 0
M  V30 21232 O 470.377 -4.19407 9.29784 0
M  V30 21233 O 469.807 -5.24426 7.09156 0
M  V30 21234 O 470.347 -2.7935 7.20758 0
M  V30 21235 C 471.287 -1.7299 7.50419 0
M  V30 21236 C 470.557 -0.406376 7.57911 0
M  V30 21237 O 470.347 0.0897726 6.21935 0
M  V30 21238 C 469.157 -0.447224 8.1878 0
M  V30 21239 O 468.767 0.825065 8.71101 0
M  V30 21240 C 468.277 -0.783801 6.99623 0
M  V30 21241 C 468.987 -0.0619192 5.85967 0
M  V30 21242 N 468.937 -0.790462 4.56202 0
M  V30 21243 C 469.017 -2.13895 4.34171 0
M  V30 21244 N 468.947 -2.46449 3.08687 0
M  V30 21245 C 468.797 -1.2525 2.43697 0
M  V30 21246 C 468.667 -0.914535 1.07318 0
M  V30 21247 N 468.657 -1.80782 0.0887348 0
M  V30 21248 N 468.547 0.386745 0.768133 0
M  V30 21249 C 468.557 1.28096 1.75159 0
M  V30 21250 N 468.677 1.09708 3.04861 0
M  V30 21251 C 468.797 -0.214857 3.32306 0
M  V30 21252 H 471.776 -1.93423 8.4679 0
M  V30 21253 H 472.048 -1.68852 6.70877 0
M  V30 21254 H 471.18 0.289041 8.15388 0
M  V30 21255 H 468.525 0.927006 5.72848 0
M  V30 21256 H 468.245 -1.86973 6.82036 0
M  V30 21257 H 467.254 -0.403953 7.13357 0
M  V30 21258 H 469.088 -1.20599 8.97534 0
M  V30 21259 H 469.129 -2.86846 5.14318 0
M  V30 21260 H 468.748 -2.81082 0.302037 0
M  V30 21261 H 468.559 -1.49688 -0.889064 0
M  V30 21262 H 468.451 2.31317 1.43855 0
M  V30 21263 P 467.217 1.17771 8.83182 0
M  V30 21264 O 466.997 2.07206 9.98732 0
M  V30 21265 O 466.427 -0.0743816 8.81969 0
M  V30 21266 O 466.967 1.97652 7.47304 0
M  V30 21267 C 467.907 3.01133 7.08783 0
M  V30 21268 C 467.177 4.12613 6.37049 0
M  V30 21269 O 466.967 3.72827 4.97879 0
M  V30 21270 C 465.777 4.45085 6.88694 0
M  V30 21271 O 465.387 5.7877 6.5624 0
M  V30 21272 C 464.897 3.47817 6.12078 0
M  V30 21273 C 465.607 3.39414 4.77697 0
M  V30 21274 N 465.557 2.04615 4.15333 0
M  V30 21275 H 468.396 3.41248 7.98759 0
M  V30 21276 H 468.668 2.5837 6.41742 0
M  V30 21277 H 467.8 5.02657 6.42673 0
M  V30 21278 P 463.837 6.144 6.45285 0
M  V30 21279 O 463.617 7.54673 6.86199 0
M  V30 21280 O 463.047 5.12391 7.179 0
M  V30 21281 O 463.587 5.99158 4.88404 0
M  V30 21282 C 464.527 6.60234 3.96415 0
M  V30 21283 C 463.797 7.08259 2.72856 0
M  V30 21284 O 463.587 5.9427 1.83651 0
M  V30 21285 C 462.397 7.64886 2.9555 0
M  V30 21286 O 462.007 8.53963 1.90717 0
M  V30 21287 C 461.517 6.4116 2.90739 0
M  V30 21288 C 462.227 5.55375 1.86963 0
M  V30 21289 N 462.177 4.09448 2.16152 0
M  V30 21290 H 465.016 7.45574 4.45629 0
M  V30 21291 H 465.288 5.85864 3.679 0
M  V30 21292 H 464.42 7.84412 2.24479 0
M  V30 21293 H 461.765 5.73457 0.888562 0
M  V30 21294 H 461.485 5.90877 3.88583 0
M  V30 21295 H 460.494 6.6596 2.58858 0
M  V30 21296 H 462.328 8.16339 3.92049 0
M  V30 21297 P 460.457 8.7635 1.60911 0
M  V30 21298 O 460.237 10.1388 1.11561 0
M  V30 21299 O 459.667 8.36503 2.79617 0
M  V30 21300 O 460.207 7.71806 0.42951 0
M  V30 21301 C 461.147 7.67148 -0.673689 0
M  V30 21302 C 460.417 7.33374 -1.95559 0
M  V30 21303 O 460.207 5.88721 -2.00726 0
M  V30 21304 C 459.017 7.92526 -2.10483 0
M  V30 21305 O 458.627 8.02971 -3.47653 0
M  V30 21306 C 458.137 6.89602 -1.41652 0
M  V30 21307 C 458.847 5.59201 -1.75185 0
M  V30 21308 N 458.797 4.58235 -0.662552 0
M  V30 21309 C 458.877 4.7683 0.704049 0
M  V30 21310 N 458.797 3.66233 1.39775 0
M  V30 21311 C 458.657 2.66526 0.431739 0
M  V30 21312 C 458.527 1.26394 0.575992 0
M  V30 21313 O 458.507 0.589894 1.60503 0
M  V30 21314 N 458.407 0.62859 -0.67177 0
M  V30 21315 C 458.407 1.27134 -1.89385 0
M  V30 21316 N 458.277 0.492035 -2.96951 0
M  V30 21317 N 458.537 2.58978 -2.02907 0
M  V30 21318 C 458.657 3.22433 -0.832218 0
M  V30 21319 H 461.636 8.65116 -0.777161 0
M  V30 21320 H 461.908 6.90173 -0.474152 0
M  V30 21321 H 461.04 7.66548 -2.79458 0
M  V30 21322 H 458.385 5.16254 -2.65229 0
M  V30 21323 H 458.105 7.06532 -0.329431 0
M  V30 21324 H 457.114 6.91023 -1.82047 0
M  V30 21325 H 458.948 8.90971 -1.62675 0
M  V30 21326 H 458.997 5.74954 1.16305 0
M  V30 21327 H 458.315 -0.366713 -0.674793 0
M  V30 21328 H 458.278 0.908532 -3.91188 0
M  V30 21329 H 458.177 -0.528253 -2.85758 0
M  V30 21330 P 457.077 8.03563 -3.84925 0
M  V30 21331 O 456.857 8.85821 -5.0569 0
M  V30 21332 O 456.287 8.41101 -2.65469 0
M  V30 21333 O 456.827 6.4965 -4.18908 0
M  V30 21334 C 457.767 5.81037 -5.05421 0
M  V30 21335 C 457.037 4.78366 -5.89277 0
M  V30 21336 O 456.827 3.58302 -5.08433 0
M  V30 21337 C 455.637 5.17448 -6.36119 0
M  V30 21338 O 455.247 4.45271 -7.53232 0
M  V30 21339 C 454.757 4.74639 -5.19936 0
M  V30 21340 C 455.467 3.49432 -4.70418 0
M  V30 21341 N 455.417 3.32099 -3.22613 0
M  V30 21342 H 458.256 6.54213 -5.71376 0
M  V30 21343 H 458.528 5.30936 -4.43503 0
M  V30 21344 H 457.66 4.55889 -6.76652 0
M  V30 21345 H 455.005 2.61715 -5.17932 0
M  V30 21346 H 454.725 5.52155 -4.41878 0
M  V30 21347 H 453.734 4.51981 -5.53374 0
M  V30 21348 H 455.568 6.25124 -6.55234 0
M  V30 21349 P 453.697 4.23843 -7.83734 0
M  V30 21350 O 453.477 4.19407 -9.29784 0
M  V30 21351 O 452.907 5.24426 -7.09156 0
M  V30 21352 O 453.447 2.7935 -7.20758 0
M  V30 21353 C 454.387 1.7299 -7.50419 0
M  V30 21354 C 453.657 0.406376 -7.57911 0
M  V30 21355 O 453.447 -0.0897726 -6.21935 0
M  V30 21356 C 452.257 0.447224 -8.1878 0
M  V30 21357 O 451.867 -0.825065 -8.71101 0
M  V30 21358 C 451.377 0.783801 -6.99623 0
M  V30 21359 C 452.087 0.0619192 -5.85967 0
M  V30 21360 N 452.037 0.790462 -4.56202 0
M  V30 21361 H 454.876 1.93423 -8.4679 0
M  V30 21362 H 455.148 1.68852 -6.70877 0
M  V30 21363 H 454.28 -0.289041 -8.15388 0
M  V30 21364 H 451.625 -0.927006 -5.72848 0
M  V30 21365 H 451.345 1.86973 -6.82036 0
M  V30 21366 H 450.354 0.403953 -7.13357 0
M  V30 21367 H 452.188 1.20599 -8.97534 0
M  V30 21368 P 450.317 -1.17771 -8.83182 0
M  V30 21369 O 450.097 -2.07206 -9.98732 0
M  V30 21370 O 449.527 0.0743816 -8.81969 0
M  V30 21371 O 450.067 -1.97652 -7.47304 0
M  V30 21372 C 451.007 -3.01133 -7.08783 0
M  V30 21373 C 450.277 -4.12613 -6.37049 0
M  V30 21374 O 450.067 -3.72827 -4.97879 0
M  V30 21375 C 448.877 -4.45085 -6.88694 0
M  V30 21376 O 448.487 -5.7877 -6.5624 0
M  V30 21377 C 447.997 -3.47817 -6.12078 0
M  V30 21378 C 448.707 -3.39414 -4.77697 0
M  V30 21379 N 448.657 -2.04615 -4.15333 0
M  V30 21380 H 451.496 -3.41248 -7.98759 0
M  V30 21381 H 451.768 -2.5837 -6.41742 0
M  V30 21382 H 450.9 -5.02657 -6.42673 0
M  V30 21383 P 446.937 -6.144 -6.45285 0
M  V30 21384 O 446.717 -7.54673 -6.86199 0
M  V30 21385 O 446.147 -5.12391 -7.179 0
M  V30 21386 O 446.687 -5.99158 -4.88404 0
M  V30 21387 C 447.627 -6.60234 -3.96415 0
M  V30 21388 C 446.897 -7.08259 -2.72856 0
M  V30 21389 O 446.687 -5.9427 -1.83651 0
M  V30 21390 C 445.497 -7.64886 -2.9555 0
M  V30 21391 O 445.107 -8.53963 -1.90717 0
M  V30 21392 C 444.617 -6.4116 -2.90739 0
M  V30 21393 C 445.327 -5.55375 -1.86963 0
M  V30 21394 N 445.277 -4.09448 -2.16152 0
M  V30 21395 H 448.116 -7.45574 -4.45629 0
M  V30 21396 H 448.388 -5.85864 -3.679 0
M  V30 21397 H 447.52 -7.84412 -2.24479 0
M  V30 21398 H 444.865 -5.73457 -0.888562 0
M  V30 21399 H 444.585 -5.90877 -3.88583 0
M  V30 21400 H 443.594 -6.6596 -2.58858 0
M  V30 21401 H 445.428 -8.16339 -3.92049 0
M  V30 21402 P 443.557 -8.7635 -1.60911 0
M  V30 21403 O 443.337 -10.1388 -1.11561 0
M  V30 21404 O 442.767 -8.36503 -2.79617 0
M  V30 21405 O 443.307 -7.71806 -0.42951 0
M  V30 21406 C 444.247 -7.67148 0.673689 0
M  V30 21407 C 443.517 -7.33374 1.95559 0
M  V30 21408 O 443.307 -5.88721 2.00726 0
M  V30 21409 C 442.117 -7.92526 2.10483 0
M  V30 21410 O 441.727 -8.02971 3.47653 0
M  V30 21411 C 441.237 -6.89602 1.41652 0
M  V30 21412 C 441.947 -5.59201 1.75185 0
M  V30 21413 N 441.897 -4.58301 0.657969 0
M  V30 21414 H 444.736 -8.65116 0.777161 0
M  V30 21415 H 445.008 -6.9022 0.46725 0
M  V30 21416 H 444.14 -7.66548 2.79458 0
M  V30 21417 H 441.485 -5.16165 2.65183 0
M  V30 21418 H 441.205 -7.06433 0.329384 0
M  V30 21419 H 440.214 -6.90926 1.82021 0
M  V30 21420 H 442.048 -8.90873 1.62657 0
M  V30 21421 P 440.177 -8.03563 3.84925 0
M  V30 21422 O 439.957 -8.85821 5.0569 0
M  V30 21423 O 439.387 -8.41101 2.65469 0
M  V30 21424 O 439.927 -6.4965 4.18908 0
M  V30 21425 C 440.867 -5.81037 5.05421 0
M  V30 21426 C 440.137 -4.78366 5.89277 0
M  V30 21427 O 439.927 -3.58302 5.08433 0
M  V30 21428 C 438.737 -5.17448 6.36119 0
M  V30 21429 O 438.347 -4.45271 7.53232 0
M  V30 21430 C 437.857 -4.74639 5.19936 0
M  V30 21431 C 438.567 -3.49432 4.70418 0
M  V30 21432 N 438.517 -3.31776 3.22945 0
M  V30 21433 H 441.356 -6.54213 5.71376 0
M  V30 21434 H 441.628 -5.30492 4.44033 0
M  V30 21435 H 440.76 -4.55889 6.76652 0
M  V30 21436 P 436.797 -4.23843 7.83734 0
M  V30 21437 O 436.577 -4.19407 9.29784 0
M  V30 21438 O 436.007 -5.24426 7.09156 0
M  V30 21439 O 436.547 -2.7935 7.20758 0
M  V30 21440 C 437.487 -1.7299 7.50419 0
M  V30 21441 C 436.757 -0.406376 7.57911 0
M  V30 21442 O 436.547 0.0897726 6.21935 0
M  V30 21443 C 435.357 -0.447224 8.1878 0
M  V30 21444 O 434.967 0.825065 8.71101 0
M  V30 21445 C 434.477 -0.783801 6.99623 0
M  V30 21446 C 435.187 -0.0619192 5.85967 0
M  V30 21447 N 435.137 -0.7859 4.56281 0
M  V30 21448 H 437.976 -1.93423 8.4679 0
M  V30 21449 H 438.248 -1.68181 6.71046 0
M  V30 21450 H 437.38 0.289041 8.15388 0
M  V30 21451 P 433.417 1.17771 8.83182 0
M  V30 21452 O 433.197 2.07206 9.98732 0
M  V30 21453 O 432.627 -0.0743816 8.81969 0
M  V30 21454 O 433.167 1.97652 7.47304 0
M  V30 21455 C 434.107 3.01133 7.08783 0
M  V30 21456 C 433.377 4.12613 6.37049 0
M  V30 21457 O 433.167 3.72827 4.97879 0
M  V30 21458 C 431.977 4.45085 6.88694 0
M  V30 21459 O 431.587 5.7877 6.5624 0
M  V30 21460 C 431.097 3.47817 6.12078 0
M  V30 21461 C 431.807 3.39414 4.77697 0
M  V30 21462 N 431.757 2.04615 4.15333 0
M  V30 21463 H 434.596 3.41248 7.98759 0
M  V30 21464 H 434.868 2.5837 6.41742 0
M  V30 21465 H 434 5.02657 6.42673 0
M  V30 21466 P 430.037 6.144 6.45285 0
M  V30 21467 O 429.817 7.54673 6.86199 0
M  V30 21468 O 429.247 5.12391 7.179 0
M  V30 21469 O 429.787 5.99158 4.88404 0
M  V30 21470 C 430.727 6.60062 3.96313 0
M  V30 21471 C 429.997 7.08259 2.72856 0
M  V30 21472 O 429.787 5.9427 1.83651 0
M  V30 21473 C 428.597 7.65087 2.94749 0
M  V30 21474 O 428.207 8.53963 1.90717 0
M  V30 21475 C 427.717 6.41069 2.90698 0
M  V30 21476 C 428.427 5.5528 1.86931 0
M  V30 21477 N 428.377 4.09575 2.15696 0
M  V30 21478 C 428.227 3.24249 1.08435 0
M  V30 21479 O 428.137 3.63946 -0.0628747 0
M  V30 21480 N 428.187 1.90009 1.39973 0
M  V30 21481 C 428.277 1.34884 2.65614 0
M  V30 21482 C 428.427 2.3145 3.71736 0
M  V30 21483 C 428.477 3.63518 3.44754 0
M  V30 21484 H 431.218 7.45402 4.45526 0
M  V30 21485 H 431.487 5.86062 3.67208 0
M  V30 21486 H 430.62 7.84412 2.24479 0
M  V30 21487 H 427.965 5.73358 0.888409 0
M  V30 21488 H 427.686 5.90877 3.88583 0
M  V30 21489 H 426.694 6.65867 2.58821 0
M  V30 21490 H 428.528 8.16248 3.92006 0
M  V30 21491 H 428.599 4.34551 4.26383 0
M  V30 21492 P 426.657 8.7635 1.60911 0
M  V30 21493 O 426.437 10.1388 1.11561 0
M  V30 21494 O 425.867 8.36503 2.79617 0
M  V30 21495 O 426.407 7.71806 0.42951 0
M  V30 21496 C 427.347 7.67148 -0.673689 0
M  V30 21497 C 426.617 7.33374 -1.95559 0
M  V30 21498 O 426.407 5.88721 -2.00726 0
M  V30 21499 C 425.217 7.92526 -2.10483 0
M  V30 21500 O 424.827 8.02971 -3.47653 0
M  V30 21501 C 424.337 6.89602 -1.41652 0
M  V30 21502 C 425.047 5.59201 -1.75185 0
M  V30 21503 N 424.997 4.58235 -0.662552 0
M  V30 21504 H 427.836 8.65116 -0.777161 0
M  V30 21505 H 428.108 6.90173 -0.474152 0
M  V30 21506 H 427.24 7.66548 -2.79458 0
M  V30 21507 P 423.278 8.03563 -3.84925 0
M  V30 21508 O 423.058 8.85821 -5.0569 0
M  V30 21509 O 422.488 8.41101 -2.65469 0
M  V30 21510 O 423.028 6.4965 -4.18908 0
M  V30 21511 C 423.968 5.81037 -5.05421 0
M  V30 21512 C 423.238 4.78366 -5.89277 0
M  V30 21513 O 423.028 3.58302 -5.08433 0
M  V30 21514 C 421.838 5.17448 -6.36119 0
M  V30 21515 O 421.448 4.45271 -7.53232 0
M  V30 21516 C 420.958 4.74639 -5.19936 0
M  V30 21517 C 421.668 3.49432 -4.70418 0
M  V30 21518 N 421.618 3.31776 -3.22945 0
M  V30 21519 H 424.457 6.54213 -5.71376 0
M  V30 21520 H 424.729 5.30492 -4.44033 0
M  V30 21521 H 423.861 4.55889 -6.76652 0
M  V30 21522 P 419.898 4.23843 -7.83734 0
M  V30 21523 O 419.678 4.19407 -9.29784 0
M  V30 21524 O 419.108 5.24426 -7.09156 0
M  V30 21525 O 419.648 2.7935 -7.20758 0
M  V30 21526 C 420.588 1.7299 -7.50419 0
M  V30 21527 C 419.858 0.406376 -7.57911 0
M  V30 21528 O 419.648 -0.0897726 -6.21935 0
M  V30 21529 C 418.458 0.447224 -8.1878 0
M  V30 21530 O 418.068 -0.825065 -8.71101 0
M  V30 21531 C 417.578 0.783801 -6.99623 0
M  V30 21532 C 418.288 0.0619192 -5.85967 0
M  V30 21533 N 418.238 0.7859 -4.56281 0
M  V30 21534 H 421.077 1.93423 -8.4679 0
M  V30 21535 H 421.349 1.68181 -6.71046 0
M  V30 21536 H 420.481 -0.289041 -8.15388 0
M  V30 21537 P 416.518 -1.17771 -8.83182 0
M  V30 21538 O 416.298 -2.07206 -9.98732 0
M  V30 21539 O 415.728 0.0743816 -8.81969 0
M  V30 21540 O 416.268 -1.97652 -7.47304 0
M  V30 21541 C 417.208 -3.01055 -7.08599 0
M  V30 21542 C 416.478 -4.12613 -6.37049 0
M  V30 21543 O 416.268 -3.72827 -4.97879 0
M  V30 21544 C 415.078 -4.45719 -6.88164 0
M  V30 21545 O 414.688 -5.7877 -6.5624 0
M  V30 21546 C 414.198 -3.47768 -6.11991 0
M  V30 21547 C 414.908 -3.39356 -4.77615 0
M  V30 21548 N 414.858 -2.04571 -4.15244 0
M  V30 21549 C 414.708 -1.98587 -2.78314 0
M  V30 21550 O 414.618 -2.98134 -2.08835 0
M  V30 21551 N 414.668 -0.714467 -2.24925 0
M  V30 21552 C 414.758 0.470001 -2.94169 0
M  V30 21553 O 414.708 1.55587 -2.35195 0
M  V30 21554 C 414.908 0.312541 -4.36783 0
M  V30 21555 C 415.018 1.57711 -5.16352 0
M  V30 21556 C 414.958 -0.914512 -4.92583 0
M  V30 21557 H 417.699 -3.41169 -7.98575 0
M  V30 21558 H 417.968 -2.58295 -6.41556 0
M  V30 21559 H 417.101 -5.02657 -6.42673 0
M  V30 21560 H 414.446 -4.11637 -4.08885 0
M  V30 21561 H 414.167 -2.49626 -6.61679 0
M  V30 21562 H 413.175 -3.86566 -6.00778 0
M  V30 21563 H 415.009 -4.29943 -7.96918 0
M  V30 21564 H 415.08 -1.00937 -6.00374 0
M  V30 21565 H 414.05 1.80153 -5.63503 0
M  V30 21566 H 415.787 1.4566 -5.94104 0
M  V30 21567 H 415.299 2.40664 -4.49645 0
M  V30 21568 H 414.563 -0.647622 -1.25697 0
M  V30 21569 P 413.138 -6.144 -6.45285 0
M  V30 21570 O 412.918 -7.54673 -6.86199 0
M  V30 21571 O 412.348 -5.12391 -7.179 0
M  V30 21572 O 412.888 -5.99158 -4.88404 0
M  V30 21573 C 413.828 -6.60234 -3.96415 0
M  V30 21574 C 413.098 -7.08259 -2.72856 0
M  V30 21575 O 412.888 -5.9427 -1.83651 0
M  V30 21576 C 411.698 -7.64886 -2.9555 0
M  V30 21577 O 411.308 -8.53963 -1.90717 0
M  V30 21578 C 410.818 -6.4116 -2.90739 0
M  V30 21579 C 411.528 -5.55375 -1.86963 0
M  V30 21580 N 411.478 -4.09664 -2.15742 0
M  V30 21581 H 414.317 -7.45574 -4.45629 0
M  V30 21582 H 414.589 -5.86232 -3.67314 0
M  V30 21583 H 413.721 -7.84412 -2.24479 0
M  V30 21584 P 409.758 -8.7635 -1.60911 0
M  V30 21585 O 409.538 -10.1388 -1.11561 0
M  V30 21586 O 408.968 -8.36503 -2.79617 0
M  V30 21587 O 409.508 -7.71806 -0.42951 0
M  V30 21588 C 410.448 -7.67148 0.673689 0
M  V30 21589 C 409.718 -7.33374 1.95559 0
M  V30 21590 O 409.508 -5.88721 2.00726 0
M  V30 21591 C 408.318 -7.92526 2.10483 0
M  V30 21592 O 407.928 -8.02971 3.47653 0
M  V30 21593 C 407.438 -6.89602 1.41652 0
M  V30 21594 C 408.148 -5.59201 1.75185 0
M  V30 21595 N 408.098 -4.58235 0.662552 0
M  V30 21596 H 410.937 -8.65116 0.777161 0
M  V30 21597 H 411.209 -6.90173 0.474152 0
M  V30 21598 H 410.341 -7.66548 2.79458 0
M  V30 21599 P 406.378 -8.03563 3.84925 0
M  V30 21600 O 406.158 -8.85821 5.0569 0
M  V30 21601 O 405.588 -8.41101 2.65469 0
M  V30 21602 O 406.128 -6.4965 4.18908 0
M  V30 21603 C 407.068 -5.81037 5.05421 0
M  V30 21604 C 406.338 -4.78366 5.89277 0
M  V30 21605 O 406.128 -3.58302 5.08433 0
M  V30 21606 C 404.938 -5.17448 6.36119 0
M  V30 21607 O 404.548 -4.45271 7.53232 0
M  V30 21608 C 404.058 -4.74639 5.19936 0
M  V30 21609 C 404.768 -3.49432 4.70418 0
M  V30 21610 N 404.718 -3.32099 3.22613 0
M  V30 21611 H 407.557 -6.54213 5.71376 0
M  V30 21612 H 407.829 -5.30936 4.43503 0
M  V30 21613 H 406.961 -4.55889 6.76652 0
M  V30 21614 H 404.306 -2.61715 5.17932 0
M  V30 21615 H 404.026 -5.52155 4.41878 0
M  V30 21616 H 403.035 -4.51981 5.53374 0
M  V30 21617 H 404.869 -6.25124 6.55234 0
M  V30 21618 P 402.998 -4.23843 7.83734 0
M  V30 21619 O 402.778 -4.19407 9.29784 0
M  V30 21620 O 402.208 -5.24426 7.09156 0
M  V30 21621 O 402.748 -2.7935 7.20758 0
M  V30 21622 C 403.688 -1.72945 7.50224 0
M  V30 21623 C 402.958 -0.406376 7.57911 0
M  V30 21624 O 402.748 0.0897726 6.21935 0
M  V30 21625 C 401.558 -0.438983 8.18724 0
M  V30 21626 O 401.168 0.825065 8.71101 0
M  V30 21627 C 400.678 -0.783689 6.99524 0
M  V30 21628 C 401.388 -0.0619086 5.85867 0
M  V30 21629 N 401.338 -0.78573 4.56183 0
M  V30 21630 C 401.188 -0.0292889 3.41887 0
M  V30 21631 O 401.098 1.18445 3.4419 0
M  V30 21632 N 401.148 -0.744061 2.23964 0
M  V30 21633 C 401.238 -2.10932 2.10362 0
M  V30 21634 C 401.388 -2.8202 3.34994 0
M  V30 21635 C 401.438 -2.15547 4.52261 0
M  V30 21636 H 404.179 -1.93379 8.46595 0
M  V30 21637 H 404.448 -1.68132 6.70852 0
M  V30 21638 H 403.581 0.289041 8.15388 0
M  V30 21639 H 400.926 0.926847 5.72749 0
M  V30 21640 H 400.647 -1.86973 6.82036 0
M  V30 21641 H 399.655 -0.403896 7.13257 0
M  V30 21642 H 401.489 -1.20585 8.97435 0
M  V30 21643 H 401.56 -2.71231 5.45042 0
M  V30 21644 P 399.618 1.17771 8.83182 0
M  V30 21645 O 399.398 2.07206 9.98732 0
M  V30 21646 O 398.828 -0.0743816 8.81969 0
M  V30 21647 O 399.368 1.97652 7.47304 0
M  V30 21648 C 400.308 3.01133 7.08783 0
M  V30 21649 C 399.578 4.12613 6.37049 0
M  V30 21650 O 399.368 3.72827 4.97879 0
M  V30 21651 C 398.178 4.45085 6.88694 0
M  V30 21652 O 397.788 5.7877 6.5624 0
M  V30 21653 C 397.298 3.47817 6.12078 0
M  V30 21654 C 398.008 3.39414 4.77697 0
M  V30 21655 N 397.958 2.04615 4.15333 0
M  V30 21656 H 400.797 3.41248 7.98759 0
M  V30 21657 H 401.069 2.5837 6.41742 0
M  V30 21658 H 400.201 5.02657 6.42673 0
M  V30 21659 P 396.238 6.144 6.45285 0
M  V30 21660 O 396.018 7.54673 6.86199 0
M  V30 21661 O 395.448 5.12391 7.179 0
M  V30 21662 O 395.988 5.99158 4.88404 0
M  V30 21663 C 396.928 6.60234 3.96415 0
M  V30 21664 C 396.198 7.08259 2.72856 0
M  V30 21665 O 395.988 5.9427 1.83651 0
M  V30 21666 C 394.798 7.64886 2.9555 0
M  V30 21667 O 394.408 8.53963 1.90717 0
M  V30 21668 C 393.918 6.4116 2.90739 0
M  V30 21669 C 394.628 5.55375 1.86963 0
M  V30 21670 N 394.578 4.09448 2.16152 0
M  V30 21671 H 397.417 7.45574 4.45629 0
M  V30 21672 H 397.689 5.85864 3.679 0
M  V30 21673 H 396.821 7.84412 2.24479 0
M  V30 21674 H 394.166 5.73457 0.888562 0
M  V30 21675 H 393.886 5.90877 3.88583 0
M  V30 21676 H 392.895 6.6596 2.58858 0
M  V30 21677 H 394.729 8.16339 3.92049 0
M  V30 21678 P 392.858 8.7635 1.60911 0
M  V30 21679 O 392.638 10.1388 1.11561 0
M  V30 21680 O 392.068 8.36503 2.79617 0
M  V30 21681 O 392.608 7.71806 0.42951 0
M  V30 21682 C 393.548 7.67148 -0.673689 0
M  V30 21683 C 392.818 7.33374 -1.95559 0
M  V30 21684 O 392.608 5.88721 -2.00726 0
M  V30 21685 C 391.418 7.92526 -2.10483 0
M  V30 21686 O 391.028 8.02971 -3.47653 0
M  V30 21687 C 390.538 6.89602 -1.41652 0
M  V30 21688 C 391.248 5.59201 -1.75185 0
M  V30 21689 N 391.198 4.58235 -0.662552 0
M  V30 21690 H 394.037 8.65116 -0.777161 0
M  V30 21691 H 394.309 6.90173 -0.474152 0
M  V30 21692 H 393.441 7.66548 -2.79458 0
M  V30 21693 P 389.478 8.03563 -3.84925 0
M  V30 21694 O 389.258 8.85821 -5.0569 0
M  V30 21695 O 388.688 8.41101 -2.65469 0
M  V30 21696 O 389.228 6.4965 -4.18908 0
M  V30 21697 C 390.168 5.81037 -5.05421 0
M  V30 21698 C 389.438 4.78366 -5.89277 0
M  V30 21699 O 389.228 3.58302 -5.08433 0
M  V30 21700 C 388.038 5.17448 -6.36119 0
M  V30 21701 O 387.648 4.45271 -7.53232 0
M  V30 21702 C 387.158 4.74639 -5.19936 0
M  V30 21703 C 387.868 3.49432 -4.70418 0
M  V30 21704 N 387.818 3.31776 -3.22945 0
M  V30 21705 H 390.657 6.54213 -5.71376 0
M  V30 21706 H 390.929 5.30492 -4.44033 0
M  V30 21707 H 390.061 4.55889 -6.76652 0
M  V30 21708 P 386.098 4.23843 -7.83734 0
M  V30 21709 O 385.878 4.19407 -9.29784 0
M  V30 21710 O 385.308 5.24426 -7.09156 0
M  V30 21711 O 385.848 2.7935 -7.20758 0
M  V30 21712 C 386.788 1.7299 -7.50419 0
M  V30 21713 C 386.058 0.406376 -7.57911 0
M  V30 21714 O 385.848 -0.0897726 -6.21935 0
M  V30 21715 C 384.658 0.447224 -8.1878 0
M  V30 21716 O 384.268 -0.825065 -8.71101 0
M  V30 21717 C 383.778 0.783801 -6.99623 0
M  V30 21718 C 384.488 0.0619192 -5.85967 0
M  V30 21719 N 384.438 0.7859 -4.56281 0
M  V30 21720 H 387.277 1.93423 -8.4679 0
M  V30 21721 H 387.549 1.68181 -6.71046 0
M  V30 21722 H 386.681 -0.289041 -8.15388 0
M  V30 21723 P 382.718 -1.17771 -8.83182 0
M  V30 21724 O 382.498 -2.07206 -9.98732 0
M  V30 21725 O 381.928 0.0743816 -8.81969 0
M  V30 21726 O 382.468 -1.97652 -7.47304 0
M  V30 21727 C 383.408 -3.01133 -7.08783 0
M  V30 21728 C 382.678 -4.12613 -6.37049 0
M  V30 21729 O 382.468 -3.72827 -4.97879 0
M  V30 21730 C 381.278 -4.45085 -6.88694 0
M  V30 21731 O 380.888 -5.7877 -6.5624 0
M  V30 21732 C 380.398 -3.47817 -6.12078 0
M  V30 21733 C 381.108 -3.39414 -4.77697 0
M  V30 21734 N 381.058 -2.04615 -4.15333 0
M  V30 21735 H 383.897 -3.41248 -7.98759 0
M  V30 21736 H 384.169 -2.5837 -6.41742 0
M  V30 21737 H 383.301 -5.02657 -6.42673 0
M  V30 21738 P 379.338 -6.144 -6.45285 0
M  V30 21739 O 379.118 -7.54673 -6.86199 0
M  V30 21740 O 378.548 -5.12391 -7.179 0
M  V30 21741 O 379.088 -5.99158 -4.88404 0
M  V30 21742 C 380.028 -6.60234 -3.96415 0
M  V30 21743 C 379.298 -7.08259 -2.72856 0
M  V30 21744 O 379.088 -5.9427 -1.83651 0
M  V30 21745 C 377.898 -7.64886 -2.9555 0
M  V30 21746 O 377.508 -8.53963 -1.90717 0
M  V30 21747 C 377.018 -6.4116 -2.90739 0
M  V30 21748 C 377.728 -5.55375 -1.86963 0
M  V30 21749 N 377.678 -4.09448 -2.16152 0
M  V30 21750 H 380.517 -7.45574 -4.45629 0
M  V30 21751 H 380.789 -5.85864 -3.679 0
M  V30 21752 H 379.921 -7.84412 -2.24479 0
M  V30 21753 H 377.266 -5.73457 -0.888562 0
M  V30 21754 H 376.986 -5.90877 -3.88583 0
M  V30 21755 H 375.995 -6.6596 -2.58858 0
M  V30 21756 H 377.829 -8.16339 -3.92049 0
M  V30 21757 P 375.958 -8.7635 -1.60911 0
M  V30 21758 O 375.738 -10.1388 -1.11561 0
M  V30 21759 O 375.168 -8.36503 -2.79617 0
M  V30 21760 O 375.708 -7.71806 -0.42951 0
M  V30 21761 C 376.648 -7.66948 0.673514 0
M  V30 21762 C 375.918 -7.33374 1.95559 0
M  V30 21763 O 375.708 -5.88721 2.00726 0
M  V30 21764 C 374.518 -7.92218 2.1125 0
M  V30 21765 O 374.128 -8.02971 3.47653 0
M  V30 21766 C 373.638 -6.89504 1.41631 0
M  V30 21767 C 374.348 -5.59106 1.75155 0
M  V30 21768 N 374.298 -4.58136 0.662409 0
M  V30 21769 C 374.148 -3.26059 1.02863 0
M  V30 21770 O 374.058 -2.90743 2.19009 0
M  V30 21771 N 374.108 -2.35995 -0.0155585 0
M  V30 21772 C 374.198 -2.65248 -1.35603 0
M  V30 21773 C 374.348 -4.05747 -1.64698 0
M  V30 21774 C 374.398 -4.96734 -0.652411 0
M  V30 21775 H 377.139 -8.64917 0.776982 0
M  V30 21776 H 377.408 -6.89974 0.474015 0
M  V30 21777 H 376.541 -7.66548 2.79458 0
M  V30 21778 H 373.886 -5.16076 2.65138 0
M  V30 21779 H 373.607 -7.06433 0.329384 0
M  V30 21780 H 372.615 -6.90829 1.81996 0
M  V30 21781 H 374.449 -8.90774 1.62639 0
M  V30 21782 H 374.52 -6.02181 -0.895285 0
M  V30 21783 P 372.578 -8.03563 3.84925 0
M  V30 21784 O 372.358 -8.85821 5.0569 0
M  V30 21785 O 371.788 -8.41101 2.65469 0
M  V30 21786 O 372.328 -6.4965 4.18908 0
M  V30 21787 C 373.268 -5.81037 5.05421 0
M  V30 21788 C 372.538 -4.78366 5.89277 0
M  V30 21789 O 372.328 -3.58302 5.08433 0
M  V30 21790 C 371.138 -5.17448 6.36119 0
M  V30 21791 O 370.748 -4.45271 7.53232 0
M  V30 21792 C 370.258 -4.74639 5.19936 0
M  V30 21793 C 370.968 -3.49432 4.70418 0
M  V30 21794 N 370.918 -3.31776 3.22945 0
M  V30 21795 H 373.757 -6.54213 5.71376 0
M  V30 21796 H 374.029 -5.30492 4.44033 0
M  V30 21797 H 373.161 -4.55889 6.76652 0
M  V30 21798 P 369.198 -4.23843 7.83734 0
M  V30 21799 O 368.978 -4.19407 9.29784 0
M  V30 21800 O 368.408 -5.24426 7.09156 0
M  V30 21801 O 368.948 -2.7935 7.20758 0
M  V30 21802 C 369.888 -1.7299 7.50419 0
M  V30 21803 C 369.158 -0.406376 7.57911 0
M  V30 21804 O 368.948 0.0897726 6.21935 0
M  V30 21805 C 367.758 -0.447224 8.1878 0
M  V30 21806 O 367.368 0.825065 8.71101 0
M  V30 21807 C 366.878 -0.783801 6.99623 0
M  V30 21808 C 367.588 -0.0619192 5.85967 0
M  V30 21809 N 367.538 -0.7859 4.56281 0
M  V30 21810 H 370.377 -1.93423 8.4679 0
M  V30 21811 H 370.649 -1.68181 6.71046 0
M  V30 21812 H 369.781 0.289041 8.15388 0
M  V30 21813 P 365.818 1.17771 8.83182 0
M  V30 21814 O 365.598 2.07206 9.98732 0
M  V30 21815 O 365.028 -0.0743816 8.81969 0
M  V30 21816 O 365.568 1.97652 7.47304 0
M  V30 21817 C 366.508 3.01133 7.08783 0
M  V30 21818 C 365.778 4.12613 6.37049 0
M  V30 21819 O 365.568 3.72827 4.97879 0
M  V30 21820 C 364.378 4.45085 6.88694 0
M  V30 21821 O 363.988 5.7877 6.5624 0
M  V30 21822 C 363.498 3.47817 6.12078 0
M  V30 21823 C 364.208 3.39414 4.77697 0
M  V30 21824 N 364.158 2.04615 4.15333 0
M  V30 21825 H 366.997 3.41248 7.98759 0
M  V30 21826 H 367.269 2.5837 6.41742 0
M  V30 21827 H 366.401 5.02657 6.42673 0
M  V30 21828 P 362.438 6.144 6.45285 0
M  V30 21829 O 362.218 7.54673 6.86199 0
M  V30 21830 O 361.648 5.12391 7.179 0
M  V30 21831 O 362.188 5.99158 4.88404 0
M  V30 21832 C 363.128 6.60234 3.96415 0
M  V30 21833 C 362.398 7.08259 2.72856 0
M  V30 21834 O 362.188 5.9427 1.83651 0
M  V30 21835 C 360.998 7.64886 2.9555 0
M  V30 21836 O 360.608 8.53963 1.90717 0
M  V30 21837 C 360.118 6.4116 2.90739 0
M  V30 21838 C 360.828 5.55375 1.86963 0
M  V30 21839 N 360.778 4.09448 2.16152 0
M  V30 21840 H 363.617 7.45574 4.45629 0
M  V30 21841 H 363.889 5.85864 3.679 0
M  V30 21842 H 363.021 7.84412 2.24479 0
M  V30 21843 H 360.366 5.73457 0.888562 0
M  V30 21844 H 360.086 5.90877 3.88583 0
M  V30 21845 H 359.095 6.6596 2.58858 0
M  V30 21846 H 360.929 8.16339 3.92049 0
M  V30 21847 P 359.058 8.7635 1.60911 0
M  V30 21848 O 358.838 10.1388 1.11561 0
M  V30 21849 O 358.268 8.36503 2.79617 0
M  V30 21850 O 358.808 7.71806 0.42951 0
M  V30 21851 C 359.748 7.67148 -0.673689 0
M  V30 21852 C 359.018 7.33374 -1.95559 0
M  V30 21853 O 358.808 5.88721 -2.00726 0
M  V30 21854 C 357.618 7.92526 -2.10483 0
M  V30 21855 O 357.228 8.02971 -3.47653 0
M  V30 21856 C 356.738 6.89602 -1.41652 0
M  V30 21857 C 357.448 5.59201 -1.75185 0
M  V30 21858 N 357.398 4.58301 -0.657969 0
M  V30 21859 C 357.478 4.79019 0.692603 0
M  V30 21860 N 357.408 3.69736 1.38998 0
M  V30 21861 C 357.258 2.70474 0.438135 0
M  V30 21862 C 357.128 1.30327 0.538142 0
M  V30 21863 N 357.118 0.64304 1.69192 0
M  V30 21864 N 357.008 0.611027 -0.605183 0
M  V30 21865 C 357.018 1.27002 -1.75953 0
M  V30 21866 N 357.138 2.56038 -1.98546 0
M  V30 21867 C 357.258 3.22681 -0.822541 0
M  V30 21868 H 360.237 8.65116 -0.777161 0
M  V30 21869 H 360.509 6.9022 -0.46725 0
M  V30 21870 H 359.641 7.66548 -2.79458 0
M  V30 21871 H 356.986 5.16165 -2.65183 0
M  V30 21872 H 356.706 7.06433 -0.329384 0
M  V30 21873 H 355.715 6.90926 -1.82021 0
M  V30 21874 H 357.549 8.90873 -1.62657 0
M  V30 21875 H 357.59 5.77785 1.13874 0
M  V30 21876 H 357.209 1.15585 2.57991 0
M  V30 21877 H 357.02 -0.382989 1.69835 0
M  V30 21878 H 356.912 0.653331 -2.64449 0
M  V30 21879 P 355.678 8.03563 -3.84925 0
M  V30 21880 O 355.458 8.85821 -5.0569 0
M  V30 21881 O 354.888 8.41101 -2.65469 0
M  V30 21882 O 355.428 6.4965 -4.18908 0
M  V30 21883 C 356.368 5.81037 -5.05421 0
M  V30 21884 C 355.638 4.78366 -5.89277 0
M  V30 21885 O 355.428 3.58302 -5.08433 0
M  V30 21886 C 354.238 5.17448 -6.36119 0
M  V30 21887 O 353.848 4.45271 -7.53232 0
M  V30 21888 C 353.358 4.74639 -5.19936 0
M  V30 21889 C 354.068 3.49432 -4.70418 0
M  V30 21890 N 354.018 3.32099 -3.22613 0
M  V30 21891 C 354.098 4.28245 -2.25527 0
M  V30 21892 N 354.028 3.80823 -1.04874 0
M  V30 21893 C 353.878 2.44571 -1.23535 0
M  V30 21894 C 353.748 1.37068 -0.330675 0
M  V30 21895 N 353.738 1.51472 0.990824 0
M  V30 21896 N 353.628 0.138614 -0.848756 0
M  V30 21897 C 353.638 -0.00675923 -2.16999 0
M  V30 21898 N 353.758 0.904372 -3.11122 0
M  V30 21899 C 353.878 2.12707 -2.56212 0
M  V30 21900 H 356.857 6.54213 -5.71376 0
M  V30 21901 H 357.129 5.30936 -4.43503 0
M  V30 21902 H 356.261 4.55889 -6.76652 0
M  V30 21903 H 353.606 2.61715 -5.17932 0
M  V30 21904 H 353.326 5.52155 -4.41878 0
M  V30 21905 H 352.335 4.51981 -5.53374 0
M  V30 21906 H 354.169 6.25124 -6.55234 0
M  V30 21907 H 354.21 5.34372 -2.47488 0
M  V30 21908 H 353.829 2.45153 1.4078 0
M  V30 21909 H 353.64 0.688422 1.59911 0
M  V30 21910 H 353.532 -1.02584 -2.52346 0
M  V30 21911 P 352.298 4.23843 -7.83734 0
M  V30 21912 O 352.078 4.19407 -9.29784 0
M  V30 21913 O 351.508 5.24426 -7.09156 0
M  V30 21914 O 352.048 2.7935 -7.20758 0
M  V30 21915 C 352.988 1.7299 -7.50419 0
M  V30 21916 C 352.258 0.406376 -7.57911 0
M  V30 21917 O 352.048 -0.0897726 -6.21935 0
M  V30 21918 C 350.858 0.447224 -8.1878 0
M  V30 21919 O 350.468 -0.825065 -8.71101 0
M  V30 21920 C 349.978 0.783801 -6.99623 0
M  V30 21921 C 350.688 0.0619192 -5.85967 0
M  V30 21922 N 350.638 0.7859 -4.56281 0
M  V30 21923 C 350.718 2.14308 -4.31736 0
M  V30 21924 N 350.638 2.46106 -3.05116 0
M  V30 21925 C 350.498 1.23422 -2.4014 0
M  V30 21926 C 350.368 0.938381 -1.02409 0
M  V30 21927 N 350.248 -0.444647 -0.805413 0
M  V30 21928 C 350.248 -1.40829 -1.79435 0
M  V30 21929 N 350.118 -2.67213 -1.38558 0
M  V30 21930 N 350.378 -1.12947 -3.09005 0
M  V30 21931 C 350.498 0.204887 -3.32369 0
M  V30 21932 H 353.477 1.93423 -8.4679 0
M  V30 21933 H 353.749 1.68181 -6.71046 0
M  V30 21934 H 352.881 -0.289041 -8.15388 0
M  V30 21935 P 348.918 -1.17771 -8.83182 0
M  V30 21936 O 348.698 -2.07206 -9.98732 0
M  V30 21937 O 348.128 0.0743816 -8.81969 0
M  V30 21938 O 348.668 -1.97652 -7.47304 0
M  V30 21939 C 349.608 -3.01133 -7.08783 0
M  V30 21940 C 348.878 -4.12613 -6.37049 0
M  V30 21941 O 348.668 -3.72827 -4.97879 0
M  V30 21942 C 347.478 -4.45085 -6.88694 0
M  V30 21943 O 347.088 -5.7877 -6.5624 0
M  V30 21944 C 346.598 -3.47817 -6.12078 0
M  V30 21945 C 347.308 -3.39414 -4.77697 0
M  V30 21946 N 347.258 -2.04615 -4.15333 0
M  V30 21947 H 350.097 -3.41248 -7.98759 0
M  V30 21948 H 350.369 -2.5837 -6.41742 0
M  V30 21949 H 349.501 -5.02657 -6.42673 0
M  V30 21950 P 345.538 -6.144 -6.45285 0
M  V30 21951 O 345.318 -7.54673 -6.86199 0
M  V30 21952 O 344.748 -5.12391 -7.179 0
M  V30 21953 O 345.288 -5.99158 -4.88404 0
M  V30 21954 C 346.228 -6.60234 -3.96415 0
M  V30 21955 C 345.498 -7.08259 -2.72856 0
M  V30 21956 O 345.288 -5.9427 -1.83651 0
M  V30 21957 C 344.098 -7.64886 -2.9555 0
M  V30 21958 O 343.708 -8.53963 -1.90717 0
M  V30 21959 C 343.218 -6.4116 -2.90739 0
M  V30 21960 C 343.928 -5.55375 -1.86963 0
M  V30 21961 N 343.878 -4.09664 -2.15742 0
M  V30 21962 H 346.717 -7.45574 -4.45629 0
M  V30 21963 H 346.989 -5.86232 -3.67314 0
M  V30 21964 H 346.121 -7.84412 -2.24479 0
M  V30 21965 P 342.158 -8.7635 -1.60911 0
M  V30 21966 O 341.938 -10.1388 -1.11561 0
M  V30 21967 O 341.368 -8.36503 -2.79617 0
M  V30 21968 O 341.908 -7.71806 -0.42951 0
M  V30 21969 C 342.848 -7.67148 0.673689 0
M  V30 21970 C 342.118 -7.33374 1.95559 0
M  V30 21971 O 341.908 -5.88721 2.00726 0
M  V30 21972 C 340.718 -7.92526 2.10483 0
M  V30 21973 O 340.328 -8.02971 3.47653 0
M  V30 21974 C 339.838 -6.89602 1.41652 0
M  V30 21975 C 340.548 -5.59201 1.75185 0
M  V30 21976 N 340.498 -4.58301 0.657969 0
M  V30 21977 H 343.337 -8.65116 0.777161 0
M  V30 21978 H 343.609 -6.9022 0.46725 0
M  V30 21979 H 342.741 -7.66548 2.79458 0
M  V30 21980 H 340.086 -5.16165 2.65183 0
M  V30 21981 H 339.806 -7.06433 0.329384 0
M  V30 21982 H 338.815 -6.90926 1.82021 0
M  V30 21983 H 340.649 -8.90873 1.62657 0
M  V30 21984 P 338.778 -8.03563 3.84925 0
M  V30 21985 O 338.558 -8.85821 5.0569 0
M  V30 21986 O 337.988 -8.41101 2.65469 0
M  V30 21987 O 338.528 -6.4965 4.18908 0
M  V30 21988 C 339.468 -5.81037 5.05421 0
M  V30 21989 C 338.738 -4.78366 5.89277 0
M  V30 21990 O 338.528 -3.58302 5.08433 0
M  V30 21991 C 337.338 -5.17448 6.36119 0
M  V30 21992 O 336.948 -4.45271 7.53232 0
M  V30 21993 C 336.458 -4.74639 5.19936 0
M  V30 21994 C 337.168 -3.49432 4.70418 0
M  V30 21995 N 337.118 -3.31776 3.22945 0
M  V30 21996 H 339.957 -6.54213 5.71376 0
M  V30 21997 H 340.229 -5.30492 4.44033 0
M  V30 21998 H 339.361 -4.55889 6.76652 0
M  V30 21999 P 335.398 -4.23843 7.83734 0
M  V30 22000 O 335.178 -4.19407 9.29784 0
M  V30 22001 O 334.608 -5.24426 7.09156 0
M  V30 22002 O 335.148 -2.7935 7.20758 0
M  V30 22003 C 336.088 -1.7299 7.50419 0
M  V30 22004 C 335.358 -0.406376 7.57911 0
M  V30 22005 O 335.148 0.0897726 6.21935 0
M  V30 22006 C 333.958 -0.447224 8.1878 0
M  V30 22007 O 333.568 0.825065 8.71101 0
M  V30 22008 C 333.078 -0.783801 6.99623 0
M  V30 22009 C 333.788 -0.0619192 5.85967 0
M  V30 22010 N 333.738 -0.7859 4.56281 0
M  V30 22011 H 336.577 -1.93423 8.4679 0
M  V30 22012 H 336.849 -1.68181 6.71046 0
M  V30 22013 H 335.981 0.289041 8.15388 0
M  V30 22014 P 332.018 1.17771 8.83182 0
M  V30 22015 O 331.798 2.07206 9.98732 0
M  V30 22016 O 331.228 -0.0743816 8.81969 0
M  V30 22017 O 331.768 1.97652 7.47304 0
M  V30 22018 C 332.708 3.01055 7.08599 0
M  V30 22019 C 331.978 4.12613 6.37049 0
M  V30 22020 O 331.768 3.72827 4.97879 0
M  V30 22021 C 330.578 4.45719 6.88164 0
M  V30 22022 O 330.188 5.7877 6.5624 0
M  V30 22023 C 329.698 3.47768 6.11991 0
M  V30 22024 C 330.408 3.39356 4.77615 0
M  V30 22025 N 330.358 2.04571 4.15244 0
M  V30 22026 C 330.208 1.98587 2.78314 0
M  V30 22027 O 330.118 2.98134 2.08835 0
M  V30 22028 N 330.168 0.714467 2.24925 0
M  V30 22029 C 330.258 -0.470001 2.94169 0
M  V30 22030 C 330.408 -0.312541 4.36783 0
M  V30 22031 C 330.458 0.914512 4.92583 0
M  V30 22032 H 333.199 3.41169 7.98575 0
M  V30 22033 H 333.468 2.58295 6.41556 0
M  V30 22034 H 332.601 5.02657 6.42673 0
M  V30 22035 H 329.946 4.11637 4.08885 0
M  V30 22036 H 329.667 2.49626 6.61679 0
M  V30 22037 H 328.675 3.86566 6.00778 0
M  V30 22038 H 330.509 4.29943 7.96918 0
M  V30 22039 H 330.58 1.00937 6.00374 0
M  V30 22040 P 328.638 6.144 6.45285 0
M  V30 22041 O 328.418 7.54673 6.86199 0
M  V30 22042 O 327.848 5.12391 7.179 0
M  V30 22043 O 328.388 5.99236 4.88467 0
M  V30 22044 C 329.328 6.60234 3.96415 0
M  V30 22045 C 328.598 7.08079 2.736 0
M  V30 22046 O 328.388 5.94365 1.8368 0
M  V30 22047 C 327.198 7.64886 2.9555 0
M  V30 22048 O 326.808 8.5406 1.90739 0
M  V30 22049 C 326.318 6.4116 2.90739 0
M  V30 22050 C 327.028 5.55375 1.86963 0
M  V30 22051 N 326.978 4.09664 2.15742 0
M  V30 22052 C 326.828 3.22231 1.08477 0
M  V30 22053 O 326.738 3.68951 -0.0600489 0
M  V30 22054 N 326.778 1.76692 1.48799 0
M  V30 22055 C 326.878 1.41695 2.57602 0
M  V30 22056 N 326.828 0.107296 2.75791 0
M  V30 22057 C 327.028 2.29178 3.69733 0
M  V30 22058 C 327.078 3.62753 3.42653 0
M  V30 22059 H 329.818 7.45488 4.45578 0
M  V30 22060 H 330.088 5.86232 3.67314 0
M  V30 22061 H 329.221 7.84508 2.24507 0
M  V30 22062 H 326.566 5.73556 0.888715 0
M  V30 22063 H 326.286 5.9096 3.88638 0
M  V30 22064 H 325.295 6.66053 2.58894 0
M  V30 22065 H 327.129 8.16339 3.92049 0
M  V30 22066 H 327.201 4.33052 4.24913 0
M  V30 22067 H 327.099 1.9103 4.71577 0
M  V30 22068 H 326.711 -0.521221 1.95056 0
M  V30 22069 H 326.907 -0.286429 3.70695 0
M  V30 22070 P 325.258 8.7635 1.60911 0
M  V30 22071 O 325.038 10.1388 1.11561 0
M  V30 22072 O 324.468 8.36503 2.79617 0
M  V30 22073 O 325.008 7.71806 0.42951 0
M  V30 22074 C 325.948 7.67148 -0.673689 0
M  V30 22075 C 325.218 7.33374 -1.95559 0
M  V30 22076 O 325.008 5.88721 -2.00726 0
M  V30 22077 C 323.818 7.92526 -2.10483 0
M  V30 22078 O 323.428 8.02971 -3.47653 0
M  V30 22079 C 322.938 6.89602 -1.41652 0
M  V30 22080 C 323.648 5.59201 -1.75185 0
M  V30 22081 N 323.598 4.58235 -0.662552 0
M  V30 22082 C 323.678 4.7683 0.704049 0
M  V30 22083 N 323.598 3.66233 1.39775 0
M  V30 22084 C 323.458 2.66526 0.431739 0
M  V30 22085 C 323.328 1.26394 0.575992 0
M  V30 22086 N 323.208 0.62859 -0.67177 0
M  V30 22087 C 323.208 1.27134 -1.89385 0
M  V30 22088 N 323.078 0.492035 -2.96951 0
M  V30 22089 N 323.338 2.58978 -2.02907 0
M  V30 22090 C 323.458 3.22433 -0.832218 0
M  V30 22091 H 326.437 8.65116 -0.777161 0
M  V30 22092 H 326.709 6.90173 -0.474152 0
M  V30 22093 H 325.841 7.66548 -2.79458 0
M  V30 22094 P 321.878 8.03563 -3.84925 0
M  V30 22095 O 321.658 8.85821 -5.0569 0
M  V30 22096 O 321.088 8.41101 -2.65469 0
M  V30 22097 O 321.628 6.4965 -4.18908 0
M  V30 22098 C 322.568 5.81037 -5.05421 0
M  V30 22099 C 321.838 4.78366 -5.89277 0
M  V30 22100 O 321.628 3.58302 -5.08433 0
M  V30 22101 C 320.438 5.17448 -6.36119 0
M  V30 22102 O 320.048 4.45271 -7.53232 0
M  V30 22103 C 319.558 4.74639 -5.19936 0
M  V30 22104 C 320.268 3.49432 -4.70418 0
M  V30 22105 N 320.218 3.31776 -3.22945 0
M  V30 22106 H 323.057 6.54213 -5.71376 0
M  V30 22107 H 323.329 5.30492 -4.44033 0
M  V30 22108 H 322.461 4.55889 -6.76652 0
M  V30 22109 P 318.498 4.23843 -7.83734 0
M  V30 22110 O 318.278 4.19407 -9.29784 0
M  V30 22111 O 317.708 5.24426 -7.09156 0
M  V30 22112 O 318.248 2.7935 -7.20758 0
M  V30 22113 C 319.188 1.7299 -7.50419 0
M  V30 22114 C 318.458 0.406376 -7.57911 0
M  V30 22115 O 318.248 -0.0897726 -6.21935 0
M  V30 22116 C 317.058 0.447224 -8.1878 0
M  V30 22117 O 316.668 -0.825065 -8.71101 0
M  V30 22118 C 316.178 0.783801 -6.99623 0
M  V30 22119 C 316.888 0.0619192 -5.85967 0
M  V30 22120 N 316.838 0.790462 -4.56202 0
M  V30 22121 C 316.918 2.13895 -4.34171 0
M  V30 22122 N 316.848 2.46449 -3.08687 0
M  V30 22123 C 316.698 1.2525 -2.43697 0
M  V30 22124 C 316.568 0.914535 -1.07318 0
M  V30 22125 N 316.558 1.80782 -0.0887348 0
M  V30 22126 N 316.448 -0.386745 -0.768133 0
M  V30 22127 C 316.458 -1.28096 -1.75159 0
M  V30 22128 N 316.578 -1.09708 -3.04861 0
M  V30 22129 C 316.698 0.214857 -3.32306 0
M  V30 22130 H 319.677 1.93423 -8.4679 0
M  V30 22131 H 319.949 1.68852 -6.70877 0
M  V30 22132 H 319.081 -0.289041 -8.15388 0
M  V30 22133 H 316.426 -0.927006 -5.72848 0
M  V30 22134 H 316.146 1.86973 -6.82036 0
M  V30 22135 H 315.155 0.403953 -7.13357 0
M  V30 22136 H 316.989 1.20599 -8.97534 0
M  V30 22137 H 317.03 2.86846 -5.14318 0
M  V30 22138 H 316.649 2.81082 -0.302037 0
M  V30 22139 H 316.46 1.49688 0.889064 0
M  V30 22140 H 316.352 -2.31317 -1.43855 0
M  V30 22141 P 315.118 -1.17771 -8.83182 0
M  V30 22142 O 314.898 -2.07206 -9.98732 0
M  V30 22143 O 314.328 0.0743816 -8.81969 0
M  V30 22144 O 314.868 -1.97652 -7.47304 0
M  V30 22145 C 315.808 -3.01055 -7.08599 0
M  V30 22146 C 315.078 -4.12613 -6.37049 0
M  V30 22147 O 314.868 -3.72827 -4.97879 0
M  V30 22148 C 313.678 -4.45719 -6.88164 0
M  V30 22149 O 313.288 -5.7877 -6.5624 0
M  V30 22150 C 312.798 -3.47768 -6.11991 0
M  V30 22151 C 313.508 -3.39356 -4.77615 0
M  V30 22152 N 313.458 -2.04571 -4.15244 0
M  V30 22153 C 313.308 -1.98587 -2.78314 0
M  V30 22154 O 313.218 -2.98134 -2.08835 0
M  V30 22155 N 313.268 -0.714467 -2.24925 0
M  V30 22156 C 313.358 0.470001 -2.94169 0
M  V30 22157 O 313.308 1.55587 -2.35195 0
M  V30 22158 C 313.508 0.312541 -4.36783 0
M  V30 22159 C 313.618 1.57711 -5.16352 0
M  V30 22160 C 313.558 -0.914512 -4.92583 0
M  V30 22161 H 316.299 -3.41169 -7.98575 0
M  V30 22162 H 316.568 -2.58295 -6.41556 0
M  V30 22163 H 315.701 -5.02657 -6.42673 0
M  V30 22164 H 313.046 -4.11637 -4.08885 0
M  V30 22165 H 312.767 -2.49626 -6.61679 0
M  V30 22166 H 311.775 -3.86566 -6.00778 0
M  V30 22167 H 313.609 -4.29943 -7.96918 0
M  V30 22168 H 313.68 -1.00937 -6.00374 0
M  V30 22169 H 312.65 1.80153 -5.63503 0
M  V30 22170 H 314.387 1.4566 -5.94104 0
M  V30 22171 H 313.899 2.40664 -4.49645 0
M  V30 22172 H 313.163 -0.647622 -1.25697 0
M  V30 22173 P 311.738 -6.144 -6.45285 0
M  V30 22174 O 311.518 -7.54673 -6.86199 0
M  V30 22175 O 310.948 -5.12391 -7.179 0
M  V30 22176 O 311.488 -5.99158 -4.88404 0
M  V30 22177 C 312.428 -6.60234 -3.96415 0
M  V30 22178 C 311.698 -7.08259 -2.72856 0
M  V30 22179 O 311.488 -5.9427 -1.83651 0
M  V30 22180 C 310.298 -7.64886 -2.9555 0
M  V30 22181 O 309.908 -8.53963 -1.90717 0
M  V30 22182 C 309.418 -6.4116 -2.90739 0
M  V30 22183 C 310.128 -5.55375 -1.86963 0
M  V30 22184 N 310.078 -4.09664 -2.15742 0
M  V30 22185 H 312.917 -7.45574 -4.45629 0
M  V30 22186 H 313.189 -5.86232 -3.67314 0
M  V30 22187 H 312.321 -7.84412 -2.24479 0
M  V30 22188 P 308.358 -8.7635 -1.60911 0
M  V30 22189 O 308.138 -10.1388 -1.11561 0
M  V30 22190 O 307.568 -8.36503 -2.79617 0
M  V30 22191 O 308.108 -7.71806 -0.42951 0
M  V30 22192 C 309.048 -7.67148 0.673689 0
M  V30 22193 C 308.318 -7.33374 1.95559 0
M  V30 22194 O 308.108 -5.88721 2.00726 0
M  V30 22195 C 306.918 -7.92526 2.10483 0
M  V30 22196 O 306.528 -8.02971 3.47653 0
M  V30 22197 C 306.038 -6.89602 1.41652 0
M  V30 22198 C 306.748 -5.59201 1.75185 0
M  V30 22199 N 306.698 -4.58235 0.662552 0
M  V30 22200 H 309.537 -8.65116 0.777161 0
M  V30 22201 H 309.809 -6.90173 0.474152 0
M  V30 22202 H 308.941 -7.66548 2.79458 0
M  V30 22203 P 304.978 -8.03563 3.84925 0
M  V30 22204 O 304.758 -8.85821 5.0569 0
M  V30 22205 O 304.188 -8.41101 2.65469 0
M  V30 22206 O 304.728 -6.4965 4.18908 0
M  V30 22207 C 305.668 -5.81037 5.05421 0
M  V30 22208 C 304.938 -4.78366 5.89277 0
M  V30 22209 O 304.728 -3.58302 5.08433 0
M  V30 22210 C 303.538 -5.17448 6.36119 0
M  V30 22211 O 303.148 -4.45271 7.53232 0
M  V30 22212 C 302.658 -4.74639 5.19936 0
M  V30 22213 C 303.368 -3.49432 4.70418 0
M  V30 22214 N 303.318 -3.31776 3.22945 0
M  V30 22215 H 306.157 -6.54213 5.71376 0
M  V30 22216 H 306.429 -5.30492 4.44033 0
M  V30 22217 H 305.561 -4.55889 6.76652 0
M  V30 22218 P 301.598 -4.23843 7.83734 0
M  V30 22219 O 301.378 -4.19407 9.29784 0
M  V30 22220 O 300.808 -5.24426 7.09156 0
M  V30 22221 O 301.348 -2.7935 7.20758 0
M  V30 22222 C 302.288 -1.72945 7.50224 0
M  V30 22223 C 301.558 -0.406376 7.57911 0
M  V30 22224 O 301.348 0.0897726 6.21935 0
M  V30 22225 C 300.158 -0.438983 8.18724 0
M  V30 22226 O 299.768 0.825065 8.71101 0
M  V30 22227 C 299.278 -0.783689 6.99524 0
M  V30 22228 C 299.988 -0.0619086 5.85867 0
M  V30 22229 N 299.938 -0.78573 4.56183 0
M  V30 22230 C 299.788 -0.0292889 3.41887 0
M  V30 22231 O 299.698 1.18445 3.4419 0
M  V30 22232 N 299.748 -0.744061 2.23964 0
M  V30 22233 C 299.838 -2.10932 2.10362 0
M  V30 22234 O 299.788 -2.64117 0.98825 0
M  V30 22235 C 299.988 -2.8202 3.34994 0
M  V30 22236 C 300.098 -4.31095 3.25037 0
M  V30 22237 C 300.038 -2.15547 4.52261 0
M  V30 22238 H 302.779 -1.93379 8.46595 0
M  V30 22239 H 303.048 -1.68132 6.70852 0
M  V30 22240 H 302.181 0.289041 8.15388 0
M  V30 22241 H 299.526 0.926847 5.72749 0
M  V30 22242 H 299.247 -1.86973 6.82036 0
M  V30 22243 H 298.255 -0.403896 7.13257 0
M  V30 22244 H 300.089 -1.20585 8.97435 0
M  V30 22245 H 300.16 -2.71231 5.45042 0
M  V30 22246 H 299.13 -4.76966 3.49992 0
M  V30 22247 H 300.867 -4.67047 3.95024 0
M  V30 22248 H 300.379 -4.58996 2.22312 0
M  V30 22249 H 299.643 -0.214893 1.39758 0
M  V30 22250 P 298.218 1.17771 8.83182 0
M  V30 22251 O 297.998 2.07206 9.98732 0
M  V30 22252 O 297.428 -0.0743816 8.81969 0
M  V30 22253 O 297.968 1.97652 7.47304 0
M  V30 22254 C 298.908 3.01055 7.08599 0
M  V30 22255 C 298.178 4.12613 6.37049 0
M  V30 22256 O 297.968 3.72827 4.97879 0
M  V30 22257 C 296.778 4.45719 6.88164 0
M  V30 22258 O 296.388 5.7877 6.5624 0
M  V30 22259 C 295.898 3.47768 6.11991 0
M  V30 22260 C 296.608 3.39356 4.77615 0
M  V30 22261 N 296.558 2.04571 4.15244 0
M  V30 22262 C 296.408 1.98587 2.78314 0
M  V30 22263 O 296.318 2.98134 2.08835 0
M  V30 22264 N 296.368 0.714467 2.24925 0
M  V30 22265 C 296.458 -0.470001 2.94169 0
M  V30 22266 O 296.408 -1.55587 2.35195 0
M  V30 22267 C 296.608 -0.312541 4.36783 0
M  V30 22268 C 296.718 -1.57711 5.16352 0
M  V30 22269 C 296.658 0.914512 4.92583 0
M  V30 22270 H 299.399 3.41169 7.98575 0
M  V30 22271 H 299.668 2.58295 6.41556 0
M  V30 22272 H 298.801 5.02657 6.42673 0
M  V30 22273 H 296.146 4.11637 4.08885 0
M  V30 22274 H 295.867 2.49626 6.61679 0
M  V30 22275 H 294.875 3.86566 6.00778 0
M  V30 22276 H 296.709 4.29943 7.96918 0
M  V30 22277 H 296.78 1.00937 6.00374 0
M  V30 22278 H 295.75 -1.80153 5.63503 0
M  V30 22279 H 297.487 -1.4566 5.94104 0
M  V30 22280 H 296.999 -2.40664 4.49645 0
M  V30 22281 H 296.263 0.647622 1.25697 0
M  V30 22282 P 294.838 6.144 6.45285 0
M  V30 22283 O 294.618 7.54673 6.86199 0
M  V30 22284 O 294.048 5.12391 7.179 0
M  V30 22285 O 294.588 5.99158 4.88404 0
M  V30 22286 C 295.528 6.60234 3.96415 0
M  V30 22287 C 294.798 7.08259 2.72856 0
M  V30 22288 O 294.588 5.9427 1.83651 0
M  V30 22289 C 293.398 7.64886 2.9555 0
M  V30 22290 O 293.008 8.53963 1.90717 0
M  V30 22291 C 292.518 6.4116 2.90739 0
M  V30 22292 C 293.228 5.55375 1.86963 0
M  V30 22293 N 293.178 4.09664 2.15742 0
M  V30 22294 H 296.017 7.45574 4.45629 0
M  V30 22295 H 296.289 5.86232 3.67314 0
M  V30 22296 H 295.421 7.84412 2.24479 0
M  V30 22297 P 291.458 8.7635 1.60911 0
M  V30 22298 O 291.238 10.1388 1.11561 0
M  V30 22299 O 290.668 8.36503 2.79617 0
M  V30 22300 O 291.208 7.71806 0.42951 0
M  V30 22301 C 292.148 7.67148 -0.673689 0
M  V30 22302 C 291.418 7.33374 -1.95559 0
M  V30 22303 O 291.208 5.88721 -2.00726 0
M  V30 22304 C 290.018 7.92526 -2.10483 0
M  V30 22305 O 289.628 8.02971 -3.47653 0
M  V30 22306 C 289.138 6.89602 -1.41652 0
M  V30 22307 C 289.848 5.59201 -1.75185 0
M  V30 22308 N 289.798 4.58301 -0.657969 0
M  V30 22309 H 292.637 8.65116 -0.777161 0
M  V30 22310 H 292.909 6.9022 -0.46725 0
M  V30 22311 H 292.041 7.66548 -2.79458 0
M  V30 22312 H 289.386 5.16165 -2.65183 0
M  V30 22313 H 289.106 7.06433 -0.329384 0
M  V30 22314 H 288.115 6.90926 -1.82021 0
M  V30 22315 H 289.949 8.90873 -1.62657 0
M  V30 22316 P 288.078 8.03563 -3.84925 0
M  V30 22317 O 287.858 8.85821 -5.0569 0
M  V30 22318 O 287.288 8.41101 -2.65469 0
M  V30 22319 O 287.828 6.4965 -4.18908 0
M  V30 22320 C 288.768 5.81037 -5.05421 0
M  V30 22321 C 288.038 4.78366 -5.89277 0
M  V30 22322 O 287.828 3.58302 -5.08433 0
M  V30 22323 C 286.638 5.17448 -6.36119 0
M  V30 22324 O 286.248 4.45271 -7.53232 0
M  V30 22325 C 285.758 4.74639 -5.19936 0
M  V30 22326 C 286.468 3.49432 -4.70418 0
M  V30 22327 N 286.418 3.31776 -3.22945 0
M  V30 22328 H 289.257 6.54213 -5.71376 0
M  V30 22329 H 289.529 5.30492 -4.44033 0
M  V30 22330 H 288.661 4.55889 -6.76652 0
M  V30 22331 P 284.698 4.23843 -7.83734 0
M  V30 22332 O 284.478 4.19407 -9.29784 0
M  V30 22333 O 283.908 5.24426 -7.09156 0
M  V30 22334 O 284.448 2.7935 -7.20758 0
M  V30 22335 C 285.388 1.72945 -7.50224 0
M  V30 22336 C 284.658 0.406376 -7.57911 0
M  V30 22337 O 284.448 -0.0897726 -6.21935 0
M  V30 22338 C 283.258 0.438983 -8.18724 0
M  V30 22339 O 282.868 -0.825065 -8.71101 0
M  V30 22340 C 282.378 0.783689 -6.99524 0
M  V30 22341 C 283.088 0.0619086 -5.85867 0
M  V30 22342 N 283.038 0.78573 -4.56183 0
M  V30 22343 C 282.888 0.0292889 -3.41887 0
M  V30 22344 O 282.798 -1.18445 -3.4419 0
M  V30 22345 N 282.848 0.744061 -2.23964 0
M  V30 22346 C 282.938 2.10932 -2.10362 0
M  V30 22347 C 283.088 2.8202 -3.34994 0
M  V30 22348 C 283.138 2.15547 -4.52261 0
M  V30 22349 H 285.879 1.93379 -8.46595 0
M  V30 22350 H 286.148 1.68132 -6.70852 0
M  V30 22351 H 285.281 -0.289041 -8.15388 0
M  V30 22352 H 282.626 -0.926847 -5.72749 0
M  V30 22353 H 282.347 1.86973 -6.82036 0
M  V30 22354 H 281.355 0.403896 -7.13257 0
M  V30 22355 H 283.189 1.20585 -8.97435 0
M  V30 22356 H 283.26 2.71231 -5.45042 0
M  V30 22357 P 281.318 -1.17771 -8.83182 0
M  V30 22358 O 281.098 -2.07206 -9.98732 0
M  V30 22359 O 280.528 0.0743816 -8.81969 0
M  V30 22360 O 281.068 -1.97652 -7.47304 0
M  V30 22361 C 282.008 -3.01133 -7.08783 0
M  V30 22362 C 281.278 -4.12613 -6.37049 0
M  V30 22363 O 281.068 -3.72827 -4.97879 0
M  V30 22364 C 279.878 -4.45085 -6.88694 0
M  V30 22365 O 279.488 -5.7877 -6.5624 0
M  V30 22366 C 278.998 -3.47817 -6.12078 0
M  V30 22367 C 279.708 -3.39414 -4.77697 0
M  V30 22368 N 279.658 -2.04615 -4.15333 0
M  V30 22369 H 282.497 -3.41248 -7.98759 0
M  V30 22370 H 282.769 -2.5837 -6.41742 0
M  V30 22371 H 281.901 -5.02657 -6.42673 0
M  V30 22372 P 277.938 -6.144 -6.45285 0
M  V30 22373 O 277.718 -7.54673 -6.86199 0
M  V30 22374 O 277.148 -5.12391 -7.179 0
M  V30 22375 O 277.688 -5.99158 -4.88404 0
M  V30 22376 C 278.628 -6.60234 -3.96415 0
M  V30 22377 C 277.898 -7.08259 -2.72856 0
M  V30 22378 O 277.688 -5.9427 -1.83651 0
M  V30 22379 C 276.498 -7.64886 -2.9555 0
M  V30 22380 O 276.108 -8.53963 -1.90717 0
M  V30 22381 C 275.618 -6.4116 -2.90739 0
M  V30 22382 C 276.328 -5.55375 -1.86963 0
M  V30 22383 N 276.278 -4.09664 -2.15742 0
M  V30 22384 H 279.117 -7.45574 -4.45629 0
M  V30 22385 H 279.389 -5.86232 -3.67314 0
M  V30 22386 H 278.521 -7.84412 -2.24479 0
M  V30 22387 P 274.558 -8.7635 -1.60911 0
M  V30 22388 O 274.338 -10.1388 -1.11561 0
M  V30 22389 O 273.768 -8.36503 -2.79617 0
M  V30 22390 O 274.308 -7.71806 -0.42951 0
M  V30 22391 C 275.248 -7.66948 0.673514 0
M  V30 22392 C 274.518 -7.33374 1.95559 0
M  V30 22393 O 274.308 -5.88721 2.00726 0
M  V30 22394 C 273.118 -7.92218 2.1125 0
M  V30 22395 O 272.728 -8.02971 3.47653 0
M  V30 22396 C 272.238 -6.89504 1.41631 0
M  V30 22397 C 272.948 -5.59106 1.75155 0
M  V30 22398 N 272.898 -4.58136 0.662409 0
M  V30 22399 C 272.748 -3.26059 1.02863 0
M  V30 22400 O 272.658 -2.90743 2.19009 0
M  V30 22401 N 272.708 -2.35995 -0.0155585 0
M  V30 22402 C 272.798 -2.65248 -1.35603 0
M  V30 22403 C 272.948 -4.05747 -1.64698 0
M  V30 22404 C 272.998 -4.96734 -0.652411 0
M  V30 22405 H 275.739 -8.64917 0.776982 0
M  V30 22406 H 276.008 -6.89974 0.474015 0
M  V30 22407 H 275.141 -7.66548 2.79458 0
M  V30 22408 H 272.486 -5.16076 2.65138 0
M  V30 22409 H 272.207 -7.06433 0.329384 0
M  V30 22410 H 271.215 -6.90829 1.81996 0
M  V30 22411 H 273.049 -8.90774 1.62639 0
M  V30 22412 H 273.12 -6.02181 -0.895285 0
M  V30 22413 P 271.178 -8.03563 3.84925 0
M  V30 22414 O 270.958 -8.85821 5.0569 0
M  V30 22415 O 270.388 -8.41101 2.65469 0
M  V30 22416 O 270.928 -6.49734 4.18962 0
M  V30 22417 C 271.868 -5.81037 5.05421 0
M  V30 22418 C 271.138 -4.79018 5.88876 0
M  V30 22419 O 270.928 -3.58359 5.08515 0
M  V30 22420 C 269.738 -5.17448 6.36119 0
M  V30 22421 O 269.348 -4.45322 7.53318 0
M  V30 22422 C 268.858 -4.74639 5.19936 0
M  V30 22423 C 269.568 -3.49432 4.70418 0
M  V30 22424 N 269.518 -3.31776 3.22945 0
M  V30 22425 C 269.368 -2.02742 2.72939 0
M  V30 22426 O 269.278 -1.08301 3.52749 0
M  V30 22427 N 269.318 -1.96117 1.22063 0
M  V30 22428 C 269.418 -2.8878 0.551566 0
M  V30 22429 N 269.368 -2.65609 -0.750198 0
M  V30 22430 C 269.568 -4.22457 1.03707 0
M  V30 22431 C 269.618 -4.37979 2.39113 0
M  V30 22432 H 272.358 -6.54138 5.7131 0
M  V30 22433 H 272.628 -5.30492 4.44033 0
M  V30 22434 H 271.761 -4.55945 6.76735 0
M  V30 22435 H 269.106 -2.6176 5.18021 0
M  V30 22436 H 268.826 -5.52233 4.41941 0
M  V30 22437 H 267.835 -4.52045 5.53452 0
M  V30 22438 H 269.669 -6.25124 6.55234 0
M  V30 22439 H 269.741 -5.37936 2.80552 0
M  V30 22440 H 269.639 -5.07528 0.359553 0
M  V30 22441 H 269.251 -1.69403 -1.09847 0
M  V30 22442 H 269.447 -3.43701 -1.41792 0
M  V30 22443 P 267.798 -4.23843 7.83734 0
M  V30 22444 O 267.578 -4.19407 9.29784 0
M  V30 22445 O 267.008 -5.24426 7.09156 0
M  V30 22446 O 267.548 -2.7935 7.20758 0
M  V30 22447 C 268.488 -1.7299 7.50419 0
M  V30 22448 C 267.758 -0.406376 7.57911 0
M  V30 22449 O 267.548 0.0897726 6.21935 0
M  V30 22450 C 266.358 -0.447224 8.1878 0
M  V30 22451 O 265.968 0.825065 8.71101 0
M  V30 22452 C 265.478 -0.783801 6.99623 0
M  V30 22453 C 266.188 -0.0619192 5.85967 0
M  V30 22454 N 266.138 -0.7859 4.56281 0
M  V30 22455 H 268.977 -1.93423 8.4679 0
M  V30 22456 H 269.249 -1.68181 6.71046 0
M  V30 22457 H 268.381 0.289041 8.15388 0
M  V30 22458 P 264.418 1.17771 8.83182 0
M  V30 22459 O 264.198 2.07206 9.98732 0
M  V30 22460 O 263.628 -0.0743816 8.81969 0
M  V30 22461 O 264.168 1.97652 7.47304 0
M  V30 22462 C 265.108 3.01133 7.08783 0
M  V30 22463 C 264.378 4.12613 6.37049 0
M  V30 22464 O 264.168 3.72827 4.97879 0
M  V30 22465 C 262.978 4.45085 6.88694 0
M  V30 22466 O 262.588 5.7877 6.5624 0
M  V30 22467 C 262.098 3.47817 6.12078 0
M  V30 22468 C 262.808 3.39414 4.77697 0
M  V30 22469 N 262.758 2.04615 4.15333 0
M  V30 22470 C 262.838 0.803897 4.75249 0
M  V30 22471 N 262.758 -0.197615 3.91502 0
M  V30 22472 C 262.618 0.413002 2.66823 0
M  V30 22473 C 262.488 -0.157221 1.38007 0
M  V30 22474 N 262.368 0.833136 0.390236 0
M  V30 22475 C 262.368 2.19402 0.623885 0
M  V30 22476 N 262.238 2.97622 -0.449677 0
M  V30 22477 N 262.498 2.73005 1.83601 0
M  V30 22478 C 262.618 1.78786 2.80935 0
M  V30 22479 H 265.597 3.41248 7.98759 0
M  V30 22480 H 265.869 2.5837 6.41742 0
M  V30 22481 H 265.001 5.02657 6.42673 0
M  V30 22482 P 261.038 6.144 6.45285 0
M  V30 22483 O 260.818 7.54673 6.86199 0
M  V30 22484 O 260.248 5.12391 7.179 0
M  V30 22485 O 260.788 5.99158 4.88404 0
M  V30 22486 C 261.728 6.60234 3.96415 0
M  V30 22487 C 260.998 7.08259 2.72856 0
M  V30 22488 O 260.788 5.9427 1.83651 0
M  V30 22489 C 259.598 7.64886 2.9555 0
M  V30 22490 O 259.208 8.53963 1.90717 0
M  V30 22491 C 258.718 6.4116 2.90739 0
M  V30 22492 C 259.428 5.55375 1.86963 0
M  V30 22493 N 259.378 4.09664 2.15742 0
M  V30 22494 H 262.217 7.45574 4.45629 0
M  V30 22495 H 262.489 5.86232 3.67314 0
M  V30 22496 H 261.621 7.84412 2.24479 0
M  V30 22497 P 257.658 8.7635 1.60911 0
M  V30 22498 O 257.438 10.1388 1.11561 0
M  V30 22499 O 256.868 8.36503 2.79617 0
M  V30 22500 O 257.408 7.71806 0.42951 0
M  V30 22501 C 258.348 7.67148 -0.673689 0
M  V30 22502 C 257.618 7.33374 -1.95559 0
M  V30 22503 O 257.408 5.88721 -2.00726 0
M  V30 22504 C 256.218 7.92526 -2.10483 0
M  V30 22505 O 255.828 8.02971 -3.47653 0
M  V30 22506 C 255.338 6.89602 -1.41652 0
M  V30 22507 C 256.048 5.59201 -1.75185 0
M  V30 22508 N 255.998 4.58235 -0.662552 0
M  V30 22509 H 258.837 8.65116 -0.777161 0
M  V30 22510 H 259.109 6.90173 -0.474152 0
M  V30 22511 H 258.241 7.66548 -2.79458 0
M  V30 22512 P 254.279 8.03563 -3.84925 0
M  V30 22513 O 254.059 8.85821 -5.0569 0
M  V30 22514 O 253.489 8.41101 -2.65469 0
M  V30 22515 O 254.029 6.4965 -4.18908 0
M  V30 22516 C 254.969 5.80886 -5.05289 0
M  V30 22517 C 254.239 4.78366 -5.89277 0
M  V30 22518 O 254.029 3.58302 -5.08433 0
M  V30 22519 C 252.839 5.16748 -6.36559 0
M  V30 22520 O 252.449 4.45271 -7.53232 0
M  V30 22521 C 251.959 4.74572 -5.19863 0
M  V30 22522 C 252.669 3.49373 -4.70338 0
M  V30 22523 N 252.619 3.31704 -3.22876 0
M  V30 22524 C 252.469 2.03326 -2.74871 0
M  V30 22525 O 252.379 1.06486 -3.48076 0
M  V30 22526 N 252.429 1.91838 -1.37456 0
M  V30 22527 C 252.519 2.94295 -0.462035 0
M  V30 22528 C 252.669 4.25064 -1.05249 0
M  V30 22529 C 252.719 4.40214 -2.39192 0
M  V30 22530 H 255.46 6.54063 -5.71245 0
M  V30 22531 H 255.729 5.30339 -4.43905 0
M  V30 22532 H 254.862 4.55889 -6.76652 0
M  V30 22533 H 252.207 2.6167 -5.17842 0
M  V30 22534 H 251.928 5.52155 -4.41878 0
M  V30 22535 H 250.936 4.51918 -5.53297 0
M  V30 22536 H 252.77 6.25055 -6.55162 0
M  V30 22537 H 252.841 5.39798 -2.81523 0
M  V30 22538 P 250.899 4.23843 -7.83734 0
M  V30 22539 O 250.679 4.19407 -9.29784 0
M  V30 22540 O 250.109 5.24426 -7.09156 0
M  V30 22541 O 250.649 2.7935 -7.20758 0
M  V30 22542 C 251.589 1.7299 -7.50419 0
M  V30 22543 C 250.859 0.406376 -7.57911 0
M  V30 22544 O 250.649 -0.0897726 -6.21935 0
M  V30 22545 C 249.459 0.447224 -8.1878 0
M  V30 22546 O 249.069 -0.825065 -8.71101 0
M  V30 22547 C 248.579 0.783801 -6.99623 0
M  V30 22548 C 249.289 0.0619192 -5.85967 0
M  V30 22549 N 249.239 0.7859 -4.56281 0
M  V30 22550 H 252.078 1.93423 -8.4679 0
M  V30 22551 H 252.35 1.68181 -6.71046 0
M  V30 22552 H 251.482 -0.289041 -8.15388 0
M  V30 22553 P 247.519 -1.17771 -8.83182 0
M  V30 22554 O 247.299 -2.07206 -9.98732 0
M  V30 22555 O 246.729 0.0743816 -8.81969 0
M  V30 22556 O 247.269 -1.97678 -7.474 0
M  V30 22557 C 248.209 -3.01133 -7.08783 0
M  V30 22558 C 247.479 -4.1203 -6.37546 0
M  V30 22559 O 247.269 -3.72887 -4.9796 0
M  V30 22560 C 246.079 -4.45085 -6.88694 0
M  V30 22561 O 245.689 -5.78836 -6.56315 0
M  V30 22562 C 245.199 -3.47817 -6.12078 0
M  V30 22563 C 245.909 -3.39414 -4.77697 0
M  V30 22564 N 245.859 -2.04615 -4.15333 0
M  V30 22565 C 245.709 -1.96929 -2.77162 0
M  V30 22566 O 245.619 -3.02017 -2.12006 0
M  V30 22567 N 245.659 -0.55485 -2.24237 0
M  V30 22568 C 245.759 0.367808 -2.9169 0
M  V30 22569 N 245.709 1.53426 -2.29427 0
M  V30 22570 C 245.909 0.319148 -4.33828 0
M  V30 22571 C 245.959 -0.920672 -4.90433 0
M  V30 22572 H 248.699 -3.41209 -7.98667 0
M  V30 22573 H 248.969 -2.5837 -6.41742 0
M  V30 22574 H 248.102 -5.02718 -6.42752 0
M  V30 22575 H 245.447 -4.11779 -4.09026 0
M  V30 22576 H 245.167 -2.49661 -6.61772 0
M  V30 22577 H 244.176 -3.86674 -6.00946 0
M  V30 22578 H 246.01 -4.29991 -7.97006 0
M  V30 22579 H 246.082 -1.00589 -5.98303 0
M  V30 22580 H 245.98 1.22639 -4.93799 0
M  V30 22581 H 245.592 1.56819 -1.27167 0
M  V30 22582 H 245.788 2.41062 -2.83063 0
M  V30 22583 P 244.139 -6.144 -6.45285 0
M  V30 22584 O 243.919 -7.54673 -6.86199 0
M  V30 22585 O 243.349 -5.12391 -7.179 0
M  V30 22586 O 243.889 -5.99158 -4.88404 0
M  V30 22587 C 244.829 -6.60234 -3.96415 0
M  V30 22588 C 244.099 -7.08259 -2.72856 0
M  V30 22589 O 243.889 -5.9427 -1.83651 0
M  V30 22590 C 242.699 -7.64886 -2.9555 0
M  V30 22591 O 242.309 -8.53963 -1.90717 0
M  V30 22592 C 241.819 -6.4116 -2.90739 0
M  V30 22593 C 242.529 -5.55375 -1.86963 0
M  V30 22594 N 242.479 -4.09448 -2.16152 0
M  V30 22595 H 245.318 -7.45574 -4.45629 0
M  V30 22596 H 245.59 -5.85864 -3.679 0
M  V30 22597 H 244.722 -7.84412 -2.24479 0
M  V30 22598 H 242.067 -5.73457 -0.888562 0
M  V30 22599 H 241.787 -5.90877 -3.88583 0
M  V30 22600 H 240.796 -6.6596 -2.58858 0
M  V30 22601 H 242.63 -8.16339 -3.92049 0
M  V30 22602 P 240.759 -8.7635 -1.60911 0
M  V30 22603 O 240.539 -10.1388 -1.11561 0
M  V30 22604 O 239.969 -8.36503 -2.79617 0
M  V30 22605 O 240.509 -7.71806 -0.42951 0
M  V30 22606 C 241.449 -7.67148 0.673689 0
M  V30 22607 C 240.719 -7.33374 1.95559 0
M  V30 22608 O 240.509 -5.88721 2.00726 0
M  V30 22609 C 239.319 -7.92526 2.10483 0
M  V30 22610 O 238.929 -8.02971 3.47653 0
M  V30 22611 C 238.439 -6.89602 1.41652 0
M  V30 22612 C 239.149 -5.59201 1.75185 0
M  V30 22613 N 239.099 -4.58235 0.662552 0
M  V30 22614 H 241.938 -8.65116 0.777161 0
M  V30 22615 H 242.21 -6.90173 0.474152 0
M  V30 22616 H 241.342 -7.66548 2.79458 0
M  V30 22617 P 237.379 -8.03563 3.84925 0
M  V30 22618 O 237.159 -8.85821 5.0569 0
M  V30 22619 O 236.589 -8.41101 2.65469 0
M  V30 22620 O 237.129 -6.4965 4.18908 0
M  V30 22621 C 238.069 -5.81037 5.05421 0
M  V30 22622 C 237.339 -4.78366 5.89277 0
M  V30 22623 O 237.129 -3.58302 5.08433 0
M  V30 22624 C 235.939 -5.17448 6.36119 0
M  V30 22625 O 235.549 -4.45271 7.53232 0
M  V30 22626 C 235.059 -4.74639 5.19936 0
M  V30 22627 C 235.769 -3.49432 4.70418 0
M  V30 22628 N 235.719 -3.31776 3.22945 0
M  V30 22629 H 238.558 -6.54213 5.71376 0
M  V30 22630 H 238.83 -5.30492 4.44033 0
M  V30 22631 H 237.962 -4.55889 6.76652 0
M  V30 22632 P 233.999 -4.23843 7.83734 0
M  V30 22633 O 233.779 -4.19407 9.29784 0
M  V30 22634 O 233.209 -5.24426 7.09156 0
M  V30 22635 O 233.749 -2.7935 7.20758 0
M  V30 22636 C 234.689 -1.7299 7.50419 0
M  V30 22637 C 233.959 -0.406376 7.57911 0
M  V30 22638 O 233.749 0.0897726 6.21935 0
M  V30 22639 C 232.559 -0.447224 8.1878 0
M  V30 22640 O 232.169 0.825065 8.71101 0
M  V30 22641 C 231.679 -0.783801 6.99623 0
M  V30 22642 C 232.389 -0.0619192 5.85967 0
M  V30 22643 N 232.339 -0.7859 4.56281 0
M  V30 22644 H 235.178 -1.93423 8.4679 0
M  V30 22645 H 235.45 -1.68181 6.71046 0
M  V30 22646 H 234.582 0.289041 8.15388 0
M  V30 22647 P 230.619 1.17771 8.83182 0
M  V30 22648 O 230.399 2.07206 9.98732 0
M  V30 22649 O 229.829 -0.0743816 8.81969 0
M  V30 22650 O 230.369 1.97652 7.47304 0
M  V30 22651 C 231.309 3.01133 7.08783 0
M  V30 22652 C 230.579 4.12613 6.37049 0
M  V30 22653 O 230.369 3.72827 4.97879 0
M  V30 22654 C 229.179 4.45085 6.88694 0
M  V30 22655 O 228.789 5.7877 6.5624 0
M  V30 22656 C 228.299 3.47817 6.12078 0
M  V30 22657 C 229.009 3.39414 4.77697 0
M  V30 22658 N 228.959 2.04615 4.15333 0
M  V30 22659 H 231.798 3.41248 7.98759 0
M  V30 22660 H 232.07 2.5837 6.41742 0
M  V30 22661 H 231.202 5.02657 6.42673 0
M  V30 22662 P 227.239 6.144 6.45285 0
M  V30 22663 O 227.019 7.54673 6.86199 0
M  V30 22664 O 226.449 5.12391 7.179 0
M  V30 22665 O 226.989 5.99158 4.88404 0
M  V30 22666 C 227.929 6.60234 3.96415 0
M  V30 22667 C 227.199 7.08259 2.72856 0
M  V30 22668 O 226.989 5.9427 1.83651 0
M  V30 22669 C 225.799 7.64886 2.9555 0
M  V30 22670 O 225.409 8.53963 1.90717 0
M  V30 22671 C 224.919 6.4116 2.90739 0
M  V30 22672 C 225.629 5.55375 1.86963 0
M  V30 22673 N 225.579 4.09664 2.15742 0
M  V30 22674 C 225.659 3.44381 3.37233 0
M  V30 22675 N 225.579 2.14131 3.28347 0
M  V30 22676 C 225.439 1.90247 1.91588 0
M  V30 22677 C 225.309 0.683992 1.20892 0
M  V30 22678 N 225.189 0.903396 -0.173998 0
M  V30 22679 C 225.189 2.14171 -0.784879 0
M  V30 22680 N 225.059 2.1435 -2.11317 0
M  V30 22681 N 225.319 3.28784 -0.119316 0
M  V30 22682 C 225.439 3.0977 1.22194 0
M  V30 22683 H 228.418 7.45574 4.45629 0
M  V30 22684 H 228.69 5.86232 3.67314 0
M  V30 22685 H 227.822 7.84412 2.24479 0
M  V30 22686 P 223.859 8.7635 1.60911 0
M  V30 22687 O 223.639 10.1388 1.11561 0
M  V30 22688 O 223.069 8.36503 2.79617 0
M  V30 22689 O 223.609 7.71806 0.42951 0
M  V30 22690 C 224.549 7.67148 -0.673689 0
M  V30 22691 C 223.819 7.33374 -1.95559 0
M  V30 22692 O 223.609 5.88721 -2.00726 0
M  V30 22693 C 222.419 7.92526 -2.10483 0
M  V30 22694 O 222.029 8.02971 -3.47653 0
M  V30 22695 C 221.539 6.89602 -1.41652 0
M  V30 22696 C 222.249 5.59201 -1.75185 0
M  V30 22697 N 222.199 4.58235 -0.662552 0
M  V30 22698 H 225.038 8.65116 -0.777161 0
M  V30 22699 H 225.31 6.90173 -0.474152 0
M  V30 22700 H 224.442 7.66548 -2.79458 0
M  V30 22701 P 220.479 8.03563 -3.84925 0
M  V30 22702 O 220.259 8.85821 -5.0569 0
M  V30 22703 O 219.689 8.41101 -2.65469 0
M  V30 22704 O 220.229 6.4965 -4.18908 0
M  V30 22705 C 221.169 5.81037 -5.05421 0
M  V30 22706 C 220.439 4.78366 -5.89277 0
M  V30 22707 O 220.229 3.58302 -5.08433 0
M  V30 22708 C 219.039 5.17448 -6.36119 0
M  V30 22709 O 218.649 4.45271 -7.53232 0
M  V30 22710 C 218.159 4.74639 -5.19936 0
M  V30 22711 C 218.869 3.49432 -4.70418 0
M  V30 22712 N 218.819 3.31776 -3.22945 0
M  V30 22713 H 221.658 6.54213 -5.71376 0
M  V30 22714 H 221.93 5.30492 -4.44033 0
M  V30 22715 H 221.062 4.55889 -6.76652 0
M  V30 22716 P 217.099 4.23843 -7.83734 0
M  V30 22717 O 216.879 4.19407 -9.29784 0
M  V30 22718 O 216.309 5.24426 -7.09156 0
M  V30 22719 O 216.849 2.7935 -7.20758 0
M  V30 22720 C 217.789 1.72945 -7.50224 0
M  V30 22721 C 217.059 0.406376 -7.57911 0
M  V30 22722 O 216.849 -0.0897726 -6.21935 0
M  V30 22723 C 215.659 0.438983 -8.18724 0
M  V30 22724 O 215.269 -0.825065 -8.71101 0
M  V30 22725 C 214.779 0.783689 -6.99524 0
M  V30 22726 C 215.489 0.0619086 -5.85867 0
M  V30 22727 N 215.439 0.78573 -4.56183 0
M  V30 22728 C 215.289 0.0292889 -3.41887 0
M  V30 22729 O 215.199 -1.18445 -3.4419 0
M  V30 22730 N 215.249 0.744061 -2.23964 0
M  V30 22731 C 215.339 2.10932 -2.10362 0
M  V30 22732 O 215.289 2.64117 -0.98825 0
M  V30 22733 C 215.489 2.8202 -3.34994 0
M  V30 22734 C 215.599 4.31095 -3.25037 0
M  V30 22735 C 215.539 2.15547 -4.52261 0
M  V30 22736 H 218.28 1.93379 -8.46595 0
M  V30 22737 H 218.549 1.68132 -6.70852 0
M  V30 22738 H 217.682 -0.289041 -8.15388 0
M  V30 22739 H 215.027 -0.926847 -5.72749 0
M  V30 22740 H 214.748 1.86973 -6.82036 0
M  V30 22741 H 213.756 0.403896 -7.13257 0
M  V30 22742 H 215.59 1.20585 -8.97435 0
M  V30 22743 H 215.661 2.71231 -5.45042 0
M  V30 22744 H 214.631 4.76966 -3.49992 0
M  V30 22745 H 216.368 4.67047 -3.95024 0
M  V30 22746 H 215.88 4.58996 -2.22312 0
M  V30 22747 H 215.144 0.214893 -1.39758 0
M  V30 22748 P 213.719 -1.17771 -8.83182 0
M  V30 22749 O 213.499 -2.07206 -9.98732 0
M  V30 22750 O 212.929 0.0743816 -8.81969 0
M  V30 22751 O 213.469 -1.97652 -7.47304 0
M  V30 22752 C 214.409 -3.01133 -7.08783 0
M  V30 22753 C 213.679 -4.12613 -6.37049 0
M  V30 22754 O 213.469 -3.72827 -4.97879 0
M  V30 22755 C 212.279 -4.45085 -6.88694 0
M  V30 22756 O 211.889 -5.7877 -6.5624 0
M  V30 22757 C 211.399 -3.47817 -6.12078 0
M  V30 22758 C 212.109 -3.39414 -4.77697 0
M  V30 22759 N 212.059 -2.04615 -4.15333 0
M  V30 22760 H 214.898 -3.41248 -7.98759 0
M  V30 22761 H 215.17 -2.5837 -6.41742 0
M  V30 22762 H 214.302 -5.02657 -6.42673 0
M  V30 22763 P 210.339 -6.144 -6.45285 0
M  V30 22764 O 210.119 -7.54673 -6.86199 0
M  V30 22765 O 209.549 -5.12391 -7.179 0
M  V30 22766 O 210.089 -5.99158 -4.88404 0
M  V30 22767 C 211.029 -6.60234 -3.96415 0
M  V30 22768 C 210.299 -7.08259 -2.72856 0
M  V30 22769 O 210.089 -5.9427 -1.83651 0
M  V30 22770 C 208.899 -7.64886 -2.9555 0
M  V30 22771 O 208.509 -8.53963 -1.90717 0
M  V30 22772 C 208.019 -6.4116 -2.90739 0
M  V30 22773 C 208.729 -5.55375 -1.86963 0
M  V30 22774 N 208.679 -4.09664 -2.15742 0
M  V30 22775 C 208.759 -3.44381 -3.37233 0
M  V30 22776 N 208.679 -2.14131 -3.28347 0
M  V30 22777 C 208.539 -1.90247 -1.91588 0
M  V30 22778 C 208.409 -0.683992 -1.20892 0
M  V30 22779 N 208.289 -0.903396 0.173998 0
M  V30 22780 C 208.289 -2.14171 0.784879 0
M  V30 22781 N 208.159 -2.1435 2.11317 0
M  V30 22782 N 208.419 -3.28784 0.119316 0
M  V30 22783 C 208.539 -3.0977 -1.22194 0
M  V30 22784 H 211.518 -7.45574 -4.45629 0
M  V30 22785 H 211.79 -5.86232 -3.67314 0
M  V30 22786 H 210.922 -7.84412 -2.24479 0
M  V30 22787 P 206.959 -8.7635 -1.60911 0
M  V30 22788 O 206.739 -10.1388 -1.11561 0
M  V30 22789 O 206.169 -8.36503 -2.79617 0
M  V30 22790 O 206.709 -7.71806 -0.42951 0
M  V30 22791 C 207.649 -7.67148 0.673689 0
M  V30 22792 C 206.919 -7.33374 1.95559 0
M  V30 22793 O 206.709 -5.88721 2.00726 0
M  V30 22794 C 205.519 -7.92526 2.10483 0
M  V30 22795 O 205.129 -8.02971 3.47653 0
M  V30 22796 C 204.639 -6.89602 1.41652 0
M  V30 22797 C 205.349 -5.59201 1.75185 0
M  V30 22798 N 205.299 -4.58235 0.662552 0
M  V30 22799 H 208.138 -8.65116 0.777161 0
M  V30 22800 H 208.41 -6.90173 0.474152 0
M  V30 22801 H 207.542 -7.66548 2.79458 0
M  V30 22802 P 203.579 -8.03563 3.84925 0
M  V30 22803 O 203.359 -8.85821 5.0569 0
M  V30 22804 O 202.789 -8.41101 2.65469 0
M  V30 22805 O 203.329 -6.49734 4.18962 0
M  V30 22806 C 204.269 -5.81037 5.05421 0
M  V30 22807 C 203.539 -4.79018 5.88876 0
M  V30 22808 O 203.329 -3.58359 5.08515 0
M  V30 22809 C 202.139 -5.17448 6.36119 0
M  V30 22810 O 201.749 -4.45322 7.53318 0
M  V30 22811 C 201.259 -4.74639 5.19936 0
M  V30 22812 C 201.969 -3.49432 4.70418 0
M  V30 22813 N 201.919 -3.31776 3.22945 0
M  V30 22814 C 201.769 -2.02742 2.72939 0
M  V30 22815 O 201.679 -1.08301 3.52749 0
M  V30 22816 N 201.719 -1.96117 1.22063 0
M  V30 22817 C 201.819 -2.8878 0.551566 0
M  V30 22818 N 201.769 -2.65609 -0.750198 0
M  V30 22819 C 201.969 -4.22457 1.03707 0
M  V30 22820 C 202.019 -4.37979 2.39113 0
M  V30 22821 H 204.759 -6.54138 5.7131 0
M  V30 22822 H 205.029 -5.30492 4.44033 0
M  V30 22823 H 204.162 -4.55945 6.76735 0
M  V30 22824 H 201.507 -2.6176 5.18021 0
M  V30 22825 H 201.227 -5.52233 4.41941 0
M  V30 22826 H 200.236 -4.52045 5.53452 0
M  V30 22827 H 202.07 -6.25124 6.55234 0
M  V30 22828 H 202.142 -5.37936 2.80552 0
M  V30 22829 H 202.04 -5.07528 0.359553 0
M  V30 22830 H 201.652 -1.69403 -1.09847 0
M  V30 22831 H 201.848 -3.43701 -1.41792 0
M  V30 22832 P 200.199 -4.23843 7.83734 0
M  V30 22833 O 199.979 -4.19407 9.29784 0
M  V30 22834 O 199.409 -5.24426 7.09156 0
M  V30 22835 O 199.949 -2.7935 7.20758 0
M  V30 22836 C 200.889 -1.7299 7.50419 0
M  V30 22837 C 200.159 -0.406376 7.57911 0
M  V30 22838 O 199.949 0.0897726 6.21935 0
M  V30 22839 C 198.759 -0.447224 8.1878 0
M  V30 22840 O 198.369 0.825065 8.71101 0
M  V30 22841 C 197.879 -0.783801 6.99623 0
M  V30 22842 C 198.589 -0.0619192 5.85967 0
M  V30 22843 N 198.539 -0.790462 4.56202 0
M  V30 22844 H 201.378 -1.93423 8.4679 0
M  V30 22845 H 201.65 -1.68852 6.70877 0
M  V30 22846 H 200.782 0.289041 8.15388 0
M  V30 22847 H 198.127 0.927006 5.72848 0
M  V30 22848 H 197.847 -1.86973 6.82036 0
M  V30 22849 H 196.856 -0.403953 7.13357 0
M  V30 22850 H 198.69 -1.20599 8.97534 0
M  V30 22851 P 196.819 1.17771 8.83182 0
M  V30 22852 O 196.599 2.07206 9.98732 0
M  V30 22853 O 196.029 -0.0743816 8.81969 0
M  V30 22854 O 196.569 1.97652 7.47304 0
M  V30 22855 C 197.509 3.01133 7.08783 0
M  V30 22856 C 196.779 4.12613 6.37049 0
M  V30 22857 O 196.569 3.72827 4.97879 0
M  V30 22858 C 195.379 4.45085 6.88694 0
M  V30 22859 O 194.989 5.7877 6.5624 0
M  V30 22860 C 194.499 3.47817 6.12078 0
M  V30 22861 C 195.209 3.39414 4.77697 0
M  V30 22862 N 195.159 2.04615 4.15333 0
M  V30 22863 H 197.998 3.41248 7.98759 0
M  V30 22864 H 198.27 2.5837 6.41742 0
M  V30 22865 H 197.402 5.02657 6.42673 0
M  V30 22866 P 193.439 6.144 6.45285 0
M  V30 22867 O 193.219 7.54673 6.86199 0
M  V30 22868 O 192.649 5.12391 7.179 0
M  V30 22869 O 193.189 5.99158 4.88404 0
M  V30 22870 C 194.129 6.60234 3.96415 0
M  V30 22871 C 193.399 7.08259 2.72856 0
M  V30 22872 O 193.189 5.9427 1.83651 0
M  V30 22873 C 191.999 7.64886 2.9555 0
M  V30 22874 O 191.609 8.53963 1.90717 0
M  V30 22875 C 191.119 6.4116 2.90739 0
M  V30 22876 C 191.829 5.55375 1.86963 0
M  V30 22877 N 191.779 4.09664 2.15742 0
M  V30 22878 H 194.618 7.45574 4.45629 0
M  V30 22879 H 194.89 5.86232 3.67314 0
M  V30 22880 H 194.022 7.84412 2.24479 0
M  V30 22881 P 190.059 8.7635 1.60911 0
M  V30 22882 O 189.839 10.1388 1.11561 0
M  V30 22883 O 189.269 8.36503 2.79617 0
M  V30 22884 O 189.809 7.71806 0.42951 0
M  V30 22885 C 190.749 7.67148 -0.673689 0
M  V30 22886 C 190.019 7.33374 -1.95559 0
M  V30 22887 O 189.809 5.88721 -2.00726 0
M  V30 22888 C 188.619 7.92526 -2.10483 0
M  V30 22889 O 188.229 8.02971 -3.47653 0
M  V30 22890 C 187.739 6.89602 -1.41652 0
M  V30 22891 C 188.449 5.59201 -1.75185 0
M  V30 22892 N 188.399 4.58235 -0.662552 0
M  V30 22893 H 191.238 8.65116 -0.777161 0
M  V30 22894 H 191.51 6.90173 -0.474152 0
M  V30 22895 H 190.642 7.66548 -2.79458 0
M  V30 22896 P 186.679 8.03563 -3.84925 0
M  V30 22897 O 186.459 8.85821 -5.0569 0
M  V30 22898 O 185.889 8.41101 -2.65469 0
M  V30 22899 O 186.429 6.4965 -4.18908 0
M  V30 22900 C 187.369 5.81037 -5.05421 0
M  V30 22901 C 186.639 4.78366 -5.89277 0
M  V30 22902 O 186.429 3.58302 -5.08433 0
M  V30 22903 C 185.239 5.17448 -6.36119 0
M  V30 22904 O 184.849 4.45271 -7.53232 0
M  V30 22905 C 184.359 4.74639 -5.19936 0
M  V30 22906 C 185.069 3.49432 -4.70418 0
M  V30 22907 N 185.019 3.31776 -3.22945 0
M  V30 22908 H 187.858 6.54213 -5.71376 0
M  V30 22909 H 188.13 5.30492 -4.44033 0
M  V30 22910 H 187.262 4.55889 -6.76652 0
M  V30 22911 P 183.299 4.23843 -7.83734 0
M  V30 22912 O 183.079 4.19407 -9.29784 0
M  V30 22913 O 182.509 5.24426 -7.09156 0
M  V30 22914 O 183.049 2.7935 -7.20758 0
M  V30 22915 C 183.989 1.72945 -7.50224 0
M  V30 22916 C 183.259 0.406376 -7.57911 0
M  V30 22917 O 183.049 -0.0897726 -6.21935 0
M  V30 22918 C 181.859 0.438983 -8.18724 0
M  V30 22919 O 181.469 -0.825065 -8.71101 0
M  V30 22920 C 180.979 0.783689 -6.99524 0
M  V30 22921 C 181.689 0.0619086 -5.85867 0
M  V30 22922 N 181.639 0.78573 -4.56183 0
M  V30 22923 C 181.489 0.0292889 -3.41887 0
M  V30 22924 O 181.399 -1.18445 -3.4419 0
M  V30 22925 N 181.449 0.744061 -2.23964 0
M  V30 22926 C 181.539 2.10932 -2.10362 0
M  V30 22927 C 181.689 2.8202 -3.34994 0
M  V30 22928 C 181.739 2.15547 -4.52261 0
M  V30 22929 H 184.48 1.93379 -8.46595 0
M  V30 22930 H 184.749 1.68132 -6.70852 0
M  V30 22931 H 183.882 -0.289041 -8.15388 0
M  V30 22932 H 181.227 -0.926847 -5.72749 0
M  V30 22933 H 180.948 1.86973 -6.82036 0
M  V30 22934 H 179.956 0.403896 -7.13257 0
M  V30 22935 H 181.79 1.20585 -8.97435 0
M  V30 22936 H 181.861 2.71231 -5.45042 0
M  V30 22937 P 179.919 -1.17771 -8.83182 0
M  V30 22938 O 179.699 -2.07206 -9.98732 0
M  V30 22939 O 179.129 0.0743816 -8.81969 0
M  V30 22940 O 179.669 -1.97652 -7.47304 0
M  V30 22941 C 180.609 -3.01133 -7.08783 0
M  V30 22942 C 179.879 -4.12613 -6.37049 0
M  V30 22943 O 179.669 -3.72827 -4.97879 0
M  V30 22944 C 178.479 -4.45085 -6.88694 0
M  V30 22945 O 178.089 -5.7877 -6.5624 0
M  V30 22946 C 177.599 -3.47817 -6.12078 0
M  V30 22947 C 178.309 -3.39414 -4.77697 0
M  V30 22948 N 178.259 -2.04615 -4.15333 0
M  V30 22949 H 181.098 -3.41248 -7.98759 0
M  V30 22950 H 181.37 -2.5837 -6.41742 0
M  V30 22951 H 180.502 -5.02657 -6.42673 0
M  V30 22952 P 176.539 -6.144 -6.45285 0
M  V30 22953 O 176.319 -7.54673 -6.86199 0
M  V30 22954 O 175.749 -5.12391 -7.179 0
M  V30 22955 O 176.289 -5.99158 -4.88404 0
M  V30 22956 C 177.229 -6.60234 -3.96415 0
M  V30 22957 C 176.499 -7.08259 -2.72856 0
M  V30 22958 O 176.289 -5.9427 -1.83651 0
M  V30 22959 C 175.099 -7.64886 -2.9555 0
M  V30 22960 O 174.709 -8.53963 -1.90717 0
M  V30 22961 C 174.219 -6.4116 -2.90739 0
M  V30 22962 C 174.929 -5.55375 -1.86963 0
M  V30 22963 N 174.879 -4.09448 -2.16152 0
M  V30 22964 H 177.718 -7.45574 -4.45629 0
M  V30 22965 H 177.99 -5.85864 -3.679 0
M  V30 22966 H 177.122 -7.84412 -2.24479 0
M  V30 22967 H 174.467 -5.73457 -0.888562 0
M  V30 22968 H 174.187 -5.90877 -3.88583 0
M  V30 22969 H 173.196 -6.6596 -2.58858 0
M  V30 22970 H 175.03 -8.16339 -3.92049 0
M  V30 22971 P 173.159 -8.7635 -1.60911 0
M  V30 22972 O 172.939 -10.1388 -1.11561 0
M  V30 22973 O 172.369 -8.36503 -2.79617 0
M  V30 22974 O 172.909 -7.71806 -0.42951 0
M  V30 22975 C 173.849 -7.67148 0.673689 0
M  V30 22976 C 173.119 -7.33374 1.95559 0
M  V30 22977 O 172.909 -5.88721 2.00726 0
M  V30 22978 C 171.719 -7.92526 2.10483 0
M  V30 22979 O 171.329 -8.02971 3.47653 0
M  V30 22980 C 170.839 -6.89602 1.41652 0
M  V30 22981 C 171.549 -5.59201 1.75185 0
M  V30 22982 N 171.499 -4.58235 0.662552 0
M  V30 22983 H 174.338 -8.65116 0.777161 0
M  V30 22984 H 174.61 -6.90173 0.474152 0
M  V30 22985 H 173.742 -7.66548 2.79458 0
M  V30 22986 P 169.779 -8.03563 3.84925 0
M  V30 22987 O 169.559 -8.85821 5.0569 0
M  V30 22988 O 168.989 -8.41101 2.65469 0
M  V30 22989 O 169.529 -6.49734 4.18962 0
M  V30 22990 C 170.469 -5.81037 5.05421 0
M  V30 22991 C 169.739 -4.79018 5.88876 0
M  V30 22992 O 169.529 -3.58359 5.08515 0
M  V30 22993 C 168.339 -5.17448 6.36119 0
M  V30 22994 O 167.949 -4.45322 7.53318 0
M  V30 22995 C 167.459 -4.74639 5.19936 0
M  V30 22996 C 168.169 -3.49432 4.70418 0
M  V30 22997 N 168.119 -3.31776 3.22945 0
M  V30 22998 C 167.969 -2.02742 2.72939 0
M  V30 22999 O 167.879 -1.08301 3.52749 0
M  V30 23000 N 167.919 -1.96117 1.22063 0
M  V30 23001 C 168.019 -2.8878 0.551566 0
M  V30 23002 N 167.969 -2.65609 -0.750198 0
M  V30 23003 C 168.169 -4.22457 1.03707 0
M  V30 23004 C 168.219 -4.37979 2.39113 0
M  V30 23005 H 170.959 -6.54138 5.7131 0
M  V30 23006 H 171.229 -5.30492 4.44033 0
M  V30 23007 H 170.362 -4.55945 6.76735 0
M  V30 23008 H 167.707 -2.6176 5.18021 0
M  V30 23009 H 167.427 -5.52233 4.41941 0
M  V30 23010 H 166.436 -4.52045 5.53452 0
M  V30 23011 H 168.27 -6.25124 6.55234 0
M  V30 23012 H 168.342 -5.37936 2.80552 0
M  V30 23013 H 168.24 -5.07528 0.359553 0
M  V30 23014 H 167.852 -1.69403 -1.09847 0
M  V30 23015 H 168.048 -3.43701 -1.41792 0
M  V30 23016 P 166.399 -4.23843 7.83734 0
M  V30 23017 O 166.179 -4.19407 9.29784 0
M  V30 23018 O 165.609 -5.24426 7.09156 0
M  V30 23019 O 166.149 -2.7935 7.20758 0
M  V30 23020 C 167.089 -1.7299 7.50419 0
M  V30 23021 C 166.359 -0.406376 7.57911 0
M  V30 23022 O 166.149 0.0897726 6.21935 0
M  V30 23023 C 164.959 -0.447224 8.1878 0
M  V30 23024 O 164.569 0.825065 8.71101 0
M  V30 23025 C 164.079 -0.783801 6.99623 0
M  V30 23026 C 164.789 -0.0619192 5.85967 0
M  V30 23027 N 164.739 -0.790462 4.56202 0
M  V30 23028 H 167.578 -1.93423 8.4679 0
M  V30 23029 H 167.85 -1.68852 6.70877 0
M  V30 23030 H 166.982 0.289041 8.15388 0
M  V30 23031 H 164.327 0.927006 5.72848 0
M  V30 23032 H 164.047 -1.86973 6.82036 0
M  V30 23033 H 163.056 -0.403953 7.13357 0
M  V30 23034 H 164.89 -1.20599 8.97534 0
M  V30 23035 P 163.019 1.17771 8.83182 0
M  V30 23036 O 162.799 2.07206 9.98732 0
M  V30 23037 O 162.229 -0.0743816 8.81969 0
M  V30 23038 O 162.769 1.97652 7.47304 0
M  V30 23039 C 163.709 3.01133 7.08783 0
M  V30 23040 C 162.979 4.12613 6.37049 0
M  V30 23041 O 162.769 3.72827 4.97879 0
M  V30 23042 C 161.579 4.45085 6.88694 0
M  V30 23043 O 161.189 5.7877 6.5624 0
M  V30 23044 C 160.699 3.47817 6.12078 0
M  V30 23045 C 161.409 3.39414 4.77697 0
M  V30 23046 N 161.359 2.04615 4.15333 0
M  V30 23047 H 164.198 3.41248 7.98759 0
M  V30 23048 H 164.47 2.5837 6.41742 0
M  V30 23049 H 163.602 5.02657 6.42673 0
M  V30 23050 P 159.639 6.144 6.45285 0
M  V30 23051 O 159.419 7.54673 6.86199 0
M  V30 23052 O 158.849 5.12391 7.179 0
M  V30 23053 O 159.389 5.99158 4.88404 0
M  V30 23054 C 160.329 6.60234 3.96415 0
M  V30 23055 C 159.599 7.08259 2.72856 0
M  V30 23056 O 159.389 5.9427 1.83651 0
M  V30 23057 C 158.199 7.64886 2.9555 0
M  V30 23058 O 157.809 8.53963 1.90717 0
M  V30 23059 C 157.319 6.4116 2.90739 0
M  V30 23060 C 158.029 5.55375 1.86963 0
M  V30 23061 N 157.979 4.09664 2.15742 0
M  V30 23062 H 160.818 7.45574 4.45629 0
M  V30 23063 H 161.09 5.86232 3.67314 0
M  V30 23064 H 160.222 7.84412 2.24479 0
M  V30 23065 P 156.259 8.7635 1.60911 0
M  V30 23066 O 156.039 10.1388 1.11561 0
M  V30 23067 O 155.469 8.36503 2.79617 0
M  V30 23068 O 156.009 7.71806 0.42951 0
M  V30 23069 C 156.949 7.67148 -0.673689 0
M  V30 23070 C 156.219 7.33374 -1.95559 0
M  V30 23071 O 156.009 5.88721 -2.00726 0
M  V30 23072 C 154.819 7.92526 -2.10483 0
M  V30 23073 O 154.429 8.02971 -3.47653 0
M  V30 23074 C 153.939 6.89602 -1.41652 0
M  V30 23075 C 154.649 5.59201 -1.75185 0
M  V30 23076 N 154.599 4.58301 -0.657969 0
M  V30 23077 H 157.438 8.65116 -0.777161 0
M  V30 23078 H 157.71 6.9022 -0.46725 0
M  V30 23079 H 156.842 7.66548 -2.79458 0
M  V30 23080 H 154.187 5.16165 -2.65183 0
M  V30 23081 H 153.907 7.06433 -0.329384 0
M  V30 23082 H 152.916 6.90926 -1.82021 0
M  V30 23083 H 154.75 8.90873 -1.62657 0
M  V30 23084 P 152.879 8.03563 -3.84925 0
M  V30 23085 O 152.659 8.85821 -5.0569 0
M  V30 23086 O 152.089 8.41101 -2.65469 0
M  V30 23087 O 152.629 6.4965 -4.18908 0
M  V30 23088 C 153.569 5.81037 -5.05421 0
M  V30 23089 C 152.839 4.78366 -5.89277 0
M  V30 23090 O 152.629 3.58302 -5.08433 0
M  V30 23091 C 151.439 5.17448 -6.36119 0
M  V30 23092 O 151.049 4.45271 -7.53232 0
M  V30 23093 C 150.559 4.74639 -5.19936 0
M  V30 23094 C 151.269 3.49432 -4.70418 0
M  V30 23095 N 151.219 3.31776 -3.22945 0
M  V30 23096 H 154.058 6.54213 -5.71376 0
M  V30 23097 H 154.33 5.30492 -4.44033 0
M  V30 23098 H 153.462 4.55889 -6.76652 0
M  V30 23099 P 149.499 4.23843 -7.83734 0
M  V30 23100 O 149.279 4.19407 -9.29784 0
M  V30 23101 O 148.709 5.24426 -7.09156 0
M  V30 23102 O 149.249 2.7935 -7.20758 0
M  V30 23103 C 150.189 1.7299 -7.50419 0
M  V30 23104 C 149.459 0.406376 -7.57911 0
M  V30 23105 O 149.249 -0.0897726 -6.21935 0
M  V30 23106 C 148.059 0.447224 -8.1878 0
M  V30 23107 O 147.669 -0.825065 -8.71101 0
M  V30 23108 C 147.179 0.783801 -6.99623 0
M  V30 23109 C 147.889 0.0619192 -5.85967 0
M  V30 23110 N 147.839 0.790462 -4.56202 0
M  V30 23111 H 150.678 1.93423 -8.4679 0
M  V30 23112 H 150.95 1.68852 -6.70877 0
M  V30 23113 H 150.082 -0.289041 -8.15388 0
M  V30 23114 H 147.427 -0.927006 -5.72848 0
M  V30 23115 H 147.147 1.86973 -6.82036 0
M  V30 23116 H 146.156 0.403953 -7.13357 0
M  V30 23117 H 147.99 1.20599 -8.97534 0
M  V30 23118 P 146.119 -1.17771 -8.83182 0
M  V30 23119 O 145.899 -2.07206 -9.98732 0
M  V30 23120 O 145.329 0.0743816 -8.81969 0
M  V30 23121 O 145.869 -1.97652 -7.47304 0
M  V30 23122 C 146.809 -3.01133 -7.08783 0
M  V30 23123 C 146.079 -4.12613 -6.37049 0
M  V30 23124 O 145.869 -3.72827 -4.97879 0
M  V30 23125 C 144.679 -4.45085 -6.88694 0
M  V30 23126 O 144.289 -5.7877 -6.5624 0
M  V30 23127 C 143.799 -3.47817 -6.12078 0
M  V30 23128 C 144.509 -3.39414 -4.77697 0
M  V30 23129 N 144.459 -2.04615 -4.15333 0
M  V30 23130 H 147.298 -3.41248 -7.98759 0
M  V30 23131 H 147.57 -2.5837 -6.41742 0
M  V30 23132 H 146.702 -5.02657 -6.42673 0
M  V30 23133 P 142.739 -6.144 -6.45285 0
M  V30 23134 O 142.519 -7.54673 -6.86199 0
M  V30 23135 O 141.949 -5.12391 -7.179 0
M  V30 23136 O 142.489 -5.99158 -4.88404 0
M  V30 23137 C 143.429 -6.60234 -3.96415 0
M  V30 23138 C 142.699 -7.08259 -2.72856 0
M  V30 23139 O 142.489 -5.9427 -1.83651 0
M  V30 23140 C 141.299 -7.64886 -2.9555 0
M  V30 23141 O 140.909 -8.53963 -1.90717 0
M  V30 23142 C 140.419 -6.4116 -2.90739 0
M  V30 23143 C 141.129 -5.55375 -1.86963 0
M  V30 23144 N 141.079 -4.09664 -2.15742 0
M  V30 23145 H 143.918 -7.45574 -4.45629 0
M  V30 23146 H 144.19 -5.86232 -3.67314 0
M  V30 23147 H 143.322 -7.84412 -2.24479 0
M  V30 23148 P 139.359 -8.7635 -1.60911 0
M  V30 23149 O 139.139 -10.1388 -1.11561 0
M  V30 23150 O 138.569 -8.36503 -2.79617 0
M  V30 23151 O 139.109 -7.71806 -0.42951 0
M  V30 23152 C 140.049 -7.66948 0.673514 0
M  V30 23153 C 139.319 -7.33374 1.95559 0
M  V30 23154 O 139.109 -5.88721 2.00726 0
M  V30 23155 C 137.919 -7.92218 2.1125 0
M  V30 23156 O 137.529 -8.02971 3.47653 0
M  V30 23157 C 137.039 -6.89504 1.41631 0
M  V30 23158 C 137.749 -5.59106 1.75155 0
M  V30 23159 N 137.699 -4.58136 0.662409 0
M  V30 23160 C 137.549 -3.26059 1.02863 0
M  V30 23161 O 137.459 -2.90743 2.19009 0
M  V30 23162 N 137.509 -2.35995 -0.0155585 0
M  V30 23163 C 137.599 -2.65248 -1.35603 0
M  V30 23164 C 137.749 -4.05747 -1.64698 0
M  V30 23165 C 137.799 -4.96734 -0.652411 0
M  V30 23166 H 140.54 -8.64917 0.776982 0
M  V30 23167 H 140.809 -6.89974 0.474015 0
M  V30 23168 H 139.942 -7.66548 2.79458 0
M  V30 23169 H 137.287 -5.16076 2.65138 0
M  V30 23170 H 137.008 -7.06433 0.329384 0
M  V30 23171 H 136.016 -6.90829 1.81996 0
M  V30 23172 H 137.85 -8.90774 1.62639 0
M  V30 23173 H 137.921 -6.02181 -0.895285 0
M  V30 23174 P 135.979 -8.03563 3.84925 0
M  V30 23175 O 135.759 -8.85821 5.0569 0
M  V30 23176 O 135.189 -8.41101 2.65469 0
M  V30 23177 O 135.729 -6.4965 4.18908 0
M  V30 23178 C 136.669 -5.80886 5.05289 0
M  V30 23179 C 135.939 -4.78366 5.89277 0
M  V30 23180 O 135.729 -3.58302 5.08433 0
M  V30 23181 C 134.539 -5.16748 6.36559 0
M  V30 23182 O 134.149 -4.45271 7.53232 0
M  V30 23183 C 133.659 -4.74572 5.19863 0
M  V30 23184 C 134.369 -3.49373 4.70338 0
M  V30 23185 N 134.319 -3.31704 3.22876 0
M  V30 23186 C 134.169 -2.03326 2.74871 0
M  V30 23187 O 134.079 -1.06486 3.48076 0
M  V30 23188 N 134.129 -1.91838 1.37456 0
M  V30 23189 C 134.219 -2.94295 0.462035 0
M  V30 23190 O 134.169 -2.71763 -0.752928 0
M  V30 23191 C 134.369 -4.25064 1.05249 0
M  V30 23192 C 134.479 -5.39815 0.095697 0
M  V30 23193 C 134.419 -4.40214 2.39192 0
M  V30 23194 H 137.16 -6.54063 5.71245 0
M  V30 23195 H 137.429 -5.30339 4.43905 0
M  V30 23196 H 136.562 -4.55889 6.76652 0
M  V30 23197 H 133.907 -2.6167 5.17842 0
M  V30 23198 H 133.628 -5.52155 4.41878 0
M  V30 23199 H 132.636 -4.51918 5.53297 0
M  V30 23200 H 134.47 -6.25055 6.55162 0
M  V30 23201 H 134.541 -5.39798 2.81523 0
M  V30 23202 H 133.511 -5.91593 0.0279582 0
M  V30 23203 H 135.248 -6.10038 0.450573 0
M  V30 23204 H 134.76 -5.02007 -0.89937 0
M  V30 23205 H 134.024 -0.995326 1.00435 0
M  V30 23206 P 132.599 -4.23843 7.83734 0
M  V30 23207 O 132.379 -4.19407 9.29784 0
M  V30 23208 O 131.809 -5.24426 7.09156 0
M  V30 23209 O 132.349 -2.79386 7.20852 0
M  V30 23210 C 133.289 -1.7299 7.50419 0
M  V30 23211 C 132.559 -0.41401 7.5797 0
M  V30 23212 O 132.349 0.089787 6.22035 0
M  V30 23213 C 131.159 -0.447224 8.1878 0
M  V30 23214 O 130.769 0.825159 8.71201 0
M  V30 23215 C 130.279 -0.783801 6.99623 0
M  V30 23216 C 130.989 -0.0619192 5.85967 0
M  V30 23217 N 130.939 -0.7859 4.56281 0
M  V30 23218 C 130.789 -0.0359258 3.39981 0
M  V30 23219 O 130.699 1.19723 3.49038 0
M  V30 23220 N 130.739 -0.869151 2.14025 0
M  V30 23221 C 130.839 -2.01207 2.14363 0
M  V30 23222 N 130.789 -2.58978 0.954287 0
M  V30 23223 C 130.989 -2.80817 3.32215 0
M  V30 23224 C 131.039 -2.13785 4.50884 0
M  V30 23225 H 133.779 -1.93401 8.46693 0
M  V30 23226 H 134.049 -1.68181 6.71046 0
M  V30 23227 H 133.182 0.289076 8.15488 0
M  V30 23228 H 130.527 0.927166 5.72947 0
M  V30 23229 H 130.247 -1.87 6.82132 0
M  V30 23230 H 129.256 -0.404009 7.13457 0
M  V30 23231 H 131.09 -1.20599 8.97534 0
M  V30 23232 H 131.162 -2.70295 5.43162 0
M  V30 23233 H 131.06 -3.89465 3.27406 0
M  V30 23234 H 130.672 -2.01616 0.107046 0
M  V30 23235 H 130.868 -3.61403 0.873101 0
M  V30 23236 P 129.219 1.17771 8.83182 0
M  V30 23237 O 128.999 2.07206 9.98732 0
M  V30 23238 O 128.429 -0.0743816 8.81969 0
M  V30 23239 O 128.969 1.97652 7.47304 0
M  V30 23240 C 129.909 3.01133 7.08783 0
M  V30 23241 C 129.179 4.12613 6.37049 0
M  V30 23242 O 128.969 3.72827 4.97879 0
M  V30 23243 C 127.779 4.45085 6.88694 0
M  V30 23244 O 127.389 5.7877 6.5624 0
M  V30 23245 C 126.899 3.47817 6.12078 0
M  V30 23246 C 127.609 3.39414 4.77697 0
M  V30 23247 N 127.559 2.04199 4.15538 0
M  V30 23248 H 130.398 3.41248 7.98759 0
M  V30 23249 H 130.67 2.57728 6.42 0
M  V30 23250 H 129.802 5.02657 6.42673 0
M  V30 23251 H 127.147 4.11708 4.08956 0
M  V30 23252 H 126.867 2.49626 6.61679 0
M  V30 23253 H 125.876 3.8662 6.00862 0
M  V30 23254 H 127.71 4.29991 7.97006 0
M  V30 23255 P 125.839 6.144 6.45285 0
M  V30 23256 O 125.619 7.54673 6.86199 0
M  V30 23257 O 125.049 5.12391 7.179 0
M  V30 23258 O 125.589 5.99236 4.88467 0
M  V30 23259 C 126.529 6.60234 3.96415 0
M  V30 23260 C 125.799 7.08079 2.736 0
M  V30 23261 O 125.589 5.94365 1.8368 0
M  V30 23262 C 124.399 7.64886 2.9555 0
M  V30 23263 O 124.009 8.5406 1.90739 0
M  V30 23264 C 123.519 6.4116 2.90739 0
M  V30 23265 C 124.229 5.55375 1.86963 0
M  V30 23266 N 124.179 4.09664 2.15742 0
M  V30 23267 C 124.029 3.22231 1.08477 0
M  V30 23268 O 123.939 3.68951 -0.0600489 0
M  V30 23269 N 123.979 1.76692 1.48799 0
M  V30 23270 C 124.079 1.41695 2.57602 0
M  V30 23271 N 124.029 0.107296 2.75791 0
M  V30 23272 C 124.229 2.29178 3.69733 0
M  V30 23273 C 124.279 3.62753 3.42653 0
M  V30 23274 H 127.019 7.45488 4.45578 0
M  V30 23275 H 127.289 5.86232 3.67314 0
M  V30 23276 H 126.422 7.84508 2.24507 0
M  V30 23277 H 123.767 5.73556 0.888715 0
M  V30 23278 H 123.487 5.9096 3.88638 0
M  V30 23279 H 122.496 6.66053 2.58894 0
M  V30 23280 H 124.33 8.16339 3.92049 0
M  V30 23281 H 124.402 4.33052 4.24913 0
M  V30 23282 H 124.3 1.9103 4.71577 0
M  V30 23283 H 123.912 -0.521221 1.95056 0
M  V30 23284 H 124.108 -0.286429 3.70695 0
M  V30 23285 P 122.459 8.7635 1.60911 0
M  V30 23286 O 122.239 10.1388 1.11561 0
M  V30 23287 O 121.669 8.36503 2.79617 0
M  V30 23288 O 122.209 7.71806 0.42951 0
M  V30 23289 C 123.149 7.67148 -0.673689 0
M  V30 23290 C 122.419 7.33374 -1.95559 0
M  V30 23291 O 122.209 5.88721 -2.00726 0
M  V30 23292 C 121.019 7.92526 -2.10483 0
M  V30 23293 O 120.629 8.02971 -3.47653 0
M  V30 23294 C 120.139 6.89602 -1.41652 0
M  V30 23295 C 120.849 5.59201 -1.75185 0
M  V30 23296 N 120.799 4.58301 -0.657969 0
M  V30 23297 H 123.638 8.65116 -0.777161 0
M  V30 23298 H 123.91 6.9022 -0.46725 0
M  V30 23299 H 123.042 7.66548 -2.79458 0
M  V30 23300 H 120.387 5.16165 -2.65183 0
M  V30 23301 H 120.107 7.06433 -0.329384 0
M  V30 23302 H 119.116 6.90926 -1.82021 0
M  V30 23303 H 120.95 8.90873 -1.62657 0
M  V30 23304 P 119.079 8.03563 -3.84925 0
M  V30 23305 O 118.859 8.85821 -5.0569 0
M  V30 23306 O 118.289 8.41101 -2.65469 0
M  V30 23307 O 118.829 6.4965 -4.18908 0
M  V30 23308 C 119.769 5.81037 -5.05421 0
M  V30 23309 C 119.039 4.78366 -5.89277 0
M  V30 23310 O 118.829 3.58302 -5.08433 0
M  V30 23311 C 117.639 5.17448 -6.36119 0
M  V30 23312 O 117.249 4.45271 -7.53232 0
M  V30 23313 C 116.759 4.74639 -5.19936 0
M  V30 23314 C 117.469 3.49432 -4.70418 0
M  V30 23315 N 117.419 3.31776 -3.22945 0
M  V30 23316 H 120.258 6.54213 -5.71376 0
M  V30 23317 H 120.53 5.30492 -4.44033 0
M  V30 23318 H 119.662 4.55889 -6.76652 0
M  V30 23319 P 115.699 4.23843 -7.83734 0
M  V30 23320 O 115.479 4.19407 -9.29784 0
M  V30 23321 O 114.909 5.24426 -7.09156 0
M  V30 23322 O 115.449 2.7935 -7.20758 0
M  V30 23323 C 116.389 1.7299 -7.50419 0
M  V30 23324 C 115.659 0.406376 -7.57911 0
M  V30 23325 O 115.449 -0.0897726 -6.21935 0
M  V30 23326 C 114.259 0.447224 -8.1878 0
M  V30 23327 O 113.869 -0.825065 -8.71101 0
M  V30 23328 C 113.379 0.783801 -6.99623 0
M  V30 23329 C 114.089 0.0619192 -5.85967 0
M  V30 23330 N 114.039 0.790462 -4.56202 0
M  V30 23331 C 114.119 2.13895 -4.34171 0
M  V30 23332 N 114.049 2.46449 -3.08687 0
M  V30 23333 C 113.899 1.2525 -2.43697 0
M  V30 23334 C 113.769 0.914535 -1.07318 0
M  V30 23335 N 113.759 1.80782 -0.0887348 0
M  V30 23336 N 113.649 -0.386745 -0.768133 0
M  V30 23337 C 113.659 -1.28096 -1.75159 0
M  V30 23338 N 113.779 -1.09708 -3.04861 0
M  V30 23339 C 113.899 0.214857 -3.32306 0
M  V30 23340 H 116.878 1.93423 -8.4679 0
M  V30 23341 H 117.15 1.68852 -6.70877 0
M  V30 23342 H 116.282 -0.289041 -8.15388 0
M  V30 23343 H 113.627 -0.927006 -5.72848 0
M  V30 23344 H 113.347 1.86973 -6.82036 0
M  V30 23345 H 112.356 0.403953 -7.13357 0
M  V30 23346 H 114.19 1.20599 -8.97534 0
M  V30 23347 H 114.231 2.86846 -5.14318 0
M  V30 23348 H 113.85 2.81082 -0.302037 0
M  V30 23349 H 113.661 1.49688 0.889064 0
M  V30 23350 H 113.553 -2.31317 -1.43855 0
M  V30 23351 P 112.319 -1.17771 -8.83182 0
M  V30 23352 O 112.099 -2.07206 -9.98732 0
M  V30 23353 O 111.529 0.0743816 -8.81969 0
M  V30 23354 O 112.069 -1.97652 -7.47304 0
M  V30 23355 C 113.009 -3.01055 -7.08599 0
M  V30 23356 C 112.279 -4.12613 -6.37049 0
M  V30 23357 O 112.069 -3.72827 -4.97879 0
M  V30 23358 C 110.879 -4.45719 -6.88164 0
M  V30 23359 O 110.489 -5.7877 -6.5624 0
M  V30 23360 C 109.999 -3.47768 -6.11991 0
M  V30 23361 C 110.709 -3.39356 -4.77615 0
M  V30 23362 N 110.659 -2.04571 -4.15244 0
M  V30 23363 C 110.509 -1.98587 -2.78314 0
M  V30 23364 O 110.419 -2.98134 -2.08835 0
M  V30 23365 N 110.469 -0.714467 -2.24925 0
M  V30 23366 C 110.559 0.470001 -2.94169 0
M  V30 23367 C 110.709 0.312541 -4.36783 0
M  V30 23368 C 110.759 -0.914512 -4.92583 0
M  V30 23369 H 113.5 -3.41169 -7.98575 0
M  V30 23370 H 113.769 -2.58295 -6.41556 0
M  V30 23371 H 112.902 -5.02657 -6.42673 0
M  V30 23372 H 110.247 -4.11637 -4.08885 0
M  V30 23373 H 109.968 -2.49626 -6.61679 0
M  V30 23374 H 108.976 -3.86566 -6.00778 0
M  V30 23375 H 110.81 -4.29943 -7.96918 0
M  V30 23376 H 110.881 -1.00937 -6.00374 0
M  V30 23377 P 108.939 -6.144 -6.45285 0
M  V30 23378 O 108.719 -7.54673 -6.86199 0
M  V30 23379 O 108.149 -5.12391 -7.179 0
M  V30 23380 O 108.689 -5.99158 -4.88404 0
M  V30 23381 C 109.629 -6.60062 -3.96313 0
M  V30 23382 C 108.899 -7.08259 -2.72856 0
M  V30 23383 O 108.689 -5.9427 -1.83651 0
M  V30 23384 C 107.499 -7.65087 -2.94749 0
M  V30 23385 O 107.109 -8.53963 -1.90717 0
M  V30 23386 C 106.619 -6.41069 -2.90698 0
M  V30 23387 C 107.329 -5.5528 -1.86931 0
M  V30 23388 N 107.279 -4.09575 -2.15696 0
M  V30 23389 C 107.129 -3.24249 -1.08435 0
M  V30 23390 O 107.039 -3.63946 0.0628747 0
M  V30 23391 N 107.089 -1.90009 -1.39973 0
M  V30 23392 C 107.179 -1.34884 -2.65614 0
M  V30 23393 C 107.329 -2.3145 -3.71736 0
M  V30 23394 C 107.379 -3.63518 -3.44754 0
M  V30 23395 H 110.12 -7.45402 -4.45526 0
M  V30 23396 H 110.389 -5.86062 -3.67208 0
M  V30 23397 H 109.522 -7.84412 -2.24479 0
M  V30 23398 H 106.867 -5.73358 -0.888409 0
M  V30 23399 H 106.588 -5.90877 -3.88583 0
M  V30 23400 H 105.596 -6.65867 -2.58821 0
M  V30 23401 H 107.43 -8.16248 -3.92006 0
M  V30 23402 H 107.501 -4.34551 -4.26383 0
M  V30 23403 P 105.559 -8.7635 -1.60911 0
M  V30 23404 O 105.339 -10.1388 -1.11561 0
M  V30 23405 O 104.769 -8.36503 -2.79617 0
M  V30 23406 O 105.309 -7.71806 -0.42951 0
M  V30 23407 C 106.249 -7.67148 0.673689 0
M  V30 23408 C 105.519 -7.33374 1.95559 0
M  V30 23409 O 105.309 -5.88721 2.00726 0
M  V30 23410 C 104.119 -7.92526 2.10483 0
M  V30 23411 O 103.729 -8.02971 3.47653 0
M  V30 23412 C 103.239 -6.89602 1.41652 0
M  V30 23413 C 103.949 -5.59201 1.75185 0
M  V30 23414 N 103.899 -4.58301 0.657969 0
M  V30 23415 H 106.738 -8.65116 0.777161 0
M  V30 23416 H 107.01 -6.9022 0.46725 0
M  V30 23417 H 106.142 -7.66548 2.79458 0
M  V30 23418 H 103.487 -5.16165 2.65183 0
M  V30 23419 H 103.207 -7.06433 0.329384 0
M  V30 23420 H 102.216 -6.90926 1.82021 0
M  V30 23421 H 104.05 -8.90873 1.62657 0
M  V30 23422 P 102.179 -8.03563 3.84925 0
M  V30 23423 O 101.959 -8.85821 5.0569 0
M  V30 23424 O 101.389 -8.41101 2.65469 0
M  V30 23425 O 101.929 -6.49734 4.18962 0
M  V30 23426 C 102.869 -5.81037 5.05421 0
M  V30 23427 C 102.139 -4.79018 5.88876 0
M  V30 23428 O 101.929 -3.58359 5.08515 0
M  V30 23429 C 100.739 -5.17448 6.36119 0
M  V30 23430 O 100.349 -4.45322 7.53318 0
M  V30 23431 C 99.8594 -4.74639 5.19936 0
M  V30 23432 C 100.569 -3.49432 4.70418 0
M  V30 23433 N 100.519 -3.31776 3.22945 0
M  V30 23434 C 100.369 -2.02742 2.72939 0
M  V30 23435 O 100.279 -1.08301 3.52749 0
M  V30 23436 N 100.319 -1.96117 1.22063 0
M  V30 23437 C 100.419 -2.8878 0.551566 0
M  V30 23438 N 100.369 -2.65609 -0.750198 0
M  V30 23439 C 100.569 -4.22457 1.03707 0
M  V30 23440 C 100.619 -4.37979 2.39113 0
M  V30 23441 H 103.359 -6.54138 5.7131 0
M  V30 23442 H 103.629 -5.30492 4.44033 0
M  V30 23443 H 102.762 -4.55945 6.76735 0
M  V30 23444 H 100.107 -2.6176 5.18021 0
M  V30 23445 H 99.8274 -5.52233 4.41941 0
M  V30 23446 H 98.8364 -4.52045 5.53452 0
M  V30 23447 H 100.67 -6.25124 6.55234 0
M  V30 23448 H 100.742 -5.37936 2.80552 0
M  V30 23449 H 100.64 -5.07528 0.359553 0
M  V30 23450 H 100.252 -1.69403 -1.09847 0
M  V30 23451 H 100.448 -3.43701 -1.41792 0
M  V30 23452 P 98.7994 -4.23843 7.83734 0
M  V30 23453 O 98.5794 -4.19407 9.29784 0
M  V30 23454 O 98.0094 -5.24426 7.09156 0
M  V30 23455 O 98.5494 -2.7935 7.20758 0
M  V30 23456 C 99.4894 -1.7299 7.50419 0
M  V30 23457 C 98.7594 -0.406376 7.57911 0
M  V30 23458 O 98.5494 0.0897726 6.21935 0
M  V30 23459 C 97.3594 -0.447224 8.1878 0
M  V30 23460 O 96.9694 0.825065 8.71101 0
M  V30 23461 C 96.4794 -0.783801 6.99623 0
M  V30 23462 C 97.1894 -0.0619192 5.85967 0
M  V30 23463 N 97.1394 -0.7859 4.56281 0
M  V30 23464 H 99.9784 -1.93423 8.4679 0
M  V30 23465 H 100.25 -1.68181 6.71046 0
M  V30 23466 H 99.3824 0.289041 8.15388 0
M  V30 23467 P 95.4195 1.17771 8.83182 0
M  V30 23468 O 95.1995 2.07206 9.98732 0
M  V30 23469 O 94.6295 -0.0743816 8.81969 0
M  V30 23470 O 95.1695 1.97652 7.47304 0
M  V30 23471 C 96.1095 3.01133 7.08783 0
M  V30 23472 C 95.3795 4.12613 6.37049 0
M  V30 23473 O 95.1695 3.72827 4.97879 0
M  V30 23474 C 93.9795 4.45085 6.88694 0
M  V30 23475 O 93.5895 5.7877 6.5624 0
M  V30 23476 C 93.0995 3.47817 6.12078 0
M  V30 23477 C 93.8095 3.39414 4.77697 0
M  V30 23478 N 93.7595 2.04615 4.15333 0
M  V30 23479 H 96.5985 3.41248 7.98759 0
M  V30 23480 H 96.8705 2.5837 6.41742 0
M  V30 23481 H 96.0025 5.02657 6.42673 0
M  V30 23482 P 92.0395 6.144 6.45285 0
M  V30 23483 O 91.8195 7.54673 6.86199 0
M  V30 23484 O 91.2495 5.12391 7.179 0
M  V30 23485 O 91.7895 5.99236 4.88467 0
M  V30 23486 C 92.7295 6.60234 3.96415 0
M  V30 23487 C 91.9995 7.08079 2.736 0
M  V30 23488 O 91.7895 5.94365 1.8368 0
M  V30 23489 C 90.5995 7.64886 2.9555 0
M  V30 23490 O 90.2095 8.5406 1.90739 0
M  V30 23491 C 89.7195 6.4116 2.90739 0
M  V30 23492 C 90.4295 5.55375 1.86963 0
M  V30 23493 N 90.3795 4.09664 2.15742 0
M  V30 23494 C 90.2295 3.22231 1.08477 0
M  V30 23495 O 90.1395 3.68951 -0.0600489 0
M  V30 23496 N 90.1795 1.76692 1.48799 0
M  V30 23497 C 90.2795 1.41695 2.57602 0
M  V30 23498 N 90.2295 0.107296 2.75791 0
M  V30 23499 C 90.4295 2.29178 3.69733 0
M  V30 23500 C 90.4795 3.62753 3.42653 0
M  V30 23501 H 93.2195 7.45488 4.45578 0
M  V30 23502 H 93.4895 5.86232 3.67314 0
M  V30 23503 H 92.6225 7.84508 2.24507 0
M  V30 23504 H 89.9675 5.73556 0.888715 0
M  V30 23505 H 89.6875 5.9096 3.88638 0
M  V30 23506 H 88.6965 6.66053 2.58894 0
M  V30 23507 H 90.5305 8.16339 3.92049 0
M  V30 23508 H 90.6025 4.33052 4.24913 0
M  V30 23509 H 90.5005 1.9103 4.71577 0
M  V30 23510 H 90.1125 -0.521221 1.95056 0
M  V30 23511 H 90.3085 -0.286429 3.70695 0
M  V30 23512 P 88.6595 8.7635 1.60911 0
M  V30 23513 O 88.4395 10.1388 1.11561 0
M  V30 23514 O 87.8695 8.36503 2.79617 0
M  V30 23515 O 88.4095 7.71806 0.42951 0
M  V30 23516 C 89.3495 7.66948 -0.673514 0
M  V30 23517 C 88.6195 7.33374 -1.95559 0
M  V30 23518 O 88.4095 5.88721 -2.00726 0
M  V30 23519 C 87.2195 7.92218 -2.1125 0
M  V30 23520 O 86.8295 8.02971 -3.47653 0
M  V30 23521 C 86.3395 6.89504 -1.41631 0
M  V30 23522 C 87.0495 5.59106 -1.75155 0
M  V30 23523 N 86.9995 4.58136 -0.662409 0
M  V30 23524 C 86.8495 3.26059 -1.02863 0
M  V30 23525 O 86.7595 2.90743 -2.19009 0
M  V30 23526 N 86.8095 2.35995 0.0155585 0
M  V30 23527 C 86.8995 2.65248 1.35603 0
M  V30 23528 C 87.0495 4.05747 1.64698 0
M  V30 23529 C 87.0995 4.96734 0.652411 0
M  V30 23530 H 89.8405 8.64917 -0.776982 0
M  V30 23531 H 90.1095 6.89974 -0.474015 0
M  V30 23532 H 89.2425 7.66548 -2.79458 0
M  V30 23533 H 86.5875 5.16076 -2.65138 0
M  V30 23534 H 86.3085 7.06433 -0.329384 0
M  V30 23535 H 85.3165 6.90829 -1.81996 0
M  V30 23536 H 87.1505 8.90774 -1.62639 0
M  V30 23537 H 87.2215 6.02181 0.895285 0
M  V30 23538 P 85.2795 8.03563 -3.84925 0
M  V30 23539 O 85.0595 8.85821 -5.0569 0
M  V30 23540 O 84.4895 8.41101 -2.65469 0
M  V30 23541 O 85.0295 6.4965 -4.18908 0
M  V30 23542 C 85.9695 5.81037 -5.05421 0
M  V30 23543 C 85.2395 4.78366 -5.89277 0
M  V30 23544 O 85.0295 3.58302 -5.08433 0
M  V30 23545 C 83.8395 5.17448 -6.36119 0
M  V30 23546 O 83.4495 4.45271 -7.53232 0
M  V30 23547 C 82.9595 4.74639 -5.19936 0
M  V30 23548 C 83.6695 3.49432 -4.70418 0
M  V30 23549 N 83.6195 3.32099 -3.22613 0
M  V30 23550 H 86.4585 6.54213 -5.71376 0
M  V30 23551 H 86.7305 5.30936 -4.43503 0
M  V30 23552 H 85.8625 4.55889 -6.76652 0
M  V30 23553 H 83.2075 2.61715 -5.17932 0
M  V30 23554 H 82.9275 5.52155 -4.41878 0
M  V30 23555 H 81.9365 4.51981 -5.53374 0
M  V30 23556 H 83.7705 6.25124 -6.55234 0
M  V30 23557 P 81.8995 4.23843 -7.83734 0
M  V30 23558 O 81.6795 4.19407 -9.29784 0
M  V30 23559 O 81.1095 5.24426 -7.09156 0
M  V30 23560 O 81.6495 2.7935 -7.20758 0
M  V30 23561 C 82.5895 1.72945 -7.50224 0
M  V30 23562 C 81.8595 0.406376 -7.57911 0
M  V30 23563 O 81.6495 -0.0897726 -6.21935 0
M  V30 23564 C 80.4595 0.438983 -8.18724 0
M  V30 23565 O 80.0695 -0.825065 -8.71101 0
M  V30 23566 C 79.5795 0.783689 -6.99524 0
M  V30 23567 C 80.2895 0.0619086 -5.85867 0
M  V30 23568 N 80.2395 0.78573 -4.56183 0
M  V30 23569 C 80.0895 0.0292889 -3.41887 0
M  V30 23570 O 79.9995 -1.18445 -3.4419 0
M  V30 23571 N 80.0495 0.744061 -2.23964 0
M  V30 23572 C 80.1395 2.10932 -2.10362 0
M  V30 23573 O 80.0895 2.64117 -0.98825 0
M  V30 23574 C 80.2895 2.8202 -3.34994 0
M  V30 23575 C 80.3995 4.31095 -3.25037 0
M  V30 23576 C 80.3395 2.15547 -4.52261 0
M  V30 23577 H 83.0805 1.93379 -8.46595 0
M  V30 23578 H 83.3495 1.68132 -6.70852 0
M  V30 23579 H 82.4825 -0.289041 -8.15388 0
M  V30 23580 H 79.8275 -0.926847 -5.72749 0
M  V30 23581 H 79.5485 1.86973 -6.82036 0
M  V30 23582 H 78.5565 0.403896 -7.13257 0
M  V30 23583 H 80.3905 1.20585 -8.97435 0
M  V30 23584 H 80.4615 2.71231 -5.45042 0
M  V30 23585 H 79.4315 4.76966 -3.49992 0
M  V30 23586 H 81.1685 4.67047 -3.95024 0
M  V30 23587 H 80.6805 4.58996 -2.22312 0
M  V30 23588 H 79.9445 0.214893 -1.39758 0
M  V30 23589 P 78.5196 -1.17771 -8.83182 0
M  V30 23590 O 78.2996 -2.07206 -9.98732 0
M  V30 23591 O 77.7296 0.0743816 -8.81969 0
M  V30 23592 O 78.2696 -1.97652 -7.47304 0
M  V30 23593 C 79.2096 -3.01133 -7.08783 0
M  V30 23594 C 78.4796 -4.12613 -6.37049 0
M  V30 23595 O 78.2696 -3.72827 -4.97879 0
M  V30 23596 C 77.0796 -4.45085 -6.88694 0
M  V30 23597 O 76.6896 -5.7877 -6.5624 0
M  V30 23598 C 76.1996 -3.47817 -6.12078 0
M  V30 23599 C 76.9096 -3.39414 -4.77697 0
M  V30 23600 N 76.8596 -2.04615 -4.15333 0
M  V30 23601 H 79.6986 -3.41248 -7.98759 0
M  V30 23602 H 79.9706 -2.5837 -6.41742 0
M  V30 23603 H 79.1026 -5.02657 -6.42673 0
M  V30 23604 P 75.1396 -6.144 -6.45285 0
M  V30 23605 O 74.9196 -7.54673 -6.86199 0
M  V30 23606 O 74.3496 -5.12391 -7.179 0
M  V30 23607 O 74.8896 -5.99158 -4.88404 0
M  V30 23608 C 75.8296 -6.60062 -3.96313 0
M  V30 23609 C 75.0996 -7.08259 -2.72856 0
M  V30 23610 O 74.8896 -5.9427 -1.83651 0
M  V30 23611 C 73.6996 -7.65087 -2.94749 0
M  V30 23612 O 73.3096 -8.53963 -1.90717 0
M  V30 23613 C 72.8196 -6.41069 -2.90698 0
M  V30 23614 C 73.5296 -5.5528 -1.86931 0
M  V30 23615 N 73.4796 -4.09575 -2.15696 0
M  V30 23616 C 73.3296 -3.24249 -1.08435 0
M  V30 23617 O 73.2396 -3.63946 0.0628747 0
M  V30 23618 N 73.2896 -1.90009 -1.39973 0
M  V30 23619 C 73.3796 -1.34884 -2.65614 0
M  V30 23620 C 73.5296 -2.3145 -3.71736 0
M  V30 23621 C 73.5796 -3.63518 -3.44754 0
M  V30 23622 H 76.3206 -7.45402 -4.45526 0
M  V30 23623 H 76.5896 -5.86062 -3.67208 0
M  V30 23624 H 75.7226 -7.84412 -2.24479 0
M  V30 23625 H 73.0676 -5.73358 -0.888409 0
M  V30 23626 H 72.7886 -5.90877 -3.88583 0
M  V30 23627 H 71.7966 -6.65867 -2.58821 0
M  V30 23628 H 73.6306 -8.16248 -3.92006 0
M  V30 23629 H 73.7016 -4.34551 -4.26383 0
M  V30 23630 P 71.7596 -8.7635 -1.60911 0
M  V30 23631 O 71.5396 -10.1388 -1.11561 0
M  V30 23632 O 70.9696 -8.36503 -2.79617 0
M  V30 23633 O 71.5096 -7.71806 -0.42951 0
M  V30 23634 C 72.4496 -7.66948 0.673514 0
M  V30 23635 C 71.7196 -7.33374 1.95559 0
M  V30 23636 O 71.5096 -5.88721 2.00726 0
M  V30 23637 C 70.3196 -7.92218 2.1125 0
M  V30 23638 O 69.9296 -8.02971 3.47653 0
M  V30 23639 C 69.4396 -6.89504 1.41631 0
M  V30 23640 C 70.1496 -5.59106 1.75155 0
M  V30 23641 N 70.0996 -4.58136 0.662409 0
M  V30 23642 C 69.9496 -3.26059 1.02863 0
M  V30 23643 O 69.8596 -2.90743 2.19009 0
M  V30 23644 N 69.9096 -2.35995 -0.0155585 0
M  V30 23645 C 69.9996 -2.65248 -1.35603 0
M  V30 23646 C 70.1496 -4.05747 -1.64698 0
M  V30 23647 C 70.1996 -4.96734 -0.652411 0
M  V30 23648 H 72.9406 -8.64917 0.776982 0
M  V30 23649 H 73.2096 -6.89974 0.474015 0
M  V30 23650 H 72.3426 -7.66548 2.79458 0
M  V30 23651 H 69.6876 -5.16076 2.65138 0
M  V30 23652 H 69.4086 -7.06433 0.329384 0
M  V30 23653 H 68.4166 -6.90829 1.81996 0
M  V30 23654 H 70.2506 -8.90774 1.62639 0
M  V30 23655 H 70.3216 -6.02181 -0.895285 0
M  V30 23656 P 68.3796 -8.03563 3.84925 0
M  V30 23657 O 68.1596 -8.85821 5.0569 0
M  V30 23658 O 67.5896 -8.41101 2.65469 0
M  V30 23659 O 68.1296 -6.4965 4.18908 0
M  V30 23660 C 69.0696 -5.81037 5.05421 0
M  V30 23661 C 68.3396 -4.78366 5.89277 0
M  V30 23662 O 68.1296 -3.58302 5.08433 0
M  V30 23663 C 66.9396 -5.17448 6.36119 0
M  V30 23664 O 66.5496 -4.45271 7.53232 0
M  V30 23665 C 66.0596 -4.74639 5.19936 0
M  V30 23666 C 66.7696 -3.49432 4.70418 0
M  V30 23667 N 66.7196 -3.31776 3.22945 0
M  V30 23668 H 69.5586 -6.54213 5.71376 0
M  V30 23669 H 69.8306 -5.30492 4.44033 0
M  V30 23670 H 68.9626 -4.55889 6.76652 0
M  V30 23671 P 64.9996 -4.23843 7.83734 0
M  V30 23672 O 64.7796 -4.19407 9.29784 0
M  V30 23673 O 64.2096 -5.24426 7.09156 0
M  V30 23674 O 64.7496 -2.7935 7.20758 0
M  V30 23675 C 65.6896 -1.7299 7.50419 0
M  V30 23676 C 64.9596 -0.406376 7.57911 0
M  V30 23677 O 64.7496 0.0897726 6.21935 0
M  V30 23678 C 63.5596 -0.447224 8.1878 0
M  V30 23679 O 63.1696 0.825065 8.71101 0
M  V30 23680 C 62.6796 -0.783801 6.99623 0
M  V30 23681 C 63.3896 -0.0619192 5.85967 0
M  V30 23682 N 63.3396 -0.7859 4.56281 0
M  V30 23683 H 66.1786 -1.93423 8.4679 0
M  V30 23684 H 66.4506 -1.68181 6.71046 0
M  V30 23685 H 65.5826 0.289041 8.15388 0
M  V30 23686 P 61.6197 1.17771 8.83182 0
M  V30 23687 O 61.3997 2.07206 9.98732 0
M  V30 23688 O 60.8297 -0.0743816 8.81969 0
M  V30 23689 O 61.3697 1.97652 7.47304 0
M  V30 23690 C 62.3097 3.01133 7.08783 0
M  V30 23691 C 61.5797 4.12613 6.37049 0
M  V30 23692 O 61.3697 3.72827 4.97879 0
M  V30 23693 C 60.1797 4.45085 6.88694 0
M  V30 23694 O 59.7897 5.7877 6.5624 0
M  V30 23695 C 59.2997 3.47817 6.12078 0
M  V30 23696 C 60.0097 3.39414 4.77697 0
M  V30 23697 N 59.9597 2.04615 4.15333 0
M  V30 23698 H 62.7987 3.41248 7.98759 0
M  V30 23699 H 63.0707 2.5837 6.41742 0
M  V30 23700 H 62.2027 5.02657 6.42673 0
M  V30 23701 P 58.2397 6.144 6.45285 0
M  V30 23702 O 58.0197 7.54673 6.86199 0
M  V30 23703 O 57.4497 5.12391 7.179 0
M  V30 23704 O 57.9897 5.99236 4.88467 0
M  V30 23705 C 58.9297 6.60234 3.96415 0
M  V30 23706 C 58.1997 7.08079 2.736 0
M  V30 23707 O 57.9897 5.94365 1.8368 0
M  V30 23708 C 56.7997 7.64886 2.9555 0
M  V30 23709 O 56.4097 8.5406 1.90739 0
M  V30 23710 C 55.9197 6.4116 2.90739 0
M  V30 23711 C 56.6297 5.55375 1.86963 0
M  V30 23712 N 56.5797 4.09664 2.15742 0
M  V30 23713 C 56.4297 3.22231 1.08477 0
M  V30 23714 O 56.3397 3.68951 -0.0600489 0
M  V30 23715 N 56.3797 1.76692 1.48799 0
M  V30 23716 C 56.4797 1.41695 2.57602 0
M  V30 23717 N 56.4297 0.107296 2.75791 0
M  V30 23718 C 56.6297 2.29178 3.69733 0
M  V30 23719 C 56.6797 3.62753 3.42653 0
M  V30 23720 H 59.4197 7.45488 4.45578 0
M  V30 23721 H 59.6897 5.86232 3.67314 0
M  V30 23722 H 58.8227 7.84508 2.24507 0
M  V30 23723 H 56.1677 5.73556 0.888715 0
M  V30 23724 H 55.8877 5.9096 3.88638 0
M  V30 23725 H 54.8967 6.66053 2.58894 0
M  V30 23726 H 56.7307 8.16339 3.92049 0
M  V30 23727 H 56.8027 4.33052 4.24913 0
M  V30 23728 H 56.7007 1.9103 4.71577 0
M  V30 23729 H 56.3127 -0.521221 1.95056 0
M  V30 23730 H 56.5087 -0.286429 3.70695 0
M  V30 23731 P 54.8597 8.7635 1.60911 0
M  V30 23732 O 54.6397 10.1388 1.11561 0
M  V30 23733 O 54.0697 8.36503 2.79617 0
M  V30 23734 O 54.6097 7.71806 0.42951 0
M  V30 23735 C 55.5497 7.67148 -0.673689 0
M  V30 23736 C 54.8197 7.33374 -1.95559 0
M  V30 23737 O 54.6097 5.88721 -2.00726 0
M  V30 23738 C 53.4197 7.92526 -2.10483 0
M  V30 23739 O 53.0297 8.02971 -3.47653 0
M  V30 23740 C 52.5397 6.89602 -1.41652 0
M  V30 23741 C 53.2497 5.59201 -1.75185 0
M  V30 23742 N 53.1997 4.58235 -0.662552 0
M  V30 23743 H 56.0387 8.65116 -0.777161 0
M  V30 23744 H 56.3107 6.90173 -0.474152 0
M  V30 23745 H 55.4427 7.66548 -2.79458 0
M  V30 23746 P 51.4797 8.03563 -3.84925 0
M  V30 23747 O 51.2597 8.85821 -5.0569 0
M  V30 23748 O 50.6897 8.41101 -2.65469 0
M  V30 23749 O 51.2297 6.4965 -4.18908 0
M  V30 23750 C 52.1697 5.81037 -5.05421 0
M  V30 23751 C 51.4397 4.78366 -5.89277 0
M  V30 23752 O 51.2297 3.58302 -5.08433 0
M  V30 23753 C 50.0397 5.17448 -6.36119 0
M  V30 23754 O 49.6497 4.45271 -7.53232 0
M  V30 23755 C 49.1597 4.74639 -5.19936 0
M  V30 23756 C 49.8697 3.49432 -4.70418 0
M  V30 23757 N 49.8197 3.31776 -3.22945 0
M  V30 23758 H 52.6587 6.54213 -5.71376 0
M  V30 23759 H 52.9307 5.30492 -4.44033 0
M  V30 23760 H 52.0627 4.55889 -6.76652 0
M  V30 23761 P 48.0997 4.23843 -7.83734 0
M  V30 23762 O 47.8797 4.19407 -9.29784 0
M  V30 23763 O 47.3097 5.24426 -7.09156 0
M  V30 23764 O 47.8497 2.7935 -7.20758 0
M  V30 23765 C 48.7897 1.7299 -7.50419 0
M  V30 23766 C 48.0597 0.406376 -7.57911 0
M  V30 23767 O 47.8497 -0.0897726 -6.21935 0
M  V30 23768 C 46.6597 0.447224 -8.1878 0
M  V30 23769 O 46.2697 -0.825065 -8.71101 0
M  V30 23770 C 45.7797 0.783801 -6.99623 0
M  V30 23771 C 46.4897 0.0619192 -5.85967 0
M  V30 23772 N 46.4397 0.790462 -4.56202 0
M  V30 23773 C 46.5197 2.13895 -4.34171 0
M  V30 23774 N 46.4497 2.46449 -3.08687 0
M  V30 23775 C 46.2997 1.2525 -2.43697 0
M  V30 23776 C 46.1697 0.914535 -1.07318 0
M  V30 23777 N 46.1597 1.80782 -0.0887348 0
M  V30 23778 N 46.0497 -0.386745 -0.768133 0
M  V30 23779 C 46.0597 -1.28096 -1.75159 0
M  V30 23780 N 46.1797 -1.09708 -3.04861 0
M  V30 23781 C 46.2997 0.214857 -3.32306 0
M  V30 23782 H 49.2787 1.93423 -8.4679 0
M  V30 23783 H 49.5507 1.68852 -6.70877 0
M  V30 23784 H 48.6827 -0.289041 -8.15388 0
M  V30 23785 H 46.0277 -0.927006 -5.72848 0
M  V30 23786 H 45.7477 1.86973 -6.82036 0
M  V30 23787 H 44.7567 0.403953 -7.13357 0
M  V30 23788 H 46.5907 1.20599 -8.97534 0
M  V30 23789 H 46.6317 2.86846 -5.14318 0
M  V30 23790 H 46.2507 2.81082 -0.302037 0
M  V30 23791 H 46.0617 1.49688 0.889064 0
M  V30 23792 H 45.9537 -2.31317 -1.43855 0
M  V30 23793 P 44.7198 -1.17771 -8.83182 0
M  V30 23794 O 44.4998 -2.07206 -9.98732 0
M  V30 23795 O 43.9298 0.0743816 -8.81969 0
M  V30 23796 O 44.4698 -1.97652 -7.47304 0
M  V30 23797 C 45.4098 -3.01133 -7.08783 0
M  V30 23798 C 44.6798 -4.12613 -6.37049 0
M  V30 23799 O 44.4698 -3.72827 -4.97879 0
M  V30 23800 C 43.2798 -4.45085 -6.88694 0
M  V30 23801 O 42.8898 -5.7877 -6.5624 0
M  V30 23802 C 42.3998 -3.47817 -6.12078 0
M  V30 23803 C 43.1098 -3.39414 -4.77697 0
M  V30 23804 N 43.0598 -2.04615 -4.15333 0
M  V30 23805 H 45.8988 -3.41248 -7.98759 0
M  V30 23806 H 46.1708 -2.5837 -6.41742 0
M  V30 23807 H 45.3028 -5.02657 -6.42673 0
M  V30 23808 P 41.3398 -6.144 -6.45285 0
M  V30 23809 O 41.1198 -7.54673 -6.86199 0
M  V30 23810 O 40.5498 -5.12391 -7.179 0
M  V30 23811 O 41.0898 -5.99158 -4.88404 0
M  V30 23812 C 42.0298 -6.60062 -3.96313 0
M  V30 23813 C 41.2998 -7.08259 -2.72856 0
M  V30 23814 O 41.0898 -5.9427 -1.83651 0
M  V30 23815 C 39.8998 -7.65087 -2.94749 0
M  V30 23816 O 39.5098 -8.53963 -1.90717 0
M  V30 23817 C 39.0198 -6.41069 -2.90698 0
M  V30 23818 C 39.7298 -5.5528 -1.86931 0
M  V30 23819 N 39.6798 -4.09575 -2.15696 0
M  V30 23820 C 39.5298 -3.24249 -1.08435 0
M  V30 23821 O 39.4398 -3.63946 0.0628747 0
M  V30 23822 N 39.4898 -1.90009 -1.39973 0
M  V30 23823 C 39.5798 -1.34884 -2.65614 0
M  V30 23824 O 39.5298 -0.123716 -2.81728 0
M  V30 23825 C 39.7298 -2.3145 -3.71736 0
M  V30 23826 C 39.8398 -1.75913 -5.10438 0
M  V30 23827 C 39.7798 -3.63518 -3.44754 0
M  V30 23828 H 42.5208 -7.45402 -4.45526 0
M  V30 23829 H 42.7898 -5.86062 -3.67208 0
M  V30 23830 H 41.9228 -7.84412 -2.24479 0
M  V30 23831 H 39.2678 -5.73358 -0.888409 0
M  V30 23832 H 38.9888 -5.90877 -3.88583 0
M  V30 23833 H 37.9968 -6.65867 -2.58821 0
M  V30 23834 H 39.8308 -8.16248 -3.92006 0
M  V30 23835 H 39.9018 -4.34551 -4.26383 0
M  V30 23836 H 38.8718 -1.85471 -5.61775 0
M  V30 23837 H 40.6088 -2.31364 -5.66257 0
M  V30 23838 H 40.1208 -0.695936 -5.05229 0
M  V30 23839 H 39.3848 -1.26277 -0.63625 0
M  V30 23840 P 37.9598 -8.7635 -1.60911 0
M  V30 23841 O 37.7398 -10.1388 -1.11561 0
M  V30 23842 O 37.1698 -8.36503 -2.79617 0
M  V30 23843 O 37.7098 -7.71806 -0.42951 0
M  V30 23844 C 38.6498 -7.66948 0.673514 0
M  V30 23845 C 37.9198 -7.33374 1.95559 0
M  V30 23846 O 37.7098 -5.88721 2.00726 0
M  V30 23847 C 36.5198 -7.92218 2.1125 0
M  V30 23848 O 36.1298 -8.02971 3.47653 0
M  V30 23849 C 35.6398 -6.89504 1.41631 0
M  V30 23850 C 36.3498 -5.59106 1.75155 0
M  V30 23851 N 36.2998 -4.58136 0.662409 0
M  V30 23852 C 36.1498 -3.26059 1.02863 0
M  V30 23853 O 36.0598 -2.90743 2.19009 0
M  V30 23854 N 36.1098 -2.35995 -0.0155585 0
M  V30 23855 C 36.1998 -2.65248 -1.35603 0
M  V30 23856 O 36.1498 -1.75605 -2.20651 0
M  V30 23857 C 36.3498 -4.05747 -1.64698 0
M  V30 23858 C 36.4598 -4.42345 -3.09553 0
M  V30 23859 C 36.3998 -4.96734 -0.652411 0
M  V30 23860 H 39.1408 -8.64917 0.776982 0
M  V30 23861 H 39.4098 -6.89974 0.474015 0
M  V30 23862 H 38.5428 -7.66548 2.79458 0
M  V30 23863 H 35.8878 -5.16076 2.65138 0
M  V30 23864 H 35.6088 -7.06433 0.329384 0
M  V30 23865 H 34.6168 -6.90829 1.81996 0
M  V30 23866 H 36.4508 -8.90774 1.62639 0
M  V30 23867 H 36.5218 -6.02181 -0.895285 0
M  V30 23868 H 35.4918 -4.80252 -3.45468 0
M  V30 23869 H 37.2288 -5.20015 -3.22119 0
M  V30 23870 H 36.7408 -3.53269 -3.67833 0
M  V30 23871 H 36.0048 -1.39558 0.227499 0
M  V30 23872 P 34.5798 -8.03563 3.84925 0
M  V30 23873 O 34.3598 -8.85821 5.0569 0
M  V30 23874 O 33.7898 -8.41101 2.65469 0
M  V30 23875 O 34.3298 -6.4965 4.18908 0
M  V30 23876 C 35.2698 -5.80886 5.05289 0
M  V30 23877 C 34.5398 -4.78366 5.89277 0
M  V30 23878 O 34.3298 -3.58302 5.08433 0
M  V30 23879 C 33.1398 -5.16748 6.36559 0
M  V30 23880 O 32.7498 -4.45271 7.53232 0
M  V30 23881 C 32.2598 -4.74572 5.19863 0
M  V30 23882 C 32.9698 -3.49373 4.70338 0
M  V30 23883 N 32.9198 -3.31704 3.22876 0
M  V30 23884 C 32.7698 -2.03326 2.74871 0
M  V30 23885 O 32.6798 -1.06486 3.48076 0
M  V30 23886 N 32.7298 -1.91838 1.37456 0
M  V30 23887 C 32.8198 -2.94295 0.462035 0
M  V30 23888 C 32.9698 -4.25064 1.05249 0
M  V30 23889 C 33.0198 -4.40214 2.39192 0
M  V30 23890 H 35.7608 -6.54063 5.71245 0
M  V30 23891 H 36.0298 -5.30339 4.43905 0
M  V30 23892 H 35.1628 -4.55889 6.76652 0
M  V30 23893 H 32.5078 -2.6167 5.17842 0
M  V30 23894 H 32.2288 -5.52155 4.41878 0
M  V30 23895 H 31.2368 -4.51918 5.53297 0
M  V30 23896 H 33.0708 -6.25055 6.55162 0
M  V30 23897 H 33.1418 -5.39798 2.81523 0
M  V30 23898 P 31.1998 -4.23843 7.83734 0
M  V30 23899 O 30.9798 -4.19407 9.29784 0
M  V30 23900 O 30.4098 -5.24426 7.09156 0
M  V30 23901 O 30.9498 -2.7935 7.20758 0
M  V30 23902 C 31.8898 -1.7299 7.50419 0
M  V30 23903 C 31.1598 -0.406376 7.57911 0
M  V30 23904 O 30.9498 0.0897726 6.21935 0
M  V30 23905 C 29.7598 -0.447224 8.1878 0
M  V30 23906 O 29.3698 0.825065 8.71101 0
M  V30 23907 C 28.8798 -0.783801 6.99623 0
M  V30 23908 C 29.5898 -0.0619192 5.85967 0
M  V30 23909 N 29.5398 -0.7859 4.56281 0
M  V30 23910 H 32.3788 -1.93423 8.4679 0
M  V30 23911 H 32.6508 -1.68181 6.71046 0
M  V30 23912 H 31.7828 0.289041 8.15388 0
M  V30 23913 P 27.8199 1.17771 8.83182 0
M  V30 23914 O 27.5999 2.07206 9.98732 0
M  V30 23915 O 27.0299 -0.0743816 8.81969 0
M  V30 23916 O 27.5699 1.97652 7.47304 0
M  V30 23917 C 28.5099 3.01055 7.08599 0
M  V30 23918 C 27.7799 4.12613 6.37049 0
M  V30 23919 O 27.5699 3.72827 4.97879 0
M  V30 23920 C 26.3799 4.45719 6.88164 0
M  V30 23921 O 25.9899 5.7877 6.5624 0
M  V30 23922 C 25.4999 3.47768 6.11991 0
M  V30 23923 C 26.2099 3.39356 4.77615 0
M  V30 23924 N 26.1599 2.04571 4.15244 0
M  V30 23925 C 26.0099 1.98587 2.78314 0
M  V30 23926 O 25.9199 2.98134 2.08835 0
M  V30 23927 N 25.9699 0.714467 2.24925 0
M  V30 23928 C 26.0599 -0.470001 2.94169 0
M  V30 23929 C 26.2099 -0.312541 4.36783 0
M  V30 23930 C 26.2599 0.914512 4.92583 0
M  V30 23931 H 29.0009 3.41169 7.98575 0
M  V30 23932 H 29.2699 2.58295 6.41556 0
M  V30 23933 H 28.4029 5.02657 6.42673 0
M  V30 23934 H 25.7479 4.11637 4.08885 0
M  V30 23935 H 25.4689 2.49626 6.61679 0
M  V30 23936 H 24.4769 3.86566 6.00778 0
M  V30 23937 H 26.3109 4.29943 7.96918 0
M  V30 23938 H 26.3819 1.00937 6.00374 0
M  V30 23939 P 24.4399 6.144 6.45285 0
M  V30 23940 O 24.2199 7.54673 6.86199 0
M  V30 23941 O 23.6499 5.12391 7.179 0
M  V30 23942 O 24.1899 5.99158 4.88404 0
M  V30 23943 C 25.1299 6.60234 3.96415 0
M  V30 23944 C 24.3999 7.08259 2.72856 0
M  V30 23945 O 24.1899 5.9427 1.83651 0
M  V30 23946 C 22.9999 7.64886 2.9555 0
M  V30 23947 O 22.6099 8.53963 1.90717 0
M  V30 23948 C 22.1199 6.4116 2.90739 0
M  V30 23949 C 22.8299 5.55375 1.86963 0
M  V30 23950 N 22.7799 4.09664 2.15742 0
M  V30 23951 H 25.6189 7.45574 4.45629 0
M  V30 23952 H 25.8909 5.86232 3.67314 0
M  V30 23953 H 25.0229 7.84412 2.24479 0
M  V30 23954 P 21.0599 8.7635 1.60911 0
M  V30 23955 O 20.8399 10.1388 1.11561 0
M  V30 23956 O 20.2699 8.36503 2.79617 0
M  V30 23957 O 20.8099 7.71806 0.42951 0
M  V30 23958 C 21.7499 7.67148 -0.673689 0
M  V30 23959 C 21.0199 7.33374 -1.95559 0
M  V30 23960 O 20.8099 5.88721 -2.00726 0
M  V30 23961 C 19.6199 7.92526 -2.10483 0
M  V30 23962 O 19.2299 8.02971 -3.47653 0
M  V30 23963 C 18.7399 6.89602 -1.41652 0
M  V30 23964 C 19.4499 5.59201 -1.75185 0
M  V30 23965 N 19.3999 4.58235 -0.662552 0
M  V30 23966 H 22.2389 8.65116 -0.777161 0
M  V30 23967 H 22.5109 6.90173 -0.474152 0
M  V30 23968 H 21.6429 7.66548 -2.79458 0
M  V30 23969 P 17.6799 8.03563 -3.84925 0
M  V30 23970 O 17.4599 8.85821 -5.0569 0
M  V30 23971 O 16.8899 8.41101 -2.65469 0
M  V30 23972 O 17.4299 6.4965 -4.18908 0
M  V30 23973 C 18.3699 5.80886 -5.05289 0
M  V30 23974 C 17.6399 4.78366 -5.89277 0
M  V30 23975 O 17.4299 3.58302 -5.08433 0
M  V30 23976 C 16.2399 5.16748 -6.36559 0
M  V30 23977 O 15.8499 4.45271 -7.53232 0
M  V30 23978 C 15.3599 4.74572 -5.19863 0
M  V30 23979 C 16.0699 3.49373 -4.70338 0
M  V30 23980 N 16.0199 3.31704 -3.22876 0
M  V30 23981 C 15.8699 2.03326 -2.74871 0
M  V30 23982 O 15.7799 1.06486 -3.48076 0
M  V30 23983 N 15.8299 1.91838 -1.37456 0
M  V30 23984 C 15.9199 2.94295 -0.462035 0
M  V30 23985 C 16.0699 4.25064 -1.05249 0
M  V30 23986 C 16.1199 4.40214 -2.39192 0
M  V30 23987 H 18.8609 6.54063 -5.71245 0
M  V30 23988 H 19.1299 5.30339 -4.43905 0
M  V30 23989 H 18.2629 4.55889 -6.76652 0
M  V30 23990 H 15.6079 2.6167 -5.17842 0
M  V30 23991 H 15.3289 5.52155 -4.41878 0
M  V30 23992 H 14.3369 4.51918 -5.53297 0
M  V30 23993 H 16.1709 6.25055 -6.55162 0
M  V30 23994 H 16.2419 5.39798 -2.81523 0
M  V30 23995 P 14.2999 4.23843 -7.83734 0
M  V30 23996 O 14.0799 4.19407 -9.29784 0
M  V30 23997 O 13.5099 5.24426 -7.09156 0
M  V30 23998 O 14.0499 2.7935 -7.20758 0
M  V30 23999 C 14.9899 1.7299 -7.50419 0
M  V30 24000 C 14.2599 0.406376 -7.57911 0
M  V30 24001 O 14.0499 -0.0897726 -6.21935 0
M  V30 24002 C 12.8599 0.447224 -8.1878 0
M  V30 24003 O 12.4699 -0.825065 -8.71101 0
M  V30 24004 C 11.9799 0.783801 -6.99623 0
M  V30 24005 C 12.6899 0.0619192 -5.85967 0
M  V30 24006 N 12.6399 0.7859 -4.56281 0
M  V30 24007 H 15.4789 1.93423 -8.4679 0
M  V30 24008 H 15.7509 1.68181 -6.71046 0
M  V30 24009 H 14.8829 -0.289041 -8.15388 0
M  V30 24010 P 10.92 -1.17771 -8.83182 0
M  V30 24011 O 10.7 -2.07206 -9.98732 0
M  V30 24012 O 10.13 0.0743816 -8.81969 0
M  V30 24013 O 10.67 -1.97652 -7.47304 0
M  V30 24014 C 11.61 -3.01133 -7.08783 0
M  V30 24015 C 10.88 -4.12613 -6.37049 0
M  V30 24016 O 10.67 -3.72827 -4.97879 0
M  V30 24017 C 9.47996 -4.45085 -6.88694 0
M  V30 24018 O 9.08996 -5.7877 -6.5624 0
M  V30 24019 C 8.59996 -3.47817 -6.12078 0
M  V30 24020 C 9.30996 -3.39414 -4.77697 0
M  V30 24021 N 9.25996 -2.04615 -4.15333 0
M  V30 24022 H 12.099 -3.41248 -7.98759 0
M  V30 24023 H 12.371 -2.5837 -6.41742 0
M  V30 24024 H 11.503 -5.02657 -6.42673 0
M  V30 24025 P 7.53998 -6.144 -6.45285 0
M  V30 24026 O 7.31998 -7.54673 -6.86199 0
M  V30 24027 O 6.74998 -5.12391 -7.179 0
M  V30 24028 O 7.28998 -5.99158 -4.88404 0
M  V30 24029 C 8.22998 -6.60062 -3.96313 0
M  V30 24030 C 7.49998 -7.08259 -2.72856 0
M  V30 24031 O 7.28998 -5.9427 -1.83651 0
M  V30 24032 C 6.09998 -7.65087 -2.94749 0
M  V30 24033 O 5.70998 -8.53963 -1.90717 0
M  V30 24034 C 5.21998 -6.41069 -2.90698 0
M  V30 24035 C 5.92998 -5.5528 -1.86931 0
M  V30 24036 N 5.87998 -4.09575 -2.15696 0
M  V30 24037 C 5.72998 -3.24249 -1.08435 0
M  V30 24038 O 5.63998 -3.63946 0.0628747 0
M  V30 24039 N 5.68998 -1.90009 -1.39973 0
M  V30 24040 C 5.77998 -1.34884 -2.65614 0
M  V30 24041 C 5.92998 -2.3145 -3.71736 0
M  V30 24042 C 5.97998 -3.63518 -3.44754 0
M  V30 24043 H 8.72098 -7.45402 -4.45526 0
M  V30 24044 H 8.98998 -5.86062 -3.67208 0
M  V30 24045 H 8.12298 -7.84412 -2.24479 0
M  V30 24046 H 5.46798 -5.73358 -0.888409 0
M  V30 24047 H 5.18898 -5.90877 -3.88583 0
M  V30 24048 H 4.19698 -6.65867 -2.58821 0
M  V30 24049 H 6.03098 -8.16248 -3.92006 0
M  V30 24050 H 6.10198 -4.34551 -4.26383 0
M  V30 24051 P 4.16 -8.7635 -1.60911 0
M  V30 24052 O 3.94 -10.1388 -1.11561 0
M  V30 24053 O 3.37 -8.36503 -2.79617 0
M  V30 24054 O 3.91 -7.71806 -0.42951 0
M  V30 24055 C 4.85 -7.67148 0.673689 0
M  V30 24056 C 4.12 -7.33374 1.95559 0
M  V30 24057 O 3.91 -5.88721 2.00726 0
M  V30 24058 C 2.72 -7.92526 2.10483 0
M  V30 24059 O 2.33 -8.02971 3.47653 0
M  V30 24060 C 1.84 -6.89602 1.41652 0
M  V30 24061 C 2.55 -5.59201 1.75185 0
M  V30 24062 N 2.5 -4.58235 0.662552 0
M  V30 24063 H 5.339 -8.65116 0.777161 0
M  V30 24064 H 5.611 -6.90173 0.474152 0
M  V30 24065 H 4.743 -7.66548 2.79458 0
M  V30 24066 H 1.613 -8.66322 3.55694 0
M  V30 END ATOM
M  V30 BEGIN BOND
M  V30 END BOND
M  V30 END CTAB
M  END
$$$$
